# generated using pymatgen
data_Dy2Se3
_symmetry_space_group_name_H-M   'P 1'
_cell_length_a   4.00803873
_cell_length_b   10.99046286
_cell_length_c   11.09462547
_cell_angle_alpha   90.00000000
_cell_angle_beta   90.00000000
_cell_angle_gamma   90.00000000
_symmetry_Int_Tables_number   1
_chemical_formula_structural   Dy2Se3
_chemical_formula_sum   'Dy8 Se12'
_cell_volume   488.72047979
_cell_formula_units_Z   4
loop_
 _symmetry_equiv_pos_site_id
 _symmetry_equiv_pos_as_xyz
  1  'x, y, z'
loop_
 _atom_site_type_symbol
 _atom_site_label
 _atom_site_symmetry_multiplicity
 _atom_site_fract_x
 _atom_site_fract_y
 _atom_site_fract_z
 _atom_site_occupancy
  Dy  Dy0  1  0.25000000  -0.00221793  0.80661017  1
  Dy  Dy1  1  0.75000000  0.00221793  0.19338983  1
  Dy  Dy2  1  0.75000000  0.49778207  0.69338983  1
  Dy  Dy3  1  0.25000000  0.50221793  0.30661017  1
  Dy  Dy4  1  0.25000000  0.18759816  0.48748445  1
  Dy  Dy5  1  0.75000000  0.81240184  0.51251555  1
  Dy  Dy6  1  0.75000000  0.68759816  0.01251555  1
  Dy  Dy7  1  0.25000000  0.31240184  0.98748445  1
  Se  Se0  1  0.25000000  0.30538646  0.72626651  1
  Se  Se1  1  0.75000000  0.69461354  0.27373349  1
  Se  Se2  1  0.75000000  0.80538646  0.77373349  1
  Se  Se3  1  0.25000000  0.19461354  0.22626651  1
  Se  Se4  1  0.25000000  0.94421960  0.38169502  1
  Se  Se5  1  0.75000000  0.05578040  0.61830498  1
  Se  Se6  1  0.75000000  0.44421960  0.11830498  1
  Se  Se7  1  0.25000000  0.55578040  0.88169502  1
  Se  Se8  1  0.25000000  0.87411678  0.04505236  1
  Se  Se9  1  0.75000000  0.12588322  0.95494764  1
  Se  Se10  1  0.75000000  0.37411678  0.45494764  1
  Se  Se11  1  0.25000000  0.62588322  0.54505236  1
loop_
_geom_bond_atom_site_label_1
_geom_bond_atom_site_label_2
_geom_bond_distance
_geom_bond_site_symmetry_2
Dy0 Se2 2.936038 1_445
Dy0 Se2 2.936038 1_545
Dy0 Se9 2.950718 1_455
Dy0 Se9 2.950718 1_555
Dy0 Se5 2.964298 1_555
Dy0 Se5 2.964298 1_455
Dy0 Se8 2.974145 1_546
Dy0 Se0 3.496254 1_555
Dy1 Se3 2.936038 1_555
Dy1 Se3 2.936038 1_655
Dy1 Se8 2.950718 1_545
Dy1 Se8 2.950718 1_645
Dy1 Se4 2.964298 1_545
Dy1 Se4 2.964298 1_645
Dy1 Se9 2.974145 1_554
Dy1 Se1 3.496254 1_545
Dy2 Se0 2.936038 1_555
Dy2 Se0 2.936038 1_655
Dy2 Se11 2.950718 1_655
Dy2 Se11 2.950718 1_555
Dy2 Se7 2.964298 1_555
Dy2 Se7 2.964298 1_655
Dy2 Se10 2.974145 1_555
Dy2 Se2 3.496254 1_555
Dy3 Se1 2.936038 1_555
Dy3 Se1 2.936038 1_455
Dy3 Se10 2.950718 1_555
Dy3 Se10 2.950718 1_455
Dy3 Se6 2.964298 1_555
Dy3 Se6 2.964298 1_455
Dy3 Se11 2.974145 1_555
Dy3 Se3 3.496254 1_555
Dy4 Se5 2.867318 1_455
Dy4 Se5 2.867318 1_555
Dy4 Se10 2.889394 1_455
Dy4 Se10 2.889394 1_555
Dy4 Se3 2.899141 1_555
Dy4 Se4 2.921017 1_545
Dy4 Se0 2.948576 1_555
Dy5 Se4 2.867318 1_555
Dy5 Se4 2.867318 1_655
Dy5 Se11 2.889394 1_555
Dy5 Se11 2.889394 1_655
Dy5 Se2 2.899141 1_555
Dy5 Se5 2.921017 1_565
Dy5 Se1 2.948576 1_555
Dy6 Se7 2.867318 1_554
Dy6 Se7 2.867318 1_654
Dy6 Se8 2.889394 1_555
Dy6 Se8 2.889394 1_655
Dy6 Se1 2.899141 1_555
Dy6 Se6 2.921017 1_555
Dy6 Se2 2.948576 1_554
Dy7 Se6 2.867318 1_456
Dy7 Se6 2.867318 1_556
Dy7 Se9 2.889394 1_555
Dy7 Se9 2.889394 1_455
Dy7 Se0 2.899141 1_555
Dy7 Se7 2.921017 1_555
Dy7 Se3 2.948576 1_556
