# generated using pymatgen
data_Li5SbS
_symmetry_space_group_name_H-M   'P 1'
_cell_length_a   4.50905600
_cell_length_b   5.82170200
_cell_length_c   18.94543100
_cell_angle_alpha   90.00000000
_cell_angle_beta   90.00000000
_cell_angle_gamma   90.00000000
_symmetry_Int_Tables_number   1
_chemical_formula_structural   Li5SbS
_chemical_formula_sum   'Li20 Sb4 S4'
_cell_volume   497.32476933
_cell_formula_units_Z   4
loop_
 _symmetry_equiv_pos_site_id
 _symmetry_equiv_pos_as_xyz
  1  'x, y, z'
loop_
 _atom_site_type_symbol
 _atom_site_label
 _atom_site_symmetry_multiplicity
 _atom_site_fract_x
 _atom_site_fract_y
 _atom_site_fract_z
 _atom_site_occupancy
  Li  Li0  1  0.25399800  0.74961200  0.70110500  1
  Li  Li1  1  0.75635100  0.81714900  0.61805200  1
  Li  Li2  1  0.25080400  0.26813300  0.69481000  1
  Li  Li3  1  0.75777900  0.94400600  0.47895700  1
  Li  Li4  1  0.75678200  0.30607400  0.58296300  1
  Li  Li5  1  0.25678200  0.19392600  0.41703700  1
  Li  Li6  1  0.25777900  0.55599400  0.52104300  1
  Li  Li7  1  0.75080400  0.23186700  0.30519000  1
  Li  Li8  1  0.25635100  0.68285100  0.38194800  1
  Li  Li9  1  0.75399800  0.75038800  0.29889500  1
  Li  Li10  1  0.24600200  0.25038800  0.20110500  1
  Li  Li11  1  0.74364900  0.18285100  0.11805200  1
  Li  Li12  1  0.24919600  0.73186700  0.19481000  1
  Li  Li13  1  0.74222100  0.05599400  0.97895700  1
  Li  Li14  1  0.74321800  0.69392600  0.08296300  1
  Li  Li15  1  0.24321800  0.80607400  0.91703700  1
  Li  Li16  1  0.24222100  0.44400600  0.02104300  1
  Li  Li17  1  0.74919600  0.76813300  0.80519000  1
  Li  Li18  1  0.24364900  0.31714900  0.88194800  1
  Li  Li19  1  0.74600200  0.24961200  0.79889500  1
  Sb  Sb0  1  0.25678100  0.01962100  0.56743700  1
  Sb  Sb1  1  0.75678100  0.48037900  0.43256300  1
  Sb  Sb2  1  0.24321900  0.98037900  0.06743700  1
  Sb  Sb3  1  0.74321900  0.51962100  0.93256300  1
  S  S0  1  0.75321200  0.51502000  0.70019200  1
  S  S1  1  0.25321200  0.98498000  0.29980800  1
  S  S2  1  0.74678800  0.48498000  0.20019200  1
  S  S3  1  0.24678800  0.01502000  0.79980800  1
loop_
_geom_bond_atom_site_label_1
_geom_bond_atom_site_label_2
_geom_bond_distance
_geom_bond_site_symmetry_2
Li0 S3 2.425956 1_565
Li0 S0 2.632951 1_555
Li0 S0 2.639014 1_455
Li0 Sb0 2.980621 1_565
Li1 S0 2.348539 1_555
Li1 Sb0 2.717186 1_565
Li1 Sb0 2.720402 1_665
Li2 S3 2.475625 1_555
Li2 S0 2.666513 1_455
Li2 S0 2.684811 1_555
Li2 Sb0 2.813730 1_555
Li3 Sb1 2.838611 1_555
Li3 Sb0 2.840134 1_665
Li3 Sb0 2.847270 1_565
Li3 Sb1 3.243954 1_565
Li4 S0 2.532307 1_555
Li4 Sb0 2.819652 1_655
Li4 Sb0 2.819659 1_555
Li4 Sb1 3.024692 1_555
Li5 S1 2.532307 1_545
Li5 Sb1 2.819652 1_555
Li5 Sb1 2.819659 1_455
Li5 Sb0 3.024692 1_555
Li6 Sb0 2.838611 1_565
Li6 Sb1 2.840134 1_555
Li6 Sb1 2.847270 1_455
Li6 Sb0 3.243954 1_555
Li7 S2 2.475625 1_555
Li7 S1 2.666513 1_545
Li7 S1 2.684811 1_645
Li7 Sb1 2.813730 1_555
Li8 S1 2.348539 1_555
Li8 Sb1 2.717186 1_455
Li8 Sb1 2.720402 1_555
Li9 S2 2.425956 1_555
Li9 S1 2.632951 1_655
Li9 S1 2.639014 1_555
Li9 Sb1 2.980621 1_555
Li10 S1 2.425956 1_545
Li10 S2 2.632951 1_455
Li10 S2 2.639014 1_555
Li10 Sb2 2.980621 1_545
Li11 S2 2.348539 1_555
Li11 Sb2 2.717186 1_645
Li11 Sb2 2.720402 1_545
Li12 S1 2.475625 1_555
Li12 S2 2.666513 1_555
Li12 S2 2.684811 1_455
Li12 Sb2 2.813730 1_555
Li13 Sb3 2.838611 1_555
Li13 Sb2 2.840134 1_546
Li13 Sb2 2.847270 1_646
Li13 Sb3 3.243954 1_545
Li14 S2 2.532307 1_555
Li14 Sb2 2.819652 1_555
Li14 Sb2 2.819659 1_655
Li14 Sb3 3.024692 1_554
Li15 S3 2.532307 1_565
Li15 Sb3 2.819652 1_455
Li15 Sb3 2.819659 1_555
Li15 Sb2 3.024692 1_556
Li16 Sb2 2.838611 1_545
Li16 Sb3 2.840134 1_454
Li16 Sb3 2.847270 1_554
Li16 Sb2 3.243954 1_555
Li17 S0 2.475625 1_555
Li17 S3 2.666513 1_665
Li17 S3 2.684811 1_565
Li17 Sb3 2.813730 1_555
Li18 S3 2.348539 1_555
Li18 Sb3 2.717186 1_555
Li18 Sb3 2.720402 1_455
Li19 S0 2.425956 1_555
Li19 S3 2.632951 1_555
Li19 S3 2.639014 1_655
Li19 Sb3 2.980621 1_555
