# generated using pymatgen
data_Li7MgNi7O16
_symmetry_space_group_name_H-M   'P 1'
_cell_length_a   5.02092800
_cell_length_b   5.74454619
_cell_length_c   9.83455017
_cell_angle_alpha   105.88888529
_cell_angle_beta   100.89363621
_cell_angle_gamma   90.07699887
_symmetry_Int_Tables_number   1
_chemical_formula_structural   Li7MgNi7O16
_chemical_formula_sum   'Li7 Mg1 Ni7 O16'
_cell_volume   267.48039025
_cell_formula_units_Z   1
loop_
 _symmetry_equiv_pos_site_id
 _symmetry_equiv_pos_as_xyz
  1  'x, y, z'
loop_
 _atom_site_type_symbol
 _atom_site_label
 _atom_site_symmetry_multiplicity
 _atom_site_fract_x
 _atom_site_fract_y
 _atom_site_fract_z
 _atom_site_occupancy
  Li  Li0  1  0.24762200  0.86546900  0.74292200  1
  Li  Li1  1  0.23790200  0.37877200  0.74837400  1
  Li  Li2  1  0.50324900  0.25234000  0.99863000  1
  Li  Li3  1  0.75237800  0.13453100  0.25707800  1
  Li  Li4  1  0.76209800  0.62122800  0.25162600  1
  Li  Li5  1  0.49675100  0.74766000  0.00137000  1
  Li  Li6  1  0.00000000  0.00000000  0.50000000  1
  Mg  Mg0  1  0.00000000  0.00000000  0.00000000  1
  Ni  Ni0  1  0.74653200  0.62812000  0.74911500  1
  Ni  Ni1  1  0.73601800  0.13321100  0.75119700  1
  Ni  Ni2  1  0.00000000  0.50000000  0.00000000  1
  Ni  Ni3  1  0.25346800  0.37188000  0.25088500  1
  Ni  Ni4  1  0.26398200  0.86678900  0.24880300  1
  Ni  Ni5  1  0.50693700  0.75100100  0.50041300  1
  Ni  Ni6  1  0.49306300  0.24899900  0.49958700  1
  O  O0  1  0.08005900  0.20139700  0.87206200  1
  O  O1  1  0.63059000  0.94438000  0.86472200  1
  O  O2  1  0.36941000  0.05562000  0.13527800  1
  O  O3  1  0.91316900  0.32527400  0.12726300  1
  O  O4  1  0.62676500  0.42031800  0.86518300  1
  O  O5  1  0.08683100  0.67472600  0.87273700  1
  O  O6  1  0.37323500  0.57968200  0.13481700  1
  O  O7  1  0.91994100  0.79860300  0.12793800  1
  O  O8  1  0.58412700  0.41755800  0.37524400  1
  O  O9  1  0.16557900  0.69286600  0.36658000  1
  O  O10  1  0.84528500  0.84874100  0.63560000  1
  O  O11  1  0.59912100  0.91973700  0.37572200  1
  O  O12  1  0.41587300  0.58244200  0.62475600  1
  O  O13  1  0.15471500  0.15125900  0.36440000  1
  O  O14  1  0.40087900  0.08026300  0.62427800  1
  O  O15  1  0.83442100  0.30713400  0.63342000  1
loop_
_geom_bond_atom_site_label_1
_geom_bond_atom_site_label_2
_geom_bond_distance
_geom_bond_site_symmetry_2
Li0 O12 2.011909 1_555
Li0 O1 2.041436 1_555
Li0 O10 2.083774 1_455
Li0 O14 2.145037 1_565
Li0 O5 2.153006 1_555
Li0 O0 2.260760 1_565
Li1 O5 2.043821 1_555
Li1 O0 2.046180 1_555
Li1 O4 2.046842 1_555
Li1 O14 2.082050 1_555
Li1 O15 2.104485 1_455
Li1 O12 2.198177 1_555
Li2 O4 2.009366 1_555
Li2 O1 2.078079 1_545
Li2 O2 2.169206 1_556
Li2 O6 2.170423 1_556
Li2 O3 2.176081 1_556
Li2 O0 2.224640 1_555
Li3 O8 2.011909 1_555
Li3 O2 2.041436 1_555
Li3 O13 2.083774 1_655
Li3 O11 2.145037 1_545
Li3 O3 2.153006 1_555
Li3 O7 2.260760 1_545
Li4 O3 2.043821 1_555
Li4 O7 2.046180 1_555
Li4 O6 2.046842 1_555
Li4 O11 2.082050 1_555
Li4 O9 2.104485 1_655
Li4 O8 2.198177 1_555
Li5 O6 2.009366 1_555
Li5 O2 2.078079 1_565
Li5 O1 2.169206 1_554
Li5 O4 2.170423 1_554
Li5 O5 2.176081 1_554
Li5 O7 2.224640 1_555
Li6 O13 2.039867 1_555
Li6 O10 2.039867 1_445
Li6 O14 2.125281 1_555
Li6 O11 2.125281 1_445
Li6 O15 2.162039 1_455
Li6 O9 2.162039 1_545
Mg0 O7 2.017458 1_445
Mg0 O0 2.017458 1_554
Mg0 O2 2.035985 1_555
Mg0 O1 2.035985 1_444
Mg0 O5 2.043507 1_544
Mg0 O3 2.043507 1_455
Ni0 O12 1.837548 1_555
Ni0 O5 1.872039 1_655
Ni0 O15 1.983073 1_555
Ni0 O1 2.013502 1_555
Ni0 O10 2.020043 1_555
Ni0 O4 2.023160 1_555
Ni1 O15 1.852721 1_555
Ni1 O14 1.865176 1_555
Ni1 O10 1.866758 1_545
Ni1 O4 1.870898 1_555
Ni1 O0 1.875477 1_655
Ni1 O1 1.894294 1_545
Ni2 O3 1.912296 1_455
Ni2 O5 1.912296 1_554
Ni2 O7 1.923107 1_455
Ni2 O0 1.923107 1_554
Ni2 O6 2.050737 1_555
Ni2 O4 2.050737 1_454
Ni3 O8 1.837548 1_555
Ni3 O3 1.872039 1_455
Ni3 O9 1.983073 1_555
Ni3 O2 2.013502 1_555
Ni3 O13 2.020043 1_555
Ni3 O6 2.023160 1_555
Ni4 O9 1.852721 1_555
Ni4 O11 1.865176 1_555
Ni4 O13 1.866758 1_565
Ni4 O6 1.870898 1_555
Ni4 O7 1.875477 1_455
Ni4 O2 1.894294 1_565
Ni5 O12 1.870966 1_555
Ni5 O11 1.876625 1_555
Ni5 O9 1.920047 1_555
Ni5 O10 1.924537 1_555
Ni5 O8 2.055683 1_555
Ni5 O14 2.081199 1_565
Ni6 O8 1.870966 1_555
Ni6 O14 1.876625 1_555
Ni6 O15 1.920047 1_555
Ni6 O13 1.924537 1_555
Ni6 O12 2.055683 1_555
Ni6 O11 2.081199 1_545
