# generated using pymatgen
data_Li2Ti13O22
_symmetry_space_group_name_H-M   'P 1'
_cell_length_a   7.67994716
_cell_length_b   7.67994716
_cell_length_c   14.05668100
_cell_angle_alpha   90.00000000
_cell_angle_beta   90.00000000
_cell_angle_gamma   97.84195336
_symmetry_Int_Tables_number   1
_chemical_formula_structural   Li2Ti13O22
_chemical_formula_sum   'Li4 Ti26 O44'
_cell_volume   821.33193176
_cell_formula_units_Z   2
loop_
 _symmetry_equiv_pos_site_id
 _symmetry_equiv_pos_as_xyz
  1  'x, y, z'
loop_
 _atom_site_type_symbol
 _atom_site_label
 _atom_site_symmetry_multiplicity
 _atom_site_fract_x
 _atom_site_fract_y
 _atom_site_fract_z
 _atom_site_occupancy
  Li  Li0  1  0.66588900  0.66588900  0.91281900  1
  Li  Li1  1  0.16588900  0.16588900  0.58718100  1
  Li  Li2  1  0.83411100  0.83411100  0.41281900  1
  Li  Li3  1  0.33411100  0.33411100  0.08718100  1
  Ti  Ti0  1  0.05652500  0.79889200  0.17764800  1
  Ti  Ti1  1  0.20110800  0.94347500  0.82235200  1
  Ti  Ti2  1  0.23838200  0.76161800  0.50000000  1
  Ti  Ti3  1  0.07402200  0.56739400  0.65141100  1
  Ti  Ti4  1  0.43260600  0.92597800  0.34858900  1
  Ti  Ti5  1  0.06739400  0.57402200  0.84858900  1
  Ti  Ti6  1  0.42597800  0.93260600  0.15141100  1
  Ti  Ti7  1  0.26161800  0.73838200  0.00000000  1
  Ti  Ti8  1  0.29889200  0.55652500  0.32235200  1
  Ti  Ti9  1  0.44347500  0.70110800  0.67764800  1
  Ti  Ti10  1  0.00000000  0.00000000  0.00000000  1
  Ti  Ti11  1  0.33753600  0.33753600  0.83864500  1
  Ti  Ti12  1  0.83753600  0.83753600  0.66135500  1
  Ti  Ti13  1  0.50000000  0.50000000  0.50000000  1
  Ti  Ti14  1  0.66246400  0.66246400  0.16135500  1
  Ti  Ti15  1  0.16246400  0.16246400  0.33864500  1
  Ti  Ti16  1  0.70110800  0.44347500  0.67764800  1
  Ti  Ti17  1  0.55652500  0.29889200  0.32235200  1
  Ti  Ti18  1  0.73838200  0.26161800  0.00000000  1
  Ti  Ti19  1  0.57402200  0.06739400  0.84858900  1
  Ti  Ti20  1  0.93260600  0.42597800  0.15141100  1
  Ti  Ti21  1  0.92597800  0.43260600  0.34858900  1
  Ti  Ti22  1  0.56739400  0.07402200  0.65141100  1
  Ti  Ti23  1  0.76161800  0.23838200  0.50000000  1
  Ti  Ti24  1  0.94347500  0.20110800  0.82235200  1
  Ti  Ti25  1  0.79889200  0.05652500  0.17764800  1
  O  O0  1  0.02506600  0.78210400  0.57866800  1
  O  O1  1  0.21789600  0.97493400  0.42133100  1
  O  O2  1  0.03705700  0.78871700  0.91968000  1
  O  O3  1  0.21128300  0.96294300  0.08032000  1
  O  O4  1  0.10178400  0.59907500  0.09068700  1
  O  O5  1  0.40092500  0.89821600  0.90931300  1
  O  O6  1  0.22480800  0.72480800  0.75000000  1
  O  O7  1  0.27519200  0.77519200  0.25000000  1
  O  O8  1  0.09907500  0.60178400  0.40931300  1
  O  O9  1  0.39821600  0.90092500  0.59068700  1
  O  O10  1  0.11809900  0.37583500  0.75432300  1
  O  O11  1  0.12416500  0.38190100  0.25432300  1
  O  O12  1  0.61809900  0.87583500  0.74567700  1
  O  O13  1  0.62416500  0.88190100  0.24567700  1
  O  O14  1  0.28871700  0.53705700  0.58032000  1
  O  O15  1  0.46294300  0.71128300  0.41968000  1
  O  O16  1  0.28210400  0.52506600  0.92133100  1
  O  O17  1  0.47493400  0.71789600  0.07866900  1
  O  O18  1  0.15550200  0.15550200  0.90439400  1
  O  O19  1  0.49655000  0.49655000  0.75504500  1
  O  O20  1  0.99655000  0.99655000  0.74495500  1
  O  O21  1  0.65550200  0.65550200  0.59560600  1
  O  O22  1  0.34449800  0.34449800  0.40439400  1
  O  O23  1  0.50345000  0.50345000  0.24495500  1
  O  O24  1  0.84449800  0.84449800  0.09560600  1
  O  O25  1  0.00345000  0.00345000  0.25504500  1
  O  O26  1  0.52506600  0.28210400  0.92133100  1
  O  O27  1  0.71789600  0.47493400  0.07866900  1
  O  O28  1  0.53705700  0.28871700  0.58032000  1
  O  O29  1  0.71128300  0.46294300  0.41968000  1
  O  O30  1  0.87583500  0.61809900  0.74567700  1
  O  O31  1  0.88190100  0.62416500  0.24567700  1
  O  O32  1  0.37583500  0.11809900  0.75432300  1
  O  O33  1  0.38190100  0.12416500  0.25432300  1
  O  O34  1  0.90092500  0.39821600  0.59068700  1
  O  O35  1  0.60178400  0.09907500  0.40931300  1
  O  O36  1  0.72480800  0.22480800  0.75000000  1
  O  O37  1  0.77519200  0.27519200  0.25000000  1
  O  O38  1  0.89821600  0.40092500  0.90931300  1
  O  O39  1  0.59907500  0.10178400  0.09068700  1
  O  O40  1  0.78871700  0.03705700  0.91968000  1
  O  O41  1  0.96294300  0.21128300  0.08032000  1
  O  O42  1  0.78210400  0.02506600  0.57866800  1
  O  O43  1  0.97493400  0.21789600  0.42133100  1
loop_
_geom_bond_atom_site_label_1
_geom_bond_atom_site_label_2
_geom_bond_distance
_geom_bond_site_symmetry_2
O0 Ti12 1.942609 1_455
O0 Ti2 2.000447 1_555
O0 Ti3 2.018706 1_555
O1 Ti15 1.942601 1_565
O1 Ti2 2.000455 1_555
O1 Ti4 2.018698 1_555
O2 Ti5 1.968861 1_555
O2 Ti10 2.028471 1_566
O2 Ti1 2.112597 1_555
O2 Ti7 2.140182 1_556
O3 Ti6 1.968861 1_555
O3 Ti10 2.028471 1_565
O3 Ti0 2.112597 1_555
O3 Ti7 2.140182 1_555
O4 Ti20 1.926818 1_455
O4 Ti7 1.979408 1_555
O4 Ti0 2.028679 1_555
O5 Ti19 1.926818 1_565
O5 Ti7 1.979408 1_556
O5 Ti1 2.028679 1_555
O6 Ti1 1.992764 1_555
O6 Ti9 1.992764 1_555
O6 Ti3 2.083519 1_555
O6 Ti5 2.083519 1_555
O7 Ti8 1.992764 1_555
O7 Ti0 1.992764 1_555
O7 Ti4 2.083519 1_555
O7 Ti6 2.083519 1_555
O8 Ti21 1.926818 1_455
O8 Ti2 1.979408 1_555
O8 Ti8 2.028679 1_555
O9 Ti22 1.926818 1_565
O9 Ti2 1.979408 1_555
O9 Ti9 2.028679 1_555
O10 Ti24 2.005640 1_455
O10 Ti5 2.094246 1_555
O10 Ti11 2.113481 1_555
O10 Ti3 2.123078 1_555
O11 Ti8 2.005640 1_555
O11 Ti21 2.094246 1_455
O11 Ti15 2.113481 1_555
O11 Ti20 2.123078 1_455
O12 Ti9 2.005640 1_555
O12 Ti22 2.094246 1_565
O12 Ti12 2.113481 1_555
O12 Ti19 2.123078 1_565
O13 Ti25 2.005640 1_565
O13 Ti6 2.094246 1_555
O13 Ti14 2.113481 1_555
O13 Ti4 2.123078 1_555
O14 Ti3 1.968861 1_555
O14 Ti13 2.028471 1_555
O14 Ti9 2.112597 1_555
O14 Ti2 2.140182 1_555
O15 Ti4 1.968861 1_555
O15 Ti13 2.028471 1_555
O15 Ti8 2.112597 1_555
O15 Ti2 2.140182 1_555
O16 Ti11 1.942601 1_555
O16 Ti7 2.000455 1_556
O16 Ti5 2.018698 1_555
O17 Ti14 1.942601 1_555
O17 Ti7 2.000455 1_555
O17 Ti6 2.018698 1_555
O18 Ti11 2.056626 1_555
O18 Ti24 2.063931 1_455
O18 Ti1 2.063931 1_545
O18 Ti10 2.066237 1_556
O19 Ti11 1.989154 1_555
O19 Ti16 1.998134 1_555
O19 Ti9 1.998134 1_555
O20 Ti12 1.989154 1_555
O20 Ti24 1.998134 1_565
O20 Ti1 1.998134 1_655
O21 Ti12 2.056626 1_555
O21 Ti16 2.063931 1_555
O21 Ti9 2.063931 1_555
O21 Ti13 2.066237 1_555
O22 Ti15 2.056626 1_555
O22 Ti8 2.063931 1_555
O22 Ti17 2.063931 1_555
O22 Ti13 2.066237 1_555
O23 Ti14 1.989154 1_555
O23 Ti8 1.998134 1_555
O23 Ti17 1.998134 1_555
O24 Ti14 2.056626 1_555
O24 Ti0 2.063931 1_655
O24 Ti25 2.063931 1_565
O24 Ti10 2.066237 1_665
O25 Ti15 1.989154 1_555
O25 Ti0 1.998134 1_545
O25 Ti25 1.998134 1_455
O26 Ti11 1.942601 1_555
O26 Ti18 2.000455 1_556
O26 Ti19 2.018698 1_555
O27 Ti14 1.942601 1_555
O27 Ti18 2.000455 1_555
O27 Ti20 2.018698 1_555
O28 Ti22 1.968861 1_555
O28 Ti13 2.028471 1_555
O28 Ti16 2.112597 1_555
O28 Ti23 2.140182 1_555
O29 Ti21 1.968861 1_555
O29 Ti13 2.028471 1_555
O29 Ti17 2.112597 1_555
O29 Ti23 2.140182 1_555
O30 Ti16 2.005640 1_555
O30 Ti3 2.094246 1_655
O30 Ti12 2.113481 1_555
O30 Ti5 2.123078 1_655
O31 Ti0 2.005640 1_655
O31 Ti20 2.094246 1_555
O31 Ti14 2.113481 1_555
O31 Ti21 2.123078 1_555
O32 Ti1 2.005640 1_545
O32 Ti19 2.094246 1_555
O32 Ti11 2.113481 1_555
O32 Ti22 2.123078 1_555
O33 Ti17 2.005640 1_555
O33 Ti4 2.094246 1_545
O33 Ti15 2.113481 1_555
O33 Ti6 2.123078 1_545
O34 Ti3 1.926818 1_655
O34 Ti23 1.979408 1_555
O34 Ti16 2.028679 1_555
O35 Ti4 1.926818 1_545
O35 Ti23 1.979408 1_555
O35 Ti17 2.028679 1_555
O36 Ti24 1.992764 1_555
O36 Ti16 1.992764 1_555
O36 Ti22 2.083519 1_555
O36 Ti19 2.083519 1_555
O37 Ti17 1.992764 1_555
O37 Ti25 1.992764 1_555
O37 Ti21 2.083519 1_555
O37 Ti20 2.083519 1_555
O38 Ti5 1.926818 1_655
O38 Ti18 1.979408 1_556
O38 Ti24 2.028679 1_555
O39 Ti6 1.926818 1_545
O39 Ti18 1.979408 1_555
O39 Ti25 2.028679 1_555
O40 Ti19 1.968861 1_555
O40 Ti10 2.028471 1_656
O40 Ti24 2.112597 1_555
O40 Ti18 2.140182 1_556
O41 Ti20 1.968861 1_555
O41 Ti10 2.028471 1_655
O41 Ti25 2.112597 1_555
O41 Ti18 2.140182 1_555
O42 Ti12 1.942609 1_545
O42 Ti23 2.000447 1_555
O42 Ti22 2.018706 1_555
O43 Ti15 1.942601 1_655
O43 Ti23 2.000455 1_555
O43 Ti21 2.018698 1_555
