# generated using pymatgen
data_Li2TiCo2O5
_symmetry_space_group_name_H-M   'P 1'
_cell_length_a   5.23437400
_cell_length_b   5.25686923
_cell_length_c   7.75745995
_cell_angle_alpha   82.42429680
_cell_angle_beta   70.53341686
_cell_angle_gamma   67.69116933
_symmetry_Int_Tables_number   1
_chemical_formula_structural   Li2TiCo2O5
_chemical_formula_sum   'Li4 Ti2 Co4 O10'
_cell_volume   186.18823896
_cell_formula_units_Z   2
loop_
 _symmetry_equiv_pos_site_id
 _symmetry_equiv_pos_as_xyz
  1  'x, y, z'
loop_
 _atom_site_type_symbol
 _atom_site_label
 _atom_site_symmetry_multiplicity
 _atom_site_fract_x
 _atom_site_fract_y
 _atom_site_fract_z
 _atom_site_occupancy
  Li  Li0  1  0.10195000  0.50011700  0.79706200  1
  Li  Li1  1  0.19885400  0.00098800  0.59943500  1
  Li  Li2  1  0.49910600  0.49979600  0.99924800  1
  Li  Li3  1  0.79830700  0.99934400  0.40338500  1
  Ti  Ti0  1  0.69262700  0.50542400  0.60297500  1
  Ti  Ti1  1  0.00220700  0.00486000  0.99712900  1
  Co  Co0  1  0.29951600  0.49982000  0.40031300  1
  Co  Co1  1  0.39526500  0.99969700  0.20965200  1
  Co  Co2  1  0.90030900  0.49920700  0.19988200  1
  Co  Co3  1  0.60612600  0.99682200  0.79364400  1
  O  O0  1  0.14441300  0.75550700  0.18775100  1
  O  O1  1  0.03858700  0.26074600  0.40756800  1
  O  O2  1  0.34734700  0.74729000  0.79972500  1
  O  O3  1  0.54590100  0.74418800  0.41331000  1
  O  O4  1  0.66773400  0.24573100  0.18781900  1
  O  O5  1  0.23858400  0.22126900  0.99797600  1
  O  O6  1  0.47462000  0.27206900  0.59990500  1
  O  O7  1  0.76442400  0.77307800  0.00306900  1
  O  O8  1  0.92940000  0.72475100  0.59947800  1
  O  O9  1  0.85472200  0.24929700  0.80067400  1
loop_
_geom_bond_atom_site_label_1
_geom_bond_atom_site_label_2
_geom_bond_distance
_geom_bond_site_symmetry_2
Li0 O8 2.048235 1_455
Li0 O6 2.073903 1_555
Li0 O5 2.105723 1_555
Li0 O7 2.128940 1_456
Li0 O2 2.151877 1_555
Li0 O9 2.162279 1_455
Li1 O3 2.027569 1_545
Li1 O1 2.051915 1_555
Li1 O9 2.064846 1_455
Li1 O2 2.066028 1_545
Li1 O8 2.377500 1_445
Li1 O6 2.383457 1_555
Li2 O4 2.037943 1_556
Li2 O0 2.050926 1_556
Li2 O2 2.055060 1_555
Li2 O9 2.081983 1_555
Li2 O5 2.352052 1_555
Li2 O7 2.355158 1_556
Li3 O8 2.057497 1_555
Li3 O6 2.064156 1_565
Li3 O4 2.111810 1_565
Li3 O0 2.122685 1_655
Li3 O3 2.191114 1_555
Li3 O1 2.195970 1_665
Co0 O8 2.070266 1_455
Co0 O6 2.072391 1_555
Co0 O0 2.159674 1_555
Co0 O1 2.163646 1_555
Co0 O3 2.168465 1_555
Co0 O4 2.173631 1_555
Co1 O3 2.094881 1_555
Co1 O5 2.096128 1_564
Co1 O7 2.100719 1_555
Co1 O1 2.103801 1_565
Co1 O0 2.210575 1_555
Co1 O4 2.217479 1_565
Co2 O1 2.060793 1_655
Co2 O7 2.067963 1_555
Co2 O5 2.124629 1_654
Co2 O3 2.131296 1_555
Co2 O4 2.146312 1_555
Co2 O0 2.156427 1_655
Co3 O6 2.046024 1_565
Co3 O8 2.051712 1_555
Co3 O5 2.084023 1_565
Co3 O7 2.088736 1_556
Co3 O9 2.198931 1_565
Co3 O2 2.201770 1_555
O0 Ti1 1.985139 1_564
O1 Ti0 2.036588 1_455
O2 Ti0 2.034966 1_555
O2 Ti1 2.070711 1_565
O3 Ti0 1.965812 1_555
O4 Ti1 1.985297 1_654
O5 Ti1 1.975133 1_555
O6 Ti0 1.973868 1_555
O7 Ti1 2.033273 1_664
O8 Ti0 1.979972 1_555
O9 Ti1 2.020984 1_655
O9 Ti0 2.083349 1_555
