# generated using pymatgen
data_La2Mo2O9
_symmetry_space_group_name_H-M   'P 1'
_cell_length_a   7.27095500
_cell_length_b   7.28962914
_cell_length_c   7.34939515
_cell_angle_alpha   89.47068859
_cell_angle_beta   88.35481316
_cell_angle_gamma   87.76302989
_symmetry_Int_Tables_number   1
_chemical_formula_structural   La2Mo2O9
_chemical_formula_sum   'La4 Mo4 O18'
_cell_volume   389.06664654
_cell_formula_units_Z   2
loop_
 _symmetry_equiv_pos_site_id
 _symmetry_equiv_pos_as_xyz
  1  'x, y, z'
loop_
 _atom_site_type_symbol
 _atom_site_label
 _atom_site_symmetry_multiplicity
 _atom_site_fract_x
 _atom_site_fract_y
 _atom_site_fract_z
 _atom_site_occupancy
  La  La0  1  0.16627900  0.38891600  0.33816700  1
  La  La1  1  0.33135000  0.84764100  0.65792400  1
  La  La2  1  0.64399500  0.63915100  0.15827200  1
  La  La3  1  0.85631200  0.14258800  0.90811400  1
  Mo  Mo0  1  0.18046900  0.82621700  0.12347600  1
  Mo  Mo1  1  0.33066700  0.32313400  0.80444300  1
  Mo  Mo2  1  0.65686000  0.17426200  0.34308200  1
  Mo  Mo3  1  0.82317700  0.66632600  0.67588100  1
  O  O0  1  0.05462900  0.65429300  0.57900900  1
  O  O1  1  0.13259200  0.05611400  0.20503400  1
  O  O2  1  0.07951800  0.88717900  0.88268000  1
  O  O3  1  0.14939700  0.21000100  0.68902600  1
  O  O4  1  0.32341800  0.72423900  0.31570300  1
  O  O5  1  0.39256600  0.51262500  0.66521500  1
  O  O6  1  0.39683800  0.77219600  0.97482700  1
  O  O7  1  0.23759600  0.40101000  0.01799200  1
  O  O8  1  0.45295000  0.07564300  0.46285500  1
  O  O9  1  0.48827000  0.38005800  0.29269700  1
  O  O10  1  0.51906400  0.16513800  0.84164000  1
  O  O11  1  0.67836500  0.66562800  0.48513400  1
  O  O12  1  0.70441400  0.98491900  0.18073500  1
  O  O13  1  0.72382300  0.85527200  0.80359000  1
  O  O14  1  0.82031300  0.32835400  0.18115800  1
  O  O15  1  0.78565300  0.47353100  0.82469300  1
  O  O16  1  0.81290500  0.17340300  0.52637700  1
  O  O17  1  0.99538000  0.66696000  0.18007800  1
loop_
_geom_bond_atom_site_label_1
_geom_bond_atom_site_label_2
_geom_bond_distance
_geom_bond_site_symmetry_2
La0 O9 2.353859 1_555
La0 O7 2.396534 1_555
La0 O17 2.616260 1_455
La0 O1 2.647045 1_555
La0 O0 2.718920 1_555
La0 O4 2.739965 1_555
La0 O14 2.849029 1_455
La0 O3 2.880528 1_555
La1 O8 2.365874 1_565
La1 O2 2.440960 1_555
La1 O6 2.444016 1_555
La1 O5 2.465591 1_555
La1 O0 2.583528 1_555
La1 O4 2.681888 1_555
La1 O3 2.915622 1_565
La1 O11 3.053697 1_555
La1 O10 3.074516 1_565
La1 O13 3.079194 1_555
La2 O9 2.427645 1_555
La2 O11 2.432540 1_555
La2 O6 2.442668 1_554
La2 O14 2.565801 1_555
La2 O17 2.580476 1_555
La2 O12 2.582936 1_555
La2 O4 2.627178 1_555
La2 O15 2.888157 1_554
La2 O13 3.085842 1_554
La3 O2 2.426598 1_645
La3 O14 2.433420 1_556
La3 O13 2.476782 1_545
La3 O10 2.512847 1_555
La3 O15 2.520666 1_555
La3 O12 2.546506 1_546
La3 O3 2.691732 1_655
La3 O16 2.838092 1_555
La3 O1 3.053207 1_656
Mo0 O1 1.802781 1_565
Mo0 O17 1.847376 1_455
Mo0 O4 1.906143 1_555
Mo0 O6 1.919498 1_554
Mo0 O2 1.975526 1_554
Mo1 O5 1.775837 1_555
Mo1 O7 1.780138 1_556
Mo1 O10 1.780497 1_555
Mo1 O3 1.816249 1_555
Mo2 O16 1.785804 1_555
Mo2 O12 1.848705 1_545
Mo2 O8 1.867192 1_555
Mo2 O9 1.939718 1_555
Mo2 O14 2.022051 1_555
Mo3 O11 1.777422 1_555
Mo3 O13 1.790855 1_555
Mo3 O15 1.797257 1_555
Mo3 O0 1.807616 1_655
