# generated using pymatgen
data_LiMnPO4
_symmetry_space_group_name_H-M   'P 1'
_cell_length_a   5.67375800
_cell_length_b   8.41879700
_cell_length_c   19.84523900
_cell_angle_alpha   90.00000000
_cell_angle_beta   90.00000000
_cell_angle_gamma   90.00000000
_symmetry_Int_Tables_number   1
_chemical_formula_structural   LiMnPO4
_chemical_formula_sum   'Li12 Mn12 P12 O48'
_cell_volume   947.93198910
_cell_formula_units_Z   12
loop_
 _symmetry_equiv_pos_site_id
 _symmetry_equiv_pos_as_xyz
  1  'x, y, z'
loop_
 _atom_site_type_symbol
 _atom_site_label
 _atom_site_symmetry_multiplicity
 _atom_site_fract_x
 _atom_site_fract_y
 _atom_site_fract_z
 _atom_site_occupancy
  Li  Li0  1  0.69114300  0.27462300  0.98895700  1
  Li  Li1  1  0.30778100  0.75764800  0.17458100  1
  Li  Li2  1  0.73055000  0.24142300  0.15411500  1
  Li  Li3  1  0.23055000  0.74142300  0.34588500  1
  Li  Li4  1  0.80778100  0.25764800  0.32541900  1
  Li  Li5  1  0.19114300  0.77462300  0.51104300  1
  Li  Li6  1  0.69114300  0.22537700  0.48895700  1
  Li  Li7  1  0.30778100  0.74235200  0.67458100  1
  Li  Li8  1  0.73055000  0.25857700  0.65411500  1
  Li  Li9  1  0.23055000  0.75857700  0.84588500  1
  Li  Li10  1  0.80778100  0.24235200  0.82541900  1
  Li  Li11  1  0.19114300  0.72537700  0.01104300  1
  Mn  Mn0  1  0.75406200  0.96443600  0.06620900  1
  Mn  Mn1  1  0.20786800  0.43132600  0.10158800  1
  Mn  Mn2  1  0.74581600  0.56060200  0.23301300  1
  Mn  Mn3  1  0.24581600  0.06060200  0.26698700  1
  Mn  Mn4  1  0.70786800  0.93132600  0.39841200  1
  Mn  Mn5  1  0.25406200  0.46443600  0.43379100  1
  Mn  Mn6  1  0.75406200  0.53556400  0.56620900  1
  Mn  Mn7  1  0.20786800  0.06867400  0.60158800  1
  Mn  Mn8  1  0.74581600  0.93939800  0.73301300  1
  Mn  Mn9  1  0.24581600  0.43939800  0.76698700  1
  Mn  Mn10  1  0.70786800  0.56867400  0.89841200  1
  Mn  Mn11  1  0.25406200  0.03556400  0.93379100  1
  P  P0  1  0.70796300  0.58477400  0.07049000  1
  P  P1  1  0.26123700  0.08420500  0.09506400  1
  P  P2  1  0.73326200  0.93333700  0.24175200  1
  P  P3  1  0.23326200  0.43333700  0.25824800  1
  P  P4  1  0.76123700  0.58420500  0.40493600  1
  P  P5  1  0.20796300  0.08477400  0.42951000  1
  P  P6  1  0.70796300  0.91522600  0.57049000  1
  P  P7  1  0.26123700  0.41579500  0.59506400  1
  P  P8  1  0.73326200  0.56666300  0.74175200  1
  P  P9  1  0.23326200  0.06666300  0.75824800  1
  P  P10  1  0.76123700  0.91579500  0.90493600  1
  P  P11  1  0.20796300  0.41522600  0.92951000  1
  O  O0  1  0.67614900  0.50564300  0.00117300  1
  O  O1  1  0.32944000  0.96467700  0.03676900  1
  O  O2  1  0.44940000  0.22049000  0.09355500  1
  O  O3  1  0.01888500  0.16429500  0.08067700  1
  O  O4  1  0.87410800  0.73237300  0.06514600  1
  O  O5  1  0.46273000  0.63280000  0.10027700  1
  O  O6  1  0.82466800  0.46414600  0.12047100  1
  O  O7  1  0.26127400  0.99053800  0.16154600  1
  O  O8  1  0.75496600  0.99864700  0.17017300  1
  O  O9  1  0.11905100  0.56561900  0.21307300  1
  O  O10  1  0.47333400  0.38985800  0.22524200  1
  O  O11  1  0.07015300  0.28235900  0.25578100  1
  O  O12  1  0.57015300  0.78235900  0.24421900  1
  O  O13  1  0.97333400  0.88985800  0.27475800  1
  O  O14  1  0.61905100  0.06561900  0.28692700  1
  O  O15  1  0.25496600  0.49864700  0.32982700  1
  O  O16  1  0.76127400  0.49053800  0.33845400  1
  O  O17  1  0.32466800  0.96414600  0.37952900  1
  O  O18  1  0.96273000  0.13280000  0.39972300  1
  O  O19  1  0.37410800  0.23237300  0.43485400  1
  O  O20  1  0.51888500  0.66429500  0.41932300  1
  O  O21  1  0.94940000  0.72049000  0.40644500  1
  O  O22  1  0.82944000  0.46467700  0.46323100  1
  O  O23  1  0.17614900  0.00564300  0.49882700  1
  O  O24  1  0.67614900  0.99435700  0.50117300  1
  O  O25  1  0.32944000  0.53532300  0.53676900  1
  O  O26  1  0.44940000  0.27951000  0.59355500  1
  O  O27  1  0.01888500  0.33570500  0.58067700  1
  O  O28  1  0.87410800  0.76762700  0.56514600  1
  O  O29  1  0.46273000  0.86720000  0.60027700  1
  O  O30  1  0.82466800  0.03585400  0.62047100  1
  O  O31  1  0.26127400  0.50946200  0.66154600  1
  O  O32  1  0.75496600  0.50135300  0.67017300  1
  O  O33  1  0.11905100  0.93438100  0.71307300  1
  O  O34  1  0.47333400  0.11014200  0.72524200  1
  O  O35  1  0.07015300  0.21764100  0.75578100  1
  O  O36  1  0.57015300  0.71764100  0.74421900  1
  O  O37  1  0.97333400  0.61014200  0.77475800  1
  O  O38  1  0.61905100  0.43438100  0.78692700  1
  O  O39  1  0.25496600  0.00135300  0.82982700  1
  O  O40  1  0.76127400  0.00946200  0.83845400  1
  O  O41  1  0.32466800  0.53585400  0.87952900  1
  O  O42  1  0.96273000  0.36720000  0.89972300  1
  O  O43  1  0.37410800  0.26762700  0.93485400  1
  O  O44  1  0.51888500  0.83570500  0.91932300  1
  O  O45  1  0.94940000  0.77951000  0.90644500  1
  O  O46  1  0.82944000  0.03532300  0.96323100  1
  O  O47  1  0.17614900  0.49435700  0.99882700  1
loop_
_geom_bond_atom_site_label_1
_geom_bond_atom_site_label_2
_geom_bond_distance
_geom_bond_site_symmetry_2
Li0 O0 1.961807 1_556
Li0 O43 2.095682 1_555
Li0 O46 2.221493 1_555
Li0 O42 2.473430 1_555
Li0 O2 2.529385 1_556
Li1 O7 1.995171 1_555
Li1 O5 2.012965 1_555
Li1 O12 2.041860 1_555
Li1 O9 2.084158 1_555
Li2 O2 2.005003 1_555
Li2 O6 2.060775 1_555
Li2 O8 2.073209 1_545
Li2 O3 2.285155 1_655
Li2 O10 2.384078 1_555
Li3 O21 2.005003 1_455
Li3 O17 2.060775 1_555
Li3 O15 2.073209 1_555
Li3 O20 2.285155 1_555
Li3 O13 2.384078 1_455
Li4 O16 1.995171 1_555
Li4 O18 2.012965 1_555
Li4 O11 2.041860 1_655
Li4 O14 2.084158 1_555
Li5 O23 1.961807 1_565
Li5 O28 2.095682 1_455
Li5 O25 2.221493 1_555
Li5 O29 2.473430 1_555
Li5 O21 2.529385 1_455
Li6 O24 1.961807 1_545
Li6 O19 2.095682 1_555
Li6 O22 2.221493 1_555
Li6 O18 2.473430 1_555
Li6 O26 2.529385 1_555
Li7 O31 1.995171 1_555
Li7 O29 2.012965 1_555
Li7 O36 2.041860 1_555
Li7 O33 2.084158 1_555
Li8 O26 2.005003 1_555
Li8 O30 2.060775 1_555
Li8 O32 2.073209 1_555
Li8 O27 2.285155 1_655
Li8 O34 2.384078 1_555
Li9 O45 2.005003 1_455
Li9 O41 2.060775 1_555
Li9 O39 2.073209 1_565
Li9 O44 2.285155 1_555
Li9 O37 2.384078 1_455
Li10 O40 1.995171 1_555
Li10 O42 2.012965 1_555
Li10 O35 2.041860 1_655
Li10 O38 2.084158 1_555
Li11 O47 1.961807 1_554
Li11 O4 2.095682 1_455
Li11 O1 2.221493 1_555
Li11 O5 2.473430 1_555
Li11 O45 2.529385 1_454
Mn0 O4 2.069123 1_555
Mn0 O8 2.083203 1_555
Mn0 O46 2.171509 1_564
Mn0 O3 2.274010 1_665
Mn0 O1 2.479032 1_555
Mn1 O47 2.114896 1_554
Mn1 O6 2.223477 1_455
Mn1 O5 2.229048 1_555
Mn1 O2 2.248103 1_555
Mn1 O3 2.525031 1_555
Mn1 O9 2.535170 1_555
Mn2 O10 2.116643 1_555
Mn2 O12 2.127962 1_555
Mn2 O9 2.154714 1_655
Mn2 O16 2.175818 1_555
Mn2 O6 2.418212 1_555
Mn3 O13 2.116643 1_445
Mn3 O11 2.127962 1_555
Mn3 O14 2.154714 1_555
Mn3 O7 2.175818 1_545
Mn3 O17 2.418212 1_545
Mn4 O24 2.114896 1_555
Mn4 O17 2.223477 1_555
Mn4 O18 2.229048 1_565
Mn4 O21 2.248103 1_555
Mn4 O20 2.525031 1_555
Mn4 O14 2.535170 1_565
Mn5 O19 2.069123 1_555
Mn5 O15 2.083203 1_555
Mn5 O25 2.171509 1_555
Mn5 O20 2.274010 1_555
Mn5 O22 2.479032 1_455
Mn6 O28 2.069123 1_555
Mn6 O32 2.083203 1_555
Mn6 O22 2.171509 1_555
Mn6 O27 2.274010 1_655
Mn6 O25 2.479032 1_555
Mn7 O23 2.114896 1_555
Mn7 O30 2.223477 1_455
Mn7 O29 2.229048 1_545
Mn7 O26 2.248103 1_555
Mn7 O27 2.525031 1_555
Mn7 O33 2.535170 1_545
Mn8 O34 2.116643 1_565
Mn8 O36 2.127962 1_555
Mn8 O33 2.154714 1_655
Mn8 O40 2.175818 1_565
Mn8 O30 2.418212 1_565
Mn9 O37 2.116643 1_455
Mn9 O35 2.127962 1_555
Mn9 O38 2.154714 1_555
Mn9 O31 2.175818 1_555
Mn9 O41 2.418212 1_555
Mn10 O0 2.114896 1_556
Mn10 O41 2.223477 1_555
Mn10 O42 2.229048 1_555
Mn10 O45 2.248103 1_555
Mn10 O44 2.525031 1_555
Mn10 O38 2.535170 1_555
Mn11 O43 2.069123 1_555
Mn11 O39 2.083203 1_555
Mn11 O1 2.171509 1_546
Mn11 O44 2.274010 1_545
Mn11 O46 2.479032 1_455
O0 P0 1.539057 1_555
O1 P1 1.581365 1_565
O2 P1 1.567505 1_555
O3 P1 1.557851 1_555
O4 P0 1.563310 1_555
O5 P0 1.564891 1_555
O6 P0 1.566401 1_555
O7 P1 1.537049 1_565
O8 P2 1.528171 1_555
O9 P3 1.569671 1_555
O10 P3 1.555111 1_555
O11 P3 1.573027 1_555
O12 P2 1.573027 1_555
O13 P2 1.555111 1_555
O14 P2 1.569671 1_545
O15 P3 1.528171 1_555
O16 P4 1.537049 1_555
O17 P5 1.566401 1_565
O18 P5 1.564891 1_655
O19 P5 1.563310 1_555
O20 P4 1.557851 1_555
O21 P4 1.567505 1_555
O22 P4 1.581365 1_555
O23 P5 1.539057 1_555
O24 P6 1.539057 1_555
O25 P7 1.581365 1_555
O26 P7 1.567505 1_555
O27 P7 1.557851 1_555
O28 P6 1.563310 1_555
O29 P6 1.564891 1_555
O30 P6 1.566401 1_545
O31 P7 1.537049 1_555
O32 P8 1.528171 1_555
O33 P9 1.569671 1_565
O34 P9 1.555111 1_555
O35 P9 1.573027 1_555
O36 P8 1.573027 1_555
O37 P8 1.555111 1_555
O38 P8 1.569671 1_555
O39 P9 1.528171 1_555
O40 P10 1.537049 1_545
O41 P11 1.566401 1_555
O42 P11 1.564891 1_655
O43 P11 1.563310 1_555
O44 P10 1.557851 1_555
O45 P10 1.567505 1_555
O46 P10 1.581365 1_545
O47 P11 1.539057 1_555
