# generated using pymatgen
data_Li8Mn7Fe(BO3)8
_symmetry_space_group_name_H-M   'P 1'
_cell_length_a   5.25692600
_cell_length_b   9.11683322
_cell_length_c   11.60155719
_cell_angle_alpha   111.42430150
_cell_angle_beta   102.29615238
_cell_angle_gamma   89.87933532
_symmetry_Int_Tables_number   1
_chemical_formula_structural   Li8Mn7Fe(BO3)8
_chemical_formula_sum   'Li8 Mn7 Fe1 B8 O24'
_cell_volume   503.97391625
_cell_formula_units_Z   1
loop_
 _symmetry_equiv_pos_site_id
 _symmetry_equiv_pos_as_xyz
  1  'x, y, z'
loop_
 _atom_site_type_symbol
 _atom_site_label
 _atom_site_symmetry_multiplicity
 _atom_site_fract_x
 _atom_site_fract_y
 _atom_site_fract_z
 _atom_site_occupancy
  Li  Li0  1  0.03014900  0.04008800  0.41830000  1
  Li  Li1  1  0.29629300  0.28492900  0.91787700  1
  Li  Li2  1  0.48123300  0.50715300  0.66747700  1
  Li  Li3  1  0.27226100  0.24482600  0.16800100  1
  Li  Li4  1  0.52931400  0.53974900  0.41760300  1
  Li  Li5  1  0.79670800  0.78443400  0.91782100  1
  Li  Li6  1  0.98048400  0.00846400  0.66784100  1
  Li  Li7  1  0.77226200  0.74421500  0.16784000  1
  Mn  Mn0  1  0.02307100  0.35608800  0.38311100  1
  Mn  Mn1  1  0.27336000  0.93988300  0.88331000  1
  Mn  Mn2  1  0.47730700  0.15686700  0.63532300  1
  Mn  Mn3  1  0.24160100  0.56449600  0.13164300  1
  Mn  Mn4  1  0.52294700  0.85627400  0.38340800  1
  Mn  Mn5  1  0.74459100  0.06561600  0.13332700  1
  Mn  Mn6  1  0.97563500  0.65488800  0.63281100  1
  Fe  Fe0  1  0.76656900  0.44141500  0.88308700  1
  B  B0  1  0.02444500  0.68565900  0.37575000  1
  B  B1  1  0.26382800  0.60217800  0.87559400  1
  B  B2  1  0.23629900  0.89214200  0.12557200  1
  B  B3  1  0.47040300  0.81455100  0.62613800  1
  B  B4  1  0.52432100  0.18552400  0.37572400  1
  B  B5  1  0.76836600  0.10637300  0.87639700  1
  B  B6  1  0.73521100  0.39214000  0.12455100  1
  B  B7  1  0.97120500  0.31484400  0.62665100  1
  O  O0  1  0.02190500  0.10985700  0.86128400  1
  O  O1  1  0.10096200  0.71136100  0.84572500  1
  O  O2  1  0.16802000  0.49092800  0.91531600  1
  O  O3  1  0.07200100  0.17012400  0.61172900  1
  O  O4  1  0.10176800  0.42494100  0.59603200  1
  O  O5  1  0.23807400  0.84985500  0.66683200  1
  O  O6  1  0.26844700  0.65402500  0.34524700  1
  O  O7  1  0.52128000  0.60585300  0.86311200  1
  O  O8  1  0.60252200  0.21497900  0.84723700  1
  O  O9  1  0.40275500  0.08519200  0.41773900  1
  O  O10  1  0.40480700  0.31513700  0.36118100  1
  O  O11  1  0.67633100  0.99430300  0.91702100  1
  O  O12  1  0.33649400  0.01299900  0.09572500  1
  O  O13  1  0.57140900  0.67006000  0.61218900  1
  O  O14  1  0.60070400  0.92512700  0.59614300  1
  O  O15  1  0.40515800  0.79334000  0.16616000  1
  O  O16  1  0.46831000  0.37056200  0.11097700  1
  O  O17  1  0.73979300  0.35054700  0.66784600  1
  O  O18  1  0.76864800  0.15409100  0.34520400  1
  O  O19  1  0.90266400  0.58522500  0.41786600  1
  O  O20  1  0.90452200  0.81494700  0.36097700  1
  O  O21  1  0.83460900  0.51205500  0.09359800  1
  O  O22  1  0.90527800  0.29433600  0.16624900  1
  O  O23  1  0.96887600  0.87055400  0.11105200  1
loop_
_geom_bond_atom_site_label_1
_geom_bond_atom_site_label_2
_geom_bond_distance
_geom_bond_site_symmetry_2
Li0 O18 1.957168 1_455
Li0 O20 1.978105 1_445
Li0 O9 2.004161 1_555
Li0 O3 2.082550 1_555
Li1 O8 1.961034 1_555
Li1 O0 1.974840 1_555
Li1 O2 2.002397 1_555
Li1 O16 2.075668 1_556
Li2 O13 1.915824 1_555
Li2 O17 1.969724 1_555
Li2 O4 2.018984 1_555
Li2 O7 2.076222 1_555
Li3 O16 1.913969 1_555
Li3 O22 1.977955 1_455
Li3 O12 2.026581 1_555
Li3 O10 2.050988 1_555
Li4 O6 1.952761 1_555
Li4 O10 1.973344 1_555
Li4 O19 2.005976 1_555
Li4 O13 2.094210 1_555
Li5 O1 1.964659 1_655
Li5 O7 2.003385 1_555
Li5 O11 2.016627 1_555
Li5 O23 2.077050 1_556
Li6 O3 1.914341 1_655
Li6 O5 1.977599 1_645
Li6 O14 2.022976 1_545
Li6 O0 2.053212 1_655
Li7 O23 1.917928 1_555
Li7 O15 1.977866 1_555
Li7 O21 2.028460 1_555
Li7 O20 2.050048 1_555
Mn0 O10 2.091915 1_555
Mn0 O19 2.101181 1_455
Mn0 O18 2.131160 1_455
Mn0 O4 2.258358 1_555
Mn0 O22 2.309430 1_455
Mn1 O0 2.085854 1_565
Mn1 O11 2.096777 1_555
Mn1 O1 2.127909 1_555
Mn1 O12 2.253883 1_566
Mn1 O5 2.304761 1_555
Mn2 O3 2.098555 1_555
Mn2 O17 2.113304 1_555
Mn2 O14 2.123513 1_545
Mn2 O8 2.262517 1_555
Mn2 O9 2.308119 1_555
Mn3 O16 2.099298 1_555
Mn3 O21 2.109239 1_455
Mn3 O15 2.122019 1_555
Mn3 O6 2.280604 1_555
Mn3 O2 2.292619 1_554
Mn4 O20 2.093057 1_555
Mn4 O9 2.099485 1_565
Mn4 O6 2.132498 1_555
Mn4 O14 2.256549 1_555
Mn4 O15 2.312018 1_555
Mn5 O23 2.098732 1_545
Mn5 O12 2.115590 1_555
Mn5 O22 2.120299 1_555
Mn5 O18 2.264605 1_555
Mn5 O11 2.296629 1_544
Mn6 O13 2.097221 1_555
Mn6 O4 2.116069 1_655
Mn6 O5 2.117654 1_655
Mn6 O1 2.275937 1_655
Mn6 O19 2.281581 1_555
Fe0 O7 2.020463 1_555
Fe0 O2 2.083738 1_655
Fe0 O8 2.099007 1_555
Fe0 O21 2.233197 1_556
Fe0 O17 2.298103 1_555
B0 O20 1.383680 1_455
B0 O19 1.396255 1_455
B0 O6 1.403906 1_555
B1 O2 1.391836 1_555
B1 O7 1.393202 1_555
B1 O1 1.402132 1_555
B2 O23 1.385470 1_455
B2 O15 1.396258 1_555
B2 O12 1.403648 1_565
B3 O13 1.386119 1_555
B3 O5 1.396810 1_555
B3 O14 1.402600 1_555
B4 O10 1.384518 1_555
B4 O9 1.394116 1_555
B4 O18 1.405428 1_555
B5 O0 1.382746 1_655
B5 O11 1.396824 1_545
B5 O8 1.403697 1_555
B6 O16 1.384395 1_555
B6 O22 1.398545 1_555
B6 O21 1.402250 1_555
B7 O3 1.385925 1_655
B7 O17 1.395205 1_555
B7 O4 1.404276 1_655
