# generated using pymatgen
data_Li4Co3Ni5O16
_symmetry_space_group_name_H-M   'P 1'
_cell_length_a   5.64419784
_cell_length_b   5.64419784
_cell_length_c   9.38625247
_cell_angle_alpha   89.98427281
_cell_angle_beta   89.98427281
_cell_angle_gamma   60.06520857
_symmetry_Int_Tables_number   1
_chemical_formula_structural   Li4Co3Ni5O16
_chemical_formula_sum   'Li4 Co3 Ni5 O16'
_cell_volume   259.12677578
_cell_formula_units_Z   1
loop_
 _symmetry_equiv_pos_site_id
 _symmetry_equiv_pos_as_xyz
  1  'x, y, z'
loop_
 _atom_site_type_symbol
 _atom_site_label
 _atom_site_symmetry_multiplicity
 _atom_site_fract_x
 _atom_site_fract_y
 _atom_site_fract_z
 _atom_site_occupancy
  Li  Li0  1  0.33231500  0.33231500  0.89282800  1
  Li  Li1  1  0.99846400  0.99846400  0.99755600  1
  Li  Li2  1  0.00057200  0.00057200  0.49785300  1
  Li  Li3  1  0.66730800  0.66730800  0.39423100  1
  Co  Co0  1  0.16957000  0.66344700  0.21400000  1
  Co  Co1  1  0.66344700  0.16957000  0.21400000  1
  Co  Co2  1  0.83186100  0.83186100  0.71377600  1
  Ni  Ni0  1  0.33329900  0.33329900  0.49071500  1
  Ni  Ni1  1  0.16910100  0.16910100  0.21470600  1
  Ni  Ni2  1  0.66622400  0.66622400  0.99039600  1
  Ni  Ni3  1  0.33770400  0.83157300  0.71505600  1
  Ni  Ni4  1  0.83157300  0.33770400  0.71505600  1
  O  O0  1  0.15547600  0.68410900  0.60688600  1
  O  O1  1  0.48287300  0.48287300  0.32628100  1
  O  O2  1  0.33128000  0.33128000  0.11041800  1
  O  O3  1  0.00276800  0.00276800  0.31030000  1
  O  O4  1  0.00271300  0.00271300  0.80894500  1
  O  O5  1  0.68410900  0.15547600  0.60688600  1
  O  O6  1  0.03784500  0.48394800  0.32936900  1
  O  O7  1  0.48394800  0.03784500  0.32936900  1
  O  O8  1  0.84134500  0.84134500  0.10921000  1
  O  O9  1  0.15886400  0.15886400  0.60557100  1
  O  O10  1  0.52069500  0.96424200  0.82822700  1
  O  O11  1  0.96424200  0.52069500  0.82822700  1
  O  O12  1  0.66425700  0.66425700  0.61241500  1
  O  O13  1  0.31486600  0.83988700  0.10639500  1
  O  O14  1  0.51835600  0.51835600  0.83227500  1
  O  O15  1  0.83988700  0.31486600  0.10639500  1
loop_
_geom_bond_atom_site_label_1
_geom_bond_atom_site_label_2
_geom_bond_distance
_geom_bond_site_symmetry_2
Li0 O10 1.899974 1_545
Li0 O11 1.899974 1_455
Li0 O14 1.904741 1_555
Li0 O2 2.042377 1_556
Li1 O4 1.770824 1_665
Li1 O15 1.854510 1_566
Li1 O13 1.854510 1_656
Li1 O8 1.858779 1_556
Li2 O3 1.760544 1_555
Li2 O9 1.848333 1_555
Li2 O5 1.855564 1_455
Li2 O0 1.855564 1_545
Li3 O7 1.911831 1_565
Li3 O6 1.911831 1_655
Li3 O1 1.912156 1_555
Li3 O12 2.048138 1_555
Co0 O1 1.864993 1_555
Co0 O13 1.870416 1_555
Co0 O6 1.871508 1_555
Co0 O8 1.884575 1_455
Co0 O3 1.890054 1_565
Co0 O2 1.893664 1_555
Co1 O1 1.864993 1_555
Co1 O15 1.870416 1_555
Co1 O7 1.871508 1_555
Co1 O8 1.884575 1_545
Co1 O3 1.890054 1_655
Co1 O2 1.893664 1_555
Co2 O11 1.867240 1_555
Co2 O10 1.867240 1_555
Co2 O0 1.875516 1_655
Co2 O5 1.875516 1_565
Co2 O4 1.893889 1_665
Co2 O12 1.894486 1_555
Ni0 O9 2.016716 1_555
Ni0 O5 2.033250 1_555
Ni0 O0 2.033250 1_555
Ni0 O6 2.093544 1_555
Ni0 O7 2.093544 1_555
Ni0 O1 2.125431 1_555
Ni1 O3 1.856491 1_555
Ni1 O2 1.862597 1_555
Ni1 O6 1.884623 1_555
Ni1 O7 1.884623 1_555
Ni1 O15 1.907351 1_455
Ni1 O13 1.907351 1_545
Ni2 O13 2.034319 1_556
Ni2 O15 2.034319 1_556
Ni2 O8 2.043013 1_556
Ni2 O14 2.071806 1_555
Ni2 O11 2.107460 1_555
Ni2 O10 2.107460 1_555
Ni3 O4 1.860490 1_565
Ni3 O12 1.865339 1_555
Ni3 O10 1.878500 1_555
Ni3 O14 1.891046 1_555
Ni3 O9 1.904207 1_565
Ni3 O0 1.907064 1_555
Ni4 O4 1.860490 1_655
Ni4 O12 1.865339 1_555
Ni4 O11 1.878500 1_555
Ni4 O14 1.891046 1_555
Ni4 O9 1.904207 1_655
Ni4 O5 1.907064 1_555
