# generated using pymatgen
data_Li16Mn15(CuO12)3
_symmetry_space_group_name_H-M   'P 1'
_cell_length_a   9.25496597
_cell_length_b   8.62962285
_cell_length_c   10.27798387
_cell_angle_alpha   91.49270080
_cell_angle_beta   94.44451093
_cell_angle_gamma   62.55851978
_symmetry_Int_Tables_number   1
_chemical_formula_structural   Li16Mn15(CuO12)3
_chemical_formula_sum   'Li16 Mn15 Cu3 O36'
_cell_volume   726.27361193
_cell_formula_units_Z   1
loop_
 _symmetry_equiv_pos_site_id
 _symmetry_equiv_pos_as_xyz
  1  'x, y, z'
loop_
 _atom_site_type_symbol
 _atom_site_label
 _atom_site_symmetry_multiplicity
 _atom_site_fract_x
 _atom_site_fract_y
 _atom_site_fract_z
 _atom_site_occupancy
  Li  Li0  1  0.89389000  0.89987400  0.22623800  1
  Li  Li1  1  0.77522700  0.76685500  0.78180000  1
  Li  Li2  1  0.89644500  0.54789000  0.23067200  1
  Li  Li3  1  0.54447300  0.89373700  0.22189800  1
  Li  Li4  1  0.45190700  0.74751400  0.77655000  1
  Li  Li5  1  0.76857200  0.43995500  0.78434200  1
  Li  Li6  1  0.55510300  0.55655200  0.22316600  1
  Li  Li7  1  0.21034900  0.91417300  0.21376400  1
  Li  Li8  1  0.90851000  0.22612000  0.22308700  1
  Li  Li9  1  0.77595500  0.11743300  0.77778200  1
  Li  Li10  1  0.12978500  0.77032800  0.77676500  1
  Li  Li11  1  0.54840400  0.22742000  0.21915200  1
  Li  Li12  1  0.21952100  0.54418700  0.22217300  1
  Li  Li13  1  0.12374000  0.43967200  0.78037600  1
  Li  Li14  1  0.44285100  0.12011400  0.77037600  1
  Li  Li15  1  0.11579000  0.10854300  0.77857200  1
  Mn  Mn0  1  0.83555100  0.83112800  0.50856900  1
  Mn  Mn1  1  0.33835800  0.99763200  0.99705700  1
  Mn  Mn2  1  0.00390900  0.33386000  0.99784600  1
  Mn  Mn3  1  0.83573500  0.49777200  0.50942300  1
  Mn  Mn4  1  0.49585400  0.83630600  0.49241200  1
  Mn  Mn5  1  0.33105400  0.66799500  0.00297100  1
  Mn  Mn6  1  0.66548800  0.33193000  0.00399400  1
  Mn  Mn7  1  0.16575400  0.83344200  0.49927300  1
  Mn  Mn8  1  0.49599000  0.50150200  0.49654300  1
  Mn  Mn9  1  0.83527600  0.16486700  0.50662000  1
  Mn  Mn10  1  0.99390300  0.67217800  0.00439100  1
  Mn  Mn11  1  0.67232200  0.99531400  0.99662700  1
  Mn  Mn12  1  0.49326200  0.17107600  0.48797500  1
  Mn  Mn13  1  0.16696800  0.49851200  0.49913100  1
  Mn  Mn14  1  0.16558600  0.16826600  0.49528000  1
  Cu  Cu0  1  0.67048000  0.66096600  0.00365200  1
  Cu  Cu1  1  0.33438900  0.33296300  0.00000900  1
  Cu  Cu2  1  0.99639400  0.00552800  0.99765300  1
  O  O0  1  0.94096300  0.94222900  0.40979400  1
  O  O1  1  0.87597100  0.89003200  0.89844500  1
  O  O2  1  0.78778300  0.77790000  0.10403200  1
  O  O3  1  0.58977000  0.95250200  0.39203700  1
  O  O4  1  0.93835100  0.61019100  0.41105300  1
  O  O5  1  0.74132300  0.71417400  0.60695300  1
  O  O6  1  0.57866500  0.87751200  0.88333500  1
  O  O7  1  0.91878700  0.54077700  0.88272000  1
  O  O8  1  0.41429100  0.79847400  0.11848600  1
  O  O9  1  0.76079800  0.44773600  0.12226000  1
  O  O10  1  0.93990000  0.27675500  0.40888600  1
  O  O11  1  0.23852000  0.95945500  0.39244000  1
  O  O12  1  0.58863200  0.61998300  0.39650700  1
  O  O13  1  0.38940100  0.72664600  0.58987100  1
  O  O14  1  0.74396200  0.37941300  0.60677600  1
  O  O15  1  0.90889600  0.21701800  0.88047000  1
  O  O16  1  0.25535600  0.86647900  0.88142400  1
  O  O17  1  0.57192700  0.54052600  0.89516600  1
  O  O18  1  0.42053800  0.46072400  0.11550900  1
  O  O19  1  0.74993300  0.12477300  0.11898800  1
  O  O20  1  0.08506100  0.79173500  0.11578900  1
  O  O21  1  0.23894200  0.62762900  0.39355800  1
  O  O22  1  0.58838800  0.28873000  0.39338400  1
  O  O23  1  0.38740800  0.38933800  0.58512300  1
  O  O24  1  0.74376700  0.04684600  0.60551100  1
  O  O25  1  0.09118500  0.70701800  0.60693300  1
  O  O26  1  0.19082900  0.57953700  0.90786400  1
  O  O27  1  0.58873500  0.19622700  0.88869500  1
  O  O28  1  0.07651400  0.47242900  0.11245300  1
  O  O29  1  0.47622000  0.08809400  0.09323800  1
  O  O30  1  0.23615900  0.29849200  0.39099200  1
  O  O31  1  0.09291500  0.37109700  0.60548800  1
  O  O32  1  0.38957200  0.05992800  0.58626700  1
  O  O33  1  0.24787800  0.20566600  0.88473100  1
  O  O34  1  0.09754800  0.12560800  0.10435300  1
  O  O35  1  0.09168500  0.04001900  0.60433500  1
loop_
_geom_bond_atom_site_label_1
_geom_bond_atom_site_label_2
_geom_bond_distance
_geom_bond_site_symmetry_2
Li0 O0 1.966229 1_555
Li0 O20 2.006038 1_655
Li0 O19 2.063355 1_565
Li0 O2 2.083885 1_555
Li1 O5 1.880460 1_555
Li1 O6 1.987842 1_555
Li1 O1 2.027408 1_555
Li1 O7 2.037195 1_555
Li2 O4 1.976215 1_555
Li2 O28 1.987487 1_655
Li2 O9 2.073090 1_555
Li2 O2 2.176527 1_555
Li3 O3 1.878017 1_555
Li3 O8 1.981421 1_555
Li3 O29 1.992574 1_565
Li3 O2 2.412991 1_555
Li4 O13 1.988572 1_555
Li4 O17 1.996392 1_555
Li4 O16 2.012418 1_555
Li4 O6 2.188299 1_555
Li5 O14 1.910788 1_555
Li5 O15 1.990308 1_555
Li5 O17 2.043729 1_555
Li5 O7 2.136184 1_555
Li6 O12 1.894748 1_555
Li6 O18 2.036465 1_555
Li6 O9 2.046724 1_555
Li6 O8 2.146268 1_555
Li7 O11 1.890887 1_555
Li7 O34 1.962881 1_565
Li7 O8 2.004244 1_555
Li7 O20 2.089915 1_555
Li8 O10 1.977271 1_555
Li8 O9 2.018483 1_555
Li8 O34 2.044400 1_655
Li8 O19 2.225869 1_555
Li9 O24 1.903713 1_555
Li9 O27 1.985951 1_555
Li9 O15 2.022940 1_555
Li9 O1 2.126138 1_545
Li10 O25 1.872578 1_555
Li10 O16 1.960792 1_555
Li10 O26 1.996455 1_555
Li10 O1 2.510105 1_455
Li11 O22 1.911034 1_555
Li11 O19 2.012603 1_555
Li11 O29 2.022862 1_555
Li11 O18 2.075821 1_555
Li12 O21 1.912539 1_555
Li12 O28 1.973470 1_555
Li12 O18 2.054670 1_555
Li12 O20 2.183642 1_555
Li13 O31 1.919189 1_555
Li13 O26 2.010350 1_555
Li13 O7 2.049818 1_455
Li13 O33 2.081285 1_555
Li14 O32 2.033179 1_555
Li14 O33 2.058692 1_555
Li14 O27 2.062634 1_555
Li14 O6 2.187664 1_545
Li15 O35 1.900245 1_555
Li15 O33 2.019253 1_555
Li15 O15 2.060885 1_455
Li15 O16 2.136826 1_545
Mn0 O24 1.938251 1_565
Mn0 O5 1.950056 1_555
Mn0 O4 1.980199 1_555
Mn0 O0 1.991970 1_555
Mn0 O25 2.262038 1_655
Mn0 O3 2.270018 1_555
Mn1 O33 1.956923 1_565
Mn1 O8 1.966692 1_556
Mn1 O16 1.968072 1_555
Mn1 O29 1.974065 1_566
Mn1 O34 2.334900 1_566
Mn1 O6 2.366838 1_555
Mn2 O34 1.923290 1_556
Mn2 O28 1.952822 1_556
Mn2 O15 1.958241 1_455
Mn2 O7 1.969321 1_455
Mn2 O33 2.389827 1_555
Mn2 O9 2.450676 1_456
Mn3 O14 1.936591 1_555
Mn3 O5 1.946796 1_555
Mn3 O4 1.978490 1_555
Mn3 O10 1.997972 1_555
Mn3 O12 2.262433 1_555
Mn3 O31 2.264734 1_655
Mn4 O12 1.936936 1_555
Mn4 O3 1.954849 1_555
Mn4 O32 1.980564 1_565
Mn4 O13 1.982729 1_555
Mn4 O5 2.258565 1_555
Mn4 O11 2.280809 1_555
Mn5 O18 1.953737 1_555
Mn5 O16 1.963445 1_554
Mn5 O8 1.964422 1_555
Mn5 O26 1.974857 1_554
Mn5 O17 2.338062 1_554
Mn5 O20 2.402480 1_555
Mn6 O17 1.938923 1_554
Mn6 O9 1.958918 1_555
Mn6 O27 1.960678 1_554
Mn6 O19 1.970462 1_555
Mn6 O18 2.387947 1_555
Mn6 O15 2.447183 1_554
Mn7 O11 1.921856 1_555
Mn7 O21 1.923165 1_555
Mn7 O35 1.924057 1_565
Mn7 O25 1.940661 1_555
Mn7 O13 1.997120 1_555
Mn7 O0 2.000905 1_455
Mn8 O22 1.954163 1_555
Mn8 O12 1.958838 1_555
Mn8 O23 1.964654 1_555
Mn8 O13 1.987754 1_555
Mn8 O14 2.256365 1_555
Mn8 O21 2.290797 1_555
Mn9 O24 1.941644 1_555
Mn9 O14 1.948113 1_555
Mn9 O10 1.985425 1_555
Mn9 O0 1.989372 1_545
Mn9 O22 2.262647 1_555
Mn9 O35 2.265243 1_655
Mn10 O28 1.882257 1_655
Mn10 O20 1.917852 1_655
Mn10 O26 1.959859 1_654
Mn10 O7 1.962373 1_554
Mn10 O1 1.985601 1_554
Mn10 O2 2.042113 1_555
Mn11 O27 1.888412 1_565
Mn11 O6 1.932536 1_555
Mn11 O29 1.954360 1_566
Mn11 O19 1.967755 1_566
Mn11 O2 1.989429 1_556
Mn11 O1 2.016141 1_555
Mn12 O22 1.938831 1_555
Mn12 O3 1.953118 1_545
Mn12 O23 1.963996 1_555
Mn12 O32 1.977531 1_555
Mn12 O30 2.267722 1_555
Mn12 O24 2.307872 1_555
Mn13 O30 1.901682 1_555
Mn13 O21 1.929173 1_555
Mn13 O31 1.935706 1_555
Mn13 O25 1.952063 1_555
Mn13 O23 1.955345 1_555
Mn13 O4 2.023426 1_455
Mn14 O30 1.919956 1_555
Mn14 O11 1.926185 1_545
Mn14 O31 1.931030 1_555
Mn14 O35 1.957057 1_555
Mn14 O10 1.995298 1_455
Mn14 O32 2.001166 1_555
Cu0 O17 1.952231 1_554
Cu0 O2 2.010765 1_555
Cu0 O9 2.027812 1_555
Cu0 O6 2.058477 1_554
Cu0 O7 2.465859 1_554
Cu0 O8 2.488055 1_555
Cu1 O33 1.961490 1_554
Cu1 O18 1.963624 1_555
Cu1 O29 2.111988 1_555
Cu1 O26 2.119945 1_554
Cu1 O27 2.455482 1_554
Cu1 O28 2.487508 1_555
Cu2 O34 1.956707 1_656
Cu2 O15 2.009586 1_555
Cu2 O1 2.017416 1_545
Cu2 O20 2.029384 1_646
Cu2 O19 2.455126 1_556
Cu2 O16 2.515835 1_645
