# generated using pymatgen
data_LiCoBO3
_symmetry_space_group_name_H-M   'P 1'
_cell_length_a   3.08925308
_cell_length_b   8.15249360
_cell_length_c   14.14074181
_cell_angle_alpha   89.99996666
_cell_angle_beta   90.08398567
_cell_angle_gamma   90.04659107
_symmetry_Int_Tables_number   1
_chemical_formula_structural   LiCoBO3
_chemical_formula_sum   'Li6 Co6 B6 O18'
_cell_volume   356.13572174
_cell_formula_units_Z   6
loop_
 _symmetry_equiv_pos_site_id
 _symmetry_equiv_pos_as_xyz
  1  'x, y, z'
loop_
 _atom_site_type_symbol
 _atom_site_label
 _atom_site_symmetry_multiplicity
 _atom_site_fract_x
 _atom_site_fract_y
 _atom_site_fract_z
 _atom_site_occupancy
  Li  Li0  1  0.50001100  0.63001400  0.34905700  1
  Li  Li1  1  0.50003000  0.13118700  0.84864200  1
  Li  Li2  1  0.50008500  0.16081400  0.14123600  1
  Li  Li3  1  0.49990600  0.66201500  0.63993100  1
  Li  Li4  1  0.50000600  0.70798900  0.00969700  1
  Li  Li5  1  0.50021200  0.20843800  0.51053300  1
  Co  Co0  1  0.00106900  0.86703200  0.49139900  1
  Co  Co1  1  0.99758000  0.82508500  0.18648600  1
  Co  Co2  1  0.99909500  0.80777800  0.81886300  1
  Co  Co3  1  0.00108900  0.36710300  0.99418500  1
  Co  Co4  1  0.99781900  0.32905400  0.68768300  1
  Co  Co5  1  0.99970400  0.30845300  0.31988800  1
  B  B0  1  0.50027300  0.49992700  0.16665100  1
  B  B1  1  0.50066900  0.99967600  0.66635800  1
  B  B2  1  0.00027500  0.99997900  0.00004500  1
  B  B3  1  0.00019600  0.49920000  0.50067700  1
  B  B4  1  0.49944700  0.49961100  0.83366800  1
  B  B5  1  0.50011000  0.00071200  0.33334500  1
  O  O0  1  0.00010800  0.50914900  0.40185400  1
  O  O1  1  0.00035500  0.00785900  0.90184700  1
  O  O2  1  0.99940100  0.14354100  0.05327500  1
  O  O3  1  0.99911400  0.64220600  0.55415900  1
  O  O4  1  0.00104400  0.84843100  0.04530400  1
  O  O5  1  0.00136000  0.34700800  0.54444400  1
  O  O6  1  0.50011400  0.36183100  0.22393400  1
  O  O7  1  0.50045500  0.86160300  0.72405200  1
  O  O8  1  0.50102000  0.65502700  0.20709200  1
  O  O9  1  0.50220000  0.15438800  0.70720200  1
  O  O10  1  0.49955100  0.48334800  0.06899600  1
  O  O11  1  0.49905000  0.98288500  0.56886700  1
  O  O12  1  0.50005700  0.36129900  0.89127300  1
  O  O13  1  0.50053700  0.86176900  0.39138600  1
  O  O14  1  0.49998900  0.65554800  0.87345700  1
  O  O15  1  0.49967300  0.15609600  0.37361300  1
  O  O16  1  0.49814400  0.48178800  0.73534700  1
  O  O17  1  0.50025300  0.98215900  0.23555200  1
loop_
_geom_bond_atom_site_label_1
_geom_bond_atom_site_label_2
_geom_bond_distance
_geom_bond_site_symmetry_2
Li0 O0 1.978424 1_555
Li0 O0 1.978434 1_655
Li0 O13 1.981927 1_555
Li0 O8 2.017827 1_555
Li1 O12 1.970466 1_555
Li1 O1 1.990122 1_555
Li1 O1 1.991237 1_655
Li1 O9 2.009011 1_555
Li2 O17 1.974865 1_545
Li2 O2 1.988034 1_555
Li2 O2 1.988306 1_455
Li2 O6 2.013245 1_555
Li3 O3 1.970118 1_555
Li3 O3 1.970961 1_455
Li3 O16 1.994833 1_555
Li3 O7 2.015581 1_555
Li4 O14 1.973402 1_554
Li4 O4 1.986343 1_555
Li4 O4 1.988733 1_655
Li4 O10 2.014225 1_555
Li5 O5 1.971313 1_555
Li5 O5 1.974327 1_655
Li5 O15 1.982614 1_555
Li5 O11 2.015367 1_545
Co0 O3 2.036452 1_455
Co0 O13 2.094373 1_455
Co0 O13 2.095058 1_555
Co0 O11 2.109840 1_555
Co0 O11 2.122411 1_455
Co1 O4 2.005513 1_655
Co1 O8 2.087584 1_555
Co1 O8 2.104279 1_655
Co1 O17 2.118478 1_555
Co1 O17 2.127499 1_655
Co2 O1 2.009396 1_665
Co2 O7 2.087577 1_555
Co2 O7 2.096157 1_655
Co2 O14 2.124599 1_555
Co2 O14 2.128434 1_655
Co3 O2 2.005003 1_456
Co3 O10 2.093154 1_556
Co3 O10 2.103567 1_456
Co3 O12 2.121962 1_555
Co3 O12 2.123442 1_455
Co4 O5 2.030832 1_655
Co4 O16 2.094637 1_655
Co4 O16 2.096106 1_555
Co4 O9 2.108505 1_555
Co4 O9 2.129335 1_655
Co5 O0 2.005113 1_655
Co5 O6 2.099369 1_555
Co5 O6 2.103635 1_655
Co5 O15 2.122546 1_655
Co5 O15 2.122836 1_555
B0 O6 1.386948 1_555
B0 O10 1.387511 1_555
B0 O8 1.387756 1_555
B1 O11 1.385376 1_555
B1 O9 1.387240 1_565
B1 O7 1.390198 1_555
B2 O1 1.390078 1_564
B2 O4 1.391418 1_555
B2 O2 1.391547 1_465
B3 O5 1.386540 1_555
B3 O3 1.389675 1_455
B3 O0 1.399782 1_555
B4 O14 1.390219 1_555
B4 O12 1.391040 1_555
B4 O16 1.397904 1_555
B5 O15 1.388865 1_555
B5 O17 1.391114 1_545
B5 O13 1.398821 1_545
