# generated using pymatgen
data_Li3V3P8O29
_symmetry_space_group_name_H-M   'P 1'
_cell_length_a   9.72882067
_cell_length_b   9.72882067
_cell_length_c   14.24013103
_cell_angle_alpha   89.40431423
_cell_angle_beta   89.40431423
_cell_angle_gamma   60.46814145
_symmetry_Int_Tables_number   1
_chemical_formula_structural   Li3V3P8O29
_chemical_formula_sum   'Li6 V6 P16 O58'
_cell_volume   1172.63539572
_cell_formula_units_Z   2
loop_
 _symmetry_equiv_pos_site_id
 _symmetry_equiv_pos_as_xyz
  1  'x, y, z'
loop_
 _atom_site_type_symbol
 _atom_site_label
 _atom_site_symmetry_multiplicity
 _atom_site_fract_x
 _atom_site_fract_y
 _atom_site_fract_z
 _atom_site_occupancy
  Li  Li0  1  0.09451400  0.66839400  0.05787000  1
  Li  Li1  1  0.33160600  0.90548600  0.44213000  1
  Li  Li2  1  0.66839400  0.09451400  0.55787000  1
  Li  Li3  1  0.90548600  0.33160600  0.94213000  1
  Li  Li4  1  0.00000000  0.00000000  0.00000000  1
  Li  Li5  1  0.00000000  0.00000000  0.50000000  1
  V  V0  1  0.43655300  0.00247400  0.23995900  1
  V  V1  1  0.56344700  0.99752600  0.76004100  1
  V  V2  1  0.43696000  0.56304000  0.75000000  1
  V  V3  1  0.56304000  0.43696000  0.25000000  1
  V  V4  1  0.99752600  0.56344700  0.26004100  1
  V  V5  1  0.00247400  0.43655300  0.73995900  1
  P  P0  1  0.08699500  0.68571800  0.84101500  1
  P  P1  1  0.22362100  0.69392900  0.34285700  1
  P  P2  1  0.08809900  0.21243800  0.33998800  1
  P  P3  1  0.32810200  0.34235200  0.13294200  1
  P  P4  1  0.34235200  0.32810200  0.63294200  1
  P  P5  1  0.21243800  0.08809900  0.83998800  1
  P  P6  1  0.31428200  0.91300500  0.65898500  1
  P  P7  1  0.69392900  0.22362100  0.84285700  1
  P  P8  1  0.30607100  0.77637900  0.15714300  1
  P  P9  1  0.68571800  0.08699500  0.34101500  1
  P  P10  1  0.78756200  0.91190100  0.16001200  1
  P  P11  1  0.65764800  0.67189800  0.36705800  1
  P  P12  1  0.67189800  0.65764800  0.86705800  1
  P  P13  1  0.91190100  0.78756200  0.66001200  1
  P  P14  1  0.77637900  0.30607100  0.65714300  1
  P  P15  1  0.91300500  0.31428200  0.15898500  1
  O  O0  1  0.99159500  0.80725600  0.57616000  1
  O  O1  1  0.08931900  0.65075200  0.33563500  1
  O  O2  1  0.20497300  0.79216400  0.07499200  1
  O  O3  1  0.26007700  0.65034700  0.82844700  1
  O  O4  1  0.08274300  0.53131700  0.82253400  1
  O  O5  1  0.17989900  0.48829900  0.17596100  1
  O  O6  1  0.08006100  0.37781500  0.32996400  1
  O  O7  1  0.97938800  0.23859800  0.06663700  1
  O  O8  1  0.08129200  0.26383500  0.83333500  1
  O  O9  1  0.34035700  0.47340200  0.68020000  1
  O  O10  1  0.38310700  0.54024400  0.33150600  1
  O  O11  1  0.18905800  0.33095300  0.67573300  1
  O  O12  1  0.32756900  0.34522700  0.02892300  1
  O  O13  1  0.34522700  0.32756900  0.52892300  1
  O  O14  1  0.33095300  0.18905800  0.17573300  1
  O  O15  1  0.54024400  0.38310700  0.83150600  1
  O  O16  1  0.47340200  0.34035700  0.18020000  1
  O  O17  1  0.26383500  0.08129200  0.33333500  1
  O  O18  1  0.19563700  0.01053800  0.74325400  1
  O  O19  1  0.23859800  0.97938800  0.56663700  1
  O  O20  1  0.19274400  0.00840500  0.92384000  1
  O  O21  1  0.37781500  0.08006100  0.82996400  1
  O  O22  1  0.48829900  0.17989900  0.67596100  1
  O  O23  1  0.34924800  0.91068100  0.16436500  1
  O  O24  1  0.53131700  0.08274300  0.32253400  1
  O  O25  1  0.65034700  0.26007700  0.32844700  1
  O  O26  1  0.20093100  0.79906900  0.25000000  1
  O  O27  1  0.20783600  0.79502700  0.42500800  1
  O  O28  1  0.79216400  0.20497300  0.57499200  1
  O  O29  1  0.34965300  0.73992300  0.67155300  1
  O  O30  1  0.46868300  0.91725700  0.67746600  1
  O  O31  1  0.65075200  0.08931900  0.83563500  1
  O  O32  1  0.51170100  0.82010100  0.32403900  1
  O  O33  1  0.62218500  0.91993900  0.17003600  1
  O  O34  1  0.80725600  0.99159500  0.07616000  1
  O  O35  1  0.76140200  0.02061200  0.43336300  1
  O  O36  1  0.80436300  0.98946200  0.25674600  1
  O  O37  1  0.73616500  0.91870800  0.66666500  1
  O  O38  1  0.52659800  0.65964300  0.81980000  1
  O  O39  1  0.45975600  0.61689300  0.16849400  1
  O  O40  1  0.66904700  0.81094200  0.82426700  1
  O  O41  1  0.67243100  0.65477300  0.97107700  1
  O  O42  1  0.65477300  0.67243100  0.47107700  1
  O  O43  1  0.81094200  0.66904700  0.32426700  1
  O  O44  1  0.61689300  0.45975600  0.66849400  1
  O  O45  1  0.65964300  0.52659800  0.31980000  1
  O  O46  1  0.91870800  0.73616500  0.16666500  1
  O  O47  1  0.98946200  0.80436300  0.75674600  1
  O  O48  1  0.02061200  0.76140200  0.93336300  1
  O  O49  1  0.91993900  0.62218500  0.67003600  1
  O  O50  1  0.82010100  0.51170100  0.82403900  1
  O  O51  1  0.91725700  0.46868300  0.17746600  1
  O  O52  1  0.73992300  0.34965300  0.17155300  1
  O  O53  1  0.79502700  0.20783600  0.92500800  1
  O  O54  1  0.79906900  0.20093100  0.75000000  1
  O  O55  1  0.91068100  0.34924800  0.66436500  1
  O  O56  1  0.00840500  0.19274400  0.42384000  1
  O  O57  1  0.01053800  0.19563700  0.24325400  1
loop_
_geom_bond_atom_site_label_1
_geom_bond_atom_site_label_2
_geom_bond_distance
_geom_bond_site_symmetry_2
Li0 O48 1.957298 1_554
Li0 O2 1.987823 1_555
Li0 O46 2.148198 1_455
Li0 O5 2.262917 1_555
Li1 O19 1.957298 1_555
Li1 O27 1.987823 1_555
Li1 O17 2.148198 1_565
Li1 O32 2.262917 1_555
Li2 O35 1.957298 1_555
Li2 O28 1.987823 1_555
Li2 O37 2.148198 1_545
Li2 O22 2.262917 1_555
Li3 O7 1.957298 1_556
Li3 O53 1.987823 1_555
Li3 O8 2.148198 1_655
Li3 O50 2.262917 1_555
Li4 O20 2.192302 1_554
Li4 O34 2.192302 1_445
Li4 O2 2.286901 1_545
Li4 O53 2.286901 1_454
Li4 O7 2.431450 1_455
Li4 O48 2.431450 1_544
Li5 O56 2.192302 1_555
Li5 O0 2.192302 1_445
Li5 O28 2.286901 1_455
Li5 O27 2.286901 1_545
Li5 O19 2.431450 1_545
Li5 O35 2.431450 1_455
O0 P13 1.478537 1_555
O1 P1 1.561727 1_555
O1 V4 1.861317 1_455
O2 P8 1.493585 1_555
O3 P0 1.552318 1_555
O3 V2 1.862671 1_555
O4 P0 1.548256 1_555
O4 V5 1.895757 1_555
O5 P3 1.565814 1_555
O5 V4 1.952272 1_455
O6 P2 1.576879 1_555
O6 V4 1.856725 1_455
O7 P15 1.490735 1_555
O8 P5 1.551985 1_555
O8 V5 1.970820 1_555
O9 P4 1.563321 1_555
O9 V2 1.864719 1_555
O10 P1 1.543360 1_555
O10 V3 1.915502 1_555
O11 P4 1.592776 1_555
O11 V5 1.825817 1_555
O12 P3 1.481232 1_555
O13 P4 1.481232 1_555
O14 P3 1.592776 1_555
O14 V0 1.825817 1_555
O15 P7 1.543360 1_555
O15 V2 1.915502 1_555
O16 P3 1.563321 1_555
O16 V3 1.864719 1_555
O17 P2 1.551985 1_555
O17 V0 1.970820 1_555
O18 P6 1.608687 1_545
O18 P5 1.625271 1_555
O19 P6 1.490735 1_555
O20 P5 1.478537 1_555
O21 P5 1.576879 1_555
O21 V1 1.856725 1_545
O22 P4 1.565814 1_555
O22 V1 1.952272 1_545
O23 P8 1.561727 1_555
O23 V0 1.861317 1_565
O24 P9 1.548256 1_555
O24 V0 1.895757 1_555
O25 P9 1.552318 1_555
O25 V3 1.862671 1_555
O26 P1 1.612093 1_555
O26 P8 1.612093 1_555
O27 P1 1.493585 1_555
O28 P14 1.493585 1_555
O29 P6 1.552318 1_555
O29 V2 1.862671 1_555
O30 P6 1.548256 1_555
O30 V1 1.895757 1_555
O31 P7 1.561727 1_555
O31 V1 1.861317 1_545
O32 P11 1.565814 1_555
O32 V0 1.952272 1_565
O33 P10 1.576879 1_555
O33 V0 1.856725 1_565
O34 P10 1.478537 1_555
O35 P9 1.490735 1_555
O36 P9 1.608687 1_565
O36 P10 1.625271 1_555
O37 P13 1.551985 1_555
O37 V1 1.970820 1_555
O38 P12 1.563321 1_555
O38 V2 1.864719 1_555
O39 P8 1.543360 1_555
O39 V3 1.915502 1_555
O40 P12 1.592776 1_555
O40 V1 1.825817 1_555
O41 P12 1.481232 1_555
O42 P11 1.481232 1_555
O43 P11 1.592776 1_555
O43 V4 1.825817 1_555
O44 P14 1.543360 1_555
O44 V2 1.915502 1_555
O45 P11 1.563321 1_555
O45 V3 1.864719 1_555
O46 P10 1.551985 1_555
O46 V4 1.970820 1_555
O47 P0 1.608687 1_655
O47 P13 1.625271 1_555
O48 P0 1.490735 1_555
O49 P13 1.576879 1_555
O49 V5 1.856725 1_655
O50 P12 1.565814 1_555
O50 V5 1.952272 1_655
O51 P15 1.548256 1_555
O51 V4 1.895757 1_555
O52 P15 1.552318 1_555
O52 V3 1.862671 1_555
O53 P7 1.493585 1_555
O54 P7 1.612093 1_555
O54 P14 1.612093 1_555
O55 P14 1.561727 1_555
O55 V5 1.861317 1_655
O56 P2 1.478537 1_555
O57 P15 1.608687 1_455
O57 P2 1.625271 1_555
