# generated using pymatgen
data_Cr8Ni50Mo17
_symmetry_space_group_name_H-M   'P 1'
_cell_length_a   9.26260400
_cell_length_b   9.90955069
_cell_length_c   11.19686719
_cell_angle_alpha   91.40898437
_cell_angle_beta   114.21471756
_cell_angle_gamma   105.15209186
_symmetry_Int_Tables_number   1
_chemical_formula_structural   Cr8Ni50Mo17
_chemical_formula_sum   'Cr8 Ni50 Mo17'
_cell_volume   894.53216987
_cell_formula_units_Z   1
loop_
 _symmetry_equiv_pos_site_id
 _symmetry_equiv_pos_as_xyz
  1  'x, y, z'
loop_
 _atom_site_type_symbol
 _atom_site_label
 _atom_site_symmetry_multiplicity
 _atom_site_fract_x
 _atom_site_fract_y
 _atom_site_fract_z
 _atom_site_occupancy
  Cr  Cr0  1  0.64213700  0.03750600  0.71455600  1
  Cr  Cr1  1  0.47992200  0.27923700  0.04055500  1
  Cr  Cr2  1  0.75647600  0.36220500  0.48401000  1
  Cr  Cr3  1  0.68236900  0.47680800  0.63563600  1
  Cr  Cr4  1  0.32115100  0.52042700  0.36044100  1
  Cr  Cr5  1  0.08003300  0.87989900  0.83981600  1
  Cr  Cr6  1  0.71720600  0.92354900  0.56476100  1
  Cr  Cr7  1  0.36081000  0.96031200  0.28007700  1
  Ni  Ni0  1  0.86506700  0.19989600  0.92921200  1
  Ni  Ni1  1  0.51244900  0.24258100  0.65343500  1
  Ni  Ni2  1  0.15214700  0.28569100  0.37350500  1
  Ni  Ni3  1  0.42846100  0.35987700  0.81586900  1
  Ni  Ni4  1  0.06397200  0.40127400  0.53285700  1
  Ni  Ni5  1  0.97925600  0.51923500  0.68910300  1
  Ni  Ni6  1  0.90835500  0.64537500  0.85003300  1
  Ni  Ni7  1  0.78372300  0.32141600  0.09217300  1
  Ni  Ni8  1  0.70512800  0.43853500  0.25386500  1
  Ni  Ni9  1  0.34979800  0.47970900  0.97450100  1
  Ni  Ni10  1  0.62678300  0.55851400  0.41672700  1
  Ni  Ni11  1  0.26996700  0.60106700  0.13726900  1
  Ni  Ni12  1  0.55038700  0.68107700  0.57080800  1
  Ni  Ni13  1  0.19340400  0.72451200  0.29365600  1
  Ni  Ni14  1  0.47033700  0.80529100  0.73133700  1
  Ni  Ni15  1  0.10891000  0.84130300  0.45485900  1
  Ni  Ni16  1  0.38442700  0.92146700  0.89355900  1
  Ni  Ni17  1  0.02460600  0.96157300  0.61659900  1
  Ni  Ni18  1  0.94172200  0.07787500  0.76964600  1
  Ni  Ni19  1  0.82662000  0.76150100  0.01170900  1
  Ni  Ni20  1  0.74773000  0.88301800  0.17343300  1
  Ni  Ni21  1  0.66428800  0.00057300  0.33659900  1
  Ni  Ni22  1  0.30978300  0.04394800  0.05405600  1
  Ni  Ni23  1  0.59015900  0.12065600  0.49353700  1
  Ni  Ni24  1  0.22986600  0.15931600  0.21374700  1
  Ni  Ni25  1  0.17606400  0.23802800  0.98749800  1
  Ni  Ni26  1  0.80624100  0.27683300  0.70214500  1
  Ni  Ni27  1  0.45792400  0.32218900  0.42954200  1
  Ni  Ni28  1  0.73164000  0.39938900  0.86289600  1
  Ni  Ni29  1  0.37630300  0.43877300  0.58478700  1
  Ni  Ni30  1  0.29112200  0.55869200  0.74543100  1
  Ni  Ni31  1  0.21044600  0.67969200  0.90693400  1
  Ni  Ni32  1  0.09501700  0.35892200  0.14926200  1
  Ni  Ni33  1  0.01602100  0.47879700  0.30694900  1
  Ni  Ni34  1  0.64868600  0.51381100  0.02709100  1
  Ni  Ni35  1  0.92856300  0.59431900  0.46718200  1
  Ni  Ni36  1  0.57256900  0.63896800  0.18846100  1
  Ni  Ni37  1  0.84967400  0.71915000  0.62902000  1
  Ni  Ni38  1  0.49102900  0.75818700  0.35025900  1
  Ni  Ni39  1  0.77185100  0.84168000  0.78220800  1
  Ni  Ni40  1  0.42006500  0.88182200  0.50783600  1
  Ni  Ni41  1  0.69051300  0.95939800  0.94252200  1
  Ni  Ni42  1  0.33691700  0.99915000  0.66716500  1
  Ni  Ni43  1  0.25179700  0.11567200  0.83033400  1
  Ni  Ni44  1  0.13406200  0.80072700  0.06607200  1
  Ni  Ni45  1  0.05592300  0.91749200  0.22664200  1
  Ni  Ni46  1  0.97246300  0.03883200  0.38738800  1
  Ni  Ni47  1  0.61045300  0.08117700  0.10660000  1
  Ni  Ni48  1  0.88673900  0.15638100  0.54632100  1
  Ni  Ni49  1  0.53047400  0.19664600  0.26734900  1
  Mo  Mo0  1  0.00191400  0.99717200  0.99490100  1
  Mo  Mo1  1  0.28455700  0.07763200  0.43581500  1
  Mo  Mo2  1  0.55957000  0.16007200  0.87947500  1
  Mo  Mo3  1  0.20116900  0.19902200  0.59955100  1
  Mo  Mo4  1  0.11813100  0.31831400  0.75910500  1
  Mo  Mo5  1  0.03983700  0.43984100  0.91971000  1
  Mo  Mo6  1  0.92010600  0.12050600  0.15961000  1
  Mo  Mo7  1  0.83727600  0.24273200  0.32491100  1
  Mo  Mo8  1  0.40089700  0.39905600  0.20041800  1
  Mo  Mo9  1  0.60210600  0.59758200  0.79447500  1
  Mo  Mo10  1  0.24373800  0.63790300  0.51591700  1
  Mo  Mo11  1  0.51964200  0.71990900  0.95907700  1
  Mo  Mo12  1  0.15681700  0.76256900  0.68348400  1
  Mo  Mo13  1  0.95963600  0.56068500  0.07913900  1
  Mo  Mo14  1  0.87958700  0.68054600  0.24219300  1
  Mo  Mo15  1  0.79661700  0.80287300  0.40639700  1
  Mo  Mo16  1  0.43839800  0.84363600  0.12598500  1
loop_
_geom_bond_atom_site_label_1
_geom_bond_atom_site_label_2
_geom_bond_distance
_geom_bond_site_symmetry_2
Cr0 Cr6 2.417822 1_545
Cr0 Ni14 2.493013 1_545
Cr0 Ni40 2.495700 1_545
Cr0 Ni18 2.498846 1_555
Cr0 Ni26 2.501869 1_555
Cr0 Ni39 2.515482 1_545
Cr0 Ni23 2.522949 1_555
Cr0 Ni42 2.572245 1_545
Cr0 Ni0 2.575196 1_555
Cr0 Ni41 2.579806 1_545
Cr0 Ni1 2.590632 1_555
Cr0 Mo2 2.646451 1_555
Cr1 Ni34 2.486101 1_555
Cr1 Ni22 2.496936 1_555
Cr1 Ni47 2.537571 1_555
Cr1 Ni25 2.541029 1_554
Cr1 Ni7 2.542910 1_555
Cr1 Ni3 2.551315 1_554
Cr1 Ni9 2.557141 1_554
Cr1 Ni8 2.560067 1_555
Cr1 Mo8 2.564017 1_555
Cr1 Ni43 2.564077 1_554
Cr1 Mo2 2.575629 1_554
Cr1 Ni49 2.581610 1_555
Cr2 Cr3 2.431437 1_555
Cr2 Ni27 2.491552 1_555
Cr2 Ni5 2.492280 1_555
Cr2 Ni35 2.493584 1_555
Cr2 Ni26 2.505110 1_555
Cr2 Ni23 2.516706 1_555
Cr2 Ni10 2.519191 1_555
Cr2 Mo7 2.566786 1_555
Cr2 Ni4 2.587780 1_655
Cr2 Ni8 2.591777 1_555
Cr2 Ni48 2.601650 1_555
Cr2 Ni49 2.608055 1_555
Cr3 Ni5 2.475906 1_555
Cr3 Ni10 2.491749 1_555
Cr3 Ni27 2.494047 1_555
Cr3 Ni1 2.504921 1_555
Cr3 Ni37 2.516271 1_555
Cr3 Ni26 2.521568 1_555
Cr3 Mo9 2.567729 1_555
Cr3 Ni28 2.568707 1_555
Cr3 Ni29 2.571004 1_555
Cr3 Ni12 2.599383 1_555
Cr3 Ni6 2.605290 1_555
Cr4 Ni2 2.486724 1_555
Cr4 Mo10 2.502115 1_555
Cr4 Ni38 2.502483 1_555
Cr4 Ni11 2.536121 1_555
Cr4 Ni29 2.547369 1_555
Cr4 Ni33 2.550802 1_555
Cr4 Ni10 2.553447 1_555
Cr4 Ni12 2.556720 1_555
Cr4 Ni32 2.557034 1_555
Cr4 Ni27 2.575723 1_555
Cr4 Mo8 2.578118 1_555
Cr4 Ni13 2.578546 1_555
Cr5 Ni6 2.484600 1_455
Cr5 Ni43 2.491753 1_565
Cr5 Mo0 2.502095 1_555
Cr5 Mo12 2.505019 1_555
Cr5 Ni17 2.535625 1_555
Cr5 Ni16 2.543650 1_555
Cr5 Ni31 2.557640 1_555
Cr5 Ni44 2.558686 1_556
Cr5 Ni37 2.562836 1_455
Cr5 Ni39 2.573023 1_455
Cr5 Ni18 2.582914 1_465
Cr5 Ni22 2.595747 1_566
Cr6 Ni40 2.470918 1_555
Cr6 Ni39 2.478539 1_555
Cr6 Ni18 2.485488 1_565
Cr6 Ni48 2.495461 1_565
Cr6 Ni12 2.513660 1_555
Cr6 Ni23 2.518794 1_565
Cr6 Mo15 2.557481 1_555
Cr6 Ni21 2.571692 1_565
Cr6 Ni17 2.580468 1_655
Cr6 Ni38 2.593624 1_555
Cr6 Ni37 2.602414 1_555
Cr7 Mo16 2.486674 1_555
Cr7 Ni13 2.490845 1_555
Cr7 Mo1 2.496222 1_565
Cr7 Ni49 2.500186 1_565
Cr7 Ni21 2.530488 1_565
Cr7 Ni45 2.547215 1_555
Cr7 Ni24 2.548545 1_565
Cr7 Ni40 2.565581 1_555
Cr7 Ni44 2.569575 1_555
Cr7 Ni23 2.575604 1_565
Cr7 Ni22 2.577130 1_565
Cr7 Ni38 2.578191 1_555
Ni0 Ni41 2.552819 1_545
Ni0 Ni26 2.553087 1_555
Ni0 Ni18 2.557637 1_555
Ni0 Ni28 2.565824 1_555
Ni0 Ni25 2.596820 1_655
Ni0 Ni32 2.615366 1_656
Ni0 Ni7 2.615568 1_556
Ni1 Ni26 2.471552 1_555
Ni1 Ni28 2.510498 1_555
Ni1 Ni27 2.535525 1_555
Ni1 Ni29 2.553614 1_555
Ni1 Ni23 2.566841 1_555
Ni1 Ni42 2.580547 1_545
Ni1 Ni3 2.606439 1_555
Ni2 Ni32 2.512229 1_555
Ni2 Ni29 2.521185 1_555
Ni2 Ni33 2.523427 1_555
Ni2 Ni27 2.557718 1_555
Ni2 Ni24 2.589159 1_555
Ni2 Ni4 2.597380 1_555
Ni2 Ni46 2.623153 1_455
Ni3 Ni34 2.513908 1_556
Ni3 Ni9 2.550693 1_555
Ni3 Ni30 2.585624 1_555
Ni3 Ni43 2.593591 1_555
Ni4 Ni5 2.558877 1_455
Ni4 Ni48 2.597178 1_455
Ni5 Ni6 2.555339 1_555
Ni7 Ni8 2.564019 1_555
Ni10 Ni27 2.497419 1_555
Ni10 Ni12 2.509969 1_555
Ni10 Ni35 2.536698 1_555
Ni10 Ni37 2.552789 1_555
Ni10 Ni38 2.579840 1_555
Ni10 Ni36 2.583969 1_555
Ni10 Ni8 2.587554 1_555
Ni11 Ni13 2.536205 1_555
Ni11 Ni36 2.539084 1_555
Ni11 Ni38 2.539549 1_555
Ni11 Ni32 2.561927 1_555
Ni11 Ni44 2.586731 1_555
Ni11 Ni31 2.592181 1_554
Ni11 Ni9 2.603281 1_554
Ni12 Ni38 2.486575 1_555
Ni12 Ni37 2.492203 1_555
Ni12 Ni39 2.543349 1_555
Ni12 Ni40 2.556890 1_555
Ni12 Ni29 2.567385 1_555
Ni12 Ni14 2.599463 1_555
Ni13 Ni38 2.487634 1_555
Ni13 Ni45 2.530121 1_555
Ni13 Ni44 2.555129 1_555
Ni13 Ni40 2.562041 1_555
Ni13 Ni15 2.596047 1_555
Ni13 Ni33 2.603380 1_555
Ni14 Ni42 2.512872 1_555
Ni14 Ni41 2.514179 1_555
Ni14 Ni40 2.525189 1_555
Ni14 Ni39 2.532337 1_555
Ni14 Ni16 2.611431 1_555
Ni14 Ni30 2.620181 1_555
Ni15 Ni42 2.555339 1_555
Ni15 Ni46 2.565603 1_465
Ni15 Ni45 2.569112 1_555
Ni15 Ni40 2.607783 1_555
Ni15 Ni17 2.617304 1_555
Ni15 Ni35 2.620719 1_455
Ni16 Ni43 2.510682 1_565
Ni16 Ni22 2.555634 1_566
Ni16 Ni31 2.560642 1_555
Ni16 Ni47 2.561938 1_566
Ni16 Ni42 2.563195 1_555
Ni16 Ni41 2.576368 1_555
Ni17 Ni18 2.509754 1_465
Ni17 Ni43 2.548863 1_565
Ni17 Ni48 2.552596 1_465
Ni17 Ni37 2.565595 1_455
Ni17 Ni46 2.584410 1_465
Ni17 Ni42 2.628791 1_555
Ni18 Ni39 2.499274 1_545
Ni18 Ni48 2.524959 1_555
Ni18 Ni26 2.573289 1_555
Ni18 Ni43 2.583634 1_655
Ni18 Ni25 2.616434 1_655
Ni19 Ni45 2.569042 1_655
Ni19 Ni41 2.569301 1_554
Ni19 Ni44 2.572712 1_655
Ni19 Ni6 2.579091 1_554
Ni19 Ni20 2.588670 1_555
Ni19 Ni39 2.594939 1_554
Ni19 Ni34 2.628582 1_555
Ni20 Ni46 2.550171 1_565
Ni20 Ni47 2.574838 1_565
Ni20 Ni36 2.588858 1_555
Ni20 Ni45 2.589562 1_655
Ni20 Ni41 2.592368 1_554
Ni20 Ni21 2.610833 1_565
Ni21 Ni23 2.507855 1_555
Ni21 Ni48 2.516580 1_555
Ni21 Ni49 2.541142 1_555
Ni21 Ni38 2.563687 1_545
Ni21 Ni46 2.589857 1_555
Ni21 Ni47 2.602810 1_555
Ni22 Ni43 2.500409 1_554
Ni22 Ni47 2.519232 1_555
Ni22 Ni25 2.519312 1_554
Ni22 Ni49 2.524372 1_555
Ni22 Ni24 2.545520 1_555
Ni22 Ni44 2.573173 1_545
Ni23 Ni48 2.484082 1_555
Ni23 Ni26 2.494967 1_555
Ni23 Ni40 2.526971 1_545
Ni23 Ni49 2.539608 1_555
Ni23 Ni27 2.575123 1_555
Ni24 Ni49 2.515905 1_555
Ni24 Ni25 2.557152 1_554
Ni24 Ni45 2.559053 1_545
Ni24 Ni32 2.572150 1_555
Ni24 Ni27 2.596994 1_555
Ni25 Ni43 2.532045 1_555
Ni25 Ni9 2.557554 1_555
Ni25 Ni32 2.599661 1_556
Ni26 Ni48 2.540632 1_555
Ni26 Ni28 2.558038 1_555
Ni26 Ni5 2.560555 1_555
Ni27 Ni29 2.522634 1_555
Ni27 Ni49 2.573791 1_555
Ni28 Ni3 2.553189 1_555
Ni28 Ni7 2.587794 1_556
Ni28 Ni6 2.601302 1_555
Ni28 Ni34 2.601491 1_556
Ni29 Ni3 2.609749 1_555
Ni29 Ni30 2.611366 1_555
Ni29 Ni4 2.625474 1_555
Ni30 Ni4 2.553237 1_555
Ni30 Ni9 2.581494 1_555
Ni30 Ni31 2.595471 1_555
Ni30 Ni5 2.607316 1_455
Ni31 Ni6 2.526004 1_455
Ni31 Ni44 2.546918 1_556
Ni31 Ni9 2.603000 1_555
Ni31 Ni5 2.609137 1_455
Ni32 Ni33 2.544578 1_555
Ni32 Ni7 2.603237 1_455
Ni33 Ni4 2.556940 1_555
Ni33 Ni7 2.581054 1_455
Ni33 Ni35 2.600306 1_455
Ni33 Ni8 2.605509 1_455
Ni34 Ni9 2.507844 1_554
Ni34 Ni7 2.509522 1_555
Ni34 Ni8 2.546598 1_555
Ni34 Ni36 2.586867 1_555
Ni35 Ni5 2.502973 1_555
Ni35 Ni4 2.517991 1_655
Ni35 Ni8 2.542582 1_555
Ni35 Ni37 2.606968 1_555
Ni36 Ni9 2.558190 1_554
Ni36 Ni8 2.568598 1_555
Ni36 Ni38 2.594568 1_555
Ni37 Ni6 2.479342 1_555
Ni37 Ni39 2.511039 1_555
Ni37 Ni5 2.542449 1_555
Ni38 Ni40 2.512395 1_555
Ni39 Ni6 2.555451 1_555
Ni39 Ni41 2.572221 1_555
Ni40 Ni42 2.573081 1_555
Ni41 Ni47 2.618730 1_566
Ni42 Ni43 2.616596 1_565
Ni44 Ni45 2.549118 1_555
Ni44 Ni6 2.564759 1_454
Ni45 Ni46 2.608407 1_465
Ni46 Ni48 2.587445 1_555
Ni47 Ni7 2.550226 1_555
Ni47 Ni49 2.556038 1_555
Ni49 Ni8 2.564483 1_555
Mo0 Ni25 2.532259 1_565
Mo0 Ni19 2.532945 1_456
Mo0 Ni44 2.538631 1_556
Mo0 Ni18 2.547631 1_465
Mo0 Ni39 2.554766 1_455
Mo0 Ni22 2.555399 1_566
Mo0 Ni0 2.611978 1_465
Mo0 Ni24 2.613992 1_566
Mo0 Ni41 2.615503 1_455
Mo0 Ni45 2.617058 1_556
Mo0 Mo6 2.643625 1_466
Mo1 Ni24 2.524762 1_555
Mo1 Ni23 2.543026 1_555
Mo1 Ni45 2.545617 1_545
Mo1 Ni15 2.548394 1_545
Mo1 Ni40 2.551601 1_545
Mo1 Ni27 2.554058 1_555
Mo1 Ni42 2.610727 1_545
Mo1 Ni1 2.616496 1_555
Mo1 Ni46 2.630867 1_455
Mo1 Ni2 2.632980 1_555
Mo1 Mo3 2.635065 1_555
Mo2 Ni16 2.543685 1_545
Mo2 Ni28 2.547009 1_555
Mo2 Ni3 2.553267 1_555
Mo2 Ni42 2.553425 1_545
Mo2 Ni41 2.559575 1_545
Mo2 Ni7 2.561262 1_556
Mo2 Ni0 2.566279 1_555
Mo2 Ni47 2.570575 1_556
Mo2 Ni1 2.578143 1_555
Mo2 Ni43 2.582431 1_555
Mo3 Ni17 2.552297 1_545
Mo3 Ni29 2.554981 1_555
Mo3 Ni46 2.565009 1_455
Mo3 Ni42 2.582995 1_545
Mo3 Mo4 2.584427 1_555
Mo3 Ni3 2.590848 1_555
Mo3 Ni2 2.591875 1_555
Mo3 Ni1 2.602524 1_555
Mo3 Ni4 2.610770 1_555
Mo3 Ni43 2.625419 1_555
Mo3 Ni48 2.633709 1_455
Mo4 Ni30 2.547338 1_555
Mo4 Ni18 2.549053 1_455
Mo4 Ni4 2.573030 1_555
Mo4 Mo5 2.574847 1_555
Mo4 Ni25 2.580346 1_555
Mo4 Ni48 2.582682 1_455
Mo4 Ni3 2.589535 1_555
Mo4 Ni9 2.598079 1_555
Mo4 Ni43 2.601891 1_555
Mo4 Ni26 2.603163 1_455
Mo4 Ni5 2.611860 1_455
Mo5 Ni31 2.530938 1_555
Mo5 Ni0 2.535176 1_455
Mo5 Ni28 2.571822 1_455
Mo5 Ni9 2.593379 1_555
Mo5 Ni5 2.596752 1_455
Mo5 Ni32 2.597779 1_556
Mo5 Ni25 2.603070 1_555
Mo5 Ni11 2.607499 1_556
Mo5 Ni6 2.614507 1_455
Mo5 Ni26 2.623135 1_455
Mo6 Ni20 2.523499 1_545
Mo6 Ni32 2.527165 1_655
Mo6 Ni46 2.585899 1_555
Mo6 Ni24 2.594718 1_655
Mo6 Ni7 2.595384 1_555
Mo6 Ni47 2.595857 1_555
Mo6 Ni0 2.600864 1_554
Mo6 Ni41 2.602618 1_544
Mo6 Ni2 2.603889 1_655
Mo6 Ni45 2.610735 1_645
Mo6 Mo7 2.649850 1_555
Mo7 Ni4 2.526578 1_655
Mo7 Ni8 2.532714 1_555
Mo7 Ni48 2.542755 1_555
Mo7 Ni49 2.550356 1_555
Mo7 Ni21 2.553517 1_555
Mo7 Ni33 2.554509 1_655
Mo7 Ni47 2.605489 1_555
Mo7 Ni46 2.610284 1_555
Mo7 Ni7 2.624246 1_555
Mo7 Ni2 2.649755 1_655
Mo8 Ni36 2.532309 1_555
Mo8 Ni24 2.533747 1_555
Mo8 Ni8 2.545770 1_555
Mo8 Ni25 2.563175 1_554
Mo8 Ni9 2.564474 1_554
Mo8 Ni32 2.565547 1_555
Mo8 Ni11 2.571652 1_555
Mo8 Ni49 2.572923 1_555
Mo8 Ni27 2.575980 1_555
Mo8 Ni10 2.582072 1_555
Mo9 Ni29 2.536312 1_555
Mo9 Ni28 2.536856 1_555
Mo9 Ni6 2.548253 1_555
Mo9 Ni12 2.551647 1_555
Mo9 Ni39 2.558776 1_555
Mo9 Ni3 2.560504 1_555
Mo9 Ni19 2.601912 1_556
Mo9 Ni30 2.619002 1_555
Mo9 Ni14 2.627377 1_555
Mo9 Ni34 2.651565 1_556
Mo10 Ni33 2.537931 1_555
Mo10 Ni13 2.551406 1_555
Mo10 Ni4 2.558684 1_555
Mo10 Ni12 2.558954 1_555
Mo10 Ni29 2.561445 1_555
Mo10 Ni40 2.566402 1_555
Mo10 Ni30 2.601327 1_555
Mo10 Ni15 2.602495 1_555
Mo10 Ni14 2.608634 1_555
Mo10 Ni35 2.651293 1_455
Mo10 Mo12 2.709192 1_555
Mo11 Ni9 2.540867 1_555
Mo11 Ni41 2.543672 1_555
Mo11 Ni19 2.569633 1_556
Mo11 Ni30 2.577937 1_555
Mo11 Ni20 2.588641 1_556
Mo11 Ni31 2.592722 1_555
Mo11 Ni16 2.592735 1_555
Mo11 Ni36 2.598896 1_556
Mo11 Ni14 2.603770 1_555
Mo11 Ni34 2.604946 1_556
Mo11 Mo9 2.641705 1_555
Mo11 Mo16 2.661855 1_556
Mo12 Ni16 2.543896 1_555
Mo12 Ni31 2.544752 1_555
Mo12 Ni17 2.555829 1_555
Mo12 Ni42 2.557174 1_555
Mo12 Ni5 2.557845 1_455
Mo12 Ni37 2.564124 1_455
Mo12 Ni15 2.589603 1_555
Mo12 Ni30 2.604874 1_555
Mo12 Ni35 2.621772 1_455
Mo12 Ni14 2.639952 1_555
Mo13 Ni7 2.547662 1_555
Mo13 Ni44 2.547925 1_655
Mo13 Mo5 2.572980 1_654
Mo13 Ni19 2.576949 1_555
Mo13 Ni33 2.582277 1_655
Mo13 Ni11 2.587952 1_655
Mo13 Ni28 2.593774 1_554
Mo13 Mo14 2.599599 1_555
Mo13 Ni34 2.600264 1_555
Mo13 Ni32 2.601283 1_655
Mo13 Ni13 2.607214 1_655
Mo13 Ni6 2.612522 1_554
Mo14 Ni45 2.541628 1_655
Mo14 Ni8 2.557842 1_555
Mo14 Ni36 2.567225 1_555
Mo14 Ni15 2.571993 1_655
Mo14 Ni35 2.579375 1_555
Mo14 Ni20 2.587612 1_555
Mo14 Ni33 2.600024 1_655
Mo14 Ni19 2.610215 1_555
Mo14 Ni34 2.614648 1_555
Mo14 Ni13 2.631112 1_655
Mo14 Mo15 2.641381 1_555
Mo15 Ni37 2.540326 1_555
Mo15 Ni38 2.544547 1_555
Mo15 Ni17 2.544974 1_655
Mo15 Ni46 2.546285 1_565
Mo15 Ni21 2.548746 1_565
Mo15 Ni10 2.554081 1_555
Mo15 Ni36 2.605436 1_555
Mo15 Ni15 2.633108 1_655
Mo15 Ni35 2.633494 1_555
Mo15 Ni20 2.638343 1_555
Mo16 Ni44 2.526930 1_555
Mo16 Ni21 2.535474 1_565
Mo16 Ni11 2.538528 1_555
Mo16 Ni47 2.544733 1_565
Mo16 Ni22 2.556533 1_565
Mo16 Ni38 2.564519 1_555
Mo16 Ni20 2.607798 1_555
Mo16 Ni36 2.611814 1_555
Mo16 Ni16 2.617351 1_554
Mo16 Ni31 2.622184 1_554
