# generated using pymatgen
data_Li2TiCuO4
_symmetry_space_group_name_H-M   'P 1'
_cell_length_a   5.46620084
_cell_length_b   5.46620084
_cell_length_c   5.46620084
_cell_angle_alpha   137.25130462
_cell_angle_beta   137.25130462
_cell_angle_gamma   62.05161737
_symmetry_Int_Tables_number   1
_chemical_formula_structural   Li2TiCuO4
_chemical_formula_sum   'Li2 Ti1 Cu1 O4'
_cell_volume   74.36425548
_cell_formula_units_Z   1
loop_
 _symmetry_equiv_pos_site_id
 _symmetry_equiv_pos_as_xyz
  1  'x, y, z'
loop_
 _atom_site_type_symbol
 _atom_site_label
 _atom_site_symmetry_multiplicity
 _atom_site_fract_x
 _atom_site_fract_y
 _atom_site_fract_z
 _atom_site_occupancy
  Li  Li0  1  0.25000000  0.75000000  0.50000000  1
  Li  Li1  1  0.50000000  0.50000000  0.00000000  1
  Ti  Ti0  1  0.75000000  0.25000000  0.50000000  1
  Cu  Cu0  1  0.00000000  0.00000000  0.00000000  1
  O  O0  1  0.96376900  0.46376900  0.50000000  1
  O  O1  1  0.74712300  0.74712300  0.00000000  1
  O  O2  1  0.53623100  0.03623100  0.50000000  1
  O  O3  1  0.25287700  0.25287700  0.00000000  1
loop_
_geom_bond_atom_site_label_1
_geom_bond_atom_site_label_2
_geom_bond_distance
_geom_bond_site_symmetry_2
Li0 O1 1.992393 1_556
Li0 O3 1.992393 1_555
Li0 O3 1.992393 1_566
Li0 O1 1.992393 1_455
Li1 O0 2.020919 1_454
Li1 O2 2.020919 1_565
Li1 O2 2.020919 1_554
Li1 O0 2.020919 1_555
Li1 O3 2.315137 1_555
Li1 O1 2.315137 1_555
Cu0 O2 2.020919 1_454
Cu0 O2 2.020919 1_555
Cu0 O0 2.020919 1_444
Cu0 O0 2.020919 1_455
Cu0 O1 2.369043 1_445
Cu0 O3 2.369043 1_555
O0 Ti0 2.002665 1_555
O1 Ti0 1.992393 1_554
O1 Ti0 1.992393 1_565
O2 Ti0 2.002665 1_555
O3 Ti0 1.992393 1_454
O3 Ti0 1.992393 1_555
