# generated using pymatgen
data_LiCoPO4
_symmetry_space_group_name_H-M   'P 1'
_cell_length_a   10.51116483
_cell_length_b   10.51116483
_cell_length_c   12.08981000
_cell_angle_alpha   90.00000000
_cell_angle_beta   90.00000000
_cell_angle_gamma   120.00000519
_symmetry_Int_Tables_number   1
_chemical_formula_structural   LiCoPO4
_chemical_formula_sum   'Li12 Co12 P12 O48'
_cell_volume   1156.78267925
_cell_formula_units_Z   12
loop_
 _symmetry_equiv_pos_site_id
 _symmetry_equiv_pos_as_xyz
  1  'x, y, z'
loop_
 _atom_site_type_symbol
 _atom_site_label
 _atom_site_symmetry_multiplicity
 _atom_site_fract_x
 _atom_site_fract_y
 _atom_site_fract_z
 _atom_site_occupancy
  Li  Li0  1  0.00000000  0.74523800  0.83333300  1
  Li  Li1  1  0.00000000  0.25476200  0.83333300  1
  Li  Li2  1  0.25049000  0.74951000  0.16666700  1
  Li  Li3  1  0.25049000  0.50098100  0.50000000  1
  Li  Li4  1  0.49901900  0.74951000  0.83333300  1
  Li  Li5  1  0.25476200  0.25476200  0.16666700  1
  Li  Li6  1  0.25476200  0.00000000  0.50000000  1
  Li  Li7  1  0.74523800  0.74523800  0.16666700  1
  Li  Li8  1  0.50098100  0.25049000  0.83333300  1
  Li  Li9  1  0.74951000  0.49901900  0.50000000  1
  Li  Li10  1  0.74951000  0.25049000  0.16666700  1
  Li  Li11  1  0.74523800  0.00000000  0.50000000  1
  Co  Co0  1  0.00000000  0.50000000  0.00821100  1
  Co  Co1  1  0.00000000  0.50000000  0.65845500  1
  Co  Co2  1  0.00000000  0.50000000  0.33333300  1
  Co  Co3  1  0.00000000  0.00000000  0.16666700  1
  Co  Co4  1  0.00000000  0.00000000  0.50000000  1
  Co  Co5  1  0.00000000  0.00000000  0.83333300  1
  Co  Co6  1  0.50000000  0.50000000  0.34154500  1
  Co  Co7  1  0.50000000  0.50000000  0.66666700  1
  Co  Co8  1  0.50000000  0.50000000  0.99178900  1
  Co  Co9  1  0.50000000  0.00000000  0.32512200  1
  Co  Co10  1  0.50000000  0.00000000  0.00000000  1
  Co  Co11  1  0.50000000  0.00000000  0.67487800  1
  P  P0  1  0.00000000  0.75581900  0.33333300  1
  P  P1  1  0.24744300  0.75255700  0.66666700  1
  P  P2  1  0.00000000  0.24418100  0.33333300  1
  P  P3  1  0.24744300  0.49488500  0.00000000  1
  P  P4  1  0.24418100  0.24418100  0.66666700  1
  P  P5  1  0.50511500  0.75255700  0.33333300  1
  P  P6  1  0.24418100  0.00000000  0.00000000  1
  P  P7  1  0.49488500  0.24744300  0.33333300  1
  P  P8  1  0.75581900  0.75581900  0.66666700  1
  P  P9  1  0.75255700  0.50511500  0.00000000  1
  P  P10  1  0.75255700  0.24744300  0.66666700  1
  P  P11  1  0.75581900  0.00000000  0.00000000  1
  O  O0  1  0.07195500  0.87987400  0.42139700  1
  O  O1  1  0.12012600  0.92804500  0.91193600  1
  O  O2  1  0.10190200  0.69759700  0.73245900  1
  O  O3  1  0.10821900  0.71316200  0.27840700  1
  O  O4  1  0.28683800  0.89178100  0.05492700  1
  O  O5  1  0.30240300  0.89809800  0.60087400  1
  O  O6  1  0.20135200  0.61721700  0.59024800  1
  O  O7  1  0.10190200  0.40430400  0.93420800  1
  O  O8  1  0.20135200  0.58413500  0.07641900  1
  O  O9  1  0.10821900  0.39505700  0.38826000  1
  O  O10  1  0.07195500  0.19208100  0.24526900  1
  O  O11  1  0.38278300  0.79864800  0.74308500  1
  O  O12  1  0.41586500  0.79864800  0.25691500  1
  O  O13  1  0.12012600  0.19208100  0.75473100  1
  O  O14  1  0.28683800  0.39505700  0.61174000  1
  O  O15  1  0.38278300  0.58413500  0.92358100  1
  O  O16  1  0.30240300  0.40430400  0.06579200  1
  O  O17  1  0.41586500  0.61721700  0.40975200  1
  O  O18  1  0.19208100  0.12012600  0.57860300  1
  O  O19  1  0.19208100  0.07195500  0.08806400  1
  O  O20  1  0.59569600  0.89809800  0.39912600  1
  O  O21  1  0.60494300  0.89178100  0.94507300  1
  O  O22  1  0.60494300  0.71316200  0.72159300  1
  O  O23  1  0.40430400  0.30240300  0.26754100  1
  O  O24  1  0.59569600  0.69759700  0.26754100  1
  O  O25  1  0.39505700  0.28683800  0.72159300  1
  O  O26  1  0.39505700  0.10821900  0.94507300  1
  O  O27  1  0.40430400  0.10190200  0.39912600  1
  O  O28  1  0.80791900  0.92804500  0.08806400  1
  O  O29  1  0.80791900  0.87987400  0.57860300  1
  O  O30  1  0.58413500  0.38278300  0.40975200  1
  O  O31  1  0.69759700  0.59569600  0.06579200  1
  O  O32  1  0.61721700  0.41586500  0.92358100  1
  O  O33  1  0.71316200  0.60494300  0.61174000  1
  O  O34  1  0.87987400  0.80791900  0.75473100  1
  O  O35  1  0.58413500  0.20135200  0.25691500  1
  O  O36  1  0.61721700  0.20135200  0.74308500  1
  O  O37  1  0.92804500  0.80791900  0.24526900  1
  O  O38  1  0.89178100  0.60494300  0.38826000  1
  O  O39  1  0.79864800  0.41586500  0.07641900  1
  O  O40  1  0.89809800  0.59569600  0.93420800  1
  O  O41  1  0.79864800  0.38278300  0.59024800  1
  O  O42  1  0.69759700  0.10190200  0.60087400  1
  O  O43  1  0.71316200  0.10821900  0.05492700  1
  O  O44  1  0.89178100  0.28683800  0.27840700  1
  O  O45  1  0.89809800  0.30240300  0.73245900  1
  O  O46  1  0.87987400  0.07195500  0.91193600  1
  O  O47  1  0.92804500  0.12012600  0.42139700  1
loop_
_geom_bond_atom_site_label_1
_geom_bond_atom_site_label_2
_geom_bond_distance
_geom_bond_site_symmetry_2
Li0 O2 1.849785 1_555
Li0 O40 1.849787 1_455
Li0 O34 1.939935 1_455
Li0 O1 1.939941 1_555
Li1 O45 1.849785 1_455
Li1 O7 1.849787 1_555
Li1 O13 1.939935 1_555
Li1 O46 1.939941 1_455
Li2 O12 1.892363 1_555
Li2 O8 1.892363 1_555
Li2 O3 1.906809 1_555
Li2 O4 1.906809 1_555
Li3 O6 1.892355 1_555
Li3 O17 1.892361 1_555
Li3 O9 1.906811 1_555
Li3 O14 1.906816 1_555
Li4 O11 1.892355 1_555
Li4 O15 1.892361 1_555
Li4 O21 1.906811 1_555
Li4 O22 1.906816 1_555
Li5 O23 1.849777 1_555
Li5 O16 1.849785 1_555
Li5 O10 1.939935 1_555
Li5 O19 1.939941 1_555
Li6 O27 1.849779 1_555
Li6 O5 1.849785 1_545
Li6 O0 1.939941 1_545
Li6 O18 1.939941 1_555
Li7 O24 1.849777 1_555
Li7 O31 1.849785 1_555
Li7 O37 1.939935 1_555
Li7 O28 1.939941 1_555
Li8 O36 1.892355 1_555
Li8 O32 1.892361 1_555
Li8 O26 1.906811 1_555
Li8 O25 1.906816 1_555
Li9 O41 1.892355 1_555
Li9 O30 1.892361 1_555
Li9 O38 1.906811 1_555
Li9 O33 1.906816 1_555
Li10 O39 1.892363 1_555
Li10 O35 1.892363 1_555
Li10 O43 1.906809 1_555
Li10 O44 1.906809 1_555
Li11 O20 1.849779 1_545
Li11 O42 1.849785 1_555
Li11 O47 1.939941 1_555
Li11 O29 1.939941 1_545
Co0 O7 2.009209 1_554
Co0 O40 2.009209 1_454
Co0 O39 2.017358 1_455
Co0 O8 2.017358 1_555
Co1 O45 2.009206 1_455
Co1 O2 2.009206 1_555
Co1 O41 2.017353 1_455
Co1 O6 2.017353 1_555
Co2 O3 2.050952 1_555
Co2 O44 2.050952 1_455
Co2 O38 2.050956 1_455
Co2 O9 2.050956 1_555
Co3 O37 2.006088 1_445
Co3 O10 2.006088 1_555
Co3 O28 2.006093 1_445
Co3 O19 2.006093 1_555
Co4 O29 2.006093 1_445
Co4 O18 2.006093 1_555
Co4 O0 2.006093 1_545
Co4 O47 2.006093 1_455
Co5 O34 2.006087 1_445
Co5 O13 2.006087 1_555
Co5 O1 2.006093 1_545
Co5 O46 2.006093 1_455
Co6 O23 2.009206 1_555
Co6 O24 2.009206 1_555
Co6 O30 2.017353 1_555
Co6 O17 2.017353 1_555
Co7 O22 2.050952 1_555
Co7 O25 2.050952 1_555
Co7 O33 2.050956 1_555
Co7 O14 2.050956 1_555
Co8 O16 2.009201 1_556
Co8 O31 2.009201 1_556
Co8 O15 2.017358 1_555
Co8 O32 2.017358 1_555
Co9 O27 2.009214 1_555
Co9 O20 2.009214 1_545
Co9 O35 2.017353 1_555
Co9 O12 2.017353 1_545
Co10 O43 2.050956 1_555
Co10 O4 2.050956 1_545
Co10 O21 2.050956 1_544
Co10 O26 2.050956 1_554
Co11 O5 2.009206 1_545
Co11 O42 2.009206 1_555
Co11 O36 2.017353 1_555
Co11 O11 2.017353 1_545
O0 P0 1.555527 1_555
O1 P6 1.555527 1_566
O2 P1 1.556585 1_555
O3 P0 1.563953 1_555
O4 P6 1.563958 1_565
O5 P1 1.556591 1_555
O6 P1 1.556543 1_555
O7 P3 1.556585 1_556
O8 P3 1.556551 1_555
O9 P2 1.563958 1_555
O10 P2 1.555527 1_555
O11 P1 1.556535 1_555
O12 P5 1.556543 1_555
O13 P4 1.555527 1_555
O14 P4 1.563958 1_555
O15 P3 1.556544 1_556
O16 P3 1.556585 1_555
O17 P5 1.556544 1_555
O18 P4 1.555527 1_555
O19 P6 1.555527 1_555
O20 P5 1.556591 1_555
O21 P11 1.563958 1_566
O22 P8 1.563953 1_555
O23 P7 1.556585 1_555
O24 P5 1.556585 1_555
O25 P4 1.563953 1_555
O26 P6 1.563958 1_556
O27 P7 1.556591 1_555
O28 P11 1.555527 1_565
O29 P8 1.555527 1_555
O30 P7 1.556544 1_555
O31 P9 1.556585 1_555
O32 P9 1.556544 1_556
O33 P8 1.563958 1_555
O34 P8 1.555527 1_555
O35 P7 1.556543 1_555
O36 P10 1.556535 1_555
O37 P0 1.555527 1_655
O38 P0 1.563958 1_655
O39 P9 1.556551 1_555
O40 P9 1.556585 1_556
O41 P10 1.556543 1_555
O42 P10 1.556591 1_555
O43 P11 1.563958 1_555
O44 P2 1.563953 1_655
O45 P10 1.556585 1_555
O46 P11 1.555527 1_556
O47 P2 1.555527 1_655
