# generated using pymatgen
data_NaAs3H2O9
_symmetry_space_group_name_H-M   'P 1'
_cell_length_a   7.33859900
_cell_length_b   7.71689548
_cell_length_c   8.03865928
_cell_angle_alpha   110.52739308
_cell_angle_beta   107.50462263
_cell_angle_gamma   106.20215557
_symmetry_Int_Tables_number   1
_chemical_formula_structural   NaAs3H2O9
_chemical_formula_sum   'Na2 As6 H4 O18'
_cell_volume   366.98468283
_cell_formula_units_Z   2
loop_
 _symmetry_equiv_pos_site_id
 _symmetry_equiv_pos_as_xyz
  1  'x, y, z'
loop_
 _atom_site_type_symbol
 _atom_site_label
 _atom_site_symmetry_multiplicity
 _atom_site_fract_x
 _atom_site_fract_y
 _atom_site_fract_z
 _atom_site_occupancy
  Na  Na0  1  0.68590400  0.17832700  0.95939100  1
  Na  Na1  1  0.31409600  0.82167300  0.04060900  1
  As  As0  1  0.63600900  0.65549200  0.83273500  1
  As  As1  1  0.36399100  0.34450800  0.16726500  1
  As  As2  1  0.84722200  0.56675300  0.52316700  1
  As  As3  1  0.15277800  0.43324700  0.47683300  1
  As  As4  1  0.80995300  0.16374900  0.54453900  1
  As  As5  1  0.19004700  0.83625100  0.45546100  1
  H  H0  1  0.87842900  0.64146300  0.07775400  1
  H  H1  1  0.12157100  0.35853700  0.92224600  1
  H  H2  1  0.62991500  0.80725200  0.37450800  1
  H  H3  1  0.37008500  0.19274800  0.62549200  1
  O  O0  1  0.60805800  0.86054600  0.95465000  1
  O  O1  1  0.39194200  0.13945400  0.04535000  1
  O  O2  1  0.72675200  0.53728400  0.96789600  1
  O  O3  1  0.27324800  0.46271600  0.03210400  1
  O  O4  1  0.89284900  0.19542600  0.77526900  1
  O  O5  1  0.10715100  0.80457400  0.22473100  1
  O  O6  1  0.81916600  0.72294400  0.73996200  1
  O  O7  1  0.18083400  0.27705600  0.26003800  1
  O  O8  1  0.90781500  0.43063800  0.31800000  1
  O  O9  1  0.09218500  0.56936200  0.68200000  1
  O  O10  1  0.60410900  0.56009600  0.35210300  1
  O  O11  1  0.39589100  0.43990400  0.64789700  1
  O  O12  1  0.60173600  0.92349800  0.36503700  1
  O  O13  1  0.39826400  0.07650200  0.63496300  1
  O  O14  1  0.99335700  0.81922400  0.53996900  1
  O  O15  1  0.00664300  0.18077600  0.46003100  1
  O  O16  1  0.68158800  0.31581600  0.49948300  1
  O  O17  1  0.31841200  0.68418400  0.50051700  1
loop_
_geom_bond_atom_site_label_1
_geom_bond_atom_site_label_2
_geom_bond_distance
_geom_bond_site_symmetry_2
Na0 O0 2.341167 1_545
Na0 O4 2.427310 1_555
Na0 O1 2.429452 1_556
Na0 O13 2.490029 1_555
Na0 O8 2.494659 1_556
Na0 O2 2.675647 1_555
Na1 O1 2.341167 1_565
Na1 O5 2.427310 1_555
Na1 O0 2.429452 1_554
Na1 O12 2.490029 1_555
Na1 O9 2.494659 1_554
Na1 O3 2.675647 1_555
As0 O0 1.649530 1_555
As0 O2 1.747826 1_555
As0 O6 1.765949 1_555
As0 O11 1.770872 1_555
As1 O1 1.649530 1_555
As1 O3 1.747826 1_555
As1 O7 1.765949 1_555
As1 O10 1.770872 1_555
As2 O6 1.847571 1_555
As2 O9 1.855616 1_655
As2 O10 1.870855 1_555
As2 O8 1.872971 1_555
As2 O14 1.877898 1_555
As2 O16 1.884748 1_555
As3 O7 1.847571 1_555
As3 O8 1.855616 1_455
As3 O11 1.870855 1_555
As3 O9 1.872971 1_555
As3 O15 1.877898 1_555
As3 O17 1.884748 1_555
As4 O4 1.670404 1_555
As4 O12 1.752365 1_545
As4 O16 1.762207 1_555
As4 O15 1.763201 1_655
As5 O5 1.670404 1_555
As5 O13 1.752365 1_565
As5 O17 1.762207 1_555
As5 O14 1.763201 1_455
H0 O2 1.037577 1_554
H0 O5 1.543589 1_655
H1 O3 1.037577 1_556
H1 O4 1.543589 1_455
H2 O12 0.997608 1_555
H3 O13 0.997608 1_555
