# generated using pymatgen
data_Mn6OF11
_symmetry_space_group_name_H-M   'P 1'
_cell_length_a   5.89718400
_cell_length_b   4.96321100
_cell_length_c   16.22683032
_cell_angle_alpha   89.22947519
_cell_angle_beta   90.00000000
_cell_angle_gamma   90.00000000
_symmetry_Int_Tables_number   1
_chemical_formula_structural   Mn6OF11
_chemical_formula_sum   'Mn12 O2 F22'
_cell_volume   474.89963851
_cell_formula_units_Z   2
loop_
 _symmetry_equiv_pos_site_id
 _symmetry_equiv_pos_as_xyz
  1  'x, y, z'
loop_
 _atom_site_type_symbol
 _atom_site_label
 _atom_site_symmetry_multiplicity
 _atom_site_fract_x
 _atom_site_fract_y
 _atom_site_fract_z
 _atom_site_occupancy
  Mn  Mn0  1  0.83277700  0.99670900  0.41616400  1
  Mn  Mn1  1  0.16658900  0.98486800  0.24526800  1
  Mn  Mn2  1  0.85542200  0.99252700  0.08609000  1
  Mn  Mn3  1  0.83341100  0.98486800  0.74526800  1
  Mn  Mn4  1  0.14457800  0.99252700  0.58609000  1
  Mn  Mn5  1  0.16722300  0.99670900  0.91616400  1
  Mn  Mn6  1  0.68943400  0.52538500  0.58760700  1
  Mn  Mn7  1  0.67002300  0.48542100  0.91920600  1
  Mn  Mn8  1  0.66575500  0.50441600  0.24915200  1
  Mn  Mn9  1  0.31056600  0.52538500  0.08760700  1
  Mn  Mn10  1  0.32997700  0.48542100  0.41920600  1
  Mn  Mn11  1  0.33424500  0.50441600  0.74915200  1
  O  O0  1  0.91248700  0.79497400  0.63541300  1
  O  O1  1  0.08751300  0.79497400  0.13541300  1
  F  F0  1  0.89139800  0.76413500  0.30926700  1
  F  F1  1  0.88555800  0.77587200  0.97637900  1
  F  F2  1  0.11444200  0.77587200  0.47637900  1
  F  F3  1  0.10860200  0.76413500  0.80926700  1
  F  F4  1  0.60572800  0.74235000  0.13773400  1
  F  F5  1  0.39231400  0.72640000  0.30844900  1
  F  F6  1  0.60783000  0.71489400  0.47274000  1
  F  F7  1  0.39427200  0.74235000  0.63773400  1
  F  F8  1  0.60768600  0.72640000  0.80844900  1
  F  F9  1  0.39217000  0.71489400  0.97274000  1
  F  F10  1  0.62797100  0.24786600  0.03257800  1
  F  F11  1  0.38365800  0.28775300  0.19369100  1
  F  F12  1  0.60622500  0.26931400  0.36072300  1
  F  F13  1  0.37202900  0.24786600  0.53257800  1
  F  F14  1  0.39377500  0.26931400  0.86072300  1
  F  F15  1  0.61634200  0.28775300  0.69369100  1
  F  F16  1  0.87925800  0.22962200  0.18986500  1
  F  F17  1  0.89444200  0.23687900  0.52377300  1
  F  F18  1  0.11061800  0.22061500  0.35590200  1
  F  F19  1  0.10555800  0.23687900  0.02377300  1
  F  F20  1  0.88938200  0.22061500  0.85590200  1
  F  F21  1  0.12074200  0.22962200  0.68986500  1
loop_
_geom_bond_atom_site_label_1
_geom_bond_atom_site_label_2
_geom_bond_distance
_geom_bond_site_symmetry_2
Mn1 O1 2.080524 1_555
Mn2 O1 1.858530 1_655
Mn3 O0 2.080524 1_555
Mn4 O0 1.858530 1_455
Mn6 O0 2.037214 1_555
Mn9 O1 2.037214 1_555
F0 Mn8 2.101820 1_555
F0 Mn0 2.124767 1_555
F0 Mn1 2.209468 1_655
F1 Mn2 2.099686 1_556
F1 Mn7 2.142511 1_555
F1 Mn5 2.210495 1_655
F2 Mn4 2.099686 1_555
F2 Mn10 2.142511 1_555
F2 Mn0 2.210495 1_455
F3 Mn11 2.101820 1_555
F3 Mn5 2.124767 1_555
F3 Mn3 2.209468 1_455
F4 Mn2 2.093870 1_555
F4 Mn8 2.175126 1_555
F4 Mn9 2.207838 1_555
F5 Mn1 2.105543 1_555
F5 Mn10 2.176664 1_555
F5 Mn8 2.183682 1_555
F6 Mn0 2.127065 1_555
F6 Mn6 2.131510 1_555
F6 Mn10 2.182480 1_555
F7 Mn4 2.093870 1_555
F7 Mn11 2.175126 1_555
F7 Mn6 2.207838 1_555
F8 Mn3 2.105543 1_555
F8 Mn7 2.176664 1_555
F8 Mn11 2.183682 1_555
F9 Mn5 2.127065 1_555
F9 Mn9 2.131510 1_556
F9 Mn7 2.182480 1_555
F10 Mn2 2.032140 1_545
F10 Mn7 2.185787 1_554
F10 Mn9 2.496246 1_555
F11 Mn9 2.117890 1_555
F11 Mn1 2.136614 1_545
F11 Mn8 2.181698 1_555
F12 Mn0 2.095744 1_545
F12 Mn8 2.169261 1_555
F12 Mn10 2.175390 1_555
F13 Mn4 2.032140 1_545
F13 Mn10 2.185787 1_555
F13 Mn6 2.496246 1_555
F14 Mn5 2.095744 1_545
F14 Mn11 2.169261 1_555
F14 Mn7 2.175390 1_555
F15 Mn6 2.117890 1_555
F15 Mn3 2.136614 1_545
F15 Mn11 2.181698 1_555
F16 Mn2 2.072065 1_545
F16 Mn8 2.099089 1_555
F16 Mn1 2.263990 1_645
F17 Mn6 2.150538 1_555
F17 Mn4 2.153203 1_645
F17 Mn0 2.158280 1_545
F18 Mn10 2.119494 1_555
F18 Mn1 2.181140 1_545
F18 Mn0 2.201493 1_445
F19 Mn9 2.150538 1_555
F19 Mn2 2.153203 1_445
F19 Mn5 2.158280 1_544
F20 Mn7 2.119494 1_555
F20 Mn3 2.181140 1_545
F20 Mn5 2.201493 1_645
F21 Mn4 2.072065 1_545
F21 Mn11 2.099089 1_555
F21 Mn3 2.263990 1_445
