# generated using pymatgen
data_LiVB2O5
_symmetry_space_group_name_H-M   'P 1'
_cell_length_a   10.84900700
_cell_length_b   5.48049500
_cell_length_c   12.09229846
_cell_angle_alpha   79.14431928
_cell_angle_beta   90.00000000
_cell_angle_gamma   90.00000000
_symmetry_Int_Tables_number   1
_chemical_formula_structural   LiVB2O5
_chemical_formula_sum   'Li8 V8 B16 O40'
_cell_volume   706.11659285
_cell_formula_units_Z   8
loop_
 _symmetry_equiv_pos_site_id
 _symmetry_equiv_pos_as_xyz
  1  'x, y, z'
loop_
 _atom_site_type_symbol
 _atom_site_label
 _atom_site_symmetry_multiplicity
 _atom_site_fract_x
 _atom_site_fract_y
 _atom_site_fract_z
 _atom_site_occupancy
  Li  Li0  1  0.62594000  0.36564000  0.05749200  1
  Li  Li1  1  0.87406000  0.86564000  0.05749200  1
  Li  Li2  1  0.11508900  0.12539700  0.44248800  1
  Li  Li3  1  0.38491100  0.62539700  0.44248800  1
  Li  Li4  1  0.61508900  0.37460300  0.55751200  1
  Li  Li5  1  0.88491100  0.87460300  0.55751200  1
  Li  Li6  1  0.12594000  0.13436000  0.94250800  1
  Li  Li7  1  0.37406000  0.63436000  0.94250800  1
  V  V0  1  0.37603300  0.27324300  0.23899200  1
  V  V1  1  0.87417300  0.25557300  0.25838600  1
  V  V2  1  0.12396700  0.77324300  0.23899200  1
  V  V3  1  0.62582700  0.75557300  0.25838600  1
  V  V4  1  0.37417300  0.24442700  0.74161400  1
  V  V5  1  0.87603300  0.22675700  0.76100800  1
  V  V6  1  0.12582700  0.74442700  0.74161400  1
  V  V7  1  0.62396700  0.72675700  0.76100800  1
  B  B0  1  0.36974200  0.14130900  0.00445000  1
  B  B1  1  0.13025800  0.64130900  0.00445000  1
  B  B2  1  0.11882700  0.30791100  0.16820500  1
  B  B3  1  0.38117300  0.80791100  0.16820500  1
  B  B4  1  0.62768100  0.20647900  0.33317700  1
  B  B5  1  0.87231900  0.70647900  0.33317700  1
  B  B6  1  0.38685900  0.15364800  0.50900600  1
  B  B7  1  0.88685900  0.34635200  0.49099400  1
  B  B8  1  0.11314100  0.65364800  0.50900600  1
  B  B9  1  0.61314100  0.84635200  0.49099400  1
  B  B10  1  0.12768100  0.29352100  0.66682300  1
  B  B11  1  0.37231900  0.79352100  0.66682300  1
  B  B12  1  0.61882700  0.19208900  0.83179500  1
  B  B13  1  0.88117300  0.69208900  0.83179500  1
  B  B14  1  0.86974200  0.35869100  0.99555000  1
  B  B15  1  0.63025800  0.85869100  0.99555000  1
  O  O0  1  0.39312400  0.31984100  0.06610800  1
  O  O1  1  0.10956100  0.38455600  0.05208500  1
  O  O2  1  0.82115500  0.31112700  0.10103300  1
  O  O3  1  0.10687600  0.81984100  0.06610800  1
  O  O4  1  0.39043900  0.88455600  0.05208500  1
  O  O5  1  0.67884500  0.81112700  0.10103300  1
  O  O6  1  0.04737700  0.11329100  0.22110700  1
  O  O7  1  0.55617500  0.10788200  0.25714000  1
  O  O8  1  0.19636000  0.43525300  0.22788400  1
  O  O9  1  0.45262300  0.61329100  0.22110700  1
  O  O10  1  0.70134600  0.40915800  0.29568700  1
  O  O11  1  0.94382500  0.60788200  0.25714000  1
  O  O12  1  0.30364000  0.93525300  0.22788400  1
  O  O13  1  0.79865400  0.90915800  0.29568700  1
  O  O14  1  0.35274100  0.24639800  0.40133200  1
  O  O15  1  0.62863000  0.10631100  0.44913800  1
  O  O16  1  0.92815400  0.19287100  0.42210600  1
  O  O17  1  0.14725900  0.74639800  0.40133200  1
  O  O18  1  0.87137000  0.60631100  0.44913800  1
  O  O19  1  0.57184600  0.69287100  0.42210600  1
  O  O20  1  0.42815400  0.30712900  0.57789400  1
  O  O21  1  0.12863000  0.39368900  0.55086200  1
  O  O22  1  0.85274100  0.25360200  0.59866800  1
  O  O23  1  0.07184600  0.80712900  0.57789400  1
  O  O24  1  0.37137000  0.89368900  0.55086200  1
  O  O25  1  0.64725900  0.75360200  0.59866800  1
  O  O26  1  0.20134600  0.09084200  0.70431300  1
  O  O27  1  0.69636000  0.06474700  0.77211600  1
  O  O28  1  0.05617500  0.39211800  0.74286000  1
  O  O29  1  0.29865400  0.59084200  0.70431300  1
  O  O30  1  0.54737700  0.38670900  0.77889300  1
  O  O31  1  0.80364000  0.56474700  0.77211600  1
  O  O32  1  0.44382500  0.89211800  0.74286000  1
  O  O33  1  0.95262300  0.88670900  0.77889300  1
  O  O34  1  0.32115500  0.18887300  0.89896700  1
  O  O35  1  0.60956100  0.11544400  0.94791500  1
  O  O36  1  0.89312400  0.18015900  0.93389200  1
  O  O37  1  0.17884500  0.68887300  0.89896700  1
  O  O38  1  0.89043900  0.61544400  0.94791500  1
  O  O39  1  0.60687600  0.68015900  0.93389200  1
loop_
_geom_bond_atom_site_label_1
_geom_bond_atom_site_label_2
_geom_bond_distance
_geom_bond_site_symmetry_2
Li0 O39 2.068194 1_554
Li0 O35 2.086110 1_554
Li0 O2 2.189217 1_555
Li0 O0 2.538461 1_555
Li1 O36 2.068194 1_564
Li1 O38 2.086110 1_554
Li1 O5 2.189217 1_555
Li1 O3 2.538461 1_655
Li2 O16 2.067894 1_455
Li2 O21 2.150994 1_555
Li2 O23 2.206301 1_545
Li2 O17 2.252379 1_545
Li3 O19 2.067894 1_555
Li3 O24 2.150994 1_555
Li3 O20 2.206301 1_555
Li3 O14 2.252379 1_555
Li4 O20 2.067894 1_555
Li4 O15 2.150994 1_555
Li4 O19 2.206301 1_555
Li4 O25 2.252379 1_555
Li5 O23 2.067894 1_655
Li5 O18 2.150994 1_555
Li5 O16 2.206301 1_565
Li5 O22 2.252379 1_565
Li6 O3 2.068194 1_546
Li6 O1 2.086110 1_556
Li6 O34 2.189217 1_555
Li6 O36 2.538461 1_455
Li7 O0 2.068194 1_556
Li7 O4 2.086110 1_556
Li7 O37 2.189217 1_555
Li7 O39 2.538461 1_555
B0 O34 1.359245 1_554
B0 O0 1.361025 1_555
B0 O4 1.434202 1_545
B1 O37 1.359245 1_554
B1 O3 1.361025 1_555
B1 O1 1.434202 1_555
B2 O6 1.375047 1_555
B2 O8 1.380253 1_555
B2 O1 1.391417 1_555
B3 O9 1.375047 1_555
B3 O12 1.380253 1_555
B3 O4 1.391417 1_555
B4 O10 1.374184 1_555
B4 O7 1.387935 1_555
B4 O15 1.406336 1_555
B5 O13 1.374184 1_555
B5 O11 1.387935 1_555
B5 O18 1.406336 1_555
B6 O14 1.356970 1_555
B6 O20 1.366050 1_555
B6 O24 1.429187 1_545
B7 O22 1.356970 1_555
B7 O16 1.366050 1_555
B7 O18 1.429187 1_555
B8 O17 1.356970 1_555
B8 O23 1.366050 1_555
B8 O21 1.429187 1_555
B9 O25 1.356970 1_555
B9 O19 1.366050 1_555
B9 O15 1.429187 1_565
B10 O26 1.374184 1_555
B10 O28 1.387935 1_555
B10 O21 1.406336 1_555
B11 O29 1.374184 1_555
B11 O32 1.387935 1_555
B11 O24 1.406336 1_555
B12 O30 1.375047 1_555
B12 O27 1.380253 1_555
B12 O35 1.391417 1_555
B13 O33 1.375047 1_555
B13 O31 1.380253 1_555
B13 O38 1.391417 1_555
B14 O2 1.359245 1_556
B14 O36 1.361025 1_555
B14 O38 1.434202 1_555
B15 O5 1.359245 1_556
B15 O39 1.361025 1_555
B15 O35 1.434202 1_565
O0 V0 2.066146 1_555
O2 V1 1.955971 1_555
O3 V2 2.066146 1_555
O5 V3 1.955971 1_555
O6 V2 2.014576 1_545
O6 V1 2.115337 1_455
O7 V3 2.070840 1_545
O7 V0 2.148042 1_555
O8 V2 2.039562 1_555
O8 V0 2.135684 1_555
O9 V0 2.014576 1_555
O9 V3 2.115337 1_555
O10 V3 2.038763 1_555
O10 V1 2.137892 1_555
O11 V1 2.070840 1_555
O11 V2 2.148042 1_655
O12 V0 2.039562 1_565
O12 V2 2.135684 1_555
O13 V1 2.038763 1_565
O13 V3 2.137892 1_555
O14 V0 1.957123 1_555
O16 V1 2.030817 1_555
O17 V2 1.957123 1_555
O19 V3 2.030817 1_555
O20 V4 2.030817 1_555
O22 V5 1.957123 1_555
O23 V6 2.030817 1_555
O25 V7 1.957123 1_555
O26 V6 2.038763 1_545
O26 V4 2.137892 1_555
O27 V7 2.039562 1_545
O27 V5 2.135684 1_555
O28 V6 2.070840 1_555
O28 V5 2.148042 1_455
O29 V4 2.038763 1_555
O29 V6 2.137892 1_555
O30 V7 2.014576 1_555
O30 V4 2.115337 1_555
O31 V5 2.039562 1_555
O31 V7 2.135684 1_555
O32 V4 2.070840 1_565
O32 V7 2.148042 1_555
O33 V5 2.014576 1_565
O33 V6 2.115337 1_655
O34 V4 1.955971 1_555
O36 V5 2.066146 1_555
O37 V6 1.955971 1_555
O39 V7 2.066146 1_555
