# generated using pymatgen
data_Ce(WO4)2
_symmetry_space_group_name_H-M   'P 1'
_cell_length_a   7.35574452
_cell_length_b   7.35574452
_cell_length_c   7.91400423
_cell_angle_alpha   63.75440439
_cell_angle_beta   63.75440439
_cell_angle_gamma   68.66419247
_symmetry_Int_Tables_number   1
_chemical_formula_structural   Ce(WO4)2
_chemical_formula_sum   'Ce2 W4 O16'
_cell_volume   336.84351293
_cell_formula_units_Z   2
loop_
 _symmetry_equiv_pos_site_id
 _symmetry_equiv_pos_as_xyz
  1  'x, y, z'
loop_
 _atom_site_type_symbol
 _atom_site_label
 _atom_site_symmetry_multiplicity
 _atom_site_fract_x
 _atom_site_fract_y
 _atom_site_fract_z
 _atom_site_occupancy
  Ce  Ce0  1  0.96509400  0.03490600  0.25000000  1
  Ce  Ce1  1  0.03490600  0.96509400  0.75000000  1
  W  W0  1  0.49350600  0.93889600  0.23170800  1
  W  W1  1  0.93889600  0.49350600  0.73170800  1
  W  W2  1  0.06110400  0.50649400  0.26829200  1
  W  W3  1  0.50649400  0.06110400  0.76829200  1
  O  O0  1  0.59048600  0.67389600  0.32471900  1
  O  O1  1  0.21959500  0.97818300  0.41506600  1
  O  O2  1  0.94944700  0.36033600  0.21402700  1
  O  O3  1  0.32397200  0.98778100  0.05930700  1
  O  O4  1  0.67389600  0.59048600  0.82471900  1
  O  O5  1  0.97818300  0.21959500  0.91506600  1
  O  O6  1  0.36033600  0.94944700  0.71402700  1
  O  O7  1  0.98778100  0.32397200  0.55930700  1
  O  O8  1  0.01221900  0.67602800  0.44069300  1
  O  O9  1  0.63966400  0.05055300  0.28597300  1
  O  O10  1  0.02181700  0.78040500  0.08493400  1
  O  O11  1  0.32610400  0.40951400  0.17528100  1
  O  O12  1  0.67602800  0.01221900  0.94069300  1
  O  O13  1  0.05055300  0.63966400  0.78597300  1
  O  O14  1  0.78040500  0.02181700  0.58493400  1
  O  O15  1  0.40951400  0.32610400  0.67528100  1
loop_
_geom_bond_atom_site_label_1
_geom_bond_atom_site_label_2
_geom_bond_distance
_geom_bond_site_symmetry_2
Ce0 O2 2.247275 1_555
Ce0 O9 2.247275 1_555
Ce0 O14 2.359132 1_555
Ce0 O5 2.359132 1_554
Ce0 O3 2.374790 1_645
Ce0 O8 2.374790 1_645
Ce0 O1 2.549041 1_645
Ce0 O10 2.549041 1_645
Ce1 O6 2.247275 1_555
Ce1 O13 2.247275 1_555
Ce1 O10 2.359132 1_556
Ce1 O1 2.359132 1_555
Ce1 O7 2.374790 1_465
Ce1 O12 2.374790 1_465
Ce1 O5 2.549041 1_465
Ce1 O14 2.549041 1_465
O0 W0 1.741814 1_555
O1 W0 1.900015 1_555
O2 W2 1.837847 1_655
O3 W3 2.022670 1_564
O3 W0 2.071373 1_555
O4 W1 1.741814 1_555
O5 W1 1.900015 1_555
O6 W3 1.837847 1_565
O7 W2 2.022670 1_655
O7 W1 2.071373 1_555
O8 W1 2.022670 1_455
O8 W2 2.071373 1_555
O9 W0 1.837847 1_545
O10 W2 1.900015 1_555
O11 W2 1.741814 1_555
O12 W0 2.022670 1_546
O12 W3 2.071373 1_555
O13 W1 1.837847 1_455
O14 W3 1.900015 1_555
O15 W3 1.741814 1_555
