# generated using pymatgen
data_LiCu5(PO4)2
_symmetry_space_group_name_H-M   'P 1'
_cell_length_a   5.61406300
_cell_length_b   6.22955571
_cell_length_c   10.36514357
_cell_angle_alpha   89.73170575
_cell_angle_beta   89.76445697
_cell_angle_gamma   88.93076659
_symmetry_Int_Tables_number   1
_chemical_formula_structural   LiCu5(PO4)2
_chemical_formula_sum   'Li2 Cu10 P4 O16'
_cell_volume   362.43136309
_cell_formula_units_Z   2
loop_
 _symmetry_equiv_pos_site_id
 _symmetry_equiv_pos_as_xyz
  1  'x, y, z'
loop_
 _atom_site_type_symbol
 _atom_site_label
 _atom_site_symmetry_multiplicity
 _atom_site_fract_x
 _atom_site_fract_y
 _atom_site_fract_z
 _atom_site_occupancy
  Li  Li0  1  0.85001500  0.99728400  0.25409500  1
  Li  Li1  1  0.67229400  0.74764500  0.50097200  1
  Cu  Cu0  1  0.77548400  0.00748200  0.75511400  1
  Cu  Cu1  1  0.65655400  0.76080700  0.99781900  1
  Cu  Cu2  1  0.33574200  0.74371600  0.74849900  1
  Cu  Cu3  1  0.35277600  0.71315900  0.25532400  1
  Cu  Cu4  1  0.23126700  0.50032000  0.01165800  1
  Cu  Cu5  1  0.23557800  0.49669200  0.51198200  1
  Cu  Cu6  1  0.35194800  0.29503100  0.26408100  1
  Cu  Cu7  1  0.34936500  0.24926300  0.74947900  1
  Cu  Cu8  1  0.64523300  0.25929100  0.50594800  1
  Cu  Cu9  1  0.65370500  0.23862500  0.99931600  1
  P  P0  1  0.16026400  0.00212800  0.00213800  1
  P  P1  1  0.15664000  0.99094300  0.49249300  1
  P  P2  1  0.83184000  0.50517600  0.74535900  1
  P  P3  1  0.82079800  0.50038600  0.25138400  1
  O  O0  1  0.16356000  0.99767200  0.34370900  1
  O  O1  1  0.89685600  0.98248800  0.54357800  1
  O  O2  1  0.15308300  0.00295400  0.85289400  1
  O  O3  1  0.90820700  0.00324900  0.06411000  1
  O  O4  1  0.31248600  0.79542900  0.54278500  1
  O  O5  1  0.30045100  0.79850000  0.05284500  1
  O  O6  1  0.69245600  0.70910500  0.79623700  1
  O  O7  1  0.69744100  0.70716400  0.30869400  1
  O  O8  1  0.82174000  0.50527500  0.10244000  1
  O  O9  1  0.07926900  0.49755800  0.30515100  1
  O  O10  1  0.82453500  0.50397200  0.59623300  1
  O  O11  1  0.08771500  0.50347000  0.79927800  1
  O  O12  1  0.70108600  0.28687300  0.30012000  1
  O  O13  1  0.69740400  0.30641400  0.80105000  1
  O  O14  1  0.28400000  0.19212100  0.54929600  1
  O  O15  1  0.30020700  0.19980700  0.05332800  1
loop_
_geom_bond_atom_site_label_1
_geom_bond_atom_site_label_2
_geom_bond_distance
_geom_bond_site_symmetry_2
Li0 O0 1.993724 1_655
Li0 O3 1.995100 1_565
Li0 O12 2.032138 1_565
Li0 O7 2.089158 1_555
Li1 O10 1.988510 1_555
Li1 O1 2.001035 1_555
Li1 O7 2.014099 1_555
Li1 O4 2.080469 1_555
Cu0 O13 1.965404 1_555
Cu0 O6 1.969064 1_545
Cu0 O1 2.298475 1_545
Cu0 O2 2.353078 1_655
Cu1 O5 2.086034 1_556
Cu1 O8 2.122958 1_556
Cu1 O6 2.123789 1_555
Cu1 O3 2.201472 1_566
Cu2 O6 2.071914 1_555
Cu2 O11 2.126070 1_555
Cu2 O4 2.159079 1_555
Cu2 O2 2.185383 1_565
Cu3 O7 2.014307 1_555
Cu3 O9 2.119508 1_555
Cu3 O5 2.182284 1_555
Cu3 O0 2.246331 1_555
Cu4 O15 1.951339 1_555
Cu4 O5 1.954287 1_555
Cu4 O11 2.347212 1_554
Cu4 O8 2.480347 1_455
Cu5 O4 1.946372 1_555
Cu5 O14 1.948881 1_555
Cu5 O9 2.319760 1_555
Cu5 O10 2.463671 1_455
Cu6 O12 1.996540 1_555
Cu6 O9 2.010980 1_555
Cu6 O15 2.287362 1_555
Cu6 O0 2.298443 1_545
Cu7 O13 2.065574 1_555
Cu7 O14 2.141202 1_555
Cu7 O2 2.180739 1_555
Cu7 O11 2.201487 1_555
Cu8 O10 2.071410 1_555
Cu8 O14 2.124173 1_555
Cu8 O12 2.161591 1_555
Cu8 O1 2.242406 1_545
Cu9 O15 2.077952 1_556
Cu9 O13 2.110300 1_555
Cu9 O3 2.136110 1_556
Cu9 O8 2.207975 1_556
O0 P1 1.542890 1_555
O1 P1 1.551278 1_655
O2 P0 1.547608 1_556
O3 P0 1.551537 1_655
O4 P1 1.574392 1_555
O5 P0 1.569923 1_565
O6 P2 1.571653 1_555
O7 P3 1.569157 1_555
O8 P3 1.543973 1_555
O9 P3 1.556313 1_455
O10 P2 1.546482 1_555
O11 P2 1.543360 1_455
O12 P3 1.581228 1_555
O13 P2 1.568621 1_555
O14 P1 1.572366 1_545
O15 P0 1.568726 1_555
