# generated using pymatgen
data_Li5V3P8O29
_symmetry_space_group_name_H-M   'P 1'
_cell_length_a   9.78232400
_cell_length_b   9.79095389
_cell_length_c   13.87226529
_cell_angle_alpha   89.75321777
_cell_angle_beta   89.84638794
_cell_angle_gamma   60.07344353
_symmetry_Int_Tables_number   1
_chemical_formula_structural   Li5V3P8O29
_chemical_formula_sum   'Li10 V6 P16 O58'
_cell_volume   1151.49454784
_cell_formula_units_Z   2
loop_
 _symmetry_equiv_pos_site_id
 _symmetry_equiv_pos_as_xyz
  1  'x, y, z'
loop_
 _atom_site_type_symbol
 _atom_site_label
 _atom_site_symmetry_multiplicity
 _atom_site_fract_x
 _atom_site_fract_y
 _atom_site_fract_z
 _atom_site_occupancy
  Li  Li0  1  0.91027500  0.31831000  0.56028400  1
  Li  Li1  1  0.32527300  0.77130800  0.56094700  1
  Li  Li2  1  0.66462800  0.66396700  0.88248000  1
  Li  Li3  1  0.31829200  0.90937800  0.05920900  1
  Li  Li4  1  0.91374800  0.77336700  0.06013900  1
  Li  Li5  1  0.76967600  0.90530800  0.56205700  1
  Li  Li6  1  0.09222000  0.22679000  0.93982800  1
  Li  Li7  1  0.67665700  0.09670800  0.93992800  1
  Li  Li8  1  0.67735900  0.22980500  0.43989600  1
  Li  Li9  1  0.09460100  0.67795500  0.44084900  1
  V  V0  1  0.42758600  0.00552500  0.25607100  1
  V  V1  1  0.56576600  0.00211300  0.74706900  1
  V  V2  1  0.99983800  0.43266000  0.74857800  1
  V  V3  1  0.00091200  0.56436900  0.24899500  1
  V  V4  1  0.56914800  0.43342200  0.24362600  1
  V  V5  1  0.42849800  0.56562900  0.75545800  1
  P  P0  1  0.77144000  0.31551300  0.84287700  1
  P  P1  1  0.91017300  0.31812100  0.34219400  1
  P  P2  1  0.32031400  0.76594600  0.34186000  1
  P  P3  1  0.66331800  0.67188500  0.12758800  1
  P  P4  1  0.66517500  0.66635500  0.62614700  1
  P  P5  1  0.31904000  0.91068500  0.84312000  1
  P  P6  1  0.22991000  0.08489900  0.65662700  1
  P  P7  1  0.90912300  0.77097300  0.84351300  1
  P  P8  1  0.08791400  0.22955900  0.15761000  1
  P  P9  1  0.76959100  0.91149400  0.34207500  1
  P  P10  1  0.67949600  0.08824200  0.15849200  1
  P  P11  1  0.33655500  0.33489800  0.37292600  1
  P  P12  1  0.33368900  0.33012700  0.87513600  1
  P  P13  1  0.68054400  0.23465400  0.65661900  1
  P  P14  1  0.08656300  0.68298900  0.65863300  1
  P  P15  1  0.23033300  0.68495100  0.15650900  1
  O  O0  1  0.75888600  0.24279800  0.56562500  1
  O  O1  1  0.74219700  0.33792100  0.33577000  1
  O  O2  1  0.00839200  0.23537600  0.06573900  1
  O  O3  1  0.92008900  0.33505200  0.84127800  1
  O  O4  1  0.62518300  0.48379200  0.82675400  1
  O  O5  1  0.66555100  0.52138400  0.17076200  1
  O  O6  1  0.47841600  0.61466100  0.32296100  1
  O  O7  1  0.24322300  0.76693300  0.07027600  1
  O  O8  1  0.33841400  0.74453100  0.83987900  1
  O  O9  1  0.81595200  0.51284900  0.66763000  1
  O  O10  1  0.90010900  0.47919300  0.32135500  1
  O  O11  1  0.51501800  0.66897400  0.66944400  1
  O  O12  1  0.66252200  0.66994700  0.01917300  1
  O  O13  1  0.66691900  0.66650900  0.51870500  1
  O  O14  1  0.51193300  0.81900900  0.16724800  1
  O  O15  1  0.88730500  0.62604000  0.82444400  1
  O  O16  1  0.81479100  0.67215900  0.16571600  1
  O  O17  1  0.34329400  0.91113000  0.33589500  1
  O  O18  1  0.20754200  0.00549600  0.75386300  1
  O  O19  1  0.24079400  0.99063900  0.57096500  1
  O  O20  1  0.24424300  0.00202800  0.93281300  1
  O  O21  1  0.48573300  0.89056800  0.82495900  1
  O  O22  1  0.67221600  0.81460000  0.66672900  1
  O  O23  1  0.25682800  0.08276500  0.16384300  1
  O  O24  1  0.61847700  0.90273300  0.32359200  1
  O  O25  1  0.91724500  0.74527700  0.34107700  1
  O  O26  1  0.00006400  0.20869600  0.25019500  1
  O  O27  1  0.98982800  0.24340600  0.43407100  1
  O  O28  1  0.99652400  0.75989200  0.56813600  1
  O  O29  1  0.08437700  0.25241800  0.65860100  1
  O  O30  1  0.38332300  0.09254300  0.67612700  1
  O  O31  1  0.74165200  0.92085900  0.83874400  1
  O  O32  1  0.33361800  0.18730200  0.32790900  1
  O  O33  1  0.52162600  0.09407100  0.17768000  1
  O  O34  1  0.75715300  0.00035700  0.06785900  1
  O  O35  1  0.75655700  0.00096600  0.43270800  1
  O  O36  1  0.79322800  0.99866000  0.24983600  1
  O  O37  1  0.66593800  0.08348400  0.65936000  1
  O  O38  1  0.18367500  0.33097400  0.83336700  1
  O  O39  1  0.09678700  0.38154400  0.17670400  1
  O  O40  1  0.48545400  0.18318000  0.83217000  1
  O  O41  1  0.33643200  0.32949800  0.98207100  1
  O  O42  1  0.34162200  0.32896100  0.48022600  1
  O  O43  1  0.48804100  0.32985600  0.32995600  1
  O  O44  1  0.09526700  0.52254500  0.67640300  1
  O  O45  1  0.18519700  0.48657800  0.33306200  1
  O  O46  1  0.65712500  0.25542500  0.16310300  1
  O  O47  1  0.79300300  0.21419400  0.74621300  1
  O  O48  1  0.76104300  0.23067700  0.92829300  1
  O  O49  1  0.52088900  0.38375400  0.67548300  1
  O  O50  1  0.33570200  0.47866500  0.82824300  1
  O  O51  1  0.38188500  0.52341900  0.17628700  1
  O  O52  1  0.08386100  0.66291700  0.15871400  1
  O  O53  1  0.99387100  0.76131800  0.93374600  1
  O  O54  1  0.99784400  0.79089100  0.75057200  1
  O  O55  1  0.25242900  0.66470700  0.65915800  1
  O  O56  1  0.24386200  0.75686800  0.43378200  1
  O  O57  1  0.20522500  0.78887700  0.25311800  1
loop_
_geom_bond_atom_site_label_1
_geom_bond_atom_site_label_2
_geom_bond_distance
_geom_bond_site_symmetry_2
Li0 O27 1.908736 1_555
Li0 O0 1.958748 1_555
Li0 O29 2.021277 1_655
Li0 O9 2.227182 1_555
Li1 O19 1.882835 1_555
Li1 O56 1.971847 1_555
Li1 O55 2.043999 1_555
Li1 O11 2.204736 1_555
Li2 O12 1.897137 1_556
Li2 O4 2.133312 1_555
Li2 O15 2.171895 1_555
Li2 O21 2.177116 1_555
Li3 O7 1.878138 1_555
Li3 O20 1.938937 1_564
Li3 O23 2.085288 1_565
Li3 O14 2.224592 1_555
Li4 O53 1.898594 1_554
Li4 O34 1.975246 1_565
Li4 O52 2.003124 1_655
Li4 O16 2.236302 1_555
Li5 O28 1.950931 1_555
Li5 O35 1.995051 1_565
Li5 O37 2.035112 1_565
Li5 O22 2.152305 1_555
Li6 O2 1.911853 1_556
Li6 O20 1.949239 1_555
Li6 O3 2.011682 1_455
Li6 O38 2.216419 1_555
Li7 O48 1.872390 1_555
Li7 O34 1.977729 1_556
Li7 O31 2.064611 1_545
Li7 O40 2.207678 1_555
Li8 O0 1.950608 1_555
Li8 O35 1.974781 1_555
Li8 O1 2.064255 1_555
Li8 O43 2.215289 1_555
Li9 O56 1.965384 1_555
Li9 O28 1.979173 1_455
Li9 O25 2.055271 1_455
Li9 O45 2.211854 1_555
O0 P13 1.497324 1_555
O1 P1 1.558335 1_555
O1 V4 1.948288 1_555
O2 P8 1.480918 1_555
O3 P0 1.558508 1_555
O3 V2 1.975738 1_555
O4 P0 1.567843 1_555
O4 V5 1.946092 1_555
O5 P3 1.578252 1_555
O5 V4 1.857556 1_555
O6 P2 1.539525 1_555
O6 V4 1.894189 1_555
O7 P15 1.477536 1_555
O8 P5 1.541879 1_555
O8 V5 1.920476 1_555
O9 P4 1.597114 1_555
O9 V2 1.925425 1_555
O10 P1 1.556167 1_555
O10 V3 1.866404 1_655
O11 P4 1.573802 1_555
O11 V5 2.000648 1_555
O12 P3 1.504253 1_555
O13 P4 1.490519 1_555
O14 P3 1.563563 1_555
O14 V0 2.011081 1_565
O15 P7 1.560420 1_555
O15 V2 1.958471 1_555
O16 P3 1.575929 1_555
O16 V3 1.961356 1_655
O17 P2 1.547818 1_555
O17 V0 1.872692 1_565
O18 P5 1.603619 1_545
O18 P6 1.621999 1_555
O19 P6 1.478484 1_565
O20 P5 1.495036 1_545
O21 P5 1.561739 1_555
O21 V1 1.952342 1_565
O22 P4 1.592296 1_555
O22 V1 1.949604 1_565
O23 P8 1.560000 1_555
O23 V0 1.934363 1_555
O24 P9 1.545009 1_555
O24 V0 1.871722 1_565
O25 P9 1.545848 1_555
O25 V3 2.001589 1_655
O26 P8 1.611465 1_555
O26 P1 1.617285 1_455
O27 P1 1.481657 1_555
O28 P14 1.501606 1_655
O29 P6 1.545324 1_555
O29 V2 1.978244 1_455
O30 P6 1.563779 1_555
O30 V1 1.833817 1_555
O31 P7 1.562944 1_555
O31 V1 1.961594 1_565
O32 P11 1.590106 1_555
O32 V0 1.839476 1_555
O33 P10 1.539177 1_555
O33 V0 1.887517 1_555
O34 P10 1.500085 1_555
O35 P9 1.503865 1_545
O36 P9 1.614004 1_555
O36 P10 1.623910 1_565
O37 P13 1.556614 1_555
O37 V1 1.959489 1_555
O38 P12 1.575341 1_555
O38 V2 1.955394 1_455
O39 P8 1.557069 1_555
O39 V3 1.850630 1_555
O40 P12 1.581373 1_555
O40 V1 1.943490 1_555
O41 P12 1.483676 1_555
O42 P11 1.489371 1_555
O43 P11 1.573617 1_555
O43 V4 1.969553 1_555
O44 P14 1.548891 1_555
O44 V2 1.858910 1_455
O45 P11 1.583322 1_555
O45 V3 1.955404 1_555
O46 P10 1.541029 1_555
O46 V4 1.881686 1_555
O47 P13 1.606363 1_555
O47 P0 1.621073 1_555
O48 P0 1.476303 1_555
O49 P13 1.537856 1_555
O49 V5 1.903809 1_555
O50 P12 1.599682 1_555
O50 V5 1.824110 1_555
O51 P15 1.559946 1_555
O51 V4 1.842908 1_555
O52 P15 1.551976 1_555
O52 V3 1.980723 1_555
O53 P7 1.479670 1_555
O54 P14 1.608355 1_655
O54 P7 1.616877 1_555
O55 P14 1.541117 1_555
O55 V5 2.006557 1_555
O56 P2 1.501168 1_555
O57 P2 1.608183 1_555
O57 P15 1.628624 1_555
