# generated using pymatgen
data_Li2Ti(TeO4)3
_symmetry_space_group_name_H-M   'P 1'
_cell_length_a   8.52090700
_cell_length_b   7.07970600
_cell_length_c   7.29606655
_cell_angle_alpha   87.35303227
_cell_angle_beta   90.00000000
_cell_angle_gamma   90.00000000
_symmetry_Int_Tables_number   1
_chemical_formula_structural   Li2Ti(TeO4)3
_chemical_formula_sum   'Li4 Ti2 Te6 O24'
_cell_volume   439.66937542
_cell_formula_units_Z   2
loop_
 _symmetry_equiv_pos_site_id
 _symmetry_equiv_pos_as_xyz
  1  'x, y, z'
loop_
 _atom_site_type_symbol
 _atom_site_label
 _atom_site_symmetry_multiplicity
 _atom_site_fract_x
 _atom_site_fract_y
 _atom_site_fract_z
 _atom_site_occupancy
  Li  Li0  1  0.17673700  0.73447400  0.75674000  1
  Li  Li1  1  0.17673700  0.26552600  0.24326000  1
  Li  Li2  1  0.85045100  0.00000000  0.00000000  1
  Li  Li3  1  0.29859200  0.00000000  0.50000000  1
  Ti  Ti0  1  0.09920300  0.25950000  0.74674600  1
  Ti  Ti1  1  0.09920300  0.74050000  0.25325400  1
  Te  Te0  1  0.60380500  0.75115900  0.75016800  1
  Te  Te1  1  0.91813500  0.50000000  0.00000000  1
  Te  Te2  1  0.60380500  0.24884100  0.24983200  1
  Te  Te3  1  0.40912400  0.00000000  0.00000000  1
  Te  Te4  1  0.41204700  0.50000000  0.50000000  1
  Te  Te5  1  0.91662600  0.00000000  0.50000000  1
  O  O0  1  0.75601900  0.29761400  0.05455300  1
  O  O1  1  0.07170300  0.29436600  0.01276900  1
  O  O2  1  0.43032700  0.26743500  0.06200900  1
  O  O3  1  0.43032700  0.73256500  0.93799100  1
  O  O4  1  0.07170300  0.70563400  0.98723100  1
  O  O5  1  0.75601900  0.70238600  0.94544700  1
  O  O6  1  0.93290000  0.05630000  0.75318100  1
  O  O7  1  0.58507200  0.01645100  0.81018200  1
  O  O8  1  0.93547200  0.54699100  0.25435800  1
  O  O9  1  0.25865500  0.05341000  0.80898400  1
  O  O10  1  0.58011700  0.51341200  0.30794200  1
  O  O11  1  0.25615600  0.54920100  0.31702500  1
  O  O12  1  0.25865500  0.94659000  0.19101600  1
  O  O13  1  0.58507200  0.98354900  0.18981800  1
  O  O14  1  0.25615600  0.45079900  0.68297500  1
  O  O15  1  0.93290000  0.94370000  0.24681900  1
  O  O16  1  0.58011700  0.48658800  0.69205800  1
  O  O17  1  0.93547200  0.45300900  0.74564200  1
  O  O18  1  0.75413800  0.80438100  0.55512400  1
  O  O19  1  0.08505800  0.80955300  0.51484000  1
  O  O20  1  0.43144400  0.77125600  0.55715300  1
  O  O21  1  0.43144400  0.22874400  0.44284700  1
  O  O22  1  0.08505800  0.19044700  0.48516000  1
  O  O23  1  0.75413800  0.19561900  0.44487600  1
loop_
_geom_bond_atom_site_label_1
_geom_bond_atom_site_label_2
_geom_bond_distance
_geom_bond_site_symmetry_2
Li0 O4 1.907620 1_555
Li0 O19 1.980171 1_555
Li0 O14 2.209265 1_555
Li0 O9 2.410489 1_565
Li0 O3 2.533072 1_555
Li0 O20 2.619858 1_555
Li1 O1 1.907620 1_555
Li1 O22 1.980171 1_555
Li1 O11 2.209265 1_555
Li1 O12 2.410489 1_545
Li1 O2 2.533072 1_555
Li1 O21 2.619858 1_555
Li2 O15 1.956795 1_545
Li2 O6 1.956795 1_554
Li2 O0 2.307134 1_555
Li2 O5 2.307134 1_544
Li3 O20 2.003887 1_545
Li3 O21 2.003887 1_555
Li3 O19 2.264237 1_545
Li3 O22 2.264237 1_555
Li3 O12 2.328023 1_545
Li3 O9 2.328023 1_555
O0 Te2 1.945757 1_555
O0 Te1 2.016670 1_555
O1 Te1 1.956492 1_455
O1 Ti0 1.981733 1_554
O2 Te3 1.975161 1_555
O2 Te2 2.015843 1_555
O3 Te3 1.975161 1_566
O3 Te0 2.015843 1_555
O4 Te1 1.956492 1_456
O4 Ti1 1.981733 1_556
O5 Te0 1.945757 1_555
O5 Te1 2.016670 1_556
O6 Te5 1.912681 1_555
O6 Ti0 2.018307 1_655
O7 Te0 1.954677 1_545
O7 Te3 2.040685 1_556
O8 Te1 1.906192 1_555
O8 Ti1 1.955074 1_655
O9 Te3 1.918456 1_556
O9 Ti0 2.029741 1_555
O10 Te2 1.949947 1_555
O10 Te4 2.002802 1_555
O11 Te4 1.903961 1_555
O11 Ti1 1.944508 1_555
O12 Te3 1.918456 1_565
O12 Ti1 2.029741 1_555
O13 Te2 1.954677 1_565
O13 Te3 2.040685 1_565
O14 Te4 1.903961 1_555
O14 Ti0 1.944508 1_555
O15 Te5 1.912681 1_565
O15 Ti1 2.018307 1_655
O16 Te0 1.949947 1_555
O16 Te4 2.002802 1_555
O17 Te1 1.906192 1_556
O17 Ti0 1.955074 1_655
O18 Te0 1.938666 1_555
O18 Te5 1.986276 1_565
O19 Te5 1.968745 1_465
O19 Ti1 1.995561 1_555
O20 Te4 1.990766 1_555
O20 Te0 2.035167 1_555
O21 Te4 1.990766 1_555
O21 Te2 2.035167 1_555
O22 Te5 1.968745 1_455
O22 Ti0 1.995561 1_555
O23 Te2 1.938666 1_555
O23 Te5 1.986276 1_555
