# generated using pymatgen
data_Sn2N2O
_symmetry_space_group_name_H-M   'P 1'
_cell_length_a   8.80493200
_cell_length_b   8.85014867
_cell_length_c   8.87121414
_cell_angle_alpha   109.46533339
_cell_angle_beta   109.42637466
_cell_angle_gamma   109.29260898
_symmetry_Int_Tables_number   1
_chemical_formula_structural   Sn2N2O
_chemical_formula_sum   'Sn16 N16 O8'
_cell_volume   533.65441416
_cell_formula_units_Z   8
loop_
 _symmetry_equiv_pos_site_id
 _symmetry_equiv_pos_as_xyz
  1  'x, y, z'
loop_
 _atom_site_type_symbol
 _atom_site_label
 _atom_site_symmetry_multiplicity
 _atom_site_fract_x
 _atom_site_fract_y
 _atom_site_fract_z
 _atom_site_occupancy
  Sn  Sn0  1  0.99446300  0.49615000  0.00161700  1
  Sn  Sn1  1  0.53960900  0.75521500  0.28802200  1
  Sn  Sn2  1  0.24397600  0.21023400  0.95898400  1
  Sn  Sn3  1  0.24704900  0.71835700  0.47244700  1
  Sn  Sn4  1  0.95697700  0.24301200  0.21397900  1
  Sn  Sn5  1  0.28848700  0.53206000  0.75326100  1
  Sn  Sn6  1  0.99809500  0.99956200  0.49870300  1
  Sn  Sn7  1  0.22245100  0.98176900  0.25638400  1
  Sn  Sn8  1  0.51259000  0.50846400  0.51366100  1
  Sn  Sn9  1  0.73128700  0.47392400  0.26340300  1
  Sn  Sn10  1  0.49995600  0.00212200  0.00018500  1
  Sn  Sn11  1  0.76676800  0.02336600  0.73582700  1
  Sn  Sn12  1  0.03836100  0.75822200  0.78168900  1
  Sn  Sn13  1  0.73817700  0.27792200  0.52755700  1
  Sn  Sn14  1  0.75351000  0.78706600  0.03458200  1
  Sn  Sn15  1  0.46673500  0.25395800  0.71305700  1
  N  N0  1  0.97683200  0.50693100  0.23986700  1
  N  N1  1  0.26532700  0.76030700  0.72933600  1
  N  N2  1  0.51761300  0.75535800  0.52353000  1
  N  N3  1  0.76187800  0.71888900  0.25778600  1
  N  N4  1  0.26890800  0.00365300  0.04121500  1
  N  N5  1  0.00251100  0.03885600  0.26415700  1
  N  N6  1  0.98739800  0.96092100  0.73003600  1
  N  N7  1  0.23248700  0.27486700  0.73845400  1
  N  N8  1  0.46092600  0.23783200  0.45819700  1
  N  N9  1  0.54999100  0.55056800  0.78111400  1
  N  N10  1  0.78262200  0.54639900  0.54637700  1
  N  N11  1  0.72606900  0.99663100  0.95083500  1
  N  N12  1  0.72769100  0.22838900  0.26803700  1
  N  N13  1  0.23767900  0.95905400  0.50054600  1
  N  N14  1  0.75862200  0.03746800  0.48866900  1
  N  N15  1  0.73205400  0.27037300  0.77689100  1
  O  O0  1  0.95744700  0.72150400  0.99107000  1
  O  O1  1  0.49182500  0.76968700  0.04448800  1
  O  O2  1  0.06252400  0.28766300  0.02130500  1
  O  O3  1  0.27057100  0.73068100  0.20588100  1
  O  O4  1  0.45108900  0.44938800  0.22067300  1
  O  O5  1  0.22319600  0.43944000  0.46282000  1
  O  O6  1  0.50818100  0.23747700  0.96268600  1
  O  O7  1  0.04807000  0.49626300  0.78267600  1
loop_
_geom_bond_atom_site_label_1
_geom_bond_atom_site_label_2
_geom_bond_distance
_geom_bond_site_symmetry_2
N0 Sn0 2.143364 1_555
N0 Sn3 2.153796 1_655
N0 Sn9 2.174121 1_555
N0 Sn4 2.210174 1_555
N1 Sn3 2.123644 1_555
N1 Sn5 2.167085 1_555
N1 Sn12 2.192819 1_555
N1 Sn10 2.229510 1_566
N2 Sn8 2.142459 1_555
N2 Sn3 2.157641 1_555
N2 Sn1 2.161018 1_555
N2 Sn11 2.195841 1_565
N3 Sn9 2.114289 1_555
N3 Sn1 2.170914 1_555
N3 Sn14 2.240277 1_555
N3 Sn6 2.270436 1_555
N4 Sn7 2.135840 1_545
N4 Sn10 2.186043 1_555
N4 Sn12 2.187243 1_544
N4 Sn2 2.229459 1_554
N5 Sn4 2.125898 1_455
N5 Sn14 2.167271 1_445
N5 Sn7 2.173105 1_545
N5 Sn6 2.231350 1_445
N6 Sn12 2.138330 1_655
N6 Sn2 2.182798 1_665
N6 Sn11 2.199717 1_565
N6 Sn6 2.216392 1_555
N7 Sn5 2.111272 1_555
N7 Sn2 2.194818 1_555
N7 Sn15 2.207394 1_555
N7 Sn6 2.241228 1_445
N8 Sn7 2.097836 1_545
N8 Sn8 2.128715 1_555
N8 Sn13 2.178723 1_555
N8 Sn15 2.199530 1_555
N9 Sn14 2.086314 1_556
N9 Sn8 2.164862 1_555
N9 Sn5 2.175975 1_555
N9 Sn15 2.273874 1_555
N10 Sn12 2.101947 1_655
N10 Sn8 2.190564 1_555
N10 Sn9 2.213135 1_555
N10 Sn13 2.214591 1_555
N11 Sn11 2.126482 1_565
N11 Sn10 2.187986 1_566
N11 Sn4 2.204243 1_566
N11 Sn14 2.268309 1_556
N12 Sn13 2.158775 1_555
N12 Sn10 2.164021 1_555
N12 Sn9 2.177074 1_555
N12 Sn4 2.198909 1_555
N13 Sn3 2.093472 1_555
N13 Sn7 2.205637 1_555
N13 Sn6 2.249347 1_455
N13 Sn15 2.268654 1_565
N14 Sn13 2.117827 1_555
N14 Sn1 2.167311 1_545
N14 Sn11 2.216272 1_555
N14 Sn6 2.220110 1_545
N15 Sn0 2.129758 1_556
N15 Sn15 2.154100 1_555
N15 Sn11 2.233781 1_555
N15 Sn13 2.252839 1_555
O0 Sn0 2.150881 1_556
O0 Sn14 2.170322 1_556
O0 Sn12 2.278797 1_655
O0 Sn7 2.339224 1_656
O1 Sn1 2.115731 1_555
O1 Sn10 2.202593 1_565
O1 Sn5 2.262055 1_554
O1 Sn14 2.291258 1_555
O2 Sn2 2.094349 1_554
O2 Sn0 2.161017 1_455
O2 Sn4 2.281555 1_455
O2 Sn11 2.511261 1_454
O3 Sn1 2.143848 1_555
O3 Sn0 2.175004 1_455
O3 Sn7 2.324467 1_555
O3 Sn3 2.475815 1_555
O4 Sn2 2.133863 1_554
O4 Sn9 2.290545 1_555
O4 Sn8 2.300698 1_555
O4 Sn1 2.347065 1_555
O5 Sn4 2.167356 1_455
O5 Sn5 2.221892 1_555
O5 Sn8 2.256707 1_555
O5 Sn3 2.376905 1_555
O6 Sn15 2.184352 1_555
O6 Sn10 2.198328 1_556
O6 Sn2 2.245928 1_555
O6 Sn9 2.330629 1_556
O7 Sn0 2.146164 1_456
O7 Sn5 2.151495 1_555
O7 Sn12 2.350797 1_555
O7 Sn13 2.407229 1_455
