# generated using pymatgen
data_V6O7F5
_symmetry_space_group_name_H-M   'P 1'
_cell_length_a   4.72711600
_cell_length_b   5.60508277
_cell_length_c   7.75264176
_cell_angle_alpha   94.40350516
_cell_angle_beta   89.90831361
_cell_angle_gamma   91.43536522
_symmetry_Int_Tables_number   1
_chemical_formula_structural   V6O7F5
_chemical_formula_sum   'V6 O7 F5'
_cell_volume   204.74239542
_cell_formula_units_Z   1
loop_
 _symmetry_equiv_pos_site_id
 _symmetry_equiv_pos_as_xyz
  1  'x, y, z'
loop_
 _atom_site_type_symbol
 _atom_site_label
 _atom_site_symmetry_multiplicity
 _atom_site_fract_x
 _atom_site_fract_y
 _atom_site_fract_z
 _atom_site_occupancy
  V  V0  1  0.48521300  0.84610300  0.32742300  1
  V  V1  1  0.54163800  0.48545300  0.99349800  1
  V  V2  1  0.45451800  0.18849800  0.67814200  1
  V  V3  1  0.01067500  0.31828200  0.32791700  1
  V  V4  1  0.01385600  0.66147100  0.66188300  1
  V  V5  1  0.99096900  0.00359100  0.01461800  1
  O  O0  1  0.19888100  0.37381500  0.56049800  1
  O  O1  1  0.19754200  0.03531500  0.23933200  1
  O  O2  1  0.29177000  0.19610300  0.89623200  1
  O  O3  1  0.31077200  0.88126100  0.57303900  1
  O  O4  1  0.70141800  0.45535200  0.75061500  1
  O  O5  1  0.69497000  0.79545600  0.10281600  1
  O  O6  1  0.80114000  0.29922300  0.10882700  1
  F  F0  1  0.20091300  0.69544800  0.90179800  1
  F  F1  1  0.30497000  0.53191200  0.22361800  1
  F  F2  1  0.69537200  0.13727100  0.44437000  1
  F  F3  1  0.80075800  0.96396700  0.76981600  1
  F  F4  1  0.80462200  0.63147900  0.42555700  1
loop_
_geom_bond_atom_site_label_1
_geom_bond_atom_site_label_2
_geom_bond_distance
_geom_bond_site_symmetry_2
O0 V2 1.892869 1_555
O0 V4 1.963734 1_555
O0 V3 2.011146 1_555
O1 V0 1.904420 1_545
O1 V3 1.915331 1_555
O1 V5 1.992321 1_455
O2 V2 1.854403 1_555
O2 V5 2.024747 1_456
O2 V1 2.076815 1_555
O3 V2 1.954208 1_565
O3 V4 2.000661 1_555
O3 V0 2.071273 1_555
O4 V2 1.923718 1_555
O4 V4 2.005641 1_655
O4 V1 2.024258 1_555
O5 V5 1.955505 1_565
O5 V1 1.993887 1_554
O5 V0 2.007121 1_555
O6 V1 1.898624 1_554
O6 V3 1.962067 1_655
O6 V5 1.992737 1_555
F0 V4 2.054286 1_555
F0 V5 2.141064 1_466
F0 V1 2.170747 1_555
F1 V3 2.021037 1_555
F1 V0 2.045567 1_555
F1 V1 2.106914 1_554
F2 V3 2.031394 1_655
F2 V0 2.041293 1_545
F2 V2 2.143177 1_555
F3 V5 2.095330 1_566
F3 V4 2.110613 1_655
F3 V2 2.238769 1_565
F4 V4 2.076891 1_655
F4 V3 2.117252 1_655
F4 V0 2.130951 1_555
