# generated using pymatgen
data_LiSn(PO3)4
_symmetry_space_group_name_H-M   'P 1'
_cell_length_a   7.75158749
_cell_length_b   7.75158749
_cell_length_c   17.76934800
_cell_angle_alpha   90.00000000
_cell_angle_beta   90.00000000
_cell_angle_gamma   98.95254351
_symmetry_Int_Tables_number   1
_chemical_formula_structural   LiSn(PO3)4
_chemical_formula_sum   'Li4 Sn4 P16 O48'
_cell_volume   1054.70145882
_cell_formula_units_Z   4
loop_
 _symmetry_equiv_pos_site_id
 _symmetry_equiv_pos_as_xyz
  1  'x, y, z'
loop_
 _atom_site_type_symbol
 _atom_site_label
 _atom_site_symmetry_multiplicity
 _atom_site_fract_x
 _atom_site_fract_y
 _atom_site_fract_z
 _atom_site_occupancy
  Li  Li0  1  0.19260200  0.09923600  0.64597300  1
  Li  Li1  1  0.90076400  0.80739800  0.85402700  1
  Li  Li2  1  0.80739800  0.90076400  0.14597300  1
  Li  Li3  1  0.09923600  0.19260200  0.35402700  1
  Sn  Sn0  1  0.57114700  0.97811000  0.86993500  1
  Sn  Sn1  1  0.02189000  0.42885300  0.63006500  1
  Sn  Sn2  1  0.42885300  0.02189000  0.36993500  1
  Sn  Sn3  1  0.97811000  0.57114700  0.13006500  1
  P  P0  1  0.03633600  0.75293800  0.34565500  1
  P  P1  1  0.24706200  0.96366400  0.15434500  1
  P  P2  1  0.30317600  0.78263800  0.01045800  1
  P  P3  1  0.21736200  0.69682400  0.48954200  1
  P  P4  1  0.36169400  0.63830600  0.75000000  1
  P  P5  1  0.27429900  0.32791900  0.19026600  1
  P  P6  1  0.67208100  0.72570100  0.30973400  1
  P  P7  1  0.35085000  0.35085000  0.50000000  1
  P  P8  1  0.64915000  0.64915000  0.00000000  1
  P  P9  1  0.32791900  0.27429900  0.80973400  1
  P  P10  1  0.72570100  0.67208100  0.69026600  1
  P  P11  1  0.63830600  0.36169400  0.25000000  1
  P  P12  1  0.78263800  0.30317600  0.98954200  1
  P  P13  1  0.69682400  0.21736200  0.51045800  1
  P  P14  1  0.75293800  0.03633600  0.65434500  1
  P  P15  1  0.96366400  0.24706200  0.84565500  1
  O  O0  1  0.05684600  0.87758000  0.14604600  1
  O  O1  1  0.12242000  0.94315400  0.35395400  1
  O  O2  1  0.05183000  0.64898700  0.27702400  1
  O  O3  1  0.35101300  0.94817000  0.22297600  1
  O  O4  1  0.12335900  0.67804500  0.01802400  1
  O  O5  1  0.32195500  0.87664100  0.48197600  1
  O  O6  1  0.09876100  0.64423200  0.41642900  1
  O  O7  1  0.35576800  0.90123900  0.08357100  1
  O  O8  1  0.10279700  0.66416500  0.55844900  1
  O  O9  1  0.33583500  0.89720300  0.94155100  1
  O  O10  1  0.38874900  0.80680300  0.79388400  1
  O  O11  1  0.19319700  0.61125100  0.70611600  1
  O  O12  1  0.21937300  0.48000300  0.14784100  1
  O  O13  1  0.51999700  0.78062700  0.35215900  1
  O  O14  1  0.44389200  0.64808500  0.01236400  1
  O  O15  1  0.35191500  0.55610800  0.48763600  1
  O  O16  1  0.75796900  0.83350400  0.63188800  1
  O  O17  1  0.16649600  0.24203100  0.86811200  1
  O  O18  1  0.51463700  0.62544400  0.69061900  1
  O  O19  1  0.37455600  0.48536300  0.80938100  1
  O  O20  1  0.70886400  0.74591000  0.92835000  1
  O  O21  1  0.25409000  0.29113600  0.57165000  1
  O  O22  1  0.71983100  0.79800300  0.23421700  1
  O  O23  1  0.20199700  0.28016900  0.26578300  1
  O  O24  1  0.28016900  0.20199700  0.73421700  1
  O  O25  1  0.79800300  0.71983100  0.76578300  1
  O  O26  1  0.29113600  0.25409000  0.42835000  1
  O  O27  1  0.74591000  0.70886400  0.07165000  1
  O  O28  1  0.62544400  0.51463700  0.30938100  1
  O  O29  1  0.48536300  0.37455600  0.19061900  1
  O  O30  1  0.24203100  0.16649600  0.13188800  1
  O  O31  1  0.83350400  0.75796900  0.36811200  1
  O  O32  1  0.64808500  0.44389200  0.98763600  1
  O  O33  1  0.55610800  0.35191500  0.51236400  1
  O  O34  1  0.78062700  0.51999700  0.64784100  1
  O  O35  1  0.48000300  0.21937300  0.85215900  1
  O  O36  1  0.80680300  0.38874900  0.20611600  1
  O  O37  1  0.61125100  0.19319700  0.29388400  1
  O  O38  1  0.66416500  0.10279700  0.44155100  1
  O  O39  1  0.89720300  0.33583500  0.05844900  1
  O  O40  1  0.64423200  0.09876100  0.58357100  1
  O  O41  1  0.90123900  0.35576800  0.91642900  1
  O  O42  1  0.87664100  0.32195500  0.51802400  1
  O  O43  1  0.67804500  0.12335900  0.98197600  1
  O  O44  1  0.64898700  0.05183000  0.72297600  1
  O  O45  1  0.94817000  0.35101300  0.77702400  1
  O  O46  1  0.94315400  0.12242000  0.64604600  1
  O  O47  1  0.87758000  0.05684600  0.85395400  1
loop_
_geom_bond_atom_site_label_1
_geom_bond_atom_site_label_2
_geom_bond_distance
_geom_bond_site_symmetry_2
Li0 O24 1.840032 1_555
Li0 O46 1.969601 1_455
Li0 O21 1.990836 1_555
Li1 O25 1.840032 1_555
Li1 O47 1.969601 1_565
Li1 O20 1.990836 1_555
Li2 O22 1.840032 1_555
Li2 O0 1.969601 1_655
Li2 O27 1.990836 1_555
Li3 O23 1.840032 1_555
Li3 O1 1.969601 1_545
Li3 O26 1.990836 1_555
O0 P1 1.528031 1_555
O0 Sn3 2.375749 1_455
O1 P0 1.528031 1_555
O1 Sn2 2.375749 1_565
O2 P0 1.476849 1_555
O3 P1 1.476849 1_555
O4 P2 1.505508 1_555
O4 Sn3 2.372256 1_455
O5 P3 1.505508 1_555
O5 Sn2 2.372256 1_565
O6 P3 1.607044 1_555
O6 P0 1.628706 1_555
O7 P2 1.607044 1_555
O7 P1 1.628706 1_555
O8 P3 1.510631 1_555
O8 Sn1 2.232454 1_555
O9 P2 1.510631 1_556
O9 Sn0 2.232454 1_555
O10 P4 1.507564 1_555
O10 Sn0 2.237017 1_555
O11 P4 1.507564 1_555
O11 Sn1 2.237017 1_555
O12 P5 1.515121 1_555
O12 Sn3 2.123135 1_455
O13 P6 1.515121 1_555
O13 Sn2 2.123135 1_565
O14 P8 1.604920 1_555
O14 P2 1.622609 1_555
O15 P7 1.604920 1_555
O15 P3 1.622609 1_555
O16 P10 1.614602 1_555
O16 P14 1.628458 1_565
O17 P9 1.614602 1_555
O17 P15 1.628458 1_455
O18 P4 1.601757 1_555
O18 P10 1.619694 1_555
O19 P4 1.601757 1_555
O19 P9 1.619694 1_555
O20 P8 1.513189 1_556
O20 Sn0 2.460645 1_555
O21 P7 1.513189 1_555
O21 Sn1 2.460645 1_555
O22 P6 1.478922 1_555
O23 P5 1.478922 1_555
O24 P9 1.478922 1_555
O25 P10 1.478922 1_555
O26 P7 1.513189 1_555
O26 Sn2 2.460645 1_555
O27 P8 1.513189 1_555
O27 Sn3 2.460645 1_555
O28 P11 1.601757 1_555
O28 P6 1.619694 1_555
O29 P11 1.601757 1_555
O29 P5 1.619694 1_555
O30 P5 1.614602 1_555
O30 P1 1.628458 1_545
O31 P6 1.614602 1_555
O31 P0 1.628458 1_655
O32 P8 1.604920 1_556
O32 P12 1.622609 1_555
O33 P7 1.604920 1_555
O33 P13 1.622609 1_555
O34 P10 1.515121 1_555
O34 Sn1 2.123135 1_655
O35 P9 1.515121 1_555
O35 Sn0 2.123135 1_545
O36 P11 1.507564 1_555
O36 Sn3 2.237017 1_555
O37 P11 1.507564 1_555
O37 Sn2 2.237017 1_555
O38 P13 1.510631 1_555
O38 Sn2 2.232454 1_555
O39 P12 1.510631 1_554
O39 Sn3 2.232454 1_555
O40 P13 1.607044 1_555
O40 P14 1.628706 1_555
O41 P12 1.607044 1_555
O41 P15 1.628706 1_555
O42 P13 1.505508 1_555
O42 Sn1 2.372256 1_655
O43 P12 1.505508 1_555
O43 Sn0 2.372256 1_545
O44 P14 1.476849 1_555
O45 P15 1.476849 1_555
O46 P14 1.528031 1_555
O46 Sn1 2.375749 1_655
O47 P15 1.528031 1_555
O47 Sn0 2.375749 1_545
