# generated using pymatgen
data_Er2Pt2O7
_symmetry_space_group_name_H-M   'P 1'
_cell_length_a   7.16009396
_cell_length_b   7.16009396
_cell_length_c   7.16009396
_cell_angle_alpha   60.00000000
_cell_angle_beta   60.00000000
_cell_angle_gamma   60.00000000
_symmetry_Int_Tables_number   1
_chemical_formula_structural   Er2Pt2O7
_chemical_formula_sum   'Er4 Pt4 O14'
_cell_volume   259.56203224
_cell_formula_units_Z   2
loop_
 _symmetry_equiv_pos_site_id
 _symmetry_equiv_pos_as_xyz
  1  'x, y, z'
loop_
 _atom_site_type_symbol
 _atom_site_label
 _atom_site_symmetry_multiplicity
 _atom_site_fract_x
 _atom_site_fract_y
 _atom_site_fract_z
 _atom_site_occupancy
  Er  Er0  1  0.62500000  0.62500000  0.12500000  1
  Er  Er1  1  0.62500000  0.62500000  0.62500000  1
  Er  Er2  1  0.62500000  0.12500000  0.62500000  1
  Er  Er3  1  0.12500000  0.62500000  0.62500000  1
  Pt  Pt0  1  0.62500000  0.12500000  0.12500000  1
  Pt  Pt1  1  0.12500000  0.12500000  0.12500000  1
  Pt  Pt2  1  0.12500000  0.62500000  0.12500000  1
  Pt  Pt3  1  0.12500000  0.12500000  0.62500000  1
  O  O0  1  0.03263302  0.46736698  0.46736698  1
  O  O1  1  0.78263302  0.78263302  0.21736698  1
  O  O2  1  0.78263302  0.21736698  0.21736698  1
  O  O3  1  0.75000000  0.75000000  0.75000000  1
  O  O4  1  0.03263302  0.46736698  0.03263302  1
  O  O5  1  0.46736698  0.03263302  0.46736698  1
  O  O6  1  0.03263302  0.03263302  0.46736698  1
  O  O7  1  0.50000000  0.50000000  0.50000000  1
  O  O8  1  0.21736698  0.21736698  0.78263302  1
  O  O9  1  0.21736698  0.78263302  0.21736698  1
  O  O10  1  0.78263302  0.21736698  0.78263302  1
  O  O11  1  0.46736698  0.03263302  0.03263302  1
  O  O12  1  0.46736698  0.46736698  0.03263302  1
  O  O13  1  0.21736698  0.78263302  0.78263302  1
loop_
_geom_bond_atom_site_label_1
_geom_bond_atom_site_label_2
_geom_bond_distance
_geom_bond_site_symmetry_2
Er0 O3 2.192322 1_554
Er0 O7 2.192322 1_555
Er0 O11 2.398325 1_565
Er0 O12 2.398325 1_555
Er0 O1 2.398325 1_555
Er0 O4 2.398325 1_655
Er0 O2 2.398325 1_555
Er0 O9 2.398325 1_555
Er1 O7 2.192322 1_555
Er1 O3 2.192322 1_555
Er1 O12 2.398325 1_556
Er1 O1 2.398325 1_555
Er1 O13 2.398325 1_555
Er1 O10 2.398325 1_555
Er1 O5 2.398325 1_565
Er1 O0 2.398325 1_655
Er2 O7 2.192322 1_555
Er2 O3 2.192322 1_545
Er2 O5 2.398325 1_555
Er2 O2 2.398325 1_555
Er2 O11 2.398325 1_556
Er2 O6 2.398325 1_655
Er2 O10 2.398325 1_555
Er2 O8 2.398325 1_555
Er3 O7 2.192322 1_555
Er3 O3 2.192322 1_455
Er3 O0 2.398325 1_555
Er3 O9 2.398325 1_555
Er3 O6 2.398325 1_565
Er3 O4 2.398325 1_556
Er3 O13 2.398325 1_555
Er3 O8 2.398325 1_555
O0 Pt2 2.019646 1_555
O0 Pt3 2.019646 1_555
O1 Pt2 2.019646 1_655
O1 Pt0 2.019646 1_565
O2 Pt1 2.019646 1_655
O2 Pt0 2.019646 1_555
O4 Pt1 2.019646 1_555
O4 Pt2 2.019646 1_555
O5 Pt3 2.019646 1_555
O5 Pt0 2.019646 1_555
O6 Pt3 2.019646 1_555
O6 Pt1 2.019646 1_555
O8 Pt1 2.019646 1_556
O8 Pt3 2.019646 1_555
O9 Pt2 2.019646 1_555
O9 Pt1 2.019646 1_565
O10 Pt0 2.019646 1_556
O10 Pt3 2.019646 1_655
O11 Pt0 2.019646 1_555
O11 Pt1 2.019646 1_555
O12 Pt2 2.019646 1_555
O12 Pt0 2.019646 1_555
O13 Pt2 2.019646 1_556
O13 Pt3 2.019646 1_565
