# generated using pymatgen
data_Sr3LaMn2(WO6)2
_symmetry_space_group_name_H-M   'P 1'
_cell_length_a   5.81735200
_cell_length_b   5.79494200
_cell_length_c   16.17666734
_cell_angle_alpha   89.70990834
_cell_angle_beta   90.00000000
_cell_angle_gamma   90.00000000
_symmetry_Int_Tables_number   1
_chemical_formula_structural   Sr3LaMn2(WO6)2
_chemical_formula_sum   'Sr6 La2 Mn4 W4 O24'
_cell_volume   545.32816037
_cell_formula_units_Z   2
loop_
 _symmetry_equiv_pos_site_id
 _symmetry_equiv_pos_as_xyz
  1  'x, y, z'
loop_
 _atom_site_type_symbol
 _atom_site_label
 _atom_site_symmetry_multiplicity
 _atom_site_fract_x
 _atom_site_fract_y
 _atom_site_fract_z
 _atom_site_occupancy
  Sr  Sr0  1  0.02265300  0.23312200  0.99948100  1
  Sr  Sr1  1  0.02163800  0.24104900  0.50137300  1
  Sr  Sr2  1  0.47733500  0.74128900  0.75523500  1
  Sr  Sr3  1  0.52265300  0.76687800  0.00051900  1
  Sr  Sr4  1  0.52163800  0.75895100  0.49862700  1
  Sr  Sr5  1  0.97733500  0.25871100  0.24476500  1
  La  La0  1  0.47028900  0.73845500  0.24144700  1
  La  La1  1  0.97028900  0.26154500  0.75855300  1
  Mn  Mn0  1  0.00004500  0.74754800  0.87750800  1
  Mn  Mn1  1  0.99812400  0.75118400  0.37450100  1
  Mn  Mn2  1  0.50004500  0.25245200  0.12249200  1
  Mn  Mn3  1  0.49812400  0.24881600  0.62549900  1
  W  W0  1  0.99875200  0.75299600  0.12491500  1
  W  W1  1  0.00004700  0.75024700  0.62428400  1
  W  W2  1  0.49875200  0.24700400  0.87508500  1
  W  W3  1  0.50004700  0.24975300  0.37571600  1
  O  O0  1  0.98661200  0.67122800  0.50694600  1
  O  O1  1  0.98650900  0.66633300  0.01018700  1
  O  O2  1  0.77910200  0.01840700  0.10694400  1
  O  O3  1  0.78110700  0.99977600  0.60366400  1
  O  O4  1  0.77122600  0.03374200  0.89277700  1
  O  O5  1  0.75718500  0.04093100  0.39809700  1
  O  O6  1  0.72552300  0.54037300  0.15326600  1
  O  O7  1  0.74978300  0.53017300  0.64859700  1
  O  O8  1  0.73219000  0.50399300  0.84780100  1
  O  O9  1  0.71132600  0.50877000  0.35216500  1
  O  O10  1  0.51875100  0.17264300  0.75476100  1
  O  O11  1  0.51180500  0.15829300  0.25932600  1
  O  O12  1  0.48661200  0.32877200  0.49305400  1
  O  O13  1  0.48650900  0.33366700  0.98981300  1
  O  O14  1  0.28110700  0.00022400  0.39633600  1
  O  O15  1  0.27910200  0.98159300  0.89305600  1
  O  O16  1  0.27122600  0.96625800  0.10722300  1
  O  O17  1  0.25718500  0.95906900  0.60190300  1
  O  O18  1  0.24978300  0.46982700  0.35140300  1
  O  O19  1  0.22552300  0.45962700  0.84673400  1
  O  O20  1  0.23219000  0.49600700  0.15219900  1
  O  O21  1  0.21132600  0.49123000  0.64783500  1
  O  O22  1  0.01875100  0.82735700  0.24523900  1
  O  O23  1  0.01180500  0.84170700  0.74067400  1
loop_
_geom_bond_atom_site_label_1
_geom_bond_atom_site_label_2
_geom_bond_distance
_geom_bond_site_symmetry_2
La0 O6 2.360850 1_555
La0 O20 2.448954 1_555
La0 O11 2.463389 1_565
La0 O9 2.630867 1_555
La0 O22 2.677562 1_555
La0 O18 2.684130 1_555
La0 O16 2.787327 1_555
La1 O19 2.360850 1_655
La1 O8 2.448954 1_555
La1 O23 2.463389 1_645
La1 O21 2.630867 1_655
La1 O10 2.677562 1_555
La1 O7 2.684130 1_555
La1 O4 2.787327 1_555
Mn0 O15 2.131089 1_555
Mn0 O4 2.141866 1_465
Mn0 O8 2.158200 1_455
Mn0 O19 2.181879 1_555
Mn0 O1 2.196381 1_456
Mn0 O23 2.278122 1_555
Mn1 O22 2.138294 1_655
Mn1 O0 2.190777 1_555
Mn1 O9 2.211936 1_555
Mn1 O14 2.218712 1_665
Mn1 O5 2.221714 1_565
Mn1 O18 2.224276 1_655
Mn2 O2 2.131089 1_555
Mn2 O16 2.141866 1_545
Mn2 O20 2.158200 1_555
Mn2 O6 2.181879 1_555
Mn2 O13 2.196381 1_554
Mn2 O11 2.278122 1_555
Mn3 O10 2.138294 1_555
Mn3 O12 2.190777 1_555
Mn3 O21 2.211936 1_555
Mn3 O3 2.218712 1_545
Mn3 O17 2.221714 1_545
Mn3 O7 2.224276 1_555
O0 W1 1.956405 1_655
O0 Sr1 2.503255 1_655
O0 Sr4 2.755434 1_555
O0 Sr4 3.156436 1_655
O1 W0 1.926434 1_555
O1 Sr0 2.526040 1_654
O1 Sr3 2.764861 1_555
O2 W0 2.019476 1_545
O2 Sr0 2.560406 1_654
O2 Sr3 2.709158 1_545
O2 Sr5 2.875948 1_555
O3 W1 1.954354 1_655
O3 Sr1 2.574386 1_665
O3 Sr4 2.671532 1_555
O4 W2 2.029310 1_555
O4 Sr0 2.544390 1_655
O4 Sr3 2.737334 1_546
O5 W3 1.956685 1_555
O5 Sr1 2.553878 1_655
O5 Sr4 2.676846 1_545
O5 Sr5 3.058359 1_555
O6 W0 2.061357 1_555
O6 Sr5 2.641282 1_555
O6 Sr3 3.031230 1_555
O7 W1 1.973729 1_655
O7 Sr2 2.646860 1_555
O7 Sr4 3.061383 1_555
O8 W2 2.061580 1_555
O8 Sr2 2.512046 1_555
O9 W3 1.975593 1_555
O9 Sr5 2.745623 1_555
O9 Sr4 2.994621 1_555
O10 W2 1.999088 1_555
O10 Sr2 2.511229 1_545
O11 W3 1.959753 1_555
O11 Sr5 2.779714 1_555
O11 Sr5 3.171726 1_455
O12 W3 1.956405 1_555
O12 Sr4 2.503255 1_555
O12 Sr1 2.755434 1_555
O12 Sr1 3.156436 1_655
O13 W2 1.926434 1_555
O13 Sr3 2.526040 1_556
O13 Sr0 2.764861 1_555
O14 W3 1.954354 1_555
O14 Sr4 2.574386 1_545
O14 Sr1 2.671532 1_555
O15 W2 2.019476 1_565
O15 Sr3 2.560406 1_556
O15 Sr0 2.709158 1_565
O15 Sr2 2.875948 1_555
O16 W0 2.029310 1_455
O16 Sr3 2.544390 1_555
O16 Sr0 2.737334 1_564
O17 W1 1.956685 1_555
O17 Sr4 2.553878 1_555
O17 Sr1 2.676846 1_565
O17 Sr2 3.058359 1_555
O18 W3 1.973729 1_555
O18 Sr5 2.646860 1_455
O18 Sr1 3.061383 1_555
O19 W2 2.061357 1_555
O19 Sr2 2.641282 1_555
O19 Sr0 3.031230 1_555
O20 W0 2.061580 1_455
O20 Sr5 2.512046 1_455
O21 W1 1.975593 1_555
O21 Sr2 2.745623 1_555
O21 Sr1 2.994621 1_555
O22 W0 1.999088 1_455
O22 Sr5 2.511229 1_465
O23 W1 1.959753 1_555
O23 Sr2 2.779714 1_555
O23 Sr2 3.171726 1_455
