# generated using pymatgen
data_Li9TiMn3(PO4)6
_symmetry_space_group_name_H-M   'P 1'
_cell_length_a   8.53923946
_cell_length_b   9.31199714
_cell_length_c   8.68890566
_cell_angle_alpha   117.84014569
_cell_angle_beta   59.62801629
_cell_angle_gamma   116.86311206
_symmetry_Int_Tables_number   1
_chemical_formula_structural   Li9TiMn3(PO4)6
_chemical_formula_sum   'Li9 Ti1 Mn3 P6 O24'
_cell_volume   505.58744453
_cell_formula_units_Z   1
loop_
 _symmetry_equiv_pos_site_id
 _symmetry_equiv_pos_as_xyz
  1  'x, y, z'
loop_
 _atom_site_type_symbol
 _atom_site_label
 _atom_site_symmetry_multiplicity
 _atom_site_fract_x
 _atom_site_fract_y
 _atom_site_fract_z
 _atom_site_occupancy
  Li  Li0  1  0.93707000  0.85960000  0.25646900  1
  Li  Li1  1  0.25968200  0.82522500  0.64214900  1
  Li  Li2  1  0.72051900  0.91362300  0.94956200  1
  Li  Li3  1  0.42222200  0.40163600  0.24396200  1
  Li  Li4  1  0.14329800  0.35225100  0.77136900  1
  Li  Li5  1  0.66954900  0.33676900  0.34950500  1
  Li  Li6  1  0.53689800  0.60200900  0.81701800  1
  Li  Li7  1  0.33942100  0.09879800  0.04442100  1
  Li  Li8  1  0.79565600  0.33467300  0.52526100  1
  Ti  Ti0  1  0.66056100  0.95080600  0.63525400  1
  Mn  Mn0  1  0.13939200  0.42381400  0.14566300  1
  Mn  Mn1  1  0.32511100  0.00631200  0.36300300  1
  Mn  Mn2  1  0.86900800  0.56690100  0.85188100  1
  P  P0  1  0.06662800  0.23649500  0.44049700  1
  P  P1  1  0.55025800  0.74622400  0.24640700  1
  P  P2  1  0.27031500  0.74701600  0.93591300  1
  P  P3  1  0.77083800  0.24572800  0.00914900  1
  P  P4  1  0.45398800  0.23922700  0.73673000  1
  P  P5  1  0.92523200  0.71840000  0.53697300  1
  O  O0  1  0.22487100  0.89288700  0.12661700  1
  O  O1  1  0.24182000  0.58145000  0.96071400  1
  O  O2  1  0.90103500  0.52874600  0.41082400  1
  O  O3  1  0.13582100  0.81964000  0.50423200  1
  O  O4  1  0.17688300  0.24523600  0.23457800  1
  O  O5  1  0.53482200  0.87034200  0.18579900  1
  O  O6  1  0.15021500  0.72577300  0.83685800  1
  O  O7  1  0.39700100  0.57514600  0.21681400  1
  O  O8  1  0.19296400  0.20768300  0.49780000  1
  O  O9  1  0.51821700  0.82032700  0.46157700  1
  O  O10  1  0.75091500  0.72183200  0.13539100  1
  O  O11  1  0.48458700  0.79509400  0.80789000  1
  O  O12  1  0.56446800  0.25294000  0.15027600  1
  O  O13  1  0.25508800  0.26213100  0.84839800  1
  O  O14  1  0.51553400  0.19547500  0.51975400  1
  O  O15  1  0.83935000  0.80025200  0.48793500  1
  O  O16  1  0.60672000  0.40788900  0.78585300  1
  O  O17  1  0.86560700  0.24107100  0.11808300  1
  O  O18  1  0.46080900  0.09606000  0.77953200  1
  O  O19  1  0.81788200  0.72411000  0.74726600  1
  O  O20  1  0.87714700  0.09099500  0.44919200  1
  O  O21  1  0.01913000  0.40506200  0.57018800  1
  O  O22  1  0.88445300  0.39592700  0.93287200  1
  O  O23  1  0.76391500  0.07862100  0.84097100  1
loop_
_geom_bond_atom_site_label_1
_geom_bond_atom_site_label_2
_geom_bond_distance
_geom_bond_site_symmetry_2
Li0 O10 1.966479 1_555
Li0 O15 1.992712 1_555
Li0 O0 2.059887 1_655
Li0 O20 2.113931 1_565
Li1 O6 1.917164 1_555
Li1 O3 1.931631 1_555
Li1 O9 1.964468 1_555
Li1 O18 2.466177 1_565
Li2 O5 1.947807 1_556
Li2 O19 1.961144 1_555
Li2 O23 1.968305 1_565
Li2 O11 2.453919 1_555
Li3 O7 1.853218 1_555
Li3 O12 1.876878 1_555
Li3 O4 1.954795 1_555
Li4 O13 1.989507 1_555
Li4 O8 2.037178 1_555
Li4 O22 2.040348 1_455
Li4 O1 2.113528 1_555
Li5 O17 1.977560 1_555
Li5 O14 1.983893 1_555
Li5 O12 2.021577 1_555
Li5 O2 2.090206 1_555
Li6 O16 2.012446 1_555
Li6 O19 2.030967 1_555
Li6 O11 2.081709 1_555
Li6 O1 2.133214 1_555
Li7 O4 1.950101 1_555
Li7 O18 1.982171 1_554
Li7 O0 2.005265 1_545
Li7 O12 2.158883 1_555
Li8 O21 1.899352 1_655
Li8 O16 2.013150 1_555
Li8 O2 2.090064 1_555
Li8 O14 2.158706 1_555
Li8 O20 2.372996 1_555
Mn0 O7 2.228707 1_555
Mn0 O17 2.238154 1_455
Mn0 O13 2.246306 1_554
Mn0 O1 2.263593 1_554
Mn0 O2 2.314814 1_455
Mn0 O4 2.322895 1_555
Mn1 O3 2.141853 1_545
Mn1 O5 2.149586 1_545
Mn1 O8 2.164682 1_555
Mn1 O0 2.236401 1_545
Mn1 O14 2.238786 1_555
Mn2 O22 2.092253 1_555
Mn2 O6 2.150545 1_655
Mn2 O10 2.156377 1_556
Mn2 O21 2.243456 1_655
Mn2 O16 2.246536 1_555
Mn2 O19 2.319854 1_555
O0 P2 1.570110 1_554
O1 P2 1.549484 1_555
O2 P5 1.566618 1_555
O3 P5 1.550666 1_455
O4 P0 1.567687 1_555
O5 P1 1.551421 1_555
O6 P2 1.543343 1_555
O7 P1 1.546046 1_555
O8 P0 1.553461 1_555
O9 P1 1.579485 1_555
O9 Ti0 2.009639 1_555
O10 P1 1.547163 1_555
O11 P2 1.566003 1_555
O11 Ti0 2.096097 1_555
O12 P3 1.567968 1_555
O13 P4 1.529475 1_555
O14 P4 1.571828 1_555
O15 P5 1.557181 1_555
O15 Ti0 2.053497 1_555
O16 P4 1.560613 1_555
O17 P3 1.548320 1_555
O18 P4 1.572966 1_555
O18 Ti0 2.156285 1_545
O19 P5 1.562492 1_555
O20 P0 1.565330 1_655
O20 Ti0 2.122286 1_545
O21 P0 1.536017 1_555
O22 P3 1.525131 1_556
O23 P3 1.562260 1_556
O23 Ti0 2.012313 1_545
