# generated using pymatgen
data_Fe5O3F7
_symmetry_space_group_name_H-M   'P 1'
_cell_length_a   4.76925895
_cell_length_b   4.78355636
_cell_length_c   15.60001100
_cell_angle_alpha   90.00000000
_cell_angle_beta   90.00000000
_cell_angle_gamma   89.64720597
_symmetry_Int_Tables_number   1
_chemical_formula_structural   Fe5O3F7
_chemical_formula_sum   'Fe10 O6 F14'
_cell_volume   355.89220020
_cell_formula_units_Z   2
loop_
 _symmetry_equiv_pos_site_id
 _symmetry_equiv_pos_as_xyz
  1  'x, y, z'
loop_
 _atom_site_type_symbol
 _atom_site_label
 _atom_site_symmetry_multiplicity
 _atom_site_fract_x
 _atom_site_fract_y
 _atom_site_fract_z
 _atom_site_occupancy
  Fe  Fe0  1  0.96111400  0.95291700  0.00000000  1
  Fe  Fe1  1  0.02828200  0.01848500  0.20459200  1
  Fe  Fe2  1  0.02059700  0.97397600  0.39905600  1
  Fe  Fe3  1  0.02059700  0.97397600  0.60094400  1
  Fe  Fe4  1  0.02828200  0.01848500  0.79540800  1
  Fe  Fe5  1  0.49814500  0.48953600  0.09871700  1
  Fe  Fe6  1  0.48336800  0.52083100  0.50000000  1
  Fe  Fe7  1  0.46628900  0.51136000  0.29163900  1
  Fe  Fe8  1  0.46628900  0.51136000  0.70836100  1
  Fe  Fe9  1  0.49814500  0.48953600  0.90128300  1
  O  O0  1  0.20048400  0.80987500  0.30359000  1
  O  O1  1  0.18364200  0.80886600  0.50000000  1
  O  O2  1  0.20048400  0.80987500  0.69641000  1
  O  O3  1  0.32319700  0.31978200  0.19640200  1
  O  O4  1  0.32319700  0.31978200  0.80359800  1
  O  O5  1  0.67358200  0.65959500  0.00000000  1
  F  F0  1  0.20725000  0.79588600  0.10149000  1
  F  F1  1  0.20725000  0.79588600  0.89851000  1
  F  F2  1  0.28913000  0.28033000  0.00000000  1
  F  F3  1  0.30121300  0.30046300  0.39580600  1
  F  F4  1  0.30121300  0.30046300  0.60419400  1
  F  F5  1  0.70963400  0.70798700  0.19928600  1
  F  F6  1  0.69706000  0.69890200  0.39399800  1
  F  F7  1  0.69706000  0.69890200  0.60600200  1
  F  F8  1  0.70963400  0.70798700  0.80071400  1
  F  F9  1  0.80380200  0.19613500  0.10274000  1
  F  F10  1  0.79794900  0.19851100  0.50000000  1
  F  F11  1  0.79965500  0.21708600  0.30838700  1
  F  F12  1  0.80380200  0.19613500  0.89726000  1
  F  F13  1  0.79965500  0.21708600  0.69161300  1
loop_
_geom_bond_atom_site_label_1
_geom_bond_atom_site_label_2
_geom_bond_distance
_geom_bond_site_symmetry_2
Fe0 O5 1.967981 1_555
Fe1 O0 2.011288 1_545
Fe1 O3 2.024072 1_555
Fe2 O0 1.887294 1_555
Fe2 O1 1.923714 1_555
Fe3 O2 1.887294 1_555
Fe3 O1 1.923714 1_555
Fe4 O2 2.011288 1_545
Fe4 O4 2.024072 1_555
Fe5 O3 1.919933 1_555
Fe5 O5 1.934367 1_555
Fe6 O1 1.979281 1_555
Fe7 O3 1.876316 1_555
Fe7 O0 1.912744 1_555
Fe8 O4 1.876316 1_555
Fe8 O2 1.912744 1_555
Fe9 O4 1.919933 1_555
Fe9 O5 1.934367 1_556
F0 Fe5 2.012239 1_555
F0 Fe0 2.106672 1_455
F0 Fe1 2.106681 1_565
F1 Fe9 2.012239 1_555
F1 Fe0 2.106672 1_456
F1 Fe4 2.106681 1_565
F2 Fe5 2.092617 1_555
F2 Fe9 2.092617 1_554
F2 Fe0 2.220468 1_445
F3 Fe2 2.063628 1_545
F3 Fe7 2.070750 1_555
F3 Fe6 2.125847 1_555
F4 Fe3 2.063628 1_545
F4 Fe8 2.070750 1_555
F4 Fe6 2.125847 1_555
F5 Fe7 2.078630 1_555
F5 Fe1 2.133132 1_665
F5 Fe5 2.140956 1_555
F6 Fe2 2.035581 1_655
F6 Fe6 2.123546 1_555
F6 Fe7 2.139647 1_555
F7 Fe3 2.035581 1_655
F7 Fe6 2.123546 1_555
F7 Fe8 2.139647 1_555
F8 Fe8 2.078630 1_555
F8 Fe4 2.133132 1_665
F8 Fe9 2.140956 1_555
F9 Fe5 2.018319 1_555
F9 Fe1 2.093257 1_655
F9 Fe0 2.115312 1_545
F10 Fe6 2.144697 1_555
F10 Fe3 2.178743 1_645
F10 Fe2 2.178743 1_645
F11 Fe2 2.109098 1_645
F11 Fe7 2.133088 1_555
F11 Fe1 2.168071 1_655
F12 Fe9 2.018319 1_555
F12 Fe4 2.093257 1_655
F12 Fe0 2.115312 1_546
F13 Fe3 2.109098 1_645
F13 Fe8 2.133088 1_555
F13 Fe4 2.168071 1_655
