# generated using pymatgen
data_Li5Nb3OF18
_symmetry_space_group_name_H-M   'P 1'
_cell_length_a   10.03141242
_cell_length_b   10.03141242
_cell_length_c   10.03141242
_cell_angle_alpha   99.74098004
_cell_angle_beta   99.74098004
_cell_angle_gamma   131.42287613
_symmetry_Int_Tables_number   1
_chemical_formula_structural   Li5Nb3OF18
_chemical_formula_sum   'Li10 Nb6 O2 F36'
_cell_volume   689.93570598
_cell_formula_units_Z   2
loop_
 _symmetry_equiv_pos_site_id
 _symmetry_equiv_pos_as_xyz
  1  'x, y, z'
loop_
 _atom_site_type_symbol
 _atom_site_label
 _atom_site_symmetry_multiplicity
 _atom_site_fract_x
 _atom_site_fract_y
 _atom_site_fract_z
 _atom_site_occupancy
  Li  Li0  1  0.23131300  0.90812300  0.15660000  1
  Li  Li1  1  0.73131300  0.57471300  0.32319000  1
  Li  Li2  1  0.40812300  0.73131300  0.15660000  1
  Li  Li3  1  0.90812300  0.75152300  0.67681000  1
  Li  Li4  1  0.86961200  0.36961200  0.50000000  1
  Li  Li5  1  0.36961200  0.86961200  0.50000000  1
  Li  Li6  1  0.07471300  0.23131300  0.32319000  1
  Li  Li7  1  0.57471300  0.25152300  0.84340000  1
  Li  Li8  1  0.25152300  0.40812300  0.67681000  1
  Li  Li9  1  0.75152300  0.07471300  0.84340000  1
  Nb  Nb0  1  0.24536900  0.24536900  0.00000000  1
  Nb  Nb1  1  0.74536900  0.74536900  0.00000000  1
  Nb  Nb2  1  0.81268200  0.31268200  0.16422200  1
  Nb  Nb3  1  0.31268200  0.14846000  0.50000000  1
  Nb  Nb4  1  0.14846000  0.64846000  0.83577800  1
  Nb  Nb5  1  0.64846000  0.81268200  0.50000000  1
  O  O0  1  0.02818200  0.02818200  0.00000000  1
  O  O1  1  0.52818200  0.52818200  0.00000000  1
  F  F0  1  0.43161000  0.26005500  0.12505400  1
  F  F1  1  0.93161000  0.80655700  0.17155600  1
  F  F2  1  0.76240800  0.44244700  0.07977000  1
  F  F3  1  0.26240800  0.18263800  0.31996100  1
  F  F4  1  0.63969900  0.13969900  0.94390300  1
  F  F5  1  0.13969900  0.19579600  0.50000000  1
  F  F6  1  0.58064100  0.08064100  0.17411400  1
  F  F7  1  0.08064100  0.90652700  0.50000000  1
  F  F8  1  0.79043000  0.42884800  0.33796700  1
  F  F9  1  0.29043000  0.95246300  0.36158200  1
  F  F10  1  0.06912400  0.56912400  0.26205300  1
  F  F11  1  0.56912400  0.30707100  0.50000000  1
  F  F12  1  0.94244700  0.26240800  0.07977000  1
  F  F13  1  0.44244700  0.36267700  0.68003900  1
  F  F14  1  0.26005500  0.13500100  0.82844400  1
  F  F15  1  0.76005500  0.93161000  0.12505400  1
  F  F16  1  0.92884800  0.29043000  0.33796700  1
  F  F17  1  0.42884800  0.09088100  0.63841800  1
  F  F18  1  0.95246300  0.59088100  0.66203300  1
  F  F19  1  0.45246300  0.79043000  0.36158200  1
  F  F20  1  0.80655700  0.63500100  0.87494600  1
  F  F21  1  0.30655700  0.43161000  0.17155600  1
  F  F22  1  0.68263800  0.76240800  0.31996100  1
  F  F23  1  0.18263800  0.86267700  0.92023000  1
  F  F24  1  0.30707100  0.80707100  0.73794700  1
  F  F25  1  0.80707100  0.06912400  0.50000000  1
  F  F26  1  0.59088100  0.92884800  0.63841800  1
  F  F27  1  0.09088100  0.45246300  0.66203300  1
  F  F28  1  0.90652700  0.40652700  0.82588600  1
  F  F29  1  0.40652700  0.58064100  0.50000000  1
  F  F30  1  0.19579600  0.69579600  0.05609700  1
  F  F31  1  0.69579600  0.63969900  0.50000000  1
  F  F32  1  0.36267700  0.68263800  0.92023000  1
  F  F33  1  0.86267700  0.94244700  0.68003900  1
  F  F34  1  0.63500100  0.76005500  0.82844400  1
  F  F35  1  0.13500100  0.30655700  0.87494600  1
loop_
_geom_bond_atom_site_label_1
_geom_bond_atom_site_label_2
_geom_bond_distance
_geom_bond_site_symmetry_2
Nb0 O0 1.792334 1_555
Nb0 O1 2.333911 1_555
Nb1 O1 1.792334 1_555
Nb1 O0 2.333911 1_665
F0 Nb0 1.966211 1_555
F0 Li1 2.500082 1_555
F1 Nb1 1.966213 1_555
F1 Li0 2.500089 1_655
F2 Nb2 1.940052 1_555
F2 Li7 2.239726 1_554
F3 Nb3 1.940052 1_555
F3 Li6 2.239726 1_555
F4 Li7 1.956445 1_555
F4 Li9 1.956445 1_555
F4 Nb2 2.080129 1_556
F5 Li6 1.956445 1_555
F5 Li8 1.956445 1_555
F5 Nb3 2.080129 1_555
F6 Nb2 1.957823 1_555
F7 Nb3 1.957823 1_565
F8 Li1 1.925243 1_555
F8 Li4 2.034825 1_555
F8 Nb2 2.057685 1_555
F9 Li0 1.925243 1_555
F9 Li5 2.034825 1_555
F9 Nb3 2.057685 1_565
F10 Nb2 1.932147 1_455
F11 Nb3 1.932147 1_555
F12 Nb2 1.940052 1_555
F12 Li9 2.239726 1_554
F13 Nb3 1.940052 1_555
F13 Li8 2.239726 1_555
F14 Nb0 1.966218 1_556
F14 Li7 2.500080 1_555
F15 Nb1 1.966211 1_555
F15 Li6 2.500082 1_665
F16 Li6 1.925243 1_655
F16 Li4 2.034825 1_555
F16 Nb2 2.057685 1_555
F17 Li7 1.925243 1_555
F17 Li5 2.034825 1_545
F17 Nb3 2.057685 1_555
F18 Li3 1.925243 1_555
F18 Li4 2.034825 1_555
F18 Nb4 2.057685 1_655
F19 Li2 1.925243 1_555
F19 Li5 2.034825 1_555
F19 Nb5 2.057685 1_555
F20 Nb1 1.966218 1_556
F20 Li3 2.500080 1_555
F21 Nb0 1.966213 1_555
F21 Li2 2.500089 1_555
F22 Nb5 1.940052 1_555
F22 Li1 2.239726 1_555
F23 Nb4 1.940052 1_555
F23 Li0 2.239726 1_556
F24 Nb4 1.932147 1_555
F25 Nb5 1.932147 1_545
F26 Li9 1.925243 1_565
F26 Li5 2.034825 1_555
F26 Nb5 2.057685 1_555
F27 Li8 1.925243 1_555
F27 Li4 2.034825 1_455
F27 Nb4 2.057685 1_555
F28 Nb4 1.957823 1_655
F29 Nb5 1.957823 1_555
F30 Li0 1.956445 1_555
F30 Li2 1.956445 1_555
F30 Nb4 2.080129 1_554
F31 Li1 1.956445 1_555
F31 Li3 1.956445 1_555
F31 Nb5 2.080129 1_555
F32 Nb4 1.940052 1_555
F32 Li2 2.239726 1_556
F33 Nb5 1.940052 1_555
F33 Li3 2.239726 1_555
F34 Nb1 1.966218 1_556
F34 Li9 2.500080 1_565
F35 Nb0 1.966218 1_556
F35 Li8 2.500080 1_555
