# generated using pymatgen
data_Mn3OF5
_symmetry_space_group_name_H-M   'P 1'
_cell_length_a   4.89940206
_cell_length_b   4.89940206
_cell_length_c   9.76558700
_cell_angle_alpha   90.00000000
_cell_angle_beta   90.00000000
_cell_angle_gamma   92.45483961
_symmetry_Int_Tables_number   1
_chemical_formula_structural   Mn3OF5
_chemical_formula_sum   'Mn6 O2 F10'
_cell_volume   234.19939847
_cell_formula_units_Z   2
loop_
 _symmetry_equiv_pos_site_id
 _symmetry_equiv_pos_as_xyz
  1  'x, y, z'
loop_
 _atom_site_type_symbol
 _atom_site_label
 _atom_site_symmetry_multiplicity
 _atom_site_fract_x
 _atom_site_fract_y
 _atom_site_fract_z
 _atom_site_occupancy
  Mn  Mn0  1  0.01232900  0.01232900  0.82277400  1
  Mn  Mn1  1  0.01724700  0.01724700  0.50000000  1
  Mn  Mn2  1  0.01232900  0.01232900  0.17722600  1
  Mn  Mn3  1  0.51028800  0.51028800  0.00000000  1
  Mn  Mn4  1  0.48169300  0.48169300  0.66290900  1
  Mn  Mn5  1  0.48169300  0.48169300  0.33709100  1
  O  O0  1  0.18951300  0.18951300  0.65578900  1
  O  O1  1  0.18951300  0.18951300  0.34421100  1
  F  F0  1  0.19991200  0.19991200  0.00000000  1
  F  F1  1  0.69514800  0.30522600  0.83064500  1
  F  F2  1  0.69115600  0.29927300  0.50000000  1
  F  F3  1  0.69514800  0.30522600  0.16935500  1
  F  F4  1  0.30522600  0.69514800  0.83064500  1
  F  F5  1  0.29927300  0.69115600  0.50000000  1
  F  F6  1  0.30522600  0.69514800  0.16935500  1
  F  F7  1  0.79686600  0.79686600  0.65293200  1
  F  F8  1  0.79686600  0.79686600  0.34706800  1
  F  F9  1  0.82057600  0.82057600  0.00000000  1
loop_
_geom_bond_atom_site_label_1
_geom_bond_atom_site_label_2
_geom_bond_distance
_geom_bond_site_symmetry_2
Mn0 O0 2.025297 1_555
Mn1 O0 1.917869 1_555
Mn1 O1 1.917869 1_555
Mn2 O1 2.025297 1_555
Mn4 O0 1.981847 1_555
Mn5 O1 1.981847 1_555
F0 Mn3 2.103974 1_555
F0 Mn2 2.147628 1_555
F0 Mn0 2.147628 1_554
F1 Mn4 2.145189 1_555
F1 Mn3 2.154729 1_556
F1 Mn0 2.161280 1_655
F2 Mn4 2.112227 1_555
F2 Mn5 2.112227 1_555
F2 Mn1 2.156584 1_655
F3 Mn5 2.145189 1_555
F3 Mn3 2.154729 1_555
F3 Mn2 2.161280 1_655
F4 Mn4 2.145189 1_555
F4 Mn3 2.154729 1_556
F4 Mn0 2.161280 1_565
F5 Mn4 2.112227 1_555
F5 Mn5 2.112227 1_555
F5 Mn1 2.156584 1_565
F6 Mn5 2.145189 1_555
F6 Mn3 2.154729 1_555
F6 Mn2 2.161280 1_565
F7 Mn1 2.112402 1_665
F7 Mn4 2.138712 1_555
F7 Mn0 2.210038 1_665
F8 Mn1 2.112402 1_665
F8 Mn5 2.138712 1_555
F8 Mn2 2.210038 1_665
F9 Mn3 2.103377 1_555
F9 Mn0 2.164485 1_664
F9 Mn2 2.164485 1_665
