# generated using pymatgen
data_ZnH12N3Cl5
_symmetry_space_group_name_H-M   'P 1'
_cell_length_a   8.84860200
_cell_length_b   9.97809500
_cell_length_c   12.59119400
_cell_angle_alpha   90.00000000
_cell_angle_beta   90.00000000
_cell_angle_gamma   90.00000000
_symmetry_Int_Tables_number   1
_chemical_formula_structural   ZnH12N3Cl5
_chemical_formula_sum   'Zn4 H48 N12 Cl20'
_cell_volume   1111.70411026
_cell_formula_units_Z   4
loop_
 _symmetry_equiv_pos_site_id
 _symmetry_equiv_pos_as_xyz
  1  'x, y, z'
loop_
 _atom_site_type_symbol
 _atom_site_label
 _atom_site_symmetry_multiplicity
 _atom_site_fract_x
 _atom_site_fract_y
 _atom_site_fract_z
 _atom_site_occupancy
  Zn  Zn0  1  0.81504600  0.25000000  0.39360100  1
  Zn  Zn1  1  0.31504600  0.25000000  0.10639900  1
  Zn  Zn2  1  0.18495400  0.75000000  0.60639900  1
  Zn  Zn3  1  0.68495400  0.75000000  0.89360100  1
  H  H0  1  0.00361300  0.25000000  0.89330300  1
  H  H1  1  0.50361300  0.25000000  0.60669700  1
  H  H2  1  0.99638700  0.75000000  0.10669700  1
  H  H3  1  0.49638700  0.75000000  0.39330300  1
  H  H4  1  0.81428000  0.25000000  0.91822500  1
  H  H5  1  0.31428000  0.25000000  0.58177500  1
  H  H6  1  0.18572000  0.75000000  0.08177500  1
  H  H7  1  0.68572000  0.75000000  0.41822500  1
  H  H8  1  0.93411000  0.16584000  0.99877200  1
  H  H9  1  0.43411000  0.33416000  0.50122800  1
  H  H10  1  0.06589000  0.66584000  0.00122800  1
  H  H11  1  0.56589000  0.83416000  0.49877200  1
  H  H12  1  0.06589000  0.83416000  0.00122800  1
  H  H13  1  0.56589000  0.66584000  0.49877200  1
  H  H14  1  0.93411000  0.33416000  0.99877200  1
  H  H15  1  0.43411000  0.16584000  0.50122800  1
  H  H16  1  0.00533800  0.07629400  0.66401000  1
  H  H17  1  0.50533800  0.42370600  0.83599000  1
  H  H18  1  0.99466200  0.57629400  0.33599000  1
  H  H19  1  0.49466200  0.92370600  0.16401000  1
  H  H20  1  0.99466200  0.92370600  0.33599000  1
  H  H21  1  0.49466200  0.57629400  0.16401000  1
  H  H22  1  0.00533800  0.42370600  0.66401000  1
  H  H23  1  0.50533800  0.07629400  0.83599000  1
  H  H24  1  0.89115200  0.96229200  0.60548200  1
  H  H25  1  0.39115200  0.53770800  0.89451800  1
  H  H26  1  0.10884800  0.46229200  0.39451800  1
  H  H27  1  0.60884800  0.03770800  0.10548200  1
  H  H28  1  0.10884800  0.03770800  0.39451800  1
  H  H29  1  0.60884800  0.46229200  0.10548200  1
  H  H30  1  0.89115200  0.53770800  0.60548200  1
  H  H31  1  0.39115200  0.96229200  0.89451800  1
  H  H32  1  0.81803700  0.08382000  0.68696100  1
  H  H33  1  0.31803700  0.41618000  0.81303900  1
  H  H34  1  0.18196300  0.58382000  0.31303900  1
  H  H35  1  0.68196300  0.91618000  0.18696100  1
  H  H36  1  0.18196300  0.91618000  0.31303900  1
  H  H37  1  0.68196300  0.58382000  0.18696100  1
  H  H38  1  0.81803700  0.41618000  0.68696100  1
  H  H39  1  0.31803700  0.08382000  0.81303900  1
  H  H40  1  0.92122700  0.95531200  0.73715500  1
  H  H41  1  0.42122700  0.54468800  0.76284500  1
  H  H42  1  0.07877300  0.45531200  0.26284500  1
  H  H43  1  0.57877300  0.04468800  0.23715500  1
  H  H44  1  0.07877300  0.04468800  0.26284500  1
  H  H45  1  0.57877300  0.45531200  0.23715500  1
  H  H46  1  0.92122700  0.54468800  0.73715500  1
  H  H47  1  0.42122700  0.95531200  0.76284500  1
  N  N0  1  0.92042700  0.25000000  0.95232600  1
  N  N1  1  0.42042700  0.25000000  0.54767400  1
  N  N2  1  0.07957300  0.75000000  0.04767400  1
  N  N3  1  0.57957300  0.75000000  0.45232600  1
  N  N4  1  0.90871500  0.01883200  0.67309400  1
  N  N5  1  0.40871500  0.48116800  0.82690600  1
  N  N6  1  0.09128500  0.51883200  0.32690600  1
  N  N7  1  0.59128500  0.98116800  0.17309400  1
  N  N8  1  0.09128500  0.98116800  0.32690600  1
  N  N9  1  0.59128500  0.51883200  0.17309400  1
  N  N10  1  0.90871500  0.48116800  0.67309400  1
  N  N11  1  0.40871500  0.01883200  0.82690600  1
  Cl  Cl0  1  0.87320400  0.25000000  0.21807500  1
  Cl  Cl1  1  0.37320400  0.25000000  0.28192500  1
  Cl  Cl2  1  0.12679600  0.75000000  0.78192500  1
  Cl  Cl3  1  0.62679600  0.75000000  0.71807500  1
  Cl  Cl4  1  0.03928300  0.25000000  0.48852500  1
  Cl  Cl5  1  0.53928300  0.25000000  0.01147500  1
  Cl  Cl6  1  0.96071700  0.75000000  0.51147500  1
  Cl  Cl7  1  0.46071700  0.75000000  0.98852500  1
  Cl  Cl8  1  0.66713400  0.25000000  0.73615900  1
  Cl  Cl9  1  0.16713400  0.25000000  0.76384100  1
  Cl  Cl10  1  0.33286600  0.75000000  0.26384100  1
  Cl  Cl11  1  0.83286600  0.75000000  0.23615900  1
  Cl  Cl12  1  0.69092300  0.05711400  0.43620500  1
  Cl  Cl13  1  0.19092300  0.44288600  0.06379500  1
  Cl  Cl14  1  0.30907700  0.55711400  0.56379500  1
  Cl  Cl15  1  0.80907700  0.94288600  0.93620500  1
  Cl  Cl16  1  0.30907700  0.94288600  0.56379500  1
  Cl  Cl17  1  0.80907700  0.55711400  0.93620500  1
  Cl  Cl18  1  0.69092300  0.44288600  0.43620500  1
  Cl  Cl19  1  0.19092300  0.05711400  0.06379500  1
loop_
_geom_bond_atom_site_label_1
_geom_bond_atom_site_label_2
_geom_bond_distance
_geom_bond_site_symmetry_2
H0 N0 1.046000 1_455
H1 N1 1.046000 1_555
H2 N2 1.046000 1_655
H3 N3 1.046000 1_555
H4 N0 1.032742 1_555
H5 N1 1.032742 1_555
H6 N2 1.032742 1_555
H7 N3 1.032742 1_555
H8 N0 1.030463 1_555
H9 N1 1.030463 1_555
H10 N2 1.030463 1_555
H11 N3 1.030463 1_555
H12 N2 1.030463 1_555
H13 N3 1.030463 1_555
H14 N0 1.030463 1_555
H15 N1 1.030463 1_555
H16 N4 1.035767 1_455
H17 N5 1.035767 1_555
H18 N6 1.035767 1_655
H19 N7 1.035767 1_555
H20 N8 1.035767 1_655
H21 N9 1.035767 1_555
H22 N10 1.035767 1_455
H23 N11 1.035767 1_555
H24 N4 1.033038 1_565
H25 N5 1.033038 1_555
H26 N6 1.033038 1_555
H27 N7 1.033038 1_545
H28 N8 1.033038 1_545
H29 N9 1.033038 1_555
H30 N10 1.033038 1_555
H31 N11 1.033038 1_565
H32 N4 1.046320 1_555
H33 N5 1.046320 1_555
H34 N6 1.046320 1_555
H35 N7 1.046320 1_555
H36 N8 1.046320 1_555
H37 N9 1.046320 1_555
H38 N10 1.046320 1_555
H39 N11 1.046320 1_555
H40 N4 1.031786 1_565
H41 N5 1.031786 1_555
H42 N6 1.031786 1_555
H43 N7 1.031786 1_545
H44 N8 1.031786 1_545
H45 N9 1.031786 1_555
H46 N10 1.031786 1_555
H47 N11 1.031786 1_565
Cl0 Zn0 2.269205 1_555
Cl1 Zn1 2.269205 1_555
Cl2 Zn2 2.269205 1_555
Cl3 Zn3 2.269205 1_555
Cl4 Zn0 2.316356 1_455
Cl5 Zn1 2.316356 1_555
Cl6 Zn2 2.316356 1_655
Cl7 Zn3 2.316356 1_555
Cl12 Zn0 2.279973 1_555
Cl13 Zn1 2.279973 1_555
Cl14 Zn2 2.279973 1_555
Cl15 Zn3 2.279973 1_555
Cl16 Zn2 2.279973 1_555
Cl17 Zn3 2.279973 1_555
Cl18 Zn0 2.279973 1_555
Cl19 Zn1 2.279973 1_555
