# generated using pymatgen
data_Bi3O2F5
_symmetry_space_group_name_H-M   'P 1'
_cell_length_a   5.57034581
_cell_length_b   5.92956554
_cell_length_c   17.54519788
_cell_angle_alpha   90.00000000
_cell_angle_beta   90.00000000
_cell_angle_gamma   90.00000000
_symmetry_Int_Tables_number   1
_chemical_formula_structural   Bi3O2F5
_chemical_formula_sum   'Bi12 O8 F20'
_cell_volume   579.51315861
_cell_formula_units_Z   4
loop_
 _symmetry_equiv_pos_site_id
 _symmetry_equiv_pos_as_xyz
  1  'x, y, z'
loop_
 _atom_site_type_symbol
 _atom_site_label
 _atom_site_symmetry_multiplicity
 _atom_site_fract_x
 _atom_site_fract_y
 _atom_site_fract_z
 _atom_site_occupancy
  Bi  Bi0  1  0.20011607  0.53487598  0.59813487  1
  Bi  Bi1  1  0.20011607  0.53487598  0.90186513  1
  Bi  Bi2  1  0.25939289  0.96152242  0.75000000  1
  Bi  Bi3  1  0.24060711  0.46152242  0.25000000  1
  Bi  Bi4  1  0.29988393  0.03487598  0.09813487  1
  Bi  Bi5  1  0.29988393  0.03487598  0.40186513  1
  Bi  Bi6  1  0.70011607  0.96512402  0.90186513  1
  Bi  Bi7  1  0.70011607  0.96512402  0.59813487  1
  Bi  Bi8  1  0.75939289  0.53847758  0.75000000  1
  Bi  Bi9  1  0.74060711  0.03847758  0.25000000  1
  Bi  Bi10  1  0.79988393  0.46512402  0.40186513  1
  Bi  Bi11  1  0.79988393  0.46512402  0.09813487  1
  O  O0  1  0.01590995  0.23162518  0.17012060  1
  O  O1  1  0.01590995  0.23162518  0.32987940  1
  O  O2  1  0.48409005  0.73162518  0.82987940  1
  O  O3  1  0.48409005  0.73162518  0.67012060  1
  O  O4  1  0.51590995  0.26837482  0.17012060  1
  O  O5  1  0.51590995  0.26837482  0.32987940  1
  O  O6  1  0.98409005  0.76837482  0.67012060  1
  O  O7  1  0.98409005  0.76837482  0.82987940  1
  F  F0  1  0.17619672  0.40927438  0.75000000  1
  F  F1  1  0.07376151  0.28185020  0.01833391  1
  F  F2  1  0.07376151  0.28185020  0.48166609  1
  F  F3  1  0.15548481  0.65394944  0.12691197  1
  F  F4  1  0.15548481  0.65394944  0.37308803  1
  F  F5  1  0.34451519  0.15394944  0.87308803  1
  F  F6  1  0.34451519  0.15394944  0.62691197  1
  F  F7  1  0.42623849  0.78185020  0.51833391  1
  F  F8  1  0.42623849  0.78185020  0.98166609  1
  F  F9  1  0.32380328  0.90927438  0.25000000  1
  F  F10  1  0.67619672  0.09072562  0.75000000  1
  F  F11  1  0.57376151  0.21814980  0.01833391  1
  F  F12  1  0.57376151  0.21814980  0.48166609  1
  F  F13  1  0.65548481  0.84605056  0.37308803  1
  F  F14  1  0.65548481  0.84605056  0.12691197  1
  F  F15  1  0.84451519  0.34605056  0.62691197  1
  F  F16  1  0.84451519  0.34605056  0.87308803  1
  F  F17  1  0.92623849  0.71814980  0.98166609  1
  F  F18  1  0.92623849  0.71814980  0.51833391  1
  F  F19  1  0.82380328  0.59072562  0.25000000  1
loop_
_geom_bond_atom_site_label_1
_geom_bond_atom_site_label_2
_geom_bond_distance
_geom_bond_site_symmetry_2
Bi0 O6 2.227145 1_455
Bi0 F15 2.330707 1_455
Bi0 O3 2.336326 1_555
Bi0 F18 2.338540 1_455
Bi0 F7 2.385687 1_555
Bi0 F6 2.450258 1_555
Bi0 F2 2.630998 1_555
Bi0 F0 2.769838 1_555
Bi1 O7 2.227145 1_455
Bi1 F16 2.330707 1_455
Bi1 O2 2.336326 1_555
Bi1 F17 2.338540 1_455
Bi1 F8 2.385687 1_555
Bi1 F5 2.450258 1_555
Bi1 F1 2.630998 1_556
Bi1 F0 2.769838 1_555
Bi2 O2 2.321443 1_555
Bi2 O3 2.321443 1_555
Bi2 O7 2.372255 1_455
Bi2 O6 2.372255 1_455
Bi2 F10 2.444877 1_565
Bi2 F5 2.488095 1_565
Bi2 F6 2.488095 1_565
Bi2 F0 2.695118 1_565
Bi3 O1 2.321443 1_555
Bi3 O0 2.321443 1_555
Bi3 O5 2.372255 1_555
Bi3 O4 2.372255 1_555
Bi3 F19 2.444877 1_455
Bi3 F3 2.488095 1_555
Bi3 F4 2.488095 1_555
Bi3 F9 2.695118 1_555
Bi4 O4 2.227145 1_555
Bi4 F14 2.330707 1_545
Bi4 O0 2.336326 1_555
Bi4 F11 2.338540 1_555
Bi4 F1 2.385687 1_555
Bi4 F3 2.450258 1_545
Bi4 F8 2.630998 1_544
Bi4 F9 2.769838 1_545
Bi5 O5 2.227145 1_555
Bi5 F13 2.330707 1_545
Bi5 O1 2.336326 1_555
Bi5 F12 2.338540 1_555
Bi5 F2 2.385687 1_555
Bi5 F4 2.450258 1_545
Bi5 F7 2.630998 1_545
Bi5 F9 2.769838 1_545
Bi6 O2 2.227145 1_555
Bi6 F5 2.330707 1_565
Bi6 O7 2.336326 1_555
Bi6 F8 2.338540 1_555
Bi6 F17 2.385687 1_555
Bi6 F16 2.450258 1_565
Bi6 F11 2.630998 1_566
Bi6 F10 2.769838 1_565
Bi7 O3 2.227145 1_555
Bi7 F6 2.330707 1_565
Bi7 O6 2.336326 1_555
Bi7 F7 2.338540 1_555
Bi7 F18 2.385687 1_555
Bi7 F15 2.450258 1_565
Bi7 F12 2.630998 1_565
Bi7 F10 2.769838 1_565
Bi8 O7 2.321443 1_555
Bi8 O6 2.321443 1_555
Bi8 O2 2.372255 1_555
Bi8 O3 2.372255 1_555
Bi8 F0 2.444877 1_655
Bi8 F15 2.488095 1_555
Bi8 F16 2.488095 1_555
Bi8 F10 2.695118 1_555
Bi9 O5 2.321443 1_555
Bi9 O4 2.321443 1_555
Bi9 O1 2.372255 1_655
Bi9 O0 2.372255 1_655
Bi9 F9 2.444877 1_545
Bi9 F14 2.488095 1_545
Bi9 F13 2.488095 1_545
Bi9 F19 2.695118 1_545
Bi10 O1 2.227145 1_655
Bi10 F4 2.330707 1_655
Bi10 O5 2.336326 1_555
Bi10 F2 2.338540 1_655
Bi10 F12 2.385687 1_555
Bi10 F13 2.450258 1_555
Bi10 F18 2.630998 1_555
Bi10 F19 2.769838 1_555
Bi11 O0 2.227145 1_655
Bi11 F3 2.330707 1_655
Bi11 O4 2.336326 1_555
Bi11 F1 2.338540 1_655
Bi11 F11 2.385687 1_555
Bi11 F14 2.450258 1_555
Bi11 F17 2.630998 1_554
Bi11 F19 2.769838 1_555
