# generated using pymatgen
data_VFe5(PO4)6
_symmetry_space_group_name_H-M   'P 1'
_cell_length_a   8.45949172
_cell_length_b   8.45949172
_cell_length_c   8.45949138
_cell_angle_alpha   61.31733475
_cell_angle_beta   61.31733475
_cell_angle_gamma   61.31733263
_symmetry_Int_Tables_number   1
_chemical_formula_structural   VFe5(PO4)6
_chemical_formula_sum   'V1 Fe5 P6 O24'
_cell_volume   440.74751824
_cell_formula_units_Z   1
loop_
 _symmetry_equiv_pos_site_id
 _symmetry_equiv_pos_as_xyz
  1  'x, y, z'
loop_
 _atom_site_type_symbol
 _atom_site_label
 _atom_site_symmetry_multiplicity
 _atom_site_fract_x
 _atom_site_fract_y
 _atom_site_fract_z
 _atom_site_occupancy
  V  V0  1  0.14345100  0.14345100  0.14345100  1
  Fe  Fe0  1  0.99958200  0.99958200  0.99958200  1
  Fe  Fe1  1  0.64545800  0.64545800  0.64545800  1
  Fe  Fe2  1  0.49918100  0.49918100  0.49918100  1
  Fe  Fe3  1  0.85642900  0.85642900  0.85642900  1
  Fe  Fe4  1  0.35440900  0.35440900  0.35440900  1
  P  P0  1  0.95461500  0.24950700  0.54434300  1
  P  P1  1  0.54434300  0.95461500  0.24950700  1
  P  P2  1  0.24950700  0.54434300  0.95461500  1
  P  P3  1  0.75296900  0.45508000  0.04577300  1
  P  P4  1  0.45508000  0.04577300  0.75296900  1
  P  P5  1  0.04577300  0.75296900  0.45508000  1
  O  O0  1  0.50235200  0.10534600  0.32634900  1
  O  O1  1  0.32634900  0.50235200  0.10534600  1
  O  O2  1  0.10534600  0.32634900  0.50235200  1
  O  O3  1  0.94050200  0.09257100  0.74071200  1
  O  O4  1  0.00469400  0.17779100  0.38349200  1
  O  O5  1  0.75281700  0.40630200  0.55065600  1
  O  O6  1  0.74071200  0.94050200  0.09257100  1
  O  O7  1  0.55065600  0.75281700  0.40630200  1
  O  O8  1  0.82222000  0.61087500  0.00142400  1
  O  O9  1  0.40630200  0.55065600  0.75281700  1
  O  O10  1  0.91260000  0.25510000  0.06489400  1
  O  O11  1  0.61087500  0.00142400  0.82222000  1
  O  O12  1  0.38349200  0.00469400  0.17779100  1
  O  O13  1  0.09257100  0.74071200  0.94050200  1
  O  O14  1  0.59514800  0.44000100  0.24866900  1
  O  O15  1  0.17779100  0.38349200  0.00469400  1
  O  O16  1  0.44000100  0.24866900  0.59514800  1
  O  O17  1  0.25510000  0.06489400  0.91260000  1
  O  O18  1  0.24866900  0.59514800  0.44000100  1
  O  O19  1  0.00142400  0.82222000  0.61087500  1
  O  O20  1  0.06489400  0.91260000  0.25510000  1
  O  O21  1  0.88930200  0.68758000  0.48779600  1
  O  O22  1  0.68758000  0.48779600  0.88930200  1
  O  O23  1  0.48779600  0.88930200  0.68758000  1
loop_
_geom_bond_atom_site_label_1
_geom_bond_atom_site_label_2
_geom_bond_distance
_geom_bond_site_symmetry_2
Fe0 O3 2.164230 1_565
Fe0 O13 2.164230 1_655
Fe0 O6 2.164231 1_556
Fe0 O20 2.179080 1_656
Fe0 O10 2.179080 1_566
Fe0 O17 2.179080 1_665
Fe1 O22 1.941489 1_555
Fe1 O23 1.941489 1_555
Fe1 O21 1.941489 1_555
Fe1 O7 2.157691 1_555
Fe1 O5 2.157691 1_555
Fe1 O9 2.157691 1_555
Fe2 O9 2.088270 1_555
Fe2 O5 2.088270 1_555
Fe2 O7 2.088270 1_555
Fe2 O14 2.092255 1_555
Fe2 O18 2.092255 1_555
Fe2 O16 2.092255 1_555
Fe3 O19 1.921920 1_655
Fe3 O11 1.921920 1_565
Fe3 O8 1.921920 1_556
Fe3 O6 2.067131 1_556
Fe3 O13 2.067131 1_655
Fe3 O3 2.067131 1_565
Fe4 O1 1.930181 1_555
Fe4 O0 1.930181 1_555
Fe4 O2 1.930181 1_555
Fe4 O16 2.125311 1_555
Fe4 O18 2.125311 1_555
Fe4 O14 2.125312 1_555
O0 P1 1.521133 1_545
O1 P2 1.521133 1_554
O2 P0 1.521133 1_455
O3 P0 1.543076 1_555
O4 P0 1.546432 1_455
O4 V0 1.880574 1_555
O5 P0 1.575865 1_555
O6 P1 1.543076 1_555
O7 P1 1.575865 1_555
O8 P3 1.508795 1_555
O9 P2 1.575865 1_555
O10 P3 1.570271 1_555
O10 V0 2.005034 1_655
O11 P4 1.508795 1_555
O12 P1 1.546432 1_545
O12 V0 1.880574 1_555
O13 P2 1.543076 1_555
O14 P3 1.580623 1_555
O15 P2 1.546433 1_554
O15 V0 1.880574 1_555
O16 P4 1.580623 1_555
O17 P4 1.570271 1_555
O17 V0 2.005034 1_556
O18 P5 1.580623 1_555
O19 P5 1.508795 1_555
O20 P5 1.570271 1_555
O20 V0 2.005034 1_565
O21 P5 1.529348 1_655
O22 P3 1.529348 1_556
O23 P4 1.529348 1_565
