# generated using pymatgen
data_V2SiO7
_symmetry_space_group_name_H-M   'P 1'
_cell_length_a   8.32394800
_cell_length_b   8.32394800
_cell_length_c   8.32394800
_cell_angle_alpha   90.00000000
_cell_angle_beta   90.00000000
_cell_angle_gamma   90.00000000
_symmetry_Int_Tables_number   1
_chemical_formula_structural   V2SiO7
_chemical_formula_sum   'V8 Si4 O28'
_cell_volume   576.75062721
_cell_formula_units_Z   4
loop_
 _symmetry_equiv_pos_site_id
 _symmetry_equiv_pos_as_xyz
  1  'x, y, z'
loop_
 _atom_site_type_symbol
 _atom_site_label
 _atom_site_symmetry_multiplicity
 _atom_site_fract_x
 _atom_site_fract_y
 _atom_site_fract_z
 _atom_site_occupancy
  V  V0  1  0.12345100  0.87654900  0.37654900  1
  V  V1  1  0.12345100  0.62345100  0.87654900  1
  V  V2  1  0.37654900  0.37654900  0.37654900  1
  V  V3  1  0.37654900  0.12345100  0.87654900  1
  V  V4  1  0.62345100  0.62345100  0.62345100  1
  V  V5  1  0.62345100  0.87654900  0.12345100  1
  V  V6  1  0.87654900  0.12345100  0.62345100  1
  V  V7  1  0.87654900  0.37654900  0.12345100  1
  Si  Si0  1  0.00000000  0.00000000  0.00000000  1
  Si  Si1  1  0.00000000  0.50000000  0.50000000  1
  Si  Si2  1  0.50000000  0.00000000  0.50000000  1
  Si  Si3  1  0.50000000  0.50000000  0.00000000  1
  O  O0  1  0.00000000  0.00000000  0.50000000  1
  O  O1  1  0.00000000  0.50000000  0.00000000  1
  O  O2  1  0.06157700  0.68147700  0.40479600  1
  O  O3  1  0.06157700  0.81852300  0.90479600  1
  O  O4  1  0.09520400  0.56157700  0.68147700  1
  O  O5  1  0.09520400  0.93842300  0.18147700  1
  O  O6  1  0.18147700  0.09520400  0.93842300  1
  O  O7  1  0.18147700  0.40479600  0.43842300  1
  O  O8  1  0.31852300  0.59520400  0.93842300  1
  O  O9  1  0.31852300  0.90479600  0.43842300  1
  O  O10  1  0.40479600  0.06157700  0.68147700  1
  O  O11  1  0.40479600  0.43842300  0.18147700  1
  O  O12  1  0.43842300  0.31852300  0.90479600  1
  O  O13  1  0.43842300  0.18147700  0.40479600  1
  O  O14  1  0.50000000  0.50000000  0.50000000  1
  O  O15  1  0.50000000  0.00000000  0.00000000  1
  O  O16  1  0.56157700  0.68147700  0.09520400  1
  O  O17  1  0.56157700  0.81852300  0.59520400  1
  O  O18  1  0.59520400  0.56157700  0.81852300  1
  O  O19  1  0.59520400  0.93842300  0.31852300  1
  O  O20  1  0.68147700  0.09520400  0.56157700  1
  O  O21  1  0.68147700  0.40479600  0.06157700  1
  O  O22  1  0.81852300  0.59520400  0.56157700  1
  O  O23  1  0.81852300  0.90479600  0.06157700  1
  O  O24  1  0.90479600  0.06157700  0.81852300  1
  O  O25  1  0.90479600  0.43842300  0.31852300  1
  O  O26  1  0.93842300  0.18147700  0.09520400  1
  O  O27  1  0.93842300  0.31852300  0.59520400  1
loop_
_geom_bond_atom_site_label_1
_geom_bond_atom_site_label_2
_geom_bond_distance
_geom_bond_site_symmetry_2
O0 V0 1.779855 1_545
O0 V6 1.779855 1_455
O1 V7 1.779855 1_455
O1 V1 1.779855 1_554
O2 V0 1.719643 1_555
O2 Si1 1.781197 1_555
O3 V1 1.719643 1_555
O3 Si0 1.781197 1_566
O4 V1 1.719643 1_555
O4 Si1 1.781197 1_555
O5 V0 1.719643 1_555
O5 Si0 1.781197 1_565
O6 V3 1.719643 1_555
O6 Si0 1.781197 1_556
O7 V2 1.719643 1_555
O7 Si1 1.781197 1_555
O8 V1 1.719643 1_555
O8 Si3 1.781197 1_556
O9 V0 1.719643 1_555
O9 Si2 1.781197 1_565
O10 V3 1.719643 1_555
O10 Si2 1.781197 1_555
O11 V2 1.719643 1_555
O11 Si3 1.781197 1_555
O12 V3 1.719643 1_555
O12 Si3 1.781197 1_556
O13 V2 1.719643 1_555
O13 Si2 1.781197 1_555
O14 V4 1.779855 1_555
O14 V2 1.779855 1_555
O15 V3 1.779855 1_554
O15 V5 1.779855 1_545
O16 V5 1.719643 1_555
O16 Si3 1.781197 1_555
O17 V4 1.719643 1_555
O17 Si2 1.781197 1_565
O18 V4 1.719643 1_555
O18 Si3 1.781197 1_556
O19 V5 1.719643 1_555
O19 Si2 1.781197 1_565
O20 V6 1.719643 1_555
O20 Si2 1.781197 1_555
O21 V7 1.719643 1_555
O21 Si3 1.781197 1_555
O22 V4 1.719643 1_555
O22 Si1 1.781197 1_655
O23 V5 1.719643 1_555
O23 Si0 1.781197 1_665
O24 V6 1.719643 1_555
O24 Si0 1.781197 1_656
O25 V7 1.719643 1_555
O25 Si1 1.781197 1_655
O26 V7 1.719643 1_555
O26 Si0 1.781197 1_655
O27 V6 1.719643 1_555
O27 Si1 1.781197 1_655
