# generated using pymatgen
data_Li3Co2P2(O4F)2
_symmetry_space_group_name_H-M   'P 1'
_cell_length_a   5.14880400
_cell_length_b   11.32095400
_cell_length_c   13.03866100
_cell_angle_alpha   90.00000000
_cell_angle_beta   90.00000000
_cell_angle_gamma   90.00000000
_symmetry_Int_Tables_number   1
_chemical_formula_structural   Li3Co2P2(O4F)2
_chemical_formula_sum   'Li12 Co8 P8 O32 F8'
_cell_volume   760.01537757
_cell_formula_units_Z   4
loop_
 _symmetry_equiv_pos_site_id
 _symmetry_equiv_pos_as_xyz
  1  'x, y, z'
loop_
 _atom_site_type_symbol
 _atom_site_label
 _atom_site_symmetry_multiplicity
 _atom_site_fract_x
 _atom_site_fract_y
 _atom_site_fract_z
 _atom_site_occupancy
  Li  Li0  1  0.52612100  0.81733300  0.50874700  1
  Li  Li1  1  0.52612100  0.31733300  0.99125300  1
  Li  Li2  1  0.47387900  0.31733300  0.49125300  1
  Li  Li3  1  0.47387900  0.81733300  0.00874700  1
  Li  Li4  1  0.04535100  0.17327500  0.48844000  1
  Li  Li5  1  0.04535100  0.67327500  0.01156000  1
  Li  Li6  1  0.01527900  0.89362200  0.61751900  1
  Li  Li7  1  0.01527900  0.39362200  0.88248100  1
  Li  Li8  1  0.98472100  0.89362200  0.11751900  1
  Li  Li9  1  0.98472100  0.39362200  0.38248100  1
  Li  Li10  1  0.95464900  0.17327500  0.98844000  1
  Li  Li11  1  0.95464900  0.67327500  0.51156000  1
  Co  Co0  1  0.53223400  0.83045200  0.23722900  1
  Co  Co1  1  0.53223400  0.33045200  0.26277100  1
  Co  Co2  1  0.46776600  0.33045200  0.76277100  1
  Co  Co3  1  0.46776600  0.83045200  0.73722900  1
  Co  Co4  1  0.03722300  0.16559400  0.76809400  1
  Co  Co5  1  0.03722300  0.66559400  0.73190600  1
  Co  Co6  1  0.96277700  0.66559400  0.23190600  1
  Co  Co7  1  0.96277700  0.16559400  0.26809400  1
  P  P0  1  0.53817900  0.09284000  0.62667800  1
  P  P1  1  0.53817900  0.59284000  0.87332200  1
  P  P2  1  0.46182100  0.59284000  0.37332200  1
  P  P3  1  0.46182100  0.09284000  0.12667800  1
  P  P4  1  0.04544300  0.90800500  0.37532000  1
  P  P5  1  0.04544300  0.40800500  0.12468000  1
  P  P6  1  0.95455700  0.40800500  0.62468000  1
  P  P7  1  0.95455700  0.90800500  0.87532000  1
  O  O0  1  0.66108800  0.37716800  0.63318000  1
  O  O1  1  0.66108800  0.87716800  0.86682000  1
  O  O2  1  0.59826500  0.65133200  0.27809300  1
  O  O3  1  0.59826500  0.15133200  0.22190700  1
  O  O4  1  0.56366700  0.64832000  0.47071600  1
  O  O5  1  0.56366700  0.14832000  0.02928400  1
  O  O6  1  0.52090500  0.95793100  0.12960400  1
  O  O7  1  0.52090500  0.45793100  0.37039600  1
  O  O8  1  0.47909500  0.95793100  0.62960400  1
  O  O9  1  0.47909500  0.45793100  0.87039600  1
  O  O10  1  0.43633300  0.14832000  0.52928400  1
  O  O11  1  0.43633300  0.64832000  0.97071600  1
  O  O12  1  0.40173500  0.65133200  0.77809300  1
  O  O13  1  0.40173500  0.15133200  0.72190700  1
  O  O14  1  0.33891200  0.87716800  0.36682000  1
  O  O15  1  0.33891200  0.37716800  0.13318000  1
  O  O16  1  0.15781000  0.10954100  0.14157100  1
  O  O17  1  0.15781000  0.60954100  0.35842900  1
  O  O18  1  0.09441000  0.35250300  0.71991300  1
  O  O19  1  0.09441000  0.85250300  0.78008700  1
  O  O20  1  0.07389800  0.36182000  0.52548900  1
  O  O21  1  0.07389800  0.86182000  0.97451100  1
  O  O22  1  0.99009500  0.54487400  0.63102700  1
  O  O23  1  0.99009500  0.04487400  0.86897300  1
  O  O24  1  0.00990500  0.04487400  0.36897300  1
  O  O25  1  0.00990500  0.54487400  0.13102700  1
  O  O26  1  0.92610200  0.86182000  0.47451100  1
  O  O27  1  0.92610200  0.36182000  0.02548900  1
  O  O28  1  0.90559000  0.85250300  0.28008700  1
  O  O29  1  0.90559000  0.35250300  0.21991300  1
  O  O30  1  0.84219000  0.10954100  0.64157100  1
  O  O31  1  0.84219000  0.60954100  0.85842900  1
  F  F0  1  0.76245400  0.75960000  0.65740600  1
  F  F1  1  0.75964800  0.75565600  0.11254000  1
  F  F2  1  0.75964800  0.25565600  0.38746000  1
  F  F3  1  0.76245400  0.25960000  0.84259400  1
  F  F4  1  0.23754600  0.75960000  0.15740600  1
  F  F5  1  0.24035200  0.75565600  0.61254000  1
  F  F6  1  0.23754600  0.25960000  0.34259400  1
  F  F7  1  0.24035200  0.25565600  0.88746000  1
loop_
_geom_bond_atom_site_label_1
_geom_bond_atom_site_label_2
_geom_bond_distance
_geom_bond_site_symmetry_2
Li0 O4 1.986030 1_555
Li0 O26 2.166596 1_555
Li0 O14 2.193731 1_555
Li0 O8 2.252850 1_555
Li1 O5 1.986030 1_556
Li1 O27 2.166596 1_556
Li1 O15 2.193731 1_556
Li1 O9 2.252850 1_555
Li2 O10 1.986030 1_555
Li2 O20 2.166596 1_555
Li2 O0 2.193731 1_555
Li2 O7 2.252850 1_555
Li3 O11 1.986030 1_554
Li3 O21 2.166596 1_554
Li3 O1 2.193731 1_554
Li3 O6 2.252850 1_555
Li4 O10 2.101417 1_555
Li4 O24 2.138392 1_555
Li4 O20 2.193420 1_555
Li4 O30 2.366707 1_455
Li5 O11 2.101417 1_554
Li5 O25 2.138392 1_555
Li5 O21 2.193420 1_554
Li5 O31 2.366707 1_454
Li6 O26 1.953791 1_455
Li6 O19 2.208097 1_555
Li6 O8 2.501576 1_555
Li6 O30 2.620634 1_465
Li7 O27 1.953791 1_456
Li7 O18 2.208097 1_555
Li7 O9 2.501576 1_555
Li7 O31 2.620634 1_455
Li8 O21 1.953791 1_654
Li8 O28 2.208097 1_555
Li8 O6 2.501576 1_555
Li8 O16 2.620634 1_665
Li9 O20 1.953791 1_655
Li9 O29 2.208097 1_555
Li9 O7 2.501576 1_555
Li9 O17 2.620634 1_655
Li10 O5 2.101417 1_556
Li10 O23 2.138392 1_555
Li10 O27 2.193420 1_556
Li10 O16 2.366707 1_656
Li11 O4 2.101417 1_555
Li11 O22 2.138392 1_555
Li11 O26 2.193420 1_555
Li11 O17 2.366707 1_655
Co0 F4 2.007184 1_555
Co0 O6 2.013801 1_555
Co0 O28 2.017416 1_555
Co0 O14 2.031143 1_555
Co0 O2 2.124026 1_555
Co0 F1 2.175130 1_555
Co1 F6 2.007184 1_555
Co1 O7 2.013801 1_555
Co1 O29 2.017416 1_555
Co1 O15 2.031143 1_555
Co1 O3 2.124026 1_555
Co1 F2 2.175130 1_555
Co2 F3 2.007184 1_555
Co2 O9 2.013801 1_555
Co2 O18 2.017416 1_555
Co2 O0 2.031143 1_555
Co2 O13 2.124026 1_555
Co2 F7 2.175130 1_555
Co3 F0 2.007184 1_555
Co3 O8 2.013801 1_555
Co3 O19 2.017416 1_555
Co3 O1 2.031143 1_555
Co3 O12 2.124026 1_555
Co3 F5 2.175130 1_555
Co4 O23 1.912261 1_455
Co4 O13 1.977654 1_555
Co4 F3 2.019318 1_455
Co4 O30 2.032868 1_455
Co4 F7 2.134409 1_555
Co4 O18 2.226827 1_555
Co5 O22 1.912261 1_455
Co5 O12 1.977654 1_555
Co5 F0 2.019318 1_455
Co5 O31 2.032868 1_455
Co5 F5 2.134409 1_555
Co5 O19 2.226827 1_555
Co6 O25 1.912261 1_655
Co6 O2 1.977654 1_555
Co6 F4 2.019318 1_655
Co6 O17 2.032868 1_655
Co6 F1 2.134409 1_555
Co6 O28 2.226827 1_555
Co7 O24 1.912261 1_655
Co7 O3 1.977654 1_555
Co7 F6 2.019318 1_655
Co7 O16 2.032868 1_655
Co7 F2 2.134409 1_555
Co7 O29 2.226827 1_555
O0 P6 1.554774 1_555
O1 P7 1.554774 1_555
O2 P2 1.572814 1_555
O3 P3 1.572814 1_555
O4 P2 1.510658 1_555
O5 P3 1.510658 1_555
O6 P3 1.557768 1_565
O7 P2 1.557768 1_555
O8 P0 1.557768 1_565
O9 P1 1.557768 1_555
O10 P0 1.510658 1_555
O11 P1 1.510658 1_555
O12 P1 1.572814 1_555
O13 P0 1.572814 1_555
O14 P4 1.554774 1_555
O15 P5 1.554774 1_555
O16 P3 1.588584 1_555
O17 P2 1.588584 1_555
O18 P6 1.566895 1_455
O19 P7 1.566895 1_455
O20 P6 1.524342 1_455
O21 P7 1.524342 1_455
O22 P6 1.562447 1_555
O23 P7 1.562447 1_545
O24 P4 1.562447 1_545
O25 P5 1.562447 1_555
O26 P4 1.524342 1_655
O27 P5 1.524342 1_655
O28 P4 1.566895 1_655
O29 P5 1.566895 1_655
O30 P0 1.588584 1_555
O31 P1 1.588584 1_555
F0 Li6 2.065693 1_655
F0 Li11 2.355962 1_555
F0 Li0 2.380111 1_555
F1 Li8 1.945949 1_555
F1 Li3 2.117533 1_555
F1 Li5 2.183410 1_655
F2 Li9 1.945949 1_555
F2 Li2 2.117533 1_555
F2 Li4 2.183410 1_655
F3 Li7 2.065693 1_655
F3 Li10 2.355962 1_555
F3 Li1 2.380111 1_555
F4 Li8 2.065693 1_455
F4 Li5 2.355962 1_555
F4 Li3 2.380111 1_555
F5 Li6 1.945949 1_555
F5 Li0 2.117533 1_555
F5 Li11 2.183410 1_455
F6 Li9 2.065693 1_455
F6 Li4 2.355962 1_555
F6 Li2 2.380111 1_555
F7 Li7 1.945949 1_555
F7 Li1 2.117533 1_555
F7 Li10 2.183410 1_455
