# generated using pymatgen
data_Mg3WO6
_symmetry_space_group_name_H-M   'P 1'
_cell_length_a   9.96054800
_cell_length_b   9.96054800
_cell_length_c   9.96054800
_cell_angle_alpha   90.00000000
_cell_angle_beta   90.00000000
_cell_angle_gamma   90.00000000
_symmetry_Int_Tables_number   1
_chemical_formula_structural   Mg3WO6
_chemical_formula_sum   'Mg24 W8 O48'
_cell_volume   988.21103240
_cell_formula_units_Z   8
loop_
 _symmetry_equiv_pos_site_id
 _symmetry_equiv_pos_as_xyz
  1  'x, y, z'
loop_
 _atom_site_type_symbol
 _atom_site_label
 _atom_site_symmetry_multiplicity
 _atom_site_fract_x
 _atom_site_fract_y
 _atom_site_fract_z
 _atom_site_occupancy
  Mg  Mg0  1  0.09250800  0.75434000  0.13141300  1
  Mg  Mg1  1  0.09250800  0.74566000  0.63141300  1
  Mg  Mg2  1  0.13141300  0.09250800  0.75434000  1
  Mg  Mg3  1  0.13141300  0.40749200  0.25434000  1
  Mg  Mg4  1  0.25434000  0.36858700  0.90749200  1
  Mg  Mg5  1  0.25434000  0.13141300  0.40749200  1
  Mg  Mg6  1  0.24566000  0.86858700  0.90749200  1
  Mg  Mg7  1  0.24566000  0.63141300  0.40749200  1
  Mg  Mg8  1  0.36858700  0.90749200  0.25434000  1
  Mg  Mg9  1  0.36858700  0.59250800  0.75434000  1
  Mg  Mg10  1  0.40749200  0.25434000  0.13141300  1
  Mg  Mg11  1  0.40749200  0.24566000  0.63141300  1
  Mg  Mg12  1  0.59250800  0.75434000  0.36858700  1
  Mg  Mg13  1  0.59250800  0.74566000  0.86858700  1
  Mg  Mg14  1  0.63141300  0.40749200  0.24566000  1
  Mg  Mg15  1  0.63141300  0.09250800  0.74566000  1
  Mg  Mg16  1  0.75434000  0.13141300  0.09250800  1
  Mg  Mg17  1  0.75434000  0.36858700  0.59250800  1
  Mg  Mg18  1  0.74566000  0.63141300  0.09250800  1
  Mg  Mg19  1  0.74566000  0.86858700  0.59250800  1
  Mg  Mg20  1  0.86858700  0.59250800  0.74566000  1
  Mg  Mg21  1  0.86858700  0.90749200  0.24566000  1
  Mg  Mg22  1  0.90749200  0.25434000  0.36858700  1
  Mg  Mg23  1  0.90749200  0.24566000  0.86858700  1
  W  W0  1  0.12271600  0.12271600  0.12271600  1
  W  W1  1  0.12271600  0.37728400  0.62271600  1
  W  W2  1  0.37728400  0.62271600  0.12271600  1
  W  W3  1  0.37728400  0.87728400  0.62271600  1
  W  W4  1  0.62271600  0.12271600  0.37728400  1
  W  W5  1  0.62271600  0.37728400  0.87728400  1
  W  W6  1  0.87728400  0.62271600  0.37728400  1
  W  W7  1  0.87728400  0.87728400  0.87728400  1
  O  O0  1  0.04363700  0.69294000  0.43779400  1
  O  O1  1  0.04363700  0.80706000  0.93779400  1
  O  O2  1  0.06220600  0.95636300  0.19294000  1
  O  O3  1  0.06220600  0.54363700  0.69294000  1
  O  O4  1  0.09213800  0.20930600  0.30592900  1
  O  O5  1  0.09213800  0.29069400  0.80592900  1
  O  O6  1  0.19294000  0.43779400  0.45636300  1
  O  O7  1  0.19294000  0.06220600  0.95636300  1
  O  O8  1  0.19407100  0.90786200  0.70930600  1
  O  O9  1  0.19407100  0.59213800  0.20930600  1
  O  O10  1  0.20930600  0.30592900  0.09213800  1
  O  O11  1  0.20930600  0.19407100  0.59213800  1
  O  O12  1  0.29069400  0.80592900  0.09213800  1
  O  O13  1  0.29069400  0.69407100  0.59213800  1
  O  O14  1  0.30592900  0.09213800  0.20930600  1
  O  O15  1  0.30592900  0.40786200  0.70930600  1
  O  O16  1  0.30706000  0.56220600  0.95636300  1
  O  O17  1  0.30706000  0.93779400  0.45636300  1
  O  O18  1  0.40786200  0.70930600  0.30592900  1
  O  O19  1  0.40786200  0.79069400  0.80592900  1
  O  O20  1  0.43779400  0.04363700  0.69294000  1
  O  O21  1  0.43779400  0.45636300  0.19294000  1
  O  O22  1  0.45636300  0.19294000  0.43779400  1
  O  O23  1  0.45636300  0.30706000  0.93779400  1
  O  O24  1  0.54363700  0.69294000  0.06220600  1
  O  O25  1  0.54363700  0.80706000  0.56220600  1
  O  O26  1  0.56220600  0.95636300  0.30706000  1
  O  O27  1  0.56220600  0.54363700  0.80706000  1
  O  O28  1  0.59213800  0.20930600  0.19407100  1
  O  O29  1  0.59213800  0.29069400  0.69407100  1
  O  O30  1  0.69294000  0.06220600  0.54363700  1
  O  O31  1  0.69294000  0.43779400  0.04363700  1
  O  O32  1  0.69407100  0.59213800  0.29069400  1
  O  O33  1  0.69407100  0.90786200  0.79069400  1
  O  O34  1  0.70930600  0.30592900  0.40786200  1
  O  O35  1  0.70930600  0.19407100  0.90786200  1
  O  O36  1  0.79069400  0.69407100  0.90786200  1
  O  O37  1  0.79069400  0.80592900  0.40786200  1
  O  O38  1  0.80592900  0.09213800  0.29069400  1
  O  O39  1  0.80592900  0.40786200  0.79069400  1
  O  O40  1  0.80706000  0.56220600  0.54363700  1
  O  O41  1  0.80706000  0.93779400  0.04363700  1
  O  O42  1  0.90786200  0.70930600  0.19407100  1
  O  O43  1  0.90786200  0.79069400  0.69407100  1
  O  O44  1  0.93779400  0.04363700  0.80706000  1
  O  O45  1  0.93779400  0.45636300  0.30706000  1
  O  O46  1  0.95636300  0.19294000  0.06220600  1
  O  O47  1  0.95636300  0.30706000  0.56220600  1
loop_
_geom_bond_atom_site_label_1
_geom_bond_atom_site_label_2
_geom_bond_distance
_geom_bond_site_symmetry_2
Mg0 O42 1.993310 1_455
Mg0 O1 2.057187 1_554
Mg0 O9 2.058049 1_555
Mg0 O12 2.076999 1_555
Mg0 O2 2.125056 1_555
Mg1 O43 1.993310 1_455
Mg1 O0 2.057187 1_555
Mg1 O8 2.058049 1_555
Mg1 O13 2.076999 1_555
Mg1 O3 2.125056 1_555
Mg2 O8 1.993310 1_545
Mg2 O44 2.057187 1_455
Mg2 O11 2.058049 1_555
Mg2 O5 2.076999 1_555
Mg2 O7 2.125056 1_555
Mg3 O9 1.993310 1_555
Mg3 O45 2.057187 1_455
Mg3 O10 2.058049 1_555
Mg3 O4 2.076999 1_555
Mg3 O6 2.125056 1_555
Mg4 O10 1.993310 1_556
Mg4 O16 2.057187 1_555
Mg4 O5 2.058049 1_555
Mg4 O15 2.076999 1_555
Mg4 O23 2.125056 1_555
Mg5 O11 1.993310 1_555
Mg5 O17 2.057187 1_545
Mg5 O4 2.058049 1_555
Mg5 O14 2.076999 1_555
Mg5 O22 2.125056 1_555
Mg6 O12 1.993310 1_556
Mg6 O7 2.057187 1_565
Mg6 O19 2.058049 1_555
Mg6 O8 2.076999 1_555
Mg6 O1 2.125056 1_555
Mg7 O13 1.993310 1_555
Mg7 O6 2.057187 1_555
Mg7 O18 2.058049 1_555
Mg7 O9 2.076999 1_555
Mg7 O0 2.125056 1_555
Mg8 O14 1.993310 1_565
Mg8 O26 2.057187 1_555
Mg8 O12 2.058049 1_555
Mg8 O18 2.076999 1_555
Mg8 O17 2.125056 1_555
Mg9 O15 1.993310 1_555
Mg9 O27 2.057187 1_555
Mg9 O13 2.058049 1_555
Mg9 O19 2.076999 1_555
Mg9 O16 2.125056 1_555
Mg10 O28 1.993310 1_555
Mg10 O23 2.057187 1_554
Mg10 O14 2.058049 1_555
Mg10 O10 2.076999 1_555
Mg10 O21 2.125056 1_555
Mg11 O29 1.993310 1_555
Mg11 O22 2.057187 1_555
Mg11 O15 2.058049 1_555
Mg11 O11 2.076999 1_555
Mg11 O20 2.125056 1_555
Mg12 O18 1.993310 1_555
Mg12 O25 2.057187 1_555
Mg12 O32 2.058049 1_555
Mg12 O37 2.076999 1_555
Mg12 O26 2.125056 1_555
Mg13 O19 1.993310 1_555
Mg13 O24 2.057187 1_556
Mg13 O33 2.058049 1_555
Mg13 O36 2.076999 1_555
Mg13 O27 2.125056 1_555
Mg14 O32 1.993310 1_555
Mg14 O21 2.057187 1_555
Mg14 O34 2.058049 1_555
Mg14 O28 2.076999 1_555
Mg14 O31 2.125056 1_555
Mg15 O33 1.993310 1_545
Mg15 O20 2.057187 1_555
Mg15 O35 2.058049 1_555
Mg15 O29 2.076999 1_555
Mg15 O30 2.125056 1_555
Mg16 O35 1.993310 1_554
Mg16 O41 2.057187 1_545
Mg16 O28 2.058049 1_555
Mg16 O38 2.076999 1_555
Mg16 O46 2.125056 1_555
Mg17 O34 1.993310 1_555
Mg17 O40 2.057187 1_555
Mg17 O29 2.058049 1_555
Mg17 O39 2.076999 1_555
Mg17 O47 2.125056 1_555
Mg18 O36 1.993310 1_554
Mg18 O31 2.057187 1_555
Mg18 O42 2.058049 1_555
Mg18 O32 2.076999 1_555
Mg18 O24 2.125056 1_555
Mg19 O37 1.993310 1_555
Mg19 O30 2.057187 1_565
Mg19 O43 2.058049 1_555
Mg19 O33 2.076999 1_555
Mg19 O25 2.125056 1_555
Mg20 O39 1.993310 1_555
Mg20 O3 2.057187 1_655
Mg20 O36 2.058049 1_555
Mg20 O43 2.076999 1_555
Mg20 O40 2.125056 1_555
Mg21 O38 1.993310 1_565
Mg21 O2 2.057187 1_655
Mg21 O37 2.058049 1_555
Mg21 O42 2.076999 1_555
Mg21 O41 2.125056 1_555
Mg22 O4 1.993310 1_655
Mg22 O47 2.057187 1_555
Mg22 O38 2.058049 1_555
Mg22 O34 2.076999 1_555
Mg22 O45 2.125056 1_555
Mg23 O5 1.993310 1_655
Mg23 O46 2.057187 1_556
Mg23 O39 2.058049 1_555
Mg23 O35 2.076999 1_555
Mg23 O44 2.125056 1_555
O0 W6 1.896855 1_455
O1 W7 1.896855 1_455
O2 W0 1.896855 1_565
O3 W1 1.896855 1_555
O4 W0 2.041301 1_555
O5 W1 2.041301 1_555
O6 W1 1.896855 1_555
O7 W0 1.896855 1_556
O8 W3 2.041301 1_555
O9 W2 2.041301 1_555
O10 W0 2.041301 1_555
O11 W1 2.041301 1_555
O12 W2 2.041301 1_555
O13 W3 2.041301 1_555
O14 W0 2.041301 1_555
O15 W1 2.041301 1_555
O16 W2 1.896855 1_556
O17 W3 1.896855 1_555
O18 W2 2.041301 1_555
O19 W3 2.041301 1_555
O20 W3 1.896855 1_545
O21 W2 1.896855 1_555
O22 W4 1.896855 1_555
O23 W5 1.896855 1_555
O24 W2 1.896855 1_555
O25 W3 1.896855 1_555
O26 W4 1.896855 1_565
O27 W5 1.896855 1_555
O28 W4 2.041301 1_555
O29 W5 2.041301 1_555
O30 W4 1.896855 1_555
O31 W5 1.896855 1_554
O32 W6 2.041301 1_555
O33 W7 2.041301 1_555
O34 W4 2.041301 1_555
O35 W5 2.041301 1_555
O36 W7 2.041301 1_555
O37 W6 2.041301 1_555
O38 W4 2.041301 1_555
O39 W5 2.041301 1_555
O40 W6 1.896855 1_555
O41 W7 1.896855 1_554
O42 W6 2.041301 1_555
O43 W7 2.041301 1_555
O44 W7 1.896855 1_545
O45 W6 1.896855 1_555
O46 W0 1.896855 1_655
O47 W1 1.896855 1_655
