# generated using pymatgen
data_Ce5Dy2O13
_symmetry_space_group_name_H-M   'P 1'
_cell_length_a   22.39034542
_cell_length_b   22.39034542
_cell_length_c   22.39034541
_cell_angle_alpha   9.80025936
_cell_angle_beta   9.80025936
_cell_angle_gamma   9.80025985
_symmetry_Int_Tables_number   1
_chemical_formula_structural   Ce5Dy2O13
_chemical_formula_sum   'Ce5 Dy2 O13'
_cell_volume   282.33252853
_cell_formula_units_Z   1
loop_
 _symmetry_equiv_pos_site_id
 _symmetry_equiv_pos_as_xyz
  1  'x, y, z'
loop_
 _atom_site_type_symbol
 _atom_site_label
 _atom_site_symmetry_multiplicity
 _atom_site_fract_x
 _atom_site_fract_y
 _atom_site_fract_z
 _atom_site_occupancy
  Ce  Ce0  1  0.42788800  0.42788800  0.42788800  1
  Ce  Ce1  1  0.14222500  0.14222500  0.14222500  1
  Ce  Ce2  1  0.85653500  0.85653500  0.85653500  1
  Ce  Ce3  1  0.57084500  0.57084500  0.57084500  1
  Ce  Ce4  1  0.28497400  0.28497400  0.28497400  1
  Dy  Dy0  1  0.99902700  0.99902700  0.99902700  1
  Dy  Dy1  1  0.71633100  0.71633100  0.71633100  1
  O  O0  1  0.39299000  0.39299000  0.39299000  1
  O  O1  1  0.03084600  0.03084600  0.03084600  1
  O  O2  1  0.10740300  0.10740300  0.10740300  1
  O  O3  1  0.75021500  0.75021500  0.75021500  1
  O  O4  1  0.46448700  0.46448700  0.46448700  1
  O  O5  1  0.17879500  0.17879500  0.17879500  1
  O  O6  1  0.82171900  0.82171900  0.82171900  1
  O  O7  1  0.53603300  0.53603300  0.53603300  1
  O  O8  1  0.89310700  0.89310700  0.89310700  1
  O  O9  1  0.25039400  0.25039400  0.25039400  1
  O  O10  1  0.32633400  0.32633400  0.32633400  1
  O  O11  1  0.60723700  0.60723700  0.60723700  1
  O  O12  1  0.96403700  0.96403700  0.96403700  1
loop_
_geom_bond_atom_site_label_1
_geom_bond_atom_site_label_2
_geom_bond_distance
_geom_bond_site_symmetry_2
Ce0 O3 2.327759 1_554
Ce0 O3 2.327759 1_545
Ce0 O3 2.327759 1_455
Ce0 O0 2.332704 1_555
Ce0 O2 2.369555 1_556
Ce0 O2 2.369555 1_655
Ce0 O2 2.369555 1_565
Ce0 O4 2.446405 1_555
Ce1 O2 2.327624 1_555
Ce1 O4 2.329136 1_554
Ce1 O4 2.329136 1_455
Ce1 O4 2.329136 1_545
Ce1 O6 2.369047 1_445
Ce1 O6 2.369047 1_544
Ce1 O6 2.369047 1_454
Ce1 O5 2.444467 1_555
Ce2 O6 2.327223 1_555
Ce2 O5 2.329179 1_665
Ce2 O5 2.329179 1_566
Ce2 O5 2.329179 1_656
Ce2 O7 2.369143 1_556
Ce2 O7 2.369143 1_655
Ce2 O7 2.369143 1_565
Ce2 O8 2.444600 1_555
Ce3 O7 2.326956 1_555
Ce3 O8 2.329136 1_554
Ce3 O8 2.329136 1_455
Ce3 O8 2.329136 1_545
Ce3 O9 2.370380 1_556
Ce3 O9 2.370380 1_655
Ce3 O9 2.370380 1_565
Ce3 O11 2.432569 1_555
Ce4 O9 2.311448 1_555
Ce4 O11 2.329115 1_554
Ce4 O11 2.329115 1_545
Ce4 O11 2.329115 1_455
Ce4 O12 2.358772 1_445
Ce4 O12 2.358773 1_544
Ce4 O12 2.358773 1_454
Ce4 O10 2.764647 1_555
Dy0 O1 2.126893 1_666
Dy0 O10 2.244877 1_665
Dy0 O10 2.244877 1_566
Dy0 O10 2.244877 1_656
Dy0 O12 2.338854 1_555
Dy1 O3 2.264925 1_555
Dy1 O0 2.307233 1_556
Dy1 O0 2.307234 1_565
Dy1 O0 2.307234 1_655
Dy1 O1 2.541550 1_665
Dy1 O1 2.541550 1_656
Dy1 O1 2.541550 1_566
