# generated using pymatgen
data_Li24MnCr11O36
_symmetry_space_group_name_H-M   'P 1'
_cell_length_a   8.74524180
_cell_length_b   8.74524180
_cell_length_c   11.70145307
_cell_angle_alpha   60.50756613
_cell_angle_beta   60.50756613
_cell_angle_gamma   59.76709967
_symmetry_Int_Tables_number   1
_chemical_formula_structural   Li24MnCr11O36
_chemical_formula_sum   'Li24 Mn1 Cr11 O36'
_cell_volume   636.46765022
_cell_formula_units_Z   1
loop_
 _symmetry_equiv_pos_site_id
 _symmetry_equiv_pos_as_xyz
  1  'x, y, z'
loop_
 _atom_site_type_symbol
 _atom_site_label
 _atom_site_symmetry_multiplicity
 _atom_site_fract_x
 _atom_site_fract_y
 _atom_site_fract_z
 _atom_site_occupancy
  Li  Li0  1  0.99477600  0.00928400  0.24876400  1
  Li  Li1  1  0.00068000  0.33403200  0.00203200  1
  Li  Li2  1  0.66781200  0.00179800  0.75170000  1
  Li  Li3  1  0.66323600  0.67259100  0.74899600  1
  Li  Li4  1  0.66529200  0.00251400  0.50081600  1
  Li  Li5  1  0.32740900  0.33676400  0.25100400  1
  Li  Li6  1  0.66883600  0.32543900  0.25507900  1
  Li  Li7  1  0.66567100  0.00016400  0.24938100  1
  Li  Li8  1  0.33482800  0.66517200  0.00000000  1
  Li  Li9  1  0.34005400  0.99171400  0.75246700  1
  Li  Li10  1  0.33044300  0.66994900  0.75066700  1
  Li  Li11  1  0.33105700  0.33914100  0.74845700  1
  Li  Li12  1  0.33005100  0.66955700  0.24933300  1
  Li  Li13  1  0.00698300  0.65865700  0.75168900  1
  Li  Li14  1  0.99983600  0.33432900  0.75061900  1
  Li  Li15  1  0.99071600  0.00522400  0.75123600  1
  Li  Li16  1  0.99748600  0.33470800  0.49918400  1
  Li  Li17  1  0.66085900  0.66894300  0.25154300  1
  Li  Li18  1  0.00828600  0.65994600  0.24753300  1
  Li  Li19  1  0.99820200  0.33218800  0.24830000  1
  Li  Li20  1  0.66596800  0.99932000  0.99796800  1
  Li  Li21  1  0.67456100  0.33116400  0.74492100  1
  Li  Li22  1  0.33387200  0.66612800  0.50000000  1
  Li  Li23  1  0.34134300  0.99301700  0.24831100  1
  Mn  Mn0  1  0.66795200  0.33204800  0.50000000  1
  Cr  Cr0  1  0.65957700  0.66807800  0.00087900  1
  Cr  Cr1  1  0.67298700  0.32701300  0.00000000  1
  Cr  Cr2  1  0.33136100  0.00855500  0.00111000  1
  Cr  Cr3  1  0.33192200  0.34042300  0.99912100  1
  Cr  Cr4  1  0.32917400  0.33556500  0.50153900  1
  Cr  Cr5  1  0.33817700  0.00437100  0.49884500  1
  Cr  Cr6  1  0.00729200  0.99270800  0.00000000  1
  Cr  Cr7  1  0.99144500  0.66863900  0.99889000  1
  Cr  Cr8  1  0.99562900  0.66182300  0.50115500  1
  Cr  Cr9  1  0.00485400  0.99514600  0.50000000  1
  Cr  Cr10  1  0.66443500  0.67082600  0.49846100  1
  O  O0  1  0.83083600  0.16221600  0.11488900  1
  O  O1  1  0.80949900  0.49782400  0.88878700  1
  O  O2  1  0.85554900  0.82501300  0.61465200  1
  O  O3  1  0.52494900  0.50127100  0.11385200  1
  O  O4  1  0.83466500  0.17024200  0.38774100  1
  O  O5  1  0.50217600  0.19050100  0.11121300  1
  O  O6  1  0.50664300  0.83538400  0.88619200  1
  O  O7  1  0.49872900  0.47505100  0.88614800  1
  O  O8  1  0.50038400  0.18993000  0.61168500  1
  O  O9  1  0.49105900  0.83196800  0.61575000  1
  O  O10  1  0.18894200  0.16750300  0.11244000  1
  O  O11  1  0.50225900  0.47821200  0.38898200  1
  O  O12  1  0.16098100  0.85777600  0.11328900  1
  O  O13  1  0.16461600  0.49335700  0.11380800  1
  O  O14  1  0.48044800  0.16467100  0.38784600  1
  O  O15  1  0.17552200  0.14161000  0.88760700  1
  O  O16  1  0.16724700  0.51146300  0.88555400  1
  O  O17  1  0.14222400  0.83901900  0.88671100  1
  O  O18  1  0.19356100  0.16855300  0.61257700  1
  O  O19  1  0.16130100  0.50073500  0.61553700  1
  O  O20  1  0.16000000  0.86000500  0.61352500  1
  O  O21  1  0.85839000  0.82447800  0.11239300  1
  O  O22  1  0.16803200  0.50894100  0.38425000  1
  O  O23  1  0.17498700  0.14445100  0.38534800  1
  O  O24  1  0.83039400  0.52590700  0.11152000  1
  O  O25  1  0.13999500  0.84000000  0.38647500  1
  O  O26  1  0.83778400  0.16916400  0.88511100  1
  O  O27  1  0.83249700  0.81105800  0.88756000  1
  O  O28  1  0.83532900  0.51955200  0.61215400  1
  O  O29  1  0.82975800  0.16533500  0.61225900  1
  O  O30  1  0.83144700  0.80643900  0.38742300  1
  O  O31  1  0.48853700  0.83275300  0.11444600  1
  O  O32  1  0.81007000  0.49961600  0.38831500  1
  O  O33  1  0.47409300  0.16960600  0.88848000  1
  O  O34  1  0.52178800  0.49774100  0.61101800  1
  O  O35  1  0.49926500  0.83869900  0.38446300  1
loop_
_geom_bond_atom_site_label_1
_geom_bond_atom_site_label_2
_geom_bond_distance
_geom_bond_site_symmetry_2
Li0 O25 2.043021 1_645
Li0 O12 2.059428 1_645
Li0 O0 2.125031 1_555
Li0 O4 2.147940 1_555
Li0 O10 2.206403 1_655
Li0 O30 2.292456 1_545
Li1 O10 2.080344 1_555
Li1 O24 2.096780 1_455
Li1 O1 2.122236 1_454
Li1 O0 2.137824 1_455
Li1 O15 2.138693 1_554
Li1 O16 2.150869 1_554
Li2 O29 2.044569 1_555
Li2 O6 2.051293 1_545
Li2 O27 2.146640 1_545
Li2 O33 2.173615 1_555
Li2 O8 2.194774 1_555
Li2 O2 2.224881 1_545
Li3 O1 2.068229 1_555
Li3 O28 2.080653 1_555
Li3 O6 2.145192 1_555
Li3 O2 2.160498 1_555
Li3 O9 2.167789 1_555
Li3 O7 2.264808 1_555
Li4 O8 2.078537 1_555
Li4 O14 2.078775 1_555
Li4 O4 2.107970 1_555
Li4 O2 2.120779 1_545
Li4 O30 2.155216 1_545
Li4 O9 2.156555 1_545
Li5 O5 2.068229 1_555
Li5 O14 2.080653 1_555
Li5 O13 2.145192 1_555
Li5 O23 2.160498 1_555
Li5 O22 2.167789 1_555
Li5 O3 2.264808 1_555
Li6 O11 2.053284 1_555
Li6 O3 2.067788 1_555
Li6 O4 2.124842 1_555
Li6 O0 2.171737 1_555
Li6 O14 2.183199 1_555
Li6 O24 2.269218 1_555
Li7 O0 2.049060 1_555
Li7 O35 2.053529 1_545
Li7 O5 2.158376 1_555
Li7 O14 2.164014 1_555
Li7 O30 2.172332 1_545
Li7 O21 2.219863 1_545
Li8 O3 2.120052 1_555
Li8 O7 2.120052 1_554
Li8 O12 2.130996 1_555
Li8 O17 2.130996 1_554
Li8 O13 2.139453 1_555
Li8 O6 2.139453 1_554
Li9 O15 2.047103 1_565
Li9 O18 2.071113 1_565
Li9 O9 2.125433 1_555
Li9 O6 2.138349 1_555
Li9 O17 2.197531 1_555
Li9 O8 2.246381 1_565
Li10 O16 2.017215 1_555
Li10 O9 2.022686 1_555
Li10 O7 2.166775 1_555
Li10 O17 2.171720 1_555
Li10 O20 2.189449 1_555
Li10 O34 2.220667 1_555
Li11 O33 2.050850 1_555
Li11 O8 2.057621 1_555
Li11 O19 2.148659 1_555
Li11 O34 2.187366 1_555
Li11 O16 2.200084 1_555
Li11 O15 2.213932 1_555
Li12 O31 2.017215 1_555
Li12 O22 2.022686 1_555
Li12 O3 2.166775 1_555
Li12 O12 2.171720 1_555
Li12 O25 2.189449 1_555
Li12 O11 2.220667 1_555
Li13 O27 2.069329 1_455
Li13 O2 2.072540 1_455
Li13 O16 2.105815 1_555
Li13 O19 2.106977 1_555
Li13 O20 2.223678 1_555
Li13 O1 2.243017 1_455
Li14 O26 2.049060 1_555
Li14 O19 2.053529 1_655
Li14 O1 2.158376 1_555
Li14 O28 2.164014 1_555
Li14 O18 2.172332 1_655
Li14 O15 2.219863 1_655
Li15 O20 2.043021 1_645
Li15 O17 2.059428 1_645
Li15 O26 2.125031 1_555
Li15 O29 2.147940 1_555
Li15 O27 2.206403 1_545
Li15 O18 2.292456 1_655
Li16 O32 2.078537 1_555
Li16 O28 2.078775 1_555
Li16 O29 2.107970 1_555
Li16 O23 2.120779 1_655
Li16 O18 2.155216 1_655
Li16 O22 2.156555 1_655
Li17 O24 2.050850 1_555
Li17 O32 2.057621 1_555
Li17 O35 2.148659 1_555
Li17 O11 2.187366 1_555
Li17 O31 2.200084 1_555
Li17 O21 2.213932 1_555
Li18 O21 2.047103 1_455
Li18 O30 2.071113 1_455
Li18 O22 2.125433 1_555
Li18 O13 2.138349 1_555
Li18 O12 2.197531 1_555
Li18 O32 2.246381 1_455
Li19 O4 2.044569 1_555
Li19 O13 2.051293 1_655
Li19 O10 2.146640 1_655
Li19 O24 2.173615 1_555
Li19 O32 2.194774 1_555
Li19 O23 2.224881 1_655
Li20 O27 2.080344 1_555
Li20 O33 2.096780 1_565
Li20 O5 2.122236 1_566
Li20 O26 2.137824 1_565
Li20 O21 2.138693 1_556
Li20 O31 2.150869 1_556
Li21 O34 2.053284 1_555
Li21 O7 2.067788 1_555
Li21 O29 2.124842 1_555
Li21 O26 2.171737 1_555
Li21 O28 2.183199 1_555
Li21 O33 2.269218 1_555
Li22 O34 2.082832 1_555
Li22 O11 2.082832 1_555
Li22 O19 2.112192 1_555
Li22 O35 2.112192 1_555
Li22 O20 2.141044 1_555
Li22 O25 2.141044 1_555
Li23 O10 2.069329 1_565
Li23 O23 2.072540 1_565
Li23 O31 2.105815 1_555
Li23 O35 2.106977 1_555
Li23 O25 2.223678 1_555
Li23 O5 2.243017 1_565
Mn0 O4 1.928834 1_555
Mn0 O29 1.928834 1_555
Mn0 O32 1.936300 1_555
Mn0 O8 1.936300 1_555
Mn0 O34 1.942777 1_555
Mn0 O11 1.942777 1_555
Cr0 O3 1.886814 1_555
Cr0 O6 1.895730 1_554
Cr0 O31 1.958368 1_555
Cr0 O24 1.975475 1_555
Cr0 O27 1.976332 1_554
Cr0 O1 1.979908 1_554
Cr1 O1 1.924129 1_554
Cr1 O5 1.924129 1_555
Cr1 O0 1.925112 1_555
Cr1 O26 1.925112 1_554
Cr1 O3 2.021696 1_555
Cr1 O7 2.021696 1_554
Cr2 O33 1.897803 1_554
Cr2 O10 1.903286 1_555
Cr2 O15 1.907592 1_554
Cr2 O31 1.915994 1_545
Cr2 O12 2.007593 1_545
Cr2 O6 2.022188 1_544
Cr3 O7 1.886814 1_555
Cr3 O13 1.895730 1_556
Cr3 O16 1.958368 1_555
Cr3 O33 1.975475 1_555
Cr3 O10 1.976332 1_556
Cr3 O5 1.979908 1_556
Cr4 O18 1.893821 1_555
Cr4 O19 1.963310 1_555
Cr4 O22 1.967779 1_555
Cr4 O8 1.971947 1_555
Cr4 O11 1.975588 1_555
Cr4 O14 1.996826 1_555
Cr5 O14 1.890169 1_555
Cr5 O9 1.916279 1_545
Cr5 O23 1.950619 1_555
Cr5 O18 1.956452 1_555
Cr5 O35 1.967881 1_545
Cr5 O20 2.019114 1_545
Cr6 O12 1.890289 1_555
Cr6 O17 1.890289 1_554
Cr6 O15 1.981843 1_564
Cr6 O21 1.981843 1_455
Cr6 O0 2.000512 1_465
Cr6 O26 2.000512 1_464
Cr7 O24 1.897803 1_556
Cr7 O27 1.903286 1_555
Cr7 O21 1.907592 1_556
Cr7 O16 1.915994 1_655
Cr7 O17 2.007593 1_655
Cr7 O13 2.022188 1_656
Cr8 O28 1.890169 1_555
Cr8 O22 1.916279 1_655
Cr8 O2 1.950619 1_555
Cr8 O30 1.956452 1_555
Cr8 O19 1.967881 1_655
Cr8 O25 2.019114 1_655
Cr9 O20 1.901666 1_555
Cr9 O25 1.901666 1_555
Cr9 O29 1.983652 1_465
Cr9 O4 1.983652 1_465
Cr9 O2 1.996159 1_455
Cr9 O23 1.996159 1_565
Cr10 O30 1.893821 1_555
Cr10 O35 1.963310 1_555
Cr10 O9 1.967779 1_555
Cr10 O32 1.971947 1_555
Cr10 O34 1.975588 1_555
Cr10 O28 1.996826 1_555
