# generated using pymatgen
data_Sr18Co12O35
_symmetry_space_group_name_H-M   'P 1'
_cell_length_a   11.96704834
_cell_length_b   11.96704834
_cell_length_c   7.74025150
_cell_angle_alpha   80.70261555
_cell_angle_beta   80.70261555
_cell_angle_gamma   118.68877812
_symmetry_Int_Tables_number   1
_chemical_formula_structural   Sr18Co12O35
_chemical_formula_sum   'Sr18 Co12 O35'
_cell_volume   922.30076588
_cell_formula_units_Z   1
loop_
 _symmetry_equiv_pos_site_id
 _symmetry_equiv_pos_as_xyz
  1  'x, y, z'
loop_
 _atom_site_type_symbol
 _atom_site_label
 _atom_site_symmetry_multiplicity
 _atom_site_fract_x
 _atom_site_fract_y
 _atom_site_fract_z
 _atom_site_occupancy
  Sr  Sr0  1  0.50647400  0.15073400  0.83715700  1
  Sr  Sr1  1  0.19111400  0.81179700  0.00055600  1
  Sr  Sr2  1  0.81179700  0.19111400  0.00055600  1
  Sr  Sr3  1  0.00723600  0.00723600  0.00549300  1
  Sr  Sr4  1  0.15073400  0.50647400  0.83715700  1
  Sr  Sr5  1  0.00694500  0.00694500  0.48731600  1
  Sr  Sr6  1  0.18859500  0.81063200  0.49875300  1
  Sr  Sr7  1  0.50917300  0.14883000  0.33390900  1
  Sr  Sr8  1  0.81063200  0.18859500  0.49875300  1
  Sr  Sr9  1  0.84664100  0.47951600  0.66357400  1
  Sr  Sr10  1  0.68189500  0.68189500  0.65184600  1
  Sr  Sr11  1  0.47951600  0.84664100  0.66357400  1
  Sr  Sr12  1  0.14883000  0.50917300  0.33390900  1
  Sr  Sr13  1  0.68187500  0.68187500  0.16629600  1
  Sr  Sr14  1  0.31418100  0.31418100  0.84783000  1
  Sr  Sr15  1  0.31450800  0.31450800  0.33794300  1
  Sr  Sr16  1  0.84606900  0.48013000  0.17323000  1
  Sr  Sr17  1  0.48013000  0.84606900  0.17323000  1
  Co  Co0  1  0.26305400  0.06990800  0.66603900  1
  Co  Co1  1  0.59753900  0.40295600  0.00020400  1
  Co  Co2  1  0.40295600  0.59753900  0.00020400  1
  Co  Co3  1  0.71233800  0.93169500  0.83928200  1
  Co  Co4  1  0.93169500  0.71233800  0.83928200  1
  Co  Co5  1  0.06990800  0.26305400  0.66603900  1
  Co  Co6  1  0.40059800  0.59814000  0.49975200  1
  Co  Co7  1  0.59814000  0.40059800  0.49975200  1
  Co  Co8  1  0.26455500  0.06763600  0.16762600  1
  Co  Co9  1  0.92922400  0.73696100  0.33292100  1
  Co  Co10  1  0.06763600  0.26455500  0.16762600  1
  Co  Co11  1  0.73696100  0.92922400  0.33292100  1
  O  O0  1  0.24528900  0.05012600  0.92803800  1
  O  O1  1  0.58806400  0.74974100  0.91571200  1
  O  O2  1  0.13782100  0.13782100  0.68145100  1
  O  O3  1  0.63528900  0.03811400  0.83270400  1
  O  O4  1  0.70023800  0.31386900  0.99794900  1
  O  O5  1  0.31386900  0.70023800  0.99794900  1
  O  O6  1  0.74974100  0.58806400  0.91571200  1
  O  O7  1  0.03811400  0.63528900  0.83270400  1
  O  O8  1  0.05012600  0.24528900  0.92803800  1
  O  O9  1  0.58585900  0.41930600  0.76681800  1
  O  O10  1  0.30789400  0.69618100  0.49731200  1
  O  O11  1  0.03356900  0.64896000  0.32841100  1
  O  O12  1  0.64896000  0.03356900  0.32841100  1
  O  O13  1  0.96740300  0.35527800  0.66683800  1
  O  O14  1  0.24404100  0.05001800  0.42448600  1
  O  O15  1  0.58571800  0.42008600  0.23077800  1
  O  O16  1  0.57052000  0.74129500  0.42224900  1
  O  O17  1  0.95029800  0.77055500  0.59630900  1
  O  O18  1  0.26081500  0.42975400  0.57704200  1
  O  O19  1  0.69618100  0.30789400  0.49731200  1
  O  O20  1  0.42975400  0.26081500  0.57704200  1
  O  O21  1  0.35527800  0.96740300  0.66683800  1
  O  O22  1  0.41930600  0.58585900  0.76681800  1
  O  O23  1  0.05001800  0.24404100  0.42448600  1
  O  O24  1  0.74129500  0.57052000  0.42224900  1
  O  O25  1  0.77055500  0.95029800  0.59630900  1
  O  O26  1  0.42008600  0.58571800  0.23077800  1
  O  O27  1  0.95066300  0.77115000  0.04323900  1
  O  O28  1  0.14643000  0.14643000  0.17643900  1
  O  O29  1  0.85697100  0.85697100  0.32157800  1
  O  O30  1  0.96489400  0.35427400  0.17247700  1
  O  O31  1  0.42539600  0.25177000  0.08138800  1
  O  O32  1  0.25177000  0.42539600  0.08138800  1
  O  O33  1  0.35427400  0.96489400  0.17247700  1
  O  O34  1  0.77115000  0.95066300  0.04323900  1
loop_
_geom_bond_atom_site_label_1
_geom_bond_atom_site_label_2
_geom_bond_distance
_geom_bond_site_symmetry_2
Co0 O14 1.957904 1_555
Co0 O0 1.967492 1_555
Co0 O21 2.005591 1_545
Co0 O2 2.015865 1_555
Co0 O20 2.084535 1_555
Co1 O15 1.819800 1_555
Co1 O9 1.820653 1_554
Co1 O31 1.883605 1_555
Co1 O4 1.975956 1_554
Co1 O6 1.981294 1_554
Co2 O26 1.819800 1_555
Co2 O22 1.820653 1_554
Co2 O32 1.883605 1_555
Co2 O5 1.975956 1_554
Co2 O1 1.981294 1_554
Co3 O34 1.833169 1_556
Co3 O25 1.834204 1_555
Co3 O1 1.869068 1_555
Co3 O3 1.896376 1_565
Co4 O27 1.833169 1_556
Co4 O17 1.834204 1_555
Co4 O6 1.869068 1_555
Co4 O7 1.896376 1_655
Co5 O23 1.957904 1_555
Co5 O8 1.967492 1_555
Co5 O13 2.005591 1_455
Co5 O2 2.015865 1_555
Co5 O18 2.084535 1_555
Co6 O18 1.807617 1_555
Co6 O16 1.832717 1_555
Co6 O10 1.963910 1_555
Co6 O26 2.094590 1_555
Co6 O22 2.104240 1_555
Co7 O20 1.807617 1_555
Co7 O24 1.832717 1_555
Co7 O19 1.963910 1_555
Co7 O15 2.094590 1_555
Co7 O9 2.104240 1_555
Co8 O14 1.927345 1_555
Co8 O0 1.937384 1_554
Co8 O33 1.982785 1_545
Co8 O31 2.010827 1_555
Co8 O28 2.039961 1_555
Co9 O11 1.982390 1_655
Co9 O29 1.998484 1_555
Co9 O24 2.062756 1_555
Co9 O27 2.162788 1_555
Co9 O17 2.171426 1_555
Co10 O23 1.927345 1_555
Co10 O8 1.937384 1_554
Co10 O30 1.982785 1_455
Co10 O32 2.010827 1_555
Co10 O28 2.039961 1_555
Co11 O12 1.982390 1_565
Co11 O29 1.998484 1_555
Co11 O16 2.062756 1_555
Co11 O34 2.162788 1_555
Co11 O25 2.171426 1_555
O0 Sr1 2.541589 1_546
O0 Sr3 2.585217 1_556
O0 Sr0 2.667719 1_555
O0 Sr14 2.783873 1_555
O1 Sr13 2.598436 1_556
O1 Sr10 2.600292 1_555
O1 Sr17 2.882775 1_556
O1 Sr11 2.893960 1_555
O2 Sr3 2.509474 1_556
O2 Sr5 2.515889 1_555
O2 Sr14 2.836698 1_555
O2 Sr15 2.843501 1_555
O3 Sr0 2.487251 1_555
O3 Sr8 2.728166 1_555
O3 Sr2 2.728419 1_556
O3 Sr17 2.835661 1_546
O3 Sr11 2.845330 1_545
O4 Sr2 2.413045 1_556
O4 Sr16 2.673675 1_556
O4 Sr9 2.690763 1_555
O4 Sr7 2.823918 1_556
O4 Sr0 2.847509 1_555
O5 Sr1 2.413045 1_556
O5 Sr17 2.673675 1_556
O5 Sr11 2.690763 1_555
O5 Sr12 2.823918 1_556
O5 Sr4 2.847509 1_555
O6 Sr13 2.598436 1_556
O6 Sr10 2.600292 1_555
O6 Sr16 2.882775 1_556
O6 Sr9 2.893960 1_555
O7 Sr4 2.487251 1_555
O7 Sr6 2.728166 1_555
O7 Sr1 2.728419 1_556
O7 Sr16 2.835661 1_456
O7 Sr9 2.845330 1_455
O8 Sr2 2.541589 1_456
O8 Sr3 2.585217 1_556
O8 Sr4 2.667719 1_555
O8 Sr14 2.783873 1_555
O9 Sr10 2.699275 1_555
O9 Sr14 2.775878 1_555
O9 Sr9 2.783219 1_555
O9 Sr0 2.804420 1_555
O10 Sr6 2.406533 1_555
O10 Sr17 2.661599 1_555
O10 Sr11 2.677416 1_555
O10 Sr12 2.798915 1_555
O10 Sr4 2.825435 1_555
O11 Sr12 2.629462 1_555
O11 Sr6 2.663061 1_555
O11 Sr1 2.668438 1_555
O11 Sr16 2.803911 1_455
O11 Sr9 2.813537 1_455
O12 Sr7 2.629462 1_555
O12 Sr8 2.663061 1_555
O12 Sr2 2.668438 1_555
O12 Sr17 2.803911 1_545
O12 Sr11 2.813537 1_545
O13 Sr9 2.522331 1_555
O13 Sr8 2.688024 1_555
O13 Sr2 2.700565 1_556
O13 Sr12 2.750636 1_655
O13 Sr4 2.778331 1_655
O14 Sr6 2.548946 1_545
O14 Sr5 2.573260 1_555
O14 Sr7 2.714400 1_555
O14 Sr15 2.783499 1_555
O15 Sr13 2.689974 1_555
O15 Sr15 2.769947 1_555
O15 Sr16 2.778602 1_555
O15 Sr7 2.843459 1_555
O16 Sr10 2.589739 1_555
O16 Sr13 2.591964 1_555
O16 Sr17 2.766276 1_555
O16 Sr11 2.772402 1_555
O17 Sr5 2.525227 1_665
O17 Sr6 2.608935 1_655
O17 Sr10 2.786024 1_555
O17 Sr9 2.999605 1_555
O18 Sr15 2.651655 1_555
O18 Sr14 2.656629 1_555
O18 Sr4 2.744708 1_555
O18 Sr12 2.775005 1_555
O19 Sr8 2.406533 1_555
O19 Sr16 2.661599 1_555
O19 Sr9 2.677416 1_555
O19 Sr7 2.798915 1_555
O19 Sr0 2.825435 1_555
O20 Sr15 2.651655 1_555
O20 Sr14 2.656629 1_555
O20 Sr0 2.744708 1_555
O20 Sr7 2.775005 1_555
O21 Sr11 2.522331 1_555
O21 Sr6 2.688024 1_555
O21 Sr1 2.700565 1_556
O21 Sr7 2.750636 1_565
O21 Sr0 2.778331 1_565
O22 Sr10 2.699275 1_555
O22 Sr14 2.775878 1_555
O22 Sr11 2.783219 1_555
O22 Sr4 2.804420 1_555
O23 Sr8 2.548946 1_455
O23 Sr5 2.573260 1_555
O23 Sr12 2.714400 1_555
O23 Sr15 2.783499 1_555
O24 Sr10 2.589739 1_555
O24 Sr13 2.591964 1_555
O24 Sr16 2.766276 1_555
O24 Sr9 2.772402 1_555
O25 Sr5 2.525227 1_665
O25 Sr8 2.608935 1_565
O25 Sr10 2.786024 1_555
O25 Sr11 2.999605 1_555
O26 Sr13 2.689974 1_555
O26 Sr15 2.769947 1_555
O26 Sr17 2.778602 1_555
O26 Sr12 2.843459 1_555
O27 Sr3 2.521649 1_665
O27 Sr1 2.631114 1_655
O27 Sr13 2.788726 1_555
O27 Sr16 2.997248 1_555
O28 Sr3 2.461807 1_555
O28 Sr5 2.468182 1_555
O28 Sr14 2.713030 1_554
O28 Sr15 2.719326 1_555
O29 Sr5 2.546218 1_665
O29 Sr3 2.550542 1_665
O29 Sr13 2.763684 1_555
O29 Sr10 2.763788 1_555
O30 Sr16 2.519302 1_555
O30 Sr8 2.660538 1_555
O30 Sr2 2.670698 1_555
O30 Sr12 2.749953 1_655
O30 Sr4 2.778163 1_654
O31 Sr15 2.618176 1_555
O31 Sr14 2.625417 1_554
O31 Sr0 2.692438 1_554
O31 Sr7 2.717350 1_555
O32 Sr15 2.618176 1_555
O32 Sr14 2.625417 1_554
O32 Sr4 2.692438 1_554
O32 Sr12 2.717350 1_555
O33 Sr17 2.519302 1_555
O33 Sr6 2.660538 1_555
O33 Sr1 2.670698 1_555
O33 Sr7 2.749953 1_565
O33 Sr0 2.778163 1_564
O34 Sr3 2.521649 1_665
O34 Sr2 2.631114 1_565
O34 Sr13 2.788726 1_555
O34 Sr17 2.997248 1_555
