# generated using pymatgen
data_Li3NiPCO7
_symmetry_space_group_name_H-M   'P 1'
_cell_length_a   8.35604266
_cell_length_b   9.89314113
_cell_length_c   6.39644279
_cell_angle_alpha   89.73213132
_cell_angle_beta   90.25857771
_cell_angle_gamma   85.00293744
_symmetry_Int_Tables_number   1
_chemical_formula_structural   Li3NiPCO7
_chemical_formula_sum   'Li12 Ni4 P4 C4 O28'
_cell_volume   526.75601362
_cell_formula_units_Z   4
loop_
 _symmetry_equiv_pos_site_id
 _symmetry_equiv_pos_as_xyz
  1  'x, y, z'
loop_
 _atom_site_type_symbol
 _atom_site_label
 _atom_site_symmetry_multiplicity
 _atom_site_fract_x
 _atom_site_fract_y
 _atom_site_fract_z
 _atom_site_occupancy
  Li  Li0  1  0.10258100  0.38901200  0.25298600  1
  Li  Li1  1  0.09625200  0.87890900  0.25398400  1
  Li  Li2  1  0.27539800  0.13185200  0.49021400  1
  Li  Li3  1  0.27557700  0.61172700  0.00620400  1
  Li  Li4  1  0.27603900  0.61126000  0.49142900  1
  Li  Li5  1  0.34442700  0.39920600  0.74796600  1
  Li  Li6  1  0.71861300  0.37947800  0.52778600  1
  Li  Li7  1  0.71812500  0.37904800  0.97267400  1
  Li  Li8  1  0.72241800  0.87382200  0.52223100  1
  Li  Li9  1  0.72349400  0.87374400  0.97881300  1
  Li  Li10  1  0.90547100  0.11856400  0.75057700  1
  Li  Li11  1  0.89879300  0.61393600  0.74919200  1
  Ni  Ni0  1  0.27273900  0.13768900  0.00508700  1
  Ni  Ni1  1  0.33419000  0.89388300  0.74903500  1
  Ni  Ni2  1  0.66680900  0.10348800  0.24955300  1
  Ni  Ni3  1  0.66736800  0.60306000  0.24901400  1
  P  P0  1  0.41089300  0.36166500  0.24701400  1
  P  P1  1  0.41529100  0.86350200  0.25086600  1
  P  P2  1  0.59005900  0.14139800  0.75239700  1
  P  P3  1  0.58327200  0.64146800  0.74951000  1
  C  C0  1  0.03757400  0.34971600  0.75795200  1
  C  C1  1  0.04066000  0.85126700  0.75166900  1
  C  C2  1  0.96093500  0.14780500  0.24606400  1
  C  C3  1  0.96025000  0.64877900  0.24982700  1
  O  O0  1  0.07242700  0.47228100  0.75023200  1
  O  O1  1  0.11003100  0.18070000  0.24020200  1
  O  O2  1  0.07749300  0.97613700  0.75152700  1
  O  O3  1  0.15140300  0.24917600  0.76872500  1
  O  O4  1  0.10836800  0.67772900  0.24999400  1
  O  O5  1  0.15834900  0.75654800  0.75265000  1
  O  O6  1  0.30744200  0.41083400  0.05774900  1
  O  O7  1  0.30959300  0.40367500  0.43995800  1
  O  O8  1  0.30955100  0.92321900  0.06244700  1
  O  O9  1  0.30905500  0.91460600  0.43746600  1
  O  O10  1  0.41910200  0.08705200  0.75681500  1
  O  O11  1  0.43408300  0.19967400  0.23552100  1
  O  O12  1  0.41812800  0.58784300  0.74836500  1
  O  O13  1  0.43640800  0.70653800  0.24242100  1
  O  O14  1  0.56857300  0.29663300  0.75162600  1
  O  O15  1  0.58054200  0.41207800  0.25004800  1
  O  O16  1  0.56382200  0.80056000  0.75016100  1
  O  O17  1  0.58277800  0.91640100  0.25099100  1
  O  O18  1  0.69543800  0.08475100  0.93861200  1
  O  O19  1  0.68656000  0.08363000  0.56199000  1
  O  O20  1  0.69024000  0.59085400  0.56204300  1
  O  O21  1  0.69138500  0.58946500  0.93701000  1
  O  O22  1  0.84549600  0.24271000  0.25246900  1
  O  O23  1  0.88939800  0.31834100  0.75028500  1
  O  O24  1  0.84372000  0.74516200  0.24927700  1
  O  O25  1  0.92764600  0.02342500  0.24896800  1
  O  O26  1  0.89360100  0.82086500  0.74993400  1
  O  O27  1  0.92213900  0.52483600  0.25046900  1
loop_
_geom_bond_atom_site_label_1
_geom_bond_atom_site_label_2
_geom_bond_distance
_geom_bond_site_symmetry_2
Li0 O27 1.930255 1_455
Li0 O1 2.058392 1_555
Li0 O7 2.114292 1_555
Li0 O6 2.148877 1_555
Li1 O25 1.917893 1_465
Li1 O4 1.984338 1_555
Li1 O9 2.181406 1_555
Li1 O8 2.240690 1_555
Li2 O10 2.104311 1_555
Li2 O1 2.134677 1_555
Li2 O9 2.171296 1_545
Li2 O11 2.242043 1_555
Li2 O3 2.328284 1_555
Li3 O6 2.007611 1_555
Li3 O12 2.041342 1_554
Li3 O4 2.163445 1_555
Li3 O13 2.276706 1_555
Li3 O5 2.315618 1_554
Li4 O12 2.023680 1_555
Li4 O7 2.076391 1_555
Li4 O4 2.142620 1_555
Li4 O13 2.333753 1_555
Li4 O5 2.369811 1_555
Li5 O7 1.989965 1_555
Li5 O6 2.009126 1_556
Li5 O12 2.015509 1_555
Li5 O14 2.051002 1_555
Li5 O3 2.288958 1_555
Li5 O0 2.324396 1_555
Li6 O23 2.061834 1_555
Li6 O20 2.096571 1_555
Li6 O14 2.116091 1_555
Li6 O15 2.121910 1_555
Li6 O22 2.417727 1_555
Li7 O23 2.075827 1_555
Li7 O21 2.085533 1_555
Li7 O14 2.097128 1_555
Li7 O15 2.129476 1_556
Li7 O22 2.421820 1_556
Li8 O26 2.070128 1_555
Li8 O19 2.088085 1_565
Li8 O17 2.106738 1_555
Li8 O16 2.140573 1_555
Li8 O24 2.346876 1_555
Li9 O26 2.081789 1_555
Li9 O18 2.094758 1_565
Li9 O17 2.128509 1_556
Li9 O16 2.145698 1_555
Li9 O24 2.315484 1_556
Li10 O2 1.923186 1_645
Li10 O23 1.969265 1_555
Li10 O18 2.180888 1_555
Li10 O19 2.239368 1_555
Li10 O3 2.523511 1_655
Li11 O0 1.927355 1_655
Li11 O26 2.043884 1_555
Li11 O20 2.138958 1_555
Li11 O21 2.143532 1_555
Ni0 O10 2.046189 1_554
Ni0 O1 2.053029 1_555
Ni0 O3 2.075093 1_554
Ni0 O11 2.121504 1_555
Ni0 O8 2.146904 1_545
Ni1 O9 2.010678 1_555
Ni1 O8 2.035752 1_556
Ni1 O16 2.055601 1_555
Ni1 O5 2.086450 1_555
Ni1 O10 2.096378 1_565
Ni1 O2 2.227038 1_555
Ni2 O18 2.011814 1_554
Ni2 O19 2.011835 1_555
Ni2 O17 2.035971 1_545
Ni2 O11 2.090586 1_555
Ni2 O22 2.117799 1_555
Ni2 O25 2.253275 1_555
Ni3 O21 2.010639 1_554
Ni3 O20 2.012577 1_555
Ni3 O15 2.082075 1_555
Ni3 O13 2.104524 1_555
Ni3 O24 2.123390 1_555
Ni3 O27 2.200873 1_555
C0 O0 1.272254 1_555
C0 O23 1.303208 1_455
C0 O3 1.316339 1_555
C1 O26 1.290313 1_455
C1 O5 1.297918 1_555
C1 O2 1.298870 1_555
C2 O25 1.285043 1_555
C2 O22 1.287107 1_555
C2 O1 1.315447 1_655
C3 O27 1.293427 1_555
C3 O4 1.294460 1_655
C3 O24 1.302141 1_555
O6 P0 1.536645 1_555
O7 P0 1.537959 1_555
O8 P1 1.573229 1_555
O9 P1 1.550899 1_555
O10 P2 1.569896 1_555
O11 P0 1.599503 1_555
O12 P3 1.520937 1_555
O13 P1 1.548737 1_555
O14 P2 1.530591 1_555
O15 P0 1.543278 1_555
O16 P3 1.568171 1_555
O17 P1 1.536279 1_555
O18 P2 1.551294 1_555
O19 P2 1.547670 1_555
O20 P3 1.557201 1_555
O21 P3 1.556500 1_555
