# generated using pymatgen
data_Li6Mn5O12
_symmetry_space_group_name_H-M   'P 1'
_cell_length_a   5.07254800
_cell_length_b   8.83905275
_cell_length_c   9.84306935
_cell_angle_alpha   82.37921942
_cell_angle_beta   85.27891187
_cell_angle_gamma   88.71446229
_symmetry_Int_Tables_number   1
_chemical_formula_structural   Li6Mn5O12
_chemical_formula_sum   'Li12 Mn10 O24'
_cell_volume   435.91715473
_cell_formula_units_Z   2
loop_
 _symmetry_equiv_pos_site_id
 _symmetry_equiv_pos_as_xyz
  1  'x, y, z'
loop_
 _atom_site_type_symbol
 _atom_site_label
 _atom_site_symmetry_multiplicity
 _atom_site_fract_x
 _atom_site_fract_y
 _atom_site_fract_z
 _atom_site_occupancy
  Li  Li0  1  0.97607100  0.17314000  0.51644600  1
  Li  Li1  1  0.77577600  0.60213800  0.98145700  1
  Li  Li2  1  0.73588900  0.91817400  0.98760800  1
  Li  Li3  1  0.74031100  0.24641000  0.97892900  1
  Li  Li4  1  0.61812000  0.13032100  0.74209100  1
  Li  Li5  1  0.48862200  0.01252400  0.51639000  1
  Li  Li6  1  0.48978700  0.65564500  0.51175700  1
  Li  Li7  1  0.26363000  0.08579600  0.98651600  1
  Li  Li8  1  0.25251300  0.43510600  0.98391000  1
  Li  Li9  1  0.12577900  0.62814200  0.75875000  1
  Li  Li10  1  0.01268800  0.49650000  0.51426100  1
  Li  Li11  1  0.99644800  0.81539100  0.52343400  1
  Mn  Mn0  1  0.87384600  0.36898300  0.25409700  1
  Mn  Mn1  1  0.87658900  0.03832700  0.24986500  1
  Mn  Mn2  1  0.87991300  0.70816000  0.24868500  1
  Mn  Mn3  1  0.38516400  0.87445400  0.24697400  1
  Mn  Mn4  1  0.37354100  0.54235700  0.25118300  1
  Mn  Mn5  1  0.37740300  0.20438100  0.25042700  1
  Mn  Mn6  1  0.62497600  0.46020300  0.74677200  1
  Mn  Mn7  1  0.61514100  0.79355500  0.75118900  1
  Mn  Mn8  1  0.12940200  0.29449300  0.74869300  1
  Mn  Mn9  1  0.11696900  0.95885400  0.75313100  1
  O  O0  1  0.96464200  0.11131000  0.86265500  1
  O  O1  1  0.92856700  0.43010800  0.86306600  1
  O  O2  1  0.91337100  0.78936800  0.85816900  1
  O  O3  1  0.83427600  0.32435400  0.63905200  1
  O  O4  1  0.81196200  0.96392200  0.63859400  1
  O  O5  1  0.77992500  0.64290100  0.63776600  1
  O  O6  1  0.69145000  0.84782600  0.36064900  1
  O  O7  1  0.68457800  0.17215600  0.36067300  1
  O  O8  1  0.69148800  0.53920500  0.35398500  1
  O  O9  1  0.47143500  0.60633300  0.85899300  1
  O  O10  1  0.56162100  0.07744200  0.12593400  1
  O  O11  1  0.55748300  0.38678200  0.14902900  1
  O  O12  1  0.59063000  0.73970200  0.13579700  1
  O  O13  1  0.43499000  0.29021600  0.85859000  1
  O  O14  1  0.42532800  0.93538300  0.85721800  1
  O  O15  1  0.31592100  0.46808300  0.64346200  1
  O  O16  1  0.31165000  0.82210700  0.63872500  1
  O  O17  1  0.27143800  0.13660100  0.64284500  1
  O  O18  1  0.16944400  0.33746900  0.36193000  1
  O  O19  1  0.22021500  0.02472500  0.35762800  1
  O  O20  1  0.17483400  0.67696400  0.36768000  1
  O  O21  1  0.06498800  0.56397000  0.14118500  1
  O  O22  1  0.05754200  0.89046700  0.14806800  1
  O  O23  1  0.08316200  0.22460400  0.13783700  1
loop_
_geom_bond_atom_site_label_1
_geom_bond_atom_site_label_2
_geom_bond_distance
_geom_bond_site_symmetry_2
Li0 O3 2.000506 1_555
Li0 O17 2.018806 1_655
Li0 O18 2.148846 1_655
Li0 O4 2.207486 1_545
Li0 O7 2.216899 1_555
Li0 O19 2.418837 1_655
Li1 O2 2.019493 1_555
Li1 O9 2.032139 1_555
Li1 O1 2.130560 1_555
Li1 O12 2.207323 1_556
Li1 O21 2.225909 1_656
Li1 O11 2.555652 1_556
Li2 O2 1.969760 1_555
Li2 O14 2.102931 1_555
Li2 O12 2.103342 1_556
Li2 O10 2.207151 1_566
Li2 O0 2.251784 1_565
Li2 O22 2.349540 1_656
Li3 O13 2.026092 1_555
Li3 O0 2.029260 1_555
Li3 O1 2.061101 1_555
Li3 O10 2.101806 1_556
Li3 O11 2.333798 1_556
Li3 O23 2.420958 1_656
Li4 O17 2.077004 1_555
Li4 O4 2.082197 1_545
Li4 O13 2.090677 1_555
Li4 O14 2.141212 1_545
Li4 O3 2.147625 1_555
Li4 O0 2.191678 1_555
Li5 O17 2.011943 1_555
Li5 O16 2.107368 1_545
Li5 O4 2.116042 1_545
Li5 O7 2.136993 1_555
Li5 O19 2.146235 1_555
Li5 O6 2.406843 1_545
Li6 O5 1.993257 1_555
Li6 O15 2.124693 1_555
Li6 O8 2.152422 1_555
Li6 O16 2.187575 1_555
Li6 O20 2.210797 1_555
Li6 O6 2.302528 1_555
Li7 O0 2.013333 1_455
Li7 O14 2.070776 1_545
Li7 O10 2.117331 1_556
Li7 O23 2.184430 1_556
Li7 O13 2.211961 1_555
Li7 O22 2.383594 1_546
Li8 O13 2.048516 1_555
Li8 O9 2.095885 1_555
Li8 O1 2.110913 1_455
Li8 O21 2.185275 1_556
Li8 O11 2.327489 1_556
Li8 O23 2.367543 1_556
Li9 O2 2.068049 1_455
Li9 O9 2.074647 1_555
Li9 O15 2.098574 1_555
Li9 O1 2.133501 1_455
Li9 O16 2.139166 1_555
Li9 O5 2.192114 1_455
Li10 O3 2.006535 1_455
Li10 O15 2.065500 1_555
Li10 O20 2.134416 1_555
Li10 O5 2.158443 1_455
Li10 O18 2.273553 1_555
Li10 O8 2.350219 1_455
Li11 O4 2.012272 1_555
Li11 O16 2.041701 1_655
Li11 O5 2.052786 1_555
Li11 O20 2.210381 1_655
Li11 O6 2.304227 1_555
Li11 O19 2.522688 1_665
Mn0 O18 1.901921 1_655
Mn0 O11 1.971875 1_555
Mn0 O23 2.047450 1_655
Mn0 O8 2.065522 1_555
Mn0 O7 2.115203 1_555
Mn0 O21 2.129622 1_655
Mn1 O7 1.911333 1_555
Mn1 O22 1.922688 1_645
Mn1 O6 2.078886 1_545
Mn1 O10 2.084318 1_555
Mn1 O23 2.104898 1_655
Mn1 O19 2.106883 1_655
Mn2 O12 1.906191 1_555
Mn2 O8 1.925747 1_555
Mn2 O21 1.940574 1_655
Mn2 O6 1.946013 1_555
Mn2 O20 1.967284 1_655
Mn2 O22 1.970877 1_655
Mn3 O12 1.950573 1_555
Mn3 O19 1.958182 1_565
Mn3 O6 1.980174 1_555
Mn3 O22 1.987177 1_555
Mn3 O10 2.183897 1_565
Mn3 O20 2.218543 1_555
Mn4 O20 1.965775 1_555
Mn4 O21 1.967014 1_555
Mn4 O8 1.971032 1_555
Mn4 O11 1.981759 1_555
Mn4 O12 2.213627 1_555
Mn4 O18 2.216900 1_555
Mn5 O23 1.922396 1_555
Mn5 O19 1.935142 1_555
Mn5 O10 1.939809 1_555
Mn5 O18 1.948688 1_555
Mn5 O7 1.965452 1_555
Mn5 O11 1.979678 1_555
Mn6 O9 1.920095 1_555
Mn6 O15 1.932696 1_555
Mn6 O3 1.946393 1_555
Mn6 O5 1.958418 1_555
Mn6 O13 1.962005 1_555
Mn6 O1 1.985862 1_555
Mn7 O2 1.909999 1_555
Mn7 O14 1.927506 1_555
Mn7 O16 1.961655 1_555
Mn7 O9 1.963921 1_555
Mn7 O5 1.977150 1_555
Mn7 O4 1.983785 1_555
Mn8 O3 1.910012 1_455
Mn8 O17 1.941471 1_555
Mn8 O15 1.950542 1_555
Mn8 O13 1.958810 1_555
Mn8 O1 1.963789 1_455
Mn8 O0 2.000783 1_455
Mn9 O17 1.929674 1_565
Mn9 O14 1.931887 1_555
Mn9 O0 1.943361 1_465
Mn9 O16 1.956711 1_555
Mn9 O2 1.965368 1_455
Mn9 O4 1.984278 1_455
