# generated using pymatgen
data_Fe3(O2F)2
_symmetry_space_group_name_H-M   'P 1'
_cell_length_a   4.68692100
_cell_length_b   5.62693610
_cell_length_c   7.68465742
_cell_angle_alpha   85.28824480
_cell_angle_beta   88.87116098
_cell_angle_gamma   87.88366458
_symmetry_Int_Tables_number   1
_chemical_formula_structural   Fe3(O2F)2
_chemical_formula_sum   'Fe6 O8 F4'
_cell_volume   201.81656662
_cell_formula_units_Z   2
loop_
 _symmetry_equiv_pos_site_id
 _symmetry_equiv_pos_as_xyz
  1  'x, y, z'
loop_
 _atom_site_type_symbol
 _atom_site_label
 _atom_site_symmetry_multiplicity
 _atom_site_fract_x
 _atom_site_fract_y
 _atom_site_fract_z
 _atom_site_occupancy
  Fe  Fe0  1  0.50262800  0.82831300  0.65975100  1
  Fe  Fe1  1  0.48784400  0.51055200  0.99751800  1
  Fe  Fe2  1  0.50904900  0.18607500  0.35557800  1
  Fe  Fe3  1  0.00321900  0.33705200  0.67397400  1
  Fe  Fe4  1  0.96992100  0.64652400  0.31933100  1
  Fe  Fe5  1  0.02336300  0.99085000  0.99713600  1
  O  O0  1  0.81354100  0.36571200  0.44735600  1
  O  O1  1  0.81052200  0.70983200  0.09210200  1
  O  O2  1  0.69416700  0.53998200  0.76449200  1
  O  O3  1  0.69030800  0.87003800  0.43698500  1
  O  O4  1  0.30000200  0.12387400  0.57554900  1
  O  O5  1  0.31225900  0.46274800  0.23179100  1
  O  O6  1  0.30587100  0.79870000  0.88289400  1
  O  O7  1  0.18568700  0.29405700  0.89788800  1
  F  F0  1  0.79394500  0.03859800  0.77256400  1
  F  F1  1  0.70165300  0.19925100  0.10367800  1
  F  F2  1  0.20046200  0.96604000  0.23412600  1
  F  F3  1  0.19555800  0.63179800  0.55728700  1
loop_
_geom_bond_atom_site_label_1
_geom_bond_atom_site_label_2
_geom_bond_distance
_geom_bond_site_symmetry_2
Fe0 O3 1.910319 1_555
Fe0 O6 1.928925 1_555
Fe0 O2 1.947405 1_555
Fe0 O4 1.953787 1_565
Fe1 O6 1.955775 1_555
Fe1 O5 1.967011 1_556
Fe1 O2 2.015968 1_555
Fe1 O1 2.091749 1_556
Fe1 O7 2.097414 1_555
Fe2 O4 1.950080 1_555
Fe2 O0 1.954271 1_555
Fe2 O5 1.965838 1_555
Fe2 O3 2.000525 1_545
Fe3 O7 1.930038 1_555
Fe3 O0 1.963000 1_455
Fe3 O2 1.963294 1_455
Fe3 O4 1.982478 1_555
Fe4 O1 1.914087 1_555
Fe4 O0 1.950283 1_555
Fe4 O5 2.011360 1_655
Fe4 O3 2.033501 1_555
Fe5 O6 1.922857 1_555
Fe5 O1 1.981509 1_456
Fe5 O7 1.982575 1_565
F0 Fe5 2.045049 1_645
F0 Fe3 2.059064 1_655
F0 Fe0 2.085766 1_545
F1 Fe5 2.073043 1_644
F1 Fe1 2.099023 1_554
F1 Fe2 2.116625 1_555
F2 Fe5 2.008588 1_554
F2 Fe4 2.179656 1_455
F2 Fe2 2.207072 1_565
F3 Fe3 2.049795 1_555
F3 Fe0 2.054096 1_555
F3 Fe4 2.124596 1_455
