# generated using pymatgen
data_Li2Mn3NbO8
_symmetry_space_group_name_H-M   'P 1'
_cell_length_a   6.02832623
_cell_length_b   10.77123949
_cell_length_c   6.02824392
_cell_angle_alpha   90.00121678
_cell_angle_beta   119.99792373
_cell_angle_gamma   73.74505300
_symmetry_Int_Tables_number   1
_chemical_formula_structural   Li2Mn3NbO8
_chemical_formula_sum   'Li4 Mn6 Nb2 O16'
_cell_volume   320.80165819
_cell_formula_units_Z   2
loop_
 _symmetry_equiv_pos_site_id
 _symmetry_equiv_pos_as_xyz
  1  'x, y, z'
loop_
 _atom_site_type_symbol
 _atom_site_label
 _atom_site_symmetry_multiplicity
 _atom_site_fract_x
 _atom_site_fract_y
 _atom_site_fract_z
 _atom_site_occupancy
  Li  Li0  1  0.87417700  0.18874700  0.93708800  1
  Li  Li1  1  0.87419200  0.68872600  0.43709500  1
  Li  Li2  1  0.12580900  0.31127900  0.56290400  1
  Li  Li3  1  0.12582300  0.81125700  0.06291100  1
  Mn  Mn0  1  0.49998100  0.00001700  0.49998500  1
  Mn  Mn1  1  0.00000700  0.00000200  0.50001900  1
  Mn  Mn2  1  0.50003000  0.99996800  0.00001500  1
  Mn  Mn3  1  0.50004400  0.50000000  0.00000100  1
  Mn  Mn4  1  0.99995900  0.49998600  0.99999600  1
  Mn  Mn5  1  0.49998400  0.49998100  0.50001300  1
  Nb  Nb0  1  0.50001000  0.74999600  0.75000400  1
  Nb  Nb1  1  0.49999700  0.25000700  0.24999700  1
  O  O0  1  0.72609800  0.41083300  0.86304500  1
  O  O1  1  0.72608600  0.91084800  0.36304300  1
  O  O2  1  0.27391200  0.08915500  0.63695600  1
  O  O3  1  0.27390300  0.58916800  0.13695000  1
  O  O4  1  0.73451600  0.62810400  0.09708400  1
  O  O5  1  0.73449300  0.12811600  0.59705900  1
  O  O6  1  0.27484700  0.62809100  0.63741800  1
  O  O7  1  0.27485300  0.12810800  0.13742000  1
  O  O8  1  0.73450700  0.62811000  0.63742000  1
  O  O9  1  0.73449000  0.12812300  0.13742800  1
  O  O10  1  0.26550600  0.87188200  0.86256900  1
  O  O11  1  0.26549100  0.37189400  0.36257600  1
  O  O12  1  0.72514400  0.87189900  0.86257600  1
  O  O13  1  0.72515400  0.37191300  0.36257900  1
  O  O14  1  0.26550400  0.87189000  0.40293700  1
  O  O15  1  0.26548300  0.37190200  0.90291200  1
loop_
_geom_bond_atom_site_label_1
_geom_bond_atom_site_label_2
_geom_bond_distance
_geom_bond_site_symmetry_2
Li0 O9 1.979600 1_556
Li0 O5 1.979655 1_555
Li0 O7 1.979714 1_656
Li0 O0 2.263761 1_555
Li1 O8 1.979477 1_555
Li1 O4 1.979522 1_555
Li1 O6 1.979611 1_655
Li1 O1 2.264128 1_555
Li2 O11 1.979472 1_555
Li2 O15 1.979512 1_555
Li2 O13 1.979611 1_455
Li2 O2 2.264148 1_555
Li3 O10 1.979595 1_554
Li3 O14 1.979649 1_555
Li3 O12 1.979729 1_454
Li3 O3 2.263791 1_555
Mn0 O2 1.963043 1_555
Mn0 O1 1.963174 1_545
Mn0 O7 2.123263 1_555
Mn0 O12 2.123499 1_545
Mn0 O5 2.123576 1_555
Mn0 O14 2.123687 1_545
Mn1 O2 1.963336 1_555
Mn1 O1 1.963418 1_445
Mn1 O5 2.123231 1_455
Mn1 O14 2.123314 1_545
Mn1 O10 2.123328 1_545
Mn1 O9 2.123500 1_455
Mn2 O1 1.963013 1_555
Mn2 O2 1.963369 1_564
Mn2 O12 2.123016 1_554
Mn2 O7 2.123478 1_565
Mn2 O10 2.123510 1_554
Mn2 O9 2.123868 1_565
Mn3 O0 1.962996 1_554
Mn3 O3 1.963369 1_555
Mn3 O13 2.123304 1_555
Mn3 O6 2.123316 1_554
Mn3 O4 2.123447 1_555
Mn3 O15 2.123772 1_554
Mn4 O0 1.963133 1_555
Mn4 O3 1.963743 1_656
Mn4 O4 2.123135 1_556
Mn4 O15 2.123305 1_655
Mn4 O11 2.123325 1_656
Mn4 O8 2.123433 1_555
Mn5 O0 1.963120 1_555
Mn5 O3 1.963388 1_555
Mn5 O6 2.123169 1_555
Mn5 O13 2.123210 1_555
Mn5 O11 2.123394 1_555
Mn5 O8 2.123879 1_555
Nb0 O10 2.025509 1_555
Nb0 O8 2.025558 1_555
Nb0 O14 2.025625 1_555
Nb0 O12 2.025635 1_555
Nb0 O4 2.025669 1_556
Nb0 O6 2.025772 1_555
Nb1 O9 2.025470 1_555
Nb1 O11 2.025580 1_555
Nb1 O5 2.025590 1_555
Nb1 O7 2.025640 1_555
Nb1 O15 2.025704 1_554
Nb1 O13 2.025757 1_555
