# generated using pymatgen
data_Ba2MgO3
_symmetry_space_group_name_H-M   'P 1'
_cell_length_a   6.51939133
_cell_length_b   6.51939133
_cell_length_c   12.74137867
_cell_angle_alpha   88.68220070
_cell_angle_beta   88.68220070
_cell_angle_gamma   125.19389198
_symmetry_Int_Tables_number   1
_chemical_formula_structural   Ba2MgO3
_chemical_formula_sum   'Ba8 Mg4 O12'
_cell_volume   441.99706917
_cell_formula_units_Z   4
loop_
 _symmetry_equiv_pos_site_id
 _symmetry_equiv_pos_as_xyz
  1  'x, y, z'
loop_
 _atom_site_type_symbol
 _atom_site_label
 _atom_site_symmetry_multiplicity
 _atom_site_fract_x
 _atom_site_fract_y
 _atom_site_fract_z
 _atom_site_occupancy
  Ba  Ba0  1  0.86846700  0.65198000  0.42492000  1
  Ba  Ba1  1  0.96935500  0.55510200  0.85018700  1
  Ba  Ba2  1  0.55510200  0.96935500  0.35018700  1
  Ba  Ba3  1  0.34802000  0.13153300  0.07508000  1
  Ba  Ba4  1  0.65198000  0.86846700  0.92492000  1
  Ba  Ba5  1  0.44489800  0.03064500  0.64981300  1
  Ba  Ba6  1  0.03064500  0.44489800  0.14981300  1
  Ba  Ba7  1  0.13153300  0.34802000  0.57508000  1
  Mg  Mg0  1  0.73805300  0.73046400  0.66595200  1
  Mg  Mg1  1  0.73046400  0.73805300  0.16595200  1
  Mg  Mg2  1  0.26953600  0.26194700  0.83404800  1
  Mg  Mg3  1  0.26194700  0.26953600  0.33404800  1
  O  O0  1  0.87993600  0.68240300  0.03753300  1
  O  O1  1  0.84773700  0.50506200  0.63264900  1
  O  O2  1  0.58742400  0.41257600  0.25000000  1
  O  O3  1  0.99797200  0.00202800  0.25000000  1
  O  O4  1  0.49493800  0.15226300  0.86735100  1
  O  O5  1  0.31759700  0.12006400  0.46246700  1
  O  O6  1  0.68240300  0.87993600  0.53753300  1
  O  O7  1  0.50506200  0.84773700  0.13264900  1
  O  O8  1  0.41257600  0.58742400  0.75000000  1
  O  O9  1  0.00202800  0.99797200  0.75000000  1
  O  O10  1  0.15226300  0.49493800  0.36735100  1
  O  O11  1  0.12006400  0.31759700  0.96246700  1
loop_
_geom_bond_atom_site_label_1
_geom_bond_atom_site_label_2
_geom_bond_distance
_geom_bond_site_symmetry_2
Ba0 O10 2.676750 1_655
Ba0 O1 2.767438 1_555
Ba0 O2 2.794952 1_555
Ba0 O6 2.799071 1_555
Ba0 O5 2.818988 1_665
Ba0 O3 2.889041 1_565
Ba0 O5 3.262075 1_555
Ba1 O4 2.662815 1_555
Ba1 O11 2.669437 1_655
Ba1 O0 2.703961 1_556
Ba1 O1 2.874388 1_555
Ba1 O9 3.019951 1_655
Ba1 O8 3.023147 1_655
Ba1 O4 3.412050 1_665
Ba2 O10 2.662815 1_555
Ba2 O5 2.669437 1_565
Ba2 O6 2.703961 1_555
Ba2 O7 2.874388 1_555
Ba2 O3 3.019951 1_565
Ba2 O2 3.023147 1_565
Ba2 O10 3.412050 1_665
Ba3 O7 2.676750 1_545
Ba3 O4 2.767438 1_554
Ba3 O2 2.794952 1_555
Ba3 O11 2.799071 1_554
Ba3 O0 2.818988 1_445
Ba3 O3 2.889041 1_455
Ba3 O0 3.262075 1_555
Ba4 O4 2.676750 1_565
Ba4 O7 2.767438 1_556
Ba4 O8 2.794952 1_555
Ba4 O0 2.799071 1_556
Ba4 O11 2.818988 1_665
Ba4 O9 2.889041 1_655
Ba4 O11 3.262075 1_555
Ba5 O1 2.662815 1_555
Ba5 O6 2.669437 1_545
Ba5 O5 2.703961 1_555
Ba5 O4 2.874388 1_555
Ba5 O9 3.019951 1_545
Ba5 O8 3.023147 1_545
Ba5 O1 3.412050 1_445
Ba6 O7 2.662815 1_555
Ba6 O0 2.669437 1_455
Ba6 O11 2.703961 1_554
Ba6 O10 2.874388 1_555
Ba6 O3 3.019951 1_455
Ba6 O2 3.023147 1_455
Ba6 O7 3.412050 1_445
Ba7 O1 2.676750 1_455
Ba7 O10 2.767438 1_555
Ba7 O8 2.794952 1_555
Ba7 O5 2.799071 1_555
Ba7 O6 2.818988 1_445
Ba7 O9 2.889041 1_545
Ba7 O6 3.262075 1_555
Mg0 O9 1.964957 1_655
Mg0 O1 2.019089 1_555
Mg0 O8 2.021778 1_555
Mg0 O6 2.029770 1_555
Mg1 O3 1.964957 1_565
Mg1 O7 2.019089 1_555
Mg1 O2 2.021778 1_555
Mg1 O0 2.029770 1_555
Mg2 O9 1.964957 1_545
Mg2 O4 2.019089 1_555
Mg2 O8 2.021778 1_555
Mg2 O11 2.029770 1_555
Mg3 O3 1.964957 1_455
Mg3 O10 2.019089 1_555
Mg3 O2 2.021778 1_555
Mg3 O5 2.029770 1_555
