# generated using pymatgen
data_RbP(HO2)2
_symmetry_space_group_name_H-M   'P 1'
_cell_length_a   6.53382700
_cell_length_b   8.36102100
_cell_length_c   9.42381534
_cell_angle_alpha   67.44241233
_cell_angle_beta   90.00000000
_cell_angle_gamma   90.00000000
_symmetry_Int_Tables_number   1
_chemical_formula_structural   RbP(HO2)2
_chemical_formula_sum   'Rb4 P4 H8 O16'
_cell_volume   475.43154570
_cell_formula_units_Z   4
loop_
 _symmetry_equiv_pos_site_id
 _symmetry_equiv_pos_as_xyz
  1  'x, y, z'
loop_
 _atom_site_type_symbol
 _atom_site_label
 _atom_site_symmetry_multiplicity
 _atom_site_fract_x
 _atom_site_fract_y
 _atom_site_fract_z
 _atom_site_occupancy
  Rb  Rb0  1  0.23702200  0.74278600  0.77914800  1
  Rb  Rb1  1  0.73702200  0.25721400  0.72085200  1
  Rb  Rb2  1  0.76297800  0.25721400  0.22085200  1
  Rb  Rb3  1  0.26297800  0.74278600  0.27914800  1
  P  P0  1  0.29110500  0.26798600  0.98633400  1
  P  P1  1  0.79110500  0.73201400  0.51366600  1
  P  P2  1  0.70889500  0.73201400  0.01366600  1
  P  P3  1  0.20889500  0.26798600  0.48633400  1
  H  H0  1  0.92258500  0.93863000  0.96237100  1
  H  H1  1  0.42258500  0.06137000  0.53762900  1
  H  H2  1  0.07741500  0.06137000  0.03762900  1
  H  H3  1  0.57741500  0.93863000  0.46237100  1
  H  H4  1  0.78359700  0.61574100  0.83970300  1
  H  H5  1  0.28359700  0.38425900  0.66029700  1
  H  H6  1  0.21640300  0.38425900  0.16029700  1
  H  H7  1  0.71640300  0.61574100  0.33970300  1
  O  O0  1  0.75261100  0.58076400  0.95474800  1
  O  O1  1  0.25261100  0.41923600  0.54525200  1
  O  O2  1  0.24738900  0.41923600  0.04525200  1
  O  O3  1  0.74738900  0.58076400  0.45474800  1
  O  O4  1  0.91823600  0.87646600  0.40449100  1
  O  O5  1  0.41823600  0.12353400  0.09550900  1
  O  O6  1  0.08176400  0.12353400  0.59550900  1
  O  O7  1  0.58176400  0.87646600  0.90449100  1
  O  O8  1  0.64233400  0.64114000  0.17955100  1
  O  O9  1  0.14233400  0.35886000  0.32044900  1
  O  O10  1  0.35766600  0.35886000  0.82044900  1
  O  O11  1  0.85766600  0.64114000  0.67955100  1
  O  O12  1  0.55800100  0.81400400  0.51435100  1
  O  O13  1  0.05800100  0.18599600  0.98564900  1
  O  O14  1  0.44199900  0.18599600  0.48564900  1
  O  O15  1  0.94199900  0.81400400  0.01435100  1
loop_
_geom_bond_atom_site_label_1
_geom_bond_atom_site_label_2
_geom_bond_distance
_geom_bond_site_symmetry_2
H0 O15 0.974782 1_556
H0 Rb1 3.015651 1_565
H1 O14 0.974782 1_555
H1 Rb0 3.015651 1_545
H2 O13 0.974782 1_554
H2 Rb3 3.015651 1_545
H3 O12 0.974782 1_555
H3 Rb2 3.015651 1_565
H4 O0 1.028916 1_555
H4 O11 1.520271 1_555
H4 Rb0 3.125046 1_655
H5 O1 1.028916 1_555
H5 O10 1.520271 1_555
H5 Rb1 3.125046 1_555
H6 O2 1.028916 1_555
H6 O9 1.520271 1_555
H6 Rb2 3.125046 1_455
H7 O3 1.028916 1_555
H7 O8 1.520271 1_555
H7 Rb3 3.125046 1_555
O0 P2 1.589905 1_556
O0 Rb2 2.899416 1_556
O1 P3 1.589905 1_555
O1 Rb3 2.899416 1_555
O2 P0 1.589905 1_554
O2 Rb0 2.899416 1_554
O3 P1 1.589905 1_555
O3 Rb1 2.899416 1_555
O4 P1 1.501282 1_555
O4 Rb3 2.954846 1_655
O4 Rb2 3.151426 1_565
O5 P0 1.501282 1_554
O5 Rb2 2.954846 1_555
O5 Rb3 3.151426 1_545
O6 P3 1.501282 1_555
O6 Rb1 2.954846 1_455
O6 Rb0 3.151426 1_545
O7 P2 1.501282 1_556
O7 Rb0 2.954846 1_555
O7 Rb1 3.151426 1_565
O8 P2 1.516231 1_555
O8 Rb3 2.891174 1_555
O8 Rb2 3.180957 1_555
O9 P3 1.516231 1_555
O9 Rb2 2.891174 1_455
O9 Rb3 3.180957 1_555
O10 P0 1.516231 1_555
O10 Rb1 2.891174 1_555
O10 Rb0 3.180957 1_555
O11 P1 1.516231 1_555
O11 Rb0 2.891174 1_655
O11 Rb1 3.180957 1_555
O12 P1 1.671254 1_555
O12 Rb0 3.136861 1_555
O12 Rb3 3.161620 1_555
O13 P0 1.671254 1_555
O13 Rb1 3.136861 1_455
O13 Rb2 3.161620 1_456
O14 P3 1.671254 1_555
O14 Rb2 3.136861 1_555
O14 Rb1 3.161620 1_555
O15 P2 1.671254 1_555
O15 Rb3 3.136861 1_655
O15 Rb0 3.161620 1_654
