# generated using pymatgen
data_SrTa2O7
_symmetry_space_group_name_H-M   'P 1'
_cell_length_a   3.98256300
_cell_length_b   3.98256300
_cell_length_c   9.25093600
_cell_angle_alpha   90.00000000
_cell_angle_beta   90.00000000
_cell_angle_gamma   90.00000000
_symmetry_Int_Tables_number   1
_chemical_formula_structural   SrTa2O7
_chemical_formula_sum   'Sr1 Ta2 O7'
_cell_volume   146.72732017
_cell_formula_units_Z   1
loop_
 _symmetry_equiv_pos_site_id
 _symmetry_equiv_pos_as_xyz
  1  'x, y, z'
loop_
 _atom_site_type_symbol
 _atom_site_label
 _atom_site_symmetry_multiplicity
 _atom_site_fract_x
 _atom_site_fract_y
 _atom_site_fract_z
 _atom_site_occupancy
  Sr  Sr0  1  0.50000000  0.50000000  0.00000000  1
  Ta  Ta0  1  0.00000000  0.00000000  0.77828600  1
  Ta  Ta1  1  0.00000000  0.00000000  0.22171400  1
  O  O0  1  0.00000000  0.50000000  0.80188200  1
  O  O1  1  0.50000000  0.00000000  0.80188200  1
  O  O2  1  0.00000000  0.50000000  0.19811800  1
  O  O3  1  0.50000000  0.00000000  0.19811800  1
  O  O4  1  0.00000000  0.00000000  0.57262500  1
  O  O5  1  0.00000000  0.00000000  0.42737500  1
  O  O6  1  0.00000000  0.00000000  0.00000000  1
loop_
_geom_bond_atom_site_label_1
_geom_bond_atom_site_label_2
_geom_bond_distance
_geom_bond_site_symmetry_2
O0 Ta0 2.003210 1_555
O0 Ta0 2.003210 1_565
O0 Sr0 2.706339 1_556
O0 Sr0 2.706339 1_456
O1 Ta0 2.003210 1_655
O1 Ta0 2.003210 1_555
O1 Sr0 2.706339 1_546
O1 Sr0 2.706339 1_556
O2 Ta1 2.003210 1_555
O2 Ta1 2.003210 1_565
O2 Sr0 2.706339 1_555
O2 Sr0 2.706339 1_455
O3 Ta1 2.003210 1_555
O3 Ta1 2.003210 1_655
O3 Sr0 2.706339 1_555
O3 Sr0 2.706339 1_545
O4 Ta0 1.902557 1_555
O5 Ta1 1.902557 1_555
O6 Ta0 2.051062 1_554
O6 Ta1 2.051062 1_555
O6 Sr0 2.816097 1_555
O6 Sr0 2.816097 1_445
O6 Sr0 2.816097 1_545
O6 Sr0 2.816097 1_455
