# generated using pymatgen
data_Li8VCo3(PO4)6
_symmetry_space_group_name_H-M   'P 1'
_cell_length_a   8.62154700
_cell_length_b   8.62753227
_cell_length_c   8.62983143
_cell_angle_alpha   62.33967054
_cell_angle_beta   62.46394408
_cell_angle_gamma   62.44462772
_symmetry_Int_Tables_number   1
_chemical_formula_structural   Li8VCo3(PO4)6
_chemical_formula_sum   'Li8 V1 Co3 P6 O24'
_cell_volume   478.35227669
_cell_formula_units_Z   1
loop_
 _symmetry_equiv_pos_site_id
 _symmetry_equiv_pos_as_xyz
  1  'x, y, z'
loop_
 _atom_site_type_symbol
 _atom_site_label
 _atom_site_symmetry_multiplicity
 _atom_site_fract_x
 _atom_site_fract_y
 _atom_site_fract_z
 _atom_site_occupancy
  Li  Li0  1  0.01706800  0.01788600  0.01737500  1
  Li  Li1  1  0.16438700  0.34559700  0.70718400  1
  Li  Li2  1  0.34459700  0.70904700  0.16366000  1
  Li  Li3  1  0.70655400  0.16442500  0.34529100  1
  Li  Li4  1  0.49228900  0.49223700  0.49149600  1
  Li  Li5  1  0.28398300  0.85090400  0.66818500  1
  Li  Li6  1  0.67114800  0.28081300  0.85221800  1
  Li  Li7  1  0.85036000  0.66828200  0.28384900  1
  V  V0  1  0.85444600  0.85470400  0.85374700  1
  Co  Co0  1  0.35050600  0.34967000  0.34742800  1
  Co  Co1  1  0.14768100  0.14788900  0.14794100  1
  Co  Co2  1  0.64545100  0.64578200  0.64602900  1
  P  P0  1  0.04601400  0.74599100  0.45494400  1
  P  P1  1  0.45462200  0.04660800  0.74624300  1
  P  P2  1  0.74673700  0.45423200  0.04675500  1
  P  P3  1  0.24220100  0.55072200  0.95210900  1
  P  P4  1  0.55064100  0.95120900  0.24233800  1
  P  P5  1  0.95118900  0.24345000  0.55106300  1
  O  O0  1  0.09225400  0.88768800  0.25848400  1
  O  O1  1  0.22484600  0.57592600  0.46872900  1
  O  O2  1  0.25886500  0.09245200  0.88805200  1
  O  O3  1  0.47533600  0.88835100  0.69515200  1
  O  O4  1  0.46806800  0.22548700  0.57591300  1
  O  O5  1  0.69703900  0.47418500  0.88753400  1
  O  O6  1  0.18293800  0.39413700  0.98914200  1
  O  O7  1  0.57589400  0.46776600  0.22506000  1
  O  O8  1  0.08793900  0.74808000  0.91325200  1
  O  O9  1  0.88743600  0.69551600  0.47534500  1
  O  O10  1  0.39552500  0.98771500  0.18062000  1
  O  O11  1  0.61544500  0.99059600  0.81929400  1
  O  O12  1  0.11682800  0.28139400  0.53733300  1
  O  O13  1  0.88804700  0.25789400  0.09351700  1
  O  O14  1  0.40445200  0.56968400  0.76785700  1
  O  O15  1  0.28028900  0.53843200  0.11742400  1
  O  O16  1  0.81999900  0.61414100  0.99166300  1
  O  O17  1  0.56854200  0.76667900  0.40475000  1
  O  O18  1  0.99043700  0.82013300  0.61433900  1
  O  O19  1  0.53673100  0.11669100  0.28085100  1
  O  O20  1  0.74831900  0.91430000  0.08791600  1
  O  O21  1  0.76637500  0.40532800  0.56872600  1
  O  O22  1  0.98786400  0.18268900  0.39550300  1
  O  O23  1  0.91363900  0.08826400  0.74867000  1
loop_
_geom_bond_atom_site_label_1
_geom_bond_atom_site_label_2
_geom_bond_distance
_geom_bond_site_symmetry_2
Li0 O13 2.100763 1_455
Li0 O0 2.101134 1_545
Li0 O2 2.104343 1_554
Li0 O20 2.577685 1_445
Li0 O23 2.577737 1_454
Li0 O8 2.591843 1_544
Li1 O12 2.035473 1_555
Li1 O2 2.057729 1_555
Li1 O1 2.150597 1_555
Li1 O4 2.247095 1_555
Li2 O15 2.034280 1_555
Li2 O0 2.049581 1_555
Li2 O7 2.168612 1_555
Li2 O1 2.256684 1_555
Li3 O19 2.036148 1_555
Li3 O13 2.053482 1_555
Li3 O4 2.157267 1_555
Li3 O7 2.242006 1_555
Li4 O4 2.148975 1_555
Li4 O1 2.150199 1_555
Li4 O7 2.151374 1_555
Li4 O17 2.436868 1_555
Li4 O21 2.437886 1_555
Li4 O14 2.459550 1_555
Li5 O3 1.948890 1_555
Li5 O14 2.064494 1_555
Li5 O8 2.111099 1_555
Li5 O17 2.538242 1_555
Li6 O5 1.950782 1_555
Li6 O21 2.081369 1_555
Li6 O23 2.089642 1_555
Li6 O14 2.566997 1_555
Li7 O9 1.951110 1_555
Li7 O17 2.069490 1_555
Li7 O20 2.110385 1_555
Li7 O21 2.531910 1_555
Co0 O15 2.038652 1_555
Co0 O19 2.044895 1_555
Co0 O12 2.059259 1_555
Co0 O7 2.205621 1_555
Co0 O4 2.223709 1_555
Co0 O1 2.229782 1_555
Co1 O6 1.998285 1_554
Co1 O10 2.004603 1_545
Co1 O22 2.010959 1_455
Co1 O13 2.173620 1_455
Co1 O0 2.181888 1_545
Co1 O2 2.182136 1_554
Co2 O9 2.026425 1_555
Co2 O5 2.028882 1_555
Co2 O3 2.029652 1_555
Co2 O14 2.110691 1_555
Co2 O21 2.115755 1_555
Co2 O17 2.117401 1_555
O0 P0 1.558677 1_555
O1 P0 1.568004 1_555
O2 P1 1.557113 1_555
O3 P1 1.533312 1_565
O4 P1 1.567670 1_555
O5 P2 1.535494 1_556
O6 P3 1.508320 1_555
O7 P2 1.569388 1_555
O8 P3 1.602357 1_555
O8 V0 1.991550 1_455
O9 P0 1.531974 1_655
O10 P4 1.511454 1_555
O11 P1 1.568082 1_565
O11 V0 1.927829 1_555
O12 P5 1.549400 1_455
O13 P2 1.557888 1_555
O14 P3 1.557397 1_555
O15 P3 1.553987 1_554
O16 P2 1.564587 1_556
O16 V0 1.939664 1_555
O17 P4 1.556852 1_555
O18 P0 1.566795 1_655
O18 V0 1.934175 1_555
O19 P4 1.551926 1_545
O20 P4 1.604314 1_555
O20 V0 2.001288 1_554
O21 P5 1.557819 1_555
O22 P5 1.511466 1_555
O23 P5 1.605055 1_555
O23 V0 1.992531 1_545
