# generated using pymatgen
data_Li2Fe(NiO3)2
_symmetry_space_group_name_H-M   'P 1'
_cell_length_a   4.92098388
_cell_length_b   4.92098388
_cell_length_c   9.92406500
_cell_angle_alpha   90.00000000
_cell_angle_beta   90.00000000
_cell_angle_gamma   117.45079696
_symmetry_Int_Tables_number   1
_chemical_formula_structural   Li2Fe(NiO3)2
_chemical_formula_sum   'Li4 Fe2 Ni4 O12'
_cell_volume   213.26341155
_cell_formula_units_Z   2
loop_
 _symmetry_equiv_pos_site_id
 _symmetry_equiv_pos_as_xyz
  1  'x, y, z'
loop_
 _atom_site_type_symbol
 _atom_site_label
 _atom_site_symmetry_multiplicity
 _atom_site_fract_x
 _atom_site_fract_y
 _atom_site_fract_z
 _atom_site_occupancy
  Li  Li0  1  0.63274300  0.13274300  0.75000000  1
  Li  Li1  1  0.86725700  0.36725700  0.25000000  1
  Li  Li2  1  0.13274300  0.63274300  0.75000000  1
  Li  Li3  1  0.36725700  0.86725700  0.25000000  1
  Fe  Fe0  1  0.00000000  0.00000000  0.00000000  1
  Fe  Fe1  1  0.50000000  0.50000000  0.50000000  1
  Ni  Ni0  1  0.83513700  0.16486300  0.50000000  1
  Ni  Ni1  1  0.66486300  0.33513700  0.00000000  1
  Ni  Ni2  1  0.33513700  0.66486300  0.00000000  1
  Ni  Ni3  1  0.16486300  0.83513700  0.50000000  1
  O  O0  1  0.69051600  0.03286400  0.10759500  1
  O  O1  1  0.30948400  0.96713600  0.89240500  1
  O  O2  1  0.53286400  0.19051600  0.39240500  1
  O  O3  1  0.80948400  0.46713600  0.60759500  1
  O  O4  1  0.17447900  0.17447900  0.59558000  1
  O  O5  1  0.32552100  0.32552100  0.09558000  1
  O  O6  1  0.67447900  0.67447900  0.90442000  1
  O  O7  1  0.96713600  0.30948400  0.89240500  1
  O  O8  1  0.82552100  0.82552100  0.40442000  1
  O  O9  1  0.19051600  0.53286400  0.39240500  1
  O  O10  1  0.46713600  0.80948400  0.60759500  1
  O  O11  1  0.03286400  0.69051600  0.10759500  1
loop_
_geom_bond_atom_site_label_1
_geom_bond_atom_site_label_2
_geom_bond_distance
_geom_bond_site_symmetry_2
Li0 O1 1.999160 1_545
Li0 O10 1.999160 1_545
Li0 O3 2.035184 1_555
Li0 O7 2.035184 1_555
Li1 O9 1.999160 1_655
Li1 O11 1.999160 1_655
Li1 O0 2.035184 1_555
Li1 O2 2.035184 1_555
Li2 O7 1.999160 1_455
Li2 O3 1.999160 1_455
Li2 O10 2.035184 1_555
Li2 O1 2.035184 1_555
Li3 O2 1.999160 1_565
Li3 O0 1.999160 1_565
Li3 O11 2.035184 1_555
Li3 O9 2.035184 1_555
Fe0 O5 1.914675 1_555
Fe0 O6 1.914675 1_444
Fe0 O7 1.926866 1_454
Fe0 O0 1.926866 1_455
Fe0 O11 1.926866 1_545
Fe0 O1 1.926866 1_544
Fe1 O8 1.914675 1_555
Fe1 O4 1.914675 1_555
Fe1 O10 1.926866 1_555
Fe1 O2 1.926866 1_555
Fe1 O9 1.926866 1_555
Fe1 O3 1.926866 1_555
Ni0 O2 1.881971 1_555
Ni0 O3 1.881971 1_555
Ni0 O8 1.902018 1_545
Ni0 O4 1.902018 1_655
Ni0 O10 2.134970 1_545
Ni0 O9 2.134970 1_655
Ni1 O0 1.881971 1_555
Ni1 O7 1.881971 1_554
Ni1 O6 1.902018 1_554
Ni1 O5 1.902018 1_555
Ni1 O1 2.134970 1_544
Ni1 O11 2.134970 1_655
Ni2 O11 1.881971 1_555
Ni2 O1 1.881971 1_554
Ni2 O6 1.902018 1_554
Ni2 O5 1.902018 1_555
Ni2 O7 2.134970 1_454
Ni2 O0 2.134970 1_565
Ni3 O9 1.881971 1_555
Ni3 O10 1.881971 1_555
Ni3 O8 1.902018 1_455
Ni3 O4 1.902018 1_565
Ni3 O3 2.134970 1_455
Ni3 O2 2.134970 1_565
