# generated using pymatgen
data_Ta2WO8
_symmetry_space_group_name_H-M   'P 1'
_cell_length_a   18.11844800
_cell_length_b   3.88429900
_cell_length_c   16.94644350
_cell_angle_alpha   89.96889488
_cell_angle_beta   90.00000000
_cell_angle_gamma   90.00000000
_symmetry_Int_Tables_number   1
_chemical_formula_structural   Ta2WO8
_chemical_formula_sum   'Ta16 W8 O64'
_cell_volume   1192.64763373
_cell_formula_units_Z   8
loop_
 _symmetry_equiv_pos_site_id
 _symmetry_equiv_pos_as_xyz
  1  'x, y, z'
loop_
 _atom_site_type_symbol
 _atom_site_label
 _atom_site_symmetry_multiplicity
 _atom_site_fract_x
 _atom_site_fract_y
 _atom_site_fract_z
 _atom_site_occupancy
  Ta  Ta0  1  0.90474100  0.99914100  0.25053900  1
  Ta  Ta1  1  0.09525900  0.99914100  0.75053900  1
  Ta  Ta2  1  0.05235800  0.00097400  0.36953200  1
  Ta  Ta3  1  0.94764200  0.00097400  0.86953200  1
  Ta  Ta4  1  0.22293300  0.98224900  0.25176800  1
  Ta  Ta5  1  0.77706700  0.98224900  0.75176800  1
  Ta  Ta6  1  0.15589800  0.00644800  0.55887100  1
  Ta  Ta7  1  0.84410200  0.00644800  0.05887100  1
  Ta  Ta8  1  0.15332300  0.00674900  0.93908000  1
  Ta  Ta9  1  0.84667700  0.00674900  0.43908000  1
  Ta  Ta10  1  0.54966600  0.99935400  0.13218100  1
  Ta  Ta11  1  0.55058600  0.99977500  0.36876000  1
  Ta  Ta12  1  0.45033400  0.99935400  0.63218100  1
  Ta  Ta13  1  0.44941400  0.99977500  0.86876000  1
  Ta  Ta14  1  0.40632000  0.00800900  0.24927500  1
  Ta  Ta15  1  0.59368000  0.00800900  0.74927500  1
  W  W0  1  0.05017200  0.96913300  0.13242500  1
  W  W1  1  0.94982800  0.96913300  0.63242500  1
  W  W2  1  0.65846600  0.97002200  0.55964100  1
  W  W3  1  0.34153400  0.97002200  0.05964100  1
  W  W4  1  0.34317800  0.96993000  0.44009900  1
  W  W5  1  0.65682200  0.96993000  0.94009900  1
  W  W6  1  0.72303500  0.04619500  0.24935200  1
  W  W7  1  0.27696500  0.04619500  0.74935200  1
  O  O0  1  0.25266200  0.00064600  0.00489000  1
  O  O1  1  0.25372200  0.00054000  0.49445000  1
  O  O2  1  0.74627800  0.00054000  0.99445000  1
  O  O3  1  0.74733800  0.00064600  0.50489000  1
  O  O4  1  0.43922100  0.00125000  0.13019000  1
  O  O5  1  0.43889900  0.00123200  0.36903600  1
  O  O6  1  0.56077900  0.00125000  0.63019000  1
  O  O7  1  0.56110100  0.00123200  0.86903600  1
  O  O8  1  0.31217200  0.99888200  0.17249300  1
  O  O9  1  0.68782800  0.99888200  0.67249300  1
  O  O10  1  0.31176700  0.99861300  0.32584000  1
  O  O11  1  0.68823300  0.99861300  0.82584000  1
  O  O12  1  0.01932200  0.00119200  0.24766400  1
  O  O13  1  0.98067800  0.00119200  0.74766400  1
  O  O14  1  0.58861600  0.00026300  0.02208500  1
  O  O15  1  0.58874300  0.00106300  0.47777400  1
  O  O16  1  0.41138400  0.00026300  0.52208500  1
  O  O17  1  0.41125700  0.00106300  0.97777400  1
  O  O18  1  0.65441000  0.00734600  0.16846800  1
  O  O19  1  0.65380100  0.00703600  0.33036800  1
  O  O20  1  0.34559000  0.00734600  0.66846800  1
  O  O21  1  0.34619900  0.00703600  0.83036800  1
  O  O22  1  0.27314200  0.51840500  0.74975200  1
  O  O23  1  0.72685800  0.51840500  0.24975200  1
  O  O24  1  0.34240800  0.49224500  0.06358400  1
  O  O25  1  0.34272300  0.49221300  0.43504800  1
  O  O26  1  0.65759200  0.49224500  0.56358400  1
  O  O27  1  0.65727700  0.49221300  0.93504800  1
  O  O28  1  0.95450500  0.49356800  0.63089300  1
  O  O29  1  0.95594400  0.50034100  0.86879700  1
  O  O30  1  0.04549500  0.49356800  0.13089300  1
  O  O31  1  0.04405600  0.50034100  0.36879700  1
  O  O32  1  0.09749600  0.50262900  0.74976400  1
  O  O33  1  0.90250400  0.50262900  0.24976400  1
  O  O34  1  0.59652100  0.50270600  0.74981000  1
  O  O35  1  0.40347900  0.50270600  0.24981000  1
  O  O36  1  0.54942000  0.50237700  0.37263000  1
  O  O37  1  0.55007000  0.50218100  0.12682800  1
  O  O38  1  0.44993000  0.50218100  0.62682800  1
  O  O39  1  0.45058000  0.50237700  0.87263000  1
  O  O40  1  0.16726400  0.50414900  0.56161600  1
  O  O41  1  0.83273600  0.50414900  0.06161600  1
  O  O42  1  0.16351400  0.50508000  0.94372300  1
  O  O43  1  0.83648600  0.50508000  0.44372300  1
  O  O44  1  0.22694900  0.49275800  0.24497100  1
  O  O45  1  0.77305100  0.49275800  0.74497100  1
  O  O46  1  0.14713800  0.99556100  0.16809500  1
  O  O47  1  0.15269500  0.99241900  0.33387000  1
  O  O48  1  0.85286200  0.99556100  0.66809500  1
  O  O49  1  0.84730500  0.99241900  0.83387000  1
  O  O50  1  0.08028700  0.00688000  0.02562000  1
  O  O51  1  0.08405400  0.00319900  0.47811600  1
  O  O52  1  0.91971300  0.00688000  0.52562000  1
  O  O53  1  0.91594600  0.00319900  0.97811600  1
  O  O54  1  0.52159700  0.00238700  0.24973900  1
  O  O55  1  0.47840300  0.00238700  0.74973900  1
  O  O56  1  0.81060600  0.00445500  0.17722600  1
  O  O57  1  0.18939400  0.00445500  0.67722600  1
  O  O58  1  0.19147100  0.00519600  0.82573900  1
  O  O59  1  0.80852900  0.00519600  0.32573900  1
  O  O60  1  0.06104400  0.00345900  0.63027000  1
  O  O61  1  0.93895600  0.00345900  0.13027000  1
  O  O62  1  0.06335500  0.00174900  0.86912900  1
  O  O63  1  0.93664500  0.00174900  0.36912900  1
loop_
_geom_bond_atom_site_label_1
_geom_bond_atom_site_label_2
_geom_bond_distance
_geom_bond_site_symmetry_2
O0 W3 1.862183 1_545
O0 Ta8 2.117506 1_554
O1 W4 1.868049 1_545
O1 Ta6 2.081789 1_555
O2 W5 1.868049 1_545
O2 Ta7 2.081789 1_556
O3 W2 1.862183 1_545
O3 Ta9 2.117506 1_555
O4 Ta10 2.001390 1_545
O4 Ta14 2.104447 1_555
O4 W3 2.139369 1_545
O5 Ta11 2.023608 1_545
O5 Ta14 2.113772 1_555
O5 W4 2.114883 1_545
O6 Ta12 2.001390 1_545
O6 Ta15 2.104447 1_555
O6 W2 2.139369 1_545
O7 Ta13 2.023608 1_545
O7 Ta15 2.113772 1_555
O7 W5 2.114883 1_545
O8 W3 1.988277 1_555
O8 Ta4 2.103130 1_555
O8 Ta14 2.145737 1_565
O9 W2 1.988277 1_555
O9 Ta5 2.103130 1_555
O9 Ta15 2.145737 1_565
O10 W4 2.021205 1_555
O10 Ta4 2.042155 1_555
O10 Ta14 2.149347 1_565
O11 W5 2.021205 1_555
O11 Ta5 2.042155 1_555
O11 Ta15 2.149347 1_565
O12 W0 2.035187 1_545
O12 Ta0 2.076617 1_445
O12 Ta2 2.150220 1_555
O13 W1 2.035187 1_545
O13 Ta1 2.076617 1_645
O13 Ta3 2.150220 1_555
O14 W5 1.863218 1_544
O14 Ta10 1.994745 1_545
O15 W2 1.880151 1_545
O15 Ta11 1.972531 1_545
O16 W4 1.863218 1_545
O16 Ta12 1.994745 1_545
O17 W3 1.880151 1_546
O17 Ta13 1.972531 1_545
O18 W6 1.856824 1_555
O18 Ta10 1.995187 1_545
O19 W6 1.865852 1_555
O19 Ta11 1.980233 1_545
O20 W7 1.856824 1_555
O20 Ta12 1.995187 1_545
O21 W7 1.865852 1_555
O21 Ta13 1.980233 1_545
O22 W7 1.835528 1_555
O22 W7 2.051272 1_565
O23 W6 1.835528 1_555
O23 W6 2.051272 1_565
O24 W3 1.857063 1_555
O24 W3 2.029669 1_545
O25 W4 1.857634 1_555
O25 W4 2.030479 1_545
O26 W2 1.857063 1_555
O26 W2 2.029669 1_545
O27 W5 1.857634 1_555
O27 W5 2.030479 1_545
O28 W1 1.849376 1_555
O28 W1 2.038975 1_545
O29 Ta3 1.945547 1_555
O29 Ta3 1.950464 1_565
O30 W0 1.849376 1_555
O30 W0 2.038975 1_545
O31 Ta2 1.945547 1_555
O31 Ta2 1.950464 1_565
O32 Ta1 1.929079 1_555
O32 Ta1 1.956155 1_545
O33 Ta0 1.929079 1_555
O33 Ta0 1.956155 1_545
O34 Ta15 1.922267 1_555
O34 Ta15 1.963439 1_565
O35 Ta14 1.922267 1_555
O35 Ta14 1.963439 1_565
O36 Ta11 1.933235 1_555
O36 Ta11 1.953508 1_545
O37 Ta10 1.933361 1_555
O37 Ta10 1.955200 1_545
O38 Ta12 1.933361 1_555
O38 Ta12 1.955200 1_545
O39 Ta13 1.933235 1_555
O39 Ta13 1.953508 1_545
O40 Ta6 1.944739 1_555
O40 Ta6 1.962444 1_565
O41 Ta7 1.944739 1_555
O41 Ta7 1.962444 1_565
O42 Ta8 1.946087 1_555
O42 Ta8 1.958899 1_565
O43 Ta9 1.946087 1_555
O43 Ta9 1.958899 1_565
O44 Ta4 1.906267 1_555
O44 Ta4 1.987582 1_545
O45 Ta5 1.906267 1_555
O45 Ta5 1.987582 1_545
O46 W0 1.860808 1_555
O46 Ta4 1.974620 1_555
O47 Ta4 1.885990 1_555
O47 Ta2 1.916064 1_565
O48 W1 1.860808 1_555
O48 Ta5 1.974620 1_555
O49 Ta5 1.885990 1_555
O49 Ta3 1.916064 1_565
O50 W0 1.896023 1_545
O50 Ta8 1.975317 1_554
O51 Ta6 1.888763 1_555
O51 Ta2 1.927669 1_555
O52 W1 1.896023 1_545
O52 Ta9 1.975317 1_555
O53 Ta7 1.888763 1_556
O53 Ta3 1.927669 1_555
O54 Ta10 2.056119 1_545
O54 Ta11 2.084268 1_545
O54 Ta14 2.088769 1_555
O55 Ta12 2.056119 1_545
O55 Ta13 2.084268 1_545
O55 Ta15 2.088769 1_555
O56 W6 2.009460 1_555
O56 Ta7 2.095515 1_555
O56 Ta0 2.110200 1_545
O57 W7 2.009460 1_555
O57 Ta6 2.095515 1_555
O57 Ta1 2.110200 1_545
O58 W7 2.024919 1_555
O58 Ta8 2.041317 1_555
O58 Ta1 2.159491 1_545
O59 W6 2.024919 1_555
O59 Ta9 2.041317 1_555
O59 Ta0 2.159491 1_545
O60 W1 2.019797 1_445
O60 Ta6 2.101840 1_555
O60 Ta1 2.130383 1_545
O61 W0 2.019797 1_645
O61 Ta7 2.101840 1_555
O61 Ta0 2.130383 1_545
O62 Ta8 2.015636 1_555
O62 Ta1 2.091190 1_545
O62 Ta3 2.096553 1_455
O63 Ta9 2.015636 1_555
O63 Ta0 2.091190 1_545
O63 Ta2 2.096553 1_655
