# generated using pymatgen
data_Mn12O7F17
_symmetry_space_group_name_H-M   'P 1'
_cell_length_a   4.79456300
_cell_length_b   5.77747807
_cell_length_c   15.86714877
_cell_angle_alpha   89.90456670
_cell_angle_beta   89.53536794
_cell_angle_gamma   86.92250637
_symmetry_Int_Tables_number   1
_chemical_formula_structural   Mn12O7F17
_chemical_formula_sum   'Mn12 O7 F17'
_cell_volume   438.87904293
_cell_formula_units_Z   1
loop_
 _symmetry_equiv_pos_site_id
 _symmetry_equiv_pos_as_xyz
  1  'x, y, z'
loop_
 _atom_site_type_symbol
 _atom_site_label
 _atom_site_symmetry_multiplicity
 _atom_site_fract_x
 _atom_site_fract_y
 _atom_site_fract_z
 _atom_site_occupancy
  Mn  Mn0  1  0.99462200  0.15584600  0.41607800  1
  Mn  Mn1  1  0.02101200  0.83490500  0.23909200  1
  Mn  Mn2  1  0.99944400  0.15740400  0.07955400  1
  Mn  Mn3  1  0.07047900  0.16731100  0.75120300  1
  Mn  Mn4  1  0.01147600  0.85035300  0.58102600  1
  Mn  Mn5  1  0.01582600  0.84523000  0.90863500  1
  Mn  Mn6  1  0.47283000  0.31145000  0.58922200  1
  Mn  Mn7  1  0.51456900  0.35181400  0.91879500  1
  Mn  Mn8  1  0.52008600  0.33853200  0.26106400  1
  Mn  Mn9  1  0.49560100  0.65195300  0.08287300  1
  Mn  Mn10  1  0.50490900  0.66232500  0.42197300  1
  Mn  Mn11  1  0.48776400  0.65201600  0.75353900  1
  O  O0  1  0.20140600  0.09292300  0.64043000  1
  O  O1  1  0.22696500  0.88562700  0.12934700  1
  O  O2  1  0.21564100  0.89609500  0.47031200  1
  O  O3  1  0.23754300  0.88964300  0.80262100  1
  O  O4  1  0.30420400  0.40073200  0.81293800  1
  O  O5  1  0.71080300  0.38284400  0.02840200  1
  O  O6  1  0.72796400  0.38697600  0.36937100  1
  F  F0  1  0.21701800  0.11732800  0.30616900  1
  F  F1  1  0.22996700  0.12393500  0.96918800  1
  F  F2  1  0.26078800  0.38821600  0.14949800  1
  F  F3  1  0.27584700  0.62009300  0.31155700  1
  F  F4  1  0.25099900  0.39487000  0.47507900  1
  F  F5  1  0.25495500  0.59300800  0.64163100  1
  F  F6  1  0.26399400  0.61484900  0.97697400  1
  F  F7  1  0.71973000  0.61498000  0.19189200  1
  F  F8  1  0.72903500  0.62320900  0.53337300  1
  F  F9  1  0.74013600  0.61542600  0.86487800  1
  F  F10  1  0.74482500  0.38293500  0.70047600  1
  F  F11  1  0.76928400  0.11591900  0.18885100  1
  F  F12  1  0.75156800  0.11524700  0.52000700  1
  F  F13  1  0.76304000  0.88838100  0.35141300  1
  F  F14  1  0.76263100  0.88611400  0.01784500  1
  F  F15  1  0.79095600  0.13108900  0.85494300  1
  F  F16  1  0.74208400  0.86042000  0.68975000  1
loop_
_geom_bond_atom_site_label_1
_geom_bond_atom_site_label_2
_geom_bond_distance
_geom_bond_site_symmetry_2
Mn0 O6 1.948265 1_555
Mn0 O2 1.988799 1_645
Mn1 O1 2.023534 1_555
Mn2 O5 2.022758 1_555
Mn2 O1 2.026231 1_645
Mn3 O0 1.903616 1_555
Mn3 O3 1.936237 1_545
Mn3 O4 2.053887 1_555
Mn4 O0 1.958848 1_565
Mn4 O2 2.027915 1_555
Mn5 O3 2.006073 1_555
Mn6 O0 2.025729 1_555
Mn7 O4 1.978301 1_555
Mn7 O5 1.996918 1_556
Mn8 O6 2.020983 1_555
Mn9 O1 1.956152 1_555
Mn9 O5 2.011642 1_555
Mn10 O2 2.030028 1_555
Mn10 O6 2.044100 1_555
Mn11 O3 1.934469 1_555
Mn11 O4 1.972237 1_555
F0 Mn0 2.042912 1_455
F0 Mn8 2.106280 1_555
F0 Mn1 2.205676 1_545
F1 Mn2 2.066991 1_456
F1 Mn7 2.099134 1_555
F1 Mn5 2.183742 1_545
F2 Mn8 2.181148 1_555
F2 Mn2 2.187902 1_455
F2 Mn9 2.205978 1_555
F3 Mn1 2.051924 1_555
F3 Mn10 2.096796 1_555
F3 Mn8 2.108070 1_555
F4 Mn0 2.121244 1_455
F4 Mn6 2.148710 1_555
F4 Mn10 2.181920 1_555
F5 Mn6 2.058360 1_555
F5 Mn4 2.079703 1_555
F5 Mn11 2.142466 1_555
F6 Mn9 2.039496 1_556
F6 Mn5 2.051646 1_555
F6 Mn7 2.096571 1_555
F7 Mn9 2.048645 1_555
F7 Mn1 2.116546 1_655
F7 Mn8 2.193883 1_555
F8 Mn10 2.081735 1_555
F8 Mn4 2.082890 1_655
F8 Mn6 2.398558 1_555
F9 Mn5 2.048996 1_655
F9 Mn7 2.092512 1_555
F9 Mn11 2.153084 1_555
F10 Mn11 2.103936 1_555
F10 Mn3 2.108516 1_655
F10 Mn6 2.255009 1_555
F11 Mn8 2.052388 1_555
F11 Mn2 2.068509 1_555
F11 Mn1 2.128141 1_645
F12 Mn6 2.023565 1_555
F12 Mn0 2.032071 1_555
F12 Mn4 2.154606 1_645
F13 Mn10 2.153398 1_555
F13 Mn1 2.174080 1_655
F13 Mn0 2.209406 1_565
F14 Mn5 2.113935 1_654
F14 Mn9 2.166543 1_555
F14 Mn2 2.217831 1_565
F15 Mn7 2.051782 1_555
F15 Mn5 2.105904 1_645
F15 Mn3 2.131338 1_655
F16 Mn11 2.023504 1_555
F16 Mn4 2.145669 1_655
F16 Mn3 2.627549 1_665
