# generated using pymatgen
data_Li2VO2F
_symmetry_space_group_name_H-M   'P 1'
_cell_length_a   5.19134603
_cell_length_b   7.36976916
_cell_length_c   5.99309026
_cell_angle_alpha   89.89886466
_cell_angle_beta   90.09046269
_cell_angle_gamma   89.78193107
_symmetry_Int_Tables_number   1
_chemical_formula_structural   Li2VO2F
_chemical_formula_sum   'Li8 V4 O8 F4'
_cell_volume   229.28746504
_cell_formula_units_Z   4
loop_
 _symmetry_equiv_pos_site_id
 _symmetry_equiv_pos_as_xyz
  1  'x, y, z'
loop_
 _atom_site_type_symbol
 _atom_site_label
 _atom_site_symmetry_multiplicity
 _atom_site_fract_x
 _atom_site_fract_y
 _atom_site_fract_z
 _atom_site_occupancy
  Li  Li0  1  0.65820600  0.84885500  0.00088100  1
  Li  Li1  1  0.34033300  0.15631100  0.99914100  1
  Li  Li2  1  0.29696400  0.13784500  0.50083900  1
  Li  Li3  1  0.69274900  0.85604300  0.49923000  1
  Li  Li4  1  0.85166400  0.13224600  0.25927200  1
  Li  Li5  1  0.85311800  0.13224500  0.73962300  1
  Li  Li6  1  0.15576600  0.85541400  0.26765600  1
  Li  Li7  1  0.15725700  0.85542200  0.73323200  1
  V  V0  1  0.49518100  0.50845800  0.24253300  1
  V  V1  1  0.49441900  0.50709700  0.75755500  1
  V  V2  1  0.00061300  0.50113400  0.99994500  1
  V  V3  1  0.00861700  0.50380100  0.49987000  1
  O  O0  1  0.33110400  0.65950700  0.99915500  1
  O  O1  1  0.65558700  0.35391400  0.00093600  1
  O  O2  1  0.34414600  0.64760100  0.50004300  1
  O  O3  1  0.99786100  0.99787800  0.49997100  1
  O  O4  1  0.83266400  0.64715500  0.25201000  1
  O  O5  1  0.83260400  0.64563300  0.74749100  1
  O  O6  1  0.16775100  0.35314200  0.25139500  1
  O  O7  1  0.16797400  0.35189000  0.74854100  1
  F  F0  1  0.99857000  0.00124300  0.00005000  1
  F  F1  1  0.66482800  0.33919600  0.50054400  1
  F  F2  1  0.50057900  0.00425600  0.24295100  1
  F  F3  1  0.50144100  0.00371500  0.75709000  1
loop_
_geom_bond_atom_site_label_1
_geom_bond_atom_site_label_2
_geom_bond_distance
_geom_bond_site_symmetry_2
Li0 O0 2.202037 1_554
Li0 O4 2.296206 1_555
Li0 O5 2.317529 1_554
Li1 O1 2.194873 1_556
Li1 O7 2.260991 1_555
Li1 O6 2.279154 1_556
Li2 O3 1.867426 1_445
Li2 O7 2.268017 1_555
Li2 O6 2.276564 1_555
Li3 O3 1.901085 1_555
Li3 O4 2.257348 1_555
Li3 O5 2.263910 1_555
Li3 O2 2.378253 1_555
Li4 O3 1.903500 1_545
Li4 O6 2.316328 1_655
Li4 O1 2.464826 1_555
Li5 O3 1.900215 1_545
Li5 O7 2.305428 1_655
Li5 O1 2.484813 1_556
Li6 O3 1.927431 1_455
Li6 O4 2.279808 1_455
Li6 O2 2.284382 1_555
Li6 O0 2.346328 1_554
Li7 O3 1.930226 1_455
Li7 O2 2.289251 1_555
Li7 O5 2.293047 1_455
Li7 O0 2.327338 1_555
O0 V0 2.018746 1_556
O0 V1 2.019732 1_555
O0 V2 2.078741 1_555
O1 V1 2.021180 1_554
O1 V0 2.022252 1_555
O1 V2 2.097673 1_654
O2 V1 2.011708 1_555
O2 V0 2.012791 1_555
O2 V3 2.042352 1_555
O4 V0 2.032496 1_555
O4 V3 2.034676 1_655
O4 V2 2.050139 1_654
O5 V3 2.032807 1_655
O5 V1 2.035203 1_555
O5 V2 2.041315 1_655
O6 V3 2.033604 1_555
O6 V2 2.048465 1_554
O6 V0 2.053591 1_555
O7 V3 2.035181 1_555
O7 V1 2.048888 1_555
O7 V2 2.058506 1_555
F0 Li5 1.980822 1_554
F0 Li4 1.982588 1_555
F0 Li6 2.091943 1_645
F0 Li7 2.096199 1_644
F0 Li0 2.097264 1_545
F0 Li1 2.114077 1_654
F1 V3 2.161798 1_655
F1 V1 2.165396 1_555
F1 V0 2.168688 1_555
F1 Li5 2.304590 1_555
F1 Li4 2.314884 1_555
F1 Li2 2.422923 1_555
F2 Li1 2.016465 1_554
F2 Li0 2.021979 1_545
F2 Li4 2.057677 1_555
F2 Li6 2.108233 1_545
F2 Li2 2.116111 1_555
F2 Li3 2.127980 1_545
F3 Li1 2.017671 1_555
F3 Li0 2.020599 1_546
F3 Li5 2.062699 1_555
F3 Li7 2.102862 1_545
F3 Li2 2.108066 1_555
F3 Li3 2.135768 1_545
