# generated using pymatgen
data_Zn(Bi19O30)2
_symmetry_space_group_name_H-M   'P 1'
_cell_length_a   14.70323163
_cell_length_b   14.70323163
_cell_length_c   8.99915700
_cell_angle_alpha   90.00000000
_cell_angle_beta   90.00000000
_cell_angle_gamma   119.99999833
_symmetry_Int_Tables_number   1
_chemical_formula_structural   Zn(Bi19O30)2
_chemical_formula_sum   'Zn1 Bi38 O60'
_cell_volume   1684.83767601
_cell_formula_units_Z   1
loop_
 _symmetry_equiv_pos_site_id
 _symmetry_equiv_pos_as_xyz
  1  'x, y, z'
loop_
 _atom_site_type_symbol
 _atom_site_label
 _atom_site_symmetry_multiplicity
 _atom_site_fract_x
 _atom_site_fract_y
 _atom_site_fract_z
 _atom_site_occupancy
  Zn  Zn0  1  0.00000000  0.00000000  0.99968300  1
  Bi  Bi0  1  0.85288000  0.83448300  0.67820100  1
  Bi  Bi1  1  0.60877600  0.55642600  0.74596100  1
  Bi  Bi2  1  0.03882500  0.77946500  0.90359100  1
  Bi  Bi3  1  0.16551700  0.01839700  0.67820100  1
  Bi  Bi4  1  0.39042300  0.29528100  0.56162900  1
  Bi  Bi5  1  0.65088500  0.49905200  0.34012000  1
  Bi  Bi6  1  0.00875000  0.85488200  0.32555500  1
  Bi  Bi7  1  0.66666700  0.33333300  0.66259800  1
  Bi  Bi8  1  0.44357400  0.05235000  0.74596100  1
  Bi  Bi9  1  0.90485800  0.60957700  0.56162900  1
  Bi  Bi10  1  0.78509300  0.73470900  0.08228700  1
  Bi  Bi11  1  0.50094800  0.15183400  0.34012000  1
  Bi  Bi12  1  0.94765000  0.39122400  0.74596100  1
  Bi  Bi13  1  0.26529100  0.05038300  0.08228700  1
  Bi  Bi14  1  0.27076600  0.88928600  0.42515200  1
  Bi  Bi15  1  0.50795800  0.32331400  0.01448200  1
  Bi  Bi16  1  0.17739700  0.66344100  0.68493300  1
  Bi  Bi17  1  0.70471900  0.09514200  0.56162900  1
  Bi  Bi18  1  0.84816600  0.34911500  0.34012000  1
  Bi  Bi19  1  0.74064100  0.96117500  0.90359100  1
  Bi  Bi20  1  0.06595300  0.63109400  0.22340000  1
  Bi  Bi21  1  0.81535600  0.49204200  0.01448200  1
  Bi  Bi22  1  0.48604400  0.82260300  0.68493300  1
  Bi  Bi23  1  0.31700000  0.83028500  0.01502700  1
  Bi  Bi24  1  0.67668600  0.18464400  0.01448200  1
  Bi  Bi25  1  0.98160300  0.14712000  0.67820100  1
  Bi  Bi26  1  0.33655900  0.51395600  0.68493300  1
  Bi  Bi27  1  0.33333300  0.66666700  0.33767800  1
  Bi  Bi28  1  0.22053500  0.25935900  0.90359100  1
  Bi  Bi29  1  0.56514100  0.93404700  0.22340000  1
  Bi  Bi30  1  0.11071400  0.38148100  0.42515200  1
  Bi  Bi31  1  0.61851900  0.72923400  0.42515200  1
  Bi  Bi32  1  0.16971500  0.48671500  0.01502700  1
  Bi  Bi33  1  0.94961700  0.21490700  0.08228700  1
  Bi  Bi34  1  0.84613200  0.99125000  0.32555500  1
  Bi  Bi35  1  0.51328500  0.68300000  0.01502700  1
  Bi  Bi36  1  0.36890600  0.43485900  0.22340000  1
  Bi  Bi37  1  0.14511800  0.15386800  0.32555500  1
  O  O0  1  0.36639700  0.36487600  0.75056200  1
  O  O1  1  0.87469600  0.74994600  0.87256100  1
  O  O2  1  0.25005400  0.12475100  0.87256100  1
  O  O3  1  0.19854900  0.15994100  0.57480100  1
  O  O4  1  0.71040500  0.67070800  0.59301800  1
  O  O5  1  0.54205600  0.45659600  0.54312700  1
  O  O6  1  0.28244900  0.95111800  0.92909900  1
  O  O7  1  0.96139200  0.80145100  0.57480100  1
  O  O8  1  0.51596200  0.25682900  0.74192000  1
  O  O9  1  0.74086700  0.48403800  0.74192000  1
  O  O10  1  0.32271800  0.29109400  0.08706000  1
  O  O11  1  0.99847900  0.63360300  0.75056200  1
  O  O12  1  0.32929200  0.03969700  0.59301800  1
  O  O13  1  0.16421100  0.95370100  0.40043400  1
  O  O14  1  0.50941400  0.37845300  0.24605200  1
  O  O15  1  0.17685600  0.71006700  0.91914700  1
  O  O16  1  0.07483200  0.92432000  0.07531400  1
  O  O17  1  0.66666700  0.33333300  0.43584500  1
  O  O18  1  0.74317100  0.25913300  0.74192000  1
  O  O19  1  0.38282800  0.87887000  0.74184500  1
  O  O20  1  0.04186000  0.70064900  0.41358000  1
  O  O21  1  0.71760400  0.55065000  0.08146000  1
  O  O22  1  0.91454000  0.45794400  0.54312700  1
  O  O23  1  0.54340400  0.08546000  0.54312700  1
  O  O24  1  0.63512400  0.00152100  0.75056200  1
  O  O25  1  0.86903800  0.49058600  0.24605200  1
  O  O26  1  0.96837700  0.67728200  0.08706000  1
  O  O27  1  0.53321000  0.82314400  0.91914700  1
  O  O28  1  0.37518400  0.99534100  0.26426200  1
  O  O29  1  0.44935000  0.16695400  0.08146000  1
  O  O30  1  0.04888200  0.33133100  0.92909900  1
  O  O31  1  0.12113000  0.50395700  0.74184500  1
  O  O32  1  0.87524900  0.12530400  0.87256100  1
  O  O33  1  0.20958500  0.79082700  0.21078800  1
  O  O34  1  0.66666700  0.33333300  0.03956400  1
  O  O35  1  0.33333300  0.66666700  0.70452600  1
  O  O36  1  0.96030300  0.28959500  0.59301800  1
  O  O37  1  0.62154700  0.13096200  0.24605200  1
  O  O38  1  0.28993300  0.46679000  0.91914700  1
  O  O39  1  0.18109100  0.59123300  0.40891100  1
  O  O40  1  0.41014300  0.81890900  0.40891100  1
  O  O41  1  0.66866900  0.71755100  0.92909900  1
  O  O42  1  0.65878900  0.95814000  0.41358000  1
  O  O43  1  0.00465900  0.37984300  0.26426200  1
  O  O44  1  0.83304600  0.28239600  0.08146000  1
  O  O45  1  0.49604300  0.61717200  0.74184500  1
  O  O46  1  0.84005900  0.03860800  0.57480100  1
  O  O47  1  0.33333300  0.66666700  0.10999700  1
  O  O48  1  0.00000000  0.00000000  0.77218100  1
  O  O49  1  0.40876700  0.58985700  0.40891100  1
  O  O50  1  0.70890600  0.03162300  0.08706000  1
  O  O51  1  0.04629900  0.21051000  0.40043400  1
  O  O52  1  0.58124300  0.79041500  0.21078800  1
  O  O53  1  0.20917300  0.41875700  0.21078800  1
  O  O54  1  0.29935100  0.34121100  0.41358000  1
  O  O55  1  0.78949000  0.83578900  0.40043400  1
  O  O56  1  0.00000000  0.00000000  0.37508900  1
  O  O57  1  0.62015700  0.62481600  0.26426200  1
  O  O58  1  0.07568000  0.15051200  0.07531400  1
  O  O59  1  0.84948800  0.92516800  0.07531400  1
loop_
_geom_bond_atom_site_label_1
_geom_bond_atom_site_label_2
_geom_bond_distance
_geom_bond_site_symmetry_2
Bi0 O7 2.102896 1_555
Bi0 O1 2.259608 1_555
Bi0 O4 2.393772 1_555
Bi0 O48 2.460231 1_665
Bi0 O55 2.671199 1_555
Bi1 O4 2.107089 1_555
Bi1 O5 2.238030 1_555
Bi1 O45 2.242097 1_555
Bi1 O9 2.640693 1_555
Bi1 O41 2.649128 1_555
Bi2 O26 2.121313 1_456
Bi2 O1 2.245577 1_455
Bi2 O11 2.361282 1_455
Bi2 O16 2.465169 1_556
Bi2 O15 2.692674 1_555
Bi3 O3 2.102896 1_555
Bi3 O2 2.259614 1_555
Bi3 O12 2.393772 1_555
Bi3 O48 2.460231 1_555
Bi3 O13 2.671199 1_545
Bi4 O0 2.103370 1_555
Bi4 O54 2.220016 1_555
Bi4 O5 2.309983 1_555
Bi4 O3 2.513750 1_555
Bi4 O8 2.720790 1_555
Bi5 O14 2.121128 1_555
Bi5 O57 2.219211 1_555
Bi5 O5 2.299735 1_555
Bi5 O21 2.492378 1_555
Bi5 O17 2.701551 1_555
Bi6 O13 2.113954 1_555
Bi6 O56 2.245541 1_565
Bi6 O7 2.363487 1_455
Bi6 O16 2.462872 1_555
Bi6 O20 2.666656 1_555
Bi7 O17 2.040586 1_555
Bi7 O18 2.047508 1_555
Bi7 O8 2.047520 1_555
Bi7 O9 2.047520 1_555
Bi8 O12 2.107089 1_555
Bi8 O23 2.238030 1_555
Bi8 O19 2.242111 1_545
Bi8 O8 2.640693 1_555
Bi8 O6 2.649128 1_545
Bi9 O11 2.103370 1_555
Bi9 O20 2.220017 1_655
Bi9 O22 2.309983 1_555
Bi9 O7 2.513750 1_555
Bi9 O9 2.720790 1_555
Bi10 O41 2.112467 1_554
Bi10 O1 2.247852 1_554
Bi10 O21 2.371316 1_555
Bi10 O59 2.467996 1_555
Bi10 O57 2.693549 1_555
Bi11 O37 2.121128 1_555
Bi11 O28 2.219220 1_545
Bi11 O23 2.299743 1_555
Bi11 O29 2.492375 1_555
Bi11 O17 2.701536 1_555
Bi12 O36 2.107089 1_555
Bi12 O22 2.238030 1_555
Bi12 O31 2.242109 1_655
Bi12 O18 2.640693 1_555
Bi12 O30 2.649128 1_655
Bi13 O6 2.112456 1_544
Bi13 O2 2.247868 1_554
Bi13 O29 2.371319 1_555
Bi13 O16 2.467993 1_545
Bi13 O28 2.693540 1_545
Bi14 O28 2.119189 1_555
Bi14 O13 2.210179 1_555
Bi14 O33 2.307399 1_555
Bi14 O12 2.451603 1_565
Bi14 O40 2.722545 1_555
Bi15 O29 2.100037 1_555
Bi15 O14 2.232298 1_555
Bi15 O34 2.274704 1_555
Bi15 O10 2.603628 1_555
Bi15 O8 2.664742 1_554
Bi16 O31 2.122608 1_555
Bi16 O15 2.217661 1_555
Bi16 O35 2.276258 1_555
Bi16 O11 2.511496 1_455
Bi16 O39 2.712542 1_555
Bi17 O24 2.103370 1_555
Bi17 O42 2.220017 1_545
Bi17 O23 2.309983 1_555
Bi17 O46 2.513750 1_555
Bi17 O18 2.720790 1_555
Bi18 O25 2.121128 1_555
Bi18 O43 2.219225 1_655
Bi18 O22 2.299736 1_555
Bi18 O44 2.492380 1_555
Bi18 O17 2.701524 1_555
Bi19 O50 2.121313 1_566
Bi19 O32 2.245567 1_565
Bi19 O24 2.361294 1_565
Bi19 O59 2.465158 1_556
Bi19 O27 2.692696 1_555
Bi20 O20 2.112521 1_555
Bi20 O26 2.235892 1_455
Bi20 O33 2.242501 1_555
Bi20 O25 2.590528 1_455
Bi20 O39 2.643602 1_555
Bi21 O21 2.100037 1_555
Bi21 O25 2.232293 1_555
Bi21 O34 2.274697 1_555
Bi21 O26 2.603633 1_555
Bi21 O9 2.664742 1_554
Bi22 O19 2.122595 1_555
Bi22 O27 2.217656 1_555
Bi22 O35 2.276265 1_555
Bi22 O24 2.511496 1_565
Bi22 O40 2.712536 1_555
Bi23 O15 2.114846 1_554
Bi23 O6 2.216985 1_554
Bi23 O33 2.240130 1_555
Bi23 O19 2.607577 1_554
Bi23 O47 2.674562 1_555
Bi24 O44 2.100037 1_555
Bi24 O37 2.232296 1_555
Bi24 O34 2.274689 1_555
Bi24 O50 2.603642 1_555
Bi24 O18 2.664742 1_554
Bi25 O46 2.102896 1_555
Bi25 O32 2.259617 1_555
Bi25 O36 2.393772 1_555
Bi25 O48 2.460231 1_655
Bi25 O51 2.671199 1_655
Bi26 O45 2.122606 1_555
Bi26 O38 2.217658 1_555
Bi26 O35 2.276272 1_555
Bi26 O0 2.511495 1_555
Bi26 O49 2.712539 1_555
Bi27 O39 2.041818 1_555
Bi27 O40 2.041819 1_555
Bi27 O49 2.041843 1_555
Bi27 O47 2.048937 1_555
Bi28 O10 2.121313 1_556
Bi28 O2 2.245549 1_555
Bi28 O0 2.361285 1_555
Bi28 O58 2.465166 1_556
Bi28 O38 2.692702 1_555
Bi29 O42 2.112521 1_555
Bi29 O50 2.235901 1_565
Bi29 O52 2.242509 1_555
Bi29 O37 2.590532 1_565
Bi29 O40 2.643594 1_555
Bi30 O43 2.119184 1_555
Bi30 O51 2.210192 1_555
Bi30 O53 2.307401 1_555
Bi30 O36 2.451604 1_455
Bi30 O39 2.722518 1_555
Bi31 O57 2.119195 1_555
Bi31 O55 2.210190 1_555
Bi31 O52 2.307386 1_555
Bi31 O4 2.451613 1_555
Bi31 O49 2.722523 1_555
Bi32 O38 2.114838 1_554
Bi32 O30 2.216985 1_554
Bi32 O53 2.240138 1_555
Bi32 O31 2.607574 1_554
Bi32 O47 2.674570 1_555
Bi33 O30 2.112463 1_654
Bi33 O32 2.247858 1_554
Bi33 O44 2.371330 1_555
Bi33 O58 2.467982 1_655
Bi33 O43 2.693552 1_655
Bi34 O55 2.113954 1_555
Bi34 O56 2.245541 1_665
Bi34 O46 2.363487 1_565
Bi34 O59 2.462872 1_555
Bi34 O42 2.666656 1_555
Bi35 O27 2.114852 1_554
Bi35 O41 2.216985 1_554
Bi35 O52 2.240131 1_555
Bi35 O45 2.607579 1_554
Bi35 O47 2.674576 1_555
Bi36 O54 2.112521 1_555
Bi36 O10 2.235904 1_555
Bi36 O53 2.242495 1_555
Bi36 O14 2.590518 1_555
Bi36 O49 2.643591 1_555
Bi37 O51 2.113954 1_555
Bi37 O56 2.245541 1_555
Bi37 O3 2.363487 1_555
Bi37 O58 2.462872 1_555
Bi37 O54 2.666656 1_555
O16 Zn0 2.033801 1_564
O48 Zn0 2.047326 1_555
O58 Zn0 2.033801 1_554
O59 Zn0 2.033801 1_664
