# generated using pymatgen
data_Li6VF8
_symmetry_space_group_name_H-M   'P 1'
_cell_length_a   5.93882439
_cell_length_b   5.93882439
_cell_length_c   5.93882439
_cell_angle_alpha   60.00000000
_cell_angle_beta   60.00000000
_cell_angle_gamma   60.00000000
_symmetry_Int_Tables_number   1
_chemical_formula_structural   Li6VF8
_chemical_formula_sum   'Li6 V1 F8'
_cell_volume   148.11070631
_cell_formula_units_Z   1
loop_
 _symmetry_equiv_pos_site_id
 _symmetry_equiv_pos_as_xyz
  1  'x, y, z'
loop_
 _atom_site_type_symbol
 _atom_site_label
 _atom_site_symmetry_multiplicity
 _atom_site_fract_x
 _atom_site_fract_y
 _atom_site_fract_z
 _atom_site_occupancy
  Li  Li0  1  0.50000000  0.00000000  0.50000000  1
  Li  Li1  1  0.50000000  0.50000000  0.00000000  1
  Li  Li2  1  0.00000000  0.00000000  0.50000000  1
  Li  Li3  1  0.00000000  0.50000000  0.00000000  1
  Li  Li4  1  0.50000000  0.00000000  0.00000000  1
  Li  Li5  1  0.00000000  0.50000000  0.50000000  1
  V  V0  1  0.00000000  0.00000000  0.00000000  1
  F  F0  1  0.24592700  0.75407300  0.75407300  1
  F  F1  1  0.25000000  0.25000000  0.25000000  1
  F  F2  1  0.75000000  0.75000000  0.75000000  1
  F  F3  1  0.75407300  0.24592700  0.24592700  1
  F  F4  1  0.24592700  0.24592700  0.75407300  1
  F  F5  1  0.24592700  0.75407300  0.24592700  1
  F  F6  1  0.75407300  0.24592700  0.75407300  1
  F  F7  1  0.75407300  0.75407300  0.24592700  1
loop_
_geom_bond_atom_site_label_1
_geom_bond_atom_site_label_2
_geom_bond_distance
_geom_bond_site_symmetry_2
F0 V0 2.065483 1_566
F0 Li2 2.099970 1_565
F0 Li3 2.099970 1_556
F0 Li0 2.099970 1_565
F0 Li1 2.099970 1_556
F1 Li2 2.099692 1_555
F1 Li1 2.099692 1_555
F1 Li3 2.099692 1_555
F1 Li0 2.099692 1_555
F1 Li4 2.099692 1_555
F1 Li5 2.099692 1_555
F2 Li5 2.099692 1_655
F2 Li2 2.099692 1_665
F2 Li3 2.099692 1_656
F2 Li0 2.099692 1_565
F2 Li1 2.099692 1_556
F2 Li4 2.099692 1_566
F3 V0 2.065483 1_655
F3 Li2 2.099970 1_655
F3 Li0 2.099970 1_555
F3 Li1 2.099970 1_555
F3 Li3 2.099970 1_655
F4 V0 2.065483 1_556
F4 Li4 2.099970 1_556
F4 Li3 2.099970 1_556
F4 Li0 2.099970 1_555
F4 Li5 2.099970 1_555
F5 V0 2.065483 1_565
F5 Li2 2.099970 1_565
F5 Li1 2.099970 1_555
F5 Li5 2.099970 1_555
F5 Li4 2.099970 1_565
F6 V0 2.065483 1_656
F6 Li4 2.099970 1_556
F6 Li2 2.099970 1_655
F6 Li5 2.099970 1_655
F6 Li1 2.099970 1_556
F7 V0 2.065483 1_665
F7 Li5 2.099970 1_655
F7 Li0 2.099970 1_565
F7 Li3 2.099970 1_655
F7 Li4 2.099970 1_565
