# generated using pymatgen
data_VCu2HO5
_symmetry_space_group_name_H-M   'P 1'
_cell_length_a   6.11754900
_cell_length_b   8.59178500
_cell_length_c   15.16582100
_cell_angle_alpha   90.00000000
_cell_angle_beta   90.00000000
_cell_angle_gamma   90.00000000
_symmetry_Int_Tables_number   1
_chemical_formula_structural   VCu2HO5
_chemical_formula_sum   'V8 Cu16 H8 O40'
_cell_volume   797.12564818
_cell_formula_units_Z   8
loop_
 _symmetry_equiv_pos_site_id
 _symmetry_equiv_pos_as_xyz
  1  'x, y, z'
loop_
 _atom_site_type_symbol
 _atom_site_label
 _atom_site_symmetry_multiplicity
 _atom_site_fract_x
 _atom_site_fract_y
 _atom_site_fract_z
 _atom_site_occupancy
  V  V0  1  0.25000000  0.81343200  0.07936900  1
  V  V1  1  0.75000000  0.47197300  0.15404600  1
  V  V2  1  0.25000000  0.97197300  0.34595400  1
  V  V3  1  0.75000000  0.31343200  0.42063100  1
  V  V4  1  0.25000000  0.68656800  0.57936900  1
  V  V5  1  0.75000000  0.02802700  0.65404600  1
  V  V6  1  0.25000000  0.52802700  0.84595400  1
  V  V7  1  0.75000000  0.18656800  0.92063100  1
  Cu  Cu0  1  0.25000000  0.41462200  0.07321200  1
  Cu  Cu1  1  0.50526400  0.13015000  0.13779700  1
  Cu  Cu2  1  0.99473600  0.13015000  0.13779700  1
  Cu  Cu3  1  0.75000000  0.84962500  0.21539400  1
  Cu  Cu4  1  0.25000000  0.34962500  0.28460600  1
  Cu  Cu5  1  0.00526400  0.63015000  0.36220300  1
  Cu  Cu6  1  0.49473600  0.63015000  0.36220300  1
  Cu  Cu7  1  0.75000000  0.91462200  0.42678800  1
  Cu  Cu8  1  0.25000000  0.08537800  0.57321200  1
  Cu  Cu9  1  0.50526400  0.36985000  0.63779700  1
  Cu  Cu10  1  0.99473600  0.36985000  0.63779700  1
  Cu  Cu11  1  0.75000000  0.65037500  0.71539400  1
  Cu  Cu12  1  0.25000000  0.15037500  0.78460600  1
  Cu  Cu13  1  0.00526400  0.86985000  0.86220300  1
  Cu  Cu14  1  0.49473600  0.86985000  0.86220300  1
  Cu  Cu15  1  0.75000000  0.58537800  0.92678800  1
  H  H0  1  0.25000000  0.14485600  0.00209600  1
  H  H1  1  0.25000000  0.61337900  0.22117200  1
  H  H2  1  0.75000000  0.11337900  0.27882800  1
  H  H3  1  0.75000000  0.64485600  0.49790400  1
  H  H4  1  0.25000000  0.35514400  0.50209600  1
  H  H5  1  0.25000000  0.88662100  0.72117200  1
  H  H6  1  0.75000000  0.38662100  0.77882800  1
  H  H7  1  0.75000000  0.85514400  0.99790400  1
  O  O0  1  0.75000000  0.17272300  0.03252100  1
  O  O1  1  0.75000000  0.54512400  0.05078300  1
  O  O2  1  0.25000000  0.18455100  0.06310100  1
  O  O3  1  0.25000000  0.62063100  0.11535700  1
  O  O4  1  0.01013000  0.90350800  0.12119300  1
  O  O5  1  0.48987000  0.90350800  0.12119300  1
  O  O6  1  0.50691900  0.35518800  0.17177200  1
  O  O7  1  0.99308100  0.35518800  0.17177200  1
  O  O8  1  0.75000000  0.07730900  0.21506100  1
  O  O9  1  0.75000000  0.62886400  0.22791100  1
  O  O10  1  0.25000000  0.12886400  0.27208900  1
  O  O11  1  0.25000000  0.57730900  0.28493900  1
  O  O12  1  0.00691900  0.85518800  0.32822800  1
  O  O13  1  0.49308100  0.85518800  0.32822800  1
  O  O14  1  0.51013000  0.40350800  0.37880700  1
  O  O15  1  0.98987000  0.40350800  0.37880700  1
  O  O16  1  0.75000000  0.12063100  0.38464300  1
  O  O17  1  0.75000000  0.68455100  0.43689900  1
  O  O18  1  0.25000000  0.04512400  0.44921700  1
  O  O19  1  0.25000000  0.67272300  0.46747900  1
  O  O20  1  0.75000000  0.32727700  0.53252100  1
  O  O21  1  0.75000000  0.95487600  0.55078300  1
  O  O22  1  0.25000000  0.31544900  0.56310100  1
  O  O23  1  0.25000000  0.87936900  0.61535700  1
  O  O24  1  0.01013000  0.59649200  0.62119300  1
  O  O25  1  0.48987000  0.59649200  0.62119300  1
  O  O26  1  0.50691900  0.14481200  0.67177200  1
  O  O27  1  0.99308100  0.14481200  0.67177200  1
  O  O28  1  0.75000000  0.42269100  0.71506100  1
  O  O29  1  0.75000000  0.87113600  0.72791100  1
  O  O30  1  0.25000000  0.37113600  0.77208900  1
  O  O31  1  0.25000000  0.92269100  0.78493900  1
  O  O32  1  0.00691900  0.64481200  0.82822800  1
  O  O33  1  0.49308100  0.64481200  0.82822800  1
  O  O34  1  0.51013000  0.09649200  0.87880700  1
  O  O35  1  0.98987000  0.09649200  0.87880700  1
  O  O36  1  0.75000000  0.37936900  0.88464300  1
  O  O37  1  0.75000000  0.81544900  0.93689900  1
  O  O38  1  0.25000000  0.45487600  0.94921700  1
  O  O39  1  0.25000000  0.82727700  0.96747900  1
loop_
_geom_bond_atom_site_label_1
_geom_bond_atom_site_label_2
_geom_bond_distance
_geom_bond_site_symmetry_2
Cu0 O3 1.881855 1_555
Cu0 O38 1.912026 1_554
Cu0 O2 1.982659 1_555
Cu0 O6 2.228296 1_555
Cu0 O7 2.228296 1_455
Cu1 O8 1.954668 1_555
Cu1 O5 1.965731 1_545
Cu1 O2 1.985025 1_555
Cu1 O6 2.000983 1_555
Cu1 O0 2.219116 1_555
Cu1 O10 2.566442 1_555
Cu2 O8 1.954668 1_555
Cu2 O4 1.965731 1_645
Cu2 O2 1.985025 1_655
Cu2 O7 2.000983 1_555
Cu2 O0 2.219116 1_555
Cu2 O10 2.566442 1_655
Cu3 O9 1.906207 1_555
Cu3 O8 1.956218 1_565
Cu3 O5 2.188091 1_555
Cu3 O4 2.188091 1_655
Cu3 O12 2.323972 1_655
Cu3 O13 2.323972 1_555
Cu4 O10 1.906207 1_555
Cu4 O11 1.956218 1_555
Cu4 O15 2.188091 1_455
Cu4 O14 2.188091 1_555
Cu4 O6 2.323972 1_555
Cu4 O7 2.323972 1_455
Cu5 O11 1.954668 1_555
Cu5 O15 1.965731 1_455
Cu5 O17 1.985025 1_455
Cu5 O12 2.000983 1_555
Cu5 O19 2.219116 1_555
Cu5 O9 2.566442 1_455
Cu6 O11 1.954668 1_555
Cu6 O14 1.965731 1_555
Cu6 O17 1.985025 1_555
Cu6 O13 2.000983 1_555
Cu6 O19 2.219116 1_555
Cu6 O9 2.566442 1_555
Cu7 O16 1.881855 1_565
Cu7 O21 1.912026 1_555
Cu7 O17 1.982659 1_555
Cu7 O12 2.228296 1_655
Cu7 O13 2.228296 1_555
Cu8 O23 1.881855 1_545
Cu8 O18 1.912026 1_555
Cu8 O22 1.982659 1_555
Cu8 O26 2.228296 1_555
Cu8 O27 2.228296 1_455
Cu9 O28 1.954668 1_555
Cu9 O25 1.965731 1_555
Cu9 O22 1.985025 1_555
Cu9 O26 2.000983 1_555
Cu9 O20 2.219116 1_555
Cu9 O30 2.566442 1_555
Cu10 O28 1.954668 1_555
Cu10 O24 1.965731 1_655
Cu10 O22 1.985025 1_655
Cu10 O27 2.000983 1_555
Cu10 O20 2.219116 1_555
Cu10 O30 2.566442 1_655
Cu11 O29 1.906207 1_555
Cu11 O28 1.956218 1_555
Cu11 O24 2.188091 1_655
Cu11 O25 2.188091 1_555
Cu11 O32 2.323972 1_655
Cu11 O33 2.323972 1_555
Cu12 O30 1.906207 1_555
Cu12 O31 1.956218 1_545
Cu12 O35 2.188091 1_455
Cu12 O34 2.188091 1_555
Cu12 O26 2.323972 1_555
Cu12 O27 2.323972 1_455
Cu13 O31 1.954668 1_555
Cu13 O35 1.965731 1_465
Cu13 O37 1.985025 1_455
Cu13 O32 2.000983 1_555
Cu13 O39 2.219116 1_555
Cu13 O29 2.566442 1_455
Cu14 O31 1.954668 1_555
Cu14 O34 1.965731 1_565
Cu14 O37 1.985025 1_555
Cu14 O33 2.000983 1_555
Cu14 O39 2.219116 1_555
Cu14 O29 2.566442 1_555
Cu15 O36 1.881855 1_555
Cu15 O1 1.912026 1_556
Cu15 O37 1.982659 1_555
Cu15 O32 2.228296 1_655
Cu15 O33 2.228296 1_555
H0 O2 0.986050 1_555
H1 O11 1.015521 1_555
H1 O3 1.605980 1_555
H2 O8 1.015521 1_555
H2 O16 1.605980 1_555
H3 O17 0.986050 1_555
H4 O22 0.986050 1_555
H5 O31 1.015521 1_555
H5 O23 1.605980 1_555
H6 O28 1.015521 1_555
H6 O36 1.605980 1_555
H7 O37 0.986050 1_555
O0 V7 1.701068 1_554
O1 V1 1.687477 1_555
O3 V0 1.744102 1_555
O4 V0 1.776115 1_555
O5 V0 1.776115 1_555
O6 V1 1.813949 1_555
O7 V1 1.813949 1_555
O9 V1 1.752693 1_555
O10 V2 1.752693 1_545
O12 V2 1.813949 1_555
O13 V2 1.813949 1_555
O14 V3 1.776115 1_555
O15 V3 1.776115 1_555
O16 V3 1.744102 1_555
O18 V2 1.687477 1_545
O19 V4 1.701068 1_555
O20 V3 1.701068 1_555
O21 V5 1.687477 1_565
O23 V4 1.744102 1_555
O24 V4 1.776115 1_555
O25 V4 1.776115 1_555
O26 V5 1.813949 1_555
O27 V5 1.813949 1_555
O29 V5 1.752693 1_565
O30 V6 1.752693 1_555
O32 V6 1.813949 1_555
O33 V6 1.813949 1_555
O34 V7 1.776115 1_555
O35 V7 1.776115 1_555
O36 V7 1.744102 1_555
O38 V6 1.687477 1_555
O39 V0 1.701068 1_556
