# generated using pymatgen
data_Li6V3P8O29
_symmetry_space_group_name_H-M   'P 1'
_cell_length_a   9.77361800
_cell_length_b   9.79772931
_cell_length_c   13.97464647
_cell_angle_alpha   90.31624871
_cell_angle_beta   89.95223522
_cell_angle_gamma   119.73546568
_symmetry_Int_Tables_number   1
_chemical_formula_structural   Li6V3P8O29
_chemical_formula_sum   'Li12 V6 P16 O58'
_cell_volume   1161.97317993
_cell_formula_units_Z   2
loop_
 _symmetry_equiv_pos_site_id
 _symmetry_equiv_pos_as_xyz
  1  'x, y, z'
loop_
 _atom_site_type_symbol
 _atom_site_label
 _atom_site_symmetry_multiplicity
 _atom_site_fract_x
 _atom_site_fract_y
 _atom_site_fract_z
 _atom_site_occupancy
  Li  Li0  1  0.09202000  0.33042900  0.06477500  1
  Li  Li1  1  0.23992400  0.33942700  0.56195800  1
  Li  Li2  1  0.09792400  0.76534100  0.55882900  1
  Li  Li3  1  0.33617700  0.66163600  0.88576500  1
  Li  Li4  1  0.23380600  0.90959100  0.06098000  1
  Li  Li5  1  0.67284000  0.76717000  0.06069600  1
  Li  Li6  1  0.33554900  0.10202600  0.44016500  1
  Li  Li7  1  0.66360200  0.90554400  0.56183700  1
  Li  Li8  1  0.76447100  0.66541400  0.43897100  1
  Li  Li9  1  0.90032900  0.66523200  0.94010700  1
  Li  Li10  1  0.01078000  0.04654800  0.99565700  1
  Li  Li11  1  0.98495300  0.03621000  0.49420600  1
  V  V0  1  0.43643800  0.99985700  0.24959600  1
  V  V1  1  0.56615100  0.00445400  0.75396500  1
  V  V2  1  0.43705800  0.43340400  0.75152600  1
  V  V3  1  0.56385500  0.56280500  0.24698700  1
  V  V4  1  0.99680900  0.43016200  0.25246000  1
  V  V5  1  0.99963600  0.56090100  0.74525100  1
  P  P0  1  0.09161700  0.31535000  0.84666900  1
  P  P1  1  0.22857600  0.31491100  0.34347600  1
  P  P2  1  0.08771800  0.77393500  0.34155100  1
  P  P3  1  0.33008700  0.66492900  0.12747600  1
  P  P4  1  0.33869400  0.66993000  0.62956100  1
  P  P5  1  0.22075800  0.90620700  0.84234900  1
  P  P6  1  0.30954800  0.08367500  0.65787500  1
  P  P7  1  0.68609200  0.77616600  0.84210500  1
  P  P8  1  0.30597600  0.22067900  0.15827800  1
  P  P9  1  0.68748000  0.91245800  0.34473700  1
  P  P10  1  0.77843000  0.08248400  0.15937600  1
  P  P11  1  0.66662500  0.33482700  0.36816900  1
  P  P12  1  0.66851500  0.33751700  0.87090400  1
  P  P13  1  0.91731100  0.21871100  0.66103000  1
  P  P14  1  0.77224700  0.68586800  0.65637500  1
  P  P15  1  0.91401200  0.68454400  0.15751200  1
  O  O0  1  0.01305800  0.20918200  0.58001900  1
  O  O1  1  0.08846800  0.34401100  0.33732900  1
  O  O2  1  0.19808100  0.20468100  0.07769600  1
  O  O3  1  0.25845100  0.34104600  0.83779800  1
  O  O4  1  0.10293600  0.47797300  0.83113600  1
  O  O5  1  0.18691000  0.51038400  0.16552900  1
  O  O6  1  0.09305300  0.62200100  0.32856800  1
  O  O7  1  0.99938400  0.77130200  0.06803700  1
  O  O8  1  0.07583100  0.73692900  0.83624700  1
  O  O9  1  0.32906400  0.51627700  0.67137300  1
  O  O10  1  0.38447600  0.46916800  0.33000100  1
  O  O11  1  0.19088100  0.67838900  0.66770300  1
  O  O12  1  0.32932100  0.66669300  0.01915800  1
  O  O13  1  0.34317900  0.67065500  0.52263600  1
  O  O14  1  0.31978300  0.80904200  0.16799900  1
  O  O15  1  0.52130700  0.62642100  0.83042100  1
  O  O16  1  0.48660000  0.67609200  0.16499900  1
  O  O17  1  0.25495900  0.92008900  0.34096600  1
  O  O18  1  0.20350600  0.99678400  0.75144700  1
  O  O19  1  0.22004500  0.99642100  0.56851400  1
  O  O20  1  0.21324800  0.98318500  0.93330700  1
  O  O21  1  0.37103100  0.89099100  0.83043500  1
  O  O22  1  0.49015500  0.81513100  0.67304500  1
  O  O23  1  0.34023700  0.08179300  0.15886300  1
  O  O24  1  0.53101100  0.91336800  0.33050600  1
  O  O25  1  0.65971100  0.74213500  0.33645600  1
  O  O26  1  0.20996700  0.19809900  0.25732100  1
  O  O27  1  0.22290200  0.22900300  0.43503400  1
  O  O28  1  0.77550800  0.77782300  0.56871800  1
  O  O29  1  0.33243100  0.25049200  0.65868600  1
  O  O30  1  0.46533500  0.08350800  0.66919900  1
  O  O31  1  0.66342600  0.91893500  0.84125600  1
  O  O32  1  0.50998300  0.18905300  0.32908000  1
  O  O33  1  0.61982400  0.07812400  0.16817200  1
  O  O34  1  0.79447300  0.99075200  0.07782900  1
  O  O35  1  0.77071200  0.98366300  0.43747600  1
  O  O36  1  0.80155400  0.00878000  0.25841900  1
  O  O37  1  0.74624400  0.08438000  0.65802400  1
  O  O38  1  0.52269100  0.33861600  0.82293300  1
  O  O39  1  0.45968700  0.37838100  0.16621200  1
  O  O40  1  0.66249800  0.18661900  0.82523200  1
  O  O41  1  0.66642700  0.34143100  0.97680000  1
  O  O42  1  0.66453700  0.34157100  0.47498300  1
  O  O43  1  0.80680800  0.32323900  0.32347600  1
  O  O44  1  0.61835300  0.53072100  0.66672300  1
  O  O45  1  0.67689300  0.48928900  0.32559700  1
  O  O46  1  0.91761200  0.25319600  0.15983600  1
  O  O47  1  0.98860600  0.19992000  0.76051500  1
  O  O48  1  0.01437400  0.23520800  0.93832100  1
  O  O49  1  0.92449100  0.38095400  0.66838000  1
  O  O50  1  0.81645200  0.48432500  0.82847600  1
  O  O51  1  0.91419700  0.52988700  0.17093300  1
  O  O52  1  0.74394600  0.65839700  0.15742400  1
  O  O53  1  0.77168100  0.76935600  0.93065900  1
  O  O54  1  0.79407500  0.79159700  0.75054900  1
  O  O55  1  0.91793000  0.66258500  0.65607900  1
  O  O56  1  0.99972800  0.77622600  0.43052000  1
  O  O57  1  0.99956600  0.79581000  0.24929900  1
loop_
_geom_bond_atom_site_label_1
_geom_bond_atom_site_label_2
_geom_bond_distance
_geom_bond_site_symmetry_2
Li0 O48 1.962351 1_554
Li0 O2 1.973514 1_555
Li0 O46 1.992684 1_455
Li0 O5 2.074599 1_555
Li1 O0 1.950473 1_555
Li1 O27 2.035934 1_555
Li1 O29 2.049505 1_555
Li1 O9 2.138878 1_555
Li2 O19 1.971067 1_555
Li2 O55 2.051711 1_455
Li2 O56 2.062542 1_455
Li2 O11 2.156505 1_555
Li3 O12 1.866535 1_556
Li3 O15 2.145953 1_555
Li3 O4 2.221718 1_555
Li3 O21 2.241206 1_555
Li4 O20 1.975380 1_554
Li4 O7 2.004130 1_455
Li4 O23 2.008895 1_565
Li4 O14 2.180109 1_555
Li5 O34 1.918499 1_555
Li5 O52 2.048934 1_555
Li5 O53 2.052548 1_554
Li5 O16 2.152394 1_555
Li6 O27 2.030978 1_555
Li6 O17 2.073990 1_545
Li6 O19 2.102500 1_545
Li6 O32 2.147462 1_555
Li7 O35 1.979605 1_555
Li7 O37 2.025156 1_565
Li7 O28 2.032396 1_555
Li7 O22 2.143545 1_555
Li8 O56 2.001029 1_555
Li8 O28 2.091082 1_555
Li8 O25 2.107977 1_555
Li8 O45 2.174280 1_555
Li9 O53 1.978222 1_555
Li9 O7 2.048842 1_556
Li9 O8 2.086643 1_655
Li9 O50 2.185756 1_555
Li10 O48 2.002962 1_555
Li10 O2 2.058237 1_556
Li10 O34 2.223363 1_446
Li10 O20 2.504046 1_545
Li11 O0 1.975345 1_655
Li11 O35 2.051069 1_545
Li11 O27 2.305783 1_655
Li11 O28 2.562889 1_545
O0 P13 1.499938 1_455
O1 P1 1.533488 1_555
O1 V4 1.919523 1_455
O2 P8 1.496919 1_555
O3 P0 1.526530 1_555
O3 V2 1.939373 1_555
O4 P0 1.557883 1_555
O4 V5 1.986588 1_455
O5 P3 1.561884 1_555
O5 V4 2.025779 1_455
O6 P2 1.524989 1_555
O6 V4 1.942833 1_455
O7 P15 1.512822 1_555
O8 P5 1.559674 1_555
O8 V5 1.961996 1_455
O9 P4 1.576615 1_555
O9 V2 1.972352 1_555
O10 P1 1.536098 1_555
O10 V3 1.916756 1_555
O11 P4 1.579572 1_555
O11 V5 1.967038 1_455
O12 P3 1.513967 1_555
O13 P4 1.494798 1_555
O14 P3 1.567372 1_555
O14 V0 1.989864 1_555
O15 P7 1.557840 1_555
O15 V2 1.975787 1_555
O16 P3 1.568962 1_555
O16 V3 1.990408 1_555
O17 P2 1.549384 1_555
O17 V0 2.004828 1_555
O18 P5 1.609645 1_555
O18 P6 1.625914 1_565
O19 P6 1.517802 1_565
O20 P5 1.494693 1_555
O21 P5 1.556786 1_555
O21 V1 1.980220 1_565
O22 P4 1.577143 1_555
O22 V1 1.970471 1_565
O23 P8 1.554355 1_555
O23 V0 1.974390 1_545
O24 P9 1.546720 1_555
O24 V0 1.907935 1_555
O25 P9 1.555798 1_555
O25 V3 1.967966 1_555
O26 P1 1.603492 1_555
O26 P8 1.624944 1_555
O27 P1 1.521218 1_555
O28 P14 1.515561 1_555
O29 P6 1.535803 1_555
O29 V2 2.024665 1_555
O30 P6 1.531744 1_555
O30 V1 1.934733 1_555
O31 P7 1.521011 1_555
O31 V1 1.974197 1_565
O32 P11 1.582982 1_555
O32 V0 1.960477 1_545
O33 P10 1.534263 1_555
O33 V0 1.933414 1_545
O34 P10 1.503071 1_565
O35 P9 1.502285 1_555
O36 P9 1.598534 1_545
O36 P10 1.631476 1_555
O37 P13 1.531665 1_555
O37 V1 2.036986 1_555
O38 P12 1.580409 1_555
O38 V2 1.827957 1_555
O39 P8 1.533739 1_555
O39 V3 1.931380 1_555
O40 P12 1.581157 1_555
O40 V1 1.838164 1_555
O41 P12 1.480530 1_555
O42 P11 1.494355 1_555
O43 P11 1.559563 1_555
O43 V4 1.899842 1_555
O44 P14 1.525748 1_555
O44 V2 1.945828 1_555
O45 P11 1.585402 1_555
O45 V3 1.935546 1_555
O46 P10 1.546259 1_555
O46 V4 1.981521 1_555
O47 P13 1.607479 1_555
O47 P0 1.612359 1_655
O48 P0 1.499467 1_555
O49 P13 1.558813 1_555
O49 V5 1.870223 1_555
O50 P12 1.567156 1_555
O50 V5 1.947986 1_555
O51 P15 1.528768 1_555
O51 V4 1.923812 1_555
O52 P15 1.551129 1_555
O52 V3 1.978829 1_555
O53 P7 1.514479 1_555
O54 P7 1.617195 1_555
O54 P14 1.617648 1_555
O55 P14 1.549707 1_555
O55 V5 1.996929 1_555
O56 P2 1.517547 1_655
O57 P15 1.617099 1_555
O57 P2 1.624289 1_655
