# generated using pymatgen
data_Cr3Sb(PO4)4
_symmetry_space_group_name_H-M   'P 1'
_cell_length_a   4.89892438
_cell_length_b   10.21959259
_cell_length_c   5.88349700
_cell_angle_alpha   90.00085820
_cell_angle_beta   89.99984814
_cell_angle_gamma   91.03131312
_symmetry_Int_Tables_number   1
_chemical_formula_structural   Cr3Sb(PO4)4
_chemical_formula_sum   'Cr3 Sb1 P4 O16'
_cell_volume   294.50962790
_cell_formula_units_Z   1
loop_
 _symmetry_equiv_pos_site_id
 _symmetry_equiv_pos_as_xyz
  1  'x, y, z'
loop_
 _atom_site_type_symbol
 _atom_site_label
 _atom_site_symmetry_multiplicity
 _atom_site_fract_x
 _atom_site_fract_y
 _atom_site_fract_z
 _atom_site_occupancy
  Cr  Cr0  1  0.44744600  0.22409600  0.75016800  1
  Cr  Cr1  1  0.55159700  0.78178900  0.24997400  1
  Cr  Cr2  1  0.95349500  0.26432400  0.24994800  1
  Sb  Sb0  1  0.04064500  0.72485100  0.75000900  1
  P  P0  1  0.12676900  0.59279600  0.24999600  1
  P  P1  1  0.39251100  0.09071300  0.25002500  1
  P  P2  1  0.59148500  0.92317900  0.74999900  1
  P  P3  1  0.89317800  0.39048500  0.74998700  1
  O  O0  1  0.14635600  0.44483400  0.24999100  1
  O  O1  1  0.29837600  0.66179600  0.05010300  1
  O  O2  1  0.29834700  0.66179200  0.44992600  1
  O  O3  1  0.20184700  0.37393300  0.74995200  1
  O  O4  1  0.28198100  0.90198800  0.74995900  1
  O  O5  1  0.24446100  0.16592500  0.04718400  1
  O  O6  1  0.24448400  0.16592600  0.45291800  1
  O  O7  1  0.32227600  0.94419200  0.24997600  1
  O  O8  1  0.66956500  0.06768000  0.74998500  1
  O  O9  1  0.72752400  0.85158700  0.54086700  1
  O  O10  1  0.72750000  0.85159000  0.95911800  1
  O  O11  1  0.70182300  0.11261100  0.24999100  1
  O  O12  1  0.83290200  0.64018800  0.24997800  1
  O  O13  1  0.74645700  0.31569100  0.54400000  1
  O  O14  1  0.74653200  0.31571900  0.95597100  1
  O  O15  1  0.81244000  0.53231500  0.74997700  1
loop_
_geom_bond_atom_site_label_1
_geom_bond_atom_site_label_2
_geom_bond_distance
_geom_bond_site_symmetry_2
Cr0 O8 1.949846 1_555
Cr0 O3 1.964368 1_555
Cr0 O5 2.091586 1_556
Cr0 O6 2.092670 1_555
Cr0 O14 2.107199 1_555
Cr0 O13 2.108069 1_555
Cr1 O12 2.016194 1_555
Cr1 O7 2.020838 1_555
Cr1 O10 2.039048 1_554
Cr1 O9 2.039255 1_555
Cr1 O1 2.090614 1_555
Cr1 O2 2.091006 1_555
Cr2 O11 1.963457 1_555
Cr2 O0 2.057423 1_655
Cr2 O14 2.077168 1_554
Cr2 O13 2.077624 1_555
Cr2 O5 2.125503 1_655
Cr2 O6 2.126276 1_655
O0 P0 1.516875 1_555
O1 P0 1.601817 1_555
O1 Sb0 2.270705 1_554
O2 P0 1.601874 1_555
O2 Sb0 2.270567 1_555
O3 P3 1.524601 1_455
O4 P2 1.527761 1_555
O4 Sb0 2.144255 1_555
O5 P1 1.600368 1_555
O6 P1 1.600529 1_555
O7 P1 1.530361 1_565
O8 P2 1.518797 1_545
O9 P2 1.584588 1_555
O9 Sb0 2.369855 1_655
O10 P2 1.584484 1_555
O10 Sb0 2.369824 1_655
O11 P1 1.527742 1_555
O12 P0 1.527158 1_655
O13 P3 1.596825 1_555
O14 P3 1.596529 1_555
O15 P3 1.509295 1_555
O15 Sb0 2.245496 1_655
