# generated using pymatgen
data_Mn3Sn(PO4)6
_symmetry_space_group_name_H-M   'P 1'
_cell_length_a   8.62352253
_cell_length_b   8.62352280
_cell_length_c   8.62352252
_cell_angle_alpha   59.56168437
_cell_angle_beta   59.56168382
_cell_angle_gamma   59.56168499
_symmetry_Int_Tables_number   1
_chemical_formula_structural   Mn3Sn(PO4)6
_chemical_formula_sum   'Mn3 Sn1 P6 O24'
_cell_volume   448.94153500
_cell_formula_units_Z   1
loop_
 _symmetry_equiv_pos_site_id
 _symmetry_equiv_pos_as_xyz
  1  'x, y, z'
loop_
 _atom_site_type_symbol
 _atom_site_label
 _atom_site_symmetry_multiplicity
 _atom_site_fract_x
 _atom_site_fract_y
 _atom_site_fract_z
 _atom_site_occupancy
  Mn  Mn0  1  0.14153500  0.14153500  0.14153500  1
  Mn  Mn1  1  0.35799900  0.35799900  0.35799900  1
  Mn  Mn2  1  0.64148400  0.64148400  0.64148400  1
  Sn  Sn0  1  0.86183000  0.86183000  0.86183000  1
  P  P0  1  0.74976600  0.45667400  0.03919800  1
  P  P1  1  0.03919800  0.74976600  0.45667400  1
  P  P2  1  0.45667400  0.03919800  0.74976600  1
  P  P3  1  0.25891000  0.52904200  0.96513900  1
  P  P4  1  0.52904200  0.96513900  0.25891000  1
  P  P5  1  0.96513900  0.25891000  0.52904200  1
  O  O0  1  0.12889600  0.30757500  0.49725100  1
  O  O1  1  0.30757500  0.49725100  0.12889600  1
  O  O2  1  0.06250100  0.91846800  0.26531500  1
  O  O3  1  0.49725100  0.12889600  0.30757500  1
  O  O4  1  0.01822300  0.79069200  0.62007400  1
  O  O5  1  0.23027200  0.58265100  0.42811100  1
  O  O6  1  0.26531500  0.06250100  0.91846800  1
  O  O7  1  0.42811100  0.23027200  0.58265100  1
  O  O8  1  0.20770300  0.36790800  0.99278200  1
  O  O9  1  0.58265100  0.42811100  0.23027200  1
  O  O10  1  0.09362200  0.72014200  0.94647500  1
  O  O11  1  0.36790800  0.99278200  0.20770300  1
  O  O12  1  0.62007400  0.01822300  0.79069200  1
  O  O13  1  0.91846800  0.26531500  0.06250100  1
  O  O14  1  0.42928300  0.54668300  0.77563200  1
  O  O15  1  0.79069200  0.62007400  0.01822300  1
  O  O16  1  0.54668300  0.77563200  0.42928300  1
  O  O17  1  0.72014200  0.94647500  0.09362200  1
  O  O18  1  0.77563200  0.42928300  0.54668300  1
  O  O19  1  0.99278200  0.20770300  0.36790800  1
  O  O20  1  0.48962100  0.86921800  0.70932700  1
  O  O21  1  0.94647500  0.09362200  0.72014200  1
  O  O22  1  0.70932700  0.48962100  0.86921800  1
  O  O23  1  0.86921800  0.70932700  0.48962100  1
loop_
_geom_bond_atom_site_label_1
_geom_bond_atom_site_label_2
_geom_bond_distance
_geom_bond_site_symmetry_2
Mn0 O19 1.905689 1_455
Mn0 O11 1.905689 1_545
Mn0 O8 1.905689 1_554
Mn0 O6 1.953209 1_554
Mn0 O13 1.953209 1_455
Mn0 O2 1.953209 1_545
Mn1 O0 1.863311 1_555
Mn1 O1 1.863311 1_555
Mn1 O3 1.863311 1_555
Mn1 O9 1.918813 1_555
Mn1 O7 1.918813 1_555
Mn1 O5 1.918814 1_555
Mn2 O23 1.922515 1_555
Mn2 O22 1.922515 1_555
Mn2 O20 1.922515 1_555
Mn2 O14 1.941094 1_555
Mn2 O16 1.941094 1_555
Mn2 O18 1.941094 1_555
O0 P5 1.528761 1_455
O1 P3 1.528761 1_554
O2 P1 1.551689 1_555
O3 P4 1.528761 1_545
O4 P1 1.524383 1_555
O4 Sn0 2.037222 1_455
O5 P1 1.547572 1_555
O6 P2 1.551689 1_555
O7 P2 1.547572 1_555
O8 P3 1.536909 1_555
O9 P0 1.547572 1_555
O10 P3 1.535264 1_555
O10 Sn0 2.030087 1_455
O11 P4 1.536909 1_555
O12 P2 1.524383 1_555
O12 Sn0 2.037222 1_545
O13 P0 1.551689 1_555
O14 P3 1.547323 1_555
O15 P0 1.524383 1_555
O15 Sn0 2.037222 1_554
O16 P4 1.547323 1_555
O17 P4 1.535263 1_555
O17 Sn0 2.030087 1_554
O18 P5 1.547323 1_555
O19 P5 1.536909 1_555
O20 P2 1.531844 1_565
O21 P5 1.535264 1_555
O21 Sn0 2.030087 1_545
O22 P0 1.531844 1_556
O23 P1 1.531844 1_655
