# generated using pymatgen
data_Li2CoP2O7
_symmetry_space_group_name_H-M   'P 1'
_cell_length_a   5.02570419
_cell_length_b   11.01822886
_cell_length_c   11.04326204
_cell_angle_alpha   81.03719561
_cell_angle_beta   102.55894037
_cell_angle_gamma   77.46240050
_symmetry_Int_Tables_number   1
_chemical_formula_structural   Li2CoP2O7
_chemical_formula_sum   'Li8 Co4 P8 O28'
_cell_volume   569.27119534
_cell_formula_units_Z   4
loop_
 _symmetry_equiv_pos_site_id
 _symmetry_equiv_pos_as_xyz
  1  'x, y, z'
loop_
 _atom_site_type_symbol
 _atom_site_label
 _atom_site_symmetry_multiplicity
 _atom_site_fract_x
 _atom_site_fract_y
 _atom_site_fract_z
 _atom_site_occupancy
  Li  Li0  1  0.17611000  0.24986700  0.89751800  1
  Li  Li1  1  0.17696000  0.74948000  0.39759700  1
  Li  Li2  1  0.82374000  0.64772900  0.99894000  1
  Li  Li3  1  0.82405700  0.14821700  0.49929800  1
  Li  Li4  1  0.64771400  0.20382600  0.11670800  1
  Li  Li5  1  0.65085400  0.70329400  0.61749900  1
  Li  Li6  1  0.35157400  0.86700300  0.95377400  1
  Li  Li7  1  0.34982700  0.36794900  0.45323900  1
  Co  Co0  1  0.19970400  0.89188000  0.61313000  1
  Co  Co1  1  0.80029500  0.86273500  0.14145000  1
  Co  Co2  1  0.19668200  0.39110200  0.11370600  1
  Co  Co3  1  0.80018900  0.36295600  0.64186500  1
  P  P0  1  0.38673600  0.64739300  0.16645300  1
  P  P1  1  0.38784600  0.14819600  0.66648800  1
  P  P2  1  0.61171400  0.41691900  0.89705100  1
  P  P3  1  0.61425500  0.91626700  0.39850000  1
  P  P4  1  0.21693200  0.56110000  0.64598900  1
  P  P5  1  0.21897800  0.06071400  0.14779100  1
  P  P6  1  0.78192000  0.39634300  0.31112500  1
  P  P7  1  0.78225300  0.89647700  0.81076900  1
  O  O0  1  0.07216000  0.39581100  0.28831000  1
  O  O1  1  0.07391300  0.89422900  0.78870900  1
  O  O2  1  0.92700700  0.53741700  0.64511500  1
  O  O3  1  0.92735500  0.03893600  0.14584700  1
  O  O4  1  0.20149200  0.20077800  0.09444300  1
  O  O5  1  0.19372600  0.70158600  0.59270800  1
  O  O6  1  0.80013100  0.84367700  0.95056100  1
  O  O7  1  0.80328700  0.34311500  0.45109500  1
  O  O8  1  0.19820300  0.73759500  0.22428900  1
  O  O9  1  0.20025700  0.23757500  0.72525400  1
  O  O10  1  0.79998700  0.47528100  0.98671800  1
  O  O11  1  0.80121000  0.97520500  0.48809600  1
  O  O12  1  0.22065400  0.57649200  0.08282000  1
  O  O13  1  0.22101700  0.07741600  0.58309000  1
  O  O14  1  0.77918000  0.33293800  0.82700700  1
  O  O15  1  0.78072700  0.83312800  0.32762200  1
  O  O16  1  0.43424500  0.34614400  0.96379000  1
  O  O17  1  0.43806400  0.84456800  0.46547800  1
  O  O18  1  0.56421200  0.71417500  0.09545300  1
  O  O19  1  0.56366600  0.21563500  0.59504200  1
  O  O20  1  0.61617800  0.32668900  0.22518300  1
  O  O21  1  0.61529200  0.82728100  0.72482200  1
  O  O22  1  0.38428500  0.47571100  0.57656200  1
  O  O23  1  0.38521300  0.97417500  0.07871500  1
  O  O24  1  0.60087600  0.54322300  0.28823900  1
  O  O25  1  0.60505000  0.04386900  0.78740900  1
  O  O26  1  0.39698900  0.53856600  0.79257200  1
  O  O27  1  0.39729200  0.03769200  0.29450700  1
loop_
_geom_bond_atom_site_label_1
_geom_bond_atom_site_label_2
_geom_bond_distance
_geom_bond_site_symmetry_2
Li0 O14 1.932151 1_455
Li0 O16 1.941757 1_555
Li0 O9 1.955907 1_555
Li0 O4 2.126268 1_556
Li1 O15 1.929794 1_455
Li1 O17 1.948176 1_555
Li1 O8 1.962750 1_555
Li1 O5 2.115561 1_555
Li2 O12 1.934775 1_656
Li2 O18 1.950975 1_556
Li2 O10 1.952977 1_555
Li2 O6 2.112487 1_555
Li3 O13 1.934274 1_655
Li3 O19 1.951078 1_555
Li3 O11 1.955696 1_545
Li3 O7 2.104294 1_555
Li4 O20 1.946130 1_555
Li4 O3 1.972826 1_555
Li4 O16 2.029350 1_554
Li4 O4 2.210480 1_555
Li5 O21 1.947696 1_555
Li5 O2 1.974977 1_555
Li5 O17 2.016750 1_555
Li5 O5 2.258352 1_555
Li6 O23 1.954379 1_556
Li6 O1 1.975274 1_555
Li6 O18 2.023899 1_556
Li6 O6 2.221560 1_555
Li7 O22 1.945526 1_555
Li7 O0 1.973163 1_555
Li7 O19 2.022345 1_555
Li7 O7 2.241388 1_555
Co0 O13 2.049344 1_565
Co0 O21 2.085906 1_555
Co0 O11 2.089125 1_455
Co0 O5 2.149341 1_555
Co0 O1 2.168301 1_555
Co0 O17 2.282256 1_555
Co1 O15 2.058126 1_555
Co1 O23 2.081759 1_555
Co1 O8 2.085993 1_655
Co1 O6 2.150619 1_554
Co1 O3 2.175632 1_565
Co1 O18 2.277117 1_555
Co2 O12 2.052066 1_555
Co2 O10 2.092278 1_454
Co2 O20 2.100816 1_555
Co2 O4 2.136027 1_555
Co2 O0 2.157342 1_555
Co2 O16 2.295664 1_554
Co3 O14 2.049183 1_555
Co3 O22 2.090546 1_555
Co3 O9 2.095606 1_655
Co3 O7 2.154671 1_555
Co3 O2 2.155461 1_555
Co3 O19 2.268730 1_555
O0 P6 1.532246 1_455
O1 P7 1.532949 1_455
O2 P4 1.533298 1_655
O3 P5 1.531882 1_655
O4 P5 1.540052 1_555
O5 P4 1.537472 1_555
O6 P7 1.538461 1_555
O7 P6 1.537128 1_555
O8 P0 1.531537 1_555
O9 P1 1.530333 1_555
O10 P2 1.531157 1_555
O11 P3 1.531115 1_555
O12 P0 1.527293 1_555
O13 P1 1.526843 1_555
O14 P2 1.526733 1_555
O15 P3 1.525523 1_555
O16 P2 1.534785 1_555
O17 P3 1.536794 1_555
O18 P0 1.536579 1_555
O19 P1 1.536559 1_555
O20 P6 1.531108 1_555
O21 P7 1.530717 1_555
O22 P4 1.530371 1_555
O23 P5 1.531987 1_565
O24 P0 1.624086 1_555
O24 P6 1.626061 1_555
O25 P7 1.624398 1_545
O25 P1 1.624543 1_555
O26 P2 1.625104 1_555
O26 P4 1.625136 1_555
O27 P5 1.623072 1_555
O27 P3 1.625143 1_545
