# generated using pymatgen
data_Mg17(As3O16)2
_symmetry_space_group_name_H-M   'P 1'
_cell_length_a   6.04596735
_cell_length_b   9.82829193
_cell_length_c   10.38713166
_cell_angle_alpha   69.20534276
_cell_angle_beta   90.00000000
_cell_angle_gamma   90.00000000
_symmetry_Int_Tables_number   1
_chemical_formula_structural   Mg17(As3O16)2
_chemical_formula_sum   'Mg17 As6 O32'
_cell_volume   577.01286438
_cell_formula_units_Z   1
loop_
 _symmetry_equiv_pos_site_id
 _symmetry_equiv_pos_as_xyz
  1  'x, y, z'
loop_
 _atom_site_type_symbol
 _atom_site_label
 _atom_site_symmetry_multiplicity
 _atom_site_fract_x
 _atom_site_fract_y
 _atom_site_fract_z
 _atom_site_occupancy
  Mg  Mg0  1  0.25368801  0.26536850  0.99460471  1
  Mg  Mg1  1  0.50000000  0.73594109  0.75422489  1
  Mg  Mg2  1  0.74631199  0.26536850  0.99460471  1
  Mg  Mg3  1  0.00000000  0.27124268  0.74067055  1
  Mg  Mg4  1  0.24129981  0.74481012  0.50475489  1
  Mg  Mg5  1  0.24005499  0.99964280  0.73945178  1
  Mg  Mg6  1  0.24129981  0.25518988  0.49524511  1
  Mg  Mg7  1  0.00000000  0.72875732  0.25932945  1
  Mg  Mg8  1  0.75994501  0.99964280  0.73945178  1
  Mg  Mg9  1  0.75870019  0.74481012  0.50475489  1
  Mg  Mg10  1  0.75870019  0.25518988  0.49524511  1
  Mg  Mg11  1  0.24005499  0.00035720  0.26054822  1
  Mg  Mg12  1  0.50000000  0.26405891  0.24577511  1
  Mg  Mg13  1  0.25368801  0.73463150  0.00539529  1
  Mg  Mg14  1  0.74631199  0.73463150  0.00539529  1
  Mg  Mg15  1  0.75994501  0.00035720  0.26054822  1
  Mg  Mg16  1  0.50000000  -0.00000000  -0.00000000  1
  As  As0  1  0.00000000  0.57802428  0.80798432  1
  As  As1  1  0.50000000  0.42535208  0.68821283  1
  As  As2  1  0.50000000  0.57464792  0.31178717  1
  As  As3  1  0.00000000  0.42197572  0.19201568  1
  As  As4  1  0.50000000  -0.00000000  0.50000000  1
  As  As5  1  0.00000000  -0.00000000  -0.00000000  1
  O  O0  1  0.00000000  0.88448081  0.89220922  1
  O  O1  1  0.00000000  0.38915039  0.87172424  1
  O  O2  1  0.23086891  0.63227184  0.86753847  1
  O  O3  1  0.50000000  0.86680635  0.87999980  1
  O  O4  1  0.21675130  0.11615963  0.89045311  1
  O  O5  1  0.00000000  0.63041646  0.63561256  1
  O  O6  1  0.50000000  0.36754188  0.86305087  1
  O  O7  1  0.76913109  0.63227184  0.86753847  1
  O  O8  1  0.29255867  0.88063563  0.61438744  1
  O  O9  1  0.50000000  0.61278303  0.62835349  1
  O  O10  1  0.78324870  0.11615963  0.89045311  1
  O  O11  1  0.70744133  0.88063563  0.61438744  1
  O  O12  1  0.00000000  0.85772420  0.36851087  1
  O  O13  1  0.00000000  0.14227580  0.63148913  1
  O  O14  1  0.26987914  0.36860127  0.63143190  1
  O  O15  1  0.50000000  0.88427922  0.39077476  1
  O  O16  1  0.73012086  0.36860127  0.63143190  1
  O  O17  1  0.00000000  0.36958354  0.36438744  1
  O  O18  1  0.26987914  0.63139873  0.36856810  1
  O  O19  1  0.50000000  0.11572078  0.60922524  1
  O  O20  1  0.50000000  0.38721697  0.37164651  1
  O  O21  1  0.21675130  0.88384037  0.10954689  1
  O  O22  1  0.29255867  0.11936437  0.38561256  1
  O  O23  1  0.73012086  0.63139873  0.36856810  1
  O  O24  1  0.00000000  0.61084961  0.12827576  1
  O  O25  1  0.70744133  0.11936437  0.38561256  1
  O  O26  1  0.50000000  0.63245812  0.13694913  1
  O  O27  1  0.23086891  0.36772816  0.13246153  1
  O  O28  1  0.78324870  0.88384037  0.10954689  1
  O  O29  1  0.00000000  0.11551919  0.10779078  1
  O  O30  1  0.50000000  0.13319365  0.12000020  1
  O  O31  1  0.76913109  0.36772816  0.13246153  1
loop_
_geom_bond_atom_site_label_1
_geom_bond_atom_site_label_2
_geom_bond_distance
_geom_bond_site_symmetry_2
Mg0 O27 2.025934 1_556
Mg0 O6 2.029536 1_555
Mg0 O1 2.087853 1_555
Mg0 O30 2.097700 1_556
Mg0 O4 2.120668 1_555
Mg0 O29 2.162020 1_556
Mg1 O7 2.054169 1_555
Mg1 O2 2.054169 1_555
Mg1 O8 2.058753 1_555
Mg1 O11 2.058753 1_555
Mg1 O9 2.073221 1_555
Mg1 O3 2.134044 1_555
Mg2 O31 2.025934 1_556
Mg2 O6 2.029536 1_555
Mg2 O1 2.087853 1_655
Mg2 O30 2.097700 1_556
Mg2 O10 2.120668 1_555
Mg2 O29 2.162020 1_656
Mg3 O13 1.978238 1_555
Mg3 O16 2.023500 1_455
Mg3 O14 2.023500 1_555
Mg3 O1 2.077505 1_555
Mg3 O4 2.185705 1_555
Mg3 O10 2.185705 1_455
Mg4 O5 2.038346 1_555
Mg4 O12 2.060956 1_555
Mg4 O8 2.062588 1_555
Mg4 O18 2.095926 1_555
Mg4 O15 2.138857 1_555
Mg4 O9 2.143718 1_555
Mg5 O13 2.052554 1_565
Mg5 O8 2.057967 1_555
Mg5 O19 2.122623 1_565
Mg5 O0 2.151748 1_555
Mg5 O3 2.225405 1_555
Mg5 O4 2.250930 1_565
Mg6 O17 2.038346 1_555
Mg6 O13 2.060956 1_555
Mg6 O22 2.062588 1_555
Mg6 O14 2.095926 1_555
Mg6 O19 2.138857 1_555
Mg6 O20 2.143718 1_555
Mg7 O12 1.978238 1_555
Mg7 O18 2.023500 1_555
Mg7 O23 2.023500 1_455
Mg7 O24 2.077505 1_555
Mg7 O21 2.185705 1_555
Mg7 O28 2.185705 1_455
Mg8 O13 2.052554 1_665
Mg8 O11 2.057967 1_555
Mg8 O19 2.122623 1_565
Mg8 O0 2.151748 1_655
Mg8 O3 2.225405 1_555
Mg8 O10 2.250930 1_565
Mg9 O5 2.038346 1_655
Mg9 O12 2.060956 1_655
Mg9 O11 2.062588 1_555
Mg9 O23 2.095926 1_555
Mg9 O15 2.138857 1_555
Mg9 O9 2.143718 1_555
Mg10 O17 2.038346 1_655
Mg10 O13 2.060956 1_655
Mg10 O25 2.062588 1_555
Mg10 O16 2.095926 1_555
Mg10 O19 2.138857 1_555
Mg10 O20 2.143718 1_555
Mg11 O12 2.052554 1_545
Mg11 O22 2.057967 1_555
Mg11 O15 2.122623 1_545
Mg11 O29 2.151748 1_555
Mg11 O30 2.225405 1_555
Mg11 O21 2.250930 1_545
Mg12 O27 2.054169 1_555
Mg12 O31 2.054169 1_555
Mg12 O25 2.058753 1_555
Mg12 O22 2.058753 1_555
Mg12 O20 2.073221 1_555
Mg12 O30 2.134044 1_555
Mg13 O2 2.025934 1_554
Mg13 O26 2.029536 1_555
Mg13 O24 2.087853 1_555
Mg13 O3 2.097700 1_554
Mg13 O21 2.120668 1_555
Mg13 O0 2.162020 1_554
Mg14 O7 2.025934 1_554
Mg14 O26 2.029536 1_555
Mg14 O24 2.087853 1_655
Mg14 O3 2.097700 1_554
Mg14 O28 2.120668 1_555
Mg14 O0 2.162020 1_654
Mg15 O12 2.052554 1_645
Mg15 O25 2.057967 1_555
Mg15 O15 2.122623 1_545
Mg15 O29 2.151748 1_655
Mg15 O30 2.225405 1_555
Mg15 O28 2.250930 1_545
Mg16 O3 2.103778 1_544
Mg16 O30 2.103778 1_555
Mg16 O10 2.146730 1_554
Mg16 O28 2.146730 1_545
Mg16 O21 2.146730 1_545
Mg16 O4 2.146730 1_554
As0 O5 1.678164 1_555
As0 O7 1.688026 1_455
As0 O2 1.688026 1_555
As0 O1 1.735388 1_555
As1 O14 1.681742 1_555
As1 O16 1.681742 1_555
As1 O6 1.699491 1_555
As1 O9 1.722429 1_555
As2 O23 1.681742 1_555
As2 O18 1.681742 1_555
As2 O26 1.699491 1_555
As2 O20 1.722429 1_555
As3 O17 1.678164 1_555
As3 O31 1.688026 1_455
As3 O27 1.688026 1_555
As3 O24 1.735388 1_555
As4 O8 1.836098 1_545
As4 O25 1.836098 1_555
As4 O11 1.836098 1_545
As4 O22 1.836098 1_555
As4 O15 1.870003 1_545
As4 O19 1.870003 1_555
As5 O4 1.842033 1_554
As5 O21 1.842033 1_545
As5 O10 1.842033 1_454
As5 O28 1.842033 1_445
As5 O0 1.856129 1_544
As5 O29 1.856129 1_555
