# generated using pymatgen
data_NiH12SO9
_symmetry_space_group_name_H-M   'P 1'
_cell_length_a   5.92963860
_cell_length_b   7.99361406
_cell_length_c   17.51515971
_cell_angle_alpha   90.00817566
_cell_angle_beta   89.99835395
_cell_angle_gamma   97.76310454
_symmetry_Int_Tables_number   1
_chemical_formula_structural   NiH12SO9
_chemical_formula_sum   'Ni4 H48 S4 O36'
_cell_volume   822.59648567
_cell_formula_units_Z   4
loop_
 _symmetry_equiv_pos_site_id
 _symmetry_equiv_pos_as_xyz
  1  'x, y, z'
loop_
 _atom_site_type_symbol
 _atom_site_label
 _atom_site_symmetry_multiplicity
 _atom_site_fract_x
 _atom_site_fract_y
 _atom_site_fract_z
 _atom_site_occupancy
  Ni  Ni0  1  0.00845000  0.00880100  0.50017200  1
  Ni  Ni1  1  0.00907200  0.50905900  0.75007100  1
  Ni  Ni2  1  0.00894900  0.00906200  0.00001900  1
  Ni  Ni3  1  0.00906600  0.50906000  0.25003800  1
  H  H0  1  0.95882200  0.29121700  0.63086000  1
  H  H1  1  0.95868900  0.79113300  0.88082200  1
  H  H2  1  0.95885900  0.29117300  0.13081300  1
  H  H3  1  0.95899900  0.79140900  0.38089600  1
  H  H4  1  0.02954000  0.75579400  0.60149500  1
  H  H5  1  0.02955300  0.25585100  0.85149600  1
  H  H6  1  0.02958600  0.75578600  0.10149000  1
  H  H7  1  0.02963200  0.25570700  0.35146400  1
  H  H8  1  0.55292500  0.49422600  0.26765100  1
  H  H9  1  0.55280300  0.99416800  0.51764600  1
  H  H10  1  0.55289500  0.49405900  0.76767700  1
  H  H11  1  0.55276500  0.99408900  0.01767400  1
  H  H12  1  0.06815600  0.34289600  0.46702800  1
  H  H13  1  0.06811600  0.84276300  0.71705200  1
  H  H14  1  0.06818000  0.34266100  0.96704900  1
  H  H15  1  0.06834500  0.84266200  0.21704400  1
  H  H16  1  0.27688800  0.23837200  0.58512600  1
  H  H17  1  0.27674700  0.73834200  0.83511800  1
  H  H18  1  0.27662600  0.23833200  0.08507600  1
  H  H19  1  0.27667700  0.73839700  0.33508500  1
  H  H20  1  0.40851900  0.17242500  0.44781100  1
  H  H21  1  0.40856900  0.67234000  0.69783400  1
  H  H22  1  0.40852100  0.17233900  0.94786500  1
  H  H23  1  0.40851100  0.67233000  0.19789100  1
  H  H24  1  0.14023500  0.69180200  0.52477000  1
  H  H25  1  0.14026300  0.19158900  0.77479600  1
  H  H26  1  0.14028700  0.69154900  0.02481000  1
  H  H27  1  0.14041400  0.19155900  0.27480100  1
  H  H28  1  0.64191500  0.44065600  0.34976100  1
  H  H29  1  0.64182500  0.94068100  0.59976100  1
  H  H30  1  0.64201200  0.44068100  0.84977400  1
  H  H31  1  0.64192100  0.94065000  0.09975300  1
  H  H32  1  0.74118800  0.39121600  0.62544800  1
  H  H33  1  0.74111900  0.89108400  0.87540700  1
  H  H34  1  0.74121600  0.39111500  0.12544200  1
  H  H35  1  0.74128000  0.89121200  0.37544900  1
  H  H36  1  0.18930900  0.58898100  0.39257100  1
  H  H37  1  0.18941000  0.08889000  0.64253600  1
  H  H38  1  0.18932100  0.58880700  0.89253900  1
  H  H39  1  0.18927100  0.08883100  0.14252400  1
  H  H40  1  0.37384400  0.49639900  0.65361600  1
  H  H41  1  0.37384200  0.99641400  0.90361400  1
  H  H42  1  0.37394400  0.49646700  0.15363100  1
  H  H43  1  0.37371500  0.99646500  0.40365500  1
  H  H44  1  0.80373800  0.28176800  0.45381000  1
  H  H45  1  0.80377400  0.78162700  0.70382800  1
  H  H46  1  0.80378700  0.28164700  0.95379300  1
  H  H47  1  0.80382700  0.78165300  0.20380200  1
  S  S0  1  0.49915900  0.49908100  0.50000500  1
  S  S1  1  0.49915700  0.99905300  0.74997100  1
  S  S2  1  0.49918400  0.49906000  0.99997700  1
  S  S3  1  0.49921200  0.99914200  0.24998200  1
  O  O0  1  0.08961800  0.79107300  0.55031300  1
  O  O1  1  0.08962800  0.29095100  0.80028900  1
  O  O2  1  0.08964100  0.79091500  0.05028400  1
  O  O3  1  0.08987500  0.29095700  0.30029800  1
  O  O4  1  0.69033400  0.49064200  0.29955400  1
  O  O5  1  0.69022200  0.99071900  0.54956200  1
  O  O6  1  0.69038800  0.49055000  0.79953900  1
  O  O7  1  0.69027400  0.99057700  0.04952700  1
  O  O8  1  0.89150500  0.39007900  0.65018400  1
  O  O9  1  0.89152100  0.89005500  0.90010600  1
  O  O10  1  0.89162000  0.39006700  0.15012500  1
  O  O11  1  0.89152000  0.89013800  0.40023000  1
  O  O12  1  0.14276000  0.65003300  0.34636800  1
  O  O13  1  0.14268200  0.15023800  0.59644800  1
  O  O14  1  0.14272000  0.65005600  0.84638600  1
  O  O15  1  0.14265100  0.15000600  0.09636300  1
  O  O16  1  0.34280400  0.54990700  0.70365200  1
  O  O17  1  0.34272100  0.04989900  0.95364100  1
  O  O18  1  0.34283700  0.54989500  0.20368600  1
  O  O19  1  0.34280400  0.04997700  0.45368500  1
  O  O20  1  0.95727100  0.24295200  0.45002400  1
  O  O21  1  0.95730900  0.74284800  0.69996200  1
  O  O22  1  0.95730400  0.24281700  0.94993500  1
  O  O23  1  0.95738000  0.74283300  0.19998000  1
  O  O24  1  0.24793300  0.51941200  0.48050700  1
  O  O25  1  0.24798000  0.01937200  0.73047300  1
  O  O26  1  0.24796500  0.51934200  0.98048500  1
  O  O27  1  0.24798100  0.01944300  0.23048200  1
  O  O28  1  0.48031700  0.40303300  0.57762100  1
  O  O29  1  0.48024500  0.90298500  0.82759000  1
  O  O30  1  0.48034000  0.40300500  0.07759200  1
  O  O31  1  0.48037500  0.90311100  0.32760700  1
  O  O32  1  0.55828000  0.36404000  0.44186200  1
  O  O33  1  0.55832400  0.86397000  0.69184100  1
  O  O34  1  0.55835000  0.36395900  0.94185400  1
  O  O35  1  0.55828600  0.86401300  0.19186200  1
loop_
_geom_bond_atom_site_label_1
_geom_bond_atom_site_label_2
_geom_bond_distance
_geom_bond_site_symmetry_2
Ni0 O5 2.063052 1_445
Ni0 O0 2.063686 1_545
Ni0 O11 2.065587 1_445
Ni0 O13 2.124092 1_555
Ni0 O20 2.126227 1_455
Ni0 O19 2.127367 1_555
Ni1 O1 2.065662 1_555
Ni1 O6 2.065893 1_455
Ni1 O8 2.066857 1_455
Ni1 O14 2.121896 1_555
Ni1 O16 2.123476 1_555
Ni1 O21 2.124251 1_455
Ni2 O7 2.066149 1_445
Ni2 O2 2.066564 1_545
Ni2 O9 2.067105 1_444
Ni2 O15 2.122193 1_555
Ni2 O17 2.123415 1_554
Ni2 O22 2.123641 1_454
Ni3 O3 2.066459 1_555
Ni3 O4 2.066541 1_455
Ni3 O10 2.067088 1_455
Ni3 O12 2.122095 1_555
Ni3 O18 2.123235 1_555
Ni3 O23 2.123646 1_455
H0 O8 0.991738 1_555
H1 O9 0.991457 1_555
H2 O10 0.991648 1_555
H3 O11 0.991383 1_555
H4 O0 0.991459 1_555
H5 O1 0.991513 1_555
H6 O2 0.991513 1_555
H7 O3 0.991465 1_555
H8 O4 0.991602 1_555
H9 O5 0.991629 1_555
H10 O6 0.991526 1_555
H11 O7 0.991519 1_555
H12 O20 1.008620 1_455
H12 O24 1.666316 1_555
H13 O21 1.008651 1_455
H13 O25 1.667009 1_565
H14 O22 1.008599 1_455
H14 O26 1.667238 1_555
H15 O23 1.008543 1_455
H15 O27 1.667388 1_565
H16 O13 1.008720 1_555
H16 O28 1.666112 1_555
H17 O14 1.008518 1_555
H17 O29 1.666297 1_555
H18 O15 1.008559 1_555
H18 O30 1.667194 1_555
H19 O12 1.008487 1_555
H19 O31 1.667353 1_555
H20 O19 1.008695 1_555
H20 O32 1.666770 1_555
H21 O16 1.008561 1_555
H21 O33 1.666906 1_555
H22 O17 1.008591 1_555
H22 O34 1.667037 1_555
H23 O18 1.008397 1_555
H23 O35 1.667353 1_555
H24 O0 0.992055 1_555
H24 O24 1.773476 1_555
H25 O1 0.992316 1_555
H25 O25 1.772847 1_555
H26 O2 0.992220 1_555
H26 O26 1.772688 1_554
H27 O3 0.992356 1_555
H27 O27 1.771736 1_555
H28 O4 0.992217 1_555
H28 O32 1.772429 1_555
H29 O5 0.992214 1_555
H29 O33 1.772143 1_555
H30 O6 0.992252 1_555
H30 O34 1.772392 1_555
H31 O7 0.992249 1_555
H31 O35 1.772608 1_555
H32 O8 0.992202 1_555
H32 O28 1.772862 1_555
H33 O9 0.992261 1_555
H33 O29 1.772910 1_555
H34 O10 0.992169 1_555
H34 O30 1.773179 1_555
H35 O11 0.992071 1_555
H35 O31 1.773276 1_555
H36 O12 1.002877 1_555
H36 O24 1.689630 1_555
H37 O13 1.002859 1_555
H37 O25 1.689421 1_555
H38 O14 1.003102 1_555
H38 O26 1.689523 1_555
H39 O15 1.002943 1_555
H39 O27 1.689593 1_555
H40 O16 1.003011 1_555
H40 O28 1.689469 1_555
H41 O17 1.002906 1_565
H41 O29 1.689937 1_555
H42 O18 1.003110 1_555
H42 O30 1.690256 1_555
H43 O19 1.002750 1_565
H43 O31 1.690634 1_555
H44 O20 1.002893 1_555
H44 O32 1.689189 1_555
H45 O21 1.002870 1_555
H45 O33 1.689518 1_555
H46 O22 1.002935 1_555
H46 O34 1.689218 1_555
H47 O23 1.003061 1_555
H47 O35 1.689978 1_555
O24 S0 1.558087 1_555
O25 S1 1.557783 1_545
O26 S2 1.557933 1_555
O27 S3 1.558068 1_545
O28 S0 1.557945 1_555
O29 S1 1.558070 1_555
O30 S2 1.557957 1_554
O31 S3 1.558017 1_555
O32 S0 1.557931 1_555
O33 S1 1.558111 1_555
O34 S2 1.558134 1_555
O35 S3 1.558087 1_555
