# generated using pymatgen
data_Li3MnV(PO4)3
_symmetry_space_group_name_H-M   'P 1'
_cell_length_a   8.68524895
_cell_length_b   8.68524895
_cell_length_c   8.79068914
_cell_angle_alpha   61.14780456
_cell_angle_beta   61.14780456
_cell_angle_gamma   59.59702643
_symmetry_Int_Tables_number   1
_chemical_formula_structural   Li3MnV(PO4)3
_chemical_formula_sum   'Li6 Mn2 V2 P6 O24'
_cell_volume   475.34564076
_cell_formula_units_Z   2
loop_
 _symmetry_equiv_pos_site_id
 _symmetry_equiv_pos_as_xyz
  1  'x, y, z'
loop_
 _atom_site_type_symbol
 _atom_site_label
 _atom_site_symmetry_multiplicity
 _atom_site_fract_x
 _atom_site_fract_y
 _atom_site_fract_z
 _atom_site_occupancy
  Li  Li0  1  0.89048700  0.73910700  0.70668600  1
  Li  Li1  1  0.34814500  0.03622000  0.67693500  1
  Li  Li2  1  0.73910700  0.89048700  0.20668600  1
  Li  Li3  1  0.36247000  0.62424800  0.74552900  1
  Li  Li4  1  0.62424800  0.36247000  0.24552900  1
  Li  Li5  1  0.03622000  0.34814500  0.17693500  1
  Mn  Mn0  1  0.85201000  0.35889800  0.85589400  1
  Mn  Mn1  1  0.35889800  0.85201000  0.35589400  1
  V  V0  1  0.64259000  0.15245300  0.64059500  1
  V  V1  1  0.15245300  0.64259000  0.14059500  1
  P  P0  1  0.53073300  0.74850700  0.95429100  1
  P  P1  1  0.74850700  0.53073300  0.45429100  1
  P  P2  1  0.95440500  0.04322800  0.25807700  1
  P  P3  1  0.24950000  0.47417600  0.53887100  1
  P  P4  1  0.04322800  0.95440500  0.75807700  1
  P  P5  1  0.47417600  0.24950000  0.03887100  1
  O  O0  1  0.73093100  0.59212400  0.91291700  1
  O  O1  1  0.37915400  0.71282700  0.94298000  1
  O  O2  1  0.74756700  0.48953500  0.64225700  1
  O  O3  1  0.71282700  0.37915400  0.44298000  1
  O  O4  1  0.54975200  0.93075900  0.79377100  1
  O  O5  1  0.92674400  0.24017000  0.10994000  1
  O  O6  1  0.93075900  0.54975200  0.29377100  1
  O  O7  1  0.00582100  0.12085200  0.80927300  1
  O  O8  1  0.88897200  0.98495600  0.69496200  1
  O  O9  1  0.59212400  0.73093100  0.41291700  1
  O  O10  1  0.24017000  0.92674400  0.60994000  1
  O  O11  1  0.52077300  0.26189200  0.84170600  1
  O  O12  1  0.48953500  0.74756700  0.14225700  1
  O  O13  1  0.76985000  0.05284100  0.42328100  1
  O  O14  1  0.39765000  0.27217500  0.58474200  1
  O  O15  1  0.12085200  0.00582100  0.30927300  1
  O  O16  1  0.98495600  0.88897200  0.19496200  1
  O  O17  1  0.05427200  0.48053600  0.68026700  1
  O  O18  1  0.05284100  0.76985000  0.92328100  1
  O  O19  1  0.48053600  0.05427200  0.18026700  1
  O  O20  1  0.29451200  0.61917600  0.55148400  1
  O  O21  1  0.26189200  0.52077300  0.34170600  1
  O  O22  1  0.61917600  0.29451200  0.05148400  1
  O  O23  1  0.27217500  0.39765000  0.08474200  1
loop_
_geom_bond_atom_site_label_1
_geom_bond_atom_site_label_2
_geom_bond_distance
_geom_bond_site_symmetry_2
Li0 O0 1.992256 1_555
Li0 O17 2.017909 1_655
Li0 O8 2.081013 1_555
Li0 O4 2.484368 1_555
Li1 O14 1.998518 1_555
Li1 O10 2.026408 1_545
Li1 O4 2.040651 1_545
Li1 O7 2.451237 1_555
Li1 O1 2.633211 1_545
Li2 O9 1.992256 1_555
Li2 O19 2.017909 1_565
Li2 O16 2.081013 1_555
Li2 O6 2.484368 1_555
Li3 O20 2.080996 1_555
Li3 O10 2.196927 1_555
Li3 O1 2.295638 1_555
Li3 O18 2.383728 1_555
Li4 O22 2.080996 1_555
Li4 O5 2.196927 1_555
Li4 O3 2.295638 1_555
Li4 O13 2.383728 1_555
Li5 O23 1.998518 1_555
Li5 O5 2.026408 1_455
Li5 O6 2.040651 1_455
Li5 O15 2.451237 1_555
Li5 O3 2.633211 1_455
Mn0 O7 1.928970 1_655
Mn0 O0 1.943055 1_555
Mn0 O2 2.045256 1_555
Mn0 O22 2.054111 1_556
Mn0 O17 2.066996 1_655
Mn0 O5 2.229575 1_556
Mn1 O15 1.928970 1_565
Mn1 O9 1.943055 1_555
Mn1 O12 2.045256 1_555
Mn1 O20 2.054111 1_555
Mn1 O19 2.066996 1_565
Mn1 O10 2.229575 1_555
O0 P0 1.573674 1_555
O1 P0 1.551804 1_555
O1 V1 2.039265 1_556
O2 P1 1.509203 1_555
O3 P1 1.551804 1_555
O3 V0 2.039265 1_555
O4 P0 1.551791 1_555
O4 V0 2.047455 1_565
O5 P2 1.554212 1_555
O6 P1 1.551791 1_555
O6 V1 2.047455 1_655
O7 P4 1.552211 1_545
O8 P4 1.545530 1_655
O8 V0 2.022128 1_565
O9 P1 1.573674 1_555
O10 P4 1.554212 1_555
O11 P5 1.538343 1_556
O11 V0 1.986714 1_555
O12 P0 1.509203 1_554
O13 P2 1.555730 1_555
O13 V0 2.051574 1_555
O14 P3 1.558637 1_555
O14 V0 2.030848 1_555
O15 P2 1.552211 1_455
O16 P2 1.545530 1_565
O16 V1 2.022128 1_655
O17 P3 1.536399 1_555
O18 P4 1.555730 1_555
O18 V1 2.051574 1_556
O19 P5 1.536399 1_555
O20 P3 1.557573 1_555
O21 P3 1.538343 1_555
O21 V1 1.986714 1_555
O22 P5 1.557573 1_555
O23 P5 1.558637 1_555
O23 V1 2.030848 1_555
