# generated using pymatgen
data_Li7W5O16
_symmetry_space_group_name_H-M   'P 1'
_cell_length_a   6.05342976
_cell_length_b   6.09647452
_cell_length_c   9.92142448
_cell_angle_alpha   89.80663579
_cell_angle_beta   90.16178565
_cell_angle_gamma   120.33276523
_symmetry_Int_Tables_number   1
_chemical_formula_structural   Li7W5O16
_chemical_formula_sum   'Li7 W5 O16'
_cell_volume   316.02107510
_cell_formula_units_Z   1
loop_
 _symmetry_equiv_pos_site_id
 _symmetry_equiv_pos_as_xyz
  1  'x, y, z'
loop_
 _atom_site_type_symbol
 _atom_site_label
 _atom_site_symmetry_multiplicity
 _atom_site_fract_x
 _atom_site_fract_y
 _atom_site_fract_z
 _atom_site_occupancy
  Li  Li0  1  0.16671800  0.82573900  0.21273600  1
  Li  Li1  1  0.34717000  0.67753000  0.91275700  1
  Li  Li2  1  0.00850200  0.00136200  0.99738900  1
  Li  Li3  1  0.03316500  0.01994300  0.47910300  1
  Li  Li4  1  0.16764900  0.34018700  0.21192100  1
  Li  Li5  1  0.32831300  0.16716600  0.71499900  1
  Li  Li6  1  0.66164000  0.32967900  0.40059300  1
  W  W0  1  0.30376800  0.64429600  0.47513700  1
  W  W1  1  0.65320400  0.82577000  0.22179700  1
  W  W2  1  0.66160900  0.32752700  0.99392000  1
  W  W3  1  0.82525700  0.66127700  0.71205800  1
  W  W4  1  0.82857300  0.17443100  0.71210600  1
  O  O0  1  0.13417100  0.79731300  0.60147300  1
  O  O1  1  0.03363600  0.51990500  0.35910200  1
  O  O2  1  0.36356400  0.68240600  0.10907800  1
  O  O3  1  0.98990400  0.99334200  0.29229200  1
  O  O4  1  0.99314400  0.99746700  0.81092700  1
  O  O5  1  0.14831500  0.32531400  0.59133000  1
  O  O6  1  0.50250700  0.96472700  0.35516100  1
  O  O7  1  0.49803900  0.53046200  0.35304000  1
  O  O8  1  0.35007800  0.17823900  0.07184500  1
  O  O9  1  0.65439400  0.81820800  0.59914600  1
  O  O10  1  0.54745500  0.50027000  0.84357400  1
  O  O11  1  0.54201400  0.05318200  0.85125400  1
  O  O12  1  0.65884200  0.33344800  0.60341500  1
  O  O13  1  0.81139000  0.64732000  0.08558500  1
  O  O14  1  0.97166500  0.49555800  0.84734000  1
  O  O15  1  0.81531400  0.16823200  0.08875900  1
loop_
_geom_bond_atom_site_label_1
_geom_bond_atom_site_label_2
_geom_bond_distance
_geom_bond_site_symmetry_2
Li0 O3 1.981796 1_455
Li0 O2 2.075050 1_555
Li0 O1 2.169182 1_555
Li0 O13 2.243206 1_455
Li0 O6 2.258027 1_555
Li0 O8 2.320219 1_565
Li1 O2 1.949593 1_556
Li1 O14 2.066009 1_455
Li1 O11 2.067518 1_565
Li1 O10 2.107599 1_555
Li2 O4 1.851671 1_445
Li2 O8 1.930955 1_556
Li2 O13 2.059126 1_446
Li2 O15 2.106702 1_456
Li3 O3 1.867212 1_445
Li3 O5 1.972414 1_555
Li3 O0 2.124357 1_545
Li3 O9 2.312049 1_445
Li4 O3 1.990035 1_445
Li4 O2 2.072124 1_555
Li4 O15 2.208322 1_455
Li4 O1 2.214974 1_555
Li4 O7 2.226593 1_555
Li4 O8 2.290177 1_555
Li5 O4 1.994189 1_445
Li5 O12 2.052524 1_555
Li5 O5 2.160516 1_555
Li5 O10 2.190428 1_555
Li5 O11 2.208072 1_555
Li5 O0 2.251016 1_545
Li6 O7 1.979801 1_555
Li6 O6 1.980132 1_545
Li6 O1 1.987338 1_655
Li6 O12 2.012709 1_555
O0 W3 1.956384 1_455
O0 W0 2.116087 1_555
O1 W0 1.821298 1_555
O2 W1 1.880531 1_555
O3 W1 1.892275 1_555
O4 W3 2.024812 1_555
O4 W4 2.047089 1_565
O5 W0 2.034414 1_555
O5 W4 2.058069 1_455
O6 W1 2.023740 1_555
O6 W0 2.073407 1_555
O7 W1 2.025353 1_555
O7 W0 2.042079 1_555
O8 W2 1.803418 1_554
O9 W3 2.055670 1_555
O9 W4 2.186549 1_565
O9 W0 2.205432 1_555
O10 W3 1.957172 1_555
O10 W2 2.128429 1_555
O11 W2 2.027851 1_555
O11 W4 2.042764 1_555
O12 W3 2.036152 1_555
O12 W4 2.037428 1_555
O13 W2 1.916253 1_554
O13 W1 2.235234 1_555
O14 W3 2.120420 1_555
O14 W4 2.163699 1_555
O14 W2 2.179552 1_555
O15 W2 1.896245 1_554
O15 W1 2.232370 1_545
