# generated using pymatgen
data_Li2Ni3WO8
_symmetry_space_group_name_H-M   'P 1'
_cell_length_a   5.94137610
_cell_length_b   5.94252870
_cell_length_c   10.42245269
_cell_angle_alpha   90.01120382
_cell_angle_beta   106.56199140
_cell_angle_gamma   60.00702553
_symmetry_Int_Tables_number   1
_chemical_formula_structural   Li2Ni3WO8
_chemical_formula_sum   'Li4 Ni6 W2 O16'
_cell_volume   300.96161171
_cell_formula_units_Z   2
loop_
 _symmetry_equiv_pos_site_id
 _symmetry_equiv_pos_as_xyz
  1  'x, y, z'
loop_
 _atom_site_type_symbol
 _atom_site_label
 _atom_site_symmetry_multiplicity
 _atom_site_fract_x
 _atom_site_fract_y
 _atom_site_fract_z
 _atom_site_occupancy
  Li  Li0  1  0.12988300  0.93507200  0.19486400  1
  Li  Li1  1  0.12989500  0.43506600  0.69488400  1
  Li  Li2  1  0.87011700  0.56492800  0.30513700  1
  Li  Li3  1  0.87011300  0.06493000  0.80513000  1
  Ni  Ni0  1  0.50003300  0.49995500  0.50002000  1
  Ni  Ni1  1  0.50001700  0.99996500  0.99999900  1
  Ni  Ni2  1  0.50003200  0.00001300  0.50002000  1
  Ni  Ni3  1  0.50001700  0.50001800  0.99999900  1
  Ni  Ni4  1  0.99997500  0.00001300  0.50002000  1
  Ni  Ni5  1  0.99996400  0.50001800  0.99999900  1
  W  W0  1  0.49999500  0.25000200  0.24999400  1
  W  W1  1  0.49999800  0.75000100  0.74999600  1
  O  O0  1  0.27013600  0.86497100  0.40514900  1
  O  O1  1  0.27012500  0.36497700  0.90513000  1
  O  O2  1  0.72985700  0.63503300  0.09484200  1
  O  O3  1  0.72987000  0.13502500  0.59486100  1
  O  O4  1  0.72439100  0.63779600  0.63058800  1
  O  O5  1  0.72436500  0.13780900  0.13057800  1
  O  O6  1  0.26836300  0.63779900  0.63058100  1
  O  O7  1  0.26836600  0.13781100  0.13057100  1
  O  O8  1  0.26831900  0.09388500  0.63050200  1
  O  O9  1  0.26832000  0.59387000  0.13049100  1
  O  O10  1  0.73167300  0.40612100  0.86948800  1
  O  O11  1  0.73167800  0.90613000  0.36950400  1
  O  O12  1  0.73162800  0.86220300  0.86940900  1
  O  O13  1  0.73163200  0.36219000  0.36942500  1
  O  O14  1  0.27560600  0.86220500  0.86940300  1
  O  O15  1  0.27563000  0.36219300  0.36941700  1
loop_
_geom_bond_atom_site_label_1
_geom_bond_atom_site_label_2
_geom_bond_distance
_geom_bond_site_symmetry_2
Li0 O7 1.970580 1_565
Li0 O5 1.970586 1_465
Li0 O9 1.970924 1_555
Li0 O0 2.069663 1_555
Li1 O4 1.970517 1_455
Li1 O6 1.970525 1_555
Li1 O8 1.970865 1_555
Li1 O1 2.069280 1_555
Li2 O13 1.970561 1_555
Li2 O15 1.970562 1_655
Li2 O11 1.970895 1_555
Li2 O2 2.069762 1_555
Li3 O12 1.970464 1_545
Li3 O14 1.970465 1_645
Li3 O10 1.970799 1_555
Li3 O3 2.069506 1_555
Ni0 O3 1.953269 1_555
Ni0 O0 1.953753 1_555
Ni0 O4 2.087290 1_555
Ni0 O15 2.087300 1_555
Ni0 O13 2.087428 1_555
Ni0 O6 2.087433 1_555
Ni1 O2 1.953284 1_556
Ni1 O1 1.953729 1_565
Ni1 O14 2.087289 1_555
Ni1 O5 2.087318 1_566
Ni1 O12 2.087429 1_555
Ni1 O7 2.087457 1_566
Ni2 O3 1.952191 1_555
Ni2 O0 1.952684 1_545
Ni2 O8 2.086905 1_555
Ni2 O11 2.086915 1_545
Ni2 O15 2.088129 1_555
Ni2 O4 2.088130 1_545
Ni3 O2 1.952220 1_556
Ni3 O1 1.952655 1_555
Ni3 O10 2.086909 1_555
Ni3 O9 2.086932 1_556
Ni3 O14 2.088121 1_555
Ni3 O5 2.088154 1_556
Ni4 O3 1.952673 1_555
Ni4 O0 1.953158 1_645
Ni4 O11 2.086936 1_545
Ni4 O8 2.086938 1_655
Ni4 O13 2.088065 1_555
Ni4 O6 2.088070 1_645
Ni5 O2 1.952698 1_556
Ni5 O1 1.953142 1_655
Ni5 O10 2.086942 1_555
Ni5 O9 2.086957 1_656
Ni5 O12 2.088071 1_555
Ni5 O7 2.088098 1_656
O4 W1 1.956450 1_555
O5 W0 1.956425 1_555
O6 W1 1.956579 1_555
O7 W0 1.956545 1_555
O8 W1 1.957856 1_545
O9 W0 1.957831 1_555
O10 W1 1.957830 1_555
O11 W0 1.957879 1_565
O12 W1 1.956549 1_555
O13 W0 1.956602 1_555
O14 W1 1.956438 1_555
O15 W0 1.956465 1_555
