# generated using pymatgen
data_Li3V3P8O29
_symmetry_space_group_name_H-M   'P 1'
_cell_length_a   9.73813100
_cell_length_b   9.74091439
_cell_length_c   14.20857374
_cell_angle_alpha   89.47493404
_cell_angle_beta   89.54711963
_cell_angle_gamma   60.38524105
_symmetry_Int_Tables_number   1
_chemical_formula_structural   Li3V3P8O29
_chemical_formula_sum   'Li6 V6 P16 O58'
_cell_volume   1171.67670893
_cell_formula_units_Z   2
loop_
 _symmetry_equiv_pos_site_id
 _symmetry_equiv_pos_as_xyz
  1  'x, y, z'
loop_
 _atom_site_type_symbol
 _atom_site_label
 _atom_site_symmetry_multiplicity
 _atom_site_fract_x
 _atom_site_fract_y
 _atom_site_fract_z
 _atom_site_occupancy
  Li  Li0  1  0.68543300  0.08270100  0.06004300  1
  Li  Li1  1  0.33083600  0.33666100  0.89546400  1
  Li  Li2  1  0.90554100  0.32830100  0.44029100  1
  Li  Li3  1  0.09637500  0.66671000  0.55644700  1
  Li  Li4  1  0.05534600  0.98402500  0.99650100  1
  Li  Li5  1  0.99687800  0.00009900  0.49906800  1
  V  V0  1  0.00320400  0.43484700  0.24043900  1
  V  V1  1  0.99533900  0.56898700  0.75531200  1
  V  V2  1  0.56624700  0.43391500  0.74838200  1
  V  V3  1  0.43683700  0.56548700  0.24803100  1
  V  V4  1  0.56137800  0.99643500  0.25788100  1
  V  V5  1  0.43171500  0.00052800  0.74315400  1
  P  P0  1  0.68290500  0.09023500  0.84267600  1
  P  P1  1  0.69211800  0.22417900  0.34169500  1
  P  P2  1  0.21411800  0.08661000  0.34266000  1
  P  P3  1  0.34136000  0.32981200  0.13106500  1
  P  P4  1  0.32899700  0.33914900  0.63102500  1
  P  P5  1  0.09008400  0.21563700  0.83977300  1
  P  P6  1  0.91494600  0.31277100  0.65800500  1
  P  P7  1  0.22189400  0.69192100  0.84624100  1
  P  P8  1  0.77558500  0.30688400  0.15636100  1
  P  P9  1  0.08815900  0.68476000  0.34072200  1
  P  P10  1  0.91188900  0.78421600  0.15994200  1
  P  P11  1  0.67139400  0.65744600  0.36716300  1
  P  P12  1  0.65923100  0.67106100  0.86864500  1
  P  P13  1  0.78179000  0.91811500  0.65983100  1
  P  P14  1  0.30335900  0.77626300  0.65960100  1
  P  P15  1  0.30645600  0.91724400  0.15855500  1
  O  O0  1  0.80863100  0.99386300  0.57666000  1
  O  O1  1  0.64833800  0.09062700  0.33335300  1
  O  O2  1  0.78721000  0.21062000  0.07339300  1
  O  O3  1  0.65327400  0.26291400  0.83093100  1
  O  O4  1  0.51893000  0.10350000  0.82626200  1
  O  O5  1  0.48832100  0.18071400  0.17095700  1
  O  O6  1  0.37858600  0.08011100  0.33102300  1
  O  O7  1  0.21788600  0.99133900  0.07205200  1
  O  O8  1  0.26552800  0.08119800  0.83028500  1
  O  O9  1  0.47423200  0.33925700  0.67993200  1
  O  O10  1  0.53859400  0.38410500  0.33033900  1
  O  O11  1  0.33114200  0.18862500  0.67450500  1
  O  O12  1  0.34132400  0.33187900  0.02606200  1
  O  O13  1  0.32930100  0.34587300  0.52700300  1
  O  O14  1  0.18851400  0.33195000  0.17236800  1
  O  O15  1  0.37453100  0.52884600  0.83500000  1
  O  O16  1  0.33943300  0.47617000  0.17559300  1
  O  O17  1  0.08243900  0.26306700  0.33304400  1
  O  O18  1  0.01102000  0.19771600  0.74336800  1
  O  O19  1  0.97996300  0.23827400  0.56560700  1
  O  O20  1  0.00982200  0.19711100  0.92311200  1
  O  O21  1  0.09709100  0.37350600  0.83074500  1
  O  O22  1  0.18041700  0.48721600  0.67381700  1
  O  O23  1  0.91161900  0.34750100  0.16409800  1
  O  O24  1  0.08562900  0.52921400  0.32245800  1
  O  O25  1  0.26029800  0.65095000  0.32735000  1
  O  O26  1  0.79791300  0.20191400  0.24923300  1
  O  O27  1  0.79323600  0.20620100  0.42425200  1
  O  O28  1  0.20293500  0.79002600  0.57784200  1
  O  O29  1  0.74107700  0.34755000  0.67055500  1
  O  O30  1  0.91678100  0.46773700  0.67683200  1
  O  O31  1  0.08421100  0.65204900  0.83349500  1
  O  O32  1  0.81974900  0.51059400  0.32438500  1
  O  O33  1  0.91643200  0.62068400  0.17148200  1
  O  O34  1  0.99228600  0.79996800  0.07575000  1
  O  O35  1  0.02156800  0.75991400  0.43307100  1
  O  O36  1  0.98849800  0.80286400  0.25670000  1
  O  O37  1  0.91587600  0.74019300  0.66647900  1
  O  O38  1  0.65105600  0.53008200  0.82190000  1
  O  O39  1  0.61776100  0.46327500  0.16916700  1
  O  O40  1  0.81536100  0.65944900  0.82383900  1
  O  O41  1  0.66173800  0.67152700  0.97209200  1
  O  O42  1  0.67335100  0.65375500  0.47135100  1
  O  O43  1  0.66798500  0.81070300  0.32331500  1
  O  O44  1  0.45853100  0.61737400  0.67135700  1
  O  O45  1  0.52432800  0.66177800  0.32030400  1
  O  O46  1  0.73589100  0.91733200  0.16643300  1
  O  O47  1  0.79906900  0.99352100  0.75739800  1
  O  O48  1  0.75835000  0.01949600  0.93377200  1
  O  O49  1  0.61863100  0.92616600  0.67012800  1
  O  O50  1  0.52440100  0.82101500  0.81912700  1
  O  O51  1  0.46166600  0.92308900  0.17511000  1
  O  O52  1  0.35014600  0.74076200  0.16961000  1
  O  O53  1  0.20055200  0.78679800  0.93030400  1
  O  O54  1  0.20405200  0.79749500  0.75436600  1
  O  O55  1  0.34459500  0.91199100  0.66414000  1
  O  O56  1  0.19184800  0.01268300  0.42833500  1
  O  O57  1  0.19793400  0.00361700  0.24931500  1
loop_
_geom_bond_atom_site_label_1
_geom_bond_atom_site_label_2
_geom_bond_distance
_geom_bond_site_symmetry_2
Li0 O48 1.915776 1_554
Li0 O2 1.949052 1_555
Li0 O46 2.075134 1_545
Li0 O5 2.290870 1_555
Li1 O12 1.858118 1_556
Li1 O15 2.275027 1_555
Li1 O21 2.318469 1_555
Li1 O4 2.319720 1_555
Li2 O19 1.956608 1_555
Li2 O27 1.989232 1_555
Li2 O17 2.141904 1_655
Li2 O32 2.250597 1_555
Li3 O35 1.940439 1_555
Li3 O28 1.963608 1_555
Li3 O37 2.186263 1_455
Li3 O22 2.249846 1_555
Li4 O7 1.950001 1_556
Li4 O53 1.975410 1_555
Li4 O20 2.156478 1_565
Li4 O34 2.428920 1_456
Li5 O0 2.157902 1_545
Li5 O56 2.197163 1_655
Li5 O27 2.269933 1_555
Li5 O28 2.324199 1_645
Li5 O35 2.427271 1_645
Li5 O19 2.442048 1_555
O0 P13 1.476147 1_555
O1 P1 1.562044 1_555
O1 V4 1.873283 1_545
O2 P8 1.481565 1_555
O3 P0 1.567268 1_555
O3 V2 1.858286 1_555
O4 P0 1.556375 1_555
O4 V5 2.000334 1_555
O5 P3 1.556344 1_555
O5 V4 1.991185 1_545
O6 P2 1.578702 1_555
O6 V4 1.861530 1_545
O7 P15 1.469945 1_555
O8 P5 1.562179 1_555
O8 V5 1.870427 1_555
O9 P4 1.581202 1_555
O9 V2 1.856284 1_555
O10 P1 1.544463 1_555
O10 V3 1.929087 1_555
O11 P4 1.576482 1_555
O11 V5 1.864543 1_555
O12 P3 1.491895 1_555
O13 P4 1.478899 1_555
O14 P3 1.586206 1_555
O14 V0 1.843667 1_555
O15 P7 1.557410 1_555
O15 V2 2.033117 1_555
O16 P3 1.556614 1_555
O16 V3 1.887715 1_555
O17 P2 1.561256 1_555
O17 V0 1.956072 1_555
O18 P6 1.599744 1_455
O18 P5 1.628943 1_555
O19 P6 1.483662 1_555
O20 P5 1.471897 1_555
O21 P5 1.576660 1_555
O21 V1 1.967493 1_455
O22 P4 1.575779 1_555
O22 V1 1.946448 1_455
O23 P8 1.563522 1_555
O23 V0 1.864963 1_655
O24 P9 1.551729 1_555
O24 V0 1.900256 1_555
O25 P9 1.550827 1_555
O25 V3 1.868364 1_555
O26 P8 1.610638 1_555
O26 P1 1.611640 1_555
O27 P1 1.490079 1_555
O28 P14 1.486395 1_555
O29 P6 1.562938 1_555
O29 V2 1.844137 1_555
O30 P6 1.544227 1_555
O30 V1 1.892280 1_555
O31 P7 1.581492 1_555
O31 V1 1.833414 1_455
O32 P11 1.569208 1_555
O32 V0 1.959170 1_655
O33 P10 1.578611 1_555
O33 V0 1.849241 1_655
O34 P10 1.472437 1_555
O35 P9 1.487662 1_555
O36 P9 1.606331 1_655
O36 P10 1.623064 1_555
O37 P13 1.574785 1_555
O37 V1 1.916917 1_555
O38 P12 1.568097 1_555
O38 V2 1.856594 1_555
O39 P8 1.550028 1_555
O39 V3 1.899106 1_555
O40 P12 1.595556 1_555
O40 V1 1.805177 1_555
O41 P12 1.470316 1_555
O42 P11 1.480515 1_555
O43 P11 1.597559 1_555
O43 V4 1.828516 1_555
O44 P14 1.547426 1_555
O44 V2 1.902961 1_555
O45 P11 1.565550 1_555
O45 V3 1.865876 1_555
O46 P10 1.559024 1_555
O46 V4 1.964520 1_555
O47 P0 1.606652 1_565
O47 P13 1.623002 1_555
O48 P0 1.479274 1_555
O49 P13 1.557379 1_555
O49 V5 1.896125 1_565
O50 P12 1.566161 1_555
O50 V5 1.859712 1_565
O51 P15 1.560124 1_555
O51 V4 1.885609 1_555
O52 P15 1.560197 1_555
O52 V3 1.850600 1_555
O53 P7 1.466431 1_555
O54 P14 1.605562 1_555
O54 P7 1.610670 1_555
O55 P14 1.562078 1_555
O55 V5 1.865446 1_565
O56 P2 1.477016 1_555
O57 P2 1.608211 1_555
O57 P15 1.614704 1_545
