# generated using pymatgen
data_Li3Cr2(FeO4)2
_symmetry_space_group_name_H-M   'P 1'
_cell_length_a   5.95266191
_cell_length_b   5.95266191
_cell_length_c   5.94739274
_cell_angle_alpha   60.23379349
_cell_angle_beta   60.23379349
_cell_angle_gamma   60.12118357
_symmetry_Int_Tables_number   1
_chemical_formula_structural   Li3Cr2(FeO4)2
_chemical_formula_sum   'Li3 Cr2 Fe2 O8'
_cell_volume   149.67825554
_cell_formula_units_Z   1
loop_
 _symmetry_equiv_pos_site_id
 _symmetry_equiv_pos_as_xyz
  1  'x, y, z'
loop_
 _atom_site_type_symbol
 _atom_site_label
 _atom_site_symmetry_multiplicity
 _atom_site_fract_x
 _atom_site_fract_y
 _atom_site_fract_z
 _atom_site_occupancy
  Li  Li0  1  0.00000000  0.50000000  0.00000000  1
  Li  Li1  1  0.50000000  0.50000000  0.50000000  1
  Li  Li2  1  0.50000000  0.00000000  0.00000000  1
  Cr  Cr0  1  0.00000000  0.00000000  0.50000000  1
  Cr  Cr1  1  0.00000000  0.00000000  0.00000000  1
  Fe  Fe0  1  0.00000000  0.50000000  0.50000000  1
  Fe  Fe1  1  0.50000000  0.00000000  0.50000000  1
  O  O0  1  0.78484100  0.22999500  0.73190800  1
  O  O1  1  0.77073800  0.77073800  0.71701600  1
  O  O2  1  0.77000500  0.21515900  0.26809200  1
  O  O3  1  0.75833800  0.75833800  0.25823200  1
  O  O4  1  0.24166200  0.24166200  0.74176800  1
  O  O5  1  0.22999500  0.78484100  0.73190800  1
  O  O6  1  0.22926200  0.22926200  0.28298400  1
  O  O7  1  0.21515900  0.77000500  0.26809200  1
loop_
_geom_bond_atom_site_label_1
_geom_bond_atom_site_label_2
_geom_bond_distance
_geom_bond_site_symmetry_2
Li0 O6 2.165266 1_555
Li0 O1 2.165266 1_454
Li0 O3 2.177203 1_455
Li0 O4 2.177203 1_554
Li0 O2 2.180045 1_455
Li0 O5 2.180045 1_554
Li1 O3 2.182259 1_555
Li1 O4 2.182259 1_555
Li1 O0 2.183174 1_555
Li1 O7 2.183174 1_555
Li1 O2 2.183174 1_555
Li1 O5 2.183174 1_555
Li2 O6 2.165266 1_555
Li2 O1 2.165266 1_544
Li2 O3 2.177203 1_545
Li2 O4 2.177203 1_554
Li2 O0 2.180045 1_554
Li2 O7 2.180045 1_545
Cr0 O1 1.936104 1_445
Cr0 O6 1.936104 1_555
Cr0 O7 1.947042 1_545
Cr0 O0 1.947042 1_455
Cr0 O5 1.947042 1_545
Cr0 O2 1.947042 1_455
Cr1 O2 2.042096 1_455
Cr1 O7 2.042096 1_545
Cr1 O5 2.042096 1_544
Cr1 O0 2.042096 1_454
Cr1 O4 2.042521 1_554
Cr1 O3 2.042521 1_445
Fe0 O4 2.038612 1_555
Fe0 O3 2.038612 1_455
Fe0 O0 2.054703 1_455
Fe0 O7 2.054703 1_555
Fe0 O6 2.061716 1_555
Fe0 O1 2.061716 1_455
Fe1 O4 2.038612 1_555
Fe1 O3 2.038612 1_545
Fe1 O5 2.054703 1_545
Fe1 O2 2.054703 1_555
Fe1 O1 2.061716 1_545
Fe1 O6 2.061716 1_555
