# generated using pymatgen
data_Zr2N2O
_symmetry_space_group_name_H-M   'P 1'
_cell_length_a   7.11388464
_cell_length_b   7.11388464
_cell_length_c   8.29917702
_cell_angle_alpha   79.80738573
_cell_angle_beta   79.80738573
_cell_angle_gamma   26.98091008
_symmetry_Int_Tables_number   1
_chemical_formula_structural   Zr2N2O
_chemical_formula_sum   'Zr6 N6 O3'
_cell_volume   187.36930260
_cell_formula_units_Z   3
loop_
 _symmetry_equiv_pos_site_id
 _symmetry_equiv_pos_as_xyz
  1  'x, y, z'
loop_
 _atom_site_type_symbol
 _atom_site_label
 _atom_site_symmetry_multiplicity
 _atom_site_fract_x
 _atom_site_fract_y
 _atom_site_fract_z
 _atom_site_occupancy
  Zr  Zr0  1  0.96981200  0.96981200  0.80740600  1
  Zr  Zr1  1  0.37094400  0.37094400  0.47399400  1
  Zr  Zr2  1  0.30397700  0.30397700  0.13161900  1
  Zr  Zr3  1  0.69602300  0.69602300  0.86838100  1
  Zr  Zr4  1  0.62905600  0.62905600  0.52600600  1
  Zr  Zr5  1  0.03018800  0.03018800  0.19259400  1
  N  N0  1  0.46574400  0.46574400  0.65660000  1
  N  N1  1  0.82794100  0.82794100  0.96605000  1
  N  N2  1  0.87344800  0.87344800  0.28719000  1
  N  N3  1  0.12655200  0.12655200  0.71281000  1
  N  N4  1  0.17205900  0.17205900  0.03395000  1
  N  N5  1  0.53425600  0.53425600  0.34340000  1
  O  O0  1  0.79082600  0.79082600  0.61922900  1
  O  O1  1  0.20917400  0.20917400  0.38077100  1
  O  O2  1  0.50000000  0.50000000  0.00000000  1
loop_
_geom_bond_atom_site_label_1
_geom_bond_atom_site_label_2
_geom_bond_distance
_geom_bond_site_symmetry_2
N0 Zr0 2.085505 1_455
N0 Zr0 2.085505 1_545
N0 Zr1 2.177233 1_555
N0 Zr4 2.321321 1_555
N1 Zr3 2.127557 1_555
N1 Zr2 2.141573 1_566
N1 Zr2 2.141573 1_656
N1 Zr0 2.155354 1_555
N2 Zr5 2.167773 1_665
N2 Zr1 2.266992 1_565
N2 Zr1 2.266992 1_655
N2 Zr2 2.407599 1_565
N2 Zr2 2.407599 1_655
N3 Zr0 2.167773 1_445
N3 Zr4 2.266992 1_455
N3 Zr4 2.266992 1_545
N3 Zr3 2.407599 1_455
N3 Zr3 2.407599 1_545
N4 Zr2 2.127557 1_555
N4 Zr3 2.141573 1_544
N4 Zr3 2.141573 1_454
N4 Zr5 2.155354 1_555
N5 Zr5 2.085505 1_565
N5 Zr5 2.085505 1_655
N5 Zr4 2.177233 1_555
N5 Zr1 2.321321 1_555
O0 Zr1 2.224708 1_565
O0 Zr1 2.224708 1_655
O0 Zr3 2.238050 1_555
O0 Zr4 2.497595 1_555
O1 Zr4 2.224708 1_545
O1 Zr4 2.224708 1_455
O1 Zr2 2.238050 1_555
O1 Zr1 2.497595 1_555
O2 Zr0 2.392970 1_454
O2 Zr0 2.392970 1_544
O2 Zr5 2.392970 1_655
O2 Zr5 2.392970 1_565
O2 Zr3 2.733137 1_554
O2 Zr2 2.733137 1_555
