# generated using pymatgen
data_Mn3(O2F)2
_symmetry_space_group_name_H-M   'P 1'
_cell_length_a   4.61318500
_cell_length_b   4.62718000
_cell_length_c   10.27349894
_cell_angle_alpha   63.43567462
_cell_angle_beta   90.00000000
_cell_angle_gamma   90.00000000
_symmetry_Int_Tables_number   1
_chemical_formula_structural   Mn3(O2F)2
_chemical_formula_sum   'Mn6 O8 F4'
_cell_volume   196.14777681
_cell_formula_units_Z   2
loop_
 _symmetry_equiv_pos_site_id
 _symmetry_equiv_pos_as_xyz
  1  'x, y, z'
loop_
 _atom_site_type_symbol
 _atom_site_label
 _atom_site_symmetry_multiplicity
 _atom_site_fract_x
 _atom_site_fract_y
 _atom_site_fract_z
 _atom_site_occupancy
  Mn  Mn0  1  0.50000000  0.00000000  0.50000000  1
  Mn  Mn1  1  0.51969400  0.69011300  0.84003700  1
  Mn  Mn2  1  0.48030600  0.30988700  0.15996300  1
  Mn  Mn3  1  0.98030600  0.69011300  0.34003700  1
  Mn  Mn4  1  0.01969400  0.30988700  0.65996300  1
  Mn  Mn5  1  0.00000000  0.00000000  0.00000000  1
  O  O0  1  0.69212500  0.30877000  0.99925000  1
  O  O1  1  0.67672400  0.97998400  0.32984800  1
  O  O2  1  0.19212500  0.69123000  0.50075000  1
  O  O3  1  0.17672400  0.02001600  0.17015200  1
  O  O4  1  0.80787500  0.30877000  0.49925000  1
  O  O5  1  0.82327600  0.97998400  0.82984800  1
  O  O6  1  0.32327600  0.02001600  0.67015200  1
  O  O7  1  0.30787500  0.69123000  0.00075000  1
  F  F0  1  0.72064600  0.61803800  0.67893100  1
  F  F1  1  0.22064600  0.38196200  0.82106900  1
  F  F2  1  0.77935400  0.61803800  0.17893100  1
  F  F3  1  0.27935400  0.38196200  0.32106900  1
loop_
_geom_bond_atom_site_label_1
_geom_bond_atom_site_label_2
_geom_bond_distance
_geom_bond_site_symmetry_2
Mn0 O6 1.968180 1_555
Mn0 O1 1.968180 1_545
Mn0 O2 2.012139 1_545
Mn0 O4 2.012139 1_555
Mn1 O5 1.909390 1_555
Mn1 O7 1.920568 1_556
Mn1 O6 1.953075 1_565
Mn1 O0 1.959680 1_555
Mn2 O3 1.909390 1_555
Mn2 O0 1.920568 1_554
Mn2 O1 1.953075 1_545
Mn2 O7 1.959680 1_555
Mn3 O1 1.909390 1_555
Mn3 O2 1.920568 1_655
Mn3 O3 1.953075 1_665
Mn3 O4 1.959680 1_555
Mn4 O6 1.909390 1_555
Mn4 O4 1.920568 1_455
Mn4 O5 1.953075 1_445
Mn4 O2 1.959680 1_555
Mn5 O5 1.968180 1_444
Mn5 O3 1.968180 1_555
Mn5 O0 2.012139 1_454
Mn5 O7 2.012139 1_545
F0 Mn1 2.050302 1_555
F0 Mn4 2.054943 1_655
F0 Mn0 2.152464 1_565
F1 Mn4 2.050302 1_555
F1 Mn1 2.054943 1_555
F1 Mn5 2.152464 1_556
F2 Mn3 2.050302 1_555
F2 Mn2 2.054943 1_555
F2 Mn5 2.152464 1_665
F3 Mn2 2.050302 1_555
F3 Mn3 2.054943 1_455
F3 Mn0 2.152464 1_555
