# generated using pymatgen
data_Li3MnFe3O8
_symmetry_space_group_name_H-M   'P 1'
_cell_length_a   5.94255214
_cell_length_b   5.94255214
_cell_length_c   6.00651567
_cell_angle_alpha   60.24524846
_cell_angle_beta   60.24524846
_cell_angle_gamma   59.88714008
_symmetry_Int_Tables_number   1
_chemical_formula_structural   Li3MnFe3O8
_chemical_formula_sum   'Li3 Mn1 Fe3 O8'
_cell_volume   150.41082772
_cell_formula_units_Z   1
loop_
 _symmetry_equiv_pos_site_id
 _symmetry_equiv_pos_as_xyz
  1  'x, y, z'
loop_
 _atom_site_type_symbol
 _atom_site_label
 _atom_site_symmetry_multiplicity
 _atom_site_fract_x
 _atom_site_fract_y
 _atom_site_fract_z
 _atom_site_occupancy
  Li  Li0  1  0.50000000  0.50000000  0.50000000  1
  Li  Li1  1  0.50000000  0.00000000  0.50000000  1
  Li  Li2  1  0.00000000  0.50000000  0.50000000  1
  Mn  Mn0  1  0.00000000  0.00000000  0.00000000  1
  Fe  Fe0  1  0.00000000  0.50000000  0.00000000  1
  Fe  Fe1  1  0.50000000  0.00000000  0.00000000  1
  Fe  Fe2  1  0.50000000  0.50000000  0.00000000  1
  O  O0  1  0.76559100  0.76559100  0.22556000  1
  O  O1  1  0.26292400  0.26292400  0.21641600  1
  O  O2  1  0.24898600  0.76473200  0.21661100  1
  O  O3  1  0.76473200  0.24898600  0.21661100  1
  O  O4  1  0.23526800  0.75101400  0.78338900  1
  O  O5  1  0.75101400  0.23526800  0.78338900  1
  O  O6  1  0.73707600  0.73707600  0.78358400  1
  O  O7  1  0.23440900  0.23440900  0.77444000  1
loop_
_geom_bond_atom_site_label_1
_geom_bond_atom_site_label_2
_geom_bond_distance
_geom_bond_site_symmetry_2
Li0 O0 2.243664 1_555
Li0 O7 2.243664 1_555
Li0 O5 2.259423 1_555
Li0 O4 2.259423 1_555
Li0 O3 2.259423 1_555
Li0 O2 2.259423 1_555
Li1 O7 2.153951 1_555
Li1 O0 2.153951 1_545
Li1 O3 2.177012 1_555
Li1 O4 2.177012 1_545
Li1 O6 2.204318 1_545
Li1 O1 2.204318 1_555
Li2 O7 2.153951 1_555
Li2 O0 2.153951 1_455
Li2 O2 2.177012 1_555
Li2 O5 2.177012 1_455
Li2 O6 2.204318 1_455
Li2 O1 2.204318 1_555
Mn0 O3 1.966292 1_455
Mn0 O2 1.966292 1_545
Mn0 O5 1.966292 1_454
Mn0 O4 1.966292 1_544
Mn0 O7 1.979121 1_554
Mn0 O0 1.979121 1_445
Fe0 O1 2.026142 1_555
Fe0 O6 2.026142 1_454
Fe0 O4 2.057482 1_554
Fe0 O3 2.057482 1_455
Fe0 O0 2.076084 1_455
Fe0 O7 2.076084 1_554
Fe1 O1 2.026142 1_555
Fe1 O6 2.026142 1_544
Fe1 O5 2.057482 1_554
Fe1 O2 2.057482 1_545
Fe1 O0 2.076084 1_545
Fe1 O7 2.076084 1_554
Fe2 O6 2.003862 1_554
Fe2 O1 2.003862 1_555
Fe2 O2 2.035530 1_555
Fe2 O3 2.035530 1_555
Fe2 O5 2.035530 1_554
Fe2 O4 2.035530 1_554
