# generated using pymatgen
data_Li2Mn2(Si2O5)3
_symmetry_space_group_name_H-M   'P 1'
_cell_length_a   11.53275429
_cell_length_b   11.53275429
_cell_length_c   10.29763500
_cell_angle_alpha   90.00000000
_cell_angle_beta   90.00000000
_cell_angle_gamma   101.50274695
_symmetry_Int_Tables_number   1
_chemical_formula_structural   Li2Mn2(Si2O5)3
_chemical_formula_sum   'Li8 Mn8 Si24 O60'
_cell_volume   1342.12214573
_cell_formula_units_Z   4
loop_
 _symmetry_equiv_pos_site_id
 _symmetry_equiv_pos_as_xyz
  1  'x, y, z'
loop_
 _atom_site_type_symbol
 _atom_site_label
 _atom_site_symmetry_multiplicity
 _atom_site_fract_x
 _atom_site_fract_y
 _atom_site_fract_z
 _atom_site_occupancy
  Li  Li0  1  0.99651200  0.50348800  0.75000000  1
  Li  Li1  1  0.50348800  0.99651200  0.25000000  1
  Li  Li2  1  0.60367300  0.39632700  0.74178700  1
  Li  Li3  1  0.39632700  0.60367300  0.25821300  1
  Li  Li4  1  0.10367300  0.89632700  0.75821300  1
  Li  Li5  1  0.89632700  0.10367300  0.24178700  1
  Li  Li6  1  0.49651200  0.00348800  0.75000000  1
  Li  Li7  1  0.00348800  0.49651200  0.25000000  1
  Mn  Mn0  1  0.24374800  0.24374800  0.00000000  1
  Mn  Mn1  1  0.15877900  0.34122100  0.25000000  1
  Mn  Mn2  1  0.34122100  0.15877900  0.75000000  1
  Mn  Mn3  1  0.25625200  0.25625200  0.50000000  1
  Mn  Mn4  1  0.74374800  0.74374800  0.50000000  1
  Mn  Mn5  1  0.84122100  0.65877900  0.75000000  1
  Mn  Mn6  1  0.65877900  0.84122100  0.25000000  1
  Mn  Mn7  1  0.75625200  0.75625200  0.00000000  1
  Si  Si0  1  0.18671500  0.03273200  0.19108500  1
  Si  Si1  1  0.03273200  0.18671500  0.80891500  1
  Si  Si2  1  0.19607600  0.58235300  0.45931600  1
  Si  Si3  1  0.08235300  0.69607600  0.95931600  1
  Si  Si4  1  0.58235300  0.19607600  0.54068400  1
  Si  Si5  1  0.69607600  0.08235300  0.04068400  1
  Si  Si6  1  0.31328500  0.46726800  0.69108500  1
  Si  Si7  1  0.46726800  0.31328500  0.30891500  1
  Si  Si8  1  0.75831900  0.02455800  0.51366700  1
  Si  Si9  1  0.02455800  0.75831900  0.48633300  1
  Si  Si10  1  0.52455800  0.25831900  0.01366700  1
  Si  Si11  1  0.25831900  0.52455800  0.98633300  1
  Si  Si12  1  0.97544200  0.24168100  0.51366700  1
  Si  Si13  1  0.24168100  0.97544200  0.48633300  1
  Si  Si14  1  0.74168100  0.47544200  0.01366700  1
  Si  Si15  1  0.47544200  0.74168100  0.98633300  1
  Si  Si16  1  0.68671500  0.53273200  0.30891500  1
  Si  Si17  1  0.53273200  0.68671500  0.69108500  1
  Si  Si18  1  0.41764700  0.80392400  0.45931600  1
  Si  Si19  1  0.91764700  0.30392400  0.04068400  1
  Si  Si20  1  0.30392400  0.91764700  0.95931600  1
  Si  Si21  1  0.80392400  0.41764700  0.54068400  1
  Si  Si22  1  0.81328500  0.96726800  0.80891500  1
  Si  Si23  1  0.96726800  0.81328500  0.19108500  1
  O  O0  1  0.24775300  0.01136000  0.33145000  1
  O  O1  1  0.01136000  0.24775300  0.66855000  1
  O  O2  1  0.16345100  0.16360600  0.16615600  1
  O  O3  1  0.16360600  0.16345100  0.83384400  1
  O  O4  1  0.24845900  0.08948900  0.57602900  1
  O  O5  1  0.08948900  0.24845900  0.42397100  1
  O  O6  1  0.25154100  0.41051100  0.07602900  1
  O  O7  1  0.41051100  0.25154100  0.92397100  1
  O  O8  1  0.33654900  0.33639400  0.66615600  1
  O  O9  1  0.33639400  0.33654900  0.33384400  1
  O  O10  1  0.15718400  0.51558200  0.32581000  1
  O  O11  1  0.01558200  0.65718400  0.82581000  1
  O  O12  1  0.51558200  0.15718400  0.67419000  1
  O  O13  1  0.65718400  0.01558200  0.17419000  1
  O  O14  1  0.99585300  0.71956200  0.07973500  1
  O  O15  1  0.21956200  0.49585300  0.57973500  1
  O  O16  1  0.49585300  0.21956200  0.42026500  1
  O  O17  1  0.71956200  0.99585300  0.92026500  1
  O  O18  1  0.14951000  0.59374200  0.01611000  1
  O  O19  1  0.09374200  0.64951000  0.51611000  1
  O  O20  1  0.64951000  0.09374200  0.48389000  1
  O  O21  1  0.59374200  0.14951000  0.98389000  1
  O  O22  1  0.48864000  0.25224700  0.16855000  1
  O  O23  1  0.25224700  0.48864000  0.83145000  1
  O  O24  1  0.94028200  0.05971800  0.81904400  1
  O  O25  1  0.61752600  0.38247400  0.97400100  1
  O  O26  1  0.32311300  0.67688700  0.42903800  1
  O  O27  1  0.05971800  0.94028200  0.18095600  1
  O  O28  1  0.17688700  0.82311300  0.92903800  1
  O  O29  1  0.11752600  0.88247400  0.52599900  1
  O  O30  1  0.44028200  0.55971800  0.68095600  1
  O  O31  1  0.38247400  0.61752600  0.02599900  1
  O  O32  1  0.55971800  0.44028200  0.31904400  1
  O  O33  1  0.82311300  0.17688700  0.07096200  1
  O  O34  1  0.88247400  0.11752600  0.47400100  1
  O  O35  1  0.67688700  0.32311300  0.57096200  1
  O  O36  1  0.74775300  0.51136000  0.16855000  1
  O  O37  1  0.51136000  0.74775300  0.83145000  1
  O  O38  1  0.85049000  0.40625800  0.98389000  1
  O  O39  1  0.40625800  0.85049000  0.01611000  1
  O  O40  1  0.35049000  0.90625800  0.51611000  1
  O  O41  1  0.90625800  0.35049000  0.48389000  1
  O  O42  1  0.00414700  0.28043800  0.92026500  1
  O  O43  1  0.28043800  0.00414700  0.07973500  1
  O  O44  1  0.50414700  0.78043800  0.57973500  1
  O  O45  1  0.78043800  0.50414700  0.42026500  1
  O  O46  1  0.84281600  0.48441800  0.67419000  1
  O  O47  1  0.34281600  0.98441800  0.82581000  1
  O  O48  1  0.48441800  0.84281600  0.32581000  1
  O  O49  1  0.98441800  0.34281600  0.17419000  1
  O  O50  1  0.66345100  0.66360600  0.33384400  1
  O  O51  1  0.66360600  0.66345100  0.66615600  1
  O  O52  1  0.58948900  0.74845900  0.07602900  1
  O  O53  1  0.74845900  0.58948900  0.92397100  1
  O  O54  1  0.91051100  0.75154100  0.57602900  1
  O  O55  1  0.75154100  0.91051100  0.42397100  1
  O  O56  1  0.83639400  0.83654900  0.16615600  1
  O  O57  1  0.83654900  0.83639400  0.83384400  1
  O  O58  1  0.98864000  0.75224700  0.33145000  1
  O  O59  1  0.75224700  0.98864000  0.66855000  1
loop_
_geom_bond_atom_site_label_1
_geom_bond_atom_site_label_2
_geom_bond_distance
_geom_bond_site_symmetry_2
Li0 O46 1.908984 1_555
Li0 O11 1.908984 1_655
Li1 O48 1.908984 1_555
Li1 O13 1.908984 1_565
Li2 O35 2.191948 1_555
Li2 O25 2.404023 1_555
Li3 O26 2.191948 1_555
Li3 O31 2.404023 1_555
Li4 O28 2.191948 1_555
Li4 O29 2.404023 1_555
Li5 O33 2.191948 1_555
Li5 O34 2.404023 1_555
Li6 O47 1.908984 1_545
Li6 O12 1.908984 1_555
Li7 O10 1.908984 1_555
Li7 O49 1.908984 1_455
Mn0 O6 2.061781 1_555
Mn0 O7 2.061781 1_554
Mn0 O3 2.073167 1_554
Mn0 O2 2.073167 1_555
Mn1 O5 2.156740 1_555
Mn1 O6 2.156740 1_555
Mn1 O10 2.160577 1_555
Mn1 O49 2.160577 1_455
Mn1 O2 2.233445 1_555
Mn1 O9 2.233445 1_555
Mn2 O4 2.156740 1_555
Mn2 O7 2.156740 1_555
Mn2 O47 2.160577 1_545
Mn2 O12 2.160577 1_555
Mn2 O3 2.233445 1_555
Mn2 O8 2.233445 1_555
Mn3 O5 2.061781 1_555
Mn3 O4 2.061781 1_555
Mn3 O8 2.073167 1_555
Mn3 O9 2.073167 1_555
Mn4 O55 2.061781 1_555
Mn4 O54 2.061781 1_555
Mn4 O51 2.073167 1_555
Mn4 O50 2.073167 1_555
Mn5 O53 2.156740 1_555
Mn5 O54 2.156740 1_555
Mn5 O11 2.160577 1_655
Mn5 O46 2.160577 1_555
Mn5 O57 2.233445 1_555
Mn5 O51 2.233445 1_555
Mn6 O55 2.156740 1_555
Mn6 O52 2.156740 1_555
Mn6 O48 2.160577 1_555
Mn6 O13 2.160577 1_565
Mn6 O56 2.233445 1_555
Mn6 O50 2.233445 1_555
Mn7 O53 2.061781 1_554
Mn7 O52 2.061781 1_555
Mn7 O57 2.073167 1_554
Mn7 O56 2.073167 1_555
O0 Si13 1.645819 1_545
O0 Si0 1.647646 1_555
O1 Si12 1.645819 1_455
O1 Si1 1.647646 1_555
O2 Si0 1.605457 1_555
O3 Si1 1.605457 1_555
O4 Si13 1.596308 1_545
O5 Si12 1.596308 1_455
O6 Si11 1.596308 1_554
O7 Si10 1.596308 1_556
O8 Si6 1.605457 1_555
O9 Si7 1.605457 1_555
O10 Si2 1.595768 1_555
O11 Si3 1.595768 1_555
O12 Si4 1.595768 1_555
O13 Si5 1.595768 1_555
O14 Si3 1.647416 1_654
O14 Si23 1.653448 1_555
O15 Si2 1.647416 1_555
O15 Si6 1.653448 1_555
O16 Si4 1.647416 1_555
O16 Si7 1.653448 1_555
O17 Si5 1.647416 1_566
O17 Si22 1.653448 1_555
O18 Si3 1.642958 1_554
O18 Si11 1.644583 1_554
O19 Si2 1.642958 1_555
O19 Si9 1.644583 1_555
O20 Si4 1.642958 1_555
O20 Si8 1.644583 1_555
O21 Si5 1.642958 1_556
O21 Si10 1.644583 1_556
O22 Si10 1.645819 1_555
O22 Si7 1.647646 1_555
O23 Si11 1.645819 1_555
O23 Si6 1.647646 1_555
O24 Si22 1.634010 1_545
O24 Si1 1.634010 1_655
O25 Si14 1.659614 1_556
O25 Si10 1.659614 1_556
O26 Si18 1.671904 1_555
O26 Si2 1.671904 1_555
O27 Si23 1.634010 1_455
O27 Si0 1.634010 1_565
O28 Si3 1.671904 1_555
O28 Si20 1.671904 1_555
O29 Si9 1.659614 1_555
O29 Si13 1.659614 1_555
O30 Si17 1.634010 1_555
O30 Si6 1.634010 1_555
O31 Si11 1.659614 1_554
O31 Si15 1.659614 1_554
O32 Si16 1.634010 1_555
O32 Si7 1.634010 1_555
O33 Si5 1.671904 1_555
O33 Si19 1.671904 1_555
O34 Si8 1.659614 1_555
O34 Si12 1.659614 1_555
O35 Si21 1.671904 1_555
O35 Si4 1.671904 1_555
O36 Si14 1.645819 1_555
O36 Si16 1.647646 1_555
O37 Si15 1.645819 1_555
O37 Si17 1.647646 1_555
O38 Si19 1.642958 1_556
O38 Si14 1.644583 1_556
O39 Si20 1.642958 1_554
O39 Si15 1.644583 1_554
O40 Si18 1.642958 1_555
O40 Si13 1.644583 1_555
O41 Si21 1.642958 1_555
O41 Si12 1.644583 1_555
O42 Si19 1.647416 1_456
O42 Si1 1.653448 1_555
O43 Si20 1.647416 1_544
O43 Si0 1.653448 1_555
O44 Si18 1.647416 1_555
O44 Si17 1.653448 1_555
O45 Si21 1.647416 1_555
O45 Si16 1.653448 1_555
O46 Si21 1.595768 1_555
O47 Si20 1.595768 1_555
O48 Si18 1.595768 1_555
O49 Si19 1.595768 1_555
O50 Si16 1.605457 1_555
O51 Si17 1.605457 1_555
O52 Si15 1.596308 1_554
O53 Si14 1.596308 1_556
O54 Si9 1.596308 1_655
O55 Si8 1.596308 1_565
O56 Si23 1.605457 1_555
O57 Si22 1.605457 1_555
O58 Si9 1.645819 1_655
O58 Si23 1.647646 1_555
O59 Si8 1.645819 1_565
O59 Si22 1.647646 1_555
