# generated using pymatgen
data_LiCoSiO4
_symmetry_space_group_name_H-M   'P 1'
_cell_length_a   8.02571300
_cell_length_b   8.65314900
_cell_length_c   17.33813640
_cell_angle_alpha   60.65723043
_cell_angle_beta   90.00000000
_cell_angle_gamma   90.00000000
_symmetry_Int_Tables_number   1
_chemical_formula_structural   LiCoSiO4
_chemical_formula_sum   'Li12 Co12 Si12 O48'
_cell_volume   1049.61280876
_cell_formula_units_Z   12
loop_
 _symmetry_equiv_pos_site_id
 _symmetry_equiv_pos_as_xyz
  1  'x, y, z'
loop_
 _atom_site_type_symbol
 _atom_site_label
 _atom_site_symmetry_multiplicity
 _atom_site_fract_x
 _atom_site_fract_y
 _atom_site_fract_z
 _atom_site_occupancy
  Li  Li0  1  0.99327500  0.26448600  0.94009600  1
  Li  Li1  1  0.00858800  0.63854100  0.58649300  1
  Li  Li2  1  0.84890400  0.00414000  0.24582200  1
  Li  Li3  1  0.34890400  0.99586000  0.25417800  1
  Li  Li4  1  0.50858800  0.36145900  0.91350700  1
  Li  Li5  1  0.49327500  0.73551400  0.55990400  1
  Li  Li6  1  0.50672500  0.26448600  0.44009600  1
  Li  Li7  1  0.49141200  0.63854100  0.08649300  1
  Li  Li8  1  0.65109600  0.00414000  0.74582200  1
  Li  Li9  1  0.15109600  0.99586000  0.75417800  1
  Li  Li10  1  0.99141200  0.36145900  0.41350700  1
  Li  Li11  1  0.00672500  0.73551400  0.05990400  1
  Co  Co0  1  0.66044200  0.64632900  0.40425300  1
  Co  Co1  1  0.83251200  0.31098300  0.76912400  1
  Co  Co2  1  0.66252400  0.02994500  0.07615400  1
  Co  Co3  1  0.16252400  0.97005500  0.42384600  1
  Co  Co4  1  0.33251200  0.68901700  0.73087600  1
  Co  Co5  1  0.16044200  0.35367100  0.09574700  1
  Co  Co6  1  0.83955800  0.64632900  0.90425300  1
  Co  Co7  1  0.66748800  0.31098300  0.26912400  1
  Co  Co8  1  0.83747600  0.02994500  0.57615400  1
  Co  Co9  1  0.33747600  0.97005500  0.92384600  1
  Co  Co10  1  0.16748800  0.68901700  0.23087600  1
  Co  Co11  1  0.33955800  0.35367100  0.59574700  1
  Si  Si0  1  0.26509000  0.63551800  0.40941100  1
  Si  Si1  1  0.21946500  0.30836300  0.77497600  1
  Si  Si2  1  0.27105100  0.04178600  0.07258000  1
  Si  Si3  1  0.77105100  0.95821400  0.42742000  1
  Si  Si4  1  0.71946500  0.69163700  0.72502400  1
  Si  Si5  1  0.76509000  0.36448200  0.09058900  1
  Si  Si6  1  0.23491000  0.63551800  0.90941100  1
  Si  Si7  1  0.28053500  0.30836300  0.27497600  1
  Si  Si8  1  0.22894900  0.04178600  0.57258000  1
  Si  Si9  1  0.72894900  0.95821400  0.92742000  1
  Si  Si10  1  0.78053500  0.69163700  0.22502400  1
  Si  Si11  1  0.73491000  0.36448200  0.59058900  1
  O  O0  1  0.55076900  0.43184900  0.60468000  1
  O  O1  1  0.86928100  0.41758300  0.64582200  1
  O  O2  1  0.78485200  0.07581000  0.97480600  1
  O  O3  1  0.03866300  0.25366000  0.82651100  1
  O  O4  1  0.35898400  0.21775100  0.85507900  1
  O  O5  1  0.75749200  0.77601400  0.29151200  1
  O  O6  1  0.21502300  0.54456300  0.51493700  1
  O  O7  1  0.27657400  0.90787200  0.18044200  1
  O  O8  1  0.45469000  0.13643200  0.03741600  1
  O  O9  1  0.22977400  0.52348700  0.71091800  1
  O  O10  1  0.26227500  0.85278000  0.36892400  1
  O  O11  1  0.13529300  0.20180500  0.04660700  1
  O  O12  1  0.63529300  0.79819500  0.45339300  1
  O  O13  1  0.76227500  0.14722000  0.13107600  1
  O  O14  1  0.72977400  0.47651300  0.78908200  1
  O  O15  1  0.95469000  0.86356800  0.46258400  1
  O  O16  1  0.77657400  0.09212800  0.31955800  1
  O  O17  1  0.71502300  0.45543700  0.98506300  1
  O  O18  1  0.85898400  0.78224900  0.64492100  1
  O  O19  1  0.25749200  0.22398600  0.20848800  1
  O  O20  1  0.53866300  0.74634000  0.67348900  1
  O  O21  1  0.28485200  0.92419000  0.52519400  1
  O  O22  1  0.36928100  0.58241700  0.85417800  1
  O  O23  1  0.05076900  0.56815100  0.89532000  1
  O  O24  1  0.94923100  0.43184900  0.10468000  1
  O  O25  1  0.63071900  0.41758300  0.14582200  1
  O  O26  1  0.71514800  0.07581000  0.47480600  1
  O  O27  1  0.46133700  0.25366000  0.32651100  1
  O  O28  1  0.74250800  0.77601400  0.79151200  1
  O  O29  1  0.14101600  0.21775100  0.35507900  1
  O  O30  1  0.28497700  0.54456300  0.01493700  1
  O  O31  1  0.22342600  0.90787200  0.68044200  1
  O  O32  1  0.04531000  0.13643200  0.53741600  1
  O  O33  1  0.27022600  0.52348700  0.21091800  1
  O  O34  1  0.23772500  0.85278000  0.86892400  1
  O  O35  1  0.36470700  0.20180500  0.54660700  1
  O  O36  1  0.86470700  0.79819500  0.95339300  1
  O  O37  1  0.73772500  0.14722000  0.63107600  1
  O  O38  1  0.77022600  0.47651300  0.28908200  1
  O  O39  1  0.54531000  0.86356800  0.96258400  1
  O  O40  1  0.72342600  0.09212800  0.81955800  1
  O  O41  1  0.78497700  0.45543700  0.48506300  1
  O  O42  1  0.24250800  0.22398600  0.70848800  1
  O  O43  1  0.64101600  0.78224900  0.14492100  1
  O  O44  1  0.96133700  0.74634000  0.17348900  1
  O  O45  1  0.21514800  0.92419000  0.02519400  1
  O  O46  1  0.13071900  0.58241700  0.35417800  1
  O  O47  1  0.44923100  0.56815100  0.39532000  1
loop_
_geom_bond_atom_site_label_1
_geom_bond_atom_site_label_2
_geom_bond_distance
_geom_bond_site_symmetry_2
Li0 O11 2.005484 1_656
Li0 O3 2.049543 1_655
Li0 O2 2.205178 1_555
Li0 O23 2.391846 1_655
Li1 O1 2.009042 1_455
Li1 O15 2.119958 1_455
Li1 O18 2.291036 1_455
Li1 O6 2.436031 1_555
Li1 O9 2.586776 1_555
Li2 O16 1.872181 1_555
Li2 O5 1.878802 1_545
Li2 O13 1.886858 1_555
Li3 O7 1.872181 1_555
Li3 O19 1.878802 1_565
Li3 O10 1.886858 1_555
Li4 O22 2.009042 1_555
Li4 O8 2.119958 1_556
Li4 O4 2.291036 1_555
Li4 O17 2.436031 1_555
Li4 O14 2.586776 1_555
Li5 O12 2.005484 1_555
Li5 O20 2.049543 1_555
Li5 O21 2.205178 1_555
Li5 O0 2.391846 1_555
Li6 O35 2.005484 1_555
Li6 O27 2.049543 1_555
Li6 O26 2.205178 1_555
Li6 O47 2.391846 1_555
Li7 O25 2.009042 1_555
Li7 O39 2.119958 1_554
Li7 O43 2.291036 1_555
Li7 O30 2.436031 1_555
Li7 O33 2.586776 1_555
Li8 O40 1.872181 1_555
Li8 O28 1.878802 1_545
Li8 O37 1.886858 1_555
Li9 O31 1.872181 1_555
Li9 O42 1.878802 1_565
Li9 O34 1.886858 1_555
Li10 O46 2.009042 1_655
Li10 O32 2.119958 1_655
Li10 O29 2.291036 1_655
Li10 O41 2.436031 1_555
Li10 O38 2.586776 1_555
Li11 O36 2.005484 1_454
Li11 O44 2.049543 1_455
Li11 O45 2.205178 1_555
Li11 O24 2.391846 1_455
Co0 O41 1.849949 1_555
Co0 O47 1.859499 1_555
Co0 O5 1.880710 1_555
Co0 O12 1.894954 1_555
Co1 O14 1.826752 1_555
Co1 O3 1.868083 1_655
Co1 O40 1.869375 1_555
Co1 O1 1.890920 1_555
Co2 O8 1.864377 1_555
Co2 O13 1.877386 1_555
Co2 O2 1.877658 1_554
Co2 O43 1.881688 1_545
Co3 O15 1.864377 1_455
Co3 O10 1.877386 1_555
Co3 O21 1.877658 1_555
Co3 O29 1.881688 1_565
Co4 O9 1.826752 1_555
Co4 O20 1.868083 1_555
Co4 O31 1.869375 1_555
Co4 O22 1.890920 1_555
Co5 O30 1.849949 1_555
Co5 O24 1.859499 1_455
Co5 O19 1.880710 1_555
Co5 O11 1.894954 1_555
Co6 O17 1.849949 1_555
Co6 O23 1.859499 1_655
Co6 O28 1.880710 1_555
Co6 O36 1.894954 1_555
Co7 O38 1.826752 1_555
Co7 O27 1.868083 1_555
Co7 O16 1.869375 1_555
Co7 O25 1.890920 1_555
Co8 O32 1.864377 1_655
Co8 O37 1.877386 1_555
Co8 O26 1.877658 1_555
Co8 O18 1.881688 1_545
Co9 O39 1.864377 1_555
Co9 O34 1.877386 1_555
Co9 O45 1.877658 1_556
Co9 O4 1.881688 1_565
Co10 O33 1.826752 1_555
Co10 O44 1.868083 1_455
Co10 O7 1.869375 1_555
Co10 O46 1.890920 1_555
Co11 O6 1.849949 1_555
Co11 O0 1.859499 1_555
Co11 O42 1.880710 1_555
Co11 O35 1.894954 1_555
O0 Si11 1.650200 1_555
O1 Si11 1.649985 1_555
O2 Si9 1.652610 1_545
O3 Si1 1.647274 1_555
O4 Si1 1.652336 1_555
O5 Si10 1.649570 1_555
O6 Si0 1.648373 1_555
O7 Si2 1.648708 1_565
O8 Si2 1.650838 1_555
O9 Si1 1.636859 1_555
O10 Si0 1.653565 1_555
O11 Si2 1.641983 1_555
O12 Si3 1.641983 1_555
O13 Si5 1.653565 1_555
O14 Si4 1.636859 1_555
O15 Si3 1.650838 1_555
O16 Si3 1.648708 1_545
O17 Si5 1.648373 1_556
O18 Si4 1.652336 1_555
O19 Si7 1.649570 1_555
O20 Si4 1.647274 1_555
O21 Si8 1.652610 1_565
O22 Si6 1.649985 1_555
O23 Si6 1.650200 1_555
O24 Si5 1.650200 1_555
O25 Si5 1.649985 1_555
O26 Si3 1.652610 1_545
O27 Si7 1.647274 1_555
O28 Si4 1.649570 1_555
O29 Si7 1.652336 1_555
O30 Si6 1.648373 1_554
O31 Si8 1.648708 1_565
O32 Si8 1.650838 1_555
O33 Si7 1.636859 1_555
O34 Si6 1.653565 1_555
O35 Si8 1.641983 1_555
O36 Si9 1.641983 1_555
O37 Si11 1.653565 1_555
O38 Si10 1.636859 1_555
O39 Si9 1.650838 1_555
O40 Si9 1.648708 1_545
O41 Si11 1.648373 1_555
O42 Si1 1.649570 1_555
O43 Si10 1.652336 1_555
O44 Si10 1.647274 1_555
O45 Si2 1.652610 1_565
O46 Si0 1.649985 1_555
O47 Si0 1.650200 1_555
