# generated using pymatgen
data_Th(CoSi)2
_symmetry_space_group_name_H-M   'P 1'
_cell_length_a   4.06928780
_cell_length_b   4.06928808
_cell_length_c   5.53648798
_cell_angle_alpha   111.56134985
_cell_angle_beta   111.56135826
_cell_angle_gamma   89.99999377
_symmetry_Int_Tables_number   1
_chemical_formula_structural   Th(CoSi)2
_chemical_formula_sum   'Th1 Co2 Si2'
_cell_volume   78.32498870
_cell_formula_units_Z   1
loop_
 _symmetry_equiv_pos_site_id
 _symmetry_equiv_pos_as_xyz
  1  'x, y, z'
loop_
 _atom_site_type_symbol
 _atom_site_label
 _atom_site_symmetry_multiplicity
 _atom_site_fract_x
 _atom_site_fract_y
 _atom_site_fract_z
 _atom_site_occupancy
  Th  Th0  1  0.00000000  0.00000000  0.00000000  1
  Co  Co0  1  0.75000000  0.25000000  0.50000000  1
  Co  Co1  1  0.25000000  0.75000000  0.50000000  1
  Si  Si0  1  0.63593091  0.63593091  0.27186283  1
  Si  Si1  1  0.36406909  0.36406909  0.72813717  1
loop_
_geom_bond_atom_site_label_1
_geom_bond_atom_site_label_2
_geom_bond_distance
_geom_bond_site_symmetry_2
Co0 Si0 2.303088 1_555
Co0 Si1 2.303088 1_555
Co0 Si1 2.303091 1_655
Co0 Si0 2.303091 1_545
Co0 Th0 3.119785 1_555
Co0 Th0 3.119786 1_656
Co0 Th0 3.119786 1_666
Co0 Th0 3.119786 1_655
Co1 Si1 2.303088 1_555
Co1 Si0 2.303088 1_555
Co1 Si0 2.303091 1_455
Co1 Si1 2.303091 1_565
Co1 Th0 3.119785 1_666
Co1 Th0 3.119786 1_565
Co1 Th0 3.119786 1_555
Co1 Th0 3.119786 1_566
Si0 Si1 2.571836 1_554
Si0 Th0 3.151685 1_555
Si0 Th0 3.151688 1_565
Si0 Th0 3.151688 1_655
Si0 Th0 3.151691 1_665
Si1 Th0 3.151685 1_666
Si1 Th0 3.151688 1_656
Si1 Th0 3.151688 1_566
Si1 Th0 3.151691 1_556
