# generated using pymatgen
data_Li2Fe(Si2O5)3
_symmetry_space_group_name_H-M   'P 1'
_cell_length_a   7.45110830
_cell_length_b   7.45110830
_cell_length_c   14.84122226
_cell_angle_alpha   80.23534986
_cell_angle_beta   80.23534986
_cell_angle_gamma   58.31372252
_symmetry_Int_Tables_number   1
_chemical_formula_structural   Li2Fe(Si2O5)3
_chemical_formula_sum   'Li4 Fe2 Si12 O30'
_cell_volume   687.79669309
_cell_formula_units_Z   2
loop_
 _symmetry_equiv_pos_site_id
 _symmetry_equiv_pos_as_xyz
  1  'x, y, z'
loop_
 _atom_site_type_symbol
 _atom_site_label
 _atom_site_symmetry_multiplicity
 _atom_site_fract_x
 _atom_site_fract_y
 _atom_site_fract_z
 _atom_site_occupancy
  Li  Li0  1  0.71348500  0.68375900  0.05056900  1
  Li  Li1  1  0.04910400  0.34941400  0.16075200  1
  Li  Li2  1  0.68375900  0.71348500  0.55056900  1
  Li  Li3  1  0.34941400  0.04910400  0.66075200  1
  Fe  Fe0  1  0.76834300  0.28086900  0.10379700  1
  Fe  Fe1  1  0.28086900  0.76834300  0.60379700  1
  Si  Si0  1  0.54076800  0.63991000  0.25310700  1
  Si  Si1  1  0.03116200  0.08088300  0.43556000  1
  Si  Si2  1  0.63991000  0.54076800  0.75310700  1
  Si  Si3  1  0.08088300  0.03116200  0.93556000  1
  Si  Si4  1  0.37441300  0.16663300  0.44953800  1
  Si  Si5  1  0.63370900  0.99967600  0.25258000  1
  Si  Si6  1  0.16663300  0.37441300  0.94953800  1
  Si  Si7  1  0.99967600  0.63370900  0.75258000  1
  Si  Si8  1  0.07361100  0.91157200  0.24357200  1
  Si  Si9  1  0.55563100  0.43597400  0.45802600  1
  Si  Si10  1  0.91157200  0.07361100  0.74357200  1
  Si  Si11  1  0.43597400  0.55563100  0.95802600  1
  O  O0  1  0.56168500  0.53882700  0.04190800  1
  O  O1  1  0.03879700  0.07923600  0.15161600  1
  O  O2  1  0.06683800  0.03020200  0.32862800  1
  O  O3  1  0.73976800  0.46310200  0.19263900  1
  O  O4  1  0.57242000  0.57246100  0.36169100  1
  O  O5  1  0.53882700  0.56168500  0.54190800  1
  O  O6  1  0.99578900  0.46548200  0.03692100  1
  O  O7  1  0.07923600  0.03879700  0.65161600  1
  O  O8  1  0.55188600  0.85588700  0.22066500  1
  O  O9  1  0.03020200  0.06683800  0.82862800  1
  O  O10  1  0.46310200  0.73976800  0.69263900  1
  O  O11  1  0.12839600  0.23162500  0.44008000  1
  O  O12  1  0.57246100  0.57242000  0.86169100  1
  O  O13  1  0.46548200  0.99578900  0.53692100  1
  O  O14  1  0.51556600  0.07892200  0.35282000  1
  O  O15  1  0.85588700  0.55188600  0.72066500  1
  O  O16  1  0.58692700  0.19054900  0.17364000  1
  O  O17  1  0.89213900  0.84543000  0.26201600  1
  O  O18  1  0.23162500  0.12839600  0.94008000  1
  O  O19  1  0.36466800  0.38792000  0.46120500  1
  O  O20  1  0.07892200  0.51556600  0.85282000  1
  O  O21  1  0.30635700  0.69506100  0.23276500  1
  O  O22  1  0.19054900  0.58692700  0.67364000  1
  O  O23  1  0.84543000  0.89213900  0.76201600  1
  O  O24  1  0.77773800  0.20850300  0.46678600  1
  O  O25  1  0.14600400  0.85181900  0.49620500  1
  O  O26  1  0.38792000  0.36466800  0.96120500  1
  O  O27  1  0.69506100  0.30635700  0.73276500  1
  O  O28  1  0.20850300  0.77773800  0.96678600  1
  O  O29  1  0.85181900  0.14600400  0.99620500  1
loop_
_geom_bond_atom_site_label_1
_geom_bond_atom_site_label_2
_geom_bond_distance
_geom_bond_site_symmetry_2
Li0 O6 1.866566 1_555
Li0 O0 1.960010 1_555
Li0 O3 2.411057 1_555
Li1 O6 1.905483 1_455
Li1 O3 1.992215 1_455
Li1 O1 2.082185 1_555
Li2 O13 1.866566 1_555
Li2 O5 1.960010 1_555
Li2 O10 2.411057 1_555
Li3 O13 1.905483 1_545
Li3 O10 1.992215 1_545
Li3 O7 2.082185 1_555
Fe0 O29 1.870085 1_554
Fe0 O16 1.896935 1_555
Fe0 O0 1.918534 1_555
Fe0 O1 1.940271 1_655
Fe0 O3 1.958548 1_555
Fe1 O25 1.870085 1_555
Fe1 O22 1.896935 1_555
Fe1 O5 1.918534 1_555
Fe1 O7 1.940271 1_565
Fe1 O10 1.958548 1_555
O0 Si11 1.631663 1_554
O1 Si8 1.640679 1_545
O2 Si1 1.639076 1_555
O2 Si8 1.639321 1_545
O3 Si0 1.623907 1_555
O4 Si0 1.623229 1_555
O4 Si9 1.635176 1_555
O5 Si9 1.631663 1_555
O6 Si6 1.610547 1_654
O7 Si10 1.640679 1_455
O8 Si0 1.640770 1_555
O8 Si5 1.643234 1_555
O9 Si3 1.639076 1_555
O9 Si10 1.639321 1_455
O10 Si2 1.623907 1_555
O11 Si1 1.639479 1_555
O11 Si4 1.657144 1_555
O12 Si2 1.623229 1_555
O12 Si11 1.635176 1_555
O13 Si4 1.610547 1_565
O14 Si5 1.626183 1_545
O14 Si4 1.636374 1_555
O15 Si2 1.640770 1_555
O15 Si7 1.643234 1_555
O16 Si5 1.602904 1_545
O17 Si8 1.635520 1_655
O17 Si5 1.661432 1_555
O18 Si3 1.639479 1_555
O18 Si6 1.657144 1_555
O19 Si9 1.631488 1_555
O19 Si4 1.649457 1_555
O20 Si7 1.626183 1_455
O20 Si6 1.636374 1_555
O21 Si8 1.640156 1_555
O21 Si0 1.641176 1_555
O22 Si7 1.602904 1_455
O23 Si10 1.635520 1_565
O23 Si7 1.661432 1_555
O24 Si1 1.628173 1_655
O24 Si9 1.637061 1_555
O25 Si1 1.631341 1_565
O26 Si11 1.631488 1_555
O26 Si6 1.649457 1_555
O27 Si10 1.640156 1_555
O27 Si2 1.641176 1_555
O28 Si3 1.628173 1_565
O28 Si11 1.637061 1_555
O29 Si3 1.631341 1_655
