# generated using pymatgen
data_Li2AlNiO4
_symmetry_space_group_name_H-M   'P 1'
_cell_length_a   4.98509500
_cell_length_b   6.35900100
_cell_length_c   10.74494200
_cell_angle_alpha   90.00000000
_cell_angle_beta   90.00000000
_cell_angle_gamma   90.00000000
_symmetry_Int_Tables_number   1
_chemical_formula_structural   Li2AlNiO4
_chemical_formula_sum   'Li8 Al4 Ni4 O16'
_cell_volume   340.61706924
_cell_formula_units_Z   4
loop_
 _symmetry_equiv_pos_site_id
 _symmetry_equiv_pos_as_xyz
  1  'x, y, z'
loop_
 _atom_site_type_symbol
 _atom_site_label
 _atom_site_symmetry_multiplicity
 _atom_site_fract_x
 _atom_site_fract_y
 _atom_site_fract_z
 _atom_site_occupancy
  Li  Li0  1  0.75599200  0.00434200  0.16498600  1
  Li  Li1  1  0.75593300  0.24431800  0.91740300  1
  Li  Li2  1  0.75593300  0.25568200  0.41740300  1
  Li  Li3  1  0.75599200  0.49565800  0.66498600  1
  Li  Li4  1  0.25599200  0.50434200  0.33501400  1
  Li  Li5  1  0.25593300  0.74431800  0.58259700  1
  Li  Li6  1  0.25593300  0.75568200  0.08259700  1
  Li  Li7  1  0.25599200  0.99565800  0.83501400  1
  Al  Al0  1  0.26138000  0.00732900  0.33389500  1
  Al  Al1  1  0.26138000  0.49267100  0.83389500  1
  Al  Al2  1  0.76138000  0.50732900  0.16610500  1
  Al  Al3  1  0.76138000  0.99267100  0.66610500  1
  Ni  Ni0  1  0.25964200  0.24265100  0.58581100  1
  Ni  Ni1  1  0.25964200  0.25734900  0.08581100  1
  Ni  Ni2  1  0.75964200  0.74265100  0.91418900  1
  Ni  Ni3  1  0.75964200  0.75734900  0.41418900  1
  O  O0  1  0.11966200  0.00648500  0.66308100  1
  O  O1  1  0.15650800  0.01933000  0.17487300  1
  O  O2  1  0.15980500  0.26305000  0.91867000  1
  O  O3  1  0.63422600  0.22529100  0.59466400  1
  O  O4  1  0.63422600  0.27470900  0.09466400  1
  O  O5  1  0.15980500  0.23695000  0.41867000  1
  O  O6  1  0.15650800  0.48067000  0.67487300  1
  O  O7  1  0.11966200  0.49351500  0.16308100  1
  O  O8  1  0.61966200  0.50648500  0.83691900  1
  O  O9  1  0.65650800  0.51933000  0.32512700  1
  O  O10  1  0.65980500  0.76305000  0.58133000  1
  O  O11  1  0.13422600  0.72529100  0.90533600  1
  O  O12  1  0.13422600  0.77470900  0.40533600  1
  O  O13  1  0.65980500  0.73695000  0.08133000  1
  O  O14  1  0.65650800  0.98067000  0.82512700  1
  O  O15  1  0.61966200  0.99351500  0.33691900  1
loop_
_geom_bond_atom_site_label_1
_geom_bond_atom_site_label_2
_geom_bond_distance
_geom_bond_site_symmetry_2
Li0 O15 1.969656 1_545
Li0 O4 1.973645 1_555
Li0 O13 1.982191 1_545
Li0 O1 2.001705 1_655
Li1 O8 1.997159 1_555
Li1 O4 2.008279 1_556
Li1 O14 2.009854 1_545
Li1 O2 2.016907 1_655
Li2 O15 1.997159 1_545
Li2 O3 2.008279 1_555
Li2 O9 2.009854 1_555
Li2 O5 2.016907 1_655
Li3 O8 1.969656 1_555
Li3 O3 1.973645 1_555
Li3 O10 1.982191 1_555
Li3 O6 2.001705 1_655
Li4 O7 1.969656 1_555
Li4 O12 1.973645 1_555
Li4 O5 1.982191 1_555
Li4 O9 2.001705 1_555
Li5 O0 1.997159 1_565
Li5 O12 2.008279 1_555
Li5 O6 2.009854 1_555
Li5 O10 2.016907 1_555
Li6 O7 1.997159 1_555
Li6 O11 2.008279 1_554
Li6 O1 2.009854 1_565
Li6 O13 2.016907 1_555
Li7 O0 1.969656 1_565
Li7 O11 1.973645 1_555
Li7 O2 1.982191 1_565
Li7 O14 2.001705 1_555
Al0 O12 1.783024 1_545
Al0 O1 1.788501 1_555
Al0 O15 1.788524 1_545
Al0 O5 1.793938 1_555
Al1 O11 1.783024 1_555
Al1 O6 1.788501 1_555
Al1 O8 1.788524 1_555
Al1 O2 1.793938 1_555
Al2 O4 1.783024 1_555
Al2 O9 1.788501 1_555
Al2 O7 1.788524 1_655
Al2 O13 1.793938 1_555
Al3 O3 1.783024 1_565
Al3 O14 1.788501 1_555
Al3 O0 1.788524 1_665
Al3 O10 1.793938 1_555
Ni0 O0 1.852463 1_555
Ni0 O6 1.863059 1_555
Ni0 O5 1.863960 1_555
Ni0 O3 1.873014 1_555
Ni1 O7 1.852463 1_555
Ni1 O1 1.863059 1_555
Ni1 O2 1.863960 1_554
Ni1 O4 1.873014 1_555
Ni2 O8 1.852463 1_555
Ni2 O14 1.863059 1_555
Ni2 O13 1.863960 1_556
Ni2 O11 1.873014 1_655
Ni3 O15 1.852463 1_555
Ni3 O9 1.863059 1_555
Ni3 O10 1.863960 1_555
Ni3 O12 1.873014 1_655
