# generated using pymatgen
data_LiCuH4Cl3O2
_symmetry_space_group_name_H-M   'P 1'
_cell_length_a   11.22982600
_cell_length_b   6.19088800
_cell_length_c   9.31361319
_cell_angle_alpha   72.39218543
_cell_angle_beta   90.00000000
_cell_angle_gamma   90.00000000
_symmetry_Int_Tables_number   1
_chemical_formula_structural   LiCuH4Cl3O2
_chemical_formula_sum   'Li4 Cu4 H16 Cl12 O8'
_cell_volume   617.17049953
_cell_formula_units_Z   4
loop_
 _symmetry_equiv_pos_site_id
 _symmetry_equiv_pos_as_xyz
  1  'x, y, z'
loop_
 _atom_site_type_symbol
 _atom_site_label
 _atom_site_symmetry_multiplicity
 _atom_site_fract_x
 _atom_site_fract_y
 _atom_site_fract_z
 _atom_site_occupancy
  Li  Li0  1  0.51656700  0.56001200  0.83698600  1
  Li  Li1  1  0.01656700  0.43998800  0.66301400  1
  Li  Li2  1  0.48343300  0.43998800  0.16301400  1
  Li  Li3  1  0.98343300  0.56001200  0.33698600  1
  Cu  Cu0  1  0.50912900  0.16842000  0.61599900  1
  Cu  Cu1  1  0.00912900  0.83158000  0.88400100  1
  Cu  Cu2  1  0.49087100  0.83158000  0.38400100  1
  Cu  Cu3  1  0.99087100  0.16842000  0.11599900  1
  H  H0  1  0.64729400  0.88703300  0.88459700  1
  H  H1  1  0.14729400  0.11296700  0.61540300  1
  H  H2  1  0.35270600  0.11296700  0.11540300  1
  H  H3  1  0.85270600  0.88703300  0.38459700  1
  H  H4  1  0.70082500  0.79617600  0.76042800  1
  H  H5  1  0.20082500  0.20382400  0.73957200  1
  H  H6  1  0.29917500  0.20382400  0.23957200  1
  H  H7  1  0.79917500  0.79617600  0.26042800  1
  H  H8  1  0.81131500  0.39087900  0.55075200  1
  H  H9  1  0.31131500  0.60912100  0.94924800  1
  H  H10  1  0.18868500  0.60912100  0.44924800  1
  H  H11  1  0.68868500  0.39087900  0.05075200  1
  H  H12  1  0.89330200  0.19383200  0.53679700  1
  H  H13  1  0.39330200  0.80616800  0.96320300  1
  H  H14  1  0.10669800  0.80616800  0.46320300  1
  H  H15  1  0.60669800  0.19383200  0.03679700  1
  Cl  Cl0  1  0.63167000  0.45592900  0.62183100  1
  Cl  Cl1  1  0.13167000  0.54407100  0.87816900  1
  Cl  Cl2  1  0.36833000  0.54407100  0.37816900  1
  Cl  Cl3  1  0.86833000  0.45592900  0.12183100  1
  Cl  Cl4  1  0.89862400  0.79519000  0.68194600  1
  Cl  Cl5  1  0.39862400  0.20481000  0.81805400  1
  Cl  Cl6  1  0.10137600  0.20481000  0.31805400  1
  Cl  Cl7  1  0.60137600  0.79519000  0.18194600  1
  Cl  Cl8  1  0.88471000  0.10891900  0.91609200  1
  Cl  Cl9  1  0.38471000  0.89108100  0.58390800  1
  Cl  Cl10  1  0.11529000  0.89108100  0.08390800  1
  Cl  Cl11  1  0.61529000  0.10891900  0.41609200  1
  O  O0  1  0.62525700  0.83003900  0.80184700  1
  O  O1  1  0.12525700  0.16996100  0.69815300  1
  O  O2  1  0.37474300  0.16996100  0.19815300  1
  O  O3  1  0.87474300  0.83003900  0.30184700  1
  O  O4  1  0.89329700  0.35822300  0.52367100  1
  O  O5  1  0.39329700  0.64177700  0.97632900  1
  O  O6  1  0.10670300  0.64177700  0.47632900  1
  O  O7  1  0.60670300  0.35822300  0.02367100  1
loop_
_geom_bond_atom_site_label_1
_geom_bond_atom_site_label_2
_geom_bond_distance
_geom_bond_site_symmetry_2
Li0 O0 2.015069 1_555
Li0 O5 2.062577 1_555
Li0 O7 2.072248 1_556
Li1 O1 2.015069 1_555
Li1 O4 2.062577 1_455
Li1 O6 2.072248 1_555
Li2 O2 2.015069 1_555
Li2 O7 2.062577 1_555
Li2 O5 2.072248 1_554
Li3 O3 2.015069 1_555
Li3 O6 2.062577 1_655
Li3 O4 2.072248 1_555
Cu0 O0 2.625165 1_545
Cu1 O1 2.625165 1_565
Cu2 O2 2.625165 1_565
Cu3 O3 2.625165 1_545
H0 O0 0.971722 1_555
H1 O1 0.971722 1_555
H2 O2 0.971722 1_555
H3 O3 0.971722 1_555
H4 O0 0.980733 1_555
H5 O1 0.980733 1_555
H6 O2 0.980733 1_555
H7 O3 0.980733 1_555
H8 O4 0.991425 1_555
H9 O5 0.991425 1_555
H10 O6 0.991425 1_555
H11 O7 0.991425 1_555
H12 O4 0.987643 1_555
H13 O5 0.987643 1_555
H14 O6 0.987643 1_555
H15 O7 0.987643 1_555
Cl0 Cu0 2.263472 1_555
Cl0 Li0 2.623486 1_555
Cl1 Cu1 2.263472 1_555
Cl1 Li1 2.623486 1_555
Cl2 Cu2 2.263472 1_555
Cl2 Li2 2.623486 1_555
Cl3 Cu3 2.263472 1_555
Cl3 Li3 2.623486 1_555
Cl4 Cu1 2.321339 1_655
Cl4 Li1 2.618318 1_655
Cl5 Cu0 2.321339 1_555
Cl5 Li0 2.618318 1_555
Cl6 Cu3 2.321339 1_455
Cl6 Li3 2.618318 1_455
Cl7 Cu2 2.321339 1_555
Cl7 Li2 2.618318 1_555
Cl8 Cu1 2.302169 1_645
Cl8 Cu3 2.332038 1_556
Cl9 Cu0 2.302169 1_565
Cl9 Cu2 2.332038 1_555
Cl10 Cu3 2.302169 1_465
Cl10 Cu1 2.332038 1_554
Cl11 Cu2 2.302169 1_545
Cl11 Cu0 2.332038 1_555
