# generated using pymatgen
data_Co(CuO2)4
_symmetry_space_group_name_H-M   'P 1'
_cell_length_a   5.96099870
_cell_length_b   5.96099870
_cell_length_c   5.48533906
_cell_angle_alpha   69.46776229
_cell_angle_beta   69.46776229
_cell_angle_gamma   57.61408349
_symmetry_Int_Tables_number   1
_chemical_formula_structural   Co(CuO2)4
_chemical_formula_sum   'Co1 Cu4 O8'
_cell_volume   150.83581745
_cell_formula_units_Z   1
loop_
 _symmetry_equiv_pos_site_id
 _symmetry_equiv_pos_as_xyz
  1  'x, y, z'
loop_
 _atom_site_type_symbol
 _atom_site_label
 _atom_site_symmetry_multiplicity
 _atom_site_fract_x
 _atom_site_fract_y
 _atom_site_fract_z
 _atom_site_occupancy
  Co  Co0  1  0.50000000  0.50000000  0.00000000  1
  Cu  Cu0  1  0.50000000  0.50000000  0.50000000  1
  Cu  Cu1  1  0.00000000  0.00000000  0.00000000  1
  Cu  Cu2  1  0.00000000  0.50000000  0.00000000  1
  Cu  Cu3  1  0.50000000  0.00000000  0.00000000  1
  O  O0  1  0.69937600  0.69937600  0.82804100  1
  O  O1  1  0.70201800  0.26423700  0.76843500  1
  O  O2  1  0.26423700  0.70201800  0.76843500  1
  O  O3  1  0.19752000  0.19752000  0.83926200  1
  O  O4  1  0.80248000  0.80248000  0.16073800  1
  O  O5  1  0.73576300  0.29798200  0.23156500  1
  O  O6  1  0.29798200  0.73576300  0.23156500  1
  O  O7  1  0.30062400  0.30062400  0.17195900  1
loop_
_geom_bond_atom_site_label_1
_geom_bond_atom_site_label_2
_geom_bond_distance
_geom_bond_site_symmetry_2
Co0 O5 1.845257 1_555
Co0 O6 1.845257 1_555
Co0 O1 1.845257 1_554
Co0 O2 1.845257 1_554
Co0 O7 1.911821 1_555
Co0 O0 1.911821 1_554
Cu0 O5 1.890149 1_555
Cu0 O6 1.890149 1_555
Cu0 O2 1.890149 1_555
Cu0 O1 1.890149 1_555
Cu1 O3 1.891733 1_554
Cu1 O4 1.891733 1_445
Cu1 O2 2.105149 1_544
Cu1 O1 2.105149 1_454
Cu1 O5 2.105149 1_455
Cu1 O6 2.105149 1_545
Cu2 O4 1.878181 1_455
Cu2 O3 1.878181 1_554
Cu2 O0 1.905619 1_454
Cu2 O7 1.905619 1_555
Cu2 O5 2.258338 1_455
Cu2 O2 2.258338 1_554
Cu3 O4 1.878181 1_545
Cu3 O3 1.878181 1_554
Cu3 O7 1.905619 1_555
Cu3 O0 1.905619 1_544
Cu3 O1 2.258338 1_554
Cu3 O6 2.258338 1_545
