# generated using pymatgen
data_Li5Fe8(BO3)8
_symmetry_space_group_name_H-M   'P 1'
_cell_length_a   5.25726100
_cell_length_b   8.98026779
_cell_length_c   10.34804215
_cell_angle_alpha   89.63170102
_cell_angle_beta   88.50897370
_cell_angle_gamma   89.81904486
_symmetry_Int_Tables_number   1
_chemical_formula_structural   Li5Fe8(BO3)8
_chemical_formula_sum   'Li5 Fe8 B8 O24'
_cell_volume   488.37005464
_cell_formula_units_Z   1
loop_
 _symmetry_equiv_pos_site_id
 _symmetry_equiv_pos_as_xyz
  1  'x, y, z'
loop_
 _atom_site_type_symbol
 _atom_site_label
 _atom_site_symmetry_multiplicity
 _atom_site_fract_x
 _atom_site_fract_y
 _atom_site_fract_z
 _atom_site_occupancy
  Li  Li0  1  0.66294000  0.98652700  0.83294400  1
  Li  Li1  1  0.34774800  0.98542300  0.08974800  1
  Li  Li2  1  0.16006500  0.49080100  0.84480800  1
  Li  Li3  1  0.65796000  0.01101300  0.33501600  1
  Li  Li4  1  0.34532900  0.00757600  0.58317500  1
  Fe  Fe0  1  0.84383900  0.82788200  0.11557500  1
  Fe  Fe1  1  0.15049200  0.81924300  0.36887300  1
  Fe  Fe2  1  0.66583500  0.65604700  0.87054600  1
  Fe  Fe3  1  0.34369000  0.66693900  0.62555500  1
  Fe  Fe4  1  0.66681300  0.34476300  0.36068200  1
  Fe  Fe5  1  0.84136800  0.18004100  0.61737200  1
  Fe  Fe6  1  0.33413600  0.34008700  0.11901600  1
  Fe  Fe7  1  0.15159000  0.15942900  0.87120500  1
  B  B0  1  0.83215300  0.83445700  0.62754000  1
  B  B1  1  0.66166800  0.67312800  0.37903300  1
  B  B2  1  0.16671600  0.83300300  0.87000600  1
  B  B3  1  0.34364100  0.67000400  0.12035500  1
  B  B4  1  0.66388300  0.32714700  0.87668100  1
  B  B5  1  0.34519500  0.32869400  0.62139200  1
  B  B6  1  0.82942300  0.16898000  0.12715200  1
  B  B7  1  0.17668700  0.16637300  0.36529900  1
  O  O0  1  0.70383700  0.96852500  0.63367600  1
  O  O1  1  0.90991300  0.83854600  0.90085300  1
  O  O2  1  0.31619700  0.95738800  0.88968500  1
  O  O3  1  0.77525800  0.80519500  0.33763200  1
  O  O4  1  0.70236200  0.70470200  0.65942500  1
  O  O5  1  0.21998800  0.79909600  0.16482600  1
  O  O6  1  0.09134100  0.82999300  0.59320700  1
  O  O7  1  0.58380000  0.68139100  0.06814800  1
  O  O8  1  0.78020900  0.53944100  0.35995400  1
  O  O9  1  0.41973300  0.68139100  0.43726600  1
  O  O10  1  0.27864400  0.70156400  0.82382200  1
  O  O11  1  0.80515200  0.45275300  0.86970500  1
  O  O12  1  0.22071600  0.53512900  0.12626200  1
  O  O13  1  0.70214100  0.30133500  0.15899100  1
  O  O14  1  0.57350700  0.31545000  0.55091100  1
  O  O15  1  0.24996100  0.46331700  0.65597500  1
  O  O16  1  0.40697100  0.32944400  0.92245100  1
  O  O17  1  0.91345100  0.17826300  0.39055700  1
  O  O18  1  0.76965800  0.19190200  0.83656800  1
  O  O19  1  0.30882000  0.29156500  0.31773200  1
  O  O20  1  0.22102400  0.19729000  0.66100800  1
  O  O21  1  0.70058500  0.03697100  0.13551700  1
  O  O22  1  0.08719000  0.17286700  0.08924200  1
  O  O23  1  0.30080300  0.03577100  0.38865700  1
loop_
_geom_bond_atom_site_label_1
_geom_bond_atom_site_label_2
_geom_bond_distance
_geom_bond_site_symmetry_2
Li0 O2 1.918749 1_555
Li0 O18 1.930343 1_565
Li0 O1 1.992548 1_555
Li0 O0 2.074931 1_555
Li1 O5 1.953913 1_555
Li1 O21 1.983288 1_565
Li1 O2 2.098025 1_554
Li1 O22 2.166939 1_565
Li2 O11 1.908526 1_455
Li2 O10 2.003311 1_555
Li2 O15 2.014943 1_555
Li2 O16 2.111298 1_555
Li3 O3 1.946857 1_545
Li3 O23 1.956500 1_555
Li3 O21 2.082420 1_555
Li3 O17 2.110530 1_555
Li4 O20 1.990356 1_555
Li4 O0 1.998290 1_545
Li4 O23 2.046506 1_555
Li4 O6 2.083523 1_545
Fe0 O7 1.973574 1_555
Fe0 O21 2.030617 1_565
Fe0 O5 2.069941 1_655
Fe0 O1 2.241476 1_554
Fe0 O3 2.324429 1_555
Fe1 O3 2.011783 1_455
Fe1 O9 2.016621 1_555
Fe1 O23 2.114382 1_565
Fe1 O5 2.142182 1_555
Fe1 O6 2.336691 1_555
Fe2 O11 1.964915 1_555
Fe2 O7 2.092475 1_556
Fe2 O1 2.114641 1_555
Fe2 O10 2.141915 1_555
Fe2 O4 2.228695 1_555
Fe3 O15 1.917244 1_555
Fe3 O4 1.957911 1_555
Fe3 O9 1.982311 1_555
Fe3 O6 2.005171 1_555
Fe3 O10 2.096190 1_555
Fe4 O8 1.848797 1_555
Fe4 O17 2.003793 1_555
Fe4 O19 2.004959 1_555
Fe4 O14 2.031946 1_555
Fe4 O13 2.128953 1_555
Fe5 O14 1.990871 1_555
Fe5 O0 2.038980 1_545
Fe5 O20 2.064331 1_655
Fe5 O18 2.292767 1_555
Fe5 O17 2.367880 1_555
Fe6 O12 1.849808 1_555
Fe6 O13 2.017629 1_555
Fe6 O22 2.018546 1_555
Fe6 O16 2.062742 1_554
Fe6 O19 2.100154 1_555
Fe7 O2 2.017839 1_545
Fe7 O18 2.068247 1_455
Fe7 O16 2.115483 1_555
Fe7 O20 2.220357 1_555
Fe7 O22 2.276702 1_556
B0 O0 1.379226 1_555
B0 O4 1.385855 1_555
B0 O6 1.399716 1_655
B1 O8 1.364033 1_555
B1 O3 1.389739 1_555
B1 O9 1.395167 1_555
B2 O1 1.380014 1_455
B2 O2 1.386923 1_555
B2 O10 1.398617 1_555
B3 O7 1.364196 1_555
B3 O12 1.374900 1_555
B3 O5 1.401725 1_555
B4 O11 1.352989 1_555
B4 O18 1.395290 1_555
B4 O16 1.419744 1_555
B5 O15 1.353778 1_555
B5 O14 1.393359 1_555
B5 O20 1.404075 1_555
B6 O21 1.368331 1_555
B6 O13 1.399138 1_555
B6 O22 1.401427 1_655
B7 O23 1.363627 1_555
B7 O19 1.403145 1_555
B7 O17 1.405524 1_455
