# generated using pymatgen
data_NaLi5Mn2P2(CO7)2
_symmetry_space_group_name_H-M   'P 1'
_cell_length_a   6.69722300
_cell_length_b   8.63143696
_cell_length_c   10.00968439
_cell_angle_alpha   87.52061895
_cell_angle_beta   89.92033859
_cell_angle_gamma   89.15983365
_symmetry_Int_Tables_number   1
_chemical_formula_structural   NaLi5Mn2P2(CO7)2
_chemical_formula_sum   'Na2 Li10 Mn4 P4 C4 O28'
_cell_volume   578.02240970
_cell_formula_units_Z   2
loop_
 _symmetry_equiv_pos_site_id
 _symmetry_equiv_pos_as_xyz
  1  'x, y, z'
loop_
 _atom_site_type_symbol
 _atom_site_label
 _atom_site_symmetry_multiplicity
 _atom_site_fract_x
 _atom_site_fract_y
 _atom_site_fract_z
 _atom_site_occupancy
  Na  Na0  1  0.49807300  0.75262300  0.37455700  1
  Na  Na1  1  0.50192700  0.24737700  0.62544300  1
  Li  Li0  1  0.76496100  0.91161800  0.12613700  1
  Li  Li1  1  0.76927400  0.91336900  0.62901500  1
  Li  Li2  1  0.97093900  0.72848300  0.38577900  1
  Li  Li3  1  0.97033200  0.73022200  0.88309900  1
  Li  Li4  1  0.52698100  0.73439100  0.88175700  1
  Li  Li5  1  0.47301900  0.26560900  0.11824300  1
  Li  Li6  1  0.02966800  0.26977800  0.11690100  1
  Li  Li7  1  0.02906100  0.27151700  0.61422100  1
  Li  Li8  1  0.23072600  0.08663100  0.37098500  1
  Li  Li9  1  0.23503900  0.08838200  0.87386300  1
  Mn  Mn0  1  0.24682200  0.65019500  0.10941200  1
  Mn  Mn1  1  0.24583900  0.64508900  0.61431800  1
  Mn  Mn2  1  0.75416100  0.35491100  0.38568200  1
  Mn  Mn3  1  0.75317800  0.34980500  0.89058800  1
  P  P0  1  0.75290900  0.59195100  0.14178400  1
  P  P1  1  0.75384600  0.59249800  0.64576300  1
  P  P2  1  0.24615400  0.40750200  0.35423700  1
  P  P3  1  0.24709100  0.40804900  0.85821600  1
  C  C0  1  0.24829200  0.96265100  0.13511600  1
  C  C1  1  0.23970500  0.95680800  0.63991200  1
  C  C2  1  0.76029500  0.04319200  0.36008800  1
  C  C3  1  0.75170800  0.03734900  0.86488400  1
  O  O0  1  0.77838400  0.89964800  0.32647700  1
  O  O1  1  0.74752000  0.89194600  0.83401100  1
  O  O2  1  0.24685300  0.92207800  0.01268700  1
  O  O3  1  0.25030100  0.92136600  0.51532800  1
  O  O4  1  0.24442200  0.85690200  0.23217200  1
  O  O5  1  0.24697000  0.84851000  0.73440200  1
  O  O6  1  0.93050000  0.68748700  0.08309300  1
  O  O7  1  0.56464700  0.68852700  0.09699600  1
  O  O8  1  0.92726200  0.69781800  0.59376600  1
  O  O9  1  0.56086400  0.67920200  0.59969600  1
  O  O10  1  0.76872000  0.58197900  0.29752100  1
  O  O11  1  0.22898800  0.57447700  0.40594100  1
  O  O12  1  0.75854200  0.57935400  0.80253700  1
  O  O13  1  0.25198800  0.57735600  0.90519600  1
  O  O14  1  0.74801200  0.42264400  0.09480400  1
  O  O15  1  0.24145800  0.42064600  0.19746300  1
  O  O16  1  0.77101200  0.42552300  0.59405900  1
  O  O17  1  0.23128000  0.41802100  0.70247900  1
  O  O18  1  0.43913600  0.32079800  0.40030400  1
  O  O19  1  0.07273800  0.30218200  0.40623400  1
  O  O20  1  0.43535300  0.31147300  0.90300400  1
  O  O21  1  0.06950000  0.31251300  0.91690700  1
  O  O22  1  0.75303000  0.15149000  0.26559800  1
  O  O23  1  0.75557800  0.14309800  0.76782800  1
  O  O24  1  0.74969900  0.07863400  0.48467200  1
  O  O25  1  0.75314700  0.07792200  0.98731300  1
  O  O26  1  0.25248000  0.10805400  0.16598900  1
  O  O27  1  0.22161600  0.10035200  0.67352300  1
loop_
_geom_bond_atom_site_label_1
_geom_bond_atom_site_label_2
_geom_bond_distance
_geom_bond_site_symmetry_2
Na0 O0 2.319668 1_555
Na0 O9 2.351231 1_555
Na0 O4 2.361799 1_555
Na0 O11 2.397627 1_555
Na0 O10 2.462842 1_555
Na0 O3 2.638296 1_555
Na0 O7 2.888964 1_555
Na1 O27 2.319668 1_555
Na1 O18 2.351231 1_555
Na1 O23 2.361799 1_555
Na1 O16 2.397627 1_555
Na1 O17 2.462842 1_555
Na1 O24 2.638296 1_555
Na1 O20 2.888964 1_555
Li0 O25 1.955018 1_564
Li0 O0 2.005604 1_555
Li0 O6 2.272709 1_555
Li0 O7 2.391275 1_555
Li0 O22 2.546903 1_565
Li1 O24 1.989037 1_565
Li1 O1 2.057432 1_555
Li1 O8 2.168771 1_555
Li1 O23 2.470546 1_565
Li1 O9 2.500946 1_555
Li2 O0 2.017045 1_555
Li2 O10 2.088987 1_555
Li2 O8 2.107787 1_555
Li2 O11 2.169067 1_655
Li2 O4 2.617565 1_655
Li3 O6 2.037706 1_556
Li3 O1 2.073242 1_555
Li3 O12 2.122758 1_555
Li3 O13 2.291501 1_655
Li3 O5 2.570339 1_655
Li4 O1 2.063987 1_555
Li4 O7 2.187898 1_556
Li4 O12 2.202751 1_555
Li4 O13 2.308369 1_555
Li4 O5 2.547618 1_555
Li5 O26 2.063987 1_555
Li5 O20 2.187898 1_554
Li5 O15 2.202751 1_555
Li5 O14 2.308369 1_555
Li5 O22 2.547618 1_555
Li6 O21 2.037706 1_554
Li6 O26 2.073242 1_555
Li6 O15 2.122758 1_555
Li6 O14 2.291501 1_455
Li6 O22 2.570339 1_455
Li7 O27 2.017045 1_555
Li7 O17 2.088987 1_555
Li7 O19 2.107787 1_555
Li7 O16 2.169067 1_455
Li7 O23 2.617565 1_455
Li8 O3 1.989037 1_545
Li8 O26 2.057432 1_555
Li8 O19 2.168771 1_555
Li8 O4 2.470546 1_545
Li8 O18 2.500946 1_555
Li9 O2 1.955018 1_546
Li9 O27 2.005604 1_555
Li9 O21 2.272709 1_555
Li9 O20 2.391275 1_555
Li9 O5 2.546903 1_545
Mn0 O15 2.134175 1_555
Mn0 O6 2.152947 1_455
Mn0 O7 2.161476 1_555
Mn0 O13 2.164561 1_554
Mn0 O4 2.209584 1_555
Mn0 O2 2.499602 1_555
Mn1 O17 2.117846 1_555
Mn1 O9 2.138452 1_555
Mn1 O5 2.170431 1_555
Mn1 O8 2.183179 1_455
Mn1 O11 2.201676 1_555
Mn1 O3 2.543011 1_555
Mn2 O10 2.117846 1_555
Mn2 O18 2.138452 1_555
Mn2 O22 2.170431 1_555
Mn2 O19 2.183179 1_655
Mn2 O16 2.201676 1_555
Mn2 O24 2.543011 1_555
Mn3 O12 2.134175 1_555
Mn3 O21 2.152947 1_655
Mn3 O20 2.161476 1_555
Mn3 O14 2.164561 1_556
Mn3 O23 2.209584 1_555
Mn3 O25 2.499602 1_555
C0 O2 1.289104 1_555
C0 O4 1.304426 1_555
C0 O26 1.306145 1_565
C1 O3 1.298410 1_555
C1 O5 1.301163 1_555
C1 O27 1.301735 1_565
C2 O24 1.298410 1_555
C2 O22 1.301163 1_555
C2 O0 1.301735 1_545
C3 O25 1.289104 1_555
C3 O23 1.304426 1_555
C3 O1 1.306145 1_545
O6 P0 1.557118 1_555
O7 P0 1.556911 1_555
O8 P1 1.560287 1_555
O9 P1 1.544845 1_555
O10 P0 1.561187 1_555
O11 P2 1.554906 1_555
O12 P1 1.568777 1_555
O13 P3 1.555218 1_555
O14 P0 1.555218 1_555
O15 P2 1.568777 1_555
O16 P1 1.554906 1_555
O17 P3 1.561187 1_555
O18 P2 1.544845 1_555
O19 P2 1.560287 1_555
O20 P3 1.556911 1_555
O21 P3 1.557118 1_555
