# generated using pymatgen
data_Ti3NbO8
_symmetry_space_group_name_H-M   'P 1'
_cell_length_a   5.97445046
_cell_length_b   5.97445046
_cell_length_c   9.40140400
_cell_angle_alpha   90.00000000
_cell_angle_beta   90.00000000
_cell_angle_gamma   120.00000505
_symmetry_Int_Tables_number   1
_chemical_formula_structural   Ti3NbO8
_chemical_formula_sum   'Ti6 Nb2 O16'
_cell_volume   290.61582097
_cell_formula_units_Z   2
loop_
 _symmetry_equiv_pos_site_id
 _symmetry_equiv_pos_as_xyz
  1  'x, y, z'
loop_
 _atom_site_type_symbol
 _atom_site_label
 _atom_site_symmetry_multiplicity
 _atom_site_fract_x
 _atom_site_fract_y
 _atom_site_fract_z
 _atom_site_occupancy
  Ti  Ti0  1  0.66263400  0.83131700  0.21408900  1
  Ti  Ti1  1  0.33736600  0.16868300  0.71408900  1
  Ti  Ti2  1  0.83131700  0.16868300  0.71408900  1
  Ti  Ti3  1  0.16868300  0.83131700  0.21408900  1
  Ti  Ti4  1  0.16868300  0.33736600  0.21408900  1
  Ti  Ti5  1  0.83131700  0.66263400  0.71408900  1
  Nb  Nb0  1  0.33333300  0.66666700  0.49053500  1
  Nb  Nb1  1  0.66666700  0.33333300  0.99053500  1
  O  O0  1  0.16925500  0.83074500  0.60048000  1
  O  O1  1  0.04276800  0.52138400  0.33613200  1
  O  O2  1  0.33333300  0.66666700  0.10597700  1
  O  O3  1  0.00000000  0.00000000  0.30938000  1
  O  O4  1  0.00000000  0.00000000  0.80938000  1
  O  O5  1  0.16925500  0.33851000  0.60048000  1
  O  O6  1  0.47861600  0.95723200  0.33613200  1
  O  O7  1  0.47861600  0.52138400  0.33613200  1
  O  O8  1  0.33851000  0.16925500  0.10048000  1
  O  O9  1  0.66149000  0.83074500  0.60048000  1
  O  O10  1  0.52138400  0.47861600  0.83613200  1
  O  O11  1  0.52138400  0.04276800  0.83613200  1
  O  O12  1  0.66666700  0.33333300  0.60597700  1
  O  O13  1  0.83074500  0.66149000  0.10048000  1
  O  O14  1  0.95723200  0.47861600  0.83613200  1
  O  O15  1  0.83074500  0.16925500  0.10048000  1
loop_
_geom_bond_atom_site_label_1
_geom_bond_atom_site_label_2
_geom_bond_distance
_geom_bond_site_symmetry_2
Nb0 O0 1.987770 1_555
Nb0 O5 1.987774 1_555
Nb0 O9 1.987774 1_555
Nb0 O1 2.089818 1_555
Nb0 O6 2.089818 1_555
Nb0 O7 2.089822 1_555
Nb1 O15 1.987770 1_556
Nb1 O8 1.987774 1_556
Nb1 O13 1.987774 1_556
Nb1 O14 2.089818 1_555
Nb1 O11 2.089818 1_555
Nb1 O10 2.089822 1_555
O0 Ti5 2.048922 1_455
O0 Ti1 2.048922 1_565
O1 Ti3 1.979427 1_555
O1 Ti4 1.979428 1_555
O2 Ti3 1.983944 1_555
O2 Ti0 1.983949 1_555
O2 Ti4 1.983949 1_555
O3 Ti4 1.962012 1_555
O3 Ti0 1.962012 1_445
O3 Ti3 1.962013 1_545
O4 Ti1 1.962012 1_555
O4 Ti5 1.962012 1_445
O4 Ti2 1.962013 1_455
O5 Ti2 2.048922 1_455
O5 Ti1 2.048922 1_555
O6 Ti3 1.979427 1_555
O6 Ti0 1.979428 1_555
O7 Ti4 1.979427 1_555
O7 Ti0 1.979427 1_555
O8 Ti3 2.048922 1_545
O8 Ti4 2.048922 1_555
O9 Ti2 2.048922 1_565
O9 Ti5 2.048922 1_555
O10 Ti5 1.979427 1_555
O10 Ti1 1.979427 1_555
O11 Ti2 1.979427 1_555
O11 Ti1 1.979428 1_555
O12 Ti2 1.983944 1_555
O12 Ti5 1.983949 1_555
O12 Ti1 1.983949 1_555
O13 Ti3 2.048922 1_655
O13 Ti0 2.048922 1_555
O14 Ti2 1.979427 1_555
O14 Ti5 1.979428 1_555
O15 Ti4 2.048922 1_655
O15 Ti0 2.048922 1_545
