# generated using pymatgen
data_CrFe2(PO4)3
_symmetry_space_group_name_H-M   'P 1'
_cell_length_a   8.41161380
_cell_length_b   8.41161380
_cell_length_c   8.41161396
_cell_angle_alpha   61.60072097
_cell_angle_beta   61.60072097
_cell_angle_gamma   61.60071638
_symmetry_Int_Tables_number   1
_chemical_formula_structural   CrFe2(PO4)3
_chemical_formula_sum   'Cr2 Fe4 P6 O24'
_cell_volume   435.95693239
_cell_formula_units_Z   2
loop_
 _symmetry_equiv_pos_site_id
 _symmetry_equiv_pos_as_xyz
  1  'x, y, z'
loop_
 _atom_site_type_symbol
 _atom_site_label
 _atom_site_symmetry_multiplicity
 _atom_site_fract_x
 _atom_site_fract_y
 _atom_site_fract_z
 _atom_site_occupancy
  Cr  Cr0  1  0.00000000  0.00000000  0.00000000  1
  Cr  Cr1  1  0.50000000  0.50000000  0.50000000  1
  Fe  Fe0  1  0.14611000  0.14611000  0.14611000  1
  Fe  Fe1  1  0.35389000  0.35389000  0.35389000  1
  Fe  Fe2  1  0.64611000  0.64611000  0.64611000  1
  Fe  Fe3  1  0.85389000  0.85389000  0.85389000  1
  P  P0  1  0.75000000  0.04840000  0.45160000  1
  P  P1  1  0.04840000  0.45160000  0.75000000  1
  P  P2  1  0.45160000  0.75000000  0.04840000  1
  P  P3  1  0.54840000  0.25000000  0.95160000  1
  P  P4  1  0.95160000  0.54840000  0.25000000  1
  P  P5  1  0.25000000  0.95160000  0.54840000  1
  O  O0  1  0.32467500  0.10548100  0.50495300  1
  O  O1  1  0.50495300  0.32467500  0.10548100  1
  O  O2  1  0.90517200  0.06300300  0.24810300  1
  O  O3  1  0.10548100  0.50495300  0.32467500  1
  O  O4  1  0.82467500  0.00495300  0.60548100  1
  O  O5  1  0.59482800  0.25189700  0.43699700  1
  O  O6  1  0.06300300  0.24810300  0.90517200  1
  O  O7  1  0.25189700  0.43699700  0.59482800  1
  O  O8  1  0.39451900  0.17532500  0.99504700  1
  O  O9  1  0.43699700  0.59482800  0.25189700  1
  O  O10  1  0.75189700  0.09482800  0.93699700  1
  O  O11  1  0.99504700  0.39451900  0.17532500  1
  O  O12  1  0.00495300  0.60548100  0.82467500  1
  O  O13  1  0.24810300  0.90517200  0.06300300  1
  O  O14  1  0.56300300  0.40517200  0.74810300  1
  O  O15  1  0.60548100  0.82467500  0.00495300  1
  O  O16  1  0.74810300  0.56300300  0.40517200  1
  O  O17  1  0.93699700  0.75189700  0.09482800  1
  O  O18  1  0.40517200  0.74810300  0.56300300  1
  O  O19  1  0.17532500  0.99504700  0.39451900  1
  O  O20  1  0.89451900  0.49504700  0.67532500  1
  O  O21  1  0.09482800  0.93699700  0.75189700  1
  O  O22  1  0.49504700  0.67532500  0.89451900  1
  O  O23  1  0.67532500  0.89451900  0.49504700  1
loop_
_geom_bond_atom_site_label_1
_geom_bond_atom_site_label_2
_geom_bond_distance
_geom_bond_site_symmetry_2
Cr0 O10 2.083008 1_454
Cr0 O13 2.083008 1_545
Cr0 O2 2.083009 1_455
Cr0 O21 2.083009 1_544
Cr0 O17 2.083009 1_445
Cr0 O6 2.083009 1_554
Cr1 O5 2.083008 1_555
Cr1 O18 2.083008 1_555
Cr1 O14 2.083009 1_555
Cr1 O9 2.083009 1_555
Cr1 O16 2.083009 1_555
Cr1 O7 2.083009 1_555
Fe0 O11 1.925335 1_455
Fe0 O8 1.925335 1_554
Fe0 O19 1.925335 1_545
Fe0 O13 2.110781 1_545
Fe0 O6 2.110781 1_554
Fe0 O2 2.110781 1_455
Fe1 O3 1.925335 1_555
Fe1 O0 1.925335 1_555
Fe1 O1 1.925335 1_555
Fe1 O5 2.110781 1_555
Fe1 O7 2.110781 1_555
Fe1 O9 2.110781 1_555
Fe2 O20 1.925335 1_555
Fe2 O23 1.925335 1_555
Fe2 O22 1.925335 1_555
Fe2 O18 2.110781 1_555
Fe2 O16 2.110781 1_555
Fe2 O14 2.110781 1_555
Fe3 O12 1.925335 1_655
Fe3 O15 1.925335 1_556
Fe3 O4 1.925335 1_565
Fe3 O10 2.110781 1_565
Fe3 O17 2.110781 1_556
Fe3 O21 2.110781 1_655
O0 P5 1.519414 1_545
O1 P3 1.519414 1_554
O2 P0 1.573544 1_555
O3 P4 1.519414 1_455
O4 P0 1.519414 1_555
O5 P0 1.573544 1_555
O6 P1 1.573544 1_555
O7 P1 1.573544 1_555
O8 P3 1.519414 1_555
O9 P2 1.573544 1_555
O10 P3 1.573544 1_555
O11 P4 1.519414 1_555
O12 P1 1.519414 1_555
O13 P2 1.573544 1_555
O14 P3 1.573544 1_555
O15 P2 1.519414 1_555
O16 P4 1.573544 1_555
O17 P4 1.573544 1_555
O18 P5 1.573544 1_555
O19 P5 1.519414 1_555
O20 P1 1.519414 1_655
O21 P5 1.573544 1_555
O22 P2 1.519414 1_556
O23 P0 1.519414 1_565
