# generated using pymatgen
data_MnCo5O12
_symmetry_space_group_name_H-M   'P 1'
_cell_length_a   4.92111352
_cell_length_b   4.92743663
_cell_length_c   9.48269762
_cell_angle_alpha   90.04953531
_cell_angle_beta   90.09917432
_cell_angle_gamma   60.04243291
_symmetry_Int_Tables_number   1
_chemical_formula_structural   MnCo5O12
_chemical_formula_sum   'Mn1 Co5 O12'
_cell_volume   199.21950305
_cell_formula_units_Z   1
loop_
 _symmetry_equiv_pos_site_id
 _symmetry_equiv_pos_as_xyz
  1  'x, y, z'
loop_
 _atom_site_type_symbol
 _atom_site_label
 _atom_site_symmetry_multiplicity
 _atom_site_fract_x
 _atom_site_fract_y
 _atom_site_fract_z
 _atom_site_occupancy
  Mn  Mn0  1  0.00000000  0.00000000  0.00000000  1
  Co  Co0  1  0.16669300  0.66661300  0.50000000  1
  Co  Co1  1  0.66665500  0.66668900  0.00000000  1
  Co  Co2  1  0.33334500  0.33331100  0.00000000  1
  Co  Co3  1  0.83330700  0.33338700  0.50000000  1
  Co  Co4  1  0.50000000  0.00000000  0.50000000  1
  O  O0  1  0.00036600  0.66138400  0.10047300  1
  O  O1  1  0.33824900  0.66138400  0.89952700  1
  O  O2  1  0.16644800  0.33323900  0.40154700  1
  O  O3  1  0.49968700  0.66676100  0.40154700  1
  O  O4  1  0.50031300  0.33323900  0.59845300  1
  O  O5  1  0.16693900  0.00000000  0.59852300  1
  O  O6  1  0.83355200  0.66676100  0.59845300  1
  O  O7  1  0.66175100  0.33861600  0.10047300  1
  O  O8  1  0.33909200  0.00000000  0.10052300  1
  O  O9  1  0.99963400  0.33861600  0.89952700  1
  O  O10  1  0.66090800  0.00000000  0.89947700  1
  O  O11  1  0.83306100  0.00000000  0.40147700  1
loop_
_geom_bond_atom_site_label_1
_geom_bond_atom_site_label_2
_geom_bond_distance
_geom_bond_site_symmetry_2
Mn0 O8 1.920347 1_555
Mn0 O10 1.920347 1_454
Mn0 O7 1.921301 1_455
Mn0 O1 1.921301 1_544
Mn0 O0 1.921304 1_545
Mn0 O9 1.921304 1_454
Co0 O6 1.887704 1_455
Co0 O3 1.887708 1_555
Co0 O2 1.889267 1_555
Co0 O4 1.889269 1_555
Co0 O11 1.889650 1_465
Co0 O5 1.889652 1_565
Co1 O1 1.886027 1_554
Co1 O0 1.886027 1_655
Co1 O8 1.887601 1_565
Co1 O10 1.887603 1_564
Co1 O7 1.887669 1_555
Co1 O9 1.887672 1_554
Co2 O7 1.886027 1_555
Co2 O9 1.886027 1_454
Co2 O10 1.887601 1_554
Co2 O8 1.887603 1_555
Co2 O1 1.887669 1_554
Co2 O0 1.887672 1_555
Co3 O2 1.887704 1_655
Co3 O4 1.887708 1_555
Co3 O6 1.889267 1_555
Co3 O3 1.889269 1_555
Co3 O5 1.889650 1_655
Co3 O11 1.889652 1_555
Co4 O11 1.888008 1_555
Co4 O5 1.888008 1_555
Co4 O4 1.888833 1_555
Co4 O3 1.888833 1_545
Co4 O2 1.888834 1_555
Co4 O6 1.888834 1_545
