# generated using pymatgen
data_NaTi6O12
_symmetry_space_group_name_H-M   'P 1'
_cell_length_a   5.95768600
_cell_length_b   5.96498652
_cell_length_c   7.16528178
_cell_angle_alpha   85.28273564
_cell_angle_beta   102.05088691
_cell_angle_gamma   119.92732022
_symmetry_Int_Tables_number   1
_chemical_formula_structural   NaTi6O12
_chemical_formula_sum   'Na1 Ti6 O12'
_cell_volume   215.74736105
_cell_formula_units_Z   1
loop_
 _symmetry_equiv_pos_site_id
 _symmetry_equiv_pos_as_xyz
  1  'x, y, z'
loop_
 _atom_site_type_symbol
 _atom_site_label
 _atom_site_symmetry_multiplicity
 _atom_site_fract_x
 _atom_site_fract_y
 _atom_site_fract_z
 _atom_site_occupancy
  Na  Na0  1  0.36351800  0.95422100  0.55731600  1
  Ti  Ti0  1  0.00117700  0.99482700  0.99394400  1
  Ti  Ti1  1  0.41448400  0.48142600  0.69890300  1
  Ti  Ti2  1  0.07126000  0.48332400  0.30172400  1
  Ti  Ti3  1  0.49711600  0.00254700  0.01535400  1
  Ti  Ti4  1  0.91344900  0.47321200  0.69998800  1
  Ti  Ti5  1  0.60250700  0.54652300  0.31060700  1
  O  O0  1  0.04383900  0.31146300  0.54958800  1
  O  O1  1  0.20674000  0.31052100  0.18758000  1
  O  O2  1  0.29609200  0.68761400  0.80927100  1
  O  O3  1  0.44866500  0.68318600  0.44665100  1
  O  O4  1  0.69700100  0.82567200  0.13445000  1
  O  O5  1  0.19126600  0.81510200  0.13594400  1
  O  O6  1  0.30521600  0.17217300  0.85673200  1
  O  O7  1  0.79913200  0.17687400  0.86025300  1
  O  O8  1  0.55879600  0.34293600  0.55069600  1
  O  O9  1  0.69523900  0.30706000  0.19138500  1
  O  O10  1  0.79794000  0.68935900  0.81286200  1
  O  O11  1  0.95586300  0.68096200  0.44595100  1
loop_
_geom_bond_atom_site_label_1
_geom_bond_atom_site_label_2
_geom_bond_distance
_geom_bond_site_symmetry_2
Na0 O8 2.011307 1_565
Na0 O11 2.155637 1_455
Na0 O3 2.167261 1_555
Na0 O2 2.267780 1_555
O0 Ti2 1.971404 1_555
O0 Ti4 1.991013 1_455
O0 Ti1 2.001675 1_555
O1 Ti2 1.904560 1_555
O1 Ti5 2.083881 1_555
O1 Ti0 2.095248 1_544
O2 Ti1 1.973339 1_555
O2 Ti4 1.988945 1_455
O2 Ti3 2.148661 1_566
O3 Ti5 1.924603 1_555
O3 Ti2 2.027120 1_555
O3 Ti1 2.075606 1_555
O4 Ti5 1.923127 1_555
O4 Ti3 1.985126 1_565
O4 Ti0 2.021369 1_654
O5 Ti3 1.944907 1_565
O5 Ti0 2.004485 1_554
O5 Ti2 2.096415 1_555
O6 Ti1 1.967645 1_555
O6 Ti0 2.006820 1_545
O6 Ti3 2.011260 1_556
O7 Ti4 1.923175 1_555
O7 Ti0 2.048769 1_645
O7 Ti3 2.081323 1_556
O8 Ti4 1.940926 1_555
O8 Ti1 1.945139 1_555
O8 Ti5 2.007465 1_555
O9 Ti2 1.948345 1_655
O9 Ti3 1.974684 1_555
O9 Ti5 2.064089 1_555
O10 Ti1 1.996119 1_555
O10 Ti0 2.000286 1_655
O10 Ti4 2.019714 1_555
O11 Ti5 1.899026 1_555
O11 Ti2 2.058208 1_655
O11 Ti4 2.102719 1_555
