# generated using pymatgen
data_Li2Cr3(CO3)6
_symmetry_space_group_name_H-M   'P 1'
_cell_length_a   4.72407900
_cell_length_b   6.03049734
_cell_length_c   12.15376031
_cell_angle_alpha   100.98685376
_cell_angle_beta   90.06771540
_cell_angle_gamma   112.99377596
_symmetry_Int_Tables_number   1
_chemical_formula_structural   Li2Cr3(CO3)6
_chemical_formula_sum   'Li2 Cr3 C6 O18'
_cell_volume   311.79323063
_cell_formula_units_Z   1
loop_
 _symmetry_equiv_pos_site_id
 _symmetry_equiv_pos_as_xyz
  1  'x, y, z'
loop_
 _atom_site_type_symbol
 _atom_site_label
 _atom_site_symmetry_multiplicity
 _atom_site_fract_x
 _atom_site_fract_y
 _atom_site_fract_z
 _atom_site_occupancy
  Li  Li0  1  0.42337700  0.84900700  0.26876900  1
  Li  Li1  1  0.57662300  0.15099300  0.73123100  1
  Cr  Cr0  1  0.16587000  0.32910500  0.33543100  1
  Cr  Cr1  1  0.50000000  0.00000000  0.00000000  1
  Cr  Cr2  1  0.83413000  0.67089500  0.66456900  1
  C  C0  1  0.96038000  0.92405800  0.13533300  1
  C  C1  1  0.28841600  0.58256200  0.80063400  1
  C  C2  1  0.03962000  0.07594200  0.86466700  1
  C  C3  1  0.63245800  0.25573100  0.46840300  1
  C  C4  1  0.36754200  0.74426900  0.53159700  1
  C  C5  1  0.71158400  0.41743800  0.19936600  1
  O  O0  1  0.54685300  0.55803900  0.78517200  1
  O  O1  1  0.45314700  0.44196100  0.21482800  1
  O  O2  1  0.23384700  0.15826800  0.95086900  1
  O  O3  1  0.11526500  0.99056100  0.76704400  1
  O  O4  1  0.88473500  0.00943900  0.23295600  1
  O  O5  1  0.24014800  0.68456600  0.89672900  1
  O  O6  1  0.76615300  0.84173200  0.04913100  1
  O  O7  1  0.07039200  0.48934200  0.71961800  1
  O  O8  1  0.89800700  0.24561500  0.45872300  1
  O  O9  1  0.77050600  0.08707900  0.87046200  1
  O  O10  1  0.57201800  0.83877300  0.61814900  1
  O  O11  1  0.92960800  0.51065800  0.28038200  1
  O  O12  1  0.43756400  0.65454400  0.43549500  1
  O  O13  1  0.75985200  0.31543400  0.10327100  1
  O  O14  1  0.56243600  0.34545600  0.56450500  1
  O  O15  1  0.42798200  0.16122700  0.38185100  1
  O  O16  1  0.22949400  0.91292100  0.12953800  1
  O  O17  1  0.10199300  0.75438500  0.54127700  1
loop_
_geom_bond_atom_site_label_1
_geom_bond_atom_site_label_2
_geom_bond_distance
_geom_bond_site_symmetry_2
Li0 O16 2.090858 1_555
Li0 O4 2.095479 1_565
Li0 O15 2.101437 1_565
Li0 O11 2.452835 1_455
Li0 O1 2.476207 1_555
Li0 O12 2.540213 1_555
Li1 O9 2.090858 1_555
Li1 O3 2.095479 1_545
Li1 O10 2.101437 1_545
Li1 O7 2.452835 1_655
Li1 O0 2.476207 1_555
Li1 O14 2.540213 1_555
Cr0 O8 1.973433 1_455
Cr0 O15 2.017892 1_555
Cr0 O12 2.024015 1_555
Cr0 O4 2.027791 1_455
Cr0 O1 2.028995 1_555
Cr0 O11 2.030813 1_455
Cr1 O5 1.990653 1_544
Cr1 O13 1.990653 1_555
Cr1 O6 2.000346 1_545
Cr1 O2 2.000346 1_554
Cr1 O16 2.045247 1_545
Cr1 O9 2.045247 1_554
Cr2 O17 1.973433 1_655
Cr2 O10 2.017892 1_555
Cr2 O14 2.024015 1_555
Cr2 O3 2.027791 1_655
Cr2 O0 2.028995 1_555
Cr2 O7 2.030813 1_655
C0 O6 1.276548 1_555
C0 O16 1.300319 1_655
C0 O4 1.308609 1_565
C1 O5 1.277021 1_555
C1 O0 1.295659 1_555
C1 O7 1.296396 1_555
C2 O2 1.276548 1_555
C2 O9 1.300319 1_455
C2 O3 1.308609 1_545
C3 O8 1.284006 1_555
C3 O14 1.290843 1_555
C3 O15 1.305156 1_555
C4 O17 1.284006 1_555
C4 O12 1.290843 1_555
C4 O10 1.305156 1_555
C5 O13 1.277021 1_555
C5 O1 1.295659 1_555
C5 O11 1.296396 1_555
