# generated using pymatgen
data_MgCuP
_symmetry_space_group_name_H-M   'P 1'
_cell_length_a   3.82388056
_cell_length_b   6.49505256
_cell_length_c   7.07046514
_cell_angle_alpha   90.00000000
_cell_angle_beta   90.00000000
_cell_angle_gamma   90.00000000
_symmetry_Int_Tables_number   1
_chemical_formula_structural   MgCuP
_chemical_formula_sum   'Mg4 Cu4 P4'
_cell_volume   175.60423027
_cell_formula_units_Z   4
loop_
 _symmetry_equiv_pos_site_id
 _symmetry_equiv_pos_as_xyz
  1  'x, y, z'
loop_
 _atom_site_type_symbol
 _atom_site_label
 _atom_site_symmetry_multiplicity
 _atom_site_fract_x
 _atom_site_fract_y
 _atom_site_fract_z
 _atom_site_occupancy
  Mg  Mg0  1  0.75000000  0.46904133  0.31838746  1
  Mg  Mg1  1  0.25000000  0.53095867  0.68161254  1
  Mg  Mg2  1  0.75000000  0.96904133  0.18161254  1
  Mg  Mg3  1  0.25000000  0.03095767  0.81838746  1
  Cu  Cu0  1  0.25000000  0.12787266  0.43766122  1
  Cu  Cu1  1  0.25000000  0.62787266  0.06233878  1
  Cu  Cu2  1  0.75000000  0.37212734  0.93766122  1
  Cu  Cu3  1  0.75000000  0.87212734  0.56233878  1
  P  P0  1  0.75000000  0.24570611  0.62044370  1
  P  P1  1  0.25000000  0.25429389  0.12044370  1
  P  P2  1  0.25000000  0.75429389  0.37955630  1
  P  P3  1  0.75000000  0.74570611  0.87955630  1
loop_
_geom_bond_atom_site_label_1
_geom_bond_atom_site_label_2
_geom_bond_distance
_geom_bond_site_symmetry_2
Mg0 P0 2.581722 1_555
Mg0 P2 2.697253 1_655
Mg0 P2 2.697253 1_555
Mg0 P1 2.749495 1_555
Mg0 P1 2.749495 1_655
Mg1 P2 2.581722 1_555
Mg1 P0 2.697253 1_555
Mg1 P0 2.697253 1_455
Mg1 P3 2.749495 1_455
Mg1 P3 2.749495 1_555
Mg2 P3 2.581722 1_554
Mg2 P1 2.697253 1_565
Mg2 P1 2.697253 1_665
Mg2 P2 2.749495 1_555
Mg2 P2 2.749495 1_655
Mg3 P1 2.581725 1_556
Mg3 P3 2.697249 1_545
Mg3 P3 2.697249 1_445
Mg3 P0 2.749499 1_555
Mg3 P0 2.749499 1_455
Cu0 P1 2.388455 1_555
Cu0 P0 2.431345 1_455
Cu0 P0 2.431345 1_555
Cu0 P2 2.460948 1_545
Cu0 Cu3 2.681752 1_445
Cu0 Cu3 2.681752 1_545
Cu0 Mg3 2.764529 1_555
Cu0 Mg2 2.827939 1_445
Cu0 Mg2 2.827939 1_545
Cu0 Mg0 3.045810 1_455
Cu0 Mg0 3.045810 1_555
Cu0 Mg1 3.135182 1_555
Cu1 P2 2.388455 1_555
Cu1 P3 2.431345 1_454
Cu1 P3 2.431345 1_554
Cu1 P1 2.460948 1_555
Cu1 Cu2 2.681752 1_454
Cu1 Cu2 2.681752 1_554
Cu1 Mg1 2.764527 1_554
Cu1 Mg0 2.827939 1_455
Cu1 Mg0 2.827939 1_555
Cu1 Mg2 3.045810 1_455
Cu1 Mg2 3.045810 1_555
Cu1 Mg3 3.135177 1_564
Cu2 P0 2.388455 1_555
Cu2 P1 2.431345 1_656
Cu2 P1 2.431345 1_556
Cu2 P3 2.460948 1_555
Cu2 Mg0 2.764527 1_556
Cu2 Mg1 2.827939 1_655
Cu2 Mg1 2.827939 1_555
Cu2 Mg3 3.045814 1_655
Cu2 Mg3 3.045814 1_555
Cu2 Mg2 3.135182 1_546
Cu3 P3 2.388455 1_555
Cu3 P2 2.431345 1_555
Cu3 P2 2.431345 1_655
Cu3 P0 2.460948 1_565
Cu3 Mg2 2.764527 1_555
Cu3 Mg3 2.827937 1_565
Cu3 Mg3 2.827937 1_665
Cu3 Mg1 3.045810 1_655
Cu3 Mg1 3.045810 1_555
Cu3 Mg0 3.135182 1_555
