# generated using pymatgen
data_Li2Ni3SbO8
_symmetry_space_group_name_H-M   'P 1'
_cell_length_a   5.85203254
_cell_length_b   5.85203254
_cell_length_c   9.52737000
_cell_angle_alpha   90.00000000
_cell_angle_beta   90.00000000
_cell_angle_gamma   120.00000611
_symmetry_Int_Tables_number   1
_chemical_formula_structural   Li2Ni3SbO8
_chemical_formula_sum   'Li4 Ni6 Sb2 O16'
_cell_volume   282.56417661
_cell_formula_units_Z   2
loop_
 _symmetry_equiv_pos_site_id
 _symmetry_equiv_pos_as_xyz
  1  'x, y, z'
loop_
 _atom_site_type_symbol
 _atom_site_label
 _atom_site_symmetry_multiplicity
 _atom_site_fract_x
 _atom_site_fract_y
 _atom_site_fract_z
 _atom_site_occupancy
  Li  Li0  1  0.33333300  0.66666700  0.89575200  1
  Li  Li1  1  0.00000000  0.00000000  0.99140300  1
  Li  Li2  1  0.00000000  0.00000000  0.49140300  1
  Li  Li3  1  0.66666700  0.33333300  0.39575200  1
  Ni  Ni0  1  0.17025600  0.82974400  0.21452900  1
  Ni  Ni1  1  0.17025600  0.34051300  0.21452900  1
  Ni  Ni2  1  0.65948700  0.82974400  0.21452900  1
  Ni  Ni3  1  0.34051300  0.17025600  0.71452900  1
  Ni  Ni4  1  0.82974400  0.65948700  0.71452900  1
  Ni  Ni5  1  0.82974400  0.17025600  0.71452900  1
  Sb  Sb0  1  0.33333300  0.66666700  0.48957700  1
  Sb  Sb1  1  0.66666700  0.33333300  0.98957700  1
  O  O0  1  0.16220200  0.83779800  0.59635700  1
  O  O1  1  0.03308100  0.51654000  0.34267600  1
  O  O2  1  0.33333300  0.66666700  0.11842500  1
  O  O3  1  0.00000000  0.00000000  0.29825200  1
  O  O4  1  0.00000000  0.00000000  0.79825200  1
  O  O5  1  0.16220200  0.32440400  0.59635700  1
  O  O6  1  0.48346000  0.96691900  0.34267600  1
  O  O7  1  0.48346000  0.51654000  0.34267600  1
  O  O8  1  0.32440400  0.16220200  0.09635700  1
  O  O9  1  0.67559600  0.83779800  0.59635700  1
  O  O10  1  0.51654000  0.48346000  0.84267600  1
  O  O11  1  0.51654000  0.03308100  0.84267600  1
  O  O12  1  0.66666700  0.33333300  0.61842500  1
  O  O13  1  0.83779800  0.67559600  0.09635700  1
  O  O14  1  0.96691900  0.48346000  0.84267600  1
  O  O15  1  0.83779800  0.16220200  0.09635700  1
loop_
_geom_bond_atom_site_label_1
_geom_bond_atom_site_label_2
_geom_bond_distance
_geom_bond_site_symmetry_2
Li0 O11 1.924608 1_565
Li0 O14 1.924608 1_455
Li0 O10 1.924608 1_555
Li0 O2 2.121488 1_556
Li1 O4 1.840221 1_555
Li1 O8 1.924286 1_556
Li1 O13 1.924286 1_446
Li1 O15 1.924286 1_456
Li2 O3 1.840221 1_555
Li2 O5 1.924286 1_555
Li2 O9 1.924286 1_445
Li2 O0 1.924286 1_545
Li3 O1 1.924608 1_655
Li3 O6 1.924608 1_545
Li3 O7 1.924608 1_555
Li3 O12 2.121488 1_555
Ni0 O2 1.889605 1_555
Ni0 O3 1.901148 1_565
Ni0 O1 2.005771 1_555
Ni0 O6 2.005771 1_555
Ni0 O8 2.027675 1_565
Ni0 O13 2.027675 1_455
Ni1 O2 1.889604 1_555
Ni1 O3 1.901152 1_555
Ni1 O1 2.005763 1_555
Ni1 O7 2.005770 1_555
Ni1 O15 2.027675 1_455
Ni1 O8 2.027679 1_555
Ni2 O2 1.889604 1_555
Ni2 O3 1.901152 1_665
Ni2 O6 2.005763 1_555
Ni2 O7 2.005770 1_555
Ni2 O15 2.027675 1_565
Ni2 O13 2.027679 1_555
Ni3 O12 1.889604 1_555
Ni3 O4 1.901152 1_555
Ni3 O11 2.005763 1_555
Ni3 O10 2.005770 1_555
Ni3 O0 2.027675 1_545
Ni3 O5 2.027679 1_555
Ni4 O12 1.889604 1_555
Ni4 O4 1.901152 1_665
Ni4 O14 2.005763 1_555
Ni4 O10 2.005770 1_555
Ni4 O0 2.027675 1_655
Ni4 O9 2.027679 1_555
Ni5 O12 1.889605 1_555
Ni5 O4 1.901148 1_655
Ni5 O11 2.005771 1_555
Ni5 O14 2.005771 1_555
Ni5 O5 2.027675 1_655
Ni5 O9 2.027675 1_545
O0 Sb0 2.010910 1_555
O1 Sb0 2.067446 1_555
O5 Sb0 2.010914 1_555
O6 Sb0 2.067446 1_555
O7 Sb0 2.067454 1_555
O8 Sb1 2.010914 1_554
O9 Sb0 2.010914 1_555
O10 Sb1 2.067454 1_555
O11 Sb1 2.067446 1_555
O13 Sb1 2.010914 1_554
O14 Sb1 2.067446 1_555
O15 Sb1 2.010910 1_554
