# generated using pymatgen
data_LiFePO4
_symmetry_space_group_name_H-M   'P 1'
_cell_length_a   4.87846500
_cell_length_b   8.07826300
_cell_length_c   16.99989400
_cell_angle_alpha   90.00000000
_cell_angle_beta   90.00000000
_cell_angle_gamma   90.00000000
_symmetry_Int_Tables_number   1
_chemical_formula_structural   LiFePO4
_chemical_formula_sum   'Li8 Fe8 P8 O32'
_cell_volume   669.95771880
_cell_formula_units_Z   8
loop_
 _symmetry_equiv_pos_site_id
 _symmetry_equiv_pos_as_xyz
  1  'x, y, z'
loop_
 _atom_site_type_symbol
 _atom_site_label
 _atom_site_symmetry_multiplicity
 _atom_site_fract_x
 _atom_site_fract_y
 _atom_site_fract_z
 _atom_site_occupancy
  Li  Li0  1  0.94191600  0.03387600  0.44288600  1
  Li  Li1  1  0.47121000  0.12918600  0.86532800  1
  Li  Li2  1  0.97121000  0.37081400  0.36532800  1
  Li  Li3  1  0.44191600  0.46612400  0.94288600  1
  Li  Li4  1  0.94191600  0.53387600  0.05711400  1
  Li  Li5  1  0.47121000  0.62918600  0.63467200  1
  Li  Li6  1  0.97121000  0.87081400  0.13467200  1
  Li  Li7  1  0.44191600  0.96612400  0.55711400  1
  Fe  Fe0  1  0.60079200  0.06865300  0.28271900  1
  Fe  Fe1  1  0.48228300  0.15416100  0.05609600  1
  Fe  Fe2  1  0.98228300  0.34583900  0.55609600  1
  Fe  Fe3  1  0.10079200  0.43134700  0.78271900  1
  Fe  Fe4  1  0.60079200  0.56865300  0.21728100  1
  Fe  Fe5  1  0.48228300  0.65416100  0.44390400  1
  Fe  Fe6  1  0.98228300  0.84583900  0.94390400  1
  Fe  Fe7  1  0.10079200  0.93134700  0.71728100  1
  P  P0  1  0.94424000  0.24640500  0.17927800  1
  P  P1  1  0.42958700  0.25213300  0.43886600  1
  P  P2  1  0.92958700  0.24786700  0.93886600  1
  P  P3  1  0.44424000  0.25359500  0.67927800  1
  P  P4  1  0.94424000  0.74640500  0.32072200  1
  P  P5  1  0.42958700  0.75213300  0.06113400  1
  P  P6  1  0.92958700  0.74786700  0.56113400  1
  P  P7  1  0.44424000  0.75359500  0.82072200  1
  O  O0  1  0.77430300  0.09285800  0.14811000  1
  O  O1  1  0.27763200  0.12252600  0.48906900  1
  O  O2  1  0.78586100  0.07907300  0.95852600  1
  O  O3  1  0.31665900  0.08814400  0.64969700  1
  O  O4  1  0.24691700  0.23227600  0.15494500  1
  O  O5  1  0.74417300  0.25573800  0.45515100  1
  O  O6  1  0.89953200  0.24386600  0.26952100  1
  O  O7  1  0.87606600  0.28247300  0.85048600  1
  O  O8  1  0.37606600  0.21752700  0.35048600  1
  O  O9  1  0.39953200  0.25613400  0.76952100  1
  O  O10  1  0.24417300  0.24426200  0.95515100  1
  O  O11  1  0.74691700  0.26772400  0.65494500  1
  O  O12  1  0.81665900  0.41185600  0.14969700  1
  O  O13  1  0.28586100  0.42092700  0.45852600  1
  O  O14  1  0.77763200  0.37747400  0.98906900  1
  O  O15  1  0.27430300  0.40714200  0.64811000  1
  O  O16  1  0.77430300  0.59285800  0.35189000  1
  O  O17  1  0.27763200  0.62252600  0.01093100  1
  O  O18  1  0.78586100  0.57907300  0.54147400  1
  O  O19  1  0.31665900  0.58814400  0.85030300  1
  O  O20  1  0.24691700  0.73227600  0.34505500  1
  O  O21  1  0.74417300  0.75573800  0.04484900  1
  O  O22  1  0.89953200  0.74386600  0.23047900  1
  O  O23  1  0.87606600  0.78247300  0.64951400  1
  O  O24  1  0.37606600  0.71752700  0.14951400  1
  O  O25  1  0.39953200  0.75613400  0.73047900  1
  O  O26  1  0.24417300  0.74426200  0.54484900  1
  O  O27  1  0.74691700  0.76772400  0.84505500  1
  O  O28  1  0.81665900  0.91185600  0.35030300  1
  O  O29  1  0.28586100  0.92092700  0.04147400  1
  O  O30  1  0.77763200  0.87747400  0.51093100  1
  O  O31  1  0.27430300  0.90714200  0.85189000  1
loop_
_geom_bond_atom_site_label_1
_geom_bond_atom_site_label_2
_geom_bond_distance
_geom_bond_site_symmetry_2
Li0 O30 1.891227 1_545
Li0 O1 1.952323 1_655
Li0 O28 1.955041 1_545
Li0 O5 2.046040 1_555
Li1 O9 1.956184 1_555
Li1 O31 2.047538 1_545
Li1 O10 2.103001 1_555
Li1 O2 2.242841 1_555
Li1 O7 2.344772 1_555
Li2 O6 1.956184 1_555
Li2 O16 2.047538 1_555
Li2 O5 2.103001 1_555
Li2 O13 2.242841 1_655
Li2 O8 2.344772 1_655
Li3 O17 1.891227 1_556
Li3 O14 1.952323 1_555
Li3 O19 1.955041 1_555
Li3 O10 2.046040 1_555
Li4 O14 1.891227 1_554
Li4 O17 1.952323 1_655
Li4 O12 1.955041 1_555
Li4 O21 2.046040 1_555
Li5 O25 1.956184 1_555
Li5 O15 2.047538 1_555
Li5 O26 2.103001 1_555
Li5 O18 2.242841 1_555
Li5 O23 2.344772 1_555
Li6 O22 1.956184 1_555
Li6 O0 2.047538 1_565
Li6 O21 2.103001 1_555
Li6 O29 2.242841 1_655
Li6 O24 2.344772 1_655
Li7 O1 1.891227 1_565
Li7 O30 1.952323 1_555
Li7 O3 1.955041 1_565
Li7 O26 2.046040 1_555
Fe0 O8 1.993851 1_555
Fe0 O28 2.008341 1_545
Fe0 O6 2.043951 1_555
Fe0 O0 2.447700 1_555
Fe1 O29 2.128365 1_545
Fe1 O4 2.130832 1_555
Fe1 O0 2.172917 1_555
Fe1 O10 2.196352 1_554
Fe1 O2 2.304887 1_554
Fe1 O14 2.574635 1_554
Fe2 O18 2.128365 1_555
Fe2 O11 2.130832 1_555
Fe2 O15 2.172917 1_655
Fe2 O5 2.196352 1_555
Fe2 O13 2.304887 1_655
Fe2 O1 2.574635 1_655
Fe3 O7 1.993851 1_455
Fe3 O19 2.008341 1_555
Fe3 O9 2.043951 1_555
Fe3 O15 2.447700 1_555
Fe4 O24 1.993851 1_555
Fe4 O12 2.008341 1_555
Fe4 O22 2.043951 1_555
Fe4 O16 2.447700 1_555
Fe5 O13 2.128365 1_555
Fe5 O20 2.130832 1_555
Fe5 O16 2.172917 1_555
Fe5 O26 2.196352 1_555
Fe5 O18 2.304887 1_555
Fe5 O30 2.574635 1_555
Fe6 O2 2.128365 1_565
Fe6 O27 2.130832 1_555
Fe6 O31 2.172917 1_655
Fe6 O21 2.196352 1_556
Fe6 O29 2.304887 1_656
Fe6 O17 2.574635 1_656
Fe7 O23 1.993851 1_455
Fe7 O3 2.008341 1_565
Fe7 O25 2.043951 1_555
Fe7 O31 2.447700 1_555
O0 P0 1.583228 1_555
O1 P1 1.540816 1_555
O2 P2 1.569278 1_555
O3 P3 1.557770 1_555
O4 P0 1.537688 1_455
O5 P1 1.559739 1_555
O6 P0 1.549684 1_555
O7 P2 1.550382 1_555
O8 P1 1.550382 1_555
O9 P3 1.549684 1_555
O10 P2 1.559739 1_455
O11 P3 1.537688 1_555
O12 P0 1.557770 1_555
O13 P1 1.569278 1_555
O14 P2 1.540816 1_555
O15 P3 1.583228 1_555
O16 P4 1.583228 1_555
O17 P5 1.540816 1_555
O18 P6 1.569278 1_555
O19 P7 1.557770 1_555
O20 P4 1.537688 1_455
O21 P5 1.559739 1_555
O22 P4 1.549684 1_555
O23 P6 1.550382 1_555
O24 P5 1.550382 1_555
O25 P7 1.549684 1_555
O26 P6 1.559739 1_455
O27 P7 1.537688 1_555
O28 P4 1.557770 1_555
O29 P5 1.569278 1_555
O30 P6 1.540816 1_555
O31 P7 1.583228 1_555
