# generated using pymatgen
data_Li3Fe8(BO3)8
_symmetry_space_group_name_H-M   'P 1'
_cell_length_a   5.30589400
_cell_length_b   9.06074033
_cell_length_c   11.34775820
_cell_angle_alpha   112.89130141
_cell_angle_beta   103.03624911
_cell_angle_gamma   89.53194676
_symmetry_Int_Tables_number   1
_chemical_formula_structural   Li3Fe8(BO3)8
_chemical_formula_sum   'Li3 Fe8 B8 O24'
_cell_volume   487.70134004
_cell_formula_units_Z   1
loop_
 _symmetry_equiv_pos_site_id
 _symmetry_equiv_pos_as_xyz
  1  'x, y, z'
loop_
 _atom_site_type_symbol
 _atom_site_label
 _atom_site_symmetry_multiplicity
 _atom_site_fract_x
 _atom_site_fract_y
 _atom_site_fract_z
 _atom_site_occupancy
  Li  Li0  1  0.40467500  0.05710600  0.11903000  1
  Li  Li1  1  0.07627300  0.41412900  0.84195400  1
  Li  Li2  1  0.58261900  0.90923700  0.84513300  1
  Fe  Fe0  1  0.60093100  0.59159000  0.87326000  1
  Fe  Fe1  1  0.90339800  0.88766900  0.12003000  1
  Fe  Fe2  1  0.16091700  0.48261300  0.62130100  1
  Fe  Fe3  1  0.34205700  0.01550400  0.37000800  1
  Fe  Fe4  1  0.65744200  0.98143000  0.62202600  1
  Fe  Fe5  1  0.84764000  0.51720900  0.36744500  1
  Fe  Fe6  1  0.09353900  0.09320300  0.87379600  1
  Fe  Fe7  1  0.39620000  0.40051200  0.12094600  1
  B  B0  1  0.35020900  0.35077900  0.36442700  1
  B  B1  1  0.10122800  0.76772600  0.87177700  1
  B  B2  1  0.85656900  0.85537500  0.37438300  1
  B  B3  1  0.59955800  0.26446900  0.87180500  1
  B  B4  1  0.15279800  0.14520800  0.62545600  1
  B  B5  1  0.40224200  0.72948900  0.12210500  1
  B  B6  1  0.65350900  0.64251900  0.62342000  1
  B  B7  1  0.88705100  0.22947500  0.12096000  1
  O  O0  1  0.86356500  0.78374000  0.90419700  1
  O  O1  1  0.52849800  0.54021000  0.66056800  1
  O  O2  1  0.75431400  0.09458900  0.10656200  1
  O  O3  1  0.42994600  0.20227900  0.34457900  1
  O  O4  1  0.14103500  0.40345200  0.42202000  1
  O  O5  1  0.18857800  0.61317300  0.82082500  1
  O  O6  1  0.73923300  0.38652600  0.86922600  1
  O  O7  1  0.97297200  0.95749500  0.33407900  1
  O  O8  1  0.30246500  0.88161900  0.17077600  1
  O  O9  1  0.36194000  0.09225100  0.56850000  1
  O  O10  1  0.08016300  0.29627800  0.64856600  1
  O  O11  1  0.61686700  0.72115000  0.07295300  1
  O  O12  1  0.37163700  0.28779600  0.91977700  1
  O  O13  1  0.63581100  0.90495200  0.42518400  1
  O  O14  1  0.67938700  0.10720000  0.82412400  1
  O  O15  1  0.02744400  0.04521600  0.66549500  1
  O  O16  1  0.28098300  0.59601900  0.12107300  1
  O  O17  1  0.78205200  0.38035200  0.16702900  1
  O  O18  1  0.86139600  0.58866200  0.56537900  1
  O  O19  1  0.57885700  0.79371400  0.64672400  1
  O  O20  1  0.94606900  0.71309300  0.36793600  1
  O  O21  1  0.25500000  0.90185400  0.89178900  1
  O  O22  1  0.46779500  0.45499800  0.32393400  1
  O  O23  1  0.12984100  0.22550800  0.08803900  1
loop_
_geom_bond_atom_site_label_1
_geom_bond_atom_site_label_2
_geom_bond_distance
_geom_bond_site_symmetry_2
Li0 O2 1.934689 1_555
Li0 O8 2.012776 1_545
Li0 O23 2.174421 1_555
Li0 O3 2.351170 1_555
Li0 O21 2.351898 1_544
Li1 O6 1.916647 1_455
Li1 O5 2.020777 1_555
Li1 O10 2.038039 1_555
Li1 O12 2.163086 1_555
Li2 O21 1.936791 1_555
Li2 O14 1.985128 1_565
Li2 O0 2.019603 1_555
Li2 O19 2.076512 1_555
Fe0 O6 1.979791 1_555
Fe0 O11 2.089483 1_556
Fe0 O0 2.107060 1_555
Fe0 O5 2.162274 1_555
Fe0 O1 2.213617 1_555
Fe1 O11 1.979182 1_555
Fe1 O8 2.071379 1_655
Fe1 O2 2.075640 1_565
Fe1 O7 2.200053 1_555
Fe1 O0 2.214847 1_554
Fe2 O10 1.899419 1_555
Fe2 O1 1.928317 1_555
Fe2 O18 1.961147 1_455
Fe2 O4 2.066696 1_555
Fe2 O5 2.077626 1_555
Fe3 O3 1.902154 1_555
Fe3 O7 1.940987 1_445
Fe3 O13 1.961346 1_545
Fe3 O9 2.060007 1_555
Fe3 O8 2.069626 1_545
Fe4 O19 1.892206 1_555
Fe4 O15 1.947136 1_665
Fe4 O9 1.963323 1_565
Fe4 O13 2.040662 1_555
Fe4 O14 2.102427 1_565
Fe5 O20 1.851763 1_555
Fe5 O4 1.976048 1_655
Fe5 O22 1.994126 1_555
Fe5 O18 2.065185 1_555
Fe5 O17 2.070529 1_555
Fe6 O21 1.988410 1_545
Fe6 O12 2.130188 1_555
Fe6 O14 2.157510 1_455
Fe6 O15 2.174468 1_555
Fe6 O23 2.215845 1_556
Fe7 O16 1.868806 1_555
Fe7 O23 1.997247 1_555
Fe7 O17 2.020753 1_555
Fe7 O12 2.079774 1_554
Fe7 O22 2.101802 1_555
B0 O3 1.355754 1_555
B0 O4 1.400928 1_555
B0 O22 1.403078 1_555
B1 O0 1.382509 1_455
B1 O21 1.382793 1_555
B1 O5 1.410856 1_555
B2 O20 1.350979 1_555
B2 O7 1.383033 1_555
B2 O13 1.414449 1_555
B3 O6 1.349635 1_555
B3 O14 1.412948 1_555
B3 O12 1.416612 1_555
B4 O10 1.359649 1_555
B4 O15 1.391430 1_555
B4 O9 1.397485 1_555
B5 O11 1.366009 1_555
B5 O16 1.369261 1_555
B5 O8 1.418818 1_555
B6 O19 1.363857 1_555
B6 O1 1.384622 1_555
B6 O18 1.399109 1_555
B7 O2 1.350264 1_555
B7 O23 1.416427 1_655
B7 O17 1.419675 1_555
