# generated using pymatgen
data_Li3Fe8(BO3)8
_symmetry_space_group_name_H-M   'P 1'
_cell_length_a   5.30114100
_cell_length_b   9.07402357
_cell_length_c   10.11159450
_cell_angle_alpha   89.49802028
_cell_angle_beta   89.33458052
_cell_angle_gamma   89.57847488
_symmetry_Int_Tables_number   1
_chemical_formula_structural   Li3Fe8(BO3)8
_chemical_formula_sum   'Li3 Fe8 B8 O24'
_cell_volume   486.33050716
_cell_formula_units_Z   1
loop_
 _symmetry_equiv_pos_site_id
 _symmetry_equiv_pos_as_xyz
  1  'x, y, z'
loop_
 _atom_site_type_symbol
 _atom_site_label
 _atom_site_symmetry_multiplicity
 _atom_site_fract_x
 _atom_site_fract_y
 _atom_site_fract_z
 _atom_site_occupancy
  Li  Li0  1  0.65573900  0.98724000  0.84113900  1
  Li  Li1  1  0.34225600  0.00022100  0.12271200  1
  Li  Li2  1  0.15505400  0.49331200  0.84088500  1
  Fe  Fe0  1  0.83859000  0.82845000  0.12421700  1
  Fe  Fe1  1  0.15617300  0.83827000  0.37402000  1
  Fe  Fe2  1  0.66527900  0.65491200  0.87274700  1
  Fe  Fe3  1  0.34910700  0.67075900  0.61894300  1
  Fe  Fe4  1  0.66376900  0.33465100  0.36907600  1
  Fe  Fe5  1  0.84725300  0.16876400  0.61894200  1
  Fe  Fe6  1  0.33586100  0.34052600  0.12151700  1
  Fe  Fe7  1  0.15594200  0.15665100  0.87153300  1
  B  B0  1  0.84100500  0.83155000  0.62868400  1
  B  B1  1  0.66486500  0.66375200  0.36984900  1
  B  B2  1  0.16728100  0.83078900  0.87725200  1
  B  B3  1  0.33725200  0.67134400  0.11764500  1
  B  B4  1  0.66272100  0.32868100  0.87259700  1
  B  B5  1  0.33935300  0.33050600  0.62511700  1
  B  B6  1  0.83173400  0.16423700  0.12213600  1
  B  B7  1  0.17413700  0.17327400  0.36211400  1
  O  O0  1  0.74729900  0.97132200  0.64717800  1
  O  O1  1  0.91233700  0.83111700  0.91605400  1
  O  O2  1  0.30812900  0.95665800  0.89118800  1
  O  O3  1  0.79110300  0.78594400  0.31634900  1
  O  O4  1  0.69521200  0.71165100  0.66667700  1
  O  O5  1  0.20207200  0.79905600  0.15226200  1
  O  O6  1  0.08180600  0.81071000  0.57889500  1
  O  O7  1  0.58566300  0.68908700  0.07620500  1
  O  O8  1  0.77290500  0.52748300  0.36535100  1
  O  O9  1  0.42816500  0.68532000  0.42740500  1
  O  O10  1  0.27544500  0.70111400  0.82790600  1
  O  O11  1  0.80343300  0.45251700  0.87054800  1
  O  O12  1  0.22775700  0.53696000  0.11785600  1
  O  O13  1  0.69568900  0.28779500  0.16379400  1
  O  O14  1  0.57340500  0.30254400  0.56509100  1
  O  O15  1  0.26048600  0.47013600  0.65113200  1
  O  O16  1  0.41045700  0.32794600  0.92030500  1
  O  O17  1  0.93473700  0.19489400  0.42229000  1
  O  O18  1  0.76596400  0.19515500  0.82564100  1
  O  O19  1  0.30328100  0.30243000  0.32164300  1
  O  O20  1  0.19270600  0.21137900  0.66602100  1
  O  O21  1  0.71508000  0.03028000  0.11224300  1
  O  O22  1  0.08722400  0.17930000  0.08654600  1
  O  O23  1  0.27167800  0.03938000  0.33889100  1
loop_
_geom_bond_atom_site_label_1
_geom_bond_atom_site_label_2
_geom_bond_distance
_geom_bond_site_symmetry_2
Li0 O2 1.926700 1_555
Li0 O18 1.983496 1_565
Li0 O0 2.021087 1_555
Li0 O1 2.099487 1_555
Li1 O5 1.994686 1_545
Li1 O21 1.998573 1_555
Li1 O22 2.137942 1_555
Li1 O23 2.244353 1_555
Li1 O2 2.386782 1_544
Li2 O11 1.922676 1_455
Li2 O10 1.997861 1_555
Li2 O15 2.004612 1_555
Li2 O16 2.168843 1_555
Fe0 O7 1.919227 1_555
Fe0 O21 1.943637 1_565
Fe0 O5 1.966771 1_655
Fe0 O3 1.990828 1_555
Fe0 O1 2.136350 1_554
Fe1 O23 1.957371 1_565
Fe1 O9 2.066899 1_555
Fe1 O3 2.086965 1_455
Fe1 O6 2.117296 1_555
Fe1 O5 2.283393 1_555
Fe2 O11 1.972379 1_555
Fe2 O7 2.120331 1_556
Fe2 O1 2.126003 1_555
Fe2 O4 2.146338 1_555
Fe2 O10 2.158175 1_555
Fe3 O15 1.907711 1_555
Fe3 O6 1.939692 1_555
Fe3 O4 1.941826 1_555
Fe3 O9 1.980302 1_555
Fe3 O10 2.163876 1_555
Fe4 O8 1.846899 1_555
Fe4 O17 1.985020 1_555
Fe4 O19 1.999850 1_555
Fe4 O14 2.052475 1_555
Fe4 O13 2.127040 1_555
Fe5 O0 1.890391 1_545
Fe5 O20 1.940021 1_655
Fe5 O14 1.964284 1_555
Fe5 O17 2.048714 1_555
Fe5 O18 2.144227 1_555
Fe6 O12 1.868477 1_555
Fe6 O22 2.012676 1_555
Fe6 O13 2.013000 1_555
Fe6 O19 2.055422 1_555
Fe6 O16 2.072104 1_554
Fe7 O2 1.989853 1_545
Fe7 O16 2.130564 1_555
Fe7 O20 2.139355 1_555
Fe7 O18 2.149434 1_455
Fe7 O22 2.211354 1_556
B0 O0 1.372235 1_555
B0 O6 1.379098 1_655
B0 O4 1.388069 1_555
B1 O8 1.359782 1_555
B1 O9 1.390288 1_555
B1 O3 1.400665 1_555
B2 O2 1.378275 1_555
B2 O10 1.398579 1_555
B2 O1 1.402900 1_455
B3 O12 1.354330 1_555
B3 O7 1.387353 1_555
B3 O5 1.402880 1_555
B4 O11 1.353179 1_555
B4 O18 1.409711 1_555
B4 O16 1.416399 1_555
B5 O15 1.358230 1_555
B5 O20 1.393181 1_555
B5 O14 1.397424 1_555
B6 O21 1.372794 1_555
B6 O13 1.394236 1_555
B6 O22 1.404670 1_655
B7 O23 1.338495 1_555
B7 O17 1.414149 1_455
B7 O19 1.416529 1_555
