# generated using pymatgen
data_LiMnF4
_symmetry_space_group_name_H-M   'P 1'
_cell_length_a   15.65563800
_cell_length_b   7.56191900
_cell_length_c   7.90190027
_cell_angle_alpha   75.80474564
_cell_angle_beta   90.00000000
_cell_angle_gamma   90.00000000
_symmetry_Int_Tables_number   1
_chemical_formula_structural   LiMnF4
_chemical_formula_sum   'Li12 Mn12 F48'
_cell_volume   906.91538312
_cell_formula_units_Z   12
loop_
 _symmetry_equiv_pos_site_id
 _symmetry_equiv_pos_as_xyz
  1  'x, y, z'
loop_
 _atom_site_type_symbol
 _atom_site_label
 _atom_site_symmetry_multiplicity
 _atom_site_fract_x
 _atom_site_fract_y
 _atom_site_fract_z
 _atom_site_occupancy
  Li  Li0  1  0.86337100  0.85399700  0.09574200  1
  Li  Li1  1  0.20331200  0.84612900  0.08522500  1
  Li  Li2  1  0.34804800  0.62732100  0.90069000  1
  Li  Li3  1  0.04014400  0.64164400  0.90182000  1
  Li  Li4  1  0.67603400  0.68015300  0.91039700  1
  Li  Li5  1  0.50240300  0.84189300  0.08237100  1
  Li  Li6  1  0.00240300  0.15810700  0.91762900  1
  Li  Li7  1  0.17603400  0.31984700  0.08960300  1
  Li  Li8  1  0.54014400  0.35835600  0.09818000  1
  Li  Li9  1  0.84804800  0.37267900  0.09931000  1
  Li  Li10  1  0.70331200  0.15387100  0.91477500  1
  Li  Li11  1  0.36337100  0.14600300  0.90425800  1
  Mn  Mn0  1  0.52283700  0.96341900  0.66935000  1
  Mn  Mn1  1  0.85442300  0.95365700  0.68709600  1
  Mn  Mn2  1  0.19183700  0.95017700  0.67958800  1
  Mn  Mn3  1  0.02310600  0.53974100  0.31332900  1
  Mn  Mn4  1  0.18797600  0.45236500  0.67456800  1
  Mn  Mn5  1  0.35569500  0.54457300  0.32635000  1
  Mn  Mn6  1  0.85569500  0.45542700  0.67365000  1
  Mn  Mn7  1  0.68797600  0.54763500  0.32543200  1
  Mn  Mn8  1  0.52310600  0.46025900  0.68667100  1
  Mn  Mn9  1  0.69183700  0.04982300  0.32041200  1
  Mn  Mn10  1  0.35442300  0.04634300  0.31290400  1
  Mn  Mn11  1  0.02283700  0.03658100  0.33065000  1
  F  F0  1  0.92536600  0.96412700  0.87917500  1
  F  F1  1  0.42505000  0.98609500  0.79416000  1
  F  F2  1  0.75286800  0.93556200  0.86007000  1
  F  F3  1  0.57877200  0.85966100  0.88637600  1
  F  F4  1  0.09853100  0.87175500  0.84815900  1
  F  F5  1  0.96795100  0.93774300  0.54356300  1
  F  F6  1  0.27025400  0.83647700  0.87647700  1
  F  F7  1  0.62105800  0.93126900  0.54092000  1
  F  F8  1  0.78955500  0.95006300  0.48538700  1
  F  F9  1  0.69603400  0.83372200  0.24678300  1
  F  F10  1  0.35905600  0.78946400  0.38836600  1
  F  F11  1  0.85691100  0.69322100  0.75613600  1
  F  F12  1  0.48137400  0.69418400  0.67077900  1
  F  F13  1  0.06365900  0.77593900  0.29733300  1
  F  F14  1  0.18824800  0.73575400  0.60565500  1
  F  F15  1  0.62255900  0.55567000  0.52568700  1
  F  F16  1  0.79155100  0.55344600  0.45047100  1
  F  F17  1  0.41900800  0.64361300  0.10623700  1
  F  F18  1  0.25111700  0.44753500  0.88314200  1
  F  F19  1  0.95434600  0.53427300  0.54216400  1
  F  F20  1  0.25565000  0.61096600  0.20833400  1
  F  F21  1  0.92870000  0.62583900  0.14968400  1
  F  F22  1  0.08743100  0.44346400  0.80217600  1
  F  F23  1  0.59685500  0.47809300  0.88784700  1
  F  F24  1  0.09685500  0.52190700  0.11215300  1
  F  F25  1  0.58743100  0.55653600  0.19782400  1
  F  F26  1  0.42870000  0.37416100  0.85031600  1
  F  F27  1  0.75565000  0.38903400  0.79166600  1
  F  F28  1  0.45434600  0.46572700  0.45783600  1
  F  F29  1  0.75111700  0.55246500  0.11685800  1
  F  F30  1  0.91900800  0.35638700  0.89376300  1
  F  F31  1  0.29155100  0.44655400  0.54952900  1
  F  F32  1  0.12255900  0.44433000  0.47431300  1
  F  F33  1  0.68824800  0.26424600  0.39434500  1
  F  F34  1  0.56365900  0.22406100  0.70266700  1
  F  F35  1  0.98137400  0.30581600  0.32922100  1
  F  F36  1  0.35691100  0.30677900  0.24386400  1
  F  F37  1  0.85905600  0.21053600  0.61163400  1
  F  F38  1  0.19603400  0.16627800  0.75321700  1
  F  F39  1  0.28955500  0.04993700  0.51461300  1
  F  F40  1  0.12105800  0.06873100  0.45908000  1
  F  F41  1  0.77025400  0.16352300  0.12352300  1
  F  F42  1  0.46795100  0.06225700  0.45643700  1
  F  F43  1  0.59853100  0.12824500  0.15184100  1
  F  F44  1  0.07877200  0.14033900  0.11362400  1
  F  F45  1  0.25286800  0.06443800  0.13993000  1
  F  F46  1  0.92505000  0.01390500  0.20584000  1
  F  F47  1  0.42536600  0.03587300  0.12082500  1
loop_
_geom_bond_atom_site_label_1
_geom_bond_atom_site_label_2
_geom_bond_distance
_geom_bond_site_symmetry_2
F0 Mn1 1.898012 1_555
F0 Li0 1.965985 1_556
F0 Li6 1.979193 1_665
F1 Mn0 1.851680 1_555
F1 Li11 1.915058 1_565
F2 Li10 1.965712 1_565
F2 Mn1 2.079185 1_555
F2 Li4 2.226795 1_555
F2 Li0 2.505587 1_556
F3 Mn0 1.914021 1_555
F3 Li5 1.934952 1_556
F3 Li4 2.017641 1_555
F4 Li3 1.918686 1_555
F4 Mn2 1.967840 1_555
F4 Li1 2.461629 1_556
F5 Mn11 1.873707 1_665
F5 Mn1 2.127623 1_555
F6 Li2 1.968002 1_555
F6 Li1 1.970683 1_556
F6 Mn2 2.002711 1_555
F7 Mn0 1.890654 1_555
F7 Mn9 2.074008 1_565
F8 Mn1 1.895730 1_555
F8 Mn9 2.031399 1_565
F9 Mn9 1.865350 1_565
F9 Mn7 2.103068 1_555
F10 Mn10 1.888394 1_565
F10 Mn5 2.029119 1_555
F11 Mn1 1.910685 1_555
F11 Mn6 2.057543 1_555
F12 Mn8 1.860850 1_555
F12 Mn0 2.134302 1_555
F13 Mn3 1.870432 1_555
F13 Mn11 2.148697 1_565
F14 Mn2 1.854225 1_555
F14 Mn4 2.077622 1_555
F15 Mn7 1.898340 1_555
F15 Mn8 2.028016 1_555
F16 Mn7 1.904948 1_555
F16 Mn6 2.006691 1_555
F17 Li5 1.962043 1_555
F17 Mn5 1.982350 1_555
F17 Li2 1.996380 1_554
F18 Mn4 1.914498 1_555
F18 Li7 2.050132 1_556
F18 Li2 2.064669 1_555
F19 Mn6 1.875225 1_555
F19 Mn3 2.096080 1_655
F20 Mn5 1.829011 1_555
F20 Li1 1.982820 1_555
F21 Li0 1.960550 1_555
F21 Mn3 1.966607 1_655
F21 Li9 2.406516 1_555
F22 Mn4 1.861661 1_555
F22 Li3 1.998152 1_555
F23 Li8 1.905878 1_556
F23 Mn8 1.995862 1_555
F23 Li4 2.009117 1_555
F24 Li3 1.905878 1_554
F24 Mn3 1.995862 1_555
F24 Li7 2.009117 1_555
F25 Mn7 1.861661 1_555
F25 Li8 1.998152 1_555
F26 Li11 1.960550 1_555
F26 Mn8 1.966607 1_555
F26 Li2 2.406516 1_555
F27 Mn6 1.829011 1_555
F27 Li10 1.982820 1_555
F28 Mn5 1.875225 1_555
F28 Mn8 2.096080 1_555
F29 Mn7 1.914498 1_555
F29 Li4 2.050132 1_554
F29 Li9 2.064669 1_555
F30 Li6 1.962043 1_655
F30 Mn6 1.982350 1_555
F30 Li9 1.996380 1_556
F31 Mn4 1.904948 1_555
F31 Mn5 2.006691 1_555
F32 Mn4 1.898340 1_555
F32 Mn3 2.028016 1_555
F33 Mn9 1.854225 1_555
F33 Mn7 2.077622 1_555
F34 Mn8 1.870432 1_555
F34 Mn0 2.148697 1_545
F35 Mn3 1.860850 1_655
F35 Mn11 2.134302 1_655
F36 Mn10 1.910685 1_555
F36 Mn5 2.057543 1_555
F37 Mn1 1.888394 1_545
F37 Mn6 2.029119 1_555
F38 Mn2 1.865350 1_545
F38 Mn4 2.103068 1_555
F39 Mn10 1.895730 1_555
F39 Mn2 2.031399 1_545
F40 Mn11 1.890654 1_555
F40 Mn2 2.074008 1_545
F41 Li9 1.968002 1_555
F41 Li10 1.970683 1_554
F41 Mn9 2.002711 1_555
F42 Mn0 1.873707 1_545
F42 Mn10 2.127623 1_555
F43 Li8 1.918686 1_555
F43 Mn9 1.967840 1_555
F43 Li10 2.461629 1_554
F44 Mn11 1.914021 1_555
F44 Li6 1.934952 1_554
F44 Li7 2.017641 1_555
F45 Li1 1.965712 1_545
F45 Mn10 2.079185 1_555
F45 Li7 2.226795 1_555
F45 Li11 2.505587 1_554
F46 Mn11 1.851680 1_655
F46 Li0 1.915058 1_545
F47 Mn10 1.898012 1_555
F47 Li11 1.965985 1_554
F47 Li5 1.979193 1_545
