# generated using pymatgen
data_Li3CrF6
_symmetry_space_group_name_H-M   'P 1'
_cell_length_a   4.83678800
_cell_length_b   4.83532800
_cell_length_c   8.87834398
_cell_angle_alpha   89.83688286
_cell_angle_beta   90.00000000
_cell_angle_gamma   90.00000000
_symmetry_Int_Tables_number   1
_chemical_formula_structural   Li3CrF6
_chemical_formula_sum   'Li6 Cr2 F12'
_cell_volume   207.64104167
_cell_formula_units_Z   2
loop_
 _symmetry_equiv_pos_site_id
 _symmetry_equiv_pos_as_xyz
  1  'x, y, z'
loop_
 _atom_site_type_symbol
 _atom_site_label
 _atom_site_symmetry_multiplicity
 _atom_site_fract_x
 _atom_site_fract_y
 _atom_site_fract_z
 _atom_site_occupancy
  Li  Li0  1  0.25869000  0.00052700  0.65069400  1
  Li  Li1  1  0.74701000  0.99954400  0.24842800  1
  Li  Li2  1  0.75324900  0.50196500  0.84942400  1
  Li  Li3  1  0.25299000  0.49954400  0.74842800  1
  Li  Li4  1  0.74131000  0.50052700  0.15069400  1
  Li  Li5  1  0.24675100  0.00196500  0.34942400  1
  Cr  Cr0  1  0.24813800  0.99959000  0.99988200  1
  Cr  Cr1  1  0.75186200  0.49959000  0.49988200  1
  F  F0  1  0.43211900  0.79765100  0.83858400  1
  F  F1  1  0.44816700  0.81627200  0.16225600  1
  F  F2  1  0.46583900  0.78280100  0.50002600  1
  F  F3  1  0.96303700  0.71614400  0.00040400  1
  F  F4  1  0.95335600  0.68199100  0.66130000  1
  F  F5  1  0.93060500  0.70238900  0.33755300  1
  F  F6  1  0.55183300  0.31627200  0.66225600  1
  F  F7  1  0.56788100  0.29765100  0.33858400  1
  F  F8  1  0.53416100  0.28280100  0.00002600  1
  F  F9  1  0.03696300  0.21614400  0.50040400  1
  F  F10  1  0.06939500  0.20238900  0.83755300  1
  F  F11  1  0.04664400  0.18199100  0.16130000  1
loop_
_geom_bond_atom_site_label_1
_geom_bond_atom_site_label_2
_geom_bond_distance
_geom_bond_site_symmetry_2
Cr0 F10 1.943722 1_565
Cr0 F3 1.944215 1_456
Cr0 F11 1.946465 1_566
Cr0 F8 1.946588 1_566
Cr0 F1 1.947494 1_556
Cr0 F0 1.950404 1_555
Cr1 F5 1.943722 1_555
Cr1 F9 1.944215 1_655
Cr1 F4 1.946465 1_555
Cr1 F2 1.946588 1_555
Cr1 F6 1.947494 1_555
Cr1 F7 1.950404 1_555
F0 Li3 1.864322 1_555
F0 Li0 2.106982 1_565
F0 Li2 2.113097 1_555
F1 Li1 1.861128 1_555
F1 Li4 2.086311 1_555
F1 Li5 2.127242 1_565
F2 Li0 1.977278 1_565
F2 Li5 2.006418 1_565
F3 Li2 1.976576 1_554
F3 Li4 2.002403 1_555
F4 Li3 1.863634 1_655
F4 Li2 2.115636 1_555
F4 Li0 2.135739 1_665
F5 Li1 1.863526 1_555
F5 Li5 2.109149 1_665
F5 Li4 2.133657 1_555
F6 Li3 1.861128 1_555
F6 Li0 2.086311 1_555
F6 Li2 2.127242 1_555
F7 Li1 1.864322 1_545
F7 Li4 2.106982 1_555
F7 Li5 2.113097 1_555
F8 Li4 1.977278 1_555
F8 Li2 2.006418 1_554
F9 Li5 1.976576 1_555
F9 Li0 2.002403 1_555
F10 Li3 1.863526 1_555
F10 Li2 2.109149 1_455
F10 Li0 2.133657 1_555
F11 Li1 1.863634 1_445
F11 Li5 2.115636 1_555
F11 Li4 2.135739 1_455
