# generated using pymatgen
data_ErAsO4
_symmetry_space_group_name_H-M   'P 1'
_cell_length_a   5.85459831
_cell_length_b   5.85459857
_cell_length_c   5.85459765
_cell_angle_alpha   106.62468972
_cell_angle_beta   106.62469239
_cell_angle_gamma   115.32785591
_symmetry_Int_Tables_number   1
_chemical_formula_structural   ErAsO4
_chemical_formula_sum   'Er2 As2 O8'
_cell_volume   153.25610547
_cell_formula_units_Z   2
loop_
 _symmetry_equiv_pos_site_id
 _symmetry_equiv_pos_as_xyz
  1  'x, y, z'
loop_
 _atom_site_type_symbol
 _atom_site_label
 _atom_site_symmetry_multiplicity
 _atom_site_fract_x
 _atom_site_fract_y
 _atom_site_fract_z
 _atom_site_occupancy
  Er  Er0  1  0.12500000  0.87500000  0.25000000  1
  Er  Er1  1  0.87500000  0.12500000  0.75000000  1
  As  As0  1  0.37500000  0.62500000  0.75000000  1
  As  As1  1  0.62500000  0.37500000  0.25000000  1
  O  O0  1  0.19778362  0.63068218  0.93289955  1
  O  O1  1  0.36931782  0.80221638  0.56710045  1
  O  O2  1  0.19778362  0.26488407  0.56710045  1
  O  O3  1  0.73511593  0.80221638  0.93289955  1
  O  O4  1  0.26488407  0.19778362  0.06710045  1
  O  O5  1  0.80221638  0.73511593  0.43289955  1
  O  O6  1  0.63068218  0.19778362  0.43289955  1
  O  O7  1  0.80221638  0.36931782  0.06710045  1
loop_
_geom_bond_atom_site_label_1
_geom_bond_atom_site_label_2
_geom_bond_distance
_geom_bond_site_symmetry_2
Er0 O3 2.264688 1_454
Er0 O2 2.264688 1_565
Er0 O1 2.264690 1_555
Er0 O0 2.264690 1_554
Er0 O6 2.392498 1_565
Er0 O7 2.392498 1_455
Er0 O5 2.392503 1_455
Er0 O4 2.392503 1_565
Er1 O4 2.264688 1_656
Er1 O5 2.264688 1_545
Er1 O6 2.264690 1_555
Er1 O7 2.264690 1_556
Er1 O1 2.392498 1_545
Er1 O0 2.392498 1_655
Er1 O2 2.392503 1_655
Er1 O3 2.392503 1_545
As0 O0 1.693829 1_555
As0 O1 1.693829 1_555
As0 O3 1.693830 1_555
As0 O2 1.693830 1_555
As1 O7 1.693829 1_555
As1 O6 1.693829 1_555
As1 O4 1.693830 1_555
As1 O5 1.693830 1_555
