# generated using pymatgen
data_MnO2
_symmetry_space_group_name_H-M   'P 1'
_cell_length_a   2.85584574
_cell_length_b   9.28245627
_cell_length_c   9.37444329
_cell_angle_alpha   88.12624342
_cell_angle_beta   90.00000000
_cell_angle_gamma   90.00000000
_symmetry_Int_Tables_number   1
_chemical_formula_structural   MnO2
_chemical_formula_sum   'Mn6 O12'
_cell_volume   248.37670575
_cell_formula_units_Z   6
loop_
 _symmetry_equiv_pos_site_id
 _symmetry_equiv_pos_as_xyz
  1  'x, y, z'
loop_
 _atom_site_type_symbol
 _atom_site_label
 _atom_site_symmetry_multiplicity
 _atom_site_fract_x
 _atom_site_fract_y
 _atom_site_fract_z
 _atom_site_occupancy
  Mn  Mn0  1  0.50000000  -0.00000000  0.50000000  1
  Mn  Mn1  1  -0.00000000  0.98692455  0.76479315  1
  Mn  Mn2  1  0.00000000  0.01307545  0.23520685  1
  Mn  Mn3  1  -0.00000000  0.50000000  -0.00000000  1
  Mn  Mn4  1  0.50000000  0.23425885  0.97917618  1
  Mn  Mn5  1  0.50000000  0.76574115  0.02082382  1
  O  O0  1  0.50000000  0.90833587  0.15972981  1
  O  O1  1  0.50000000  0.09166413  0.84027019  1
  O  O2  1  -0.00000000  0.90249873  0.41031140  1
  O  O3  1  -0.00000000  0.09750127  0.58968860  1
  O  O4  1  0.50000000  0.88962032  0.67418023  1
  O  O5  1  0.50000000  0.11037968  0.32581977  1
  O  O6  1  -0.00000000  0.85276670  0.92050531  1
  O  O7  1  -0.00000000  0.14723330  0.07949469  1
  O  O8  1  0.50000000  0.59977096  0.90625716  1
  O  O9  1  0.50000000  0.40022904  0.09374284  1
  O  O10  1  -0.00000000  0.33497506  0.88561705  1
  O  O11  1  -0.00000000  0.66502494  0.11438295  1
loop_
_geom_bond_atom_site_label_1
_geom_bond_atom_site_label_2
_geom_bond_distance
_geom_bond_site_symmetry_2
Mn0 O5 1.899095 1_555
Mn0 O4 1.899095 1_545
Mn0 O2 1.901251 1_545
Mn0 O3 1.901251 1_655
Mn0 O2 1.901251 1_645
Mn0 O3 1.901251 1_555
Mn1 O1 1.878786 1_565
Mn1 O1 1.878786 1_465
Mn1 O6 1.887512 1_555
Mn1 O4 1.904339 1_455
Mn1 O4 1.904339 1_555
Mn1 O3 1.907331 1_565
Mn2 O0 1.878786 1_445
Mn2 O0 1.878786 1_545
Mn2 O7 1.887512 1_555
Mn2 O5 1.904339 1_555
Mn2 O5 1.904339 1_455
Mn2 O2 1.907331 1_545
Mn3 O11 1.898345 1_555
Mn3 O10 1.898345 1_554
Mn3 O8 1.901501 1_454
Mn3 O8 1.901501 1_554
Mn3 O9 1.901501 1_555
Mn3 O9 1.901501 1_455
Mn4 O7 1.877832 1_556
Mn4 O7 1.877832 1_656
Mn4 O1 1.886888 1_555
Mn4 O10 1.904891 1_655
Mn4 O10 1.904891 1_555
Mn4 O9 1.906609 1_556
Mn5 O6 1.877832 1_654
Mn5 O6 1.877832 1_554
Mn5 O0 1.886888 1_555
Mn5 O11 1.904891 1_555
Mn5 O11 1.904891 1_655
Mn5 O8 1.906609 1_554
