# generated using pymatgen
data_Li2Fe2(SiO3)3
_symmetry_space_group_name_H-M   'P 1'
_cell_length_a   7.08146000
_cell_length_b   10.07081600
_cell_length_c   12.80535800
_cell_angle_alpha   90.00000000
_cell_angle_beta   90.00000000
_cell_angle_gamma   90.00000000
_symmetry_Int_Tables_number   1
_chemical_formula_structural   Li2Fe2(SiO3)3
_chemical_formula_sum   'Li8 Fe8 Si12 O36'
_cell_volume   913.22794415
_cell_formula_units_Z   4
loop_
 _symmetry_equiv_pos_site_id
 _symmetry_equiv_pos_as_xyz
  1  'x, y, z'
loop_
 _atom_site_type_symbol
 _atom_site_label
 _atom_site_symmetry_multiplicity
 _atom_site_fract_x
 _atom_site_fract_y
 _atom_site_fract_z
 _atom_site_occupancy
  Li  Li0  1  0.56858200  0.51159100  0.15790200  1
  Li  Li1  1  0.56858200  0.98840900  0.15790200  1
  Li  Li2  1  0.06858200  0.01159100  0.34209800  1
  Li  Li3  1  0.06858200  0.48840900  0.34209800  1
  Li  Li4  1  0.93141800  0.51159100  0.65790200  1
  Li  Li5  1  0.93141800  0.98840900  0.65790200  1
  Li  Li6  1  0.43141800  0.01159100  0.84209800  1
  Li  Li7  1  0.43141800  0.48840900  0.84209800  1
  Fe  Fe0  1  0.11760600  0.56717500  0.09105600  1
  Fe  Fe1  1  0.11760600  0.93282500  0.09105600  1
  Fe  Fe2  1  0.61760600  0.06717500  0.40894400  1
  Fe  Fe3  1  0.61760600  0.43282500  0.40894400  1
  Fe  Fe4  1  0.38239400  0.56717500  0.59105600  1
  Fe  Fe5  1  0.38239400  0.93282500  0.59105600  1
  Fe  Fe6  1  0.88239400  0.06717500  0.90894400  1
  Fe  Fe7  1  0.88239400  0.43282500  0.90894400  1
  Si  Si0  1  0.46947900  0.75000000  0.02563600  1
  Si  Si1  1  0.12936800  0.25000000  0.06202400  1
  Si  Si2  1  0.46101100  0.25000000  0.21183600  1
  Si  Si3  1  0.96101100  0.75000000  0.28816400  1
  Si  Si4  1  0.62936800  0.75000000  0.43797600  1
  Si  Si5  1  0.96947900  0.25000000  0.47436400  1
  Si  Si6  1  0.03052100  0.75000000  0.52563600  1
  Si  Si7  1  0.37063200  0.25000000  0.56202400  1
  Si  Si8  1  0.03898900  0.25000000  0.71183600  1
  Si  Si9  1  0.53898900  0.75000000  0.78816400  1
  Si  Si10  1  0.87063200  0.75000000  0.93797600  1
  Si  Si11  1  0.53052100  0.25000000  0.97436400  1
  O  O0  1  0.70421200  0.75000000  0.03144600  1
  O  O1  1  0.00485000  0.11529000  0.05054200  1
  O  O2  1  0.00485000  0.38471000  0.05054200  1
  O  O3  1  0.39132400  0.61436900  0.08030100  1
  O  O4  1  0.39132400  0.88563100  0.08030100  1
  O  O5  1  0.58287400  0.25000000  0.10058700  1
  O  O6  1  0.00935200  0.88950400  0.22986900  1
  O  O7  1  0.00935200  0.61049600  0.22986900  1
  O  O8  1  0.23433500  0.25000000  0.17793400  1
  O  O9  1  0.73433500  0.75000000  0.32206600  1
  O  O10  1  0.50935200  0.11049600  0.27013100  1
  O  O11  1  0.50935200  0.38950400  0.27013100  1
  O  O12  1  0.08287400  0.75000000  0.39941300  1
  O  O13  1  0.89132400  0.11436900  0.41969900  1
  O  O14  1  0.89132400  0.38563100  0.41969900  1
  O  O15  1  0.50485000  0.61529000  0.44945800  1
  O  O16  1  0.50485000  0.88471000  0.44945800  1
  O  O17  1  0.20421200  0.25000000  0.46855400  1
  O  O18  1  0.79578800  0.75000000  0.53144600  1
  O  O19  1  0.49515000  0.11529000  0.55054200  1
  O  O20  1  0.49515000  0.38471000  0.55054200  1
  O  O21  1  0.10867600  0.61436900  0.58030100  1
  O  O22  1  0.10867600  0.88563100  0.58030100  1
  O  O23  1  0.91712600  0.25000000  0.60058700  1
  O  O24  1  0.49064800  0.61049600  0.72986900  1
  O  O25  1  0.49064800  0.88950400  0.72986900  1
  O  O26  1  0.26566500  0.25000000  0.67793400  1
  O  O27  1  0.76566500  0.75000000  0.82206600  1
  O  O28  1  0.99064800  0.11049600  0.77013100  1
  O  O29  1  0.99064800  0.38950400  0.77013100  1
  O  O30  1  0.41712600  0.75000000  0.89941300  1
  O  O31  1  0.60867600  0.11436900  0.91969900  1
  O  O32  1  0.60867600  0.38563100  0.91969900  1
  O  O33  1  0.99515000  0.61529000  0.94945800  1
  O  O34  1  0.99515000  0.88471000  0.94945800  1
  O  O35  1  0.29578800  0.25000000  0.96855400  1
loop_
_geom_bond_atom_site_label_1
_geom_bond_atom_site_label_2
_geom_bond_distance
_geom_bond_site_symmetry_2
Li0 O3 1.906422 1_555
Li0 O11 1.937262 1_555
Li1 O4 1.906422 1_555
Li1 O10 1.937262 1_565
Li2 O13 1.906422 1_455
Li2 O6 1.937262 1_545
Li3 O14 1.906422 1_455
Li3 O7 1.937262 1_555
Li4 O21 1.906422 1_655
Li4 O29 1.937262 1_555
Li5 O22 1.906422 1_655
Li5 O28 1.937262 1_565
Li6 O31 1.906422 1_555
Li6 O25 1.937262 1_545
Li7 O32 1.906422 1_555
Li7 O24 1.937262 1_555
Fe0 O7 1.984362 1_555
Fe0 O3 2.000489 1_555
Fe0 O33 2.067490 1_454
Fe0 O2 2.069634 1_555
Fe1 O6 1.984362 1_555
Fe1 O4 2.000489 1_555
Fe1 O34 2.067490 1_454
Fe1 O1 2.069634 1_565
Fe2 O10 1.984362 1_555
Fe2 O13 2.000489 1_555
Fe2 O19 2.067490 1_555
Fe2 O16 2.069634 1_545
Fe3 O11 1.984362 1_555
Fe3 O14 2.000489 1_555
Fe3 O20 2.067490 1_555
Fe3 O15 2.069634 1_555
Fe4 O24 1.984362 1_555
Fe4 O21 2.000489 1_555
Fe4 O15 2.067490 1_555
Fe4 O20 2.069634 1_555
Fe5 O25 1.984362 1_555
Fe5 O22 2.000489 1_555
Fe5 O16 2.067490 1_555
Fe5 O19 2.069634 1_565
Fe6 O28 1.984362 1_555
Fe6 O31 2.000489 1_555
Fe6 O1 2.067490 1_656
Fe6 O34 2.069634 1_545
Fe7 O29 1.984362 1_555
Fe7 O32 2.000489 1_555
Fe7 O2 2.067490 1_656
Fe7 O33 2.069634 1_555
O0 Si0 1.663916 1_555
O0 Si10 1.679721 1_554
O1 Si1 1.624686 1_555
O2 Si1 1.624686 1_555
O3 Si0 1.631576 1_555
O4 Si0 1.631576 1_555
O5 Si11 1.658303 1_554
O5 Si2 1.665578 1_555
O6 Si3 1.627338 1_455
O7 Si3 1.627338 1_455
O8 Si1 1.659994 1_555
O8 Si2 1.662866 1_555
O9 Si4 1.659994 1_555
O9 Si3 1.662866 1_555
O10 Si2 1.627338 1_555
O11 Si2 1.627338 1_555
O12 Si6 1.658303 1_555
O12 Si3 1.665578 1_455
O13 Si5 1.631576 1_555
O14 Si5 1.631576 1_555
O15 Si4 1.624686 1_555
O16 Si4 1.624686 1_555
O17 Si5 1.663916 1_455
O17 Si7 1.679721 1_555
O18 Si6 1.663916 1_655
O18 Si4 1.679721 1_555
O19 Si7 1.624686 1_555
O20 Si7 1.624686 1_555
O21 Si6 1.631576 1_555
O22 Si6 1.631576 1_555
O23 Si5 1.658303 1_555
O23 Si8 1.665578 1_655
O24 Si9 1.627338 1_555
O25 Si9 1.627338 1_555
O26 Si7 1.659994 1_555
O26 Si8 1.662866 1_555
O27 Si10 1.659994 1_555
O27 Si9 1.662866 1_555
O28 Si8 1.627338 1_655
O29 Si8 1.627338 1_655
O30 Si0 1.658303 1_556
O30 Si9 1.665578 1_555
O31 Si11 1.631576 1_555
O32 Si11 1.631576 1_555
O33 Si10 1.624686 1_555
O34 Si10 1.624686 1_555
O35 Si11 1.663916 1_555
O35 Si1 1.679721 1_556
