# generated using pymatgen
data_Li3Mn3(PO4)4
_symmetry_space_group_name_H-M   'P 1'
_cell_length_a   6.00365800
_cell_length_b   9.63087800
_cell_length_c   11.08334078
_cell_angle_alpha   65.03253228
_cell_angle_beta   90.00000000
_cell_angle_gamma   90.00000000
_symmetry_Int_Tables_number   1
_chemical_formula_structural   Li3Mn3(PO4)4
_chemical_formula_sum   'Li6 Mn6 P8 O32'
_cell_volume   580.95584552
_cell_formula_units_Z   2
loop_
 _symmetry_equiv_pos_site_id
 _symmetry_equiv_pos_as_xyz
  1  'x, y, z'
loop_
 _atom_site_type_symbol
 _atom_site_label
 _atom_site_symmetry_multiplicity
 _atom_site_fract_x
 _atom_site_fract_y
 _atom_site_fract_z
 _atom_site_occupancy
  Li  Li0  1  0.27698900  0.00131600  0.51339800  1
  Li  Li1  1  0.50712600  0.65181700  0.72745900  1
  Li  Li2  1  0.26001600  0.51262700  0.98410300  1
  Li  Li3  1  0.72301100  0.50131600  0.51339800  1
  Li  Li4  1  0.49287400  0.15181700  0.72745900  1
  Li  Li5  1  0.73998400  0.01262700  0.98410300  1
  Mn  Mn0  1  0.00705000  0.87144200  0.77350900  1
  Mn  Mn1  1  0.00194500  0.83139100  0.28360100  1
  Mn  Mn2  1  0.99295000  0.37144200  0.77350900  1
  Mn  Mn3  1  0.49729300  0.62053800  0.21368900  1
  Mn  Mn4  1  0.99805500  0.33139100  0.28360100  1
  Mn  Mn5  1  0.50270700  0.12053800  0.21368900  1
  P  P0  1  0.48788900  0.83034800  0.90550200  1
  P  P1  1  0.99693500  0.74698600  0.59562700  1
  P  P2  1  0.49600700  0.76238000  0.40244100  1
  P  P3  1  0.51211100  0.33034800  0.90550200  1
  P  P4  1  0.99279300  0.65829400  0.09758300  1
  P  P5  1  0.00306500  0.24698600  0.59562700  1
  P  P6  1  0.50399300  0.26238000  0.40244100  1
  P  P7  1  0.00720700  0.15829400  0.09758300  1
  O  O0  1  0.28093800  0.93389700  0.83526600  1
  O  O1  1  0.69520600  0.93302700  0.84258200  1
  O  O2  1  0.00152100  0.68265500  0.95246000  1
  O  O3  1  0.48273100  0.67626600  0.90045400  1
  O  O4  1  0.49022300  0.93178300  0.38234700  1
  O  O5  1  0.20633300  0.78815000  0.65786600  1
  O  O6  1  0.80811700  0.78777800  0.67285400  1
  O  O7  1  0.99961400  0.86242700  0.44446600  1
  O  O8  1  0.50518500  0.64900700  0.54598900  1
  O  O9  1  0.29974400  0.72975000  0.32285600  1
  O  O10  1  0.70134900  0.72757100  0.32857900  1
  O  O11  1  0.98331100  0.58351500  0.60719800  1
  O  O12  1  0.99139800  0.80977000  0.11452200  1
  O  O13  1  0.49426200  0.80938900  0.05608500  1
  O  O14  1  0.30479400  0.43302700  0.84258200  1
  O  O15  1  0.71906200  0.43389700  0.83526600  1
  O  O16  1  0.99847900  0.18265500  0.95246000  1
  O  O17  1  0.79380500  0.55356000  0.17298300  1
  O  O18  1  0.19709300  0.55162200  0.16902600  1
  O  O19  1  0.51726900  0.17626600  0.90045400  1
  O  O20  1  0.50977700  0.43178300  0.38234700  1
  O  O21  1  0.79366700  0.28815000  0.65786600  1
  O  O22  1  0.19188300  0.28777800  0.67285400  1
  O  O23  1  0.00038600  0.36242700  0.44446600  1
  O  O24  1  0.49481500  0.14900700  0.54598900  1
  O  O25  1  0.29865100  0.22757100  0.32857900  1
  O  O26  1  0.70025600  0.22975000  0.32285600  1
  O  O27  1  0.01668900  0.08351500  0.60719800  1
  O  O28  1  0.00860200  0.30977000  0.11452200  1
  O  O29  1  0.50573800  0.30938900  0.05608500  1
  O  O30  1  0.80290700  0.05162200  0.16902600  1
  O  O31  1  0.20619500  0.05356000  0.17298300  1
loop_
_geom_bond_atom_site_label_1
_geom_bond_atom_site_label_2
_geom_bond_distance
_geom_bond_site_symmetry_2
Li0 O5 2.045330 1_545
Li0 O24 2.073077 1_555
Li0 O27 2.201022 1_555
Li0 O4 2.240127 1_545
Li0 O25 2.278799 1_555
Li0 O7 2.451278 1_445
Li1 O8 2.022899 1_555
Li1 O3 2.033300 1_555
Li1 O6 2.162701 1_555
Li1 O5 2.173724 1_555
Li1 O14 2.296501 1_555
Li1 O15 2.309638 1_555
Li2 O3 1.974243 1_555
Li2 O14 2.033561 1_555
Li2 O2 2.174416 1_555
Li2 O18 2.265894 1_556
Li2 O29 2.307759 1_556
Li2 O28 2.408435 1_556
Li3 O21 2.045330 1_555
Li3 O8 2.073077 1_555
Li3 O11 2.201022 1_555
Li3 O20 2.240127 1_555
Li3 O10 2.278799 1_555
Li3 O23 2.451278 1_655
Li4 O24 2.022899 1_555
Li4 O19 2.033300 1_555
Li4 O22 2.162701 1_555
Li4 O21 2.173724 1_555
Li4 O1 2.296501 1_545
Li4 O0 2.309638 1_545
Li5 O19 1.974243 1_555
Li5 O1 2.033561 1_545
Li5 O16 2.174416 1_555
Li5 O30 2.265894 1_556
Li5 O13 2.307759 1_546
Li5 O12 2.408435 1_546
Mn0 O0 1.970201 1_555
Mn0 O6 2.019670 1_455
Mn0 O2 2.048498 1_555
Mn0 O27 2.096272 1_565
Mn0 O5 2.141421 1_555
Mn0 O1 2.196895 1_455
Mn1 O7 1.928275 1_455
Mn1 O12 1.971932 1_455
Mn1 O9 1.996123 1_555
Mn1 O10 2.020972 1_455
Mn1 O30 2.294648 1_465
Mn1 O31 2.317422 1_565
Mn2 O15 1.970201 1_555
Mn2 O22 2.019670 1_655
Mn2 O16 2.048498 1_555
Mn2 O11 2.096272 1_555
Mn2 O21 2.141421 1_555
Mn2 O14 2.196895 1_655
Mn3 O13 1.917687 1_555
Mn3 O20 1.983888 1_555
Mn3 O17 2.008553 1_555
Mn3 O18 2.052124 1_555
Mn3 O9 2.247494 1_555
Mn3 O10 2.300651 1_555
Mn4 O23 1.928275 1_655
Mn4 O28 1.971932 1_655
Mn4 O26 1.996123 1_555
Mn4 O25 2.020972 1_655
Mn4 O18 2.294648 1_655
Mn4 O17 2.317422 1_555
Mn5 O29 1.917687 1_555
Mn5 O4 1.983888 1_545
Mn5 O31 2.008553 1_555
Mn5 O30 2.052124 1_555
Mn5 O26 2.247494 1_555
Mn5 O25 2.300651 1_555
O0 P0 1.577613 1_555
O1 P0 1.559237 1_555
O2 P4 1.525227 1_456
O3 P0 1.508732 1_555
O4 P2 1.551082 1_555
O5 P1 1.563432 1_455
O6 P1 1.567126 1_555
O7 P1 1.571857 1_555
O8 P2 1.503316 1_555
O9 P2 1.580883 1_555
O10 P2 1.591868 1_555
O11 P1 1.526868 1_555
O12 P4 1.547503 1_555
O13 P0 1.594755 1_554
O14 P3 1.559237 1_555
O15 P3 1.577613 1_555
O16 P7 1.525227 1_656
O17 P4 1.559292 1_555
O18 P4 1.581171 1_455
O19 P3 1.508732 1_555
O20 P6 1.551082 1_555
O21 P5 1.563432 1_655
O22 P5 1.567126 1_555
O23 P5 1.571857 1_555
O24 P6 1.503316 1_555
O25 P6 1.591868 1_555
O26 P6 1.580883 1_555
O27 P5 1.526868 1_555
O28 P7 1.547503 1_555
O29 P3 1.594755 1_554
O30 P7 1.581171 1_655
O31 P7 1.559292 1_555
