# generated using pymatgen
data_Na7Ti11O24
_symmetry_space_group_name_H-M   'P 1'
_cell_length_a   10.62288344
_cell_length_b   10.62288344
_cell_length_c   6.23157840
_cell_angle_alpha   73.91312711
_cell_angle_beta   73.91312711
_cell_angle_gamma   120.11582868
_symmetry_Int_Tables_number   1
_chemical_formula_structural   Na7Ti11O24
_chemical_formula_sum   'Na7 Ti11 O24'
_cell_volume   505.93469169
_cell_formula_units_Z   1
loop_
 _symmetry_equiv_pos_site_id
 _symmetry_equiv_pos_as_xyz
  1  'x, y, z'
loop_
 _atom_site_type_symbol
 _atom_site_label
 _atom_site_symmetry_multiplicity
 _atom_site_fract_x
 _atom_site_fract_y
 _atom_site_fract_z
 _atom_site_occupancy
  Na  Na0  1  0.46538300  0.78896700  0.60877000  1
  Na  Na1  1  0.50000000  0.50000000  0.50000000  1
  Na  Na2  1  0.53461700  0.21103300  0.39123000  1
  Na  Na3  1  0.21103300  0.53461700  0.39123000  1
  Na  Na4  1  0.11608300  0.11608300  0.64725200  1
  Na  Na5  1  0.88391700  0.88391700  0.35274800  1
  Na  Na6  1  0.78896700  0.46538300  0.60877000  1
  Ti  Ti0  1  0.66976500  0.83515100  0.97963600  1
  Ti  Ti1  1  0.50000000  0.00000000  0.00000000  1
  Ti  Ti2  1  0.50000000  0.50000000  0.00000000  1
  Ti  Ti3  1  0.33023500  0.16484900  0.02036400  1
  Ti  Ti4  1  0.00000000  0.50000000  0.00000000  1
  Ti  Ti5  1  0.16484900  0.33023500  0.02036400  1
  Ti  Ti6  1  0.16995500  0.83004500  0.00000000  1
  Ti  Ti7  1  0.83004500  0.16995500  0.00000000  1
  Ti  Ti8  1  0.17084000  0.82916000  0.50000000  1
  Ti  Ti9  1  0.82916000  0.17084000  0.50000000  1
  Ti  Ti10  1  0.83515100  0.66976500  0.97963600  1
  O  O0  1  0.77868300  0.26356700  0.22332300  1
  O  O1  1  0.73643300  0.22131700  0.77667700  1
  O  O2  1  0.60279300  0.94464200  0.75362600  1
  O  O3  1  0.60843800  0.93497400  0.18013300  1
  O  O4  1  0.77759700  0.77759700  0.13896000  1
  O  O5  1  0.73000200  0.73000200  0.77611300  1
  O  O6  1  0.61547900  0.46474000  0.17972800  1
  O  O7  1  0.26356700  0.77868300  0.22332300  1
  O  O8  1  0.46474000  0.61547900  0.17972800  1
  O  O9  1  0.53526000  0.38452100  0.82027200  1
  O  O10  1  0.38452100  0.53526000  0.82027200  1
  O  O11  1  0.22131700  0.73643300  0.77667700  1
  O  O12  1  0.22240300  0.22240300  0.86104000  1
  O  O13  1  0.26999800  0.26999800  0.22388700  1
  O  O14  1  0.39720700  0.05535800  0.24637400  1
  O  O15  1  0.05535800  0.39720700  0.24637400  1
  O  O16  1  0.39156200  0.06502600  0.81986700  1
  O  O17  1  0.06502600  0.39156200  0.81986700  1
  O  O18  1  0.11134800  0.90832600  0.24924900  1
  O  O19  1  0.90832600  0.11134800  0.24924900  1
  O  O20  1  0.09167400  0.88865200  0.75075100  1
  O  O21  1  0.88865200  0.09167400  0.75075100  1
  O  O22  1  0.94464200  0.60279300  0.75362600  1
  O  O23  1  0.93497400  0.60843800  0.18013300  1
loop_
_geom_bond_atom_site_label_1
_geom_bond_atom_site_label_2
_geom_bond_distance
_geom_bond_site_symmetry_2
Na0 O2 2.194413 1_555
Na0 O10 2.195314 1_555
Na0 O11 2.202113 1_555
Na0 O3 2.222379 1_555
Na1 O6 2.268682 1_555
Na1 O8 2.268682 1_555
Na1 O10 2.268682 1_555
Na1 O9 2.268682 1_555
Na1 O12 2.524621 1_555
Na1 O4 2.524621 1_555
Na2 O14 2.194413 1_555
Na2 O6 2.195314 1_555
Na2 O0 2.202113 1_555
Na2 O16 2.222379 1_555
Na3 O15 2.194413 1_555
Na3 O8 2.195314 1_555
Na3 O7 2.202113 1_555
Na3 O17 2.222379 1_555
Na4 O12 2.171111 1_555
Na4 O20 2.176068 1_545
Na4 O21 2.176068 1_455
Na4 O13 2.200715 1_555
Na5 O4 2.171111 1_555
Na5 O18 2.176068 1_655
Na5 O19 2.176068 1_565
Na5 O5 2.200715 1_555
Na6 O22 2.194413 1_555
Na6 O9 2.195314 1_555
Na6 O1 2.202113 1_555
Na6 O23 2.222379 1_555
O0 Ti4 2.023958 1_655
O0 Ti7 2.028276 1_555
O0 Ti9 2.081257 1_555
O1 Ti1 2.023958 1_556
O1 Ti7 2.028276 1_556
O1 Ti9 2.081257 1_555
O2 Ti9 2.011212 1_565
O2 Ti1 2.027555 1_566
O2 Ti0 2.078554 1_555
O3 Ti0 2.021461 1_554
O3 Ti7 2.029441 1_565
O3 Ti1 2.037030 1_565
O4 Ti10 1.915288 1_554
O4 Ti0 1.915288 1_554
O5 Ti2 2.029042 1_556
O5 Ti0 2.078029 1_555
O5 Ti10 2.078029 1_555
O6 Ti10 1.877770 1_554
O6 Ti2 1.972189 1_555
O7 Ti1 2.023958 1_565
O7 Ti6 2.028276 1_555
O7 Ti8 2.081257 1_555
O8 Ti0 1.877770 1_554
O8 Ti2 1.972189 1_555
O9 Ti3 1.877770 1_556
O9 Ti2 1.972189 1_556
O10 Ti5 1.877770 1_556
O10 Ti2 1.972189 1_556
O11 Ti4 2.023958 1_556
O11 Ti6 2.028276 1_556
O11 Ti8 2.081257 1_555
O12 Ti3 1.915288 1_556
O12 Ti5 1.915288 1_556
O13 Ti2 2.029042 1_555
O13 Ti5 2.078029 1_555
O13 Ti3 2.078029 1_555
O14 Ti8 2.011212 1_545
O14 Ti1 2.027555 1_555
O14 Ti3 2.078554 1_555
O15 Ti9 2.011212 1_455
O15 Ti4 2.027555 1_555
O15 Ti5 2.078554 1_555
O16 Ti3 2.021461 1_556
O16 Ti6 2.029441 1_546
O16 Ti1 2.037030 1_556
O17 Ti5 2.021461 1_556
O17 Ti7 2.029441 1_456
O17 Ti4 2.037030 1_556
O18 Ti8 1.974998 1_555
O18 Ti6 2.047195 1_555
O18 Ti3 2.125167 1_565
O19 Ti9 1.974998 1_555
O19 Ti7 2.047195 1_555
O19 Ti5 2.125167 1_655
O20 Ti8 1.974998 1_555
O20 Ti6 2.047195 1_556
O20 Ti10 2.125167 1_455
O21 Ti9 1.974998 1_555
O21 Ti7 2.047195 1_556
O21 Ti0 2.125167 1_545
O22 Ti8 2.011212 1_655
O22 Ti4 2.027555 1_656
O22 Ti10 2.078554 1_555
O23 Ti10 2.021461 1_554
O23 Ti6 2.029441 1_655
O23 Ti4 2.037030 1_655
