# generated using pymatgen
data_Li4Ti3Fe3(TeO8)2
_symmetry_space_group_name_H-M   'P 1'
_cell_length_a   5.95958600
_cell_length_b   6.06283570
_cell_length_c   10.28278905
_cell_angle_alpha   89.91868099
_cell_angle_beta   89.91273118
_cell_angle_gamma   61.04212117
_symmetry_Int_Tables_number   1
_chemical_formula_structural   Li4Ti3Fe3(TeO8)2
_chemical_formula_sum   'Li4 Ti3 Fe3 Te2 O16'
_cell_volume   325.08599665
_cell_formula_units_Z   1
loop_
 _symmetry_equiv_pos_site_id
 _symmetry_equiv_pos_as_xyz
  1  'x, y, z'
loop_
 _atom_site_type_symbol
 _atom_site_label
 _atom_site_symmetry_multiplicity
 _atom_site_fract_x
 _atom_site_fract_y
 _atom_site_fract_z
 _atom_site_occupancy
  Li  Li0  1  0.66467800  0.67107500  0.09531900  1
  Li  Li1  1  0.00189700  0.99523300  0.01434500  1
  Li  Li2  1  0.00488900  0.99753400  0.50439400  1
  Li  Li3  1  0.33303700  0.32932000  0.60281600  1
  Ti  Ti0  1  0.34085800  0.81609900  0.78062500  1
  Ti  Ti1  1  0.83496700  0.81934800  0.78047900  1
  Ti  Ti2  1  0.18446100  0.64447800  0.26895800  1
  Fe  Fe0  1  0.83005200  0.33665200  0.78859400  1
  Fe  Fe1  1  0.17426000  0.17230900  0.28303700  1
  Fe  Fe2  1  0.66056300  0.16461100  0.28394500  1
  Te  Te0  1  0.67415700  0.65946300  0.48982900  1
  Te  Te1  1  0.34502400  0.30649000  0.00412900  1
  O  O0  1  0.33709400  0.83700500  0.39398600  1
  O  O1  1  0.51113300  0.97541800  0.68195900  1
  O  O2  1  0.65986500  0.67717800  0.89056400  1
  O  O3  1  0.99521300  0.00718800  0.68935500  1
  O  O4  1  0.01857800  0.98224900  0.19792500  1
  O  O5  1  0.83999800  0.82854000  0.40010400  1
  O  O6  1  0.49557100  0.51872400  0.68613100  1
  O  O7  1  0.97763400  0.52171400  0.68261400  1
  O  O8  1  0.13812600  0.71689600  0.89021700  1
  O  O9  1  0.84890400  0.32588000  0.40242500  1
  O  O10  1  0.02407100  0.49317600  0.17062200  1
  O  O11  1  0.47737500  0.50159500  0.16762900  1
  O  O12  1  0.31246200  0.35764000  0.39070200  1
  O  O13  1  0.16224200  0.15370700  0.90449400  1
  O  O14  1  0.46982300  0.03939900  0.14141100  1
  O  O15  1  0.68276900  0.15107900  0.90555100  1
loop_
_geom_bond_atom_site_label_1
_geom_bond_atom_site_label_2
_geom_bond_distance
_geom_bond_site_symmetry_2
Li0 O11 1.990138 1_555
Li0 O14 2.012483 1_565
Li0 O10 2.028808 1_655
Li0 O2 2.105720 1_554
Li1 O4 1.890005 1_555
Li1 O8 1.952506 1_554
Li1 O13 1.998730 1_564
Li1 O15 2.006181 1_464
Li2 O3 1.902826 1_465
Li2 O9 2.032625 1_465
Li2 O5 2.036355 1_455
Li2 O0 2.070317 1_555
Li3 O6 2.018233 1_555
Li3 O7 2.031037 1_455
Li3 O1 2.045744 1_545
Li3 O12 2.186591 1_555
Fe0 O3 2.024595 1_555
Fe0 O7 2.041872 1_555
Fe0 O6 2.043157 1_555
Fe0 O2 2.089438 1_555
Fe0 O15 2.105198 1_555
Fe0 O13 2.108788 1_655
Fe1 O4 1.998789 1_545
Fe1 O12 2.017183 1_555
Fe1 O10 2.057294 1_555
Fe1 O9 2.093202 1_455
Fe1 O0 2.112449 1_545
Fe1 O14 2.119882 1_555
Fe2 O4 2.066368 1_645
Fe2 O12 2.127004 1_555
Fe2 O5 2.146837 1_545
Fe2 O11 2.152619 1_555
Fe2 O9 2.184117 1_555
Fe2 O14 2.204636 1_555
O0 Te0 2.018485 1_555
O0 Ti2 2.208790 1_555
O1 Ti1 1.970061 1_555
O1 Ti0 1.983768 1_555
O1 Te0 2.592149 1_555
O2 Ti1 1.994477 1_555
O2 Ti0 2.013714 1_555
O3 Ti1 2.033316 1_545
O3 Ti0 2.039144 1_645
O4 Ti2 1.934448 1_555
O5 Te0 1.963275 1_555
O5 Ti2 2.248475 1_655
O6 Ti0 1.854014 1_555
O6 Te0 2.608301 1_555
O7 Ti1 1.873155 1_555
O7 Te0 2.538087 1_555
O8 Ti0 1.946537 1_555
O8 Ti1 1.959806 1_455
O8 Te1 2.471613 1_556
O9 Te0 1.986312 1_555
O10 Ti2 1.905843 1_555
O10 Te1 2.402043 1_555
O11 Ti2 1.848259 1_555
O11 Te1 2.400223 1_555
O12 Ti2 1.971172 1_555
O13 Te1 2.019264 1_556
O13 Ti0 2.199669 1_545
O14 Te1 1.999649 1_555
O15 Te1 2.031442 1_556
O15 Ti1 2.181533 1_545
