# generated using pymatgen
data_Mn6O5F7
_symmetry_space_group_name_H-M   'P 1'
_cell_length_a   4.69008011
_cell_length_b   5.74141327
_cell_length_c   15.67634771
_cell_angle_alpha   90.98491687
_cell_angle_beta   91.15114165
_cell_angle_gamma   88.32422445
_symmetry_Int_Tables_number   1
_chemical_formula_structural   Mn6O5F7
_chemical_formula_sum   'Mn12 O10 F14'
_cell_volume   421.80389391
_cell_formula_units_Z   2
loop_
 _symmetry_equiv_pos_site_id
 _symmetry_equiv_pos_as_xyz
  1  'x, y, z'
loop_
 _atom_site_type_symbol
 _atom_site_label
 _atom_site_symmetry_multiplicity
 _atom_site_fract_x
 _atom_site_fract_y
 _atom_site_fract_z
 _atom_site_occupancy
  Mn  Mn0  1  0.01540800  0.16642500  0.41794900  1
  Mn  Mn1  1  0.99817300  0.83572700  0.23683800  1
  Mn  Mn2  1  0.99939000  0.14882900  0.07553200  1
  Mn  Mn3  1  0.03344500  0.16019600  0.75688200  1
  Mn  Mn4  1  0.03992500  0.83734100  0.58005000  1
  Mn  Mn5  1  0.01169400  0.85902300  0.91275500  1
  Mn  Mn6  1  0.48618400  0.35703300  0.58137300  1
  Mn  Mn7  1  0.47879700  0.33504200  0.92245100  1
  Mn  Mn8  1  0.52823900  0.35796600  0.25529300  1
  Mn  Mn9  1  0.50288600  0.64485300  0.08855300  1
  Mn  Mn10  1  0.48851000  0.64674600  0.42009100  1
  Mn  Mn11  1  0.46874000  0.65334300  0.75274200  1
  O  O0  1  0.20391600  0.10891300  0.97088000  1
  O  O1  1  0.21420900  0.87860200  0.13171600  1
  O  O2  1  0.23116500  0.88533200  0.47245000  1
  O  O3  1  0.22105700  0.89779800  0.81054000  1
  O  O4  1  0.27485500  0.39002200  0.47510200  1
  O  O5  1  0.28513400  0.61093000  0.63686500  1
  O  O6  1  0.27662300  0.38696600  0.81487600  1
  O  O7  1  0.70922400  0.37454100  0.02838700  1
  O  O8  1  0.71595500  0.61829000  0.19536500  1
  O  O9  1  0.72669300  0.39506800  0.36524700  1
  F  F0  1  0.23618500  0.10813300  0.29743900  1
  F  F1  1  0.25543100  0.11056700  0.64290700  1
  F  F2  1  0.25902600  0.37755800  0.15057900  1
  F  F3  1  0.24778800  0.61528900  0.30919600  1
  F  F4  1  0.26249500  0.60966800  0.98012100  1
  F  F5  1  0.74613800  0.61555700  0.52840300  1
  F  F6  1  0.74084000  0.62849100  0.86109900  1
  F  F7  1  0.74685600  0.37811100  0.69413900  1
  F  F8  1  0.76525000  0.11918100  0.18165200  1
  F  F9  1  0.76757900  0.11200200  0.53530900  1
  F  F10  1  0.76898900  0.89732400  0.35554600  1
  F  F11  1  0.75481900  0.86840500  0.01283700  1
  F  F12  1  0.74190600  0.12522800  0.85741300  1
  F  F13  1  0.79647800  0.88550100  0.69142400  1
loop_
_geom_bond_atom_site_label_1
_geom_bond_atom_site_label_2
_geom_bond_distance
_geom_bond_site_symmetry_2
Mn0 O4 1.984807 1_555
Mn0 O9 2.031695 1_455
Mn0 O2 2.067768 1_545
Mn1 O8 1.940961 1_555
Mn1 O1 1.974466 1_655
Mn2 O0 1.923943 1_654
Mn2 O7 1.991734 1_555
Mn2 O1 2.029245 1_645
Mn3 O3 1.920351 1_545
Mn3 O6 1.956264 1_555
Mn4 O5 1.927920 1_555
Mn4 O2 1.953673 1_555
Mn5 O3 1.915611 1_555
Mn5 O0 1.923320 1_565
Mn6 O5 1.918287 1_555
Mn6 O4 1.930579 1_555
Mn7 O6 1.941229 1_555
Mn7 O7 1.976500 1_556
Mn7 O0 2.023643 1_555
Mn8 O9 1.953785 1_555
Mn8 O8 2.012476 1_555
Mn9 O8 1.938609 1_555
Mn9 O1 1.997836 1_555
Mn9 O7 2.033039 1_555
Mn10 O2 1.977712 1_555
Mn10 O9 1.994127 1_555
Mn10 O4 2.021179 1_555
Mn11 O5 2.008685 1_555
Mn11 O3 2.010836 1_555
Mn11 O6 2.065600 1_555
F0 Mn8 2.134033 1_555
F0 Mn1 2.145489 1_445
F0 Mn0 2.188538 1_555
F1 Mn6 2.069449 1_555
F1 Mn3 2.096992 1_555
F1 Mn4 2.110202 1_545
F2 Mn8 2.053359 1_555
F2 Mn2 2.138764 1_455
F2 Mn9 2.192566 1_555
F3 Mn1 2.041660 1_455
F3 Mn10 2.061960 1_555
F3 Mn8 2.124836 1_555
F4 Mn9 2.031219 1_556
F4 Mn7 2.055937 1_555
F4 Mn5 2.109992 1_555
F5 Mn4 2.048867 1_655
F5 Mn10 2.071328 1_555
F5 Mn6 2.137289 1_555
F6 Mn5 2.010346 1_655
F6 Mn11 2.108302 1_555
F6 Mn7 2.344858 1_555
F7 Mn3 2.056766 1_655
F7 Mn6 2.132783 1_555
F7 Mn11 2.218148 1_555
F8 Mn2 2.023963 1_555
F8 Mn8 2.087081 1_555
F8 Mn1 2.120563 1_545
F9 Mn6 2.034001 1_555
F9 Mn4 2.120012 1_645
F9 Mn0 2.227188 1_655
F10 Mn0 2.164904 1_665
F10 Mn1 2.186082 1_555
F10 Mn10 2.244604 1_555
F11 Mn5 1.996275 1_654
F11 Mn9 2.156341 1_555
F11 Mn2 2.209572 1_565
F12 Mn7 1.983627 1_555
F12 Mn3 2.122991 1_655
F12 Mn5 2.139642 1_645
F13 Mn4 2.115057 1_655
F13 Mn3 2.185540 1_665
F13 Mn11 2.299266 1_555
