# generated using pymatgen
data_La4Al2O9
_symmetry_space_group_name_H-M   'P 1'
_cell_length_a   11.13643900
_cell_length_b   7.95169700
_cell_length_c   11.60357701
_cell_angle_alpha   70.53224120
_cell_angle_beta   90.00000000
_cell_angle_gamma   90.00000000
_symmetry_Int_Tables_number   1
_chemical_formula_structural   La4Al2O9
_chemical_formula_sum   'La16 Al8 O36'
_cell_volume   968.79317288
_cell_formula_units_Z   4
loop_
 _symmetry_equiv_pos_site_id
 _symmetry_equiv_pos_as_xyz
  1  'x, y, z'
loop_
 _atom_site_type_symbol
 _atom_site_label
 _atom_site_symmetry_multiplicity
 _atom_site_fract_x
 _atom_site_fract_y
 _atom_site_fract_z
 _atom_site_occupancy
  La  La0  1  0.91230000  0.97428800  0.80973100  1
  La  La1  1  0.58770000  0.97428800  0.30973100  1
  La  La2  1  0.12422500  0.83703700  0.58383900  1
  La  La3  1  0.62528100  0.66503200  0.92950300  1
  La  La4  1  0.37577500  0.83703700  0.08383900  1
  La  La5  1  0.87471900  0.66503200  0.42950300  1
  La  La6  1  0.39943700  0.52453600  0.70983000  1
  La  La7  1  0.89943700  0.47546400  0.79017000  1
  La  La8  1  0.10056300  0.52453600  0.20983000  1
  La  La9  1  0.60056300  0.47546400  0.29017000  1
  La  La10  1  0.12528100  0.33496800  0.57049700  1
  La  La11  1  0.62422500  0.16296300  0.91616100  1
  La  La12  1  0.37471900  0.33496800  0.07049700  1
  La  La13  1  0.87577500  0.16296300  0.41616100  1
  La  La14  1  0.41230000  0.02571200  0.69026900  1
  La  La15  1  0.08770000  0.02571200  0.19026900  1
  Al  Al0  1  0.68824500  0.77459000  0.62885500  1
  Al  Al1  1  0.18612900  0.64937800  0.88131900  1
  Al  Al2  1  0.81175500  0.77459000  0.12885500  1
  Al  Al3  1  0.31387100  0.64937800  0.38131900  1
  Al  Al4  1  0.68612900  0.35062200  0.61868100  1
  Al  Al5  1  0.18824500  0.22541000  0.87114500  1
  Al  Al6  1  0.81387100  0.35062200  0.11868100  1
  Al  Al7  1  0.31175500  0.22541000  0.37114500  1
  O  O0  1  0.76651900  0.91951500  0.98368500  1
  O  O1  1  0.49717400  0.92357200  0.89379600  1
  O  O2  1  0.73348100  0.91951500  0.48368500  1
  O  O3  1  0.27414200  0.78246100  0.75505800  1
  O  O4  1  0.77237900  0.76944300  0.76163200  1
  O  O5  1  0.00282600  0.92357200  0.39379600  1
  O  O6  1  0.53423900  0.78274400  0.66437500  1
  O  O7  1  0.03472000  0.69863500  0.83274100  1
  O  O8  1  0.22585800  0.78246100  0.25505800  1
  O  O9  1  0.72762100  0.76944300  0.26163200  1
  O  O10  1  0.27131200  0.63851400  0.53109700  1
  O  O11  1  0.96576100  0.78274400  0.16437500  1
  O  O12  1  0.73561400  0.56574400  0.61748100  1
  O  O13  1  0.46528000  0.69863500  0.33274100  1
  O  O14  1  0.50702000  0.43216600  0.89613900  1
  O  O15  1  0.00702000  0.56783400  0.60386100  1
  O  O16  1  0.23561400  0.43425600  0.88251900  1
  O  O17  1  0.77131200  0.36148600  0.96890300  1
  O  O18  1  0.22868800  0.63851400  0.03109700  1
  O  O19  1  0.76438600  0.56574400  0.11748100  1
  O  O20  1  0.99298000  0.43216600  0.39613900  1
  O  O21  1  0.49298000  0.56783400  0.10386100  1
  O  O22  1  0.53472000  0.30136500  0.66725900  1
  O  O23  1  0.26438600  0.43425600  0.38251900  1
  O  O24  1  0.03423900  0.21725600  0.83562500  1
  O  O25  1  0.72868800  0.36148600  0.46890300  1
  O  O26  1  0.27237900  0.23055700  0.73836800  1
  O  O27  1  0.77414200  0.21753900  0.74494200  1
  O  O28  1  0.96528000  0.30136500  0.16725900  1
  O  O29  1  0.46576100  0.21725600  0.33562500  1
  O  O30  1  0.99717400  0.07642800  0.60620400  1
  O  O31  1  0.22762100  0.23055700  0.23836800  1
  O  O32  1  0.72585800  0.21753900  0.24494200  1
  O  O33  1  0.26651900  0.08048500  0.51631500  1
  O  O34  1  0.50282600  0.07642800  0.10620400  1
  O  O35  1  0.23348100  0.08048500  0.01631500  1
loop_
_geom_bond_atom_site_label_1
_geom_bond_atom_site_label_2
_geom_bond_distance
_geom_bond_site_symmetry_2
La0 O27 2.388414 1_565
La0 O30 2.419065 1_565
La0 O4 2.449229 1_555
La0 O24 2.460475 1_665
La0 O0 2.512707 1_555
La0 O7 2.518792 1_655
La1 O32 2.388414 1_565
La1 O34 2.419065 1_565
La1 O9 2.449229 1_555
La1 O29 2.460475 1_565
La1 O2 2.512707 1_555
La1 O13 2.518792 1_555
La2 O33 2.421040 1_565
La2 O15 2.451205 1_555
La2 O30 2.454000 1_465
La2 O5 2.480454 1_555
La2 O10 2.488690 1_555
La2 O3 2.519561 1_555
La2 O7 2.903016 1_555
La3 O14 2.406435 1_555
La3 O21 2.412284 1_556
La3 O1 2.421920 1_555
La3 O4 2.467629 1_555
La3 O19 2.575458 1_556
La3 O0 2.795013 1_555
La3 O17 2.818544 1_555
La3 O6 3.073944 1_555
La4 O35 2.421040 1_565
La4 O21 2.451205 1_555
La4 O34 2.454000 1_565
La4 O1 2.480454 1_554
La4 O18 2.488690 1_555
La4 O8 2.519561 1_555
La4 O13 2.903016 1_555
La5 O20 2.406435 1_555
La5 O15 2.412284 1_655
La5 O5 2.421920 1_655
La5 O9 2.467629 1_555
La5 O12 2.575458 1_555
La5 O2 2.795013 1_555
La5 O25 2.818544 1_555
La5 O11 3.073944 1_555
La6 O14 2.364341 1_555
La6 O10 2.430161 1_555
La6 O6 2.454710 1_555
La6 O22 2.499447 1_555
La6 O16 2.626828 1_555
La6 O26 2.657133 1_555
La6 O3 2.673238 1_555
La7 O15 2.364341 1_655
La7 O17 2.430161 1_555
La7 O24 2.454710 1_655
La7 O7 2.499447 1_655
La7 O12 2.626828 1_555
La7 O4 2.657133 1_555
La7 O27 2.673238 1_555
La8 O20 2.364341 1_455
La8 O18 2.430161 1_555
La8 O11 2.454710 1_455
La8 O28 2.499447 1_455
La8 O23 2.626828 1_555
La8 O31 2.657133 1_555
La8 O8 2.673238 1_555
La9 O21 2.364341 1_555
La9 O25 2.430161 1_555
La9 O29 2.454710 1_555
La9 O13 2.499447 1_555
La9 O19 2.626828 1_555
La9 O9 2.657133 1_555
La9 O32 2.673238 1_555
La10 O15 2.406435 1_555
La10 O20 2.412284 1_455
La10 O30 2.421920 1_455
La10 O26 2.467629 1_555
La10 O23 2.575458 1_555
La10 O33 2.795013 1_555
La10 O10 2.818544 1_555
La10 O24 3.073944 1_555
La11 O0 2.421040 1_545
La11 O14 2.451205 1_555
La11 O1 2.454000 1_545
La11 O34 2.480454 1_556
La11 O17 2.488690 1_555
La11 O27 2.519561 1_555
La11 O22 2.903016 1_555
La12 O21 2.406435 1_555
La12 O14 2.412284 1_554
La12 O34 2.421920 1_555
La12 O31 2.467629 1_555
La12 O16 2.575458 1_554
La12 O35 2.795013 1_555
La12 O18 2.818544 1_555
La12 O29 3.073944 1_555
La13 O2 2.421040 1_545
La13 O20 2.451205 1_555
La13 O5 2.454000 1_645
La13 O30 2.480454 1_555
La13 O25 2.488690 1_555
La13 O32 2.519561 1_555
La13 O28 2.903016 1_555
La14 O3 2.388414 1_545
La14 O1 2.419065 1_545
La14 O26 2.449229 1_555
La14 O6 2.460475 1_545
La14 O33 2.512707 1_555
La14 O22 2.518792 1_555
La15 O8 2.388414 1_545
La15 O5 2.419065 1_545
La15 O31 2.449229 1_555
La15 O11 2.460475 1_445
La15 O35 2.512707 1_555
La15 O28 2.518792 1_455
Al0 O2 1.767880 1_555
Al0 O6 1.770137 1_555
Al0 O12 1.788756 1_555
Al0 O4 1.791995 1_555
Al1 O18 1.775536 1_556
Al1 O7 1.779637 1_555
Al1 O3 1.787063 1_555
Al1 O16 1.792795 1_555
Al2 O0 1.767880 1_554
Al2 O11 1.770137 1_555
Al2 O19 1.788756 1_555
Al2 O9 1.791995 1_555
Al3 O10 1.775536 1_555
Al3 O13 1.779637 1_555
Al3 O8 1.787063 1_555
Al3 O23 1.792795 1_555
Al4 O25 1.775536 1_555
Al4 O22 1.779637 1_555
Al4 O27 1.787063 1_555
Al4 O12 1.792795 1_555
Al5 O35 1.767880 1_556
Al5 O24 1.770137 1_555
Al5 O16 1.788756 1_555
Al5 O26 1.791995 1_555
Al6 O17 1.775536 1_554
Al6 O28 1.779637 1_555
Al6 O32 1.787063 1_555
Al6 O19 1.792795 1_555
Al7 O33 1.767880 1_555
Al7 O29 1.770137 1_555
Al7 O23 1.788756 1_555
Al7 O31 1.791995 1_555
