# generated using pymatgen
data_K6BiH3(Cl2F)4
_symmetry_space_group_name_H-M   'P 1'
_cell_length_a   9.25259584
_cell_length_b   9.25259584
_cell_length_c   14.66797600
_cell_angle_alpha   90.00000000
_cell_angle_beta   90.00000000
_cell_angle_gamma   119.99999884
_symmetry_Int_Tables_number   1
_chemical_formula_structural   K6BiH3(Cl2F)4
_chemical_formula_sum   'K12 Bi2 H6 Cl16 F8'
_cell_volume   1087.49686047
_cell_formula_units_Z   2
loop_
 _symmetry_equiv_pos_site_id
 _symmetry_equiv_pos_as_xyz
  1  'x, y, z'
loop_
 _atom_site_type_symbol
 _atom_site_label
 _atom_site_symmetry_multiplicity
 _atom_site_fract_x
 _atom_site_fract_y
 _atom_site_fract_z
 _atom_site_occupancy
  K  K0  1  0.50000000  0.50000000  0.50000000  1
  K  K1  1  0.50000000  0.00000000  0.50000000  1
  K  K2  1  0.00000000  0.50000000  0.50000000  1
  K  K3  1  0.50000000  0.50000000  0.00000000  1
  K  K4  1  0.50000000  0.00000000  0.00000000  1
  K  K5  1  0.00000000  0.50000000  0.00000000  1
  K  K6  1  0.17890400  0.35780800  0.25000000  1
  K  K7  1  0.64219200  0.82109600  0.25000000  1
  K  K8  1  0.17890400  0.82109600  0.25000000  1
  K  K9  1  0.82109600  0.64219200  0.75000000  1
  K  K10  1  0.35780800  0.17890400  0.75000000  1
  K  K11  1  0.82109600  0.17890400  0.75000000  1
  Bi  Bi0  1  0.00000000  0.00000000  0.50000000  1
  Bi  Bi1  1  0.00000000  0.00000000  0.00000000  1
  H  H0  1  0.42169500  0.84339100  0.75000000  1
  H  H1  1  0.15660900  0.57830500  0.75000000  1
  H  H2  1  0.42169500  0.57830500  0.75000000  1
  H  H3  1  0.57830500  0.15660900  0.25000000  1
  H  H4  1  0.84339100  0.42169500  0.25000000  1
  H  H5  1  0.57830500  0.42169500  0.25000000  1
  Cl  Cl0  1  0.13989200  0.86010800  0.89264500  1
  Cl  Cl1  1  0.13989200  0.27978300  0.89264500  1
  Cl  Cl2  1  0.72021700  0.86010800  0.89264500  1
  Cl  Cl3  1  0.86010800  0.13989200  0.10735500  1
  Cl  Cl4  1  0.86010800  0.72021700  0.10735500  1
  Cl  Cl5  1  0.27978300  0.13989200  0.10735500  1
  Cl  Cl6  1  0.86010800  0.13989200  0.39264500  1
  Cl  Cl7  1  0.86010800  0.72021700  0.39264500  1
  Cl  Cl8  1  0.27978300  0.13989200  0.39264500  1
  Cl  Cl9  1  0.13989200  0.86010800  0.60735500  1
  Cl  Cl10  1  0.13989200  0.27978300  0.60735500  1
  Cl  Cl11  1  0.72021700  0.86010800  0.60735500  1
  Cl  Cl12  1  0.33333300  0.66666700  0.10651000  1
  Cl  Cl13  1  0.66666700  0.33333300  0.89349000  1
  Cl  Cl14  1  0.66666700  0.33333300  0.60651000  1
  Cl  Cl15  1  0.33333300  0.66666700  0.39349000  1
  F  F0  1  0.33333300  0.66666700  0.75000000  1
  F  F1  1  0.66666700  0.33333300  0.25000000  1
  F  F2  1  0.48439200  0.96878500  0.75000000  1
  F  F3  1  0.03121500  0.51560800  0.75000000  1
  F  F4  1  0.48439200  0.51560800  0.75000000  1
  F  F5  1  0.51560800  0.03121500  0.25000000  1
  F  F6  1  0.96878500  0.48439200  0.25000000  1
  F  F7  1  0.51560800  0.48439200  0.25000000  1
loop_
_geom_bond_atom_site_label_1
_geom_bond_atom_site_label_2
_geom_bond_distance
_geom_bond_site_symmetry_2
Bi0 Cl10 2.739657 1_555
Bi0 Cl11 2.739657 1_445
Bi0 Cl7 2.739657 1_445
Bi0 Cl8 2.739657 1_555
Bi0 Cl9 2.739663 1_545
Bi0 Cl6 2.739663 1_455
Bi1 Cl4 2.739657 1_445
Bi1 Cl5 2.739657 1_555
Bi1 Cl1 2.739657 1_554
Bi1 Cl2 2.739657 1_444
Bi1 Cl3 2.739663 1_455
Bi1 Cl0 2.739663 1_544
Cl0 K4 3.308178 1_566
Cl0 K5 3.308178 1_556
Cl0 K10 3.346109 1_565
Cl0 K9 3.346109 1_455
Cl1 K3 3.308180 1_556
Cl1 K5 3.308186 1_556
Cl1 K10 3.346103 1_555
Cl1 K11 3.346110 1_455
Cl2 K3 3.308180 1_556
Cl2 K4 3.308186 1_566
Cl2 K9 3.346103 1_555
Cl2 K11 3.346110 1_565
Cl3 K5 3.308178 1_655
Cl3 K4 3.308178 1_555
Cl3 K6 3.346109 1_655
Cl3 K7 3.346109 1_545
Cl4 K3 3.308180 1_555
Cl4 K5 3.308186 1_655
Cl4 K7 3.346103 1_555
Cl4 K8 3.346110 1_655
Cl5 K3 3.308180 1_555
Cl5 K4 3.308186 1_555
Cl5 K6 3.346103 1_555
Cl5 K8 3.346110 1_545
Cl6 K2 3.308178 1_655
Cl6 K1 3.308178 1_555
Cl6 K6 3.346109 1_655
Cl6 K7 3.346109 1_545
Cl7 K0 3.308180 1_555
Cl7 K2 3.308186 1_655
Cl7 K7 3.346103 1_555
Cl7 K8 3.346110 1_655
Cl8 K0 3.308180 1_555
Cl8 K1 3.308186 1_555
Cl8 K6 3.346103 1_555
Cl8 K8 3.346110 1_545
Cl9 K1 3.308178 1_565
Cl9 K2 3.308178 1_555
Cl9 K10 3.346109 1_565
Cl9 K9 3.346109 1_455
Cl10 K0 3.308180 1_555
Cl10 K2 3.308186 1_555
Cl10 K10 3.346103 1_555
Cl10 K11 3.346110 1_455
Cl11 K0 3.308180 1_555
Cl11 K1 3.308186 1_565
Cl11 K9 3.346103 1_555
Cl11 K11 3.346110 1_565
Cl12 K4 3.094339 1_565
Cl12 K5 3.094339 1_555
Cl12 K3 3.094346 1_555
Cl12 K8 3.248815 1_555
Cl12 K7 3.248821 1_555
Cl12 K6 3.248821 1_555
Cl13 K5 3.094339 1_656
Cl13 K4 3.094339 1_556
Cl13 K3 3.094346 1_556
Cl13 K11 3.248815 1_555
Cl13 K9 3.248821 1_555
Cl13 K10 3.248821 1_555
Cl14 K2 3.094339 1_655
Cl14 K1 3.094339 1_555
Cl14 K0 3.094346 1_555
Cl14 K11 3.248815 1_555
Cl14 K9 3.248821 1_555
Cl14 K10 3.248821 1_555
Cl15 K2 3.094339 1_555
Cl15 K1 3.094339 1_565
Cl15 K0 3.094346 1_555
Cl15 K8 3.248815 1_555
Cl15 K7 3.248821 1_555
Cl15 K6 3.248821 1_555
F0 H2 1.416086 1_555
F0 H0 1.416086 1_555
F0 H1 1.416086 1_555
F1 H5 1.416086 1_555
F1 H4 1.416086 1_555
F1 H3 1.416086 1_555
F2 H0 1.004780 1_555
F2 K10 2.725533 1_565
F2 K11 2.725540 1_565
F3 H1 1.004780 1_555
F3 K9 2.725533 1_455
F3 K11 2.725540 1_455
F4 H2 1.004780 1_555
F4 K9 2.725541 1_555
F4 K10 2.725541 1_555
F5 H3 1.004780 1_555
F5 K7 2.725533 1_545
F5 K8 2.725540 1_545
F6 H4 1.004780 1_555
F6 K6 2.725533 1_655
F6 K8 2.725540 1_655
F7 H5 1.004780 1_555
F7 K7 2.725541 1_555
F7 K6 2.725541 1_555
