# generated using pymatgen
data_Li4Mn3Nb3(SnO8)2
_symmetry_space_group_name_H-M   'P 1'
_cell_length_a   6.28912875
_cell_length_b   6.28912875
_cell_length_c   10.07127244
_cell_angle_alpha   88.67355266
_cell_angle_beta   88.67355266
_cell_angle_gamma   58.38649117
_symmetry_Int_Tables_number   1
_chemical_formula_structural   Li4Mn3Nb3(SnO8)2
_chemical_formula_sum   'Li4 Mn3 Nb3 Sn2 O16'
_cell_volume   339.11729979
_cell_formula_units_Z   1
loop_
 _symmetry_equiv_pos_site_id
 _symmetry_equiv_pos_as_xyz
  1  'x, y, z'
loop_
 _atom_site_type_symbol
 _atom_site_label
 _atom_site_symmetry_multiplicity
 _atom_site_fract_x
 _atom_site_fract_y
 _atom_site_fract_z
 _atom_site_occupancy
  Li  Li0  1  0.67113400  0.67113400  0.90795500  1
  Li  Li1  1  0.00259200  0.00259200  0.99627300  1
  Li  Li2  1  0.00467100  0.00467100  0.48340500  1
  Li  Li3  1  0.34479500  0.34479500  0.39273700  1
  Mn  Mn0  1  0.82928800  0.34034800  0.21072600  1
  Mn  Mn1  1  0.34034800  0.82928800  0.21072600  1
  Mn  Mn2  1  0.16650200  0.16650200  0.71404300  1
  Nb  Nb0  1  0.82936300  0.82936300  0.21679800  1
  Nb  Nb1  1  0.65824600  0.16619000  0.71303000  1
  Nb  Nb2  1  0.16619000  0.65824600  0.71303000  1
  Sn  Sn0  1  0.65939800  0.65939800  0.48192100  1
  Sn  Sn1  1  0.32471200  0.32471200  0.99905900  1
  O  O0  1  0.81753400  0.32345200  0.60021200  1
  O  O1  1  0.52259600  0.52259600  0.34986900  1
  O  O2  1  0.68644300  0.68644300  0.10198400  1
  O  O3  1  0.98898500  0.98898500  0.30337100  1
  O  O4  1  0.99353800  0.99353800  0.81283900  1
  O  O5  1  0.32345200  0.81753400  0.60021200  1
  O  O6  1  0.97017800  0.53618100  0.34859900  1
  O  O7  1  0.53618100  0.97017800  0.34859900  1
  O  O8  1  0.15791500  0.15791500  0.08440500  1
  O  O9  1  0.82959900  0.82959900  0.60418500  1
  O  O10  1  0.49904500  0.04328000  0.83954600  1
  O  O11  1  0.04328000  0.49904500  0.83954600  1
  O  O12  1  0.33959300  0.33959300  0.59950300  1
  O  O13  1  0.66213600  0.15291600  0.09744700  1
  O  O14  1  0.48047000  0.48047000  0.84038900  1
  O  O15  1  0.15291600  0.66213600  0.09744700  1
loop_
_geom_bond_atom_site_label_1
_geom_bond_atom_site_label_2
_geom_bond_distance
_geom_bond_site_symmetry_2
Li0 O2 1.965772 1_556
Li0 O10 2.104307 1_565
Li0 O11 2.104307 1_655
Li0 O14 2.218503 1_555
Li1 O4 1.852718 1_445
Li1 O8 1.943442 1_556
Li1 O15 2.082801 1_546
Li1 O13 2.082801 1_456
Li2 O3 1.825875 1_445
Li2 O5 2.088035 1_545
Li2 O0 2.088035 1_455
Li2 O9 2.247490 1_445
Li3 O1 1.988312 1_555
Li3 O6 2.061044 1_455
Li3 O7 2.061044 1_545
Li3 O12 2.081665 1_555
Mn0 O3 2.093697 1_545
Mn0 O1 2.151597 1_555
Mn0 O2 2.151600 1_555
Mn0 O8 2.160168 1_655
Mn0 O13 2.283227 1_555
Mn0 O6 2.347412 1_555
Mn1 O3 2.093697 1_455
Mn1 O1 2.151597 1_555
Mn1 O2 2.151600 1_555
Mn1 O8 2.160168 1_565
Mn1 O15 2.283227 1_555
Mn1 O7 2.347412 1_555
Mn2 O4 2.120596 1_445
Mn2 O12 2.197009 1_555
Mn2 O5 2.213209 1_545
Mn2 O0 2.213209 1_455
Mn2 O11 2.224872 1_555
Mn2 O10 2.224872 1_555
Nb0 O2 1.973868 1_555
Nb0 O3 1.978219 1_555
Nb0 O7 2.043356 1_555
Nb0 O6 2.043356 1_555
Nb0 O13 2.096018 1_565
Nb0 O15 2.096018 1_655
Nb1 O10 1.982486 1_555
Nb1 O0 2.051042 1_555
Nb1 O12 2.066376 1_555
Nb1 O4 2.069592 1_545
Nb1 O9 2.122561 1_545
Nb1 O14 2.129839 1_555
Nb2 O11 1.982486 1_555
Nb2 O5 2.051042 1_555
Nb2 O12 2.066376 1_555
Nb2 O4 2.069592 1_455
Nb2 O9 2.122561 1_455
Nb2 O14 2.129839 1_555
O0 Sn0 2.146570 1_555
O1 Sn0 2.032526 1_555
O5 Sn0 2.146570 1_555
O6 Sn0 2.135978 1_555
O7 Sn0 2.135978 1_555
O8 Sn1 2.002450 1_554
O9 Sn0 2.265188 1_555
O10 Sn1 2.220661 1_555
O11 Sn1 2.220661 1_555
O13 Sn1 2.072827 1_554
O14 Sn1 2.309512 1_555
O15 Sn1 2.072827 1_554
