# generated using pymatgen
data_Ba5La3I19
_symmetry_space_group_name_H-M   'P 1'
_cell_length_a   12.04978800
_cell_length_b   15.31833445
_cell_length_c   16.01435274
_cell_angle_alpha   88.66979577
_cell_angle_beta   104.86799910
_cell_angle_gamma   96.86788855
_symmetry_Int_Tables_number   1
_chemical_formula_structural   Ba5La3I19
_chemical_formula_sum   'Ba10 La6 I38'
_cell_volume   2836.41857108
_cell_formula_units_Z   2
loop_
 _symmetry_equiv_pos_site_id
 _symmetry_equiv_pos_as_xyz
  1  'x, y, z'
loop_
 _atom_site_type_symbol
 _atom_site_label
 _atom_site_symmetry_multiplicity
 _atom_site_fract_x
 _atom_site_fract_y
 _atom_site_fract_z
 _atom_site_occupancy
  Ba  Ba0  1  0.63861700  0.29445500  0.83656900  1
  Ba  Ba1  1  0.89948500  0.14035200  0.65439600  1
  Ba  Ba2  1  0.71437600  0.65289000  0.78882300  1
  Ba  Ba3  1  0.82479400  0.19028600  0.26219800  1
  Ba  Ba4  1  0.65299900  0.41341300  0.43045600  1
  Ba  Ba5  1  0.34700100  0.58658700  0.56954400  1
  Ba  Ba6  1  0.17520600  0.80971400  0.73780200  1
  Ba  Ba7  1  0.28562400  0.34711000  0.21117700  1
  Ba  Ba8  1  0.10051500  0.85964800  0.34560400  1
  Ba  Ba9  1  0.36138300  0.70554500  0.16343100  1
  La  La0  1  0.16713200  0.46754500  0.82212000  1
  La  La1  1  0.33377900  0.17601100  0.48907000  1
  La  La2  1  0.25460600  0.00519100  0.01243100  1
  La  La3  1  0.74539400  0.99480900  0.98756900  1
  La  La4  1  0.66622100  0.82398900  0.51093000  1
  La  La5  1  0.83286800  0.53245500  0.17788000  1
  I  I0  1  0.50000000  0.00000000  0.00000000  1
  I  I1  1  0.00000000  0.00000000  0.00000000  1
  I  I2  1  0.69971600  0.07260400  0.79575900  1
  I  I3  1  0.18239600  0.02945800  0.80731900  1
  I  I4  1  0.94318300  0.31595400  0.81238700  1
  I  I5  1  0.35106500  0.33724400  0.84946600  1
  I  I6  1  0.69897400  0.02696600  0.47992100  1
  I  I7  1  0.24791500  0.50807900  0.03285000  1
  I  I8  1  0.17766600  0.19588600  0.61149900  1
  I  I9  1  0.59811000  0.23890000  0.60522500  1
  I  I10  1  0.55166800  0.46447100  0.70329500  1
  I  I11  1  0.11247400  0.13159700  0.32570100  1
  I  I12  1  0.10739400  0.45965400  0.62274900  1
  I  I13  1  0.47267400  0.20477200  0.33897400  1
  I  I14  1  0.99842900  0.62562600  0.79802600  1
  I  I15  1  0.86470800  0.27319800  0.46705100  1
  I  I16  1  0.35018400  0.63201200  0.79368800  1
  I  I17  1  0.67852100  0.79815400  0.93562000  1
  I  I18  1  0.23181700  0.79861100  0.96472800  1
  I  I19  1  0.32267000  0.38207900  0.45084100  1
  I  I20  1  0.67733000  0.61792100  0.54915900  1
  I  I21  1  0.76818300  0.20138900  0.03527200  1
  I  I22  1  0.32147900  0.20184600  0.06438000  1
  I  I23  1  0.64981600  0.36798800  0.20631200  1
  I  I24  1  0.13529200  0.72680200  0.53294900  1
  I  I25  1  0.00157100  0.37437400  0.20197400  1
  I  I26  1  0.52732600  0.79522800  0.66102600  1
  I  I27  1  0.89260600  0.54034600  0.37725100  1
  I  I28  1  0.88752600  0.86840300  0.67429900  1
  I  I29  1  0.44833200  0.53552900  0.29670500  1
  I  I30  1  0.40189000  0.76110000  0.39477500  1
  I  I31  1  0.82233400  0.80411400  0.38850100  1
  I  I32  1  0.75208500  0.49192100  0.96715000  1
  I  I33  1  0.30102600  0.97303400  0.52007900  1
  I  I34  1  0.64893500  0.66275600  0.15053400  1
  I  I35  1  0.05681700  0.68404600  0.18761300  1
  I  I36  1  0.81760400  0.97054200  0.19268100  1
  I  I37  1  0.30028400  0.92739600  0.20424100  1
loop_
_geom_bond_atom_site_label_1
_geom_bond_atom_site_label_2
_geom_bond_distance
_geom_bond_site_symmetry_2
Ba0 I10 3.417980 1_555
Ba0 I21 3.516786 1_556
Ba0 I32 3.637224 1_555
Ba0 I5 3.659890 1_555
Ba0 I2 3.669689 1_555
Ba0 I9 3.715806 1_555
Ba0 I4 3.763161 1_555
Ba1 I6 3.524006 1_555
Ba1 I15 3.548701 1_555
Ba1 I8 3.592251 1_655
Ba1 I4 3.634290 1_555
Ba1 I2 3.753198 1_555
Ba1 I9 3.984365 1_555
Ba1 I28 4.158683 1_545
Ba1 I3 4.172756 1_655
Ba2 I10 3.391542 1_555
Ba2 I17 3.414493 1_555
Ba2 I14 3.462903 1_555
Ba2 I26 3.552972 1_555
Ba2 I32 3.703669 1_555
Ba2 I20 3.791565 1_555
Ba3 I15 3.441556 1_555
Ba3 I21 3.525282 1_555
Ba3 I36 3.554199 1_545
Ba3 I11 3.571093 1_655
Ba3 I25 3.593185 1_655
Ba3 I23 3.598263 1_555
Ba4 I15 3.456785 1_555
Ba4 I29 3.517900 1_555
Ba4 I27 3.561683 1_555
Ba4 I20 3.644769 1_555
Ba4 I23 3.661864 1_555
Ba4 I13 3.742353 1_555
Ba4 I9 3.949279 1_555
Ba4 I19 4.047609 1_555
Ba5 I24 3.456785 1_555
Ba5 I10 3.517900 1_555
Ba5 I12 3.561683 1_555
Ba5 I19 3.644769 1_555
Ba5 I16 3.661864 1_555
Ba5 I26 3.742353 1_555
Ba5 I30 3.949279 1_555
Ba5 I20 4.047609 1_555
Ba6 I24 3.441556 1_555
Ba6 I18 3.525282 1_555
Ba6 I3 3.554199 1_565
Ba6 I28 3.571093 1_455
Ba6 I14 3.593185 1_455
Ba6 I16 3.598263 1_555
Ba7 I29 3.391542 1_555
Ba7 I22 3.414493 1_555
Ba7 I25 3.462903 1_555
Ba7 I13 3.552972 1_555
Ba7 I7 3.703669 1_555
Ba7 I19 3.791565 1_555
Ba8 I33 3.524006 1_555
Ba8 I24 3.548701 1_555
Ba8 I31 3.592251 1_455
Ba8 I35 3.634290 1_555
Ba8 I37 3.753198 1_555
Ba8 I30 3.984365 1_555
Ba8 I11 4.158683 1_565
Ba8 I36 4.172756 1_455
Ba9 I29 3.417980 1_555
Ba9 I18 3.516786 1_554
Ba9 I7 3.637224 1_555
Ba9 I34 3.659890 1_555
Ba9 I37 3.669689 1_555
Ba9 I30 3.715806 1_555
Ba9 I35 3.763161 1_555
I0 La2 3.024655 1_555
I0 La3 3.024655 1_544
I1 La3 3.014502 1_444
I1 La2 3.014502 1_555
I2 La3 3.205896 1_545
I3 La2 3.199797 1_556
I4 La0 3.316767 1_655
I5 La0 3.099568 1_555
I6 La4 3.131346 1_545
I7 La0 3.314910 1_554
I8 La1 3.087520 1_555
I9 La1 3.292733 1_555
I11 La1 3.238395 1_555
I12 La0 3.089400 1_555
I13 La1 3.257600 1_555
I14 La0 3.297958 1_655
I16 La0 3.248521 1_555
I17 La3 3.099666 1_555
I18 La2 3.235672 1_566
I19 La1 3.213447 1_555
I20 La4 3.213447 1_555
I21 La3 3.235672 1_544
I22 La2 3.099666 1_555
I23 La5 3.248521 1_555
I25 La5 3.297958 1_455
I26 La4 3.257600 1_555
I27 La5 3.089400 1_555
I28 La4 3.238395 1_555
I30 La4 3.292733 1_555
I31 La4 3.087520 1_555
I32 La5 3.314910 1_556
I33 La1 3.131346 1_565
I34 La5 3.099568 1_555
I35 La5 3.316767 1_455
I36 La3 3.199797 1_554
I37 La2 3.205896 1_565
