# generated using pymatgen
data_Li5Mn3V2O10
_symmetry_space_group_name_H-M   'P 1'
_cell_length_a   5.25355162
_cell_length_b   7.88557400
_cell_length_c   10.40330192
_cell_angle_alpha   100.52573897
_cell_angle_beta   101.85068169
_cell_angle_gamma   107.71632314
_symmetry_Int_Tables_number   1
_chemical_formula_structural   Li5Mn3V2O10
_chemical_formula_sum   'Li10 Mn6 V4 O20'
_cell_volume   387.64822417
_cell_formula_units_Z   2
loop_
 _symmetry_equiv_pos_site_id
 _symmetry_equiv_pos_as_xyz
  1  'x, y, z'
loop_
 _atom_site_type_symbol
 _atom_site_label
 _atom_site_symmetry_multiplicity
 _atom_site_fract_x
 _atom_site_fract_y
 _atom_site_fract_z
 _atom_site_occupancy
  Li  Li0  1  0.49997900  0.49999700  0.24999700  1
  Li  Li1  1  0.49991700  0.49997100  0.74999100  1
  Li  Li2  1  0.90057700  0.39742800  0.10040700  1
  Li  Li3  1  0.90061600  0.39752600  0.60044600  1
  Li  Li4  1  0.09933700  0.60257300  0.39961300  1
  Li  Li5  1  0.09928400  0.60249000  0.89956500  1
  Li  Li6  1  0.29118900  0.77683600  0.19042400  1
  Li  Li7  1  0.29111000  0.77692500  0.69045500  1
  Li  Li8  1  0.70890400  0.22310300  0.30954700  1
  Li  Li9  1  0.70878900  0.22306300  0.80953000  1
  Mn  Mn0  1  0.49998500  0.99999000  0.49990000  1
  Mn  Mn1  1  0.89102900  0.90032800  0.84716400  1
  Mn  Mn2  1  0.10893900  0.09920000  0.15262000  1
  Mn  Mn3  1  0.50037000  0.00030000  0.00015800  1
  Mn  Mn4  1  0.89173400  0.90060100  0.34724800  1
  Mn  Mn5  1  0.10869000  0.09937700  0.65290600  1
  V  V0  1  0.70493300  0.68735400  0.55168000  1
  V  V1  1  0.29492100  0.31276500  0.44824800  1
  V  V2  1  0.70487000  0.68740300  0.05171300  1
  V  V3  1  0.29485400  0.31253000  0.94822700  1
  O  O0  1  0.07032300  0.83236000  0.02503900  1
  O  O1  1  0.07035100  0.83242200  0.52506300  1
  O  O2  1  0.92967200  0.16756600  0.47494100  1
  O  O3  1  0.92965400  0.16750000  0.97493200  1
  O  O4  1  0.68495500  0.93581300  0.16027700  1
  O  O5  1  0.68484800  0.93583400  0.66030000  1
  O  O6  1  0.31527600  0.06428000  0.33974300  1
  O  O7  1  0.31506400  0.06423200  0.83978400  1
  O  O8  1  0.32736100  0.54078600  0.06886800  1
  O  O9  1  0.32737000  0.54078300  0.56882000  1
  O  O10  1  0.67257000  0.45928400  0.43115100  1
  O  O11  1  0.67252400  0.45923000  0.93116000  1
  O  O12  1  0.49333200  0.23699500  0.10528200  1
  O  O13  1  0.49327400  0.23702600  0.60531800  1
  O  O14  1  0.50686900  0.76320600  0.39478900  1
  O  O15  1  0.50666600  0.76305900  0.89476400  1
  O  O16  1  0.88311500  0.65431300  0.21057400  1
  O  O17  1  0.88309300  0.65430100  0.71054500  1
  O  O18  1  0.11687000  0.34561200  0.28940500  1
  O  O19  1  0.11678600  0.34563900  0.78941100  1
loop_
_geom_bond_atom_site_label_1
_geom_bond_atom_site_label_2
_geom_bond_distance
_geom_bond_site_symmetry_2
Li0 O10 2.042865 1_555
Li0 O8 2.042960 1_555
Li0 O18 2.175103 1_555
Li0 O16 2.175120 1_555
Li0 O12 2.315712 1_555
Li0 O14 2.316861 1_555
Li1 O11 2.043126 1_555
Li1 O9 2.043307 1_555
Li1 O19 2.175124 1_555
Li1 O17 2.175436 1_555
Li1 O13 2.315162 1_555
Li1 O15 2.316318 1_555
Li2 O3 2.097719 1_554
Li2 O11 2.139046 1_554
Li2 O12 2.145030 1_555
Li2 O16 2.175644 1_555
Li2 O18 2.232163 1_655
Li2 O8 2.303870 1_655
Li3 O2 2.098013 1_555
Li3 O10 2.139213 1_555
Li3 O13 2.145592 1_555
Li3 O17 2.174789 1_555
Li3 O19 2.231917 1_655
Li3 O9 2.303951 1_655
Li4 O1 2.096892 1_555
Li4 O9 2.138633 1_555
Li4 O14 2.146551 1_555
Li4 O18 2.176469 1_555
Li4 O16 2.232067 1_455
Li4 O10 2.303669 1_455
Li5 O0 2.097079 1_556
Li5 O8 2.139117 1_556
Li5 O15 2.145675 1_555
Li5 O19 2.175458 1_555
Li5 O17 2.232123 1_455
Li5 O11 2.303844 1_455
Li6 O0 2.064659 1_555
Li6 O8 2.134018 1_555
Li6 O16 2.138089 1_455
Li6 O4 2.186579 1_555
Li6 O14 2.232438 1_555
Li6 O6 2.454611 1_565
Li7 O1 2.064344 1_555
Li7 O9 2.135184 1_555
Li7 O17 2.137714 1_455
Li7 O5 2.186331 1_555
Li7 O15 2.232427 1_555
Li7 O7 2.454053 1_565
Li8 O2 2.064551 1_555
Li8 O10 2.135466 1_555
Li8 O18 2.137536 1_655
Li8 O6 2.185846 1_555
Li8 O12 2.232140 1_555
Li8 O4 2.453678 1_545
Li9 O3 2.064955 1_555
Li9 O11 2.135328 1_555
Li9 O19 2.137675 1_655
Li9 O7 2.186541 1_555
Li9 O13 2.231781 1_555
Li9 O5 2.453123 1_545
Mn0 O6 1.979568 1_565
Mn0 O5 1.981290 1_555
Mn0 O14 1.998695 1_555
Mn0 O13 2.001202 1_565
Mn0 O2 2.336668 1_565
Mn0 O1 2.337299 1_555
Mn1 O5 2.132931 1_555
Mn1 O0 2.133660 1_656
Mn1 O17 2.169022 1_555
Mn1 O15 2.184178 1_555
Mn1 O3 2.202839 1_565
Mn1 O7 2.234539 1_665
Mn2 O6 2.133380 1_555
Mn2 O3 2.133469 1_454
Mn2 O18 2.172209 1_555
Mn2 O12 2.183990 1_555
Mn2 O0 2.199915 1_545
Mn2 O4 2.234168 1_445
Mn3 O4 1.979868 1_545
Mn3 O7 1.981011 1_554
Mn3 O12 1.998492 1_555
Mn3 O15 2.001561 1_544
Mn3 O3 2.335222 1_554
Mn3 O0 2.338716 1_545
Mn4 O1 2.132845 1_655
Mn4 O4 2.133942 1_555
Mn4 O16 2.169496 1_555
Mn4 O14 2.186284 1_555
Mn4 O2 2.202351 1_565
Mn4 O6 2.232344 1_665
Mn5 O7 2.132131 1_555
Mn5 O2 2.134886 1_455
Mn5 O19 2.169544 1_555
Mn5 O13 2.185834 1_555
Mn5 O1 2.202245 1_545
Mn5 O5 2.232950 1_445
O0 V2 2.017123 1_455
O1 V0 2.016980 1_455
O2 V1 2.016922 1_655
O3 V3 2.016364 1_655
O4 V2 2.118637 1_555
O5 V0 2.119713 1_555
O6 V1 2.119924 1_555
O7 V3 2.118104 1_555
O8 V3 1.934849 1_554
O8 V2 2.031534 1_555
O9 V1 1.933146 1_555
O9 V0 2.031601 1_555
O10 V0 1.933410 1_555
O10 V1 2.031679 1_555
O11 V2 1.934191 1_556
O11 V3 2.032058 1_555
O12 V3 2.036038 1_554
O13 V1 2.036827 1_555
O14 V0 2.035297 1_555
O15 V2 2.035150 1_556
O16 V2 1.829465 1_555
O17 V0 1.829200 1_555
O18 V1 1.828047 1_555
O19 V3 1.828805 1_555
