# generated using pymatgen
data_Li4Mn5P6WO24
_symmetry_space_group_name_H-M   'P 1'
_cell_length_a   8.72833600
_cell_length_b   8.74463387
_cell_length_c   8.75535174
_cell_angle_alpha   62.25192472
_cell_angle_beta   62.43713539
_cell_angle_gamma   62.77152400
_symmetry_Int_Tables_number   1
_chemical_formula_structural   Li4Mn5P6WO24
_chemical_formula_sum   'Li4 Mn5 P6 W1 O24'
_cell_volume   498.70339819
_cell_formula_units_Z   1
loop_
 _symmetry_equiv_pos_site_id
 _symmetry_equiv_pos_as_xyz
  1  'x, y, z'
loop_
 _atom_site_type_symbol
 _atom_site_label
 _atom_site_symmetry_multiplicity
 _atom_site_fract_x
 _atom_site_fract_y
 _atom_site_fract_z
 _atom_site_occupancy
  Li  Li0  1  0.74626100  0.15347300  0.35416200  1
  Li  Li1  1  0.29807500  0.84673200  0.64834500  1
  Li  Li2  1  0.63789800  0.29949200  0.84956900  1
  Li  Li3  1  0.84869100  0.64076100  0.30381800  1
  Mn  Mn0  1  0.02113100  0.00280400  0.00153100  1
  Mn  Mn1  1  0.34692800  0.35187800  0.34926000  1
  Mn  Mn2  1  0.48703800  0.50522400  0.50001800  1
  Mn  Mn3  1  0.15248500  0.15402200  0.15117800  1
  Mn  Mn4  1  0.65551900  0.65780700  0.66066500  1
  P  P0  1  0.05571500  0.74314000  0.44166800  1
  P  P1  1  0.44188000  0.05417000  0.74854400  1
  P  P2  1  0.74724800  0.43806700  0.05330500  1
  P  P3  1  0.24709500  0.55419500  0.94597700  1
  P  P4  1  0.56298500  0.94974600  0.25042400  1
  P  P5  1  0.93247300  0.24415400  0.54761400  1
  W  W0  1  0.85331400  0.84661900  0.85258300  1
  O  O0  1  0.46423500  0.90739700  0.68181600  1
  O  O1  1  0.67679500  0.46336300  0.90955400  1
  O  O2  1  0.91183300  0.66699900  0.47327700  1
  O  O3  1  0.05524300  0.90900600  0.26480400  1
  O  O4  1  0.00039300  0.80356000  0.60884500  1
  O  O5  1  0.24512000  0.60072800  0.43115200  1
  O  O6  1  0.25571500  0.07990300  0.89878300  1
  O  O7  1  0.45708100  0.23452300  0.58891200  1
  O  O8  1  0.16703800  0.41411400  0.98687500  1
  O  O9  1  0.60572500  0.43096500  0.24535000  1
  O  O10  1  0.10396100  0.75807700  0.90480900  1
  O  O11  1  0.40465800  0.00957600  0.18792200  1
  O  O12  1  0.59961200  0.98970600  0.82346600  1
  O  O13  1  0.89804600  0.25121800  0.07579600  1
  O  O14  1  0.40364900  0.56858400  0.75588900  1
  O  O15  1  0.81569800  0.60139200  0.99214400  1
  O  O16  1  0.57277700  0.75918300  0.40462900  1
  O  O17  1  0.75812300  0.90365500  0.09641600  1
  O  O18  1  0.75032200  0.40442600  0.57433500  1
  O  O19  1  0.94108900  0.17745900  0.40990000  1
  O  O20  1  0.90525400  0.09426000  0.74950000  1
  O  O21  1  0.10254500  0.28418000  0.50216000  1
  O  O22  1  0.30373200  0.52792800  0.09815500  1
  O  O23  1  0.56662200  0.09451500  0.29985100  1
loop_
_geom_bond_atom_site_label_1
_geom_bond_atom_site_label_2
_geom_bond_distance
_geom_bond_site_symmetry_2
Li0 O19 2.088930 1_555
Li0 O9 2.122633 1_555
Li0 O13 2.129313 1_555
Li0 O23 2.146717 1_555
Li0 O7 2.452755 1_555
Li0 O3 2.604692 1_645
Li1 O0 1.926862 1_555
Li1 O14 2.066688 1_555
Li1 O10 2.138654 1_555
Li1 O16 2.448441 1_555
Li2 O1 1.937925 1_555
Li2 O18 2.046580 1_555
Li2 O20 2.274587 1_555
Li2 O14 2.396337 1_555
Li3 O2 1.935740 1_555
Li3 O16 2.062288 1_555
Li3 O17 2.232837 1_555
Li3 O18 2.408697 1_555
Mn0 O6 2.109510 1_554
Mn0 O3 2.173891 1_545
Mn0 O13 2.197501 1_455
Mn0 O10 2.350481 1_544
Mn0 O17 2.469308 1_445
Mn0 O20 2.492724 1_454
Mn1 O22 2.104751 1_555
Mn1 O21 2.113634 1_555
Mn1 O23 2.262507 1_555
Mn1 O5 2.265582 1_555
Mn1 O7 2.310659 1_555
Mn1 O9 2.313069 1_555
Mn2 O5 2.148316 1_555
Mn2 O7 2.222648 1_555
Mn2 O9 2.249773 1_555
Mn2 O14 2.265658 1_555
Mn2 O16 2.324811 1_555
Mn2 O18 2.340389 1_555
Mn3 O11 2.067949 1_555
Mn3 O8 2.075356 1_554
Mn3 O19 2.189962 1_455
Mn3 O6 2.252072 1_554
Mn3 O13 2.279672 1_455
Mn3 O3 2.280045 1_545
Mn4 O1 2.075939 1_555
Mn4 O0 2.083537 1_555
Mn4 O2 2.085232 1_555
Mn4 O16 2.322611 1_555
Mn4 O14 2.324757 1_555
Mn4 O18 2.338454 1_555
O0 P1 1.546050 1_565
O1 P2 1.530902 1_556
O2 P0 1.539161 1_655
O3 P0 1.552635 1_555
O4 P0 1.577115 1_555
O4 W0 2.028401 1_455
O5 P0 1.540890 1_555
O6 P1 1.544093 1_555
O7 P1 1.557449 1_555
O8 P3 1.503425 1_555
O9 P2 1.551686 1_555
O10 P3 1.627720 1_555
O10 W0 2.154252 1_455
O11 P4 1.501517 1_545
O12 P1 1.557155 1_565
O12 W0 2.055261 1_555
O13 P2 1.553449 1_555
O14 P3 1.584489 1_555
O15 P2 1.567198 1_556
O15 W0 2.008101 1_555
O16 P4 1.577498 1_555
O17 P4 1.622986 1_555
O17 W0 2.113625 1_554
O18 P5 1.571233 1_555
O19 P5 1.526552 1_555
O20 P5 1.624137 1_555
O20 W0 2.099856 1_545
O21 P5 1.511125 1_455
O22 P3 1.514272 1_554
O23 P4 1.533146 1_545
