# generated using pymatgen
data_Er2Sb2O7
_symmetry_space_group_name_H-M   'P 1'
_cell_length_a   7.51709145
_cell_length_b   7.51709145
_cell_length_c   18.42524200
_cell_angle_alpha   90.00000000
_cell_angle_beta   90.00000000
_cell_angle_gamma   119.99999516
_symmetry_Int_Tables_number   1
_chemical_formula_structural   Er2Sb2O7
_chemical_formula_sum   'Er12 Sb12 O42'
_cell_volume   901.66148939
_cell_formula_units_Z   6
loop_
 _symmetry_equiv_pos_site_id
 _symmetry_equiv_pos_as_xyz
  1  'x, y, z'
loop_
 _atom_site_type_symbol
 _atom_site_label
 _atom_site_symmetry_multiplicity
 _atom_site_fract_x
 _atom_site_fract_y
 _atom_site_fract_z
 _atom_site_occupancy
  Er  Er0  1  0.00000000  0.83416700  0.66666700  1
  Er  Er1  1  0.00000000  0.83418900  0.16666700  1
  Er  Er2  1  0.17525800  0.67552600  0.01117900  1
  Er  Er3  1  0.16583300  0.16583300  0.00000000  1
  Er  Er4  1  0.50026900  0.82474200  0.67784500  1
  Er  Er5  1  0.16581100  0.16581100  0.50000000  1
  Er  Er6  1  0.32447400  0.49973100  0.34451200  1
  Er  Er7  1  0.49973100  0.32447400  0.65548800  1
  Er  Er8  1  0.67552600  0.17525800  0.98882100  1
  Er  Er9  1  0.82474200  0.50026900  0.32215500  1
  Er  Er10  1  0.83418900  0.00000000  0.83333300  1
  Er  Er11  1  0.83416700  0.00000000  0.33333300  1
  Sb  Sb0  1  0.00000000  0.32596400  0.16666700  1
  Sb  Sb1  1  0.00000000  0.30451500  0.66666700  1
  Sb  Sb2  1  0.16906700  0.66988200  0.50164000  1
  Sb  Sb3  1  0.50081500  0.83093300  0.16830700  1
  Sb  Sb4  1  0.33011800  0.49918500  0.83497400  1
  Sb  Sb5  1  0.30451500  0.00000000  0.33333300  1
  Sb  Sb6  1  0.67403600  0.67403600  0.50000000  1
  Sb  Sb7  1  0.32596400  0.00000000  0.83333300  1
  Sb  Sb8  1  0.69548500  0.69548500  0.00000000  1
  Sb  Sb9  1  0.49918500  0.33011800  0.16502600  1
  Sb  Sb10  1  0.66988200  0.16906700  0.49836000  1
  Sb  Sb11  1  0.83093300  0.50081500  0.83169300  1
  O  O0  1  0.01854800  0.85118200  0.28402600  1
  O  O1  1  0.99303100  0.79995800  0.80214000  1
  O  O2  1  0.11425100  0.66434700  0.39375800  1
  O  O3  1  0.03998300  0.41823700  0.81406500  1
  O  O4  1  0.32442300  0.98777800  0.95807500  1
  O  O5  1  0.22859200  0.68385800  0.60758100  1
  O  O6  1  0.01222200  0.33664500  0.29140800  1
  O  O7  1  0.20015500  0.67119200  0.13853500  1
  O  O8  1  0.37825400  0.96001700  0.48073200  1
  O  O9  1  0.45526600  0.77140800  0.27424700  1
  O  O10  1  0.47103700  0.79984500  0.80520100  1
  O  O11  1  0.33565300  0.44990400  0.72709200  1
  O  O12  1  0.14881800  0.16736600  0.61736000  1
  O  O13  1  0.32880800  0.52896300  0.47186800  1
  O  O14  1  0.20004200  0.19307300  0.13547300  1
  O  O15  1  0.16736600  0.14881800  0.38264000  1
  O  O16  1  0.31614200  0.54473400  0.94091400  1
  O  O17  1  0.19307300  0.20004200  0.86452700  1
  O  O18  1  0.55009600  0.88574900  0.06042500  1
  O  O19  1  0.58176300  0.62174600  0.14739900  1
  O  O20  1  0.80692700  0.00696900  0.46880600  1
  O  O21  1  0.66335500  0.67557700  0.62474200  1
  O  O22  1  0.44990400  0.33565300  0.27290800  1
  O  O23  1  0.62174600  0.58176300  0.85260100  1
  O  O24  1  0.33664500  0.01222200  0.70859200  1
  O  O25  1  0.83263400  0.98145200  0.95069300  1
  O  O26  1  0.54473400  0.31614200  0.05908600  1
  O  O27  1  0.67557700  0.66335500  0.37525800  1
  O  O28  1  0.52896300  0.32880800  0.52813200  1
  O  O29  1  0.41823700  0.03998300  0.18593500  1
  O  O30  1  0.68385800  0.22859200  0.39241900  1
  O  O31  1  0.67119200  0.20015500  0.86146500  1
  O  O32  1  0.88574900  0.55009600  0.93957500  1
  O  O33  1  0.98145200  0.83263400  0.04930700  1
  O  O34  1  0.79984500  0.47103700  0.19479900  1
  O  O35  1  0.00696900  0.80692700  0.53119400  1
  O  O36  1  0.77140800  0.45526600  0.72575300  1
  O  O37  1  0.66434700  0.11425100  0.60624200  1
  O  O38  1  0.96001700  0.37825400  0.51926800  1
  O  O39  1  0.79995800  0.99303100  0.19786000  1
  O  O40  1  0.98777800  0.32442300  0.04192500  1
  O  O41  1  0.85118200  0.01854800  0.71597400  1
loop_
_geom_bond_atom_site_label_1
_geom_bond_atom_site_label_2
_geom_bond_distance
_geom_bond_site_symmetry_2
Er0 O21 2.324864 1_455
Er0 O24 2.324864 1_565
Er0 O41 2.355487 1_465
Er0 O12 2.355487 1_565
Er0 O35 2.507196 1_555
Er0 O1 2.507196 1_455
Er0 O5 2.712214 1_555
Er0 O36 2.712215 1_455
Er1 O0 2.166514 1_555
Er1 O33 2.166532 1_455
Er1 O39 2.410965 1_455
Er1 O14 2.410969 1_565
Er1 O7 2.424299 1_555
Er1 O34 2.424300 1_455
Er1 O29 2.745881 1_565
Er1 O19 2.745881 1_455
Er2 O16 2.192153 1_554
Er2 O4 2.256594 1_554
Er2 O32 2.305170 1_454
Er2 O7 2.355537 1_555
Er2 O40 2.356542 1_455
Er2 O33 2.394004 1_455
Er2 O18 2.609070 1_555
Er3 O4 2.324864 1_544
Er3 O40 2.324864 1_455
Er3 O25 2.355487 1_444
Er3 O33 2.355487 1_445
Er3 O17 2.507196 1_554
Er3 O14 2.507196 1_555
Er3 O16 2.712215 1_554
Er3 O26 2.712215 1_555
Er4 O5 2.192147 1_555
Er4 O21 2.256580 1_555
Er4 O37 2.305159 1_565
Er4 O10 2.355537 1_555
Er4 O24 2.356552 1_565
Er4 O41 2.394004 1_565
Er4 O11 2.609075 1_555
Er5 O12 2.166532 1_555
Er5 O15 2.166532 1_555
Er5 O35 2.410969 1_545
Er5 O20 2.410969 1_455
Er5 O13 2.424300 1_555
Er5 O28 2.424300 1_555
Er5 O38 2.745881 1_455
Er5 O8 2.745881 1_545
Er6 O9 2.192158 1_555
Er6 O6 2.256594 1_555
Er6 O22 2.305164 1_555
Er6 O13 2.355537 1_555
Er6 O27 2.356541 1_555
Er6 O15 2.393998 1_555
Er6 O2 2.609075 1_555
Er7 O36 2.192158 1_555
Er7 O24 2.256594 1_555
Er7 O11 2.305164 1_555
Er7 O28 2.355537 1_555
Er7 O21 2.356541 1_555
Er7 O12 2.393998 1_555
Er7 O37 2.609075 1_555
Er8 O26 2.192153 1_556
Er8 O40 2.256594 1_556
Er8 O18 2.305170 1_546
Er8 O31 2.355537 1_555
Er8 O4 2.356542 1_545
Er8 O25 2.394004 1_545
Er8 O32 2.609070 1_555
Er9 O30 2.192147 1_555
Er9 O27 2.256580 1_555
Er9 O2 2.305159 1_655
Er9 O34 2.355537 1_555
Er9 O6 2.356552 1_655
Er9 O0 2.394004 1_655
Er9 O22 2.609075 1_555
Er10 O41 2.166514 1_555
Er10 O25 2.166532 1_545
Er10 O1 2.410965 1_545
Er10 O17 2.410969 1_655
Er10 O31 2.424299 1_555
Er10 O10 2.424300 1_545
Er10 O3 2.745881 1_655
Er10 O23 2.745881 1_545
Er11 O27 2.324864 1_545
Er11 O6 2.324864 1_655
Er11 O0 2.355487 1_645
Er11 O15 2.355487 1_655
Er11 O20 2.507196 1_555
Er11 O39 2.507196 1_545
Er11 O30 2.712214 1_555
Er11 O9 2.712215 1_545
O0 Sb5 2.071955 1_565
O1 Sb11 2.024305 1_555
O1 Sb7 2.256460 1_665
O2 Sb2 2.026212 1_555
O2 Sb5 2.458178 1_565
O3 Sb11 1.983870 1_455
O3 Sb4 1.987011 1_555
O4 Sb7 2.300035 1_565
O5 Sb2 1.993616 1_555
O5 Sb1 2.714652 1_555
O6 Sb0 2.300016 1_555
O7 Sb3 2.033942 1_555
O7 Sb0 2.315704 1_555
O8 Sb10 1.983870 1_565
O8 Sb2 1.987008 1_555
O9 Sb3 1.993598 1_555
O9 Sb5 2.714652 1_565
O10 Sb4 2.033947 1_555
O10 Sb7 2.315704 1_565
O11 Sb4 2.026212 1_555
O11 Sb1 2.458178 1_555
O12 Sb1 2.071955 1_555
O13 Sb2 2.033942 1_555
O13 Sb6 2.315704 1_555
O14 Sb9 2.024305 1_555
O14 Sb0 2.256464 1_555
O15 Sb5 2.071955 1_555
O16 Sb4 1.993598 1_555
O16 Sb8 2.714652 1_556
O17 Sb4 2.024305 1_555
O17 Sb7 2.256464 1_555
O18 Sb3 2.026212 1_555
O18 Sb8 2.458178 1_555
O19 Sb9 1.983867 1_555
O19 Sb3 1.987008 1_555
O20 Sb10 2.024310 1_555
O20 Sb6 2.256464 1_545
O21 Sb6 2.300035 1_555
O22 Sb9 2.026212 1_555
O22 Sb5 2.458178 1_555
O23 Sb4 1.983867 1_555
O23 Sb11 1.987008 1_555
O24 Sb7 2.300016 1_555
O25 Sb8 2.071955 1_556
O26 Sb9 1.993598 1_555
O26 Sb8 2.714652 1_555
O27 Sb6 2.300035 1_555
O28 Sb10 2.033942 1_555
O28 Sb6 2.315704 1_555
O29 Sb3 1.983870 1_545
O29 Sb9 1.987011 1_555
O30 Sb10 1.993616 1_555
O30 Sb5 2.714652 1_555
O31 Sb11 2.033942 1_555
O31 Sb7 2.315704 1_555
O32 Sb11 2.026212 1_555
O32 Sb8 2.458178 1_556
O33 Sb8 2.071955 1_555
O34 Sb9 2.033947 1_555
O34 Sb0 2.315704 1_655
O35 Sb2 2.024310 1_555
O35 Sb6 2.256464 1_455
O36 Sb11 1.993598 1_555
O36 Sb1 2.714652 1_655
O37 Sb10 2.026212 1_555
O37 Sb1 2.458178 1_655
O38 Sb2 1.983870 1_655
O38 Sb10 1.987008 1_555
O39 Sb3 2.024305 1_555
O39 Sb0 2.256460 1_665
O40 Sb0 2.300035 1_655
O41 Sb1 2.071955 1_655
