# generated using pymatgen
data_Li6CoNi9O20
_symmetry_space_group_name_H-M   'P 1'
_cell_length_a   2.83093632
_cell_length_b   11.71624076
_cell_length_c   11.56409012
_cell_angle_alpha   114.16392732
_cell_angle_beta   82.99508141
_cell_angle_gamma   90.03248239
_symmetry_Int_Tables_number   1
_chemical_formula_structural   Li6CoNi9O20
_chemical_formula_sum   'Li6 Co1 Ni9 O20'
_cell_volume   346.82054520
_cell_formula_units_Z   1
loop_
 _symmetry_equiv_pos_site_id
 _symmetry_equiv_pos_as_xyz
  1  'x, y, z'
loop_
 _atom_site_type_symbol
 _atom_site_label
 _atom_site_symmetry_multiplicity
 _atom_site_fract_x
 _atom_site_fract_y
 _atom_site_fract_z
 _atom_site_occupancy
  Li  Li0  1  0.19282700  0.36809800  0.61463300  1
  Li  Li1  1  0.80151000  0.64839100  0.39626600  1
  Li  Li2  1  0.60717300  0.03190200  0.78536700  1
  Li  Li3  1  0.80813600  0.13590700  0.38261100  1
  Li  Li4  1  0.99186400  0.26409300  0.01738900  1
  Li  Li5  1  0.99849000  0.75160900  0.00373400  1
  Co  Co0  1  0.40000000  0.70000000  0.20000000  1
  Ni  Ni0  1  0.19760400  0.60004800  0.60433900  1
  Ni  Ni1  1  0.19926900  0.10295500  0.60065100  1
  Ni  Ni2  1  0.40000000  0.20000000  0.20000000  1
  Ni  Ni3  1  0.99911300  0.49963500  0.00153300  1
  Ni  Ni4  1  0.60073100  0.29704500  0.79934900  1
  Ni  Ni5  1  0.80178900  0.40177800  0.39611600  1
  Ni  Ni6  1  0.99821200  0.99822200  0.00388400  1
  Ni  Ni7  1  0.60239500  0.79995200  0.79566100  1
  Ni  Ni8  1  0.80088700  0.90036500  0.39846700  1
  O  O0  1  0.49082000  0.12515300  0.01707900  1
  O  O1  1  0.51394600  0.86842500  0.97365200  1
  O  O2  1  0.10063300  0.40117700  0.79992300  1
  O  O3  1  0.09902200  0.91104900  0.80261700  1
  O  O4  1  0.10579600  0.69054400  0.78837200  1
  O  O5  1  0.31123400  0.77705400  0.37999500  1
  O  O6  1  0.48876600  0.62294600  0.02000500  1
  O  O7  1  0.10612600  0.18213200  0.78795600  1
  O  O8  1  0.28703100  0.02949300  0.42386200  1
  O  O9  1  0.28605400  0.53157500  0.42634800  1
  O  O10  1  0.30918000  0.27484700  0.38292100  1
  O  O11  1  0.51296900  0.37050700  0.97613800  1
  O  O12  1  0.69387400  0.21786800  0.61204400  1
  O  O13  1  0.90108000  0.09302800  0.19745800  1
  O  O14  1  0.69420400  0.70945600  0.61162800  1
  O  O15  1  0.70097800  0.48895100  0.59738300  1
  O  O16  1  0.69936700  0.99882300  0.60007700  1
  O  O17  1  0.89938200  0.59325700  0.19848900  1
  O  O18  1  0.90061800  0.80674300  0.20151100  1
  O  O19  1  0.89892000  0.30697200  0.20254200  1
loop_
_geom_bond_atom_site_label_1
_geom_bond_atom_site_label_2
_geom_bond_distance
_geom_bond_site_symmetry_2
Li0 O2 1.998342 1_555
Li0 O15 2.067132 1_555
Li0 O15 2.069945 1_455
Li0 O12 2.249106 1_455
Li0 O12 2.249497 1_555
Li0 O10 2.422903 1_555
Li1 O17 2.088305 1_555
Li1 O9 2.093826 1_655
Li1 O9 2.094576 1_555
Li1 O5 2.128958 1_555
Li1 O5 2.133908 1_655
Li1 O14 2.272339 1_555
Li2 O16 1.998342 1_545
Li2 O3 2.067132 1_545
Li2 O3 2.069945 1_645
Li2 O7 2.249106 1_655
Li2 O7 2.249497 1_555
Li2 O0 2.422903 1_556
Li3 O13 1.971836 1_555
Li3 O8 2.065564 1_655
Li3 O8 2.066748 1_555
Li3 O10 2.154463 1_555
Li3 O10 2.157706 1_655
Li3 O12 2.402354 1_555
Li4 O19 1.971836 1_555
Li4 O11 2.065564 1_554
Li4 O11 2.066748 1_654
Li4 O0 2.154463 1_655
Li4 O0 2.157706 1_555
Li4 O7 2.402354 1_654
Li5 O18 2.088305 1_555
Li5 O1 2.093826 1_554
Li5 O1 2.094576 1_654
Li5 O6 2.128958 1_655
Li5 O6 2.133908 1_555
Li5 O4 2.272339 1_654
Co0 O17 1.881771 1_555
Co0 O18 1.881771 1_455
Co0 O5 1.882807 1_555
Co0 O6 1.882807 1_555
Co0 O17 1.886536 1_455
Co0 O18 1.886536 1_555
Ni0 O9 1.861597 1_555
Ni0 O14 1.888132 1_555
Ni0 O14 1.888240 1_455
Ni0 O15 1.901874 1_455
Ni0 O15 1.902588 1_555
Ni0 O4 1.933626 1_555
Ni1 O8 1.848750 1_555
Ni1 O16 1.866815 1_445
Ni1 O16 1.867057 1_545
Ni1 O12 1.920421 1_455
Ni1 O12 1.920467 1_555
Ni1 O7 1.958988 1_555
Ni2 O13 1.882687 1_455
Ni2 O19 1.882687 1_555
Ni2 O13 1.882962 1_555
Ni2 O19 1.882962 1_455
Ni2 O10 1.912747 1_555
Ni2 O0 1.912747 1_555
Ni3 O6 1.967659 1_655
Ni3 O6 1.973492 1_555
Ni3 O11 2.000403 1_554
Ni3 O11 2.006435 1_654
Ni3 O17 2.066054 1_555
Ni3 O2 2.117543 1_654
Ni4 O11 1.848750 1_555
Ni4 O2 1.866815 1_655
Ni4 O2 1.867057 1_555
Ni4 O7 1.920421 1_655
Ni4 O7 1.920467 1_555
Ni4 O12 1.958988 1_555
Ni5 O9 1.998388 1_655
Ni5 O9 2.002310 1_555
Ni5 O10 2.010829 1_555
Ni5 O10 2.015270 1_655
Ni5 O19 2.033441 1_555
Ni5 O15 2.105673 1_555
Ni6 O1 1.998390 1_554
Ni6 O1 2.002308 1_654
Ni6 O0 2.010827 1_665
Ni6 O0 2.015272 1_565
Ni6 O13 2.033441 1_565
Ni6 O3 2.105673 1_654
Ni7 O1 1.861597 1_555
Ni7 O4 1.888130 1_555
Ni7 O4 1.888242 1_655
Ni7 O3 1.901876 1_655
Ni7 O3 1.902586 1_555
Ni7 O14 1.933626 1_555
Ni8 O5 1.967659 1_555
Ni8 O5 1.973492 1_655
Ni8 O8 2.000403 1_665
Ni8 O8 2.006435 1_565
Ni8 O18 2.066054 1_555
Ni8 O16 2.117543 1_555
