# generated using pymatgen
data_LiV2CrO6
_symmetry_space_group_name_H-M   'P 1'
_cell_length_a   7.94014864
_cell_length_b   7.94014864
_cell_length_c   6.06632521
_cell_angle_alpha   77.66975224
_cell_angle_beta   77.66975224
_cell_angle_gamma   68.10580819
_symmetry_Int_Tables_number   1
_chemical_formula_structural   LiV2CrO6
_chemical_formula_sum   'Li3 V6 Cr3 O18'
_cell_volume   342.88223987
_cell_formula_units_Z   3
loop_
 _symmetry_equiv_pos_site_id
 _symmetry_equiv_pos_as_xyz
  1  'x, y, z'
loop_
 _atom_site_type_symbol
 _atom_site_label
 _atom_site_symmetry_multiplicity
 _atom_site_fract_x
 _atom_site_fract_y
 _atom_site_fract_z
 _atom_site_occupancy
  Li  Li0  1  0.33011500  0.33011500  0.34265700  1
  Li  Li1  1  0.00000000  0.00000000  0.00000000  1
  Li  Li2  1  0.66988500  0.66988500  0.65734300  1
  V  V0  1  0.00513900  0.66507500  0.83245300  1
  V  V1  1  0.33492500  0.99486100  0.16754700  1
  V  V2  1  0.34015500  0.34015500  0.83383700  1
  V  V3  1  0.66507500  0.00513900  0.83245300  1
  V  V4  1  0.65984500  0.65984500  0.16616300  1
  V  V5  1  0.99486100  0.33492500  0.16754700  1
  Cr  Cr0  1  0.32815400  0.67184600  0.50000000  1
  Cr  Cr1  1  0.67184600  0.32815400  0.50000000  1
  Cr  Cr2  1  0.00000000  0.00000000  0.50000000  1
  O  O0  1  0.17665900  0.85221700  0.26702100  1
  O  O1  1  0.17941400  0.17941400  0.94663700  1
  O  O2  1  0.51065200  0.84247700  0.94191200  1
  O  O3  1  0.14778300  0.82334100  0.73297900  1
  O  O4  1  0.16280600  0.16280600  0.37417400  1
  O  O5  1  0.49283200  0.82400600  0.38506500  1
  O  O6  1  0.15752300  0.48934800  0.05808800  1
  O  O7  1  0.48934800  0.15752300  0.05808800  1
  O  O8  1  0.82058600  0.82058600  0.05336300  1
  O  O9  1  0.17599400  0.50716800  0.61493500  1
  O  O10  1  0.50716800  0.17599400  0.61493500  1
  O  O11  1  0.83719400  0.83719400  0.62582600  1
  O  O12  1  0.51293000  0.51293000  0.27166100  1
  O  O13  1  0.85221700  0.17665900  0.26702100  1
  O  O14  1  0.84247700  0.51065200  0.94191200  1
  O  O15  1  0.48707000  0.48707000  0.72833900  1
  O  O16  1  0.82334100  0.14778300  0.73297900  1
  O  O17  1  0.82400600  0.49283200  0.38506500  1
loop_
_geom_bond_atom_site_label_1
_geom_bond_atom_site_label_2
_geom_bond_distance
_geom_bond_site_symmetry_2
Li0 O4 2.159947 1_555
Li0 O9 2.246668 1_555
Li0 O10 2.246668 1_555
Li0 O6 2.289681 1_555
Li0 O7 2.289681 1_555
Li0 O12 2.331752 1_555
Li1 O3 2.213467 1_544
Li1 O16 2.213467 1_454
Li1 O13 2.213467 1_455
Li1 O0 2.213467 1_545
Li1 O8 2.298523 1_445
Li1 O1 2.298523 1_554
Li2 O11 2.159947 1_555
Li2 O17 2.246668 1_555
Li2 O5 2.246668 1_555
Li2 O2 2.289681 1_555
Li2 O14 2.289681 1_555
Li2 O15 2.331752 1_555
Cr0 O0 2.018008 1_555
Cr0 O3 2.018008 1_555
Cr0 O5 2.021033 1_555
Cr0 O9 2.021033 1_555
Cr0 O15 2.039926 1_555
Cr0 O12 2.039926 1_555
Cr1 O16 2.018008 1_555
Cr1 O13 2.018008 1_555
Cr1 O17 2.021033 1_555
Cr1 O10 2.021033 1_555
Cr1 O15 2.039926 1_555
Cr1 O12 2.039926 1_555
Cr2 O0 1.994000 1_545
Cr2 O16 1.994000 1_455
Cr2 O13 1.994000 1_455
Cr2 O3 1.994000 1_545
Cr2 O11 2.080439 1_445
Cr2 O4 2.080439 1_555
O0 V1 1.916207 1_555
O1 V5 1.996620 1_456
O1 V1 1.996620 1_546
O1 V2 2.048174 1_555
O2 V1 1.979132 1_556
O2 V4 1.980253 1_556
O2 V3 2.019781 1_565
O3 V0 1.916207 1_555
O4 V5 1.959658 1_455
O4 V1 1.959658 1_545
O5 V1 1.956305 1_555
O5 V4 1.979651 1_555
O6 V0 1.979132 1_554
O6 V2 1.980253 1_554
O6 V5 2.019781 1_455
O7 V3 1.979132 1_554
O7 V2 1.980253 1_554
O7 V1 2.019781 1_545
O8 V0 1.996620 1_654
O8 V3 1.996620 1_564
O8 V4 2.048174 1_555
O9 V0 1.956305 1_555
O9 V2 1.979651 1_555
O10 V3 1.956305 1_555
O10 V2 1.979651 1_555
O11 V3 1.959658 1_565
O11 V0 1.959658 1_655
O12 V4 1.873048 1_555
O13 V5 1.916207 1_555
O14 V5 1.979132 1_556
O14 V4 1.980253 1_556
O14 V0 2.019781 1_655
O15 V2 1.873048 1_555
O16 V3 1.916207 1_555
O17 V5 1.956305 1_555
O17 V4 1.979651 1_555
