# generated using pymatgen
data_Li7(CuO2)6
_symmetry_space_group_name_H-M   'P 1'
_cell_length_a   5.21292100
_cell_length_b   6.85672197
_cell_length_c   8.25649862
_cell_angle_alpha   101.46287443
_cell_angle_beta   105.41652910
_cell_angle_gamma   99.80049004
_symmetry_Int_Tables_number   1
_chemical_formula_structural   Li7(CuO2)6
_chemical_formula_sum   'Li7 Cu6 O12'
_cell_volume   270.94176508
_cell_formula_units_Z   1
loop_
 _symmetry_equiv_pos_site_id
 _symmetry_equiv_pos_as_xyz
  1  'x, y, z'
loop_
 _atom_site_type_symbol
 _atom_site_label
 _atom_site_symmetry_multiplicity
 _atom_site_fract_x
 _atom_site_fract_y
 _atom_site_fract_z
 _atom_site_occupancy
  Li  Li0  1  0.59086100  0.88039800  0.91287500  1
  Li  Li1  1  0.50000000  0.50000000  0.00000000  1
  Li  Li2  1  0.40913900  0.11960200  0.08712500  1
  Li  Li3  1  0.50093700  0.51196800  0.33154100  1
  Li  Li4  1  0.40879900  0.11804100  0.42011300  1
  Li  Li5  1  0.59120100  0.88195900  0.57988700  1
  Li  Li6  1  0.49906300  0.48803200  0.66845900  1
  Cu  Cu0  1  0.95066800  0.26591900  0.86925000  1
  Cu  Cu1  1  0.95884900  0.27056900  0.20673400  1
  Cu  Cu2  1  0.95912100  0.27108800  0.53735500  1
  Cu  Cu3  1  0.04933200  0.73408100  0.13075000  1
  Cu  Cu4  1  0.04087900  0.72891200  0.46264500  1
  Cu  Cu5  1  0.04115100  0.72943100  0.79326600  1
  O  O0  1  0.78583000  0.66334000  0.90844600  1
  O  O1  1  0.70456500  0.18106100  0.98540600  1
  O  O2  1  0.79648600  0.64492700  0.23887600  1
  O  O3  1  0.69967400  0.20598800  0.31774900  1
  O  O4  1  0.77985300  0.66124600  0.57330800  1
  O  O5  1  0.70272100  0.18470700  0.64313200  1
  O  O6  1  0.29543500  0.81893900  0.01459400  1
  O  O7  1  0.21417000  0.33666000  0.09155400  1
  O  O8  1  0.29727900  0.81529300  0.35686800  1
  O  O9  1  0.22014700  0.33875400  0.42669200  1
  O  O10  1  0.30032600  0.79401200  0.68225100  1
  O  O11  1  0.20351400  0.35507300  0.76112400  1
loop_
_geom_bond_atom_site_label_1
_geom_bond_atom_site_label_2
_geom_bond_distance
_geom_bond_site_symmetry_2
Li0 O0 1.939708 1_555
Li0 O6 1.965198 1_556
Li0 O1 1.965853 1_565
Li0 O10 1.995863 1_555
Li1 O11 2.084130 1_554
Li1 O2 2.084130 1_555
Li1 O7 2.100738 1_555
Li1 O0 2.100738 1_554
Li1 O6 2.586814 1_555
Li1 O1 2.586814 1_554
Li2 O7 1.939708 1_555
Li2 O1 1.965198 1_554
Li2 O6 1.965853 1_545
Li2 O3 1.995863 1_555
Li3 O2 2.053274 1_555
Li3 O4 2.069900 1_555
Li3 O7 2.114831 1_555
Li3 O9 2.135581 1_555
Li3 O8 2.488641 1_555
Li3 O3 2.489110 1_555
Li4 O9 1.939783 1_555
Li4 O5 1.968291 1_555
Li4 O8 1.979078 1_545
Li4 O3 1.987406 1_555
Li5 O4 1.939783 1_555
Li5 O8 1.968291 1_555
Li5 O5 1.979078 1_565
Li5 O10 1.987406 1_555
Li6 O11 2.053274 1_555
Li6 O9 2.069900 1_555
Li6 O0 2.114831 1_555
Li6 O4 2.135581 1_555
Li6 O5 2.488641 1_555
Li6 O10 2.489110 1_555
Cu0 O11 1.864457 1_655
Cu0 O5 1.877497 1_555
Cu0 O1 1.877764 1_555
Cu0 O7 1.889405 1_656
Cu1 O1 1.860793 1_554
Cu1 O3 1.864845 1_555
Cu1 O9 1.871535 1_655
Cu1 O7 1.876196 1_655
Cu2 O11 1.855819 1_655
Cu2 O5 1.859231 1_555
Cu2 O3 1.866826 1_555
Cu2 O9 1.875151 1_655
Cu3 O2 1.864457 1_455
Cu3 O8 1.877497 1_555
Cu3 O6 1.877764 1_555
Cu3 O0 1.889405 1_454
Cu4 O2 1.855819 1_455
Cu4 O8 1.859231 1_555
Cu4 O10 1.866826 1_555
Cu4 O4 1.875151 1_455
Cu5 O6 1.860793 1_556
Cu5 O10 1.864845 1_555
Cu5 O4 1.871535 1_455
Cu5 O0 1.876196 1_455
