# generated using pymatgen
data_SbAsO4
_symmetry_space_group_name_H-M   'P 1'
_cell_length_a   6.97658234
_cell_length_b   4.80222498
_cell_length_c   5.39676060
_cell_angle_alpha   85.12720528
_cell_angle_beta   90.00000000
_cell_angle_gamma   90.00000000
_symmetry_Int_Tables_number   1
_chemical_formula_structural   SbAsO4
_chemical_formula_sum   'Sb2 As2 O8'
_cell_volume   180.15481920
_cell_formula_units_Z   2
loop_
 _symmetry_equiv_pos_site_id
 _symmetry_equiv_pos_as_xyz
  1  'x, y, z'
loop_
 _atom_site_type_symbol
 _atom_site_label
 _atom_site_symmetry_multiplicity
 _atom_site_fract_x
 _atom_site_fract_y
 _atom_site_fract_z
 _atom_site_occupancy
  Sb  Sb0  1  0.75000000  0.19608847  0.32273444  1
  Sb  Sb1  1  0.25000000  0.80391153  0.67726556  1
  As  As0  1  0.75000000  0.71544555  0.89253319  1
  As  As1  1  0.25000000  0.28455445  0.10746681  1
  O  O0  1  0.55950629  0.81799633  0.71805390  1
  O  O1  1  0.05950629  0.18200367  0.28194610  1
  O  O2  1  0.44049371  0.18200367  0.28194610  1
  O  O3  1  0.94049371  0.81799633  0.71805390  1
  O  O4  1  0.75000000  0.81870099  0.18998401  1
  O  O5  1  0.25000000  0.18129901  0.81001599  1
  O  O6  1  0.75000000  0.36006345  0.96061033  1
  O  O7  1  0.25000000  0.63993655  0.03938967  1
loop_
_geom_bond_atom_site_label_1
_geom_bond_atom_site_label_2
_geom_bond_distance
_geom_bond_site_symmetry_2
As0 O3 1.678282 1_555
As0 O0 1.678282 1_555
As0 O6 1.714942 1_555
As0 O4 1.719882 1_556
As1 O2 1.678282 1_555
As1 O1 1.678282 1_555
As1 O7 1.714942 1_555
As1 O5 1.719882 1_554
O0 Sb1 2.172123 1_555
O1 Sb0 2.172123 1_455
O2 Sb0 2.172123 1_555
O3 Sb1 2.172123 1_655
O4 Sb0 2.004562 1_565
O5 Sb1 2.004562 1_545
O6 Sb0 2.043993 1_556
O7 Sb1 2.043993 1_554
