# generated using pymatgen
data_NaCoCSO7
_symmetry_space_group_name_H-M   'P 1'
_cell_length_a   6.64615300
_cell_length_b   5.16044400
_cell_length_c   8.94552492
_cell_angle_alpha   87.93524552
_cell_angle_beta   90.00000000
_cell_angle_gamma   90.00000000
_symmetry_Int_Tables_number   1
_chemical_formula_structural   NaCoCSO7
_chemical_formula_sum   'Na2 Co2 C2 S2 O14'
_cell_volume   306.60637125
_cell_formula_units_Z   2
loop_
 _symmetry_equiv_pos_site_id
 _symmetry_equiv_pos_as_xyz
  1  'x, y, z'
loop_
 _atom_site_type_symbol
 _atom_site_label
 _atom_site_symmetry_multiplicity
 _atom_site_fract_x
 _atom_site_fract_y
 _atom_site_fract_z
 _atom_site_occupancy
  Na  Na0  1  0.52052000  0.76567600  0.76847200  1
  Na  Na1  1  0.02052000  0.23432400  0.23152800  1
  Co  Co0  1  0.23583000  0.21720500  0.65553300  1
  Co  Co1  1  0.73583000  0.78279500  0.34446700  1
  C  C0  1  0.25709100  0.27585500  0.91734500  1
  C  C1  1  0.75709100  0.72414500  0.08265500  1
  S  S0  1  0.74571900  0.27675200  0.57241800  1
  S  S1  1  0.24571900  0.72324800  0.42758200  1
  O  O0  1  0.75425700  0.69144600  0.94626100  1
  O  O1  1  0.25343300  0.05030600  0.85324600  1
  O  O2  1  0.26053500  0.46292800  0.81243500  1
  O  O3  1  0.92282000  0.22164700  0.66695000  1
  O  O4  1  0.56468300  0.19628700  0.65871200  1
  O  O5  1  0.25636400  0.86112300  0.57212600  1
  O  O6  1  0.73089700  0.56360300  0.53505100  1
  O  O7  1  0.23089700  0.43639700  0.46494900  1
  O  O8  1  0.75636400  0.13887700  0.42787400  1
  O  O9  1  0.06468300  0.80371300  0.34128800  1
  O  O10  1  0.42282000  0.77835300  0.33305000  1
  O  O11  1  0.76053500  0.53707200  0.18756500  1
  O  O12  1  0.75343300  0.94969400  0.14675400  1
  O  O13  1  0.25425700  0.30855400  0.05373900  1
loop_
_geom_bond_atom_site_label_1
_geom_bond_atom_site_label_2
_geom_bond_distance
_geom_bond_site_symmetry_2
Na0 O0 2.246213 1_555
Na0 O2 2.353052 1_555
Na0 O4 2.414727 1_565
Na0 O1 2.442082 1_565
Na0 O5 2.519420 1_555
Na0 O6 2.749420 1_555
Na1 O13 2.246213 1_555
Na1 O11 2.353052 1_455
Na1 O9 2.414727 1_545
Na1 O12 2.442082 1_445
Na1 O8 2.519420 1_455
Na1 O7 2.749420 1_555
Co0 O2 1.932134 1_555
Co0 O1 1.942633 1_555
Co0 O7 2.012004 1_555
Co0 O5 2.012628 1_545
Co0 O3 2.082984 1_455
Co0 O4 2.188406 1_555
Co1 O11 1.932134 1_555
Co1 O12 1.942633 1_555
Co1 O6 2.012004 1_555
Co1 O8 2.012628 1_565
Co1 O10 2.082984 1_555
Co1 O9 2.188406 1_655
C0 O13 1.237880 1_556
C0 O1 1.316134 1_555
C0 O2 1.322095 1_555
C1 O0 1.237880 1_554
C1 O12 1.316134 1_555
C1 O11 1.322095 1_555
O3 S0 1.471076 1_555
O4 S0 1.480843 1_555
O5 S1 1.499810 1_555
O6 S0 1.508976 1_555
O7 S1 1.508976 1_555
O8 S0 1.499810 1_555
O9 S1 1.480843 1_555
O10 S1 1.471076 1_555
