# generated using pymatgen
data_Li2Fe3SnO8
_symmetry_space_group_name_H-M   'P 1'
_cell_length_a   6.00493497
_cell_length_b   6.00494625
_cell_length_c   10.74412625
_cell_angle_alpha   73.95572518
_cell_angle_beta   73.95564943
_cell_angle_gamma   60.18447925
_symmetry_Int_Tables_number   1
_chemical_formula_structural   Li2Fe3SnO8
_chemical_formula_sum   'Li4 Fe6 Sn2 O16'
_cell_volume   318.53151845
_cell_formula_units_Z   2
loop_
 _symmetry_equiv_pos_site_id
 _symmetry_equiv_pos_as_xyz
  1  'x, y, z'
loop_
 _atom_site_type_symbol
 _atom_site_label
 _atom_site_symmetry_multiplicity
 _atom_site_fract_x
 _atom_site_fract_y
 _atom_site_fract_z
 _atom_site_occupancy
  Li  Li0  1  0.43809600  0.43809600  0.68630700  1
  Li  Li1  1  0.93808400  0.93808400  0.18633800  1
  Li  Li2  1  0.06191600  0.06191600  0.81366200  1
  Li  Li3  1  0.56190400  0.56190400  0.31369300  1
  Fe  Fe0  1  0.49999900  0.49999600  0.00000000  1
  Fe  Fe1  1  0.00000200  0.49999700  0.00000000  1
  Fe  Fe2  1  0.49999600  0.00000500  0.00000000  1
  Fe  Fe3  1  0.00000100  0.00000100  0.50000000  1
  Fe  Fe4  1  0.49999800  0.00000100  0.49999900  1
  Fe  Fe5  1  0.00000400  0.49999600  0.50000000  1
  Sn  Sn0  1  0.25002000  0.25002100  0.24998400  1
  Sn  Sn1  1  0.74998000  0.74997800  0.75001700  1
  O  O0  1  0.36832400  0.36832300  0.89703100  1
  O  O1  1  0.86832400  0.86832500  0.39703800  1
  O  O2  1  0.13167600  0.13167600  0.60296100  1
  O  O3  1  0.63167600  0.63167700  0.10297000  1
  O  O4  1  0.14132300  0.60140700  0.11615700  1
  O  O5  1  0.64131300  0.10142700  0.61616500  1
  O  O6  1  0.60140800  0.14132400  0.11615700  1
  O  O7  1  0.10142600  0.64131300  0.61616500  1
  O  O8  1  0.14112500  0.14112500  0.11665100  1
  O  O9  1  0.64112700  0.64112800  0.61665700  1
  O  O10  1  0.35887300  0.35887200  0.38334300  1
  O  O11  1  0.85887500  0.85887500  0.88334900  1
  O  O12  1  0.89857400  0.35868700  0.38383500  1
  O  O13  1  0.39859300  0.85867700  0.88384300  1
  O  O14  1  0.35868700  0.89857400  0.38383500  1
  O  O15  1  0.85867700  0.39859400  0.88384300  1
loop_
_geom_bond_atom_site_label_1
_geom_bond_atom_site_label_2
_geom_bond_distance
_geom_bond_site_symmetry_2
Li0 O9 2.000589 1_555
Li0 O5 2.006190 1_555
Li0 O7 2.006193 1_555
Li0 O0 2.145429 1_555
Li1 O8 2.000696 1_665
Li1 O6 2.006426 1_565
Li1 O4 2.006433 1_655
Li1 O1 2.145185 1_555
Li2 O11 2.000696 1_445
Li2 O13 2.006431 1_545
Li2 O15 2.006437 1_455
Li2 O2 2.145195 1_555
Li3 O10 2.000589 1_555
Li3 O12 2.006193 1_555
Li3 O14 2.006194 1_555
Li3 O3 2.145419 1_555
Fe0 O0 2.015711 1_554
Fe0 O3 2.015764 1_555
Fe0 O6 2.048723 1_555
Fe0 O4 2.048735 1_555
Fe0 O15 2.048746 1_554
Fe0 O13 2.048763 1_554
Fe1 O0 2.032950 1_554
Fe1 O3 2.032972 1_455
Fe1 O15 2.041538 1_454
Fe1 O4 2.041549 1_555
Fe1 O8 2.052097 1_555
Fe1 O11 2.052123 1_454
Fe2 O0 2.032938 1_554
Fe2 O3 2.032986 1_545
Fe2 O6 2.041549 1_555
Fe2 O13 2.041552 1_544
Fe2 O8 2.052087 1_555
Fe2 O11 2.052123 1_544
Fe3 O2 2.015654 1_555
Fe3 O1 2.015676 1_445
Fe3 O14 2.048808 1_545
Fe3 O12 2.048813 1_455
Fe3 O5 2.048817 1_455
Fe3 O7 2.048822 1_545
Fe4 O2 2.032924 1_555
Fe4 O1 2.032938 1_545
Fe4 O14 2.041635 1_545
Fe4 O5 2.041666 1_555
Fe4 O10 2.052117 1_555
Fe4 O9 2.052136 1_545
Fe5 O2 2.032916 1_555
Fe5 O1 2.032960 1_455
Fe5 O12 2.041647 1_455
Fe5 O7 2.041650 1_555
Fe5 O10 2.052108 1_555
Fe5 O9 2.052143 1_455
O4 Sn0 2.101890 1_555
O5 Sn1 2.102272 1_545
O6 Sn0 2.101892 1_555
O7 Sn1 2.102255 1_455
O8 Sn0 2.090026 1_555
O9 Sn1 2.089928 1_555
O10 Sn0 2.089922 1_555
O11 Sn1 2.090021 1_555
O12 Sn0 2.102249 1_655
O13 Sn1 2.101883 1_555
O14 Sn0 2.102258 1_565
O15 Sn1 2.101876 1_555
