# generated using pymatgen
data_LiFe(CO3)2
_symmetry_space_group_name_H-M   'P 1'
_cell_length_a   9.99180700
_cell_length_b   7.33547500
_cell_length_c   9.10309477
_cell_angle_alpha   57.42189914
_cell_angle_beta   90.00000000
_cell_angle_gamma   90.00000000
_symmetry_Int_Tables_number   1
_chemical_formula_structural   LiFe(CO3)2
_chemical_formula_sum   'Li4 Fe4 C8 O24'
_cell_volume   562.22845811
_cell_formula_units_Z   4
loop_
 _symmetry_equiv_pos_site_id
 _symmetry_equiv_pos_as_xyz
  1  'x, y, z'
loop_
 _atom_site_type_symbol
 _atom_site_label
 _atom_site_symmetry_multiplicity
 _atom_site_fract_x
 _atom_site_fract_y
 _atom_site_fract_z
 _atom_site_occupancy
  Li  Li0  1  0.61069700  0.65783300  0.83542400  1
  Li  Li1  1  0.11069700  0.34216700  0.66457600  1
  Li  Li2  1  0.88930300  0.65783300  0.33542400  1
  Li  Li3  1  0.38930300  0.34216700  0.16457600  1
  Fe  Fe0  1  0.14603700  0.51409000  0.92527000  1
  Fe  Fe1  1  0.64603700  0.48591000  0.57473000  1
  Fe  Fe2  1  0.35396300  0.51409000  0.42527000  1
  Fe  Fe3  1  0.85396300  0.48591000  0.07473000  1
  C  C0  1  0.38904000  0.46844400  0.77635000  1
  C  C1  1  0.88904000  0.53155600  0.72365000  1
  C  C2  1  0.00894000  0.09400200  0.14057100  1
  C  C3  1  0.50894000  0.90599800  0.35942900  1
  C  C4  1  0.49106000  0.09400200  0.64057100  1
  C  C5  1  0.99106000  0.90599800  0.85942900  1
  C  C6  1  0.11096000  0.46844400  0.27635000  1
  C  C7  1  0.61096000  0.53155600  0.22365000  1
  O  O0  1  0.33992600  0.47720400  0.90578100  1
  O  O1  1  0.01725600  0.53388600  0.73660300  1
  O  O2  1  0.80680700  0.53668600  0.83071600  1
  O  O3  1  0.30680700  0.46331400  0.66928400  1
  O  O4  1  0.51725600  0.46611400  0.76339700  1
  O  O5  1  0.50782500  0.10782200  0.28202800  1
  O  O6  1  0.83992600  0.52279600  0.59421900  1
  O  O7  1  0.90413900  0.19944000  0.14717200  1
  O  O8  1  0.11362400  0.20711900  0.05093700  1
  O  O9  1  0.61362400  0.79288100  0.44906300  1
  O  O10  1  0.40413900  0.80056000  0.35282800  1
  O  O11  1  0.99217500  0.10782200  0.78202800  1
  O  O12  1  0.00782500  0.89217800  0.21797200  1
  O  O13  1  0.59586100  0.19944000  0.64717200  1
  O  O14  1  0.38637600  0.20711900  0.55093700  1
  O  O15  1  0.88637600  0.79288100  0.94906300  1
  O  O16  1  0.09586100  0.80056000  0.85282800  1
  O  O17  1  0.16007400  0.47720400  0.40578100  1
  O  O18  1  0.49217500  0.89217800  0.71797200  1
  O  O19  1  0.48274400  0.53388600  0.23660300  1
  O  O20  1  0.69319300  0.53668600  0.33071600  1
  O  O21  1  0.19319300  0.46331400  0.16928400  1
  O  O22  1  0.98274400  0.46611400  0.26339700  1
  O  O23  1  0.66007400  0.52279600  0.09421900  1
loop_
_geom_bond_atom_site_label_1
_geom_bond_atom_site_label_2
_geom_bond_distance
_geom_bond_site_symmetry_2
Li0 O18 1.876532 1_555
Li0 O23 2.064348 1_556
Li0 O4 2.066983 1_555
Li0 O2 2.161528 1_555
Li1 O11 1.876532 1_455
Li1 O17 2.064348 1_555
Li1 O1 2.066983 1_555
Li1 O3 2.161528 1_555
Li2 O12 1.876532 1_655
Li2 O6 2.064348 1_555
Li2 O22 2.066983 1_555
Li2 O20 2.161528 1_555
Li3 O5 1.876532 1_555
Li3 O0 2.064348 1_554
Li3 O19 2.066983 1_555
Li3 O21 2.161528 1_555
Fe0 O16 1.899936 1_555
Fe0 O8 1.926139 1_556
Fe0 O0 1.977250 1_555
Fe0 O1 2.087558 1_555
Fe0 O21 2.098537 1_556
Fe1 O13 1.899936 1_555
Fe1 O9 1.926139 1_555
Fe1 O6 1.977250 1_555
Fe1 O4 2.087558 1_555
Fe1 O20 2.098537 1_555
Fe2 O10 1.899936 1_555
Fe2 O14 1.926139 1_555
Fe2 O17 1.977250 1_555
Fe2 O19 2.087558 1_555
Fe2 O3 2.098537 1_555
Fe3 O7 1.899936 1_555
Fe3 O15 1.926139 1_554
Fe3 O23 1.977250 1_555
Fe3 O22 2.087558 1_555
Fe3 O2 2.098537 1_554
C0 O4 1.287481 1_555
C0 O3 1.290713 1_555
C0 O0 1.309463 1_555
C1 O1 1.287481 1_655
C1 O2 1.290713 1_555
C1 O6 1.309463 1_555
C2 O12 1.251014 1_545
C2 O8 1.311203 1_555
C2 O7 1.322268 1_455
C3 O5 1.251014 1_565
C3 O9 1.311203 1_555
C3 O10 1.322268 1_555
C4 O18 1.251014 1_545
C4 O14 1.311203 1_555
C4 O13 1.322268 1_555
C5 O11 1.251014 1_565
C5 O15 1.311203 1_555
C5 O16 1.322268 1_655
C6 O22 1.287481 1_455
C6 O21 1.290713 1_555
C6 O17 1.309463 1_555
C7 O19 1.287481 1_555
C7 O20 1.290713 1_555
C7 O23 1.309463 1_555
