# generated using pymatgen
data_Li3Co4WO8
_symmetry_space_group_name_H-M   'P 1'
_cell_length_a   6.01513076
_cell_length_b   6.01513076
_cell_length_c   6.17494389
_cell_angle_alpha   59.27952600
_cell_angle_beta   59.27952600
_cell_angle_gamma   61.56438915
_symmetry_Int_Tables_number   1
_chemical_formula_structural   Li3Co4WO8
_chemical_formula_sum   'Li3 Co4 W1 O8'
_cell_volume   157.95947785
_cell_formula_units_Z   1
loop_
 _symmetry_equiv_pos_site_id
 _symmetry_equiv_pos_as_xyz
  1  'x, y, z'
loop_
 _atom_site_type_symbol
 _atom_site_label
 _atom_site_symmetry_multiplicity
 _atom_site_fract_x
 _atom_site_fract_y
 _atom_site_fract_z
 _atom_site_occupancy
  Li  Li0  1  0.00000000  0.50000000  0.00000000  1
  Li  Li1  1  0.50000000  0.00000000  0.00000000  1
  Li  Li2  1  0.00000000  0.00000000  0.50000000  1
  Co  Co0  1  0.00000000  0.00000000  0.00000000  1
  Co  Co1  1  0.50000000  0.00000000  0.50000000  1
  Co  Co2  1  0.00000000  0.50000000  0.50000000  1
  Co  Co3  1  0.50000000  0.50000000  0.50000000  1
  W  W0  1  0.50000000  0.50000000  0.00000000  1
  O  O0  1  0.73528200  0.73528200  0.76885100  1
  O  O1  1  0.26551600  0.74099000  0.23454900  1
  O  O2  1  0.74099000  0.26551600  0.23454900  1
  O  O3  1  0.26471800  0.26471800  0.23114900  1
  O  O4  1  0.24961800  0.24961800  0.72757000  1
  O  O5  1  0.73448400  0.25901000  0.76545100  1
  O  O6  1  0.25901000  0.73448400  0.76545100  1
  O  O7  1  0.75038200  0.75038200  0.27243000  1
loop_
_geom_bond_atom_site_label_1
_geom_bond_atom_site_label_2
_geom_bond_distance
_geom_bond_site_symmetry_2
Li0 O2 2.052924 1_455
Li0 O6 2.052924 1_554
Li0 O0 2.165124 1_454
Li0 O3 2.165124 1_555
Li0 O7 2.281881 1_455
Li0 O4 2.281881 1_554
Li1 O5 2.052924 1_554
Li1 O1 2.052924 1_545
Li1 O3 2.165124 1_555
Li1 O0 2.165124 1_544
Li1 O4 2.281881 1_554
Li1 O7 2.281881 1_545
Li2 O3 2.199991 1_555
Li2 O0 2.199991 1_445
Li2 O2 2.286842 1_455
Li2 O1 2.286842 1_545
Li2 O6 2.286842 1_545
Li2 O5 2.286842 1_455
Co0 O4 2.079548 1_554
Co0 O7 2.079548 1_445
Co0 O5 2.182647 1_454
Co0 O2 2.182647 1_455
Co0 O6 2.182647 1_544
Co0 O1 2.182647 1_545
Co1 O7 2.082602 1_545
Co1 O4 2.082602 1_555
Co1 O6 2.107447 1_545
Co1 O2 2.107447 1_555
Co1 O3 2.201820 1_555
Co1 O0 2.201820 1_545
Co2 O7 2.082602 1_455
Co2 O4 2.082602 1_555
Co2 O5 2.107447 1_455
Co2 O1 2.107447 1_555
Co2 O0 2.201820 1_455
Co2 O3 2.201820 1_555
Co3 O4 2.084891 1_555
Co3 O7 2.084891 1_555
Co3 O1 2.182843 1_555
Co3 O5 2.182843 1_555
Co3 O2 2.182843 1_555
Co3 O6 2.182843 1_555
O0 W0 1.955222 1_556
O1 W0 2.073428 1_555
O2 W0 2.073428 1_555
O3 W0 1.955222 1_555
O5 W0 2.073428 1_556
O6 W0 2.073428 1_556
