# generated using pymatgen
data_Li4Co3CuO8
_symmetry_space_group_name_H-M   'P 1'
_cell_length_a   5.93960713
_cell_length_b   5.93960713
_cell_length_c   5.93960782
_cell_angle_alpha   58.80836412
_cell_angle_beta   58.80836412
_cell_angle_gamma   58.80836123
_symmetry_Int_Tables_number   1
_chemical_formula_structural   Li4Co3CuO8
_chemical_formula_sum   'Li4 Co3 Cu1 O8'
_cell_volume   144.13731175
_cell_formula_units_Z   1
loop_
 _symmetry_equiv_pos_site_id
 _symmetry_equiv_pos_as_xyz
  1  'x, y, z'
loop_
 _atom_site_type_symbol
 _atom_site_label
 _atom_site_symmetry_multiplicity
 _atom_site_fract_x
 _atom_site_fract_y
 _atom_site_fract_z
 _atom_site_occupancy
  Li  Li0  1  0.00000000  0.00000000  0.50000000  1
  Li  Li1  1  0.00000000  0.50000000  0.00000000  1
  Li  Li2  1  0.50000000  0.00000000  0.00000000  1
  Li  Li3  1  0.50000000  0.50000000  0.50000000  1
  Co  Co0  1  0.00000000  0.50000000  0.50000000  1
  Co  Co1  1  0.50000000  0.00000000  0.50000000  1
  Co  Co2  1  0.50000000  0.50000000  0.00000000  1
  Cu  Cu0  1  0.00000000  0.00000000  0.00000000  1
  O  O0  1  0.75379500  0.75379500  0.26230100  1
  O  O1  1  0.75379500  0.26230100  0.75379500  1
  O  O2  1  0.26230100  0.75379500  0.75379500  1
  O  O3  1  0.25585200  0.25585200  0.25585200  1
  O  O4  1  0.74414800  0.74414800  0.74414800  1
  O  O5  1  0.73769900  0.24620500  0.24620500  1
  O  O6  1  0.24620500  0.73769900  0.24620500  1
  O  O7  1  0.24620500  0.24620500  0.73769900  1
loop_
_geom_bond_atom_site_label_1
_geom_bond_atom_site_label_2
_geom_bond_distance
_geom_bond_site_symmetry_2
Li0 O4 2.132709 1_445
Li0 O3 2.132709 1_555
Li0 O1 2.151171 1_455
Li0 O5 2.151171 1_455
Li0 O6 2.151171 1_545
Li0 O2 2.151171 1_545
Li1 O4 2.132709 1_454
Li1 O3 2.132709 1_555
Li1 O5 2.151171 1_455
Li1 O2 2.151171 1_554
Li1 O0 2.151171 1_455
Li1 O7 2.151171 1_554
Li2 O4 2.132709 1_544
Li2 O3 2.132709 1_555
Li2 O1 2.151171 1_554
Li2 O6 2.151171 1_545
Li2 O0 2.151171 1_545
Li2 O7 2.151171 1_554
Li3 O0 2.117278 1_555
Li3 O7 2.117278 1_555
Li3 O2 2.117278 1_555
Li3 O5 2.117278 1_555
Li3 O6 2.117278 1_555
Li3 O1 2.117278 1_555
Co0 O6 2.013676 1_555
Co0 O1 2.013676 1_455
Co0 O0 2.013676 1_455
Co0 O7 2.013676 1_555
Co0 O3 2.031785 1_555
Co0 O4 2.031785 1_455
Co1 O5 2.013676 1_555
Co1 O2 2.013676 1_545
Co1 O7 2.013676 1_555
Co1 O0 2.013676 1_545
Co1 O3 2.031785 1_555
Co1 O4 2.031785 1_545
Co2 O1 2.013676 1_554
Co2 O2 2.013676 1_554
Co2 O5 2.013676 1_555
Co2 O6 2.013676 1_555
Co2 O3 2.031785 1_555
Co2 O4 2.031785 1_554
Cu0 O0 2.049283 1_445
Cu0 O7 2.049283 1_554
Cu0 O6 2.049283 1_545
Cu0 O1 2.049283 1_454
Cu0 O2 2.049283 1_544
Cu0 O5 2.049283 1_455
