# generated using pymatgen
data_C3IN
_symmetry_space_group_name_H-M   'P 1'
_cell_length_a   8.67259700
_cell_length_b   6.04285100
_cell_length_c   6.83819641
_cell_angle_alpha   65.76728626
_cell_angle_beta   90.00000000
_cell_angle_gamma   90.00000000
_symmetry_Int_Tables_number   1
_chemical_formula_structural   C3IN
_chemical_formula_sum   'C6 I2 N2'
_cell_volume   326.79329014
_cell_formula_units_Z   2
loop_
 _symmetry_equiv_pos_site_id
 _symmetry_equiv_pos_as_xyz
  1  'x, y, z'
loop_
 _atom_site_type_symbol
 _atom_site_label
 _atom_site_symmetry_multiplicity
 _atom_site_fract_x
 _atom_site_fract_y
 _atom_site_fract_z
 _atom_site_occupancy
  C  C0  1  0.75000000  0.11096700  0.77751900  1
  C  C1  1  0.25000000  0.88903300  0.22248100  1
  C  C2  1  0.67334900  0.32826500  0.36480200  1
  C  C3  1  0.17334900  0.67173500  0.63519800  1
  C  C4  1  0.32665100  0.67173500  0.63519800  1
  C  C5  1  0.82665100  0.32826500  0.36480200  1
  I  I0  1  0.75000000  0.82176500  0.06299500  1
  I  I1  1  0.25000000  0.17823500  0.93700500  1
  N  N0  1  0.75000000  0.21301800  0.58698600  1
  N  N1  1  0.25000000  0.78698200  0.41301400  1
loop_
_geom_bond_atom_site_label_1
_geom_bond_atom_site_label_2
_geom_bond_distance
_geom_bond_site_symmetry_2
C0 N0 1.190918 1_555
C0 I0 2.016051 1_546
C1 N1 1.190918 1_555
C1 I1 2.016051 1_564
C2 C5 1.329526 1_555
C2 N0 1.538415 1_555
C3 C4 1.329526 1_555
C3 N1 1.538415 1_555
C4 N1 1.538415 1_555
C5 N0 1.538415 1_555
