# generated using pymatgen
data_Ga7(Fe3O8)3
_symmetry_space_group_name_H-M   'P 1'
_cell_length_a   5.17916600
_cell_length_b   8.86258984
_cell_length_c   9.54794725
_cell_angle_alpha   89.99329781
_cell_angle_beta   89.82767339
_cell_angle_gamma   89.90248336
_symmetry_Int_Tables_number   1
_chemical_formula_structural   Ga7(Fe3O8)3
_chemical_formula_sum   'Ga7 Fe9 O24'
_cell_volume   438.25602586
_cell_formula_units_Z   1
loop_
 _symmetry_equiv_pos_site_id
 _symmetry_equiv_pos_as_xyz
  1  'x, y, z'
loop_
 _atom_site_type_symbol
 _atom_site_label
 _atom_site_symmetry_multiplicity
 _atom_site_fract_x
 _atom_site_fract_y
 _atom_site_fract_z
 _atom_site_occupancy
  Ga  Ga0  1  0.82443500  0.15377800  0.42046200  1
  Ga  Ga1  1  0.81259400  0.14808200  0.83346000  1
  Ga  Ga2  1  0.68849500  0.33971600  0.11275200  1
  Ga  Ga3  1  0.32650800  0.34644800  0.41973200  1
  Ga  Ga4  1  0.67540600  0.65361500  0.92148100  1
  Ga  Ga5  1  0.81318000  0.84118500  0.61464300  1
  Ga  Ga6  1  0.17224100  0.84729100  0.92077400  1
  Fe  Fe0  1  0.32451600  0.03238400  0.62352800  1
  Fe  Fe1  1  0.18649800  0.16126600  0.11283800  1
  Fe  Fe2  1  0.31330300  0.34707800  0.83927500  1
  Fe  Fe3  1  0.82737200  0.46574800  0.62509100  1
  Fe  Fe4  1  0.17415800  0.52949900  0.12165000  1
  Fe  Fe5  1  0.68788200  0.65148400  0.33678500  1
  Fe  Fe6  1  0.31479400  0.66114600  0.61307800  1
  Fe  Fe7  1  0.18443900  0.84543800  0.34075200  1
  Fe  Fe8  1  0.67036600  0.96955400  0.12300900  1
  O  O0  1  0.33997800  0.99797200  0.21959600  1
  O  O1  1  0.97845300  0.01296000  0.98425000  1
  O  O2  1  0.84269500  0.16101800  0.22349500  1
  O  O3  1  0.48656300  0.16951200  0.48134200  1
  O  O4  1  0.53103600  0.17651700  0.99577400  1
  O  O5  1  0.15135600  0.17054100  0.75065300  1
  O  O6  1  0.65937300  0.32574000  0.75099900  1
  O  O7  1  0.02660400  0.32924700  0.99770400  1
  O  O8  1  0.98850900  0.33081000  0.48053600  1
  O  O9  1  0.34880900  0.34038800  0.22315100  1
  O  O10  1  0.48769100  0.48919300  0.98829600  1
  O  O11  1  0.84445700  0.49754700  0.21850000  1
  O  O12  1  0.15705100  0.49790900  0.71929500  1
  O  O13  1  0.51961900  0.50859100  0.48825400  1
  O  O14  1  0.65935300  0.65958500  0.72386500  1
  O  O15  1  0.01288600  0.67026400  0.98096200  1
  O  O16  1  0.97662000  0.68102900  0.49561300  1
  O  O17  1  0.34451300  0.66850600  0.24984300  1
  O  O18  1  0.84270400  0.83046100  0.24864400  1
  O  O19  1  0.48051700  0.82735700  0.49674900  1
  O  O20  1  0.50966800  0.83068300  0.98081000  1
  O  O21  1  0.15103900  0.84200500  0.72384400  1
  O  O22  1  0.01285200  0.99045900  0.48998700  1
  O  O23  1  0.65146700  0.99799500  0.72053000  1
loop_
_geom_bond_atom_site_label_1
_geom_bond_atom_site_label_2
_geom_bond_distance
_geom_bond_site_symmetry_2
Ga0 O3 1.847304 1_555
Ga0 O22 1.867309 1_645
Ga0 O8 1.876279 1_555
Ga0 O2 1.883814 1_555
Ga1 O23 1.907320 1_545
Ga1 O6 1.930783 1_555
Ga1 O5 1.932827 1_655
Ga1 O1 2.061153 1_555
Ga1 O4 2.139387 1_555
Ga1 O7 2.506550 1_655
Ga2 O11 1.907252 1_555
Ga2 O4 2.003587 1_554
Ga2 O9 2.048180 1_555
Ga2 O10 2.061795 1_554
Ga2 O2 2.065044 1_555
Ga2 O7 2.066296 1_654
Ga3 O8 1.848075 1_455
Ga3 O3 1.868278 1_555
Ga3 O13 1.871465 1_555
Ga3 O9 1.880916 1_555
Ga4 O15 1.845591 1_655
Ga4 O10 1.864533 1_555
Ga4 O20 1.874314 1_555
Ga4 O14 1.889639 1_555
Ga5 O23 1.909517 1_555
Ga5 O16 2.003331 1_555
Ga5 O21 2.039627 1_655
Ga5 O22 2.057456 1_655
Ga5 O19 2.064693 1_555
Ga5 O14 2.076426 1_555
Ga6 O20 1.846469 1_555
Ga6 O15 1.863936 1_555
Ga6 O1 1.876688 1_465
Ga6 O21 1.884403 1_555
Fe0 O5 1.940838 1_555
Fe0 O23 1.955932 1_545
Fe0 O3 2.005147 1_555
Fe0 O22 2.093761 1_545
Fe0 O21 2.138005 1_545
Fe0 O19 2.325818 1_545
Fe1 O0 1.940593 1_545
Fe1 O7 2.027680 1_554
Fe1 O2 2.067746 1_455
Fe1 O9 2.084802 1_555
Fe1 O1 2.099790 1_454
Fe1 O4 2.107252 1_554
Fe2 O12 1.937951 1_555
Fe2 O5 1.968864 1_555
Fe2 O6 1.987082 1_555
Fe2 O10 2.106801 1_555
Fe2 O7 2.122544 1_555
Fe2 O4 2.406905 1_555
Fe3 O6 1.933640 1_555
Fe3 O12 1.953623 1_655
Fe3 O8 2.005413 1_555
Fe3 O13 2.098101 1_555
Fe3 O14 2.142006 1_555
Fe3 O16 2.400998 1_555
Fe4 O17 1.950603 1_555
Fe4 O11 1.960407 1_455
Fe4 O15 2.015249 1_554
Fe4 O10 2.090774 1_554
Fe4 O9 2.136858 1_555
Fe4 O7 2.268217 1_554
Fe5 O11 1.945623 1_555
Fe5 O18 1.966515 1_555
Fe5 O17 1.970374 1_555
Fe5 O13 2.109624 1_555
Fe5 O16 2.149333 1_555
Fe5 O19 2.429129 1_555
Fe6 O12 1.946177 1_555
Fe6 O19 2.034317 1_555
Fe6 O14 2.077238 1_555
Fe6 O13 2.088455 1_555
Fe6 O16 2.089798 1_455
Fe6 O21 2.096994 1_555
Fe7 O0 1.952516 1_555
Fe7 O17 1.972603 1_555
Fe7 O18 1.983376 1_455
Fe7 O22 2.112078 1_555
Fe7 O19 2.146723 1_555
Fe7 O16 2.337333 1_455
Fe8 O18 1.938445 1_555
Fe8 O0 1.957288 1_555
Fe8 O20 2.015317 1_554
Fe8 O1 2.106787 1_564
Fe8 O2 2.146428 1_565
Fe8 O4 2.315423 1_564
