# generated using pymatgen
data_Li2VCr(P2O7)2
_symmetry_space_group_name_H-M   'P 1'
_cell_length_a   7.02177400
_cell_length_b   8.22326490
_cell_length_c   14.03941984
_cell_angle_alpha   90.05547394
_cell_angle_beta   99.56848090
_cell_angle_gamma   90.07942281
_symmetry_Int_Tables_number   1
_chemical_formula_structural   Li2VCr(P2O7)2
_chemical_formula_sum   'Li6 V3 Cr3 P12 O42'
_cell_volume   799.38328311
_cell_formula_units_Z   3
loop_
 _symmetry_equiv_pos_site_id
 _symmetry_equiv_pos_as_xyz
  1  'x, y, z'
loop_
 _atom_site_type_symbol
 _atom_site_label
 _atom_site_symmetry_multiplicity
 _atom_site_fract_x
 _atom_site_fract_y
 _atom_site_fract_z
 _atom_site_occupancy
  Li  Li0  1  0.38276400  0.86282500  0.05901800  1
  Li  Li1  1  0.95129100  0.36293700  0.27452500  1
  Li  Li2  1  0.71543200  0.86289600  0.39204200  1
  Li  Li3  1  0.28418800  0.36259300  0.60788900  1
  Li  Li4  1  0.04890300  0.86317400  0.72569900  1
  Li  Li5  1  0.61715500  0.36286800  0.94091700  1
  V  V0  1  0.99008200  0.99948200  0.26116900  1
  V  V1  1  0.67640000  0.49959100  0.40526400  1
  V  V2  1  0.00947300  0.49967400  0.73910500  1
  Cr  Cr0  1  0.34344300  0.50003900  0.07119700  1
  Cr  Cr1  1  0.32272600  0.99995900  0.59561800  1
  Cr  Cr2  1  0.65647000  0.99998600  0.92861200  1
  P  P0  1  0.60992000  0.18069100  0.13294000  1
  P  P1  1  0.98478700  0.78309200  0.07015600  1
  P  P2  1  0.34781400  0.28491300  0.26183500  1
  P  P3  1  0.72113400  0.67958200  0.19950500  1
  P  P4  1  0.31896000  0.78510000  0.40460300  1
  P  P5  1  0.05680100  0.68077900  0.53332100  1
  P  P6  1  0.94559800  0.17983500  0.46699300  1
  P  P7  1  0.68052600  0.28234000  0.59577700  1
  P  P8  1  0.27902900  0.17949200  0.80002200  1
  P  P9  1  0.65093000  0.78568600  0.73740100  1
  P  P10  1  0.01538300  0.28271800  0.92958600  1
  P  P11  1  0.39033700  0.68055100  0.86693300  1
  O  O0  1  0.16353000  0.32313600  0.01793400  1
  O  O1  1  0.15976900  0.69309400  0.04361900  1
  O  O2  1  0.05158400  0.93354200  0.13194800  1
  O  O3  1  0.58018200  0.03798100  0.06186600  1
  O  O4  1  0.57301700  0.34623000  0.08243500  1
  O  O5  1  0.52561100  0.67837400  0.13229700  1
  O  O6  1  0.28431200  0.43480900  0.19990500  1
  O  O7  1  0.44466600  0.15192400  0.19815300  1
  O  O8  1  0.88849500  0.65182300  0.13483500  1
  O  O9  1  0.17428800  0.19700100  0.28972000  1
  O  O10  1  0.16799200  0.82339600  0.31648500  1
  O  O11  1  0.80593300  0.17984000  0.20023000  1
  O  O12  1  0.75589400  0.84397000  0.25062200  1
  O  O13  1  0.75367200  0.53693800  0.27080300  1
  O  O14  1  0.49871700  0.32337100  0.35005800  1
  O  O15  1  0.49234200  0.69686300  0.37685300  1
  O  O16  1  0.22195900  0.65203300  0.46819300  1
  O  O17  1  0.38272800  0.93493700  0.46678300  1
  O  O18  1  0.14078700  0.17865900  0.53432400  1
  O  O19  1  0.91296800  0.03717000  0.39554300  1
  O  O20  1  0.91039400  0.34416600  0.41608700  1
  O  O21  1  0.09357100  0.84612500  0.58409200  1
  O  O22  1  0.08689300  0.53847100  0.60475100  1
  O  O23  1  0.86072000  0.67968200  0.46620300  1
  O  O24  1  0.61466800  0.43315300  0.53464400  1
  O  O25  1  0.77795900  0.15166400  0.53159400  1
  O  O26  1  0.50632400  0.19275600  0.62296300  1
  O  O27  1  0.50178000  0.82413400  0.64901400  1
  O  O28  1  0.24701500  0.03651400  0.72898200  1
  O  O29  1  0.24417300  0.34411200  0.74926200  1
  O  O30  1  0.19390300  0.67957700  0.79982400  1
  O  O31  1  0.83066800  0.32244800  0.68380800  1
  O  O32  1  0.82505300  0.69714500  0.71010600  1
  O  O33  1  0.11148900  0.15160800  0.86474700  1
  O  O34  1  0.55529000  0.65204600  0.80171000  1
  O  O35  1  0.71564100  0.93506300  0.80001000  1
  O  O36  1  0.47431300  0.17845300  0.86755600  1
  O  O37  1  0.42691000  0.84617700  0.91761500  1
  O  O38  1  0.41979100  0.53801300  0.93803200  1
  O  O39  1  0.94875400  0.43326600  0.86809800  1
  O  O40  1  0.84023500  0.19299900  0.95621700  1
  O  O41  1  0.83647000  0.82327500  0.98195400  1
loop_
_geom_bond_atom_site_label_1
_geom_bond_atom_site_label_2
_geom_bond_distance
_geom_bond_site_symmetry_2
Li0 O3 1.993430 1_565
Li0 O5 2.007319 1_555
Li0 O37 2.063999 1_554
Li0 O1 2.080252 1_555
Li1 O13 1.989260 1_555
Li1 O11 2.008856 1_555
Li1 O20 2.060693 1_555
Li1 O9 2.062702 1_655
Li2 O19 1.987913 1_565
Li2 O23 2.012184 1_555
Li2 O12 2.057677 1_555
Li2 O15 2.060569 1_555
Li3 O22 1.999578 1_555
Li3 O18 2.003843 1_555
Li3 O29 2.056045 1_555
Li3 O26 2.079695 1_555
Li4 O28 1.985488 1_565
Li4 O30 2.013476 1_555
Li4 O32 2.064383 1_455
Li4 O21 2.068183 1_555
Li5 O38 1.995884 1_555
Li5 O36 2.003966 1_555
Li5 O4 2.065767 1_556
Li5 O40 2.084672 1_555
Cr0 O0 1.987479 1_555
Cr0 O6 1.993993 1_555
Cr0 O4 2.035860 1_555
Cr0 O5 2.037211 1_555
Cr0 O1 2.043141 1_555
Cr0 O38 2.052813 1_554
Cr1 O27 1.981669 1_555
Cr1 O17 1.996786 1_555
Cr1 O21 2.030511 1_555
Cr1 O26 2.037536 1_565
Cr1 O18 2.043086 1_565
Cr1 O28 2.051577 1_565
Cr2 O41 1.990595 1_555
Cr2 O35 1.991386 1_555
Cr2 O37 2.033003 1_555
Cr2 O40 2.039924 1_565
Cr2 O36 2.041499 1_565
Cr2 O3 2.053532 1_566
O0 P10 1.516695 1_554
O1 P1 1.533087 1_455
O2 P1 1.537618 1_455
O2 V0 2.007737 1_455
O3 P0 1.531100 1_555
O4 P0 1.537770 1_555
O5 P3 1.531204 1_555
O6 P2 1.532607 1_555
O7 P0 1.610441 1_555
O7 P2 1.630986 1_555
O8 P3 1.616332 1_555
O8 P1 1.628176 1_555
O9 P2 1.522241 1_555
O9 V0 2.071819 1_445
O10 P4 1.522852 1_555
O10 V0 1.986225 1_455
O11 P0 1.534490 1_555
O11 V0 2.060005 1_545
O12 P3 1.530017 1_555
O12 V0 2.067426 1_555
O13 P3 1.535278 1_555
O13 V1 2.072081 1_555
O14 P2 1.522794 1_555
O14 V1 1.982065 1_555
O15 P4 1.523169 1_555
O15 V1 2.072852 1_555
O16 P5 1.609257 1_555
O16 P4 1.631046 1_555
O17 P4 1.532058 1_555
O18 P6 1.530185 1_455
O19 P6 1.534809 1_555
O19 V0 2.070554 1_545
O20 P6 1.530380 1_555
O20 V1 2.068684 1_555
O21 P5 1.536049 1_555
O22 P5 1.533718 1_555
O22 V2 2.072884 1_555
O23 P5 1.533725 1_655
O23 V1 2.055319 1_555
O24 P7 1.536300 1_555
O24 V1 2.012160 1_555
O25 P6 1.617541 1_555
O25 P7 1.624770 1_555
O26 P7 1.529005 1_555
O27 P9 1.518637 1_555
O28 P8 1.533003 1_555
O29 P8 1.531373 1_555
O29 V2 2.073829 1_555
O30 P11 1.535636 1_555
O30 V2 2.053681 1_555
O31 P7 1.520783 1_555
O31 V2 1.992909 1_655
O32 P9 1.526283 1_555
O32 V2 2.076393 1_655
O33 P8 1.617824 1_555
O33 P10 1.628130 1_555
O34 P11 1.608711 1_555
O34 P9 1.635638 1_555
O35 P9 1.533480 1_555
O36 P8 1.532043 1_555
O37 P11 1.537420 1_555
O38 P11 1.532104 1_555
O39 P10 1.538225 1_655
O39 V2 2.004403 1_655
O40 P10 1.532165 1_655
O41 P1 1.516643 1_556
