# generated using pymatgen
data_NaYH8(CO3)4
_symmetry_space_group_name_H-M   'P 1'
_cell_length_a   8.65442500
_cell_length_b   8.78721200
_cell_length_c   15.03030096
_cell_angle_alpha   76.72540400
_cell_angle_beta   90.00000000
_cell_angle_gamma   90.00000000
_symmetry_Int_Tables_number   1
_chemical_formula_structural   NaYH8(CO3)4
_chemical_formula_sum   'Na4 Y4 H32 C16 O48'
_cell_volume   1112.48751473
_cell_formula_units_Z   4
loop_
 _symmetry_equiv_pos_site_id
 _symmetry_equiv_pos_as_xyz
  1  'x, y, z'
loop_
 _atom_site_type_symbol
 _atom_site_label
 _atom_site_symmetry_multiplicity
 _atom_site_fract_x
 _atom_site_fract_y
 _atom_site_fract_z
 _atom_site_occupancy
  Na  Na0  1  0.67834200  0.00745100  0.52204000  1
  Na  Na1  1  0.32165800  0.00745100  0.02204000  1
  Na  Na2  1  0.37989300  0.68519800  0.51737700  1
  Na  Na3  1  0.62010700  0.68519800  0.01737700  1
  Y  Y0  1  0.40572700  0.33749200  0.73417100  1
  Y  Y1  1  0.59427300  0.33749200  0.23417100  1
  Y  Y2  1  0.90527200  0.80534400  0.80442000  1
  Y  Y3  1  0.09472800  0.80534400  0.30442000  1
  H  H0  1  0.03907500  0.64492500  0.51016300  1
  H  H1  1  0.96092500  0.64492500  0.01016300  1
  H  H2  1  0.05240800  0.82863800  0.50163400  1
  H  H3  1  0.94759200  0.82863800  0.00163400  1
  H  H4  1  0.32157500  0.35733500  0.53136300  1
  H  H5  1  0.67842500  0.35733500  0.03136300  1
  H  H6  1  0.50602000  0.36544300  0.53702000  1
  H  H7  1  0.49398000  0.36544300  0.03702000  1
  H  H8  1  0.71657800  0.76399000  0.44163200  1
  H  H9  1  0.28342200  0.76399000  0.94163200  1
  H  H10  1  0.70929700  0.65298100  0.53955200  1
  H  H11  1  0.29070300  0.65298100  0.03955200  1
  H  H12  1  0.02642200  0.10615100  0.49169900  1
  H  H13  1  0.97357800  0.10615100  0.99169900  1
  H  H14  1  0.97930500  0.02937600  0.59137500  1
  H  H15  1  0.02069500  0.02937600  0.09137500  1
  H  H16  1  0.77465900  0.33648200  0.54524700  1
  H  H17  1  0.22534100  0.33648200  0.04524700  1
  H  H18  1  0.72722500  0.32894700  0.44715900  1
  H  H19  1  0.27277500  0.32894700  0.94715900  1
  H  H20  1  0.31733200  0.00853200  0.49725900  1
  H  H21  1  0.68266800  0.00853200  0.99725900  1
  H  H22  1  0.37822200  0.97238600  0.59798600  1
  H  H23  1  0.62177800  0.97238600  0.09798600  1
  H  H24  1  0.90376600  0.49002500  0.63160700  1
  H  H25  1  0.09623400  0.49002500  0.13160700  1
  H  H26  1  0.02706100  0.37483400  0.60672900  1
  H  H27  1  0.97293900  0.37483400  0.10672900  1
  H  H28  1  0.23280100  0.27599500  0.40788600  1
  H  H29  1  0.76719900  0.27599500  0.90788600  1
  H  H30  1  0.09539400  0.38277400  0.42714500  1
  H  H31  1  0.90460600  0.38277400  0.92714500  1
  C  C0  1  0.17938300  0.63217800  0.72295400  1
  C  C1  1  0.82061700  0.63217800  0.22295400  1
  C  C2  1  0.13061200  0.51522300  0.81254100  1
  C  C3  1  0.86938800  0.51522300  0.31254100  1
  C  C4  1  0.62561100  0.04393600  0.72496400  1
  C  C5  1  0.37438900  0.04393600  0.22496400  1
  C  C6  1  0.68047200  0.09114300  0.81290500  1
  C  C7  1  0.31952800  0.09114300  0.31290500  1
  C  C8  1  0.11375300  0.11433200  0.72763100  1
  C  C9  1  0.88624700  0.11433200  0.22763100  1
  C  C10  1  0.19925700  0.02852800  0.81565500  1
  C  C11  1  0.80074300  0.02852800  0.31565500  1
  C  C12  1  0.69227900  0.56671400  0.72584500  1
  C  C13  1  0.30772100  0.56671400  0.22584500  1
  C  C14  1  0.60889600  0.58109500  0.81475200  1
  C  C15  1  0.39110400  0.58109500  0.31475200  1
  O  O0  1  0.09395800  0.74034500  0.47772800  1
  O  O1  1  0.90604200  0.74034500  0.97772800  1
  O  O2  1  0.40789200  0.39973200  0.56169700  1
  O  O3  1  0.59210800  0.39973200  0.06169700  1
  O  O4  1  0.65451400  0.73732100  0.49799700  1
  O  O5  1  0.34548600  0.73732100  0.99799700  1
  O  O6  1  0.96932400  0.01582300  0.52806500  1
  O  O7  1  0.03067600  0.01582300  0.02806500  1
  O  O8  1  0.69341000  0.29370600  0.51147900  1
  O  O9  1  0.30659000  0.29370600  0.01147900  1
  O  O10  1  0.39495400  0.94895900  0.53830200  1
  O  O11  1  0.60504600  0.94895900  0.03830200  1
  O  O12  1  0.94364000  0.44862800  0.58054600  1
  O  O13  1  0.05636000  0.44862800  0.08054600  1
  O  O14  1  0.16344700  0.29521600  0.45653300  1
  O  O15  1  0.83655300  0.29521600  0.95653300  1
  O  O16  1  0.28273600  0.58488500  0.67532800  1
  O  O17  1  0.71726400  0.58488500  0.17532800  1
  O  O18  1  0.11259300  0.76257100  0.70454800  1
  O  O19  1  0.88740700  0.76257100  0.20454800  1
  O  O20  1  0.19913000  0.38456300  0.83207400  1
  O  O21  1  0.80087000  0.38456300  0.33207400  1
  O  O22  1  0.97559300  0.55683500  0.36008800  1
  O  O23  1  0.02440700  0.55683500  0.86008800  1
  O  O24  1  0.69799700  0.93461000  0.70119900  1
  O  O25  1  0.30200300  0.93461000  0.20119900  1
  O  O26  1  0.51229100  0.11929700  0.68285500  1
  O  O27  1  0.48770900  0.11929700  0.18285500  1
  O  O28  1  0.77686900  0.00294000  0.86335600  1
  O  O29  1  0.22313100  0.00294000  0.36335600  1
  O  O30  1  0.62521300  0.21613500  0.82889100  1
  O  O31  1  0.37478700  0.21613500  0.32889100  1
  O  O32  1  0.17314300  0.23953200  0.68092600  1
  O  O33  1  0.82685700  0.23953200  0.18092600  1
  O  O34  1  0.98995000  0.05295700  0.70818600  1
  O  O35  1  0.01005000  0.05295700  0.20818600  1
  O  O36  1  0.31729700  0.09354900  0.83995000  1
  O  O37  1  0.68270300  0.09354900  0.33995000  1
  O  O38  1  0.14314400  0.89799500  0.85696600  1
  O  O39  1  0.85685600  0.89799500  0.35696600  1
  O  O40  1  0.82153200  0.63398100  0.70776900  1
  O  O41  1  0.17846800  0.63398100  0.20776900  1
  O  O42  1  0.62727300  0.48588100  0.67660300  1
  O  O43  1  0.37272700  0.48588100  0.17660300  1
  O  O44  1  0.67308700  0.66710000  0.86138600  1
  O  O45  1  0.32691300  0.66710000  0.36138600  1
  O  O46  1  0.48577500  0.50428800  0.83399700  1
  O  O47  1  0.51422500  0.50428800  0.33399700  1
loop_
_geom_bond_atom_site_label_1
_geom_bond_atom_site_label_2
_geom_bond_distance
_geom_bond_site_symmetry_2
Na0 O8 2.487165 1_555
Na0 O4 2.490270 1_545
Na0 O10 2.506248 1_545
Na0 O6 2.521590 1_555
Na0 O24 2.626468 1_545
Na0 O37 2.667087 1_555
Na1 O9 2.487165 1_555
Na1 O5 2.490270 1_544
Na1 O11 2.506248 1_545
Na1 O7 2.521590 1_555
Na1 O25 2.626468 1_545
Na1 O36 2.667087 1_554
Na2 O10 2.412987 1_555
Na2 O4 2.425283 1_555
Na2 O45 2.429787 1_555
Na2 O2 2.455078 1_555
Na2 O16 2.481752 1_555
Na2 O0 2.565347 1_555
Na3 O11 2.412987 1_555
Na3 O5 2.425283 1_554
Na3 O44 2.429787 1_554
Na3 O3 2.455078 1_555
Na3 O17 2.481752 1_555
Na3 O1 2.565347 1_554
H0 O0 0.989239 1_555
H1 O1 0.989239 1_554
H2 O0 0.994172 1_555
H3 O1 0.994172 1_554
H4 O2 0.991320 1_555
H5 O3 0.991320 1_555
H6 O2 1.000443 1_555
H7 O3 1.000443 1_555
H8 O4 0.984870 1_555
H9 O5 0.984870 1_555
H10 O4 0.975482 1_555
H11 O5 0.975482 1_554
H12 O6 0.986772 1_455
H13 O7 0.986772 1_656
H14 O6 0.989530 1_555
H15 O7 0.989530 1_555
H16 O8 0.990423 1_555
H17 O9 0.990423 1_555
H18 O8 0.989272 1_555
H19 O9 0.989272 1_556
H20 O10 0.978551 1_545
H21 O11 0.978551 1_546
H22 O10 0.976158 1_555
H23 O11 0.976158 1_555
H24 O12 0.984182 1_555
H25 O13 0.984182 1_555
H26 O12 0.989640 1_455
H27 O13 0.989640 1_655
H28 O14 0.990013 1_555
H29 O15 0.990013 1_555
H30 O14 0.988875 1_555
H31 O15 0.988875 1_555
C0 O18 1.256153 1_555
C0 O16 1.273496 1_555
C1 O19 1.256153 1_555
C1 O17 1.273496 1_555
C2 O20 1.265403 1_555
C2 O23 1.268562 1_555
C3 O21 1.265403 1_555
C3 O22 1.268562 1_555
C4 O24 1.265114 1_545
C4 O26 1.268242 1_555
C5 O25 1.265114 1_545
C5 O27 1.268242 1_555
C6 O28 1.265627 1_555
C6 O30 1.270419 1_555
C7 O29 1.265627 1_555
C7 O31 1.270419 1_555
C8 O34 1.263589 1_455
C8 O32 1.269903 1_555
C9 O35 1.263589 1_655
C9 O33 1.269903 1_555
C10 O36 1.264596 1_555
C10 O38 1.268841 1_545
C11 O37 1.264596 1_555
C11 O39 1.268841 1_545
C12 O40 1.265204 1_555
C12 O42 1.268949 1_555
C13 O41 1.265204 1_555
C13 O43 1.268949 1_555
C14 O46 1.258932 1_555
C14 O44 1.270562 1_555
C15 O47 1.258932 1_555
C15 O45 1.270562 1_555
O0 Y3 2.535423 1_555
O1 Y2 2.535423 1_555
O2 Y0 2.523603 1_555
O3 Y1 2.523603 1_555
O16 Y0 2.399596 1_555
O17 Y1 2.399596 1_555
O18 Y2 2.423427 1_455
O19 Y3 2.423427 1_655
O20 Y0 2.410977 1_555
O21 Y1 2.410977 1_555
O22 Y3 2.385918 1_655
O23 Y2 2.385918 1_455
O24 Y2 2.470992 1_555
O25 Y3 2.470992 1_555
O26 Y0 2.408466 1_555
O27 Y1 2.408466 1_555
O28 Y2 2.395979 1_545
O29 Y3 2.395979 1_545
O30 Y0 2.464754 1_555
O31 Y1 2.464754 1_555
O32 Y0 2.397807 1_555
O33 Y1 2.397807 1_555
O34 Y2 2.432721 1_545
O35 Y3 2.432721 1_545
O36 Y0 2.478564 1_555
O37 Y1 2.478564 1_555
O38 Y2 2.412446 1_455
O39 Y3 2.412446 1_655
O40 Y2 2.430545 1_555
O41 Y3 2.430545 1_555
O42 Y0 2.367914 1_555
O43 Y1 2.367914 1_555
O44 Y2 2.401861 1_555
O45 Y3 2.401861 1_555
O46 Y0 2.426784 1_555
O47 Y1 2.426784 1_555
