# generated using pymatgen
data_LiBi(PO3)4
_symmetry_space_group_name_H-M   'P 1'
_cell_length_a   7.19026095
_cell_length_b   7.19026095
_cell_length_c   10.37809238
_cell_angle_alpha   86.46620752
_cell_angle_beta   86.46620752
_cell_angle_gamma   111.58973237
_symmetry_Int_Tables_number   1
_chemical_formula_structural   LiBi(PO3)4
_chemical_formula_sum   'Li2 Bi2 P8 O24'
_cell_volume   495.89516967
_cell_formula_units_Z   2
loop_
 _symmetry_equiv_pos_site_id
 _symmetry_equiv_pos_as_xyz
  1  'x, y, z'
loop_
 _atom_site_type_symbol
 _atom_site_label
 _atom_site_symmetry_multiplicity
 _atom_site_fract_x
 _atom_site_fract_y
 _atom_site_fract_z
 _atom_site_occupancy
  Li  Li0  1  0.32896800  0.67103200  0.75000000  1
  Li  Li1  1  0.67103200  0.32896800  0.25000000  1
  Bi  Bi0  1  0.61902100  0.38097900  0.75000000  1
  Bi  Bi1  1  0.38097900  0.61902100  0.25000000  1
  P  P0  1  0.15799700  0.78635600  0.00598200  1
  P  P1  1  0.78635600  0.15799700  0.50598200  1
  P  P2  1  0.73688100  0.78716100  0.94380500  1
  P  P3  1  0.21283900  0.26311900  0.55619500  1
  P  P4  1  0.78716100  0.73688100  0.44380500  1
  P  P5  1  0.26311900  0.21283900  0.05619500  1
  P  P6  1  0.21364400  0.84200300  0.49401800  1
  P  P7  1  0.84200300  0.21364400  0.99401800  1
  O  O0  1  0.30751400  0.80618100  0.89581900  1
  O  O1  1  0.61580400  0.10716000  0.61140000  1
  O  O2  1  0.65799100  0.68724100  0.82340200  1
  O  O3  1  0.80618100  0.30751400  0.39581900  1
  O  O4  1  0.37824900  0.30010400  0.92718500  1
  O  O5  1  0.10716000  0.61580400  0.11140000  1
  O  O6  1  0.19609000  0.03606200  0.55412000  1
  O  O7  1  0.76506600  0.01612000  0.91249000  1
  O  O8  1  0.98388000  0.23493400  0.58751000  1
  O  O9  1  0.96393800  0.80391000  0.94588000  1
  O  O10  1  0.68724100  0.65799100  0.32340200  1
  O  O11  1  0.69989600  0.62175100  0.57281500  1
  O  O12  1  0.30010400  0.37824900  0.42718500  1
  O  O13  1  0.31275900  0.34200900  0.67659800  1
  O  O14  1  0.03606200  0.19609000  0.05412000  1
  O  O15  1  0.01612000  0.76506600  0.41249000  1
  O  O16  1  0.23493400  0.98388000  0.08751000  1
  O  O17  1  0.80391000  0.96393800  0.44588000  1
  O  O18  1  0.89284000  0.38419600  0.88860000  1
  O  O19  1  0.62175100  0.69989600  0.07281500  1
  O  O20  1  0.19381900  0.69248600  0.60418100  1
  O  O21  1  0.34200900  0.31275900  0.17659800  1
  O  O22  1  0.38419600  0.89284000  0.38860000  1
  O  O23  1  0.69248600  0.19381900  0.10418100  1
loop_
_geom_bond_atom_site_label_1
_geom_bond_atom_site_label_2
_geom_bond_distance
_geom_bond_site_symmetry_2
Li0 O0 1.876453 1_555
Li0 O20 1.876453 1_555
Li0 O2 2.494174 1_555
Li0 O13 2.494174 1_555
Li1 O3 1.876453 1_555
Li1 O23 1.876453 1_555
Li1 O10 2.494174 1_555
Li1 O21 2.494174 1_555
Bi0 O13 2.299367 1_555
Bi0 O2 2.299367 1_555
Bi0 O4 2.334841 1_555
Bi0 O11 2.334841 1_555
Bi0 O1 2.503104 1_555
Bi0 O18 2.503104 1_555
Bi1 O21 2.299367 1_555
Bi1 O10 2.299367 1_555
Bi1 O12 2.334841 1_555
Bi1 O19 2.334841 1_555
Bi1 O5 2.503104 1_555
Bi1 O22 2.503104 1_555
O0 P0 1.482834 1_556
O1 P1 1.513212 1_555
O2 P2 1.515734 1_555
O3 P1 1.482834 1_555
O4 P5 1.499711 1_556
O5 P0 1.513212 1_555
O6 P3 1.593835 1_555
O6 P6 1.605970 1_545
O7 P2 1.592894 1_545
O7 P7 1.632995 1_555
O8 P3 1.592894 1_655
O8 P1 1.632995 1_555
O9 P2 1.593835 1_555
O9 P0 1.605970 1_656
O10 P4 1.515734 1_555
O11 P4 1.499711 1_555
O12 P3 1.499711 1_555
O13 P3 1.515734 1_555
O14 P5 1.593835 1_555
O14 P7 1.605970 1_454
O15 P4 1.592894 1_455
O15 P6 1.632995 1_555
O16 P5 1.592894 1_565
O16 P0 1.632995 1_555
O17 P4 1.593835 1_555
O17 P1 1.605970 1_565
O18 P7 1.513212 1_555
O19 P2 1.499711 1_554
O20 P6 1.482834 1_555
O21 P5 1.515734 1_555
O22 P6 1.513212 1_555
O23 P7 1.482834 1_554
