# generated using pymatgen
data_Rb2Se3
_symmetry_space_group_name_H-M   'P 1'
_cell_length_a   6.76283582
_cell_length_b   6.76276458
_cell_length_c   7.98200732
_cell_angle_alpha   89.99848689
_cell_angle_beta   89.99833398
_cell_angle_gamma   109.38028449
_symmetry_Int_Tables_number   1
_chemical_formula_structural   Rb2Se3
_chemical_formula_sum   'Rb4 Se6'
_cell_volume   344.37534999
_cell_formula_units_Z   2
loop_
 _symmetry_equiv_pos_site_id
 _symmetry_equiv_pos_as_xyz
  1  'x, y, z'
loop_
 _atom_site_type_symbol
 _atom_site_label
 _atom_site_symmetry_multiplicity
 _atom_site_fract_x
 _atom_site_fract_y
 _atom_site_fract_z
 _atom_site_occupancy
  Rb  Rb0  1  0.41604869  0.58394203  0.82556978  1
  Rb  Rb1  1  0.58394968  0.41603475  0.32558087  1
  Rb  Rb2  1  0.90177911  0.09821590  0.54876876  1
  Rb  Rb3  1  0.09821539  0.90174879  0.04875715  1
  Se  Se0  1  0.40237295  0.07913953  0.67391099  1
  Se  Se1  1  0.59761467  0.92085227  0.17391491  1
  Se  Se2  1  0.92083248  0.59761074  0.67377120  1
  Se  Se3  1  0.07915443  0.40240729  0.17390603  1
  Se  Se4  1  0.79214186  0.20787140  0.00092051  1
  Se  Se5  1  0.20789174  0.79217830  0.50089579  1
loop_
_geom_bond_atom_site_label_1
_geom_bond_atom_site_label_2
_geom_bond_distance
_geom_bond_site_symmetry_2
Rb0 Se5 3.463629 1_555
Rb0 Se3 3.545697 1_556
Rb0 Se1 3.545979 1_556
Rb0 Se0 3.590888 1_565
Rb0 Se2 3.591461 1_455
Rb0 Se0 3.594313 1_555
Rb0 Se2 3.594552 1_555
Rb1 Se4 3.463404 1_555
Rb1 Se2 3.544934 1_555
Rb1 Se0 3.545691 1_555
Rb1 Se1 3.590845 1_545
Rb1 Se3 3.590897 1_655
Rb1 Se1 3.594386 1_555
Rb1 Se3 3.594442 1_555
Rb2 Se5 3.399817 1_645
Rb2 Se2 3.482758 1_555
Rb2 Se0 3.483086 1_555
Rb2 Se2 3.572525 1_545
Rb2 Se0 3.572902 1_655
Rb2 Se3 3.603558 1_655
Rb2 Se1 3.603563 1_545
Rb2 Se4 3.806579 1_556
Rb3 Se4 3.400038 1_465
Rb3 Se3 3.482680 1_555
Rb3 Se1 3.483083 1_555
Rb3 Se1 3.572993 1_455
Rb3 Se3 3.573264 1_565
Rb3 Se0 3.603364 1_564
Rb3 Se2 3.604365 1_454
Rb3 Se5 3.806403 1_555
Se0 Se5 2.389445 1_545
Se1 Se4 2.389580 1_565
Se2 Se5 2.389286 1_655
Se3 Se4 2.389641 1_455
