# generated using pymatgen
data_Li4Fe3NiO8
_symmetry_space_group_name_H-M   'P 1'
_cell_length_a   5.76127700
_cell_length_b   5.81778885
_cell_length_c   5.84974834
_cell_angle_alpha   119.12985082
_cell_angle_beta   90.58802743
_cell_angle_gamma   118.82422008
_symmetry_Int_Tables_number   1
_chemical_formula_structural   Li4Fe3NiO8
_chemical_formula_sum   'Li4 Fe3 Ni1 O8'
_cell_volume   142.15756934
_cell_formula_units_Z   1
loop_
 _symmetry_equiv_pos_site_id
 _symmetry_equiv_pos_as_xyz
  1  'x, y, z'
loop_
 _atom_site_type_symbol
 _atom_site_label
 _atom_site_symmetry_multiplicity
 _atom_site_fract_x
 _atom_site_fract_y
 _atom_site_fract_z
 _atom_site_occupancy
  Li  Li0  1  0.50000000  0.00000000  0.50000000  1
  Li  Li1  1  0.00000000  0.00000000  0.50000000  1
  Li  Li2  1  0.50000000  0.50000000  0.50000000  1
  Li  Li3  1  0.00000000  0.50000000  0.50000000  1
  Fe  Fe0  1  0.50000000  0.00000000  0.00000000  1
  Fe  Fe1  1  0.00000000  0.50000000  0.00000000  1
  Fe  Fe2  1  0.50000000  0.50000000  0.00000000  1
  Ni  Ni0  1  0.00000000  0.00000000  0.00000000  1
  O  O0  1  0.74974300  0.03223200  0.24239000  1
  O  O1  1  0.25790500  0.03388900  0.22876200  1
  O  O2  1  0.71887100  0.52761100  0.21774500  1
  O  O3  1  0.25025700  0.96776800  0.75761000  1
  O  O4  1  0.26585100  0.54058700  0.22681500  1
  O  O5  1  0.74209500  0.96611100  0.77123800  1
  O  O6  1  0.28112900  0.47238900  0.78225500  1
  O  O7  1  0.73414900  0.45941300  0.77318500  1
loop_
_geom_bond_atom_site_label_1
_geom_bond_atom_site_label_2
_geom_bond_distance
_geom_bond_site_symmetry_2
Li0 O4 1.959076 1_545
Li0 O7 1.959076 1_555
Li0 O3 2.106131 1_545
Li0 O0 2.106131 1_555
Li0 O1 2.241898 1_555
Li0 O5 2.241898 1_545
Li1 O2 2.034111 1_445
Li1 O6 2.034111 1_555
Li1 O5 2.198788 1_445
Li1 O1 2.198788 1_555
Li1 O0 2.208184 1_455
Li1 O3 2.208184 1_545
Li2 O1 1.983686 1_555
Li2 O5 1.983686 1_555
Li2 O2 2.108958 1_555
Li2 O6 2.108958 1_555
Li2 O7 2.249362 1_555
Li2 O4 2.249362 1_555
Li3 O3 1.983669 1_555
Li3 O0 1.983669 1_455
Li3 O7 2.241511 1_455
Li3 O4 2.241511 1_555
Li3 O2 2.414438 1_455
Li3 O6 2.414438 1_555
Fe0 O3 1.885475 1_544
Fe0 O0 1.885475 1_555
Fe0 O5 1.954906 1_544
Fe0 O1 1.954906 1_555
Fe0 O6 2.250066 1_544
Fe0 O2 2.250066 1_555
Fe1 O4 1.861893 1_555
Fe1 O7 1.861893 1_454
Fe1 O2 2.089395 1_455
Fe1 O6 2.089395 1_554
Fe1 O5 2.260187 1_444
Fe1 O1 2.260187 1_565
Fe2 O6 1.676552 1_554
Fe2 O2 1.676552 1_555
Fe2 O7 1.916988 1_554
Fe2 O4 1.916988 1_555
Fe2 O0 2.248605 1_565
Fe2 O3 2.248605 1_544
Ni0 O1 1.859376 1_555
Ni0 O5 1.859376 1_444
Ni0 O0 2.041628 1_455
Ni0 O3 2.041628 1_544
Ni0 O7 2.290931 1_444
Ni0 O4 2.290931 1_555
