# generated using pymatgen
data_NaTi2O4
_symmetry_space_group_name_H-M   'P 1'
_cell_length_a   6.11211438
_cell_length_b   6.11211011
_cell_length_c   6.11212781
_cell_angle_alpha   59.99994225
_cell_angle_beta   59.99996537
_cell_angle_gamma   59.99986935
_symmetry_Int_Tables_number   1
_chemical_formula_structural   NaTi2O4
_chemical_formula_sum   'Na2 Ti4 O8'
_cell_volume   161.45791477
_cell_formula_units_Z   2
loop_
 _symmetry_equiv_pos_site_id
 _symmetry_equiv_pos_as_xyz
  1  'x, y, z'
loop_
 _atom_site_type_symbol
 _atom_site_label
 _atom_site_symmetry_multiplicity
 _atom_site_fract_x
 _atom_site_fract_y
 _atom_site_fract_z
 _atom_site_occupancy
  Na  Na0  1  0.74999944  0.74999944  0.74999529  1
  Na  Na1  1  0.50000056  0.50000056  0.50000471  1
  Ti  Ti0  1  0.12500000  0.12500000  0.62500000  1
  Ti  Ti1  1  0.12500000  0.62500000  0.12500000  1
  Ti  Ti2  1  0.62500000  0.12500000  0.12500000  1
  Ti  Ti3  1  0.12500000  0.12500000  0.12500000  1
  O  O0  1  0.32031012  0.89323086  0.89322785  1
  O  O1  1  0.89323509  0.89323109  0.89322878  1
  O  O2  1  0.89323286  0.32031112  0.89322685  1
  O  O3  1  0.89323151  0.89322751  0.32031407  1
  O  O4  1  0.35676714  0.92968888  0.35677315  1
  O  O5  1  0.35676849  0.35677249  0.92968593  1
  O  O6  1  0.92968988  0.35676914  0.35677215  1
  O  O7  1  0.35676491  0.35676891  0.35677122  1
loop_
_geom_bond_atom_site_label_1
_geom_bond_atom_site_label_2
_geom_bond_distance
_geom_bond_site_symmetry_2
Na0 O3 2.144337 1_555
Na0 O2 2.144364 1_555
Na0 O0 2.144371 1_555
Na0 O1 2.144433 1_555
Na1 O5 2.144337 1_555
Na1 O4 2.144364 1_555
Na1 O6 2.144371 1_555
Na1 O7 2.144433 1_555
O0 Ti0 2.015729 1_565
O0 Ti1 2.015742 1_556
O0 Ti3 2.015744 1_566
O1 Ti0 2.015713 1_665
O1 Ti1 2.015722 1_656
O1 Ti2 2.015741 1_566
O2 Ti0 2.015728 1_655
O2 Ti3 2.015739 1_656
O2 Ti2 2.015756 1_556
O3 Ti3 2.015739 1_665
O3 Ti1 2.015741 1_655
O3 Ti2 2.015760 1_565
O4 Ti0 2.015728 1_565
O4 Ti3 2.015739 1_565
O4 Ti2 2.015756 1_565
O5 Ti3 2.015739 1_556
O5 Ti1 2.015741 1_556
O5 Ti2 2.015760 1_556
O6 Ti0 2.015729 1_655
O6 Ti1 2.015742 1_655
O6 Ti3 2.015744 1_655
O7 Ti0 2.015713 1_555
O7 Ti1 2.015722 1_555
O7 Ti2 2.015741 1_555
