# generated using pymatgen
data_RbPH3O4F
_symmetry_space_group_name_H-M   'P 1'
_cell_length_a   4.65849000
_cell_length_b   9.17079500
_cell_length_c   12.11251400
_cell_angle_alpha   90.00000000
_cell_angle_beta   90.00000000
_cell_angle_gamma   90.00000000
_symmetry_Int_Tables_number   1
_chemical_formula_structural   RbPH3O4F
_chemical_formula_sum   'Rb4 P4 H12 O16 F4'
_cell_volume   517.47151109
_cell_formula_units_Z   4
loop_
 _symmetry_equiv_pos_site_id
 _symmetry_equiv_pos_as_xyz
  1  'x, y, z'
loop_
 _atom_site_type_symbol
 _atom_site_label
 _atom_site_symmetry_multiplicity
 _atom_site_fract_x
 _atom_site_fract_y
 _atom_site_fract_z
 _atom_site_occupancy
  Rb  Rb0  1  0.36763600  0.15463600  0.69909700  1
  Rb  Rb1  1  0.86763600  0.34536400  0.19909700  1
  Rb  Rb2  1  0.13236400  0.65463600  0.69909700  1
  Rb  Rb3  1  0.63236400  0.84536400  0.19909700  1
  P  P0  1  0.07931600  0.02224600  0.95553300  1
  P  P1  1  0.57931600  0.47775400  0.45553300  1
  P  P2  1  0.42068400  0.52224600  0.95553300  1
  P  P3  1  0.92068400  0.97775400  0.45553300  1
  H  H0  1  0.63677900  0.10310500  0.99296200  1
  H  H1  1  0.24854800  0.10087100  0.29528000  1
  H  H2  1  0.81644000  0.21322000  0.48975300  1
  H  H3  1  0.31644000  0.28678000  0.98975300  1
  H  H4  1  0.74854800  0.39912900  0.79528000  1
  H  H5  1  0.13677900  0.39689500  0.49296200  1
  H  H6  1  0.86322100  0.60310500  0.99296200  1
  H  H7  1  0.25145200  0.60087100  0.29528000  1
  H  H8  1  0.68356000  0.71322000  0.48975300  1
  H  H9  1  0.18356000  0.78678000  0.98975300  1
  H  H10  1  0.75145200  0.89912900  0.79528000  1
  H  H11  1  0.36322100  0.89689500  0.49296200  1
  O  O0  1  0.03441900  0.02499100  0.34405600  1
  O  O1  1  0.83739600  0.09790000  0.02842600  1
  O  O2  1  0.81657500  0.11245300  0.52763200  1
  O  O3  1  0.33181700  0.12951600  0.94757200  1
  O  O4  1  0.83181700  0.37048400  0.44757200  1
  O  O5  1  0.31657500  0.38754700  0.02763200  1
  O  O6  1  0.33739600  0.40210000  0.52842600  1
  O  O7  1  0.53441900  0.47500900  0.84405600  1
  O  O8  1  0.46558100  0.52499100  0.34405600  1
  O  O9  1  0.66260400  0.59790000  0.02842600  1
  O  O10  1  0.68342500  0.61245300  0.52763200  1
  O  O11  1  0.16818300  0.62951600  0.94757200  1
  O  O12  1  0.66818300  0.87048400  0.44757200  1
  O  O13  1  0.18342500  0.88754700  0.02763200  1
  O  O14  1  0.16260400  0.90210000  0.52842600  1
  O  O15  1  0.96558100  0.97500900  0.84405600  1
  F  F0  1  0.39844200  0.15615600  0.24772000  1
  F  F1  1  0.89844200  0.34384400  0.74772000  1
  F  F2  1  0.10155800  0.65615600  0.24772000  1
  F  F3  1  0.60155800  0.84384400  0.74772000  1
loop_
_geom_bond_atom_site_label_1
_geom_bond_atom_site_label_2
_geom_bond_distance
_geom_bond_site_symmetry_2
H0 O1 1.029672 1_556
H0 O3 1.542470 1_555
H1 O0 1.352159 1_555
H1 Rb1 3.087631 1_455
H1 Rb3 3.169356 1_545
H2 O2 1.031743 1_555
H2 O4 1.531735 1_555
H3 O5 1.031743 1_556
H3 O3 1.531735 1_555
H4 O7 1.352159 1_555
H4 Rb0 3.087631 1_555
H4 Rb2 3.169356 1_655
H5 O6 1.029672 1_555
H5 O4 1.542470 1_455
H6 O9 1.029672 1_556
H6 O11 1.542470 1_655
H7 O8 1.352159 1_555
H7 Rb3 3.087631 1_555
H7 Rb1 3.169356 1_455
H8 O10 1.031743 1_555
H8 O12 1.531735 1_555
H9 O13 1.031743 1_556
H9 O11 1.531735 1_555
H10 O15 1.352159 1_555
H10 Rb2 3.087631 1_655
H10 Rb0 3.169356 1_565
H11 O14 1.029672 1_555
H11 O12 1.542470 1_555
O0 P3 1.513805 1_445
O0 Rb3 3.050341 1_445
O1 P0 1.590912 1_654
O1 Rb1 3.073069 1_555
O1 Rb3 3.247997 1_545
O2 P3 1.588656 1_545
O2 Rb0 2.972695 1_555
O2 Rb0 3.324623 1_655
O3 P0 1.536452 1_555
O3 Rb0 3.023069 1_555
O4 P1 1.536452 1_555
O4 Rb1 3.023069 1_555
O5 P2 1.588656 1_554
O5 Rb1 2.972695 1_455
O5 Rb1 3.324623 1_555
O6 P1 1.590912 1_555
O6 Rb0 3.073069 1_555
O6 Rb2 3.247997 1_555
O7 P2 1.513805 1_555
O7 Rb2 3.050341 1_555
O8 P1 1.513805 1_555
O8 Rb1 3.050341 1_555
O9 P2 1.590912 1_554
O9 Rb3 3.073069 1_555
O9 Rb1 3.247997 1_555
O10 P1 1.588656 1_555
O10 Rb2 2.972695 1_655
O10 Rb2 3.324623 1_555
O11 P2 1.536452 1_555
O11 Rb2 3.023069 1_555
O12 P3 1.536452 1_555
O12 Rb3 3.023069 1_555
O13 P0 1.588656 1_564
O13 Rb3 2.972695 1_555
O13 Rb3 3.324623 1_455
O14 P3 1.590912 1_455
O14 Rb2 3.073069 1_555
O14 Rb0 3.247997 1_565
O15 P0 1.513805 1_665
O15 Rb0 3.050341 1_665
F0 H1 1.037550 1_555
F0 Rb1 2.852223 1_555
F0 Rb1 3.077702 1_455
F0 Rb3 3.107740 1_545
F1 H4 1.037550 1_555
F1 Rb0 2.852223 1_655
F1 Rb0 3.077702 1_555
F1 Rb2 3.107740 1_655
F2 H7 1.037550 1_555
F2 Rb3 2.852223 1_455
F2 Rb3 3.077702 1_555
F2 Rb1 3.107740 1_455
F3 H10 1.037550 1_555
F3 Rb2 2.852223 1_555
F3 Rb2 3.077702 1_655
F3 Rb0 3.107740 1_565
