# generated using pymatgen
data_Dy2P4O13
_symmetry_space_group_name_H-M   'P 1'
_cell_length_a   9.33611814
_cell_length_b   9.33611814
_cell_length_c   8.57268846
_cell_angle_alpha   90.00000000
_cell_angle_beta   90.00000000
_cell_angle_gamma   135.90556971
_symmetry_Int_Tables_number   1
_chemical_formula_structural   Dy2P4O13
_chemical_formula_sum   'Dy4 P8 O26'
_cell_volume   519.94926841
_cell_formula_units_Z   2
loop_
 _symmetry_equiv_pos_site_id
 _symmetry_equiv_pos_as_xyz
  1  'x, y, z'
loop_
 _atom_site_type_symbol
 _atom_site_label
 _atom_site_symmetry_multiplicity
 _atom_site_fract_x
 _atom_site_fract_y
 _atom_site_fract_z
 _atom_site_occupancy
  Dy  Dy0  1  0.10332556  0.39633917  0.85346631  1
  Dy  Dy1  1  0.60366083  0.89667444  0.64653369  1
  Dy  Dy2  1  0.39633917  0.10332556  0.14653369  1
  Dy  Dy3  1  0.89667444  0.60366083  0.35346631  1
  P  P0  1  0.58108628  0.89967803  0.00094677  1
  P  P1  1  0.10032197  0.41891372  0.49905323  1
  P  P2  1  0.72153371  0.84970603  0.27401747  1
  P  P3  1  0.15029397  0.27846629  0.22598253  1
  P  P4  1  0.27846629  0.15029397  0.77401747  1
  P  P5  1  0.84970603  0.72153371  0.72598253  1
  P  P6  1  0.89967803  0.58108628  0.99905323  1
  P  P7  1  0.41891372  0.10032197  0.50094677  1
  O  O0  1  0.08846206  0.91153794  0.75000000  1
  O  O1  1  0.06963156  0.77364464  0.09600179  1
  O  O2  1  0.22635536  0.93036844  0.40399821  1
  O  O3  1  0.51527581  0.97095089  0.10656671  1
  O  O4  1  0.02904911  0.48472419  0.39343329  1
  O  O5  1  0.42121394  0.73581341  0.88274814  1
  O  O6  1  0.26418659  0.57878606  0.61725186  1
  O  O7  1  0.17464350  0.40739181  0.10365166  1
  O  O8  1  0.59260819  0.82535650  0.39634834  1
  O  O9  1  0.62006393  0.78797084  0.10674214  1
  O  O10  1  0.21202916  0.37993607  0.39325786  1
  O  O11  1  0.74472964  0.78514454  0.70108322  1
  O  O12  1  0.21485546  0.25527036  0.79891678  1
  O  O13  1  0.78514454  0.74472964  0.29891678  1
  O  O14  1  0.25527036  0.21485546  0.20108322  1
  O  O15  1  0.78797084  0.62006393  0.89325786  1
  O  O16  1  0.37993607  0.21202916  0.60674214  1
  O  O17  1  0.82535650  0.59260819  0.60365166  1
  O  O18  1  0.40739181  0.17464350  0.89634834  1
  O  O19  1  0.73581341  0.42121394  0.11725186  1
  O  O20  1  0.57878606  0.26418659  0.38274814  1
  O  O21  1  0.48472419  0.02904911  0.60656671  1
  O  O22  1  0.97095089  0.51527581  0.89343329  1
  O  O23  1  0.93036844  0.22635536  0.59600179  1
  O  O24  1  0.77364464  0.06963156  0.90399821  1
  O  O25  1  0.91153794  0.08846206  0.25000000  1
loop_
_geom_bond_atom_site_label_1
_geom_bond_atom_site_label_2
_geom_bond_distance
_geom_bond_site_symmetry_2
Dy0 O22 2.202029 1_455
Dy0 O7 2.226049 1_556
Dy0 O12 2.237700 1_555
Dy0 O5 2.324882 1_555
Dy0 O24 2.340891 1_455
Dy0 O6 2.362836 1_555
Dy0 O23 2.513294 1_455
Dy1 O21 2.202029 1_565
Dy1 O8 2.226049 1_555
Dy1 O11 2.237700 1_555
Dy1 O6 2.324882 1_555
Dy1 O23 2.340891 1_565
Dy1 O5 2.362836 1_555
Dy1 O24 2.513294 1_565
Dy2 O3 2.202029 1_545
Dy2 O18 2.226049 1_554
Dy2 O14 2.237700 1_555
Dy2 O19 2.324882 1_555
Dy2 O1 2.340891 1_545
Dy2 O20 2.362836 1_555
Dy2 O2 2.513294 1_545
Dy3 O4 2.202029 1_655
Dy3 O17 2.226049 1_555
Dy3 O13 2.237700 1_555
Dy3 O20 2.324882 1_555
Dy3 O2 2.340891 1_655
Dy3 O19 2.362836 1_555
Dy3 O1 2.513294 1_655
O0 P4 1.574214 1_565
O0 P5 1.574214 1_455
O1 P6 1.530681 1_454
O2 P7 1.530681 1_565
O3 P0 1.492435 1_555
O4 P1 1.492435 1_555
O5 P0 1.521547 1_556
O6 P1 1.521547 1_555
O7 P3 1.485675 1_555
O8 P2 1.485675 1_555
O9 P2 1.581679 1_555
O9 P0 1.608657 1_555
O10 P3 1.581679 1_555
O10 P1 1.608657 1_555
O11 P5 1.481498 1_555
O12 P4 1.481498 1_555
O13 P2 1.481498 1_555
O14 P3 1.481498 1_555
O15 P5 1.581679 1_555
O15 P6 1.608657 1_555
O16 P4 1.581679 1_555
O16 P7 1.608657 1_555
O17 P5 1.485675 1_555
O18 P4 1.485675 1_555
O19 P6 1.521547 1_554
O20 P7 1.521547 1_555
O21 P7 1.492435 1_555
O22 P6 1.492435 1_555
O23 P1 1.530681 1_655
O24 P0 1.530681 1_546
O25 P3 1.574214 1_655
O25 P2 1.574214 1_545
