# generated using pymatgen
data_LiV2O4
_symmetry_space_group_name_H-M   'P 1'
_cell_length_a   5.93753851
_cell_length_b   5.93753851
_cell_length_c   5.93753851
_cell_angle_alpha   120.64238637
_cell_angle_beta   118.69043807
_cell_angle_gamma   90.58699728
_symmetry_Int_Tables_number   1
_chemical_formula_structural   LiV2O4
_chemical_formula_sum   'Li2 V4 O8'
_cell_volume   148.69910147
_cell_formula_units_Z   2
loop_
 _symmetry_equiv_pos_site_id
 _symmetry_equiv_pos_as_xyz
  1  'x, y, z'
loop_
 _atom_site_type_symbol
 _atom_site_label
 _atom_site_symmetry_multiplicity
 _atom_site_fract_x
 _atom_site_fract_y
 _atom_site_fract_z
 _atom_site_occupancy
  Li  Li0  1  0.50000000  0.50000000  0.50000000  1
  Li  Li1  1  0.50000000  0.00000000  0.00000000  1
  V  V0  1  0.00000000  0.00000000  0.00000000  1
  V  V1  1  0.50000000  0.00000000  0.50000000  1
  V  V2  1  0.87963100  0.62963100  0.25000000  1
  V  V3  1  0.12036900  0.37036900  0.75000000  1
  O  O0  1  0.74899600  0.75758100  0.50858500  1
  O  O1  1  0.25017700  0.76139900  0.48877800  1
  O  O2  1  0.77262000  0.76139900  0.01122200  1
  O  O3  1  0.25100400  0.75959000  0.00858500  1
  O  O4  1  0.74899600  0.24041000  0.99141500  1
  O  O5  1  0.22738000  0.23860100  0.98877800  1
  O  O6  1  0.74982300  0.23860100  0.51122200  1
  O  O7  1  0.25100400  0.24241900  0.49141500  1
loop_
_geom_bond_atom_site_label_1
_geom_bond_atom_site_label_2
_geom_bond_distance
_geom_bond_site_symmetry_2
Li0 O7 2.080681 1_555
Li0 O0 2.080681 1_555
Li0 O5 2.161324 1_554
Li0 O2 2.161324 1_556
Li0 O6 2.161324 1_555
Li0 O1 2.161324 1_555
Li1 O4 2.080677 1_554
Li1 O3 2.080677 1_545
Li1 O2 2.161320 1_545
Li1 O5 2.161320 1_554
Li1 O6 2.161324 1_555
Li1 O1 2.161324 1_544
O0 V2 1.871533 1_555
O0 V0 2.075129 1_666
O0 V1 2.075129 1_565
O1 V2 1.817087 1_455
O1 V1 1.994388 1_565
O2 V2 1.817086 1_555
O2 V0 1.994393 1_665
O3 V3 1.871538 1_554
O3 V0 2.075125 1_565
O3 V1 2.075129 1_565
O4 V2 1.871538 1_556
O4 V0 2.075125 1_656
O4 V1 2.075129 1_555
O5 V3 1.817086 1_555
O5 V0 1.994393 1_556
O6 V3 1.817087 1_655
O6 V1 1.994388 1_555
O7 V3 1.871533 1_555
O7 V0 2.075129 1_555
O7 V1 2.075129 1_555
