# generated using pymatgen
data_LiNb(OF)2
_symmetry_space_group_name_H-M   'P 1'
_cell_length_a   5.11491000
_cell_length_b   7.49163600
_cell_length_c   7.85124174
_cell_angle_alpha   77.52615867
_cell_angle_beta   90.00000000
_cell_angle_gamma   90.00000000
_symmetry_Int_Tables_number   1
_chemical_formula_structural   LiNb(OF)2
_chemical_formula_sum   'Li4 Nb4 O8 F8'
_cell_volume   293.75038009
_cell_formula_units_Z   4
loop_
 _symmetry_equiv_pos_site_id
 _symmetry_equiv_pos_as_xyz
  1  'x, y, z'
loop_
 _atom_site_type_symbol
 _atom_site_label
 _atom_site_symmetry_multiplicity
 _atom_site_fract_x
 _atom_site_fract_y
 _atom_site_fract_z
 _atom_site_occupancy
  Li  Li0  1  0.26862400  0.35406600  0.37192900  1
  Li  Li1  1  0.23137600  0.85406600  0.37192900  1
  Li  Li2  1  0.76862400  0.14593400  0.62807100  1
  Li  Li3  1  0.73137600  0.64593400  0.62807100  1
  Nb  Nb0  1  0.76333400  0.17331700  0.16813900  1
  Nb  Nb1  1  0.73666600  0.67331700  0.16813900  1
  Nb  Nb2  1  0.26333400  0.32668300  0.83186100  1
  Nb  Nb3  1  0.23666600  0.82668300  0.83186100  1
  O  O0  1  0.06007600  0.30250700  0.04101100  1
  O  O1  1  0.43992400  0.80250700  0.04101100  1
  O  O2  1  0.61276100  0.43699700  0.20154200  1
  O  O3  1  0.88723900  0.93699700  0.20154200  1
  O  O4  1  0.11276100  0.06300300  0.79845800  1
  O  O5  1  0.38723900  0.56300300  0.79845800  1
  O  O6  1  0.56007600  0.19749300  0.95898900  1
  O  O7  1  0.93992400  0.69749300  0.95898900  1
  F  F0  1  0.43710700  0.09246600  0.31455500  1
  F  F1  1  0.93739500  0.20076900  0.40050200  1
  F  F2  1  0.06289300  0.59246600  0.31455500  1
  F  F3  1  0.56260500  0.70076900  0.40050200  1
  F  F4  1  0.43739500  0.29923100  0.59949800  1
  F  F5  1  0.93710700  0.40753400  0.68544500  1
  F  F6  1  0.06260500  0.79923100  0.59949800  1
  F  F7  1  0.56289300  0.90753400  0.68544500  1
loop_
_geom_bond_atom_site_label_1
_geom_bond_atom_site_label_2
_geom_bond_distance
_geom_bond_site_symmetry_2
Li0 O2 2.216968 1_555
Li1 O3 2.216968 1_455
Li2 O4 2.216968 1_655
Li3 O5 2.216968 1_555
Nb0 O3 1.845063 1_545
Nb0 O6 1.918760 1_554
Nb0 O0 1.954325 1_655
Nb0 O2 2.188130 1_555
Nb1 O2 1.845063 1_555
Nb1 O7 1.918760 1_554
Nb1 O1 1.954325 1_555
Nb1 O3 2.188130 1_555
Nb2 O5 1.845063 1_555
Nb2 O0 1.918760 1_556
Nb2 O6 1.954325 1_555
Nb2 O4 2.188130 1_555
Nb3 O4 1.845063 1_565
Nb3 O1 1.918760 1_556
Nb3 O7 1.954325 1_455
Nb3 O5 2.188130 1_555
F0 Li1 2.037771 1_545
F0 Nb0 2.042511 1_555
F0 Li0 2.273278 1_555
F1 Li2 1.946582 1_555
F1 Li0 2.031820 1_655
F1 Nb0 2.079719 1_555
F2 Li0 2.037771 1_555
F2 Nb1 2.042511 1_455
F2 Li1 2.273278 1_555
F3 Li3 1.946582 1_555
F3 Li1 2.031820 1_555
F3 Nb1 2.079719 1_555
F4 Li0 1.946582 1_555
F4 Li2 2.031820 1_555
F4 Nb2 2.079719 1_555
F5 Li3 2.037771 1_555
F5 Nb2 2.042511 1_655
F5 Li2 2.273278 1_555
F6 Li1 1.946582 1_555
F6 Li3 2.031820 1_455
F6 Nb3 2.079719 1_555
F7 Li2 2.037771 1_565
F7 Nb3 2.042511 1_555
F7 Li3 2.273278 1_555
