# generated using pymatgen
data_K2Ti(OF2)2
_symmetry_space_group_name_H-M   'P 1'
_cell_length_a   6.19885507
_cell_length_b   6.19885507
_cell_length_c   7.59608900
_cell_angle_alpha   90.00000000
_cell_angle_beta   90.00000000
_cell_angle_gamma   99.12388628
_symmetry_Int_Tables_number   1
_chemical_formula_structural   K2Ti(OF2)2
_chemical_formula_sum   'K4 Ti2 O4 F8'
_cell_volume   288.19282685
_cell_formula_units_Z   2
loop_
 _symmetry_equiv_pos_site_id
 _symmetry_equiv_pos_as_xyz
  1  'x, y, z'
loop_
 _atom_site_type_symbol
 _atom_site_label
 _atom_site_symmetry_multiplicity
 _atom_site_fract_x
 _atom_site_fract_y
 _atom_site_fract_z
 _atom_site_occupancy
  K  K0  1  0.94783200  0.50098600  0.25000000  1
  K  K1  1  0.49901400  0.05216800  0.75000000  1
  K  K2  1  0.05216800  0.49901400  0.75000000  1
  K  K3  1  0.50098600  0.94783200  0.25000000  1
  Ti  Ti0  1  0.00000000  0.00000000  0.50000000  1
  Ti  Ti1  1  0.00000000  0.00000000  0.00000000  1
  O  O0  1  0.98979800  0.98979800  0.25000000  1
  O  O1  1  0.01020200  0.01020200  0.75000000  1
  O  O2  1  0.44334700  0.44334700  0.25000000  1
  O  O3  1  0.55665300  0.55665300  0.75000000  1
  F  F0  1  0.79456800  0.20543200  0.50000000  1
  F  F1  1  0.79456800  0.20543200  0.00000000  1
  F  F2  1  0.20543200  0.79456800  0.50000000  1
  F  F3  1  0.20543200  0.79456800  0.00000000  1
  F  F4  1  0.24235000  0.24235000  0.49350300  1
  F  F5  1  0.75765000  0.75765000  0.50649700  1
  F  F6  1  0.24235000  0.24235000  0.00649700  1
  F  F7  1  0.75765000  0.75765000  0.99350300  1
loop_
_geom_bond_atom_site_label_1
_geom_bond_atom_site_label_2
_geom_bond_distance
_geom_bond_site_symmetry_2
K0 O0 2.999840 1_555
K0 O2 3.090772 1_555
K0 O2 3.148110 1_655
K0 O0 3.220290 1_545
K1 O1 2.999840 1_555
K1 O3 3.090772 1_555
K1 O3 3.148110 1_545
K1 O1 3.220290 1_655
K2 O1 2.999840 1_555
K2 O3 3.090772 1_555
K2 O3 3.148110 1_455
K2 O1 3.220290 1_565
K3 O0 2.999840 1_555
K3 O2 3.090772 1_555
K3 O2 3.148110 1_565
K3 O0 3.220290 1_455
O0 Ti0 1.900793 1_665
O0 Ti1 1.900793 1_665
O1 Ti1 1.900793 1_556
O1 Ti0 1.900793 1_555
F0 Ti0 1.938455 1_655
F0 K1 2.704342 1_555
F0 K0 2.704342 1_555
F0 K3 2.923433 1_545
F0 K2 2.923433 1_655
F1 Ti1 1.938455 1_655
F1 K1 2.704342 1_554
F1 K0 2.704342 1_555
F1 K2 2.923433 1_654
F1 K3 2.923433 1_545
F2 Ti0 1.938455 1_565
F2 K3 2.704342 1_555
F2 K2 2.704342 1_555
F2 K1 2.923433 1_565
F2 K0 2.923433 1_455
F3 Ti1 1.938455 1_565
F3 K3 2.704342 1_555
F3 K2 2.704342 1_554
F3 K1 2.923433 1_564
F3 K0 2.923433 1_455
F4 Ti0 1.949476 1_555
F4 K1 2.883088 1_555
F4 K2 2.883088 1_555
F4 K3 3.202037 1_545
F4 K0 3.202037 1_455
F5 Ti0 1.949476 1_665
F5 K3 2.883088 1_555
F5 K0 2.883088 1_555
F5 K1 3.202037 1_565
F5 K2 3.202037 1_655
F6 Ti1 1.949476 1_555
F6 K1 2.883088 1_554
F6 K2 2.883088 1_554
F6 K3 3.202037 1_545
F6 K0 3.202037 1_455
F7 Ti1 1.949476 1_666
F7 K3 2.883088 1_556
F7 K0 2.883088 1_556
F7 K1 3.202037 1_565
F7 K2 3.202037 1_655
