# generated using pymatgen
data_Fe3(O2F)2
_symmetry_space_group_name_H-M   'P 1'
_cell_length_a   4.67975000
_cell_length_b   4.67975000
_cell_length_c   9.13208900
_cell_angle_alpha   90.00000000
_cell_angle_beta   90.00000000
_cell_angle_gamma   90.00000000
_symmetry_Int_Tables_number   1
_chemical_formula_structural   Fe3(O2F)2
_chemical_formula_sum   'Fe6 O8 F4'
_cell_volume   199.99329760
_cell_formula_units_Z   2
loop_
 _symmetry_equiv_pos_site_id
 _symmetry_equiv_pos_as_xyz
  1  'x, y, z'
loop_
 _atom_site_type_symbol
 _atom_site_label
 _atom_site_symmetry_multiplicity
 _atom_site_fract_x
 _atom_site_fract_y
 _atom_site_fract_z
 _atom_site_occupancy
  Fe  Fe0  1  0.50000000  0.50000000  0.68101700  1
  Fe  Fe1  1  0.50000000  0.50000000  0.00000000  1
  Fe  Fe2  1  0.50000000  0.50000000  0.31898300  1
  Fe  Fe3  1  0.00000000  0.00000000  0.81898300  1
  Fe  Fe4  1  0.00000000  0.00000000  0.50000000  1
  Fe  Fe5  1  0.00000000  0.00000000  0.18101700  1
  O  O0  1  0.69374900  0.30625100  0.84389900  1
  O  O1  1  0.69374900  0.30625100  0.15610100  1
  O  O2  1  0.80625100  0.80625100  0.65610100  1
  O  O3  1  0.80625100  0.80625100  0.34389900  1
  O  O4  1  0.19374900  0.19374900  0.65610100  1
  O  O5  1  0.19374900  0.19374900  0.34389900  1
  O  O6  1  0.30625100  0.69374900  0.84389900  1
  O  O7  1  0.30625100  0.69374900  0.15610100  1
  F  F0  1  0.68858800  0.31141200  0.50000000  1
  F  F1  1  0.81141200  0.81141200  0.00000000  1
  F  F2  1  0.18858800  0.18858800  0.00000000  1
  F  F3  1  0.31141200  0.68858800  0.50000000  1
loop_
_geom_bond_atom_site_label_1
_geom_bond_atom_site_label_2
_geom_bond_distance
_geom_bond_site_symmetry_2
Fe0 O6 1.963852 1_555
Fe0 O0 1.963852 1_555
Fe0 O2 2.039552 1_555
Fe0 O4 2.039552 1_555
Fe1 O7 1.917376 1_555
Fe1 O1 1.917376 1_555
Fe1 O6 1.917376 1_554
Fe1 O0 1.917376 1_554
Fe2 O1 1.963852 1_555
Fe2 O7 1.963852 1_555
Fe2 O3 2.039552 1_555
Fe2 O5 2.039552 1_555
Fe3 O4 1.963852 1_555
Fe3 O2 1.963852 1_445
Fe3 O6 2.039552 1_545
Fe3 O0 2.039552 1_455
Fe4 O4 1.917376 1_555
Fe4 O2 1.917376 1_445
Fe4 O5 1.917376 1_555
Fe4 O3 1.917376 1_445
Fe5 O5 1.963852 1_555
Fe5 O3 1.963852 1_445
Fe5 O1 2.039552 1_455
Fe5 O7 2.039552 1_545
F0 Fe4 2.060976 1_655
F0 Fe0 2.071325 1_555
F0 Fe2 2.071325 1_555
F1 Fe1 2.060976 1_555
F1 Fe5 2.071325 1_665
F1 Fe3 2.071325 1_664
F2 Fe1 2.060976 1_555
F2 Fe5 2.071325 1_555
F2 Fe3 2.071325 1_554
F3 Fe4 2.060976 1_565
F3 Fe0 2.071325 1_555
F3 Fe2 2.071325 1_555
