# generated using pymatgen
data_Na(BiO2)2
_symmetry_space_group_name_H-M   'P 1'
_cell_length_a   3.47124400
_cell_length_b   10.48591700
_cell_length_c   12.33622800
_cell_angle_alpha   90.00000000
_cell_angle_beta   90.00000000
_cell_angle_gamma   90.00000000
_symmetry_Int_Tables_number   1
_chemical_formula_structural   Na(BiO2)2
_chemical_formula_sum   'Na4 Bi8 O16'
_cell_volume   449.02853996
_cell_formula_units_Z   4
loop_
 _symmetry_equiv_pos_site_id
 _symmetry_equiv_pos_as_xyz
  1  'x, y, z'
loop_
 _atom_site_type_symbol
 _atom_site_label
 _atom_site_symmetry_multiplicity
 _atom_site_fract_x
 _atom_site_fract_y
 _atom_site_fract_z
 _atom_site_occupancy
  Na  Na0  1  0.25000000  0.74244700  0.14705400  1
  Na  Na1  1  0.75000000  0.75755300  0.64705400  1
  Na  Na2  1  0.25000000  0.24244700  0.35294600  1
  Na  Na3  1  0.75000000  0.25755300  0.85294600  1
  Bi  Bi0  1  0.25000000  0.56596700  0.38436800  1
  Bi  Bi1  1  0.25000000  0.58408100  0.89369100  1
  Bi  Bi2  1  0.75000000  0.91591900  0.39369100  1
  Bi  Bi3  1  0.75000000  0.93403300  0.88436800  1
  Bi  Bi4  1  0.25000000  0.06596700  0.11563200  1
  Bi  Bi5  1  0.25000000  0.08408100  0.60630900  1
  Bi  Bi6  1  0.75000000  0.41591900  0.10630900  1
  Bi  Bi7  1  0.75000000  0.43403300  0.61563200  1
  O  O0  1  0.75000000  0.51554400  0.78804400  1
  O  O1  1  0.25000000  0.58022300  0.57666900  1
  O  O2  1  0.75000000  0.61450600  0.02133200  1
  O  O3  1  0.75000000  0.71353000  0.33078100  1
  O  O4  1  0.25000000  0.78647000  0.83078100  1
  O  O5  1  0.25000000  0.88549400  0.52133200  1
  O  O6  1  0.75000000  0.91977700  0.07666900  1
  O  O7  1  0.25000000  0.98445600  0.28804400  1
  O  O8  1  0.75000000  0.01554400  0.71195600  1
  O  O9  1  0.25000000  0.08022300  0.92333100  1
  O  O10  1  0.75000000  0.11450600  0.47866800  1
  O  O11  1  0.75000000  0.21353000  0.16921900  1
  O  O12  1  0.25000000  0.28647000  0.66921900  1
  O  O13  1  0.25000000  0.38549400  0.97866800  1
  O  O14  1  0.75000000  0.41977700  0.42333100  1
  O  O15  1  0.25000000  0.48445600  0.21195600  1
loop_
_geom_bond_atom_site_label_1
_geom_bond_atom_site_label_2
_geom_bond_distance
_geom_bond_site_symmetry_2
Na0 O2 2.686562 1_455
Na0 O2 2.686562 1_555
Na0 O6 2.687736 1_555
Na0 O6 2.687736 1_455
Na0 O15 2.821264 1_555
Na0 O3 2.870774 1_555
Na0 O3 2.870774 1_455
Na1 O5 2.686562 1_655
Na1 O5 2.686562 1_555
Na1 O1 2.687736 1_655
Na1 O1 2.687736 1_555
Na1 O8 2.821264 1_565
Na1 O4 2.870774 1_555
Na1 O4 2.870774 1_655
Na2 O10 2.686562 1_455
Na2 O10 2.686562 1_555
Na2 O14 2.687736 1_455
Na2 O14 2.687736 1_555
Na2 O7 2.821264 1_545
Na2 O11 2.870774 1_455
Na2 O11 2.870774 1_555
Na3 O13 2.686562 1_655
Na3 O13 2.686562 1_555
Na3 O9 2.687736 1_555
Na3 O9 2.687736 1_655
Na3 O0 2.821264 1_555
Na3 O12 2.870774 1_555
Na3 O12 2.870774 1_655
Bi0 O15 2.292227 1_555
Bi0 O14 2.365017 1_555
Bi0 O14 2.365017 1_455
Bi0 O1 2.376974 1_555
Bi0 O3 2.417359 1_455
Bi0 O3 2.417359 1_555
Bi1 O4 2.259683 1_555
Bi1 O0 2.286357 1_555
Bi1 O0 2.286357 1_455
Bi1 O13 2.331346 1_555
Bi1 O2 2.365070 1_556
Bi1 O2 2.365070 1_456
Bi2 O3 2.259683 1_555
Bi2 O7 2.286357 1_655
Bi2 O7 2.286357 1_555
Bi2 O10 2.331346 1_565
Bi2 O5 2.365070 1_555
Bi2 O5 2.365070 1_655
Bi3 O8 2.292227 1_565
Bi3 O9 2.365017 1_565
Bi3 O9 2.365017 1_665
Bi3 O6 2.376974 1_556
Bi3 O4 2.417359 1_555
Bi3 O4 2.417359 1_655
Bi4 O7 2.292227 1_545
Bi4 O6 2.365017 1_445
Bi4 O6 2.365017 1_545
Bi4 O9 2.376974 1_554
Bi4 O11 2.417359 1_555
Bi4 O11 2.417359 1_455
Bi5 O12 2.259683 1_555
Bi5 O8 2.286357 1_555
Bi5 O8 2.286357 1_455
Bi5 O5 2.331346 1_545
Bi5 O10 2.365070 1_455
Bi5 O10 2.365070 1_555
Bi6 O11 2.259683 1_555
Bi6 O15 2.286357 1_555
Bi6 O15 2.286357 1_655
Bi6 O2 2.331346 1_555
Bi6 O13 2.365070 1_554
Bi6 O13 2.365070 1_654
Bi7 O0 2.292227 1_555
Bi7 O1 2.365017 1_555
Bi7 O1 2.365017 1_655
Bi7 O14 2.376974 1_555
Bi7 O12 2.417359 1_555
Bi7 O12 2.417359 1_655
