# generated using pymatgen
data_Li2CrO4
_symmetry_space_group_name_H-M   'P 1'
_cell_length_a   9.79513300
_cell_length_b   7.74498800
_cell_length_c   9.76891487
_cell_angle_alpha   86.88769052
_cell_angle_beta   90.00000000
_cell_angle_gamma   90.00000000
_symmetry_Int_Tables_number   1
_chemical_formula_structural   Li2CrO4
_chemical_formula_sum   'Li16 Cr8 O32'
_cell_volume   740.00791807
_cell_formula_units_Z   8
loop_
 _symmetry_equiv_pos_site_id
 _symmetry_equiv_pos_as_xyz
  1  'x, y, z'
loop_
 _atom_site_type_symbol
 _atom_site_label
 _atom_site_symmetry_multiplicity
 _atom_site_fract_x
 _atom_site_fract_y
 _atom_site_fract_z
 _atom_site_occupancy
  Li  Li0  1  0.61724400  0.47219400  0.59816700  1
  Li  Li1  1  0.38275600  0.47219400  0.09816700  1
  Li  Li2  1  0.59434500  0.53859400  0.84935600  1
  Li  Li3  1  0.40565500  0.53859400  0.34935600  1
  Li  Li4  1  0.10949800  0.49900100  0.08442700  1
  Li  Li5  1  0.89050200  0.49900100  0.58442700  1
  Li  Li6  1  0.62095800  0.19961200  0.06491000  1
  Li  Li7  1  0.37904200  0.19961200  0.56491000  1
  Li  Li8  1  0.87195100  0.15058400  0.41106000  1
  Li  Li9  1  0.12804900  0.15058400  0.91106000  1
  Li  Li10  1  0.10427000  0.12232600  0.63893100  1
  Li  Li11  1  0.89573000  0.12232600  0.13893100  1
  Li  Li12  1  0.59521200  0.90296500  0.64986400  1
  Li  Li13  1  0.40478800  0.90296500  0.14986400  1
  Li  Li14  1  0.15834900  0.91455700  0.42356300  1
  Li  Li15  1  0.84165100  0.91455700  0.92356300  1
  Cr  Cr0  1  0.12058900  0.84393500  0.13136800  1
  Cr  Cr1  1  0.87941100  0.84393500  0.63136800  1
  Cr  Cr2  1  0.63517800  0.62529700  0.12904900  1
  Cr  Cr3  1  0.36482200  0.62529700  0.62904900  1
  Cr  Cr4  1  0.12609300  0.32970900  0.36664000  1
  Cr  Cr5  1  0.87390700  0.32970900  0.86664000  1
  Cr  Cr6  1  0.61470100  0.19119900  0.38135500  1
  Cr  Cr7  1  0.38529900  0.19119900  0.88135500  1
  O  O0  1  0.97456900  0.98525600  0.52813200  1
  O  O1  1  0.02543100  0.98525600  0.02813200  1
  O  O2  1  0.22801200  0.95132700  0.22915500  1
  O  O3  1  0.77198800  0.95132700  0.72915500  1
  O  O4  1  0.21239200  0.71170100  0.04001000  1
  O  O5  1  0.78760800  0.71170100  0.54001000  1
  O  O6  1  0.01844000  0.73090700  0.23112300  1
  O  O7  1  0.98156000  0.73090700  0.73112300  1
  O  O8  1  0.48753900  0.68815100  0.20601000  1
  O  O9  1  0.51246100  0.68815100  0.70601000  1
  O  O10  1  0.69851700  0.77944600  0.02421300  1
  O  O11  1  0.30148300  0.77944600  0.52421300  1
  O  O12  1  0.74639200  0.55862000  0.24005100  1
  O  O13  1  0.25360800  0.55862000  0.74005100  1
  O  O14  1  0.41785700  0.45635800  0.53550800  1
  O  O15  1  0.58214300  0.45635800  0.03550800  1
  O  O16  1  0.95134200  0.45392900  0.97284500  1
  O  O17  1  0.04865800  0.45392900  0.47284500  1
  O  O18  1  0.23135500  0.44409600  0.26120400  1
  O  O19  1  0.76864500  0.44409600  0.76120400  1
  O  O20  1  0.20805300  0.17678400  0.46477900  1
  O  O21  1  0.79194700  0.17678400  0.96477900  1
  O  O22  1  0.00642200  0.23569000  0.27444800  1
  O  O23  1  0.99357800  0.23569000  0.77444800  1
  O  O24  1  0.49930200  0.30341900  0.29243200  1
  O  O25  1  0.50069800  0.30341900  0.79243200  1
  O  O26  1  0.71769400  0.31200800  0.47482100  1
  O  O27  1  0.28230600  0.31200800  0.97482100  1
  O  O28  1  0.71818000  0.09329500  0.27195400  1
  O  O29  1  0.28182000  0.09329500  0.77195400  1
  O  O30  1  0.46555800  0.05464400  0.99316400  1
  O  O31  1  0.53444200  0.05464400  0.49316400  1
loop_
_geom_bond_atom_site_label_1
_geom_bond_atom_site_label_2
_geom_bond_distance
_geom_bond_site_symmetry_2
Li0 O26 2.030156 1_555
Li0 O14 2.052357 1_555
Li0 O19 2.178455 1_555
Li0 O9 2.269842 1_555
Li0 O25 2.518730 1_555
Li0 O5 2.536527 1_555
Li1 O27 2.030156 1_554
Li1 O15 2.052357 1_555
Li1 O18 2.178455 1_555
Li1 O8 2.269842 1_555
Li1 O24 2.518730 1_555
Li1 O4 2.536527 1_555
Li2 O15 1.897665 1_556
Li2 O9 1.941601 1_555
Li2 O19 2.064102 1_555
Li2 O25 2.139679 1_555
Li3 O14 1.897665 1_555
Li3 O8 1.941601 1_555
Li3 O18 2.064102 1_555
Li3 O24 2.139679 1_555
Li4 O16 1.936814 1_454
Li4 O4 1.959651 1_555
Li4 O18 2.123213 1_555
Li4 O27 2.505486 1_554
Li4 O6 2.520852 1_555
Li5 O17 1.936814 1_655
Li5 O5 1.959651 1_555
Li5 O19 2.123213 1_555
Li5 O26 2.505486 1_555
Li5 O7 2.520852 1_555
Li6 O21 1.952438 1_554
Li6 O15 2.029567 1_555
Li6 O30 2.038208 1_554
Li6 O28 2.344131 1_555
Li7 O20 1.952438 1_555
Li7 O14 2.029567 1_555
Li7 O31 2.038208 1_555
Li7 O29 2.344131 1_555
Li8 O0 1.949072 1_545
Li8 O22 1.963388 1_655
Li8 O26 2.078130 1_555
Li8 O28 2.092285 1_555
Li9 O1 1.949072 1_546
Li9 O23 1.963388 1_455
Li9 O27 2.078130 1_555
Li9 O29 2.092285 1_555
Li10 O23 1.955831 1_455
Li10 O20 2.006920 1_555
Li10 O0 2.009317 1_445
Li10 O29 2.175330 1_555
Li11 O22 1.955831 1_655
Li11 O21 2.006920 1_554
Li11 O1 2.009317 1_645
Li11 O28 2.175330 1_555
Li12 O9 1.904404 1_555
Li12 O3 1.941657 1_555
Li12 O31 1.970383 1_565
Li13 O8 1.904404 1_555
Li13 O2 1.941657 1_555
Li13 O30 1.970383 1_564
Li14 O11 1.978816 1_555
Li14 O2 2.023555 1_555
Li14 O20 2.147714 1_565
Li14 O0 2.155137 1_455
Li15 O10 1.978816 1_556
Li15 O3 2.023555 1_555
Li15 O21 2.147714 1_565
Li15 O1 2.155137 1_656
Cr0 O6 1.620020 1_555
Cr0 O4 1.659288 1_555
Cr0 O2 1.672664 1_555
Cr0 O1 1.721626 1_555
Cr1 O7 1.620020 1_555
Cr1 O5 1.659288 1_555
Cr1 O3 1.672664 1_555
Cr1 O0 1.721626 1_555
Cr2 O12 1.602632 1_555
Cr2 O10 1.651166 1_555
Cr2 O8 1.712686 1_555
Cr2 O15 1.716597 1_555
Cr3 O13 1.602632 1_555
Cr3 O11 1.651166 1_555
Cr3 O9 1.712686 1_555
Cr3 O14 1.716597 1_555
Cr4 O17 1.638815 1_555
Cr4 O22 1.669311 1_555
Cr4 O18 1.676229 1_555
Cr4 O20 1.686161 1_555
Cr5 O16 1.638815 1_555
Cr5 O23 1.669311 1_555
Cr5 O19 1.676229 1_555
Cr5 O21 1.686161 1_555
Cr6 O24 1.644907 1_555
Cr6 O31 1.674562 1_555
Cr6 O26 1.679183 1_555
Cr6 O28 1.683006 1_555
Cr7 O25 1.644907 1_555
Cr7 O30 1.674562 1_555
Cr7 O27 1.679183 1_555
Cr7 O29 1.683006 1_555
