# generated using pymatgen
data_Bi7(O2F3)3
_symmetry_space_group_name_H-M   'P 1'
_cell_length_a   20.27979802
_cell_length_b   20.27979802
_cell_length_c   11.78279800
_cell_angle_alpha   90.00000000
_cell_angle_beta   90.00000000
_cell_angle_gamma   163.67078695
_symmetry_Int_Tables_number   1
_chemical_formula_structural   Bi7(O2F3)3
_chemical_formula_sum   'Bi28 O24 F36'
_cell_volume   1362.45794060
_cell_formula_units_Z   4
loop_
 _symmetry_equiv_pos_site_id
 _symmetry_equiv_pos_as_xyz
  1  'x, y, z'
loop_
 _atom_site_type_symbol
 _atom_site_label
 _atom_site_symmetry_multiplicity
 _atom_site_fract_x
 _atom_site_fract_y
 _atom_site_fract_z
 _atom_site_occupancy
  Bi  Bi0  1  0.70435400  0.77478400  0.89265500  1
  Bi  Bi1  1  0.27389300  0.20312700  0.89320200  1
  Bi  Bi2  1  0.38631800  0.03100300  0.89733400  1
  Bi  Bi3  1  0.56295300  0.91666400  0.89202500  1
  Bi  Bi4  1  0.05361700  0.55447600  0.88633900  1
  Bi  Bi5  1  0.17856900  0.39184700  0.89821200  1
  Bi  Bi6  1  0.88459200  0.67165200  0.89657400  1
  Bi  Bi7  1  0.39184700  0.17856900  0.10178800  1
  Bi  Bi8  1  0.67165200  0.88459200  0.10342600  1
  Bi  Bi9  1  0.55447600  0.05361700  0.11366100  1
  Bi  Bi10  1  0.03100300  0.38631800  0.10266600  1
  Bi  Bi11  1  0.91666400  0.56295300  0.10797500  1
  Bi  Bi12  1  0.77478400  0.70435400  0.10734500  1
  Bi  Bi13  1  0.20312700  0.27389300  0.10679800  1
  Bi  Bi14  1  0.70312700  0.77389300  0.39320200  1
  Bi  Bi15  1  0.27478400  0.20435400  0.39265500  1
  Bi  Bi16  1  0.41666400  0.06295300  0.39202500  1
  Bi  Bi17  1  0.53100300  0.88631800  0.39733400  1
  Bi  Bi18  1  0.05447600  0.55361700  0.38633900  1
  Bi  Bi19  1  0.89184700  0.67856900  0.39821200  1
  Bi  Bi20  1  0.17165200  0.38459200  0.39657400  1
  Bi  Bi21  1  0.38459200  0.17165200  0.60342600  1
  Bi  Bi22  1  0.67856900  0.89184700  0.60178800  1
  Bi  Bi23  1  0.55361700  0.05447600  0.61366100  1
  Bi  Bi24  1  0.06295300  0.41666400  0.60797500  1
  Bi  Bi25  1  0.88631800  0.53100300  0.60266600  1
  Bi  Bi26  1  0.20435400  0.27478400  0.60734500  1
  Bi  Bi27  1  0.77389300  0.70312700  0.60679800  1
  O  O0  1  0.80034800  0.23223700  0.98899200  1
  O  O1  1  0.94715900  0.09219900  0.99567000  1
  O  O2  1  0.59212700  0.44806900  0.99414500  1
  O  O3  1  0.85133400  0.13866000  0.98882300  1
  O  O4  1  0.64321400  0.35254100  0.99401700  1
  O  O5  1  0.49168600  0.49168600  0.00000000  1
  O  O6  1  0.99106100  0.99106100  0.00000000  1
  O  O7  1  0.35254100  0.64321400  0.00598300  1
  O  O8  1  0.13866000  0.85133400  0.01117700  1
  O  O9  1  0.09219900  0.94715900  0.00433000  1
  O  O10  1  0.44806900  0.59212700  0.00585500  1
  O  O11  1  0.23223700  0.80034800  0.01100800  1
  O  O12  1  0.73223700  0.30034800  0.48899200  1
  O  O13  1  0.94806900  0.09212700  0.49414500  1
  O  O14  1  0.59219900  0.44715900  0.49567000  1
  O  O15  1  0.85254100  0.14321400  0.49401700  1
  O  O16  1  0.63866000  0.35133400  0.48882300  1
  O  O17  1  0.49106100  0.49106100  0.50000000  1
  O  O18  1  0.99168600  0.99168600  0.50000000  1
  O  O19  1  0.35133400  0.63866000  0.51117700  1
  O  O20  1  0.14321400  0.85254100  0.50598300  1
  O  O21  1  0.44715900  0.59219900  0.50433000  1
  O  O22  1  0.09212700  0.94806900  0.50585500  1
  O  O23  1  0.30034800  0.73223700  0.51100800  1
  F  F0  1  0.06460400  0.06480700  0.75044600  1
  F  F1  1  0.56460400  0.56480700  0.74955400  1
  F  F2  1  0.36475800  0.49337300  0.77318400  1
  F  F3  1  0.98856600  0.85987600  0.77229400  1
  F  F4  1  0.50787900  0.76820300  0.78694600  1
  F  F5  1  0.24611000  0.98701800  0.79140700  1
  F  F6  1  0.17337500  0.56005500  0.81042900  1
  F  F7  1  0.04111500  0.65486200  0.80715800  1
  F  F8  1  0.42544200  0.92442600  0.81123200  1
  F  F9  1  0.73247600  0.30269400  0.98277000  1
  F  F10  1  0.30269400  0.73247600  0.01723000  1
  F  F11  1  0.92442600  0.42544200  0.18876800  1
  F  F12  1  0.65486200  0.04111500  0.19284200  1
  F  F13  1  0.56005500  0.17337500  0.18957100  1
  F  F14  1  0.98701800  0.24611000  0.20859300  1
  F  F15  1  0.76820300  0.50787900  0.21305400  1
  F  F16  1  0.85987600  0.98856600  0.22770600  1
  F  F17  1  0.49337300  0.36475800  0.22681600  1
  F  F18  1  0.06480700  0.06460400  0.24955400  1
  F  F19  1  0.56480700  0.56460400  0.25044600  1
  F  F20  1  0.99337300  0.86475800  0.27318400  1
  F  F21  1  0.35987600  0.48856600  0.27229400  1
  F  F22  1  0.48701800  0.74611000  0.29140700  1
  F  F23  1  0.26820300  0.00787900  0.28694600  1
  F  F24  1  0.06005500  0.67337500  0.31042900  1
  F  F25  1  0.15486200  0.54111500  0.30715800  1
  F  F26  1  0.42442600  0.92544200  0.31123200  1
  F  F27  1  0.80269400  0.23247600  0.48277000  1
  F  F28  1  0.23247600  0.80269400  0.51723000  1
  F  F29  1  0.92544200  0.42442600  0.68876800  1
  F  F30  1  0.54111500  0.15486200  0.69284200  1
  F  F31  1  0.67337500  0.06005500  0.68957100  1
  F  F32  1  0.00787900  0.26820300  0.71305400  1
  F  F33  1  0.74611000  0.48701800  0.70859300  1
  F  F34  1  0.48856600  0.35987600  0.72770600  1
  F  F35  1  0.86475800  0.99337300  0.72681600  1
loop_
_geom_bond_atom_site_label_1
_geom_bond_atom_site_label_2
_geom_bond_distance
_geom_bond_site_symmetry_2
Bi0 O10 2.358346 1_556
Bi0 O5 2.374331 1_556
Bi0 O6 2.386890 1_556
Bi0 F1 2.417640 1_555
Bi0 O1 2.513935 1_565
Bi0 F35 2.524681 1_555
Bi0 F2 2.558285 1_555
Bi1 O9 2.350843 1_546
Bi1 O6 2.373430 1_446
Bi1 O5 2.393386 1_556
Bi1 F0 2.421003 1_555
Bi1 O2 2.492025 1_555
Bi1 F34 2.509761 1_555
Bi1 F3 2.580512 1_445
Bi2 O8 2.275258 1_546
Bi2 O11 2.320493 1_546
Bi2 F5 2.360151 1_545
Bi2 O4 2.399373 1_555
Bi2 F7 2.414708 1_545
Bi2 F9 2.532686 1_555
Bi2 F30 2.614467 1_555
Bi3 O3 2.288548 1_565
Bi3 O7 2.312211 1_556
Bi3 F4 2.321849 1_555
Bi3 F6 2.445592 1_555
Bi3 F10 2.479286 1_556
Bi3 O0 2.510910 1_565
Bi3 F31 2.581254 1_565
Bi4 F8 2.312724 1_555
Bi4 O11 2.339891 1_556
Bi4 F10 2.434610 1_556
Bi4 F9 2.439737 1_455
Bi4 F29 2.444140 1_455
Bi4 F7 2.463717 1_555
Bi4 O0 2.475324 1_455
Bi4 F6 2.486733 1_555
Bi5 O10 2.317352 1_556
Bi5 O7 2.350952 1_556
Bi5 O1 2.352537 1_455
Bi5 F2 2.396949 1_555
Bi5 O3 2.478689 1_455
Bi5 F32 2.523935 1_555
Bi5 F4 2.596395 1_555
Bi6 O9 2.325072 1_656
Bi6 O2 2.332960 1_555
Bi6 O8 2.369345 1_656
Bi6 F3 2.390173 1_555
Bi6 F5 2.488845 1_655
Bi6 O4 2.521710 1_555
Bi6 F33 2.574942 1_555
Bi7 O2 2.317352 1_554
Bi7 O4 2.350952 1_554
Bi7 O9 2.352537 1_545
Bi7 F17 2.396949 1_555
Bi7 O8 2.478689 1_545
Bi7 F23 2.523935 1_555
Bi7 F15 2.596395 1_555
Bi8 O1 2.325072 1_564
Bi8 O10 2.332960 1_555
Bi8 O3 2.369345 1_564
Bi8 F16 2.390173 1_555
Bi8 F14 2.488845 1_565
Bi8 O7 2.521710 1_555
Bi8 F22 2.574942 1_555
Bi9 F11 2.312724 1_555
Bi9 O0 2.339891 1_554
Bi9 F9 2.434610 1_554
Bi9 F10 2.439737 1_545
Bi9 F26 2.444140 1_545
Bi9 F12 2.463717 1_555
Bi9 O11 2.475324 1_545
Bi9 F13 2.486733 1_555
Bi10 O3 2.275258 1_454
Bi10 O0 2.320493 1_454
Bi10 F14 2.360151 1_455
Bi10 O7 2.399373 1_555
Bi10 F12 2.414708 1_455
Bi10 F10 2.532686 1_555
Bi10 F25 2.614467 1_555
Bi11 O8 2.288548 1_655
Bi11 O4 2.312211 1_554
Bi11 F15 2.321849 1_555
Bi11 F13 2.445592 1_555
Bi11 F9 2.479286 1_554
Bi11 O11 2.510910 1_655
Bi11 F24 2.581254 1_655
Bi12 O2 2.358346 1_554
Bi12 O5 2.374331 1_555
Bi12 O6 2.386890 1_555
Bi12 F19 2.417640 1_555
Bi12 O9 2.513935 1_655
Bi12 F20 2.524681 1_555
Bi12 F17 2.558285 1_555
Bi13 O1 2.350843 1_454
Bi13 O6 2.373430 1_445
Bi13 O5 2.393386 1_555
Bi13 F18 2.421003 1_555
Bi13 O10 2.492025 1_555
Bi13 F21 2.509761 1_555
Bi13 F16 2.580512 1_445
Bi14 O21 2.350843 1_555
Bi14 O17 2.373430 1_555
Bi14 O18 2.393386 1_555
Bi14 F19 2.421003 1_555
Bi14 O13 2.492025 1_565
Bi14 F16 2.509761 1_555
Bi14 F21 2.580512 1_555
Bi15 O22 2.358346 1_545
Bi15 O18 2.374331 1_445
Bi15 O17 2.386890 1_555
Bi15 F18 2.417640 1_555
Bi15 O14 2.513935 1_555
Bi15 F17 2.524681 1_555
Bi15 F20 2.558285 1_445
Bi16 O16 2.288548 1_555
Bi16 O20 2.312211 1_545
Bi16 F23 2.321849 1_555
Bi16 F24 2.445592 1_545
Bi16 F28 2.479286 1_545
Bi16 O12 2.510910 1_555
Bi16 F13 2.581254 1_555
Bi17 O19 2.275258 1_555
Bi17 O23 2.320493 1_555
Bi17 F22 2.360151 1_555
Bi17 O15 2.399373 1_565
Bi17 F25 2.414708 1_555
Bi17 F27 2.532686 1_565
Bi17 F12 2.614467 1_565
Bi18 F26 2.312724 1_555
Bi18 O23 2.339891 1_555
Bi18 F28 2.434610 1_555
Bi18 F27 2.439737 1_455
Bi18 F11 2.444140 1_455
Bi18 F25 2.463717 1_555
Bi18 O12 2.475324 1_455
Bi18 F24 2.486733 1_555
Bi19 O22 2.317352 1_655
Bi19 O20 2.350952 1_655
Bi19 O14 2.352537 1_555
Bi19 F20 2.396949 1_555
Bi19 O16 2.478689 1_555
Bi19 F15 2.523935 1_555
Bi19 F23 2.596395 1_665
Bi20 O21 2.325072 1_555
Bi20 O13 2.332960 1_455
Bi20 O19 2.369345 1_555
Bi20 F21 2.390173 1_555
Bi20 F22 2.488845 1_555
Bi20 O15 2.521710 1_455
Bi20 F14 2.574942 1_455
Bi21 O14 2.325072 1_555
Bi21 O22 2.332960 1_545
Bi21 O16 2.369345 1_555
Bi21 F34 2.390173 1_555
Bi21 F33 2.488845 1_555
Bi21 O20 2.521710 1_545
Bi21 F5 2.574942 1_545
Bi22 O13 2.317352 1_565
Bi22 O15 2.350952 1_565
Bi22 O21 2.352537 1_555
Bi22 F35 2.396949 1_555
Bi22 O19 2.478689 1_555
Bi22 F4 2.523935 1_555
Bi22 F32 2.596395 1_665
Bi23 F29 2.312724 1_555
Bi23 O12 2.339891 1_555
Bi23 F27 2.434610 1_555
Bi23 F28 2.439737 1_545
Bi23 F8 2.444140 1_545
Bi23 F30 2.463717 1_555
Bi23 O23 2.475324 1_545
Bi23 F31 2.486733 1_555
Bi24 O19 2.288548 1_555
Bi24 O15 2.312211 1_455
Bi24 F32 2.321849 1_555
Bi24 F31 2.445592 1_455
Bi24 F27 2.479286 1_455
Bi24 O23 2.510910 1_555
Bi24 F6 2.581254 1_555
Bi25 O16 2.275258 1_555
Bi25 O12 2.320493 1_555
Bi25 F33 2.360151 1_555
Bi25 O20 2.399373 1_655
Bi25 F30 2.414708 1_555
Bi25 F28 2.532686 1_655
Bi25 F7 2.614467 1_655
Bi26 O13 2.358346 1_455
Bi26 O18 2.374331 1_445
Bi26 O17 2.386890 1_555
Bi26 F0 2.417640 1_555
Bi26 O21 2.513935 1_555
Bi26 F2 2.524681 1_555
Bi26 F35 2.558285 1_445
Bi27 O14 2.350843 1_555
Bi27 O17 2.373430 1_555
Bi27 O18 2.393386 1_555
Bi27 F1 2.421003 1_555
Bi27 O22 2.492025 1_655
Bi27 F3 2.509761 1_555
Bi27 F34 2.580512 1_555
