# generated using pymatgen
data_Li3V3CrO8
_symmetry_space_group_name_H-M   'P 1'
_cell_length_a   6.50566764
_cell_length_b   6.50566764
_cell_length_c   6.51353685
_cell_angle_alpha   74.12534536
_cell_angle_beta   74.12534536
_cell_angle_gamma   36.70059527
_symmetry_Int_Tables_number   1
_chemical_formula_structural   Li3V3CrO8
_chemical_formula_sum   'Li3 V3 Cr1 O8'
_cell_volume   157.76395141
_cell_formula_units_Z   1
loop_
 _symmetry_equiv_pos_site_id
 _symmetry_equiv_pos_as_xyz
  1  'x, y, z'
loop_
 _atom_site_type_symbol
 _atom_site_label
 _atom_site_symmetry_multiplicity
 _atom_site_fract_x
 _atom_site_fract_y
 _atom_site_fract_z
 _atom_site_occupancy
  Li  Li0  1  0.05656200  0.05656200  0.63717200  1
  Li  Li1  1  0.17968000  0.17968000  0.99312200  1
  Li  Li2  1  0.93725300  0.93725300  0.36275100  1
  V  V0  1  0.60538900  0.60538900  0.29567300  1
  V  V1  1  0.29010700  0.29010700  0.30361600  1
  V  V2  1  0.39373800  0.39373800  0.71192200  1
  Cr  Cr0  1  0.71710100  0.71710100  0.68348900  1
  O  O0  1  0.65145800  0.65145800  0.00850500  1
  O  O1  1  0.56419100  0.56419100  0.63000300  1
  O  O2  1  0.11595300  0.11595300  0.30883800  1
  O  O3  1  0.76453700  0.76453700  0.35674500  1
  O  O4  1  0.23031100  0.23031100  0.66382200  1
  O  O5  1  0.87966600  0.87966600  0.67881800  1
  O  O6  1  0.44475700  0.44475700  0.36543100  1
  O  O7  1  0.34053900  0.34053900  0.00775500  1
loop_
_geom_bond_atom_site_label_1
_geom_bond_atom_site_label_2
_geom_bond_distance
_geom_bond_site_symmetry_2
Li0 O1 2.050231 1_545
Li0 O1 2.050231 1_455
Li0 O2 2.051230 1_555
Li0 O5 2.122393 1_445
Li0 O4 2.202056 1_555
Li1 O2 1.978751 1_556
Li1 O7 2.016096 1_556
Li1 O4 2.053920 1_555
Li1 O0 2.075166 1_456
Li1 O0 2.075166 1_546
Li2 O5 1.974892 1_555
Li2 O6 2.050549 1_655
Li2 O6 2.050549 1_565
Li2 O2 2.132371 1_665
Li2 O3 2.144592 1_555
Cr0 O5 1.999074 1_555
Cr0 O1 2.016578 1_555
Cr0 O0 2.037086 1_556
Cr0 O3 2.038151 1_555
Cr0 O4 2.055701 1_565
Cr0 O4 2.055701 1_655
O0 V0 1.791371 1_555
O1 V2 2.017058 1_555
O1 V0 2.088662 1_555
O2 V0 2.055662 1_455
O2 V0 2.055662 1_545
O2 V1 2.141195 1_555
O3 V1 2.086005 1_565
O3 V1 2.086005 1_655
O3 V0 2.114661 1_555
O4 V2 2.129800 1_555
O4 V1 2.247538 1_555
O5 V2 2.072009 1_565
O5 V2 2.072009 1_655
O6 V0 1.903214 1_555
O6 V1 2.062277 1_555
O6 V2 2.161227 1_555
O7 V1 1.846574 1_555
O7 V2 1.847966 1_554
