# generated using pymatgen
data_BiOF
_symmetry_space_group_name_H-M   'P 1'
_cell_length_a   5.82826000
_cell_length_b   11.90167400
_cell_length_c   12.08676500
_cell_angle_alpha   90.00000000
_cell_angle_beta   90.00000000
_cell_angle_gamma   90.00000000
_symmetry_Int_Tables_number   1
_chemical_formula_structural   BiOF
_chemical_formula_sum   'Bi16 O16 F16'
_cell_volume   838.41115146
_cell_formula_units_Z   16
loop_
 _symmetry_equiv_pos_site_id
 _symmetry_equiv_pos_as_xyz
  1  'x, y, z'
loop_
 _atom_site_type_symbol
 _atom_site_label
 _atom_site_symmetry_multiplicity
 _atom_site_fract_x
 _atom_site_fract_y
 _atom_site_fract_z
 _atom_site_occupancy
  Bi  Bi0  1  0.21020900  0.01327900  0.11477000  1
  Bi  Bi1  1  0.28979100  0.51327900  0.11477000  1
  Bi  Bi2  1  0.71728100  0.72770600  0.14137500  1
  Bi  Bi3  1  0.78271900  0.22770600  0.14137500  1
  Bi  Bi4  1  0.28271900  0.22770600  0.35862500  1
  Bi  Bi5  1  0.21728100  0.72770600  0.35862500  1
  Bi  Bi6  1  0.78979100  0.51327900  0.38523000  1
  Bi  Bi7  1  0.71020900  0.01327900  0.38523000  1
  Bi  Bi8  1  0.21020900  0.48672100  0.61477000  1
  Bi  Bi9  1  0.28979100  0.98672100  0.61477000  1
  Bi  Bi10  1  0.78271900  0.27229400  0.64137500  1
  Bi  Bi11  1  0.71728100  0.77229400  0.64137500  1
  Bi  Bi12  1  0.21728100  0.77229400  0.85862500  1
  Bi  Bi13  1  0.28271900  0.27229400  0.85862500  1
  Bi  Bi14  1  0.78979100  0.98672100  0.88523000  1
  Bi  Bi15  1  0.71020900  0.48672100  0.88523000  1
  O  O0  1  0.90695500  0.08716600  0.04165700  1
  O  O1  1  0.59304500  0.58716600  0.04165700  1
  O  O2  1  0.07136100  0.14470200  0.23464100  1
  O  O3  1  0.42863900  0.64470200  0.23464100  1
  O  O4  1  0.57136100  0.14470200  0.26535900  1
  O  O5  1  0.92863900  0.64470200  0.26535900  1
  O  O6  1  0.09304500  0.58716600  0.45834300  1
  O  O7  1  0.40695500  0.08716600  0.45834300  1
  O  O8  1  0.90695500  0.41283400  0.54165700  1
  O  O9  1  0.59304500  0.91283400  0.54165700  1
  O  O10  1  0.07136100  0.35529800  0.73464100  1
  O  O11  1  0.42863900  0.85529800  0.73464100  1
  O  O12  1  0.92863900  0.85529800  0.76535900  1
  O  O13  1  0.57136100  0.35529800  0.76535900  1
  O  O14  1  0.09304500  0.91283400  0.95834300  1
  O  O15  1  0.40695500  0.41283400  0.95834300  1
  F  F0  1  0.44950300  0.15745400  0.02967300  1
  F  F1  1  0.05049700  0.65745400  0.02967300  1
  F  F2  1  0.48860500  0.38892400  0.22147100  1
  F  F3  1  0.01139500  0.88892400  0.22147100  1
  F  F4  1  0.51139500  0.88892400  0.27852900  1
  F  F5  1  0.98860500  0.38892400  0.27852900  1
  F  F6  1  0.94950300  0.15745400  0.47032700  1
  F  F7  1  0.55049700  0.65745400  0.47032700  1
  F  F8  1  0.44950300  0.34254600  0.52967300  1
  F  F9  1  0.05049700  0.84254600  0.52967300  1
  F  F10  1  0.01139500  0.61107600  0.72147100  1
  F  F11  1  0.48860500  0.11107600  0.72147100  1
  F  F12  1  0.51139500  0.61107600  0.77852900  1
  F  F13  1  0.98860500  0.11107600  0.77852900  1
  F  F14  1  0.94950300  0.34254600  0.97032700  1
  F  F15  1  0.55049700  0.84254600  0.97032700  1
loop_
_geom_bond_atom_site_label_1
_geom_bond_atom_site_label_2
_geom_bond_distance
_geom_bond_site_symmetry_2
Bi0 O0 2.162889 1_455
Bi0 F3 2.279566 1_545
Bi0 O2 2.280488 1_555
Bi0 O14 2.338839 1_544
Bi0 F0 2.438730 1_555
Bi1 O1 2.162889 1_555
Bi1 F2 2.279566 1_555
Bi1 O3 2.280488 1_555
Bi1 O15 2.338839 1_554
Bi1 F1 2.438730 1_555
Bi2 O5 2.176941 1_555
Bi2 O1 2.185122 1_555
Bi2 O3 2.253166 1_555
Bi2 F1 2.508692 1_655
Bi2 F15 2.662184 1_554
Bi2 F3 2.749048 1_655
Bi2 F4 2.805295 1_555
Bi3 O4 2.176941 1_555
Bi3 O0 2.185122 1_555
Bi3 O2 2.253166 1_655
Bi3 F0 2.508692 1_555
Bi3 F14 2.662184 1_554
Bi3 F2 2.749048 1_555
Bi3 F5 2.805295 1_555
Bi4 O2 2.176941 1_555
Bi4 O7 2.185122 1_555
Bi4 O4 2.253166 1_555
Bi4 F6 2.508692 1_455
Bi4 F8 2.662184 1_555
Bi4 F5 2.749048 1_455
Bi4 F2 2.805295 1_555
Bi5 O3 2.176941 1_555
Bi5 O6 2.185122 1_555
Bi5 O5 2.253166 1_455
Bi5 F7 2.508692 1_555
Bi5 F9 2.662184 1_555
Bi5 F4 2.749048 1_555
Bi5 F3 2.805295 1_555
Bi6 O6 2.162889 1_655
Bi6 F5 2.279566 1_555
Bi6 O5 2.280488 1_555
Bi6 O8 2.338839 1_555
Bi6 F7 2.438730 1_555
Bi7 O7 2.162889 1_555
Bi7 F4 2.279566 1_545
Bi7 O4 2.280488 1_555
Bi7 O9 2.338839 1_545
Bi7 F6 2.438730 1_555
Bi8 O8 2.162889 1_455
Bi8 F10 2.279566 1_555
Bi8 O10 2.280488 1_555
Bi8 O6 2.338839 1_555
Bi8 F8 2.438730 1_555
Bi9 O9 2.162889 1_555
Bi9 F11 2.279566 1_565
Bi9 O11 2.280488 1_555
Bi9 O7 2.338839 1_565
Bi9 F9 2.438730 1_555
Bi10 O13 2.176941 1_555
Bi10 O8 2.185122 1_555
Bi10 O10 2.253166 1_655
Bi10 F8 2.508692 1_555
Bi10 F6 2.662184 1_555
Bi10 F11 2.749048 1_555
Bi10 F13 2.805295 1_555
Bi11 O12 2.176941 1_555
Bi11 O9 2.185122 1_555
Bi11 O11 2.253166 1_555
Bi11 F9 2.508692 1_655
Bi11 F7 2.662184 1_555
Bi11 F10 2.749048 1_655
Bi11 F12 2.805295 1_555
Bi12 O11 2.176941 1_555
Bi12 O14 2.185122 1_555
Bi12 O12 2.253166 1_455
Bi12 F15 2.508692 1_555
Bi12 F1 2.662184 1_556
Bi12 F12 2.749048 1_555
Bi12 F10 2.805295 1_555
Bi13 O10 2.176941 1_555
Bi13 O15 2.185122 1_555
Bi13 O13 2.253166 1_555
Bi13 F14 2.508692 1_455
Bi13 F0 2.662184 1_556
Bi13 F13 2.749048 1_455
Bi13 F11 2.805295 1_555
Bi14 O14 2.162889 1_655
Bi14 F13 2.279566 1_565
Bi14 O12 2.280488 1_555
Bi14 O0 2.338839 1_566
Bi14 F15 2.438730 1_555
Bi15 O15 2.162889 1_555
Bi15 F12 2.279566 1_555
Bi15 O13 2.280488 1_555
Bi15 O1 2.338839 1_556
Bi15 F14 2.438730 1_555
