# generated using pymatgen
data_Li2Cr2O7
_symmetry_space_group_name_H-M   'P 1'
_cell_length_a   6.61405900
_cell_length_b   6.61405900
_cell_length_c   12.45546400
_cell_angle_alpha   90.00000000
_cell_angle_beta   90.00000000
_cell_angle_gamma   90.00000000
_symmetry_Int_Tables_number   1
_chemical_formula_structural   Li2Cr2O7
_chemical_formula_sum   'Li8 Cr8 O28'
_cell_volume   544.87394379
_cell_formula_units_Z   4
loop_
 _symmetry_equiv_pos_site_id
 _symmetry_equiv_pos_as_xyz
  1  'x, y, z'
loop_
 _atom_site_type_symbol
 _atom_site_label
 _atom_site_symmetry_multiplicity
 _atom_site_fract_x
 _atom_site_fract_y
 _atom_site_fract_z
 _atom_site_occupancy
  Li  Li0  1  0.11312100  0.64737100  0.13177000  1
  Li  Li1  1  0.14737100  0.38687900  0.88177000  1
  Li  Li2  1  0.35262900  0.88687900  0.36823000  1
  Li  Li3  1  0.38687900  0.14737100  0.11823000  1
  Li  Li4  1  0.61312100  0.85262900  0.61823000  1
  Li  Li5  1  0.64737100  0.11312100  0.86823000  1
  Li  Li6  1  0.85262900  0.61312100  0.38177000  1
  Li  Li7  1  0.88687900  0.35262900  0.63177000  1
  Cr  Cr0  1  0.09366600  0.83838300  0.61929000  1
  Cr  Cr1  1  0.16161700  0.90633400  0.88071000  1
  Cr  Cr2  1  0.33838300  0.40633400  0.36929000  1
  Cr  Cr3  1  0.40633400  0.33838300  0.63071000  1
  Cr  Cr4  1  0.59366600  0.66161700  0.13071000  1
  Cr  Cr5  1  0.66161700  0.59366600  0.86929000  1
  Cr  Cr6  1  0.83838300  0.09366600  0.38071000  1
  Cr  Cr7  1  0.90633400  0.16161700  0.11929000  1
  O  O0  1  0.03983800  0.95088800  0.37613100  1
  O  O1  1  0.04876000  0.34992400  0.07633500  1
  O  O2  1  0.04911200  0.96016200  0.12386900  1
  O  O3  1  0.13244900  0.70830400  0.95825600  1
  O  O4  1  0.15007600  0.54876000  0.32633500  1
  O  O5  1  0.20830400  0.36755100  0.70825600  1
  O  O6  1  0.19297400  0.80702600  0.75000000  1
  O  O7  1  0.30702600  0.30702600  0.50000000  1
  O  O8  1  0.29169600  0.86755100  0.54174400  1
  O  O9  1  0.34992400  0.04876000  0.92366500  1
  O  O10  1  0.36755100  0.20830400  0.29174400  1
  O  O11  1  0.45088800  0.46016200  0.12613100  1
  O  O12  1  0.45124000  0.84992400  0.17366500  1
  O  O13  1  0.46016200  0.45088800  0.87386900  1
  O  O14  1  0.53983800  0.54911200  0.37386900  1
  O  O15  1  0.54876000  0.15007600  0.67366500  1
  O  O16  1  0.54911200  0.53983800  0.62613100  1
  O  O17  1  0.63244900  0.79169600  0.79174400  1
  O  O18  1  0.65007600  0.95124000  0.42366500  1
  O  O19  1  0.70830400  0.13244900  0.04174400  1
  O  O20  1  0.69297400  0.69297400  0.00000000  1
  O  O21  1  0.80702600  0.19297400  0.25000000  1
  O  O22  1  0.79169600  0.63244900  0.20825600  1
  O  O23  1  0.84992400  0.45124000  0.82633500  1
  O  O24  1  0.86755100  0.29169600  0.45825600  1
  O  O25  1  0.95088800  0.03983800  0.62386900  1
  O  O26  1  0.95124000  0.65007600  0.57633500  1
  O  O27  1  0.96016200  0.04911200  0.87613100  1
loop_
_geom_bond_atom_site_label_1
_geom_bond_atom_site_label_2
_geom_bond_distance
_geom_bond_site_symmetry_2
Li0 O2 2.113983 1_555
Li0 O1 2.127992 1_555
Li0 O3 2.202166 1_554
Li0 O22 2.331710 1_455
Li0 O4 2.521505 1_555
Li0 O11 2.555172 1_555
Li0 O12 2.658627 1_555
Li1 O13 2.113983 1_555
Li1 O23 2.127992 1_455
Li1 O5 2.202166 1_555
Li1 O3 2.331710 1_555
Li1 O1 2.521505 1_556
Li1 O27 2.555172 1_455
Li1 O9 2.658627 1_555
Li2 O0 2.113983 1_555
Li2 O18 2.127992 1_555
Li2 O8 2.202166 1_555
Li2 O10 2.331710 1_565
Li2 O12 2.521505 1_555
Li2 O14 2.555172 1_555
Li2 O4 2.658627 1_555
Li3 O11 2.113983 1_555
Li3 O12 2.127992 1_545
Li3 O10 2.202166 1_555
Li3 O19 2.331710 1_555
Li3 O9 2.521505 1_554
Li3 O2 2.555172 1_545
Li3 O1 2.658627 1_555
Li4 O16 2.113983 1_555
Li4 O15 2.127992 1_565
Li4 O17 2.202166 1_555
Li4 O8 2.331710 1_555
Li4 O18 2.521505 1_555
Li4 O25 2.555172 1_565
Li4 O26 2.658627 1_555
Li5 O27 2.113983 1_555
Li5 O9 2.127992 1_555
Li5 O19 2.202166 1_556
Li5 O17 2.331710 1_545
Li5 O15 2.521505 1_555
Li5 O13 2.555172 1_555
Li5 O23 2.658627 1_555
Li6 O14 2.113983 1_555
Li6 O4 2.127992 1_655
Li6 O22 2.202166 1_555
Li6 O24 2.331710 1_555
Li6 O26 2.521505 1_555
Li6 O0 2.555172 1_655
Li6 O18 2.658627 1_555
Li7 O25 2.113983 1_555
Li7 O26 2.127992 1_555
Li7 O24 2.202166 1_555
Li7 O5 2.331710 1_655
Li7 O23 2.521505 1_555
Li7 O16 2.555172 1_555
Li7 O15 2.658627 1_555
Cr0 O25 1.634142 1_465
Cr0 O8 1.638797 1_555
Cr0 O26 1.650711 1_455
Cr0 O6 1.767766 1_555
Cr1 O27 1.634142 1_465
Cr1 O3 1.638797 1_555
Cr1 O9 1.650711 1_565
Cr1 O6 1.767766 1_555
Cr2 O14 1.634142 1_555
Cr2 O10 1.638797 1_555
Cr2 O4 1.650711 1_555
Cr2 O7 1.767766 1_555
Cr3 O16 1.634142 1_555
Cr3 O5 1.638797 1_555
Cr3 O15 1.650711 1_555
Cr3 O7 1.767766 1_555
Cr4 O11 1.634142 1_555
Cr4 O22 1.638797 1_555
Cr4 O12 1.650711 1_555
Cr4 O20 1.767766 1_555
Cr5 O13 1.634142 1_555
Cr5 O17 1.638797 1_555
Cr5 O23 1.650711 1_555
Cr5 O20 1.767766 1_556
Cr6 O0 1.634142 1_645
Cr6 O24 1.638797 1_555
Cr6 O18 1.650711 1_545
Cr6 O21 1.767766 1_555
Cr7 O2 1.634142 1_645
Cr7 O19 1.638797 1_555
Cr7 O1 1.650711 1_655
Cr7 O21 1.767766 1_555
