# generated using pymatgen
data_Li2Cr3FeO8
_symmetry_space_group_name_H-M   'P 1'
_cell_length_a   5.25752800
_cell_length_b   7.76141369
_cell_length_c   7.83416524
_cell_angle_alpha   95.19979390
_cell_angle_beta   94.61575592
_cell_angle_gamma   108.85676171
_symmetry_Int_Tables_number   1
_chemical_formula_structural   Li2Cr3FeO8
_chemical_formula_sum   'Li4 Cr6 Fe2 O16'
_cell_volume   299.22704365
_cell_formula_units_Z   2
loop_
 _symmetry_equiv_pos_site_id
 _symmetry_equiv_pos_as_xyz
  1  'x, y, z'
loop_
 _atom_site_type_symbol
 _atom_site_label
 _atom_site_symmetry_multiplicity
 _atom_site_fract_x
 _atom_site_fract_y
 _atom_site_fract_z
 _atom_site_occupancy
  Li  Li0  1  0.99828200  0.99778600  0.00150600  1
  Li  Li1  1  0.49496900  0.50009100  0.49796900  1
  Li  Li2  1  0.25334400  0.25593800  0.75660200  1
  Li  Li3  1  0.74595000  0.74885500  0.24664300  1
  Cr  Cr0  1  0.55254400  0.06518500  0.18645300  1
  Cr  Cr1  1  0.70362900  0.18297400  0.56219700  1
  Cr  Cr2  1  0.04600100  0.56934300  0.68784400  1
  Cr  Cr3  1  0.45271700  0.92937200  0.81132400  1
  Cr  Cr4  1  0.29206400  0.81773900  0.43682100  1
  Cr  Cr5  1  0.20471500  0.68202900  0.06256500  1
  Fe  Fe0  1  0.79670100  0.32201000  0.93990200  1
  Fe  Fe1  1  0.95184900  0.43199900  0.31155500  1
  O  O0  1  0.42489600  0.14282400  0.97145100  1
  O  O1  1  0.33969900  0.02542900  0.60048100  1
  O  O2  1  0.58153500  0.27602700  0.36208200  1
  O  O3  1  0.67809900  0.39912400  0.70991400  1
  O  O4  1  0.83543200  0.53365600  0.10937400  1
  O  O5  1  0.93048900  0.65590000  0.47087400  1
  O  O6  1  0.08446500  0.77274200  0.85144500  1
  O  O7  1  0.81714900  0.10335900  0.77286400  1
  O  O8  1  0.18772900  0.90276900  0.21925800  1
  O  O9  1  0.07363000  0.35831000  0.53973200  1
  O  O10  1  0.16660700  0.46743000  0.88793300  1
  O  O11  1  0.90688200  0.20720000  0.14808200  1
  O  O12  1  0.40681800  0.71374400  0.63704900  1
  O  O13  1  0.33017500  0.61227300  0.29198900  1
  O  O14  1  0.57800200  0.85580900  0.03479700  1
  O  O15  1  0.66562700  0.97008400  0.39129100  1
loop_
_geom_bond_atom_site_label_1
_geom_bond_atom_site_label_2
_geom_bond_distance
_geom_bond_site_symmetry_2
Li0 O11 2.108709 1_565
Li0 O14 2.176165 1_555
Li0 O0 2.203258 1_664
Li0 O6 2.205288 1_654
Li0 O8 2.208031 1_655
Li0 O7 2.298406 1_564
Li1 O12 2.098170 1_555
Li1 O2 2.149131 1_555
Li1 O13 2.151748 1_555
Li1 O3 2.182737 1_555
Li1 O9 2.198018 1_555
Li1 O5 2.255062 1_555
Li2 O10 2.052860 1_555
Li2 O9 2.209579 1_555
Li2 O0 2.225453 1_555
Li2 O3 2.226374 1_555
Li2 O7 2.235340 1_455
Li2 O1 2.262883 1_555
Li3 O4 2.105066 1_555
Li3 O15 2.145643 1_555
Li3 O14 2.170443 1_555
Li3 O13 2.173401 1_555
Li3 O5 2.226113 1_555
Li3 O8 2.280561 1_655
Cr0 O11 1.897023 1_555
Cr0 O15 1.954041 1_545
Cr0 O14 1.971427 1_545
Cr0 O8 1.977141 1_545
Cr0 O0 1.978390 1_554
Cr0 O2 1.997789 1_555
Cr1 O7 1.930434 1_555
Cr1 O2 1.932456 1_555
Cr1 O1 1.972970 1_555
Cr1 O15 1.976189 1_545
Cr1 O3 1.997578 1_555
Cr1 O9 2.013545 1_655
Cr2 O6 1.887047 1_555
Cr2 O12 1.959872 1_555
Cr2 O10 1.968213 1_555
Cr2 O9 1.971465 1_555
Cr2 O3 1.989984 1_455
Cr2 O5 2.003487 1_455
Cr3 O6 1.992711 1_555
Cr3 O1 1.997216 1_565
Cr3 O12 1.998722 1_555
Cr3 O14 2.015832 1_556
Cr3 O7 2.019803 1_565
Cr3 O0 2.036948 1_565
Cr4 O1 1.902048 1_565
Cr4 O13 1.945715 1_555
Cr4 O5 1.965088 1_455
Cr4 O12 1.966725 1_555
Cr4 O8 1.982150 1_555
Cr4 O15 2.017611 1_555
Cr5 O6 1.990340 1_554
Cr5 O4 1.993989 1_455
Cr5 O10 2.003289 1_554
Cr5 O14 2.031996 1_555
Cr5 O13 2.043299 1_555
Cr5 O8 2.045838 1_555
Fe0 O4 1.961506 1_556
Fe0 O10 2.003424 1_655
Fe0 O0 2.049180 1_555
Fe0 O11 2.057796 1_556
Fe0 O3 2.061377 1_555
Fe0 O7 2.083745 1_555
Fe1 O4 1.971954 1_555
Fe1 O11 2.004949 1_555
Fe1 O2 2.024869 1_555
Fe1 O9 2.042128 1_655
Fe1 O13 2.055851 1_655
Fe1 O5 2.084686 1_555
