# generated using pymatgen
data_K5YH8(CO2)8
_symmetry_space_group_name_H-M   'P 1'
_cell_length_a   8.53013790
_cell_length_b   8.53013790
_cell_length_c   15.15832008
_cell_angle_alpha   76.20514362
_cell_angle_beta   76.20514362
_cell_angle_gamma   89.82725915
_symmetry_Int_Tables_number   1
_chemical_formula_structural   K5YH8(CO2)8
_chemical_formula_sum   'K10 Y2 H16 C16 O32'
_cell_volume   1038.56111924
_cell_formula_units_Z   2
loop_
 _symmetry_equiv_pos_site_id
 _symmetry_equiv_pos_as_xyz
  1  'x, y, z'
loop_
 _atom_site_type_symbol
 _atom_site_label
 _atom_site_symmetry_multiplicity
 _atom_site_fract_x
 _atom_site_fract_y
 _atom_site_fract_z
 _atom_site_occupancy
  K  K0  1  0.00000000  0.00000000  0.00000000  1
  K  K1  1  0.00000000  0.00000000  0.50000000  1
  K  K2  1  0.59906600  0.21595200  0.97968800  1
  K  K3  1  0.78404800  0.40093400  0.52031200  1
  K  K4  1  0.40093400  0.78404800  0.02031200  1
  K  K5  1  0.21595200  0.59906600  0.47968800  1
  K  K6  1  0.79230800  0.59473500  0.99954800  1
  K  K7  1  0.40526500  0.20769200  0.50045200  1
  K  K8  1  0.20769200  0.40526500  0.00045200  1
  K  K9  1  0.59473500  0.79230800  0.49954800  1
  Y  Y0  1  0.19477600  0.80522400  0.75000000  1
  Y  Y1  1  0.80522400  0.19477600  0.25000000  1
  H  H0  1  0.99609600  0.39865400  0.78046500  1
  H  H1  1  0.60134600  0.00390400  0.71953500  1
  H  H2  1  0.00390400  0.60134600  0.21953500  1
  H  H3  1  0.39865400  0.99609600  0.28046500  1
  H  H4  1  0.36044300  0.41795900  0.74334800  1
  H  H5  1  0.58204100  0.63955700  0.75665200  1
  H  H6  1  0.63955700  0.58204100  0.25665200  1
  H  H7  1  0.41795900  0.36044300  0.24334800  1
  H  H8  1  0.81225400  0.96144900  0.75534000  1
  H  H9  1  0.03855100  0.18774600  0.74466000  1
  H  H10  1  0.18774600  0.03855100  0.24466000  1
  H  H11  1  0.96144900  0.81225400  0.25534000  1
  H  H12  1  0.97864000  0.54611000  0.64849700  1
  H  H13  1  0.45389000  0.02136000  0.85150300  1
  H  H14  1  0.02136000  0.45389000  0.35150300  1
  H  H15  1  0.54611000  0.97864000  0.14849700  1
  C  C0  1  0.99433800  0.42112300  0.84982000  1
  C  C1  1  0.57887700  0.00566200  0.65018000  1
  C  C2  1  0.00566200  0.57887700  0.15018000  1
  C  C3  1  0.42112300  0.99433800  0.34982000  1
  C  C4  1  0.38192800  0.48647900  0.66894700  1
  C  C5  1  0.51352100  0.61807200  0.83105300  1
  C  C6  1  0.61807200  0.51352100  0.33105300  1
  C  C7  1  0.48647900  0.38192800  0.16894700  1
  C  C8  1  0.81343100  0.92497900  0.83067600  1
  C  C9  1  0.07502100  0.18656900  0.66932400  1
  C  C10  1  0.18656900  0.07502100  0.16932400  1
  C  C11  1  0.92497900  0.81343100  0.33067600  1
  C  C12  1  0.93029800  0.66820500  0.63959300  1
  C  C13  1  0.33179500  0.06970200  0.86040700  1
  C  C14  1  0.06970200  0.33179500  0.36040700  1
  C  C15  1  0.66820500  0.93029800  0.13959300  1
  O  O0  1  0.06384100  0.55372500  0.84963300  1
  O  O1  1  0.44627500  0.93615900  0.65036700  1
  O  O2  1  0.93615900  0.44627500  0.15036700  1
  O  O3  1  0.55372500  0.06384100  0.34963300  1
  O  O4  1  0.92428600  0.31613900  0.92272900  1
  O  O5  1  0.68386100  0.07571400  0.57727100  1
  O  O6  1  0.07571400  0.68386100  0.07727100  1
  O  O7  1  0.31613900  0.92428600  0.42272900  1
  O  O8  1  0.32492200  0.62757000  0.65339900  1
  O  O9  1  0.37243000  0.67507800  0.84660100  1
  O  O10  1  0.67507800  0.37243000  0.34660100  1
  O  O11  1  0.62757000  0.32492200  0.15339900  1
  O  O12  1  0.69299100  0.95166300  0.89070100  1
  O  O13  1  0.04833700  0.30700900  0.60929900  1
  O  O14  1  0.30700900  0.04833700  0.10929900  1
  O  O15  1  0.95166300  0.69299100  0.39070100  1
  O  O16  1  0.93998900  0.85695900  0.84854700  1
  O  O17  1  0.14304100  0.06001100  0.65145300  1
  O  O18  1  0.06001100  0.14304100  0.15145300  1
  O  O19  1  0.85695900  0.93998900  0.34854700  1
  O  O20  1  0.00747300  0.77604500  0.66136700  1
  O  O21  1  0.22395500  0.99252700  0.83863300  1
  O  O22  1  0.99252700  0.22395500  0.33863300  1
  O  O23  1  0.77604500  0.00747300  0.16136700  1
  O  O24  1  0.81071300  0.68941300  0.60423800  1
  O  O25  1  0.31058700  0.18928700  0.89576200  1
  O  O26  1  0.18928700  0.31058700  0.39576200  1
  O  O27  1  0.68941300  0.81071300  0.10423800  1
  O  O28  1  0.45855900  0.42124100  0.60673000  1
  O  O29  1  0.57875900  0.54144100  0.89327000  1
  O  O30  1  0.54144200  0.57875900  0.39327000  1
  O  O31  1  0.42124100  0.45855800  0.10673000  1
loop_
_geom_bond_atom_site_label_1
_geom_bond_atom_site_label_2
_geom_bond_distance
_geom_bond_site_symmetry_2
K0 O23 2.735309 1_455
K0 O21 2.735309 1_544
K0 O4 2.811624 1_454
K0 O6 2.811624 1_545
K0 O16 2.986888 1_444
K0 O18 2.986888 1_555
K0 O27 2.989236 1_445
K0 O25 2.989236 1_554
K1 O22 2.735309 1_455
K1 O20 2.735309 1_545
K1 O5 2.811624 1_455
K1 O7 2.811624 1_545
K1 O17 2.986888 1_555
K1 O19 2.986888 1_445
K1 O24 2.989236 1_445
K1 O26 2.989236 1_555
K2 O4 2.773444 1_555
K2 O29 2.797424 1_555
K2 O14 2.908337 1_556
K2 O12 2.909945 1_545
K2 O11 3.054610 1_556
K2 O25 3.059385 1_555
K3 O5 2.773444 1_555
K3 O28 2.797424 1_555
K3 O15 2.908337 1_555
K3 O13 2.909945 1_655
K3 O10 3.054610 1_555
K3 O24 3.059385 1_555
K4 O6 2.773444 1_555
K4 O31 2.797431 1_555
K4 O12 2.908337 1_554
K4 O14 2.909945 1_565
K4 O9 3.054610 1_554
K4 O27 3.059385 1_555
K5 O7 2.773444 1_555
K5 O30 2.797431 1_555
K5 O13 2.908337 1_555
K5 O15 2.909945 1_455
K5 O8 3.054610 1_555
K5 O26 3.059385 1_555
K6 O27 2.720867 1_556
K6 O29 2.806056 1_555
K6 O16 2.833668 1_555
K6 O2 2.878148 1_556
K6 O0 2.918114 1_655
K6 O11 2.933856 1_556
K6 O4 2.991538 1_555
K6 O6 3.099484 1_656
K7 O26 2.720867 1_555
K7 O28 2.806056 1_555
K7 O17 2.833668 1_555
K7 O3 2.878148 1_555
K7 O1 2.918114 1_545
K7 O10 2.933856 1_555
K7 O5 2.991538 1_555
K7 O7 3.099484 1_545
K8 O25 2.720867 1_554
K8 O31 2.806053 1_555
K8 O18 2.833668 1_555
K8 O0 2.878148 1_554
K8 O2 2.918114 1_455
K8 O9 2.933856 1_554
K8 O6 2.991538 1_555
K8 O4 3.099484 1_454
K9 O24 2.720867 1_555
K9 O30 2.806053 1_555
K9 O19 2.833668 1_555
K9 O1 2.878148 1_555
K9 O3 2.918114 1_565
K9 O8 2.933856 1_555
K9 O7 2.991538 1_555
K9 O5 3.099484 1_565
H12 K5 2.798865 1_655
H13 K4 2.798865 1_546
H14 K3 2.798865 1_455
H15 K2 2.798865 1_564
C0 H0 1.109396 1_555
C0 O4 1.263628 1_555
C0 O0 1.277746 1_655
C1 H1 1.109396 1_555
C1 O5 1.263628 1_555
C1 O1 1.277746 1_545
C2 H2 1.109396 1_555
C2 O6 1.263628 1_555
C2 O2 1.277746 1_455
C3 H3 1.109396 1_555
C3 O7 1.263628 1_555
C3 O3 1.277746 1_565
C4 H4 1.111238 1_555
C4 O28 1.257185 1_555
C4 O8 1.286986 1_555
C5 H5 1.111238 1_555
C5 O29 1.257185 1_555
C5 O9 1.286986 1_555
C6 H6 1.111238 1_555
C6 O30 1.257182 1_555
C6 O10 1.286986 1_555
C7 H7 1.111238 1_555
C7 O31 1.257182 1_555
C7 O11 1.286986 1_555
C8 H8 1.112204 1_555
C8 O12 1.259660 1_555
C8 O16 1.279146 1_555
C9 H9 1.112204 1_555
C9 O13 1.259660 1_555
C9 O17 1.279146 1_555
C10 H10 1.112204 1_555
C10 O14 1.259660 1_555
C10 O18 1.279146 1_555
C11 H11 1.112204 1_555
C11 O15 1.259660 1_555
C11 O19 1.279146 1_555
C12 H12 1.108996 1_555
C12 O24 1.254534 1_555
C12 O20 1.280850 1_655
C13 H13 1.108996 1_555
C13 O25 1.254534 1_555
C13 O21 1.280850 1_545
C14 H14 1.108996 1_555
C14 O26 1.254534 1_555
C14 O22 1.280850 1_455
C15 H15 1.108996 1_555
C15 O27 1.254534 1_555
C15 O23 1.280850 1_565
O0 Y0 2.407416 1_555
O1 Y0 2.407416 1_555
O2 Y1 2.407416 1_555
O3 Y1 2.407416 1_555
O8 Y0 2.438440 1_555
O9 Y0 2.438440 1_555
O10 Y1 2.438440 1_555
O11 Y1 2.438440 1_555
O16 Y0 2.431062 1_655
O17 Y0 2.431062 1_545
O18 Y1 2.431062 1_455
O19 Y1 2.431062 1_565
O20 Y0 2.367549 1_555
O21 Y0 2.367549 1_555
O22 Y1 2.367549 1_555
O23 Y1 2.367549 1_555
