# generated using pymatgen
data_KZrPCO7
_symmetry_space_group_name_H-M   'P 1'
_cell_length_a   6.71411900
_cell_length_b   5.86252100
_cell_length_c   10.05060284
_cell_angle_alpha   89.23286966
_cell_angle_beta   90.00000000
_cell_angle_gamma   90.00000000
_symmetry_Int_Tables_number   1
_chemical_formula_structural   KZrPCO7
_chemical_formula_sum   'K2 Zr2 P2 C2 O14'
_cell_volume   395.57298975
_cell_formula_units_Z   2
loop_
 _symmetry_equiv_pos_site_id
 _symmetry_equiv_pos_as_xyz
  1  'x, y, z'
loop_
 _atom_site_type_symbol
 _atom_site_label
 _atom_site_symmetry_multiplicity
 _atom_site_fract_x
 _atom_site_fract_y
 _atom_site_fract_z
 _atom_site_occupancy
  K  K0  1  0.54874900  0.74660400  0.78223500  1
  K  K1  1  0.04874900  0.25339600  0.21776500  1
  Zr  Zr0  1  0.22399600  0.22219600  0.65231700  1
  Zr  Zr1  1  0.72399600  0.77780400  0.34768300  1
  P  P0  1  0.73022400  0.27136400  0.55020100  1
  P  P1  1  0.23022400  0.72863600  0.44979900  1
  C  C0  1  0.26939900  0.27774900  0.90570600  1
  C  C1  1  0.76939900  0.72225100  0.09429400  1
  O  O0  1  0.79298900  0.69508300  0.97449400  1
  O  O1  1  0.25873400  0.07435200  0.84510200  1
  O  O2  1  0.25121400  0.44828400  0.81496000  1
  O  O3  1  0.91500100  0.23152600  0.63962300  1
  O  O4  1  0.54328900  0.22919200  0.63570800  1
  O  O5  1  0.23804500  0.89603700  0.56773500  1
  O  O6  1  0.73051200  0.51971500  0.49530500  1
  O  O7  1  0.23051200  0.48028500  0.50469500  1
  O  O8  1  0.73804500  0.10396300  0.43226500  1
  O  O9  1  0.04328900  0.77080800  0.36429200  1
  O  O10  1  0.41500100  0.76847400  0.36037700  1
  O  O11  1  0.75121400  0.55171600  0.18504000  1
  O  O12  1  0.75873400  0.92564800  0.15489800  1
  O  O13  1  0.29298900  0.30491700  0.02550600  1
loop_
_geom_bond_atom_site_label_1
_geom_bond_atom_site_label_2
_geom_bond_distance
_geom_bond_site_symmetry_2
K0 O0 2.549233 1_555
K0 O2 2.672489 1_555
K0 O1 2.813398 1_565
K0 O5 3.117120 1_555
K0 O4 3.172200 1_565
K1 O13 2.549233 1_555
K1 O11 2.672489 1_455
K1 O12 2.813398 1_445
K1 O8 3.117120 1_455
K1 O9 3.172200 1_545
C0 O13 1.226929 1_556
C0 O1 1.348128 1_555
C0 O2 1.349763 1_555
C1 O0 1.226929 1_554
C1 O12 1.348128 1_555
C1 O11 1.349763 1_555
O1 Zr0 2.124848 1_555
O2 Zr0 2.126107 1_555
O3 P0 1.547835 1_555
O3 Zr0 2.079223 1_655
O4 P0 1.539248 1_555
O4 Zr0 2.150609 1_555
O5 P1 1.549851 1_555
O5 Zr0 2.105059 1_565
O6 P0 1.550076 1_555
O6 Zr1 2.105342 1_555
O7 P1 1.550076 1_555
O7 Zr0 2.105342 1_555
O8 P0 1.549851 1_555
O8 Zr1 2.105059 1_545
O9 P1 1.539248 1_555
O9 Zr1 2.150609 1_455
O10 P1 1.547835 1_555
O10 Zr1 2.079223 1_555
O11 Zr1 2.126107 1_555
O12 Zr1 2.124848 1_555
