# generated using pymatgen
data_TiV2CrO10
_symmetry_space_group_name_H-M   'P 1'
_cell_length_a   6.64940800
_cell_length_b   6.64940800
_cell_length_c   4.45587900
_cell_angle_alpha   90.00000000
_cell_angle_beta   90.00000000
_cell_angle_gamma   90.00000000
_symmetry_Int_Tables_number   1
_chemical_formula_structural   TiV2CrO10
_chemical_formula_sum   'Ti1 V2 Cr1 O10'
_cell_volume   197.01502683
_cell_formula_units_Z   1
loop_
 _symmetry_equiv_pos_site_id
 _symmetry_equiv_pos_as_xyz
  1  'x, y, z'
loop_
 _atom_site_type_symbol
 _atom_site_label
 _atom_site_symmetry_multiplicity
 _atom_site_fract_x
 _atom_site_fract_y
 _atom_site_fract_z
 _atom_site_occupancy
  Ti  Ti0  1  0.50000000  0.50000000  0.50000000  1
  V  V0  1  0.50000000  0.00000000  0.62032000  1
  V  V1  1  0.00000000  0.50000000  0.37968000  1
  Cr  Cr0  1  0.00000000  0.00000000  0.50000000  1
  O  O0  1  0.00000000  0.79489400  0.28587900  1
  O  O1  1  0.50000000  0.00000000  0.25674600  1
  O  O2  1  0.79489400  0.00000000  0.71412100  1
  O  O3  1  0.20510600  0.00000000  0.71412100  1
  O  O4  1  0.00000000  0.20510600  0.28587900  1
  O  O5  1  0.50000000  0.26662600  0.72244000  1
  O  O6  1  0.26662600  0.50000000  0.27756000  1
  O  O7  1  0.73337400  0.50000000  0.27756000  1
  O  O8  1  0.00000000  0.50000000  0.74325400  1
  O  O9  1  0.50000000  0.73337400  0.72244000  1
loop_
_geom_bond_atom_site_label_1
_geom_bond_atom_site_label_2
_geom_bond_distance
_geom_bond_site_symmetry_2
Cr0 O3 1.664435 1_555
Cr0 O4 1.664435 1_555
Cr0 O2 1.664435 1_455
Cr0 O0 1.664435 1_545
O0 V1 2.004921 1_555
O1 V0 1.620042 1_555
O2 V0 2.004921 1_555
O3 V0 2.004921 1_555
O4 V1 2.004921 1_555
O5 V0 1.830368 1_555
O5 Ti0 1.841328 1_555
O6 V1 1.830368 1_555
O6 Ti0 1.841328 1_555
O7 V1 1.830368 1_655
O7 Ti0 1.841328 1_555
O8 V1 1.620042 1_555
O9 V0 1.830368 1_565
O9 Ti0 1.841328 1_555
