# generated using pymatgen
data_Li2Si2Ni3O8
_symmetry_space_group_name_H-M   'P 1'
_cell_length_a   5.00135200
_cell_length_b   8.69597982
_cell_length_c   13.22332934
_cell_angle_alpha   109.16955565
_cell_angle_beta   100.06999017
_cell_angle_gamma   89.74843350
_symmetry_Int_Tables_number   1
_chemical_formula_structural   Li2Si2Ni3O8
_chemical_formula_sum   'Li6 Si6 Ni9 O24'
_cell_volume   533.97718622
_cell_formula_units_Z   3
loop_
 _symmetry_equiv_pos_site_id
 _symmetry_equiv_pos_as_xyz
  1  'x, y, z'
loop_
 _atom_site_type_symbol
 _atom_site_label
 _atom_site_symmetry_multiplicity
 _atom_site_fract_x
 _atom_site_fract_y
 _atom_site_fract_z
 _atom_site_occupancy
  Li  Li0  1  0.33262500  0.40818400  0.76858100  1
  Li  Li1  1  0.29401600  0.05488600  0.68994100  1
  Li  Li2  1  0.19955500  0.94007100  0.46648000  1
  Li  Li3  1  0.37589900  0.76243400  0.85320600  1
  Li  Li4  1  0.63116400  0.01467000  0.35864400  1
  Li  Li5  1  0.48949900  0.87281800  0.09229900  1
  Si  Si0  1  0.91431200  0.62102200  0.93418600  1
  Si  Si1  1  0.44221100  0.14164400  0.93941400  1
  Si  Si2  1  0.06036200  0.10432600  0.25297200  1
  Si  Si3  1  0.21804400  0.66294800  0.59833800  1
  Si  Si4  1  0.75882400  0.18172200  0.59785900  1
  Si  Si5  1  0.52580300  0.64365900  0.28064300  1
  Ni  Ni0  1  0.98167600  0.99199300  0.00138400  1
  Ni  Ni1  1  0.22000000  0.27593500  0.50007900  1
  Ni  Ni2  1  0.99367500  0.74108500  0.18617600  1
  Ni  Ni3  1  0.06012400  0.48527900  0.34309200  1
  Ni  Ni4  1  0.90362100  0.24482500  0.84296400  1
  Ni  Ni5  1  0.44182600  0.51158900  0.03010700  1
  Ni  Ni6  1  0.50836600  0.26290800  0.19246500  1
  Ni  Ni7  1  0.76529200  0.55735400  0.68612900  1
  Ni  Ni8  1  0.67978600  0.81672100  0.53155600  1
  O  O0  1  0.54012500  0.03526900  0.58726200  1
  O  O1  1  0.56522900  0.34094500  0.61037100  1
  O  O2  1  0.66330600  0.58679200  0.83035000  1
  O  O3  1  0.54780100  0.69890000  0.61880700  1
  O  O4  1  0.58799300  0.98135100  0.96041000  1
  O  O5  1  0.29483300  0.12669700  0.36000800  1
  O  O6  1  0.52502800  0.19049500  0.83848000  1
  O  O7  1  0.12114500  0.49327000  0.49498100  1
  O  O8  1  0.82908700  0.95342500  0.22684900  1
  O  O9  1  0.07662300  0.81969100  0.57016900  1
  O  O10  1  0.14387600  0.63562800  0.70832100  1
  O  O11  1  0.88596800  0.26723200  0.26423700  1
  O  O12  1  0.76120200  0.65302500  0.04081200  1
  O  O13  1  0.85132700  0.62986300  0.27395800  1
  O  O14  1  0.11281600  0.09655400  0.90714600  1
  O  O15  1  0.90845400  0.12697700  0.48989800  1
  O  O16  1  0.01251700  0.22767900  0.70338700  1
  O  O17  1  0.10699900  0.46082700  0.91713200  1
  O  O18  1  0.13285800  0.77484200  0.96109900  1
  O  O19  1  0.51254000  0.30116300  0.05242200  1
  O  O20  1  0.47552100  0.80139700  0.38312800  1
  O  O21  1  0.36239700  0.67121300  0.16699800  1
  O  O22  1  0.41010900  0.47383600  0.28942000  1
  O  O23  1  0.22926100  0.06975600  0.14863600  1
loop_
_geom_bond_atom_site_label_1
_geom_bond_atom_site_label_2
_geom_bond_distance
_geom_bond_site_symmetry_2
Li0 O16 2.102594 1_555
Li0 O2 2.128788 1_555
Li0 O17 2.349813 1_555
Li0 O1 2.472597 1_555
Li0 O6 2.487143 1_555
Li0 O10 2.488684 1_555
Li1 O0 1.954008 1_555
Li1 O16 2.040846 1_555
Li1 O6 2.068993 1_555
Li1 O9 2.272356 1_545
Li2 O20 2.053893 1_555
Li2 O0 2.080907 1_565
Li2 O9 2.144029 1_555
Li2 O15 2.159532 1_465
Li2 O5 2.566135 1_565
Li3 O18 2.007201 1_555
Li3 O10 2.019758 1_555
Li3 O2 2.078437 1_555
Li3 O4 2.116229 1_555
Li4 O5 1.939983 1_555
Li4 O15 1.986557 1_555
Li4 O8 2.071196 1_545
Li4 O20 2.155346 1_545
Li5 O23 2.159517 1_565
Li5 O8 2.162439 1_555
Li5 O18 2.208568 1_554
Li5 O12 2.325802 1_555
Li5 O4 2.358068 1_554
Li5 O21 2.412459 1_555
Ni0 O4 1.942804 1_554
Ni0 O14 1.960858 1_664
Ni0 O18 1.972057 1_654
Ni0 O23 2.020264 1_665
Ni1 O7 1.970957 1_555
Ni1 O5 1.978509 1_555
Ni1 O15 1.988390 1_455
Ni1 O1 2.003572 1_555
Ni2 O13 1.954997 1_555
Ni2 O8 1.966140 1_555
Ni2 O21 1.971482 1_655
Ni2 O12 1.972981 1_555
Ni3 O7 1.956049 1_555
Ni3 O11 1.959517 1_455
Ni3 O13 1.979014 1_455
Ni3 O22 1.990986 1_555
Ni4 O6 1.939634 1_555
Ni4 O14 1.968167 1_655
Ni4 O16 1.973687 1_655
Ni4 O17 1.995692 1_655
Ni5 O19 1.967985 1_555
Ni5 O12 1.976866 1_555
Ni5 O17 1.982278 1_554
Ni5 O21 1.989409 1_555
Ni6 O11 1.954240 1_555
Ni6 O22 1.979297 1_555
Ni6 O19 1.989609 1_555
Ni6 O23 2.050371 1_555
Ni7 O10 1.954570 1_655
Ni7 O3 1.964685 1_555
Ni7 O1 1.993527 1_555
Ni7 O2 1.995262 1_555
Ni8 O9 1.959056 1_655
Ni8 O3 1.966011 1_555
Ni8 O0 1.972626 1_565
Ni8 O20 2.010449 1_555
O0 Si4 1.636882 1_555
O1 Si4 1.666066 1_555
O2 Si0 1.637661 1_555
O3 Si3 1.638235 1_555
O4 Si1 1.651088 1_565
O5 Si2 1.630042 1_555
O6 Si1 1.643357 1_555
O7 Si3 1.652339 1_555
O8 Si2 1.659855 1_665
O9 Si3 1.652183 1_555
O10 Si3 1.650904 1_555
O11 Si2 1.638831 1_655
O12 Si0 1.664271 1_554
O13 Si5 1.647554 1_555
O14 Si1 1.643101 1_555
O15 Si4 1.657970 1_555
O16 Si4 1.654046 1_455
O17 Si0 1.666751 1_455
O18 Si0 1.635468 1_455
O19 Si1 1.655343 1_554
O20 Si5 1.636053 1_555
O21 Si5 1.669996 1_555
O22 Si5 1.634839 1_555
O23 Si2 1.685337 1_555
