# generated using pymatgen
data_Li4Cr3Cu3(SbO8)2
_symmetry_space_group_name_H-M   'P 1'
_cell_length_a   5.95292211
_cell_length_b   5.93129683
_cell_length_c   9.62741468
_cell_angle_alpha   90.04664257
_cell_angle_beta   89.02849283
_cell_angle_gamma   119.87970904
_symmetry_Int_Tables_number   1
_chemical_formula_structural   Li4Cr3Cu3(SbO8)2
_chemical_formula_sum   'Li4 Cr3 Cu3 Sb2 O16'
_cell_volume   294.69044196
_cell_formula_units_Z   1
loop_
 _symmetry_equiv_pos_site_id
 _symmetry_equiv_pos_as_xyz
  1  'x, y, z'
loop_
 _atom_site_type_symbol
 _atom_site_label
 _atom_site_symmetry_multiplicity
 _atom_site_fract_x
 _atom_site_fract_y
 _atom_site_fract_z
 _atom_site_occupancy
  Li  Li0  1  0.33094500  0.66594600  0.90268700  1
  Li  Li1  1  0.00031700  0.99959600  0.99275000  1
  Li  Li2  1  0.00264800  0.00091100  0.48970800  1
  Li  Li3  1  0.67375000  0.33715700  0.40165700  1
  Cr  Cr0  1  0.65978200  0.83005400  0.21510700  1
  Cr  Cr1  1  0.82853700  0.65937300  0.71412400  1
  Cr  Cr2  1  0.82840600  0.16919700  0.71408200  1
  Cu  Cu0  1  0.17228400  0.83151100  0.21322600  1
  Cu  Cu1  1  0.17220000  0.33996000  0.21255900  1
  Cu  Cu2  1  0.33949200  0.16984800  0.71459700  1
  Sb  Sb0  1  0.33301200  0.66629200  0.48938700  1
  Sb  Sb1  1  0.66333300  0.33180200  0.98814900  1
  O  O0  1  0.16081800  0.83358000  0.59322700  1
  O  O1  1  0.04422400  0.52203200  0.34413100  1
  O  O2  1  0.33822200  0.66796200  0.11155700  1
  O  O3  1  0.00028000  0.00101300  0.30164900  1
  O  O4  1  0.99175700  0.99602800  0.80550800  1
  O  O5  1  0.16074600  0.32710100  0.59311600  1
  O  O6  1  0.49007500  0.96723400  0.34700200  1
  O  O7  1  0.49392100  0.52637900  0.34814700  1
  O  O8  1  0.32316700  0.16113100  0.09215000  1
  O  O9  1  0.66566900  0.83324000  0.59740600  1
  O  O10  1  0.51898000  0.48343700  0.84434800  1
  O  O11  1  0.51856400  0.03610300  0.84395700  1
  O  O12  1  0.67546700  0.33772500  0.60814100  1
  O  O13  1  0.82666100  0.66540800  0.09413200  1
  O  O14  1  0.96236600  0.48130300  0.84241000  1
  O  O15  1  0.82437700  0.15897500  0.09292400  1
loop_
_geom_bond_atom_site_label_1
_geom_bond_atom_site_label_2
_geom_bond_distance
_geom_bond_site_symmetry_2
Li0 O11 1.981109 1_565
Li0 O10 1.981227 1_555
Li0 O14 1.999570 1_455
Li0 O2 2.011976 1_556
Li1 O4 1.804049 1_455
Li1 O8 1.937432 1_566
Li1 O15 1.967599 1_466
Li1 O13 1.969168 1_456
Li2 O3 1.810819 1_555
Li2 O0 1.956881 1_545
Li2 O5 1.958177 1_555
Li2 O9 2.007884 1_445
Li3 O7 1.971737 1_555
Li3 O6 1.978352 1_545
Li3 O1 1.980652 1_655
Li3 O12 1.988098 1_555
Cr0 O2 1.952408 1_555
Cr0 O3 1.959330 1_665
Cr0 O7 2.012114 1_555
Cr0 O6 2.017147 1_555
Cr0 O15 2.051807 1_565
Cr0 O13 2.054884 1_555
Cr1 O4 1.948935 1_555
Cr1 O12 1.951243 1_555
Cr1 O10 2.016027 1_555
Cr1 O14 2.037023 1_555
Cr1 O0 2.054871 1_655
Cr1 O9 2.073939 1_555
Cr2 O4 1.949603 1_545
Cr2 O12 1.951471 1_555
Cr2 O11 2.015262 1_555
Cr2 O14 2.036675 1_555
Cr2 O5 2.055470 1_655
Cr2 O9 2.069019 1_545
Cu0 O3 1.943862 1_565
Cu0 O2 1.948148 1_555
Cu0 O1 2.028756 1_555
Cu0 O8 2.050942 1_565
Cu0 O6 2.109310 1_555
Cu0 O13 2.139374 1_455
Cu1 O3 1.935920 1_555
Cu1 O2 1.939570 1_555
Cu1 O1 2.033696 1_555
Cu1 O8 2.046694 1_555
Cu1 O7 2.137048 1_555
Cu1 O15 2.151840 1_455
Cu2 O4 1.981830 1_445
Cu2 O12 1.997480 1_555
Cu2 O11 2.050822 1_555
Cu2 O10 2.054988 1_555
Cu2 O0 2.097465 1_545
Cu2 O5 2.098298 1_555
O0 Sb0 2.002929 1_555
O1 Sb0 2.063284 1_555
O5 Sb0 2.002337 1_555
O6 Sb0 2.058421 1_555
O7 Sb0 2.049686 1_555
O8 Sb1 2.004567 1_554
O9 Sb0 2.024330 1_555
O10 Sb1 2.067950 1_555
O11 Sb1 2.067967 1_555
O13 Sb1 2.003805 1_554
O14 Sb1 2.066002 1_555
O15 Sb1 2.000253 1_554
