# generated using pymatgen
data_NaV2P2(H4O7)2
_symmetry_space_group_name_H-M   'P 1'
_cell_length_a   6.36877259
_cell_length_b   6.35893956
_cell_length_c   13.44634431
_cell_angle_alpha   80.17558752
_cell_angle_beta   87.32965553
_cell_angle_gamma   89.85889246
_symmetry_Int_Tables_number   1
_chemical_formula_structural   NaV2P2(H4O7)2
_chemical_formula_sum   'Na2 V4 P4 H16 O28'
_cell_volume   535.98188021
_cell_formula_units_Z   2
loop_
 _symmetry_equiv_pos_site_id
 _symmetry_equiv_pos_as_xyz
  1  'x, y, z'
loop_
 _atom_site_type_symbol
 _atom_site_label
 _atom_site_symmetry_multiplicity
 _atom_site_fract_x
 _atom_site_fract_y
 _atom_site_fract_z
 _atom_site_occupancy
  Na  Na0  1  0.41407300  0.01140900  0.74700100  1
  Na  Na1  1  0.58592700  0.98859100  0.25299900  1
  V  V0  1  0.24103700  0.73599400  0.54641000  1
  V  V1  1  0.75896300  0.26400600  0.45359000  1
  V  V2  1  0.75595500  0.76114700  0.95238700  1
  V  V3  1  0.24404500  0.23885300  0.04761400  1
  P  P0  1  0.74845400  0.74741600  0.50205000  1
  P  P1  1  0.25154600  0.25258400  0.49795000  1
  P  P2  1  0.74982100  0.24868700  0.00185500  1
  P  P3  1  0.25017900  0.75131300  0.99814500  1
  H  H0  1  0.34861200  0.55035200  0.74240000  1
  H  H1  1  0.65138800  0.44964800  0.25760000  1
  H  H2  1  0.15751800  0.67713200  0.78543900  1
  H  H3  1  0.84248200  0.32286800  0.21456100  1
  H  H4  1  0.81962700  0.75867400  0.72876800  1
  H  H5  1  0.18037300  0.24132600  0.27123200  1
  H  H6  1  0.86485300  0.98422900  0.75586200  1
  H  H7  1  0.13514700  0.01577100  0.24413800  1
  H  H8  1  0.08002900  0.28421600  0.69282000  1
  H  H9  1  0.91997100  0.71578400  0.30718000  1
  H  H10  1  0.02033400  0.22840900  0.81117100  1
  H  H11  1  0.97966600  0.77159100  0.18882900  1
  H  H12  1  0.61721300  0.43083700  0.68969500  1
  H  H13  1  0.38278700  0.56916300  0.31030500  1
  H  H14  1  0.61576800  0.39708800  0.81000100  1
  H  H15  1  0.38423200  0.60291200  0.18999900  1
  O  O0  1  0.25198700  0.77995400  0.42352200  1
  O  O1  1  0.74801300  0.22004600  0.57647800  1
  O  O2  1  0.22114400  0.41899700  0.56990800  1
  O  O3  1  0.77885600  0.58100300  0.43009200  1
  O  O4  1  0.26316500  0.03303400  0.56887100  1
  O  O5  1  0.73683500  0.96696600  0.43112900  1
  O  O6  1  0.93325800  0.73876600  0.57448900  1
  O  O7  1  0.06674200  0.26123400  0.42551100  1
  O  O8  1  0.54624900  0.70118600  0.57101800  1
  O  O9  1  0.45375100  0.29881400  0.42898200  1
  O  O10  1  0.45069500  0.78858200  0.92788800  1
  O  O11  1  0.54930500  0.21141800  0.07211200  1
  O  O12  1  0.06677800  0.75098300  0.92642500  1
  O  O13  1  0.93322200  0.24901700  0.07357500  1
  O  O14  1  0.74840900  0.70639400  0.07395400  1
  O  O15  1  0.25159100  0.29360600  0.92604600  1
  O  O16  1  0.74065900  0.46107000  0.92464300  1
  O  O17  1  0.25934100  0.53893000  0.07535700  1
  O  O18  1  0.77654700  0.07523600  0.93482800  1
  O  O19  1  0.22345300  0.92476400  0.06517200  1
  O  O20  1  0.24895100  0.67367300  0.72495700  1
  O  O21  1  0.75104900  0.32632700  0.27504300  1
  O  O22  1  0.76982700  0.85486300  0.77441000  1
  O  O23  1  0.23017300  0.14513700  0.22559000  1
  O  O24  1  0.05230400  0.16745600  0.75031700  1
  O  O25  1  0.94769600  0.83254400  0.24968300  1
  O  O26  1  0.53624600  0.37146800  0.75172200  1
  O  O27  1  0.46375400  0.62853200  0.24827800  1
loop_
_geom_bond_atom_site_label_1
_geom_bond_atom_site_label_2
_geom_bond_distance
_geom_bond_site_symmetry_2
Na0 O26 2.432010 1_555
Na0 O20 2.462428 1_545
Na0 O22 2.490331 1_545
Na0 O24 2.507873 1_555
Na0 O4 2.604043 1_555
Na0 O10 2.617858 1_545
Na1 O27 2.432010 1_555
Na1 O21 2.462428 1_565
Na1 O23 2.490331 1_565
Na1 O25 2.507873 1_555
Na1 O5 2.604043 1_555
Na1 O11 2.617858 1_565
H0 O20 1.010686 1_555
H1 O21 1.010686 1_555
H2 O20 0.981267 1_555
H3 O21 0.981267 1_555
H4 O22 0.979991 1_555
H5 O23 0.979991 1_555
H6 O22 1.011712 1_555
H7 O23 1.011712 1_555
H8 O24 0.986000 1_555
H9 O25 0.986000 1_555
H10 O24 0.976505 1_555
H11 O25 0.976505 1_555
H12 O26 0.978509 1_555
H13 O27 0.978509 1_555
H14 O26 0.988983 1_555
H15 O27 0.988983 1_555
O0 V0 1.626389 1_555
O1 V1 1.626389 1_555
O2 P1 1.557062 1_555
O2 V0 1.989816 1_555
O3 P0 1.557062 1_555
O3 V1 1.989816 1_555
O4 P1 1.554258 1_555
O4 V0 1.969472 1_545
O5 P0 1.554258 1_555
O5 V1 1.969472 1_565
O6 P0 1.557327 1_555
O6 V0 1.979466 1_655
O7 P1 1.557327 1_555
O7 V1 1.979466 1_455
O8 P0 1.549969 1_555
O8 V0 1.992425 1_555
O9 P1 1.549969 1_555
O9 V1 1.992425 1_555
O10 P3 1.546651 1_555
O10 V2 1.989220 1_555
O11 P2 1.546651 1_555
O11 V3 1.989217 1_555
O12 P3 1.549192 1_555
O12 V2 1.996843 1_455
O13 P2 1.549192 1_555
O13 V3 1.996842 1_655
O14 V2 1.610619 1_554
O15 V3 1.610633 1_556
O16 P2 1.559487 1_556
O16 V2 2.009230 1_555
O17 P3 1.559487 1_554
O17 V3 2.009226 1_555
O18 P2 1.543309 1_556
O18 V2 1.974721 1_545
O19 P3 1.543309 1_554
O19 V3 1.974722 1_565
O20 V0 2.368533 1_555
O21 V1 2.368533 1_555
O22 V2 2.363035 1_555
O23 V3 2.363022 1_555
