# generated using pymatgen
data_Cu3P2NO6
_symmetry_space_group_name_H-M   'P 1'
_cell_length_a   6.53329000
_cell_length_b   6.56518200
_cell_length_c   19.31184400
_cell_angle_alpha   90.00000000
_cell_angle_beta   90.00000000
_cell_angle_gamma   90.00000000
_symmetry_Int_Tables_number   1
_chemical_formula_structural   Cu3P2NO6
_chemical_formula_sum   'Cu12 P8 N4 O24'
_cell_volume   828.32820731
_cell_formula_units_Z   4
loop_
 _symmetry_equiv_pos_site_id
 _symmetry_equiv_pos_as_xyz
  1  'x, y, z'
loop_
 _atom_site_type_symbol
 _atom_site_label
 _atom_site_symmetry_multiplicity
 _atom_site_fract_x
 _atom_site_fract_y
 _atom_site_fract_z
 _atom_site_occupancy
  Cu  Cu0  1  0.58631000  0.62137600  0.62393100  1
  Cu  Cu1  1  0.41369000  0.12137600  0.37606900  1
  Cu  Cu2  1  0.08631000  0.12137600  0.87606900  1
  Cu  Cu3  1  0.91369000  0.62137600  0.12393100  1
  Cu  Cu4  1  0.17937800  0.63144700  0.63112400  1
  Cu  Cu5  1  0.82062200  0.13144700  0.36887600  1
  Cu  Cu6  1  0.67937800  0.13144700  0.86887600  1
  Cu  Cu7  1  0.32062200  0.63144700  0.13112400  1
  Cu  Cu8  1  0.49578500  0.26153200  0.56348900  1
  Cu  Cu9  1  0.50421500  0.76153200  0.43651100  1
  Cu  Cu10  1  0.99578500  0.76153200  0.93651100  1
  Cu  Cu11  1  0.00421500  0.26153200  0.06348900  1
  P  P0  1  0.38161400  0.86209600  0.58466300  1
  P  P1  1  0.61838600  0.36209600  0.41533700  1
  P  P2  1  0.88161400  0.36209600  0.91533700  1
  P  P3  1  0.11838600  0.86209600  0.08466300  1
  P  P4  1  0.88537600  0.70635900  0.57860300  1
  P  P5  1  0.11462400  0.20635900  0.42139700  1
  P  P6  1  0.38537600  0.20635900  0.92139700  1
  P  P7  1  0.61462400  0.70635900  0.07860300  1
  N  N0  1  0.40158700  0.46776600  0.74832000  1
  N  N1  1  0.59841300  0.96776600  0.25168000  1
  N  N2  1  0.90158700  0.96776600  0.75168000  1
  N  N3  1  0.09841300  0.46776600  0.24832000  1
  O  O0  1  0.62783100  0.40011000  0.49437500  1
  O  O1  1  0.37216900  0.90011000  0.50562500  1
  O  O2  1  0.12783100  0.90011000  0.00562500  1
  O  O3  1  0.87216900  0.40011000  0.99437500  1
  O  O4  1  0.88708100  0.85625200  0.52001800  1
  O  O5  1  0.11291900  0.35625200  0.47998200  1
  O  O6  1  0.38708100  0.35625200  0.97998200  1
  O  O7  1  0.61291900  0.85625200  0.02001800  1
  O  O8  1  0.88952700  0.56688100  0.87620600  1
  O  O9  1  0.11047300  0.06688100  0.12379400  1
  O  O10  1  0.38952700  0.06688100  0.62379400  1
  O  O11  1  0.61047300  0.56688100  0.37620600  1
  O  O12  1  0.56820100  0.47654000  0.71292100  1
  O  O13  1  0.43179900  0.97654000  0.28707900  1
  O  O14  1  0.06820100  0.97654000  0.78707900  1
  O  O15  1  0.93179900  0.47654000  0.21292100  1
  O  O16  1  0.41206900  0.44294900  0.81187200  1
  O  O17  1  0.58793100  0.94294900  0.18812800  1
  O  O18  1  0.91206900  0.94294900  0.68812800  1
  O  O19  1  0.08793100  0.44294900  0.31187200  1
  O  O20  1  0.22558500  0.48389100  0.71877300  1
  O  O21  1  0.77441500  0.98389100  0.28122700  1
  O  O22  1  0.72558500  0.98389100  0.78122700  1
  O  O23  1  0.27441500  0.48389100  0.21877300  1
loop_
_geom_bond_atom_site_label_1
_geom_bond_atom_site_label_2
_geom_bond_distance
_geom_bond_site_symmetry_2
Cu0 O12 1.967641 1_555
Cu0 P0 2.204795 1_555
Cu0 P4 2.212514 1_555
Cu1 O13 1.967641 1_545
Cu1 P1 2.204795 1_555
Cu1 P5 2.212514 1_555
Cu2 O14 1.967641 1_545
Cu2 P2 2.204795 1_455
Cu2 P6 2.212514 1_555
Cu3 O15 1.967641 1_555
Cu3 P3 2.204795 1_655
Cu3 P7 2.212514 1_555
Cu4 O20 1.973496 1_555
Cu4 P0 2.200854 1_555
Cu4 P4 2.227131 1_455
Cu5 O21 1.973496 1_545
Cu5 P1 2.200854 1_555
Cu5 P5 2.227131 1_655
Cu6 O22 1.973496 1_545
Cu6 P2 2.200854 1_555
Cu6 P6 2.227131 1_555
Cu7 O23 1.973496 1_555
Cu7 P3 2.200854 1_555
Cu7 P7 2.227131 1_555
Cu8 O0 1.831238 1_555
Cu8 O10 1.863144 1_555
Cu9 O1 1.831238 1_555
Cu9 O11 1.863144 1_555
Cu10 O2 1.831238 1_656
Cu10 O8 1.863144 1_555
Cu11 O3 1.831238 1_454
Cu11 O9 1.863144 1_555
N0 O16 1.239966 1_555
N0 O12 1.286689 1_555
N0 O20 1.288024 1_555
N1 O17 1.239966 1_555
N1 O13 1.286689 1_555
N1 O21 1.288024 1_555
N2 O18 1.239966 1_555
N2 O14 1.286689 1_655
N2 O22 1.288024 1_555
N3 O19 1.239966 1_555
N3 O15 1.286689 1_455
N3 O23 1.288024 1_555
O0 P1 1.547868 1_555
O1 P0 1.547868 1_555
O2 P3 1.547868 1_555
O3 P2 1.547868 1_555
O4 P4 1.499519 1_555
O5 P5 1.499519 1_555
O6 P6 1.499519 1_555
O7 P7 1.499519 1_555
O8 P2 1.543143 1_555
O9 P3 1.543143 1_545
O10 P0 1.543143 1_545
O11 P1 1.543143 1_555
