# generated using pymatgen
data_Li2V(PO4)2
_symmetry_space_group_name_H-M   'P 1'
_cell_length_a   9.33997181
_cell_length_b   9.27626806
_cell_length_c   9.37389221
_cell_angle_alpha   72.20621420
_cell_angle_beta   71.92944041
_cell_angle_gamma   112.33660834
_symmetry_Int_Tables_number   1
_chemical_formula_structural   Li2V(PO4)2
_chemical_formula_sum   'Li8 V4 P8 O32'
_cell_volume   625.89209807
_cell_formula_units_Z   4
loop_
 _symmetry_equiv_pos_site_id
 _symmetry_equiv_pos_as_xyz
  1  'x, y, z'
loop_
 _atom_site_type_symbol
 _atom_site_label
 _atom_site_symmetry_multiplicity
 _atom_site_fract_x
 _atom_site_fract_y
 _atom_site_fract_z
 _atom_site_occupancy
  Li  Li0  1  0.79518100  0.87010100  0.35340100  1
  Li  Li1  1  0.29518500  0.37007600  0.35344900  1
  Li  Li2  1  0.60151400  0.02659200  0.85332600  1
  Li  Li3  1  0.10147600  0.52660000  0.85330900  1
  Li  Li4  1  0.89852400  0.47352400  0.14665500  1
  Li  Li5  1  0.39858000  0.97355500  0.14665600  1
  Li  Li6  1  0.70484900  0.62994300  0.64662000  1
  Li  Li7  1  0.20480900  0.12987600  0.64661900  1
  V  V0  1  0.49987000  0.49996500  0.00001300  1
  V  V1  1  0.25009000  0.74992600  0.49993600  1
  V  V2  1  0.00005600  0.99990100  0.00000000  1
  V  V3  1  0.74998200  0.24997600  0.49997200  1
  P  P0  1  0.05630300  0.25606600  0.19424300  1
  P  P1  1  0.55644100  0.75608000  0.19414700  1
  P  P2  1  0.49918000  0.79956600  0.69413100  1
  P  P3  1  0.99916500  0.29948700  0.69416600  1
  P  P4  1  0.00085800  0.70047500  0.30586200  1
  P  P5  1  0.50081900  0.20042300  0.30586600  1
  P  P6  1  0.44362600  0.24395300  0.80577300  1
  P  P7  1  0.94358800  0.74388600  0.80574000  1
  O  O0  1  0.48874000  0.41110800  0.83242000  1
  O  O1  1  0.98886200  0.91105400  0.83241100  1
  O  O2  1  0.92866800  0.50671300  0.33224300  1
  O  O3  1  0.42866400  0.00669200  0.33224700  1
  O  O4  1  0.57134700  0.99330700  0.66779700  1
  O  O5  1  0.07136600  0.49326800  0.66777800  1
  O  O6  1  0.01112900  0.08898400  0.16751500  1
  O  O7  1  0.51114600  0.58893800  0.16752900  1
  O  O8  1  0.24575700  0.33266400  0.17632100  1
  O  O9  1  0.74593800  0.83262700  0.17605700  1
  O  O10  1  0.82812700  0.24159000  0.67559100  1
  O  O11  1  0.32811600  0.74156500  0.67561800  1
  O  O12  1  0.67193200  0.25845800  0.32434700  1
  O  O13  1  0.17198700  0.75844600  0.32430400  1
  O  O14  1  0.25409800  0.16735200  0.82393400  1
  O  O15  1  0.75402100  0.66732500  0.82397500  1
  O  O16  1  0.63359600  0.78929800  0.56727700  1
  O  O17  1  0.13353400  0.28919200  0.56729700  1
  O  O18  1  0.04824300  0.39259000  0.06720300  1
  O  O19  1  0.54825400  0.89258300  0.06721100  1
  O  O20  1  0.45178600  0.10747700  0.93275600  1
  O  O21  1  0.95175900  0.60745200  0.93277400  1
  O  O22  1  0.86648800  0.71082600  0.43269800  1
  O  O23  1  0.36641700  0.21072600  0.43274800  1
  O  O24  1  0.91949400  0.19315900  0.38252700  1
  O  O25  1  0.41959100  0.69318400  0.38247300  1
  O  O26  1  0.44721800  0.67375600  0.88249700  1
  O  O27  1  0.94724400  0.17376000  0.88248700  1
  O  O28  1  0.05277000  0.82621800  0.11752800  1
  O  O29  1  0.55271500  0.32624000  0.11755300  1
  O  O30  1  0.58045800  0.30682200  0.61750300  1
  O  O31  1  0.08043900  0.80665200  0.61750100  1
loop_
_geom_bond_atom_site_label_1
_geom_bond_atom_site_label_2
_geom_bond_distance
_geom_bond_site_symmetry_2
Li0 O16 1.789851 1_555
Li0 O22 1.887555 1_555
Li0 O6 1.942030 1_665
Li0 O9 1.949861 1_555
Li1 O17 1.789684 1_555
Li1 O23 1.887573 1_555
Li1 O7 1.942082 1_555
Li1 O8 1.948424 1_555
Li2 O19 1.788991 1_546
Li2 O20 1.888400 1_555
Li2 O4 1.940451 1_545
Li2 O10 1.950936 1_555
Li3 O18 1.789146 1_556
Li3 O21 1.888170 1_455
Li3 O5 1.940441 1_555
Li3 O11 1.950853 1_555
Li4 O21 1.788852 1_554
Li4 O18 1.888757 1_655
Li4 O2 1.940584 1_555
Li4 O12 1.950989 1_555
Li5 O20 1.789076 1_564
Li5 O19 1.888697 1_555
Li5 O3 1.940226 1_565
Li5 O13 1.951048 1_555
Li6 O22 1.790155 1_555
Li6 O16 1.887870 1_555
Li6 O0 1.942203 1_555
Li6 O15 1.949377 1_555
Li7 O23 1.789783 1_555
Li7 O17 1.887689 1_555
Li7 O1 1.941588 1_445
Li7 O14 1.949787 1_555
O0 P6 1.565127 1_555
O0 V0 1.996463 1_556
O1 P7 1.565278 1_555
O1 V2 1.996453 1_656
O2 P4 1.565286 1_655
O2 V3 1.997912 1_555
O3 P5 1.565035 1_555
O3 V1 1.997877 1_545
O4 P2 1.565260 1_555
O4 V3 1.997594 1_565
O5 P3 1.565424 1_455
O5 V1 1.997670 1_555
O6 P0 1.564875 1_555
O6 V2 1.997039 1_545
O7 P1 1.564769 1_555
O7 V0 1.996665 1_555
O8 P0 1.565618 1_555
O8 V0 1.993039 1_555
O9 P1 1.565393 1_555
O9 V2 1.992530 1_655
O10 P3 1.564710 1_555
O10 V3 1.989760 1_555
O11 P2 1.564615 1_555
O11 V1 1.989616 1_555
O12 P5 1.564875 1_555
O12 V3 1.989179 1_555
O13 P4 1.564825 1_555
O13 V1 1.989530 1_555
O14 P6 1.565403 1_555
O14 V2 1.992216 1_546
O15 P7 1.565479 1_555
O15 V0 1.992745 1_556
O16 P2 1.494383 1_555
O17 P3 1.494347 1_455
O18 P0 1.494655 1_555
O19 P1 1.494729 1_555
O20 P6 1.494661 1_555
O21 P7 1.494746 1_555
O22 P4 1.494506 1_655
O23 P5 1.494651 1_555
O24 P0 1.578924 1_655
O24 V3 1.975856 1_555
O25 P1 1.579373 1_555
O25 V1 1.975331 1_555
O26 P2 1.579150 1_555
O26 V0 1.976755 1_556
O27 P3 1.578721 1_555
O27 V2 1.978304 1_646
O28 P4 1.578886 1_555
O28 V2 1.976481 1_555
O29 P5 1.578970 1_555
O29 V0 1.977708 1_555
O30 P6 1.578993 1_555
O30 V3 1.976452 1_555
O31 P7 1.579099 1_455
O31 V1 1.976616 1_555
