# generated using pymatgen
data_Li4Nb(TeO4)3
_symmetry_space_group_name_H-M   'P 1'
_cell_length_a   5.28465200
_cell_length_b   5.62001123
_cell_length_c   7.71360903
_cell_angle_alpha   85.29827587
_cell_angle_beta   89.79695841
_cell_angle_gamma   89.96207475
_symmetry_Int_Tables_number   1
_chemical_formula_structural   Li4Nb(TeO4)3
_chemical_formula_sum   'Li4 Nb1 Te3 O12'
_cell_volume   228.32030858
_cell_formula_units_Z   1
loop_
 _symmetry_equiv_pos_site_id
 _symmetry_equiv_pos_as_xyz
  1  'x, y, z'
loop_
 _atom_site_type_symbol
 _atom_site_label
 _atom_site_symmetry_multiplicity
 _atom_site_fract_x
 _atom_site_fract_y
 _atom_site_fract_z
 _atom_site_occupancy
  Li  Li0  1  0.00280000  0.41564100  0.71317600  1
  Li  Li1  1  0.49843700  0.92198100  0.20647700  1
  Li  Li2  1  0.99739900  0.46375600  0.22704300  1
  Li  Li3  1  0.50004100  0.96056000  0.73565900  1
  Nb  Nb0  1  0.99968500  0.99095700  0.99757800  1
  Te  Te0  1  0.99895600  0.99650600  0.49678700  1
  Te  Te1  1  0.50276900  0.48514800  0.99687200  1
  Te  Te2  1  0.50098600  0.49657900  0.49775000  1
  O  O0  1  0.70499700  0.17619600  0.57900100  1
  O  O1  1  0.86757000  0.00735200  0.25800900  1
  O  O2  1  0.68700600  0.83336500  0.94444000  1
  O  O3  1  0.83062400  0.69883900  0.57469200  1
  O  O4  1  0.18530600  0.70257000  0.07238200  1
  O  O5  1  0.62799200  0.52033200  0.24298600  1
  O  O6  1  0.36994000  0.50943500  0.75290700  1
  O  O7  1  0.82295100  0.31951400  0.94107800  1
  O  O8  1  0.15339100  0.31381900  0.44228400  1
  O  O9  1  0.30926300  0.18760300  0.06867200  1
  O  O10  1  0.12795500  0.01673800  0.74550300  1
  O  O11  1  0.31193200  0.84070400  0.43550000  1
loop_
_geom_bond_atom_site_label_1
_geom_bond_atom_site_label_2
_geom_bond_distance
_geom_bond_site_symmetry_2
Li0 O7 2.029461 1_455
Li0 O6 2.041626 1_555
Li0 O3 2.056294 1_455
Li0 O10 2.330887 1_555
Li0 O8 2.347481 1_555
Li0 O0 2.366750 1_455
Li1 O9 2.025640 1_565
Li1 O11 2.038848 1_555
Li1 O1 2.057081 1_565
Li1 O2 2.340220 1_554
Li1 O5 2.353390 1_555
Li1 O4 2.356409 1_555
Li2 O8 1.981314 1_655
Li2 O5 1.982711 1_555
Li2 O4 1.985332 1_655
Li2 O7 2.584807 1_554
Li3 O0 1.963265 1_565
Li3 O2 1.975451 1_555
Li3 O10 1.993491 1_565
Nb0 O2 1.936257 1_555
Nb0 O4 1.941797 1_656
Nb0 O10 2.050809 1_665
Nb0 O9 2.075268 1_666
Nb0 O7 2.083379 1_565
Nb0 O1 2.133494 1_566
O0 Te0 1.982722 1_545
O0 Te2 2.148111 1_555
O1 Te0 1.966923 1_545
O2 Te1 2.193465 1_555
O3 Te0 1.945355 1_555
O3 Te2 2.190782 1_555
O4 Te1 2.180362 1_554
O5 Te1 2.037564 1_554
O5 Te2 2.068305 1_555
O6 Te1 2.004959 1_555
O6 Te2 2.090967 1_555
O7 Te1 1.993288 1_555
O8 Te0 1.974736 1_445
O8 Te2 2.166193 1_555
O9 Te1 1.998791 1_554
O10 Te0 2.050227 1_445
O11 Te0 1.945814 1_455
O11 Te2 2.194913 1_555
