# generated using pymatgen
data_Li3Cr2(AsO4)3
_symmetry_space_group_name_H-M   'P 1'
_cell_length_a   10.51052944
_cell_length_b   10.51052944
_cell_length_c   10.51052944
_cell_angle_alpha   109.47122063
_cell_angle_beta   109.47122063
_cell_angle_gamma   109.47122063
_symmetry_Int_Tables_number   1
_chemical_formula_structural   Li3Cr2(AsO4)3
_chemical_formula_sum   'Li12 Cr8 As12 O48'
_cell_volume   893.82374534
_cell_formula_units_Z   4
loop_
 _symmetry_equiv_pos_site_id
 _symmetry_equiv_pos_as_xyz
  1  'x, y, z'
loop_
 _atom_site_type_symbol
 _atom_site_label
 _atom_site_symmetry_multiplicity
 _atom_site_fract_x
 _atom_site_fract_y
 _atom_site_fract_z
 _atom_site_occupancy
  Li  Li0  1  0.37500000  0.62500000  0.25000000  1
  Li  Li1  1  0.25000000  0.37500000  0.62500000  1
  Li  Li2  1  0.25000000  0.87500000  0.12500000  1
  Li  Li3  1  0.12500000  0.87500000  0.75000000  1
  Li  Li4  1  0.62500000  0.75000000  0.87500000  1
  Li  Li5  1  0.12500000  0.75000000  0.37500000  1
  Li  Li6  1  0.37500000  0.25000000  0.12500000  1
  Li  Li7  1  0.87500000  0.25000000  0.62500000  1
  Li  Li8  1  0.87500000  0.12500000  0.25000000  1
  Li  Li9  1  0.75000000  0.12500000  0.87500000  1
  Li  Li10  1  0.75000000  0.62500000  0.37500000  1
  Li  Li11  1  0.62500000  0.37500000  0.75000000  1
  Cr  Cr0  1  0.00000000  0.50000000  0.00000000  1
  Cr  Cr1  1  0.00000000  0.00000000  0.00000000  1
  Cr  Cr2  1  0.50000000  0.00000000  0.50000000  1
  Cr  Cr3  1  0.00000000  0.50000000  0.50000000  1
  Cr  Cr4  1  0.50000000  0.00000000  0.00000000  1
  Cr  Cr5  1  0.00000000  0.00000000  0.50000000  1
  Cr  Cr6  1  0.50000000  0.50000000  0.50000000  1
  Cr  Cr7  1  0.50000000  0.50000000  0.00000000  1
  As  As0  1  0.12500000  0.25000000  0.87500000  1
  As  As1  1  0.25000000  0.62500000  0.87500000  1
  As  As2  1  0.75000000  0.87500000  0.62500000  1
  As  As3  1  0.62500000  0.87500000  0.25000000  1
  As  As4  1  0.12500000  0.37500000  0.25000000  1
  As  As5  1  0.37500000  0.75000000  0.62500000  1
  As  As6  1  0.62500000  0.25000000  0.37500000  1
  As  As7  1  0.37500000  0.12500000  0.75000000  1
  As  As8  1  0.87500000  0.62500000  0.75000000  1
  As  As9  1  0.25000000  0.12500000  0.37500000  1
  As  As10  1  0.75000000  0.37500000  0.12500000  1
  As  As11  1  0.87500000  0.75000000  0.12500000  1
  O  O0  1  0.31255800  0.41536900  0.29505700  1
  O  O1  1  0.08463100  0.20494300  0.68744200  1
  O  O2  1  0.31255800  0.39718900  0.01750100  1
  O  O3  1  0.60281100  0.68744200  0.48249900  1
  O  O4  1  0.20494300  0.62031200  0.01750100  1
  O  O5  1  0.10281100  0.12031200  0.41536900  1
  O  O6  1  0.10281100  0.48249900  0.68744200  1
  O  O7  1  0.01750100  0.81255800  0.89718900  1
  O  O8  1  0.08463100  0.37968800  0.39718900  1
  O  O9  1  0.48249900  0.87968800  0.29505700  1
  O  O10  1  0.58463100  0.68744200  0.20494300  1
  O  O11  1  0.70494300  0.01750100  0.62031200  1
  O  O12  1  0.20494300  0.08463100  0.18744200  1
  O  O13  1  0.39718900  0.58463100  0.87968800  1
  O  O14  1  0.29505700  0.81255800  0.91536900  1
  O  O15  1  0.18744200  0.70494300  0.58463100  1
  O  O16  1  0.12031200  0.10281100  0.91536900  1
  O  O17  1  0.62031200  0.20494300  0.51750100  1
  O  O18  1  0.98249900  0.29505700  0.87968800  1
  O  O19  1  0.48249900  0.10281100  0.18744200  1
  O  O20  1  0.41536900  0.60281100  0.62031200  1
  O  O21  1  0.62031200  0.91536900  0.10281100  1
  O  O22  1  0.12031200  0.51750100  0.20494300  1
  O  O23  1  0.81255800  0.01750100  0.39718900  1
  O  O24  1  0.37968800  0.08463100  0.89718900  1
  O  O25  1  0.87968800  0.48249900  0.79505700  1
  O  O26  1  0.18744200  0.98249900  0.60281100  1
  O  O27  1  0.58463100  0.39718900  0.37968800  1
  O  O28  1  0.51750100  0.89718900  0.81255800  1
  O  O29  1  0.01750100  0.70494300  0.12031200  1
  O  O30  1  0.37968800  0.79505700  0.48249900  1
  O  O31  1  0.87968800  0.89718900  0.08463100  1
  O  O32  1  0.81255800  0.29505700  0.41536900  1
  O  O33  1  0.70494300  0.18744200  0.08463100  1
  O  O34  1  0.79505700  0.91536900  0.81255800  1
  O  O35  1  0.29505700  0.98249900  0.37968800  1
  O  O36  1  0.60281100  0.41536900  0.12031200  1
  O  O37  1  0.41536900  0.31255800  0.79505700  1
  O  O38  1  0.51750100  0.12031200  0.70494300  1
  O  O39  1  0.91536900  0.62031200  0.60281100  1
  O  O40  1  0.98249900  0.18744200  0.10281100  1
  O  O41  1  0.89718900  0.51750100  0.31255800  1
  O  O42  1  0.39718900  0.31255800  0.51750100  1
  O  O43  1  0.79505700  0.37968800  0.98249900  1
  O  O44  1  0.89718900  0.87968800  0.58463100  1
  O  O45  1  0.68744200  0.60281100  0.98249900  1
  O  O46  1  0.91536900  0.79505700  0.31255800  1
  O  O47  1  0.68744200  0.58463100  0.70494300  1
loop_
_geom_bond_atom_site_label_1
_geom_bond_atom_site_label_2
_geom_bond_distance
_geom_bond_site_symmetry_2
Li0 O0 2.334197 1_555
Li0 O9 2.334197 1_555
Li0 O22 2.334197 1_555
Li0 O10 2.334197 1_555
Li0 O3 2.473445 1_555
Li0 O4 2.473445 1_555
Li0 O30 2.473445 1_555
Li0 O2 2.473445 1_555
Li1 O6 2.334197 1_555
Li1 O13 2.334197 1_555
Li1 O42 2.334197 1_555
Li1 O5 2.334197 1_555
Li1 O20 2.473445 1_555
Li1 O8 2.473445 1_555
Li1 O37 2.473445 1_555
Li1 O1 2.473445 1_555
Li2 O12 2.334197 1_565
Li2 O4 2.334197 1_555
Li2 O14 2.334197 1_554
Li2 O35 2.334197 1_555
Li2 O9 2.473445 1_555
Li2 O7 2.473445 1_554
Li2 O19 2.473445 1_565
Li2 O29 2.473445 1_555
Li3 O24 2.334197 1_565
Li3 O39 2.334197 1_455
Li3 O7 2.334197 1_555
Li3 O26 2.334197 1_555
Li3 O15 2.473445 1_555
Li3 O16 2.473445 1_565
Li3 O14 2.473445 1_555
Li3 O44 2.473445 1_455
Li4 O31 2.334197 1_556
Li4 O20 2.334197 1_555
Li4 O28 2.334197 1_555
Li4 O45 2.334197 1_555
Li4 O34 2.473445 1_555
Li4 O47 2.473445 1_555
Li4 O13 2.473445 1_555
Li4 O21 2.473445 1_556
Li5 O30 2.334197 1_555
Li5 O46 2.334197 1_455
Li5 O29 2.334197 1_555
Li5 O15 2.334197 1_555
Li5 O41 2.473445 1_455
Li5 O26 2.473445 1_555
Li5 O35 2.473445 1_555
Li5 O22 2.473445 1_555
Li6 O2 2.334197 1_555
Li6 O27 2.334197 1_555
Li6 O16 2.334197 1_554
Li6 O19 2.334197 1_555
Li6 O0 2.473445 1_555
Li6 O24 2.473445 1_554
Li6 O12 2.473445 1_555
Li6 O36 2.473445 1_555
Li7 O1 2.334197 1_655
Li7 O17 2.334197 1_555
Li7 O32 2.334197 1_555
Li7 O18 2.334197 1_555
Li7 O25 2.473445 1_555
Li7 O23 2.473445 1_555
Li7 O6 2.473445 1_655
Li7 O11 2.473445 1_555
Li8 O8 2.334197 1_655
Li8 O21 2.334197 1_545
Li8 O40 2.334197 1_555
Li8 O23 2.334197 1_555
Li8 O5 2.473445 1_655
Li8 O32 2.473445 1_555
Li8 O31 2.473445 1_545
Li8 O33 2.473445 1_555
Li9 O33 2.334197 1_556
Li9 O34 2.334197 1_545
Li9 O43 2.334197 1_555
Li9 O11 2.334197 1_555
Li9 O40 2.473445 1_556
Li9 O18 2.473445 1_555
Li9 O38 2.473445 1_555
Li9 O28 2.473445 1_545
Li10 O3 2.334197 1_555
Li10 O44 2.334197 1_555
Li10 O41 2.334197 1_555
Li10 O36 2.334197 1_555
Li10 O46 2.473445 1_555
Li10 O10 2.473445 1_555
Li10 O39 2.473445 1_555
Li10 O27 2.473445 1_555
Li11 O25 2.334197 1_555
Li11 O38 2.334197 1_555
Li11 O47 2.334197 1_555
Li11 O37 2.334197 1_555
Li11 O43 2.473445 1_555
Li11 O45 2.473445 1_555
Li11 O17 2.473445 1_555
Li11 O42 2.473445 1_555
Cr0 O29 2.009408 1_555
Cr0 O43 2.009408 1_454
Cr0 O18 2.009408 1_454
Cr0 O25 2.009408 1_454
Cr0 O22 2.009408 1_555
Cr0 O4 2.009408 1_555
Cr1 O7 2.009408 1_544
Cr1 O34 2.009408 1_444
Cr1 O31 2.009408 1_445
Cr1 O40 2.009408 1_455
Cr1 O16 2.009408 1_554
Cr1 O12 2.009408 1_555
Cr2 O17 2.009408 1_555
Cr2 O11 2.009408 1_555
Cr2 O35 2.009408 1_545
Cr2 O30 2.009408 1_545
Cr2 O38 2.009408 1_555
Cr2 O9 2.009408 1_545
Cr3 O39 2.009408 1_455
Cr3 O8 2.009408 1_555
Cr3 O6 2.009408 1_555
Cr3 O32 2.009408 1_455
Cr3 O41 2.009408 1_455
Cr3 O15 2.009408 1_555
Cr4 O24 2.009408 1_554
Cr4 O33 2.009408 1_555
Cr4 O28 2.009408 1_544
Cr4 O19 2.009408 1_555
Cr4 O21 2.009408 1_545
Cr4 O14 2.009408 1_544
Cr5 O26 2.009408 1_545
Cr5 O46 2.009408 1_445
Cr5 O23 2.009408 1_455
Cr5 O1 2.009408 1_555
Cr5 O44 2.009408 1_445
Cr5 O5 2.009408 1_555
Cr6 O27 2.009408 1_555
Cr6 O20 2.009408 1_555
Cr6 O47 2.009408 1_555
Cr6 O0 2.009408 1_555
Cr6 O42 2.009408 1_555
Cr6 O3 2.009408 1_555
Cr7 O2 2.009408 1_555
Cr7 O45 2.009408 1_554
Cr7 O13 2.009408 1_554
Cr7 O10 2.009408 1_555
Cr7 O37 2.009408 1_554
Cr7 O36 2.009408 1_555
As0 O1 1.725253 1_555
As0 O18 1.725253 1_455
As0 O2 1.725253 1_556
As0 O16 1.725253 1_555
As1 O6 1.725253 1_555
As1 O14 1.725253 1_555
As1 O13 1.725253 1_555
As1 O4 1.725253 1_556
As2 O11 1.725253 1_565
As2 O3 1.725253 1_555
As2 O44 1.725253 1_555
As2 O34 1.725253 1_555
As3 O23 1.725253 1_565
As3 O10 1.725253 1_555
As3 O21 1.725253 1_555
As3 O9 1.725253 1_555
As4 O0 1.725253 1_555
As4 O22 1.725253 1_555
As4 O40 1.725253 1_455
As4 O8 1.725253 1_555
As5 O20 1.725253 1_555
As5 O15 1.725253 1_555
As5 O28 1.725253 1_555
As5 O30 1.725253 1_555
As6 O19 1.725253 1_555
As6 O32 1.725253 1_555
As6 O27 1.725253 1_555
As6 O17 1.725253 1_555
As7 O37 1.725253 1_555
As7 O26 1.725253 1_545
As7 O38 1.725253 1_555
As7 O24 1.725253 1_555
As8 O25 1.725253 1_555
As8 O47 1.725253 1_555
As8 O39 1.725253 1_555
As8 O7 1.725253 1_655
As9 O42 1.725253 1_555
As9 O12 1.725253 1_555
As9 O35 1.725253 1_545
As9 O5 1.725253 1_555
As10 O33 1.725253 1_555
As10 O41 1.725253 1_555
As10 O36 1.725253 1_555
As10 O43 1.725253 1_554
As11 O45 1.725253 1_554
As11 O29 1.725253 1_655
As11 O31 1.725253 1_555
As11 O46 1.725253 1_555
