# generated using pymatgen
data_As3H12C4S5N
_symmetry_space_group_name_H-M   'P 1'
_cell_length_a   9.76401300
_cell_length_b   10.67442544
_cell_length_c   14.32658152
_cell_angle_alpha   91.35933914
_cell_angle_beta   98.89787496
_cell_angle_gamma   92.23695229
_symmetry_Int_Tables_number   1
_chemical_formula_structural   As3H12C4S5N
_chemical_formula_sum   'As12 H48 C16 S20 N4'
_cell_volume   1473.42744444
_cell_formula_units_Z   4
loop_
 _symmetry_equiv_pos_site_id
 _symmetry_equiv_pos_as_xyz
  1  'x, y, z'
loop_
 _atom_site_type_symbol
 _atom_site_label
 _atom_site_symmetry_multiplicity
 _atom_site_fract_x
 _atom_site_fract_y
 _atom_site_fract_z
 _atom_site_occupancy
  As  As0  1  0.06234700  0.96700400  0.62347900  1
  As  As1  1  0.18388600  0.75849100  0.81040200  1
  As  As2  1  0.17087700  0.27383500  0.70447100  1
  As  As3  1  0.18647700  0.59602200  0.01771100  1
  As  As4  1  0.39459000  0.48338200  0.86472000  1
  As  As5  1  0.40291500  0.06868100  0.57493600  1
  As  As6  1  0.59708500  0.93131900  0.42506400  1
  As  As7  1  0.60541000  0.51661800  0.13528000  1
  As  As8  1  0.81352300  0.40397800  0.98228900  1
  As  As9  1  0.82912300  0.72616500  0.29552900  1
  As  As10  1  0.81611400  0.24150900  0.18959800  1
  As  As11  1  0.93765300  0.03299600  0.37652100  1
  H  H0  1  0.04096100  0.51768800  0.37725400  1
  H  H1  1  0.09916700  0.64029700  0.46464900  1
  H  H2  1  0.27898900  0.98117500  0.99009000  1
  H  H3  1  0.15702900  0.48304700  0.48250300  1
  H  H4  1  0.13544900  0.68037700  0.26783700  1
  H  H5  1  0.11585500  0.04667600  0.14648800  1
  H  H6  1  0.20760900  0.77743300  0.36939000  1
  H  H7  1  0.36377600  0.13449700  0.98893800  1
  H  H8  1  0.19783900  0.46182900  0.26135900  1
  H  H9  1  0.20548600  0.90586000  0.12923300  1
  H  H10  1  0.24306100  0.99496200  0.23970800  1
  H  H11  1  0.28633400  0.39111900  0.36511200  1
  H  H12  1  0.18461200  0.12098300  0.00161900  1
  H  H13  1  0.23782900  0.24839800  0.15364400  1
  H  H14  1  0.31922800  0.71991800  0.29088100  1
  H  H15  1  0.36042400  0.70427800  0.49185900  1
  H  H16  1  0.46131100  0.93450700  0.88674800  1
  H  H17  1  0.38297500  0.53974900  0.50736300  1
  H  H18  1  0.38097800  0.49503100  0.29822700  1
  H  H19  1  0.50522800  0.97659600  0.77483700  1
  H  H20  1  0.37435500  0.19865100  0.24299300  1
  H  H21  1  0.46750400  0.62185600  0.42137300  1
  H  H22  1  0.54928900  0.08427900  0.87467100  1
  H  H23  1  0.58429100  0.74023300  0.86601200  1
  H  H24  1  0.41570900  0.25976700  0.13398800  1
  H  H25  1  0.45071100  0.91572100  0.12532900  1
  H  H26  1  0.53249600  0.37814400  0.57862700  1
  H  H27  1  0.62564500  0.80134900  0.75700700  1
  H  H28  1  0.49477200  0.02340400  0.22516300  1
  H  H29  1  0.61902200  0.50496900  0.70177300  1
  H  H30  1  0.61702500  0.46025100  0.49263700  1
  H  H31  1  0.53868900  0.06549300  0.11325200  1
  H  H32  1  0.63957600  0.29572200  0.50814100  1
  H  H33  1  0.68077200  0.28008200  0.70911900  1
  H  H34  1  0.76217100  0.75160200  0.84635600  1
  H  H35  1  0.81538800  0.87901700  0.99838100  1
  H  H36  1  0.71366600  0.60888100  0.63488800  1
  H  H37  1  0.75693900  0.00503800  0.76029200  1
  H  H38  1  0.79451400  0.09414000  0.87076700  1
  H  H39  1  0.80216100  0.53817100  0.73864100  1
  H  H40  1  0.63622400  0.86550300  0.01106200  1
  H  H41  1  0.79239100  0.22256700  0.63061000  1
  H  H42  1  0.88414500  0.95332400  0.85351200  1
  H  H43  1  0.86455100  0.31962300  0.73216300  1
  H  H44  1  0.84297100  0.51695300  0.51749700  1
  H  H45  1  0.72101100  0.01882500  0.00991000  1
  H  H46  1  0.90083300  0.35970300  0.53535100  1
  H  H47  1  0.95903900  0.48231200  0.62274600  1
  C  C0  1  0.12753900  0.55438200  0.43002400  1
  C  C1  1  0.22583800  0.69892200  0.32263300  1
  C  C2  1  0.21420500  0.99987600  0.16294000  1
  C  C3  1  0.28102100  0.47493100  0.32208500  1
  C  C4  1  0.37528900  0.61478900  0.45638600  1
  C  C5  1  0.28527100  0.07827200  0.01825900  1
  C  C6  1  0.33886900  0.20569900  0.16681200  1
  C  C7  1  0.53781000  0.98528200  0.85145500  1
  C  C8  1  0.46219000  0.01471800  0.14854500  1
  C  C9  1  0.66113100  0.79430100  0.83318800  1
  C  C10  1  0.71472900  0.92172800  0.98174100  1
  C  C11  1  0.62471100  0.38521100  0.54361400  1
  C  C12  1  0.71897900  0.52506900  0.67791500  1
  C  C13  1  0.78579500  0.00012400  0.83706000  1
  C  C14  1  0.77416200  0.30107800  0.67736700  1
  C  C15  1  0.87246100  0.44561800  0.56997600  1
  S  S0  1  0.02662900  0.67436700  0.89678800  1
  S  S1  1  0.00121300  0.21705900  0.30999600  1
  S  S2  1  0.12093300  0.07848700  0.76460100  1
  S  S3  1  0.22562000  0.40661900  0.94371600  1
  S  S4  1  0.18524900  0.21749200  0.55610700  1
  S  S5  1  0.26637400  0.58520800  0.74036100  1
  S  S6  1  0.27145100  0.89102200  0.60115600  1
  S  S7  1  0.37212700  0.70788100  0.99701500  1
  S  S8  1  0.40143900  0.30382200  0.77138500  1
  S  S9  1  0.39470900  0.07728800  0.41834600  1
  S  S10  1  0.60529100  0.92271200  0.58165400  1
  S  S11  1  0.59856100  0.69617800  0.22861500  1
  S  S12  1  0.62787300  0.29211900  0.00298500  1
  S  S13  1  0.72854900  0.10897800  0.39884400  1
  S  S14  1  0.73362600  0.41479200  0.25963900  1
  S  S15  1  0.81475100  0.78250800  0.44389300  1
  S  S16  1  0.77438000  0.59338100  0.05628400  1
  S  S17  1  0.87906700  0.92151300  0.23539900  1
  S  S18  1  0.99878700  0.78294100  0.69000400  1
  S  S19  1  0.97337100  0.32563300  0.10321200  1
  N  N0  1  0.25117700  0.58520200  0.38208900  1
  N  N1  1  0.32507200  0.07492500  0.12395000  1
  N  N2  1  0.67492800  0.92507500  0.87605000  1
  N  N3  1  0.74882300  0.41479800  0.61791100  1
loop_
_geom_bond_atom_site_label_1
_geom_bond_atom_site_label_2
_geom_bond_distance
_geom_bond_site_symmetry_2
As0 S6 2.290759 1_555
As0 S2 2.303466 1_565
As0 S18 2.308774 1_455
As1 S0 2.286621 1_555
As1 S5 2.314136 1_555
As1 S18 2.324554 1_455
As2 S4 2.222065 1_555
As2 S8 2.313222 1_555
As2 S2 2.337497 1_555
As3 S7 2.193983 1_554
As3 S3 2.332678 1_554
As3 S0 2.338973 1_554
As4 S3 2.278213 1_555
As4 S8 2.319980 1_555
As4 S5 2.330461 1_555
As5 S9 2.236616 1_555
As5 S6 2.319067 1_545
As5 S10 2.555439 1_545
As5 S4 2.686895 1_555
As6 S10 2.236616 1_555
As6 S13 2.319067 1_565
As6 S9 2.555439 1_565
As6 S15 2.686895 1_555
As7 S16 2.278213 1_555
As7 S11 2.319980 1_555
As7 S14 2.330461 1_555
As8 S12 2.193983 1_556
As8 S16 2.332678 1_556
As8 S19 2.338973 1_556
As9 S15 2.222065 1_555
As9 S11 2.313222 1_555
As9 S17 2.337497 1_555
As10 S19 2.286621 1_555
As10 S14 2.314136 1_555
As10 S1 2.324554 1_655
As11 S13 2.290759 1_555
As11 S17 2.303466 1_545
As11 S1 2.308774 1_655
C0 H0 1.096353 1_555
C0 H1 1.097559 1_555
C0 H3 1.097866 1_555
C0 N0 1.507769 1_555
C1 H4 1.095008 1_555
C1 H6 1.097561 1_555
C1 H14 1.098114 1_555
C1 N0 1.505865 1_555
C2 H10 1.095343 1_555
C2 H5 1.095579 1_565
C2 H9 1.097821 1_555
C2 N1 1.505393 1_565
C3 H8 1.096759 1_555
C3 H11 1.096797 1_555
C3 H18 1.098059 1_555
C3 N0 1.505221 1_555
C4 H17 1.093671 1_555
C4 H15 1.096558 1_555
C4 H21 1.097369 1_555
C4 N0 1.502138 1_555
C5 H12 1.094675 1_555
C5 H7 1.095389 1_554
C5 H2 1.099272 1_544
C5 N1 1.505554 1_555
C6 H13 1.094638 1_555
C6 H24 1.097886 1_555
C6 H20 1.098109 1_555
C6 N1 1.504302 1_555
C7 H19 1.095233 1_555
C7 H22 1.096552 1_565
C7 H16 1.097982 1_555
C7 N2 1.503866 1_555
C8 H28 1.095233 1_555
C8 H25 1.096552 1_545
C8 H31 1.097982 1_555
C8 N1 1.503866 1_555
C9 H34 1.094638 1_555
C9 H23 1.097886 1_555
C9 H27 1.098109 1_555
C9 N2 1.504302 1_555
C10 H35 1.094675 1_555
C10 H40 1.095389 1_556
C10 H45 1.099272 1_566
C10 N2 1.505554 1_555
C11 H30 1.093671 1_555
C11 H32 1.096558 1_555
C11 H26 1.097369 1_555
C11 N3 1.502138 1_555
C12 H39 1.096759 1_555
C12 H36 1.096797 1_555
C12 H29 1.098059 1_555
C12 N3 1.505221 1_555
C13 H37 1.095343 1_555
C13 H42 1.095579 1_545
C13 H38 1.097821 1_555
C13 N2 1.505393 1_545
C14 H43 1.095008 1_555
C14 H41 1.097561 1_555
C14 H33 1.098114 1_555
C14 N3 1.505865 1_555
C15 H47 1.096353 1_555
C15 H46 1.097559 1_555
C15 H44 1.097866 1_555
C15 N3 1.507769 1_555
