# generated using pymatgen
data_Li3CrFe3O8
_symmetry_space_group_name_H-M   'P 1'
_cell_length_a   5.11229007
_cell_length_b   7.74352556
_cell_length_c   7.76678894
_cell_angle_alpha   81.34653979
_cell_angle_beta   70.49354643
_cell_angle_gamma   83.71888732
_symmetry_Int_Tables_number   1
_chemical_formula_structural   Li3CrFe3O8
_chemical_formula_sum   'Li6 Cr2 Fe6 O16'
_cell_volume   285.94046954
_cell_formula_units_Z   2
loop_
 _symmetry_equiv_pos_site_id
 _symmetry_equiv_pos_as_xyz
  1  'x, y, z'
loop_
 _atom_site_type_symbol
 _atom_site_label
 _atom_site_symmetry_multiplicity
 _atom_site_fract_x
 _atom_site_fract_y
 _atom_site_fract_z
 _atom_site_occupancy
  Li  Li0  1  -0.00000000  0.00000000  -0.00000000  1
  Li  Li1  1  0.00225858  0.61752586  0.12182611  1
  Li  Li2  1  -0.00419168  0.12129042  0.62706006  1
  Li  Li3  1  -0.00000000  0.50000000  0.50000000  1
  Li  Li4  1  0.00419168  0.87870958  0.37293994  1
  Li  Li5  1  -0.00225858  0.38247414  0.87817389  1
  Cr  Cr0  1  0.49242521  0.68813446  0.43814627  1
  Cr  Cr1  1  0.50757479  0.31186554  0.56185373  1
  Fe  Fe0  1  0.49694447  0.43399186  0.18897407  1
  Fe  Fe1  1  0.52509761  0.81121118  0.05508143  1
  Fe  Fe2  1  0.50127592  0.06386994  0.30770158  1
  Fe  Fe3  1  0.49872408  0.93613006  0.69229842  1
  Fe  Fe4  1  0.47490239  0.18878882  0.94491857  1
  Fe  Fe5  1  0.50305553  0.56600814  0.81102593  1
  O  O0  1  0.27355181  0.02084795  0.15374212  1
  O  O1  1  0.27098274  0.41593334  0.01982327  1
  O  O2  1  0.27445186  0.65399459  0.28532942  1
  O  O3  1  0.28901487  0.28119968  0.41227062  1
  O  O4  1  0.28556078  0.90425206  0.51415595  1
  O  O5  1  0.26389015  0.15949407  0.77494992  1
  O  O6  1  0.28521744  0.51856743  0.64342701  1
  O  O7  1  0.71533817  0.21565118  0.09692552  1
  O  O8  1  0.28466183  0.78434882  0.90307448  1
  O  O9  1  0.71478256  0.48143257  0.35657299  1
  O  O10  1  0.73610985  0.84050593  0.22505008  1
  O  O11  1  0.71443922  0.09574794  0.48584405  1
  O  O12  1  0.71098513  0.71880032  0.58772938  1
  O  O13  1  0.72554814  0.34600541  0.71467058  1
  O  O14  1  0.72901726  0.58406666  0.98017673  1
  O  O15  1  0.72644819  0.97915205  0.84625788  1
loop_
_geom_bond_atom_site_label_1
_geom_bond_atom_site_label_2
_geom_bond_distance
_geom_bond_site_symmetry_2
Li0 O10 2.130907 1_445
Li0 O5 2.130907 1_554
Li0 O7 2.141962 1_455
Li0 O8 2.141962 1_544
Li0 O15 2.151799 1_444
Li0 O0 2.151799 1_555
Li1 O1 2.031707 1_555
Li1 O14 2.102395 1_454
Li1 O9 2.136799 1_455
Li1 O10 2.156244 1_455
Li1 O8 2.179273 1_554
Li1 O2 2.236684 1_555
Li2 O15 2.051396 1_445
Li2 O11 2.119513 1_455
Li2 O5 2.127777 1_555
Li2 O13 2.145284 1_455
Li2 O3 2.162802 1_555
Li2 O4 2.195227 1_545
Li3 O2 2.091895 1_555
Li3 O13 2.091895 1_455
Li3 O9 2.136938 1_455
Li3 O6 2.136938 1_555
Li3 O3 2.155285 1_555
Li3 O12 2.155285 1_455
Li4 O0 2.051396 1_565
Li4 O4 2.119513 1_555
Li4 O10 2.127777 1_455
Li4 O2 2.145284 1_555
Li4 O12 2.162802 1_455
Li4 O11 2.195227 1_465
Li5 O14 2.031707 1_455
Li5 O1 2.102395 1_556
Li5 O6 2.136799 1_555
Li5 O5 2.156244 1_555
Li5 O7 2.179273 1_456
Li5 O13 2.236684 1_455
Cr0 O12 1.913781 1_555
Cr0 O9 1.918747 1_555
Cr0 O4 1.939243 1_555
Cr0 O2 1.939722 1_555
Cr0 O6 1.983613 1_555
Cr0 O10 2.010082 1_555
Cr1 O3 1.913781 1_555
Cr1 O6 1.918747 1_555
Cr1 O11 1.939243 1_555
Cr1 O13 1.939722 1_555
Cr1 O9 1.983613 1_555
Cr1 O5 2.010082 1_555
Fe0 O14 1.958992 1_554
Fe0 O3 1.991020 1_555
Fe0 O7 2.008442 1_555
Fe0 O2 2.036480 1_555
Fe0 O1 2.045508 1_555
Fe0 O9 2.066672 1_555
Fe1 O15 1.981053 1_554
Fe1 O14 2.005154 1_554
Fe1 O8 2.011704 1_554
Fe1 O10 2.013097 1_555
Fe1 O0 2.033605 1_565
Fe1 O2 2.116105 1_555
Fe2 O7 1.940352 1_555
Fe2 O4 1.958566 1_545
Fe2 O0 2.007639 1_555
Fe2 O3 2.022973 1_555
Fe2 O10 2.051841 1_545
Fe2 O11 2.081201 1_555
Fe3 O8 1.940352 1_555
Fe3 O11 1.958566 1_565
Fe3 O15 2.007639 1_555
Fe3 O12 2.022973 1_555
Fe3 O5 2.051841 1_565
Fe3 O4 2.081201 1_555
Fe4 O0 1.981053 1_556
Fe4 O1 2.005154 1_556
Fe4 O7 2.011704 1_556
Fe4 O5 2.013097 1_555
Fe4 O15 2.033605 1_545
Fe4 O13 2.116105 1_555
Fe5 O1 1.958992 1_556
Fe5 O12 1.991020 1_555
Fe5 O8 2.008442 1_555
Fe5 O13 2.036480 1_555
Fe5 O14 2.045508 1_555
Fe5 O6 2.066672 1_555
