# generated using pymatgen
data_LiCoSiO4
_symmetry_space_group_name_H-M   'P 1'
_cell_length_a   6.34342807
_cell_length_b   8.28017263
_cell_length_c   8.28062195
_cell_angle_alpha   79.99484738
_cell_angle_beta   112.52647315
_cell_angle_gamma   67.48100377
_symmetry_Int_Tables_number   1
_chemical_formula_structural   LiCoSiO4
_chemical_formula_sum   'Li4 Co4 Si4 O16'
_cell_volume   343.95161735
_cell_formula_units_Z   4
loop_
 _symmetry_equiv_pos_site_id
 _symmetry_equiv_pos_as_xyz
  1  'x, y, z'
loop_
 _atom_site_type_symbol
 _atom_site_label
 _atom_site_symmetry_multiplicity
 _atom_site_fract_x
 _atom_site_fract_y
 _atom_site_fract_z
 _atom_site_occupancy
  Li  Li0  1  0.49999900  0.49999700  0.50000300  1
  Li  Li1  1  0.00001200  0.74998400  0.75001700  1
  Li  Li2  1  0.49999800  0.99999900  0.00000400  1
  Li  Li3  1  0.00001100  0.24998500  0.25001600  1
  Co  Co0  1  0.50008300  0.87496400  0.37495000  1
  Co  Co1  1  0.99990000  0.12505100  0.62503700  1
  Co  Co2  1  0.50008200  0.37496500  0.87494700  1
  Co  Co3  1  0.99989800  0.62505300  0.12503500  1
  Si  Si0  1  0.00001800  0.49999400  0.50001100  1
  Si  Si1  1  0.49998300  0.75001900  0.74998100  1
  Si  Si2  1  0.00000500  0.99998900  0.00000600  1
  Si  Si3  1  0.49997000  0.25003000  0.24997100  1
  O  O0  1  0.10665200  0.59235200  0.37726600  1
  O  O1  1  0.60666800  0.84238100  0.62730900  1
  O  O2  1  0.10665500  0.09235100  0.87726200  1
  O  O3  1  0.60667100  0.34237700  0.12731200  1
  O  O4  1  0.13769300  0.99960000  0.21466800  1
  O  O5  1  0.63786000  0.24952400  0.46462700  1
  O  O6  1  0.13768700  0.49960500  0.71466200  1
  O  O7  1  0.63785200  0.74952900  0.96462700  1
  O  O8  1  0.67825700  0.62273600  0.40765200  1
  O  O9  1  0.17826300  0.87269000  0.65762300  1
  O  O10  1  0.67825900  0.12273300  0.90765100  1
  O  O11  1  0.17826700  0.37268400  0.15762500  1
  O  O12  1  0.07737900  0.28533300  0.50040000  1
  O  O13  1  0.57724900  0.53537200  0.75047100  1
  O  O14  1  0.07737800  0.78533700  0.00039500  1
  O  O15  1  0.57725300  0.03537100  0.25047500  1
loop_
_geom_bond_atom_site_label_1
_geom_bond_atom_site_label_2
_geom_bond_distance
_geom_bond_site_symmetry_2
Li0 O0 2.041787 1_555
Li0 O8 2.041833 1_555
Li0 O13 2.042016 1_555
Li0 O5 2.042063 1_555
Li1 O14 2.041165 1_556
Li1 O6 2.041186 1_555
Li1 O1 2.041716 1_455
Li1 O9 2.041795 1_555
Li2 O2 2.041767 1_564
Li2 O10 2.041831 1_564
Li2 O15 2.042026 1_565
Li2 O7 2.042041 1_554
Li3 O12 2.041194 1_555
Li3 O4 2.041205 1_545
Li3 O3 2.041702 1_455
Li3 O11 2.041774 1_555
Co0 O8 1.863719 1_555
Co0 O15 1.864158 1_565
Co0 O1 1.865081 1_555
Co0 O4 1.865516 1_555
Co1 O2 1.863706 1_655
Co1 O5 1.864066 1_555
Co1 O9 1.865087 1_645
Co1 O12 1.865593 1_655
Co2 O10 1.863746 1_555
Co2 O13 1.864148 1_555
Co2 O3 1.865118 1_556
Co2 O6 1.865542 1_555
Co3 O0 1.863753 1_655
Co3 O7 1.864091 1_554
Co3 O11 1.865139 1_655
Co3 O14 1.865623 1_655
O0 Si0 1.651786 1_555
O1 Si1 1.651651 1_555
O2 Si2 1.651881 1_546
O3 Si3 1.651597 1_555
O4 Si2 1.651900 1_555
O5 Si3 1.651630 1_555
O6 Si0 1.651806 1_555
O7 Si1 1.651593 1_555
O8 Si0 1.651876 1_655
O9 Si1 1.651627 1_555
O10 Si2 1.651803 1_646
O11 Si3 1.651542 1_555
O12 Si0 1.651898 1_555
O13 Si1 1.651606 1_555
O14 Si2 1.651817 1_555
O15 Si3 1.651655 1_555
