# generated using pymatgen
data_LiVP2O7
_symmetry_space_group_name_H-M   'P 1'
_cell_length_a   7.98666409
_cell_length_b   6.47166001
_cell_length_c   6.21370414
_cell_angle_alpha   112.86608870
_cell_angle_beta   105.04714692
_cell_angle_gamma   97.30857311
_symmetry_Int_Tables_number   1
_chemical_formula_structural   LiVP2O7
_chemical_formula_sum   'Li2 V2 P4 O14'
_cell_volume   276.23352575
_cell_formula_units_Z   2
loop_
 _symmetry_equiv_pos_site_id
 _symmetry_equiv_pos_as_xyz
  1  'x, y, z'
loop_
 _atom_site_type_symbol
 _atom_site_label
 _atom_site_symmetry_multiplicity
 _atom_site_fract_x
 _atom_site_fract_y
 _atom_site_fract_z
 _atom_site_occupancy
  Li  Li0  1  0.00000000  0.00006800  0.99984900  1
  Li  Li1  1  0.50001400  0.00001200  0.99996300  1
  V  V0  1  0.23119800  0.68955800  0.38916800  1
  V  V1  1  0.76879600  0.31042700  0.61085800  1
  P  P0  1  0.21972400  0.55085100  0.82554200  1
  P  P1  1  0.31310800  0.22259700  0.43304100  1
  P  P2  1  0.68688800  0.77737900  0.56696900  1
  P  P3  1  0.78027300  0.44915400  0.17447300  1
  O  O0  1  0.03496300  0.39249800  0.73580700  1
  O  O1  1  0.23079500  0.74844100  0.74242500  1
  O  O2  1  0.19204600  0.99395200  0.38116400  1
  O  O3  1  0.20677600  0.32521100  0.27196600  1
  O  O4  1  0.35081700  0.39873900  0.71926200  1
  O  O5  1  0.31090300  0.65732800  0.10429100  1
  O  O6  1  0.50546100  0.79896400  0.59997200  1
  O  O7  1  0.49454100  0.20104000  0.40003500  1
  O  O8  1  0.68908800  0.34267600  0.89571700  1
  O  O9  1  0.64918700  0.60129600  0.28074000  1
  O  O10  1  0.79320100  0.67471700  0.72801100  1
  O  O11  1  0.80799800  0.00604600  0.61896500  1
  O  O12  1  0.76918500  0.25156100  0.25757900  1
  O  O13  1  0.96503900  0.60748600  0.26420300  1
loop_
_geom_bond_atom_site_label_1
_geom_bond_atom_site_label_2
_geom_bond_distance
_geom_bond_site_symmetry_2
Li0 O3 2.216964 1_556
Li0 O10 2.217447 1_445
Li0 O11 2.481151 1_455
Li0 O2 2.483838 1_546
Li1 O12 2.265327 1_556
Li1 O1 2.265544 1_545
Li1 O6 2.330126 1_545
Li1 O7 2.330613 1_556
O0 P0 1.510811 1_555
O0 V1 1.984731 1_455
O1 P0 1.554964 1_555
O1 V0 2.077816 1_555
O2 P1 1.527020 1_565
O2 V0 2.050776 1_555
O3 P1 1.543586 1_555
O3 V0 2.145448 1_555
O4 P1 1.616213 1_555
O4 P0 1.617840 1_555
O5 P0 1.514936 1_554
O5 V0 1.978398 1_555
O6 P2 1.531235 1_555
O6 V0 2.100002 1_555
O7 P1 1.531260 1_555
O7 V1 2.099979 1_555
O8 P3 1.514979 1_556
O8 V1 1.978282 1_555
O9 P2 1.616167 1_555
O9 P3 1.617869 1_555
O10 P2 1.543616 1_555
O10 V1 2.145148 1_555
O11 P2 1.527065 1_545
O11 V1 2.051029 1_555
O12 P3 1.554942 1_555
O12 V1 2.077942 1_555
O13 P3 1.510792 1_555
O13 V0 1.984672 1_655
