# generated using pymatgen
data_TlPd2Se3
_symmetry_space_group_name_H-M   'P 1'
_cell_length_a   7.41883958
_cell_length_b   7.41883926
_cell_length_c   5.95140682
_cell_angle_alpha   90.00000000
_cell_angle_beta   90.00000000
_cell_angle_gamma   120.00000590
_symmetry_Int_Tables_number   1
_chemical_formula_structural   TlPd2Se3
_chemical_formula_sum   'Tl2 Pd4 Se6'
_cell_volume   283.67573304
_cell_formula_units_Z   2
loop_
 _symmetry_equiv_pos_site_id
 _symmetry_equiv_pos_as_xyz
  1  'x, y, z'
loop_
 _atom_site_type_symbol
 _atom_site_label
 _atom_site_symmetry_multiplicity
 _atom_site_fract_x
 _atom_site_fract_y
 _atom_site_fract_z
 _atom_site_occupancy
  Tl  Tl0  1  0.66666700  0.33333300  0.64265176  1
  Tl  Tl1  1  0.33333300  0.66666700  0.35734824  1
  Pd  Pd0  1  0.00000000  0.00000000  -0.00000000  1
  Pd  Pd1  1  0.00000000  0.50000000  -0.00000000  1
  Pd  Pd2  1  0.50000000  0.00000000  -0.00000000  1
  Pd  Pd3  1  0.50000000  0.50000000  -0.00000000  1
  Se  Se0  1  0.83053264  0.16946736  0.21435118  1
  Se  Se1  1  0.83053264  0.66106328  0.21435118  1
  Se  Se2  1  0.33893672  0.16946736  0.21435118  1
  Se  Se3  1  0.66106328  0.83053264  0.78564882  1
  Se  Se4  1  0.16946736  0.83053264  0.78564882  1
  Se  Se5  1  0.16946736  0.33893672  0.78564882  1
loop_
_geom_bond_atom_site_label_1
_geom_bond_atom_site_label_2
_geom_bond_distance
_geom_bond_site_symmetry_2
Pd0 Se4 2.523773 1_544
Pd0 Se0 2.523773 1_455
Pd0 Se1 2.523784 1_445
Pd0 Se5 2.523784 1_554
Pd0 Se3 2.523784 1_444
Pd0 Se2 2.523784 1_555
Pd1 Se5 2.477530 1_554
Pd1 Se1 2.477530 1_455
Pd1 Se4 2.477540 1_554
Pd1 Se0 2.477540 1_455
Pd1 Tl0 3.018203 1_454
Pd1 Tl1 3.018203 1_555
Pd2 Se2 2.477530 1_555
Pd2 Se3 2.477530 1_544
Pd2 Se4 2.477540 1_544
Pd2 Se0 2.477540 1_555
Pd2 Tl1 3.018203 1_545
Pd2 Tl0 3.018203 1_554
Pd3 Se2 2.477541 1_555
Pd3 Se3 2.477541 1_554
Pd3 Se5 2.477541 1_554
Pd3 Se1 2.477541 1_555
Pd3 Tl1 3.018207 1_555
Pd3 Tl0 3.018207 1_554
Se0 Tl0 3.306219 1_555
Se1 Tl0 3.306215 1_555
Se2 Tl0 3.306215 1_555
Se3 Tl1 3.306215 1_555
Se4 Tl1 3.306219 1_555
Se5 Tl1 3.306215 1_555
