# generated using pymatgen
data_RbNO2
_symmetry_space_group_name_H-M   'P 1'
_cell_length_a   5.61857806
_cell_length_b   5.61857817
_cell_length_c   7.53880335
_cell_angle_alpha   90.00000000
_cell_angle_beta   90.00000000
_cell_angle_gamma   119.99998756
_symmetry_Int_Tables_number   1
_chemical_formula_structural   RbNO2
_chemical_formula_sum   'Rb3 N3 O6'
_cell_volume   206.10377558
_cell_formula_units_Z   3
loop_
 _symmetry_equiv_pos_site_id
 _symmetry_equiv_pos_as_xyz
  1  'x, y, z'
loop_
 _atom_site_type_symbol
 _atom_site_label
 _atom_site_symmetry_multiplicity
 _atom_site_fract_x
 _atom_site_fract_y
 _atom_site_fract_z
 _atom_site_occupancy
  Rb  Rb0  1  -0.00000000  0.69628418  0.66666700  1
  Rb  Rb1  1  0.30371582  0.30371582  -0.00000000  1
  Rb  Rb2  1  0.69628418  -0.00000000  0.33333300  1
  N  N0  1  0.00000000  0.69501462  0.16666700  1
  N  N1  1  0.30498538  0.30498538  0.50000000  1
  N  N2  1  0.69501462  0.00000000  0.83333300  1
  O  O0  1  0.10814720  0.62777300  0.28952351  1
  O  O1  1  0.51962479  0.89185280  0.95619051  1
  O  O2  1  0.37222700  0.48037521  0.62285651  1
  O  O3  1  0.48037521  0.37222700  0.37714349  1
  O  O4  1  0.62777300  0.10814720  0.71047649  1
  O  O5  1  0.89185280  0.51962479  0.04380949  1
loop_
_geom_bond_atom_site_label_1
_geom_bond_atom_site_label_2
_geom_bond_distance
_geom_bond_site_symmetry_2
N0 O0 1.264653 1_555
N0 O5 1.264662 1_455
N0 Rb2 3.217326 1_465
N0 Rb1 3.217330 1_565
N1 O3 1.264657 1_555
N1 O2 1.264657 1_555
N1 Rb2 3.217330 1_455
N1 Rb0 3.217330 1_545
N2 O4 1.264653 1_555
N2 O1 1.264662 1_545
N2 Rb0 3.217326 1_645
N2 Rb1 3.217330 1_656
O0 Rb2 2.914049 1_565
O0 Rb0 2.972396 1_555
O0 Rb2 3.121367 1_455
O0 Rb1 3.359638 1_555
O1 Rb1 2.914050 1_556
O1 Rb2 2.972390 1_566
O1 Rb1 3.121362 1_566
O1 Rb0 3.359634 1_555
O2 Rb0 2.914045 1_555
O2 Rb1 2.972398 1_556
O2 Rb0 3.121368 1_655
O2 Rb2 3.359635 1_565
O3 Rb2 2.914045 1_555
O3 Rb1 2.972398 1_555
O3 Rb2 3.121368 1_565
O3 Rb0 3.359635 1_655
O4 Rb0 2.914049 1_655
O4 Rb2 2.972396 1_555
O4 Rb0 3.121367 1_545
O4 Rb1 3.359638 1_556
O5 Rb1 2.914050 1_555
O5 Rb0 2.972390 1_654
O5 Rb1 3.121362 1_655
O5 Rb2 3.359634 1_555
