# generated using pymatgen
data_CuP2(H2O3)2
_symmetry_space_group_name_H-M   'P 1'
_cell_length_a   9.48455800
_cell_length_b   8.27389400
_cell_length_c   8.85147271
_cell_angle_alpha   67.14764785
_cell_angle_beta   90.00000000
_cell_angle_gamma   90.00000000
_symmetry_Int_Tables_number   1
_chemical_formula_structural   CuP2(H2O3)2
_chemical_formula_sum   'Cu4 P8 H16 O24'
_cell_volume   640.09143795
_cell_formula_units_Z   4
loop_
 _symmetry_equiv_pos_site_id
 _symmetry_equiv_pos_as_xyz
  1  'x, y, z'
loop_
 _atom_site_type_symbol
 _atom_site_label
 _atom_site_symmetry_multiplicity
 _atom_site_fract_x
 _atom_site_fract_y
 _atom_site_fract_z
 _atom_site_occupancy
  Cu  Cu0  1  0.10206600  0.15292500  0.31875200  1
  Cu  Cu1  1  0.60206600  0.34707500  0.68124800  1
  Cu  Cu2  1  0.89793400  0.84707500  0.68124800  1
  Cu  Cu3  1  0.39793400  0.65292500  0.31875200  1
  P  P0  1  0.15159700  0.72063700  0.50529500  1
  P  P1  1  0.65159700  0.77936300  0.49470500  1
  P  P2  1  0.84840300  0.27936300  0.49470500  1
  P  P3  1  0.34840300  0.22063700  0.50529500  1
  P  P4  1  0.01723400  0.75521000  0.04964800  1
  P  P5  1  0.51723400  0.74479000  0.95035200  1
  P  P6  1  0.98276600  0.24479000  0.95035200  1
  P  P7  1  0.48276600  0.25521000  0.04964800  1
  H  H0  1  0.08113100  0.59716600  0.45830300  1
  H  H1  1  0.58113100  0.90283400  0.54169700  1
  H  H2  1  0.91886900  0.40283400  0.54169700  1
  H  H3  1  0.41886900  0.09716600  0.45830300  1
  H  H4  1  0.14929700  0.82623200  0.98847000  1
  H  H5  1  0.64929700  0.67376800  0.01153000  1
  H  H6  1  0.85070300  0.17376800  0.01153000  1
  H  H7  1  0.35070300  0.32623200  0.98847000  1
  H  H8  1  0.52006800  0.96958800  0.22351000  1
  H  H9  1  0.02006800  0.53041200  0.77649000  1
  H  H10  1  0.47993200  0.03041200  0.77649000  1
  H  H11  1  0.97993200  0.46958800  0.22351000  1
  H  H12  1  0.51075200  0.63285700  0.75732400  1
  H  H13  1  0.01075200  0.86714300  0.24267600  1
  H  H14  1  0.48924800  0.36714300  0.24267600  1
  H  H15  1  0.98924800  0.13285700  0.75732400  1
  O  O0  1  0.10668400  0.89970200  0.36949000  1
  O  O1  1  0.60668400  0.60029800  0.63051000  1
  O  O2  1  0.89331600  0.10029800  0.63051000  1
  O  O3  1  0.39331600  0.39970200  0.36949000  1
  O  O4  1  0.31075300  0.68427900  0.50078500  1
  O  O5  1  0.81075300  0.81572100  0.49921500  1
  O  O6  1  0.68924700  0.31572100  0.49921500  1
  O  O7  1  0.18924700  0.18427900  0.50078500  1
  O  O8  1  0.09747600  0.69905900  0.67664300  1
  O  O9  1  0.59747600  0.80094100  0.32335700  1
  O  O10  1  0.90252400  0.30094100  0.32335700  1
  O  O11  1  0.40252400  0.19905900  0.67664300  1
  O  O12  1  0.41354300  0.73212900  0.08586200  1
  O  O13  1  0.91354300  0.76787100  0.91413800  1
  O  O14  1  0.58645700  0.26787100  0.91413800  1
  O  O15  1  0.08645700  0.23212900  0.08586200  1
  O  O16  1  0.45068300  0.64547200  0.84907800  1
  O  O17  1  0.95068300  0.85452800  0.15092200  1
  O  O18  1  0.54931700  0.35452800  0.15092200  1
  O  O19  1  0.04931700  0.14547200  0.84907800  1
  O  O20  1  0.05589500  0.56376700  0.16620200  1
  O  O21  1  0.55589500  0.93623300  0.83379800  1
  O  O22  1  0.94410500  0.43623300  0.83379800  1
  O  O23  1  0.44410500  0.06376700  0.16620200  1
loop_
_geom_bond_atom_site_label_1
_geom_bond_atom_site_label_2
_geom_bond_distance
_geom_bond_site_symmetry_2
Cu0 O15 1.910904 1_555
Cu0 O7 1.916204 1_555
Cu0 O0 1.965295 1_545
Cu0 O10 2.263197 1_455
Cu1 O14 1.910904 1_555
Cu1 O6 1.916204 1_555
Cu1 O1 1.965295 1_555
Cu1 O11 2.263197 1_555
Cu2 O13 1.910904 1_555
Cu2 O5 1.916204 1_555
Cu2 O2 1.965295 1_565
Cu2 O8 2.263197 1_655
Cu3 O12 1.910904 1_555
Cu3 O4 1.916204 1_555
Cu3 O3 1.965295 1_555
Cu3 O9 2.263197 1_555
H0 P0 1.411869 1_555
H1 P1 1.411869 1_555
H2 P2 1.411869 1_555
H3 P3 1.411869 1_555
H4 P4 1.400104 1_556
H5 P5 1.400104 1_554
H6 P6 1.400104 1_554
H7 P7 1.400104 1_556
H8 O23 1.037584 1_565
H8 O9 1.519639 1_555
H9 O22 1.037584 1_455
H9 O8 1.519639 1_555
H10 O21 1.037584 1_545
H10 O11 1.519639 1_555
H11 O20 1.037584 1_655
H11 O10 1.519639 1_555
H12 O16 1.030013 1_555
H12 O1 1.547674 1_555
H13 O17 1.030013 1_455
H13 O0 1.547674 1_555
H14 O18 1.030013 1_555
H14 O3 1.547674 1_555
H15 O19 1.030013 1_655
H15 O2 1.547674 1_555
O0 P0 1.561468 1_555
O1 P1 1.561468 1_555
O2 P2 1.561468 1_555
O3 P3 1.561468 1_555
O4 P0 1.542750 1_555
O5 P1 1.542750 1_555
O6 P2 1.542750 1_555
O7 P3 1.542750 1_555
O8 P0 1.544465 1_555
O9 P1 1.544465 1_555
O10 P2 1.544465 1_555
O11 P3 1.544465 1_555
O12 P5 1.522922 1_554
O13 P4 1.522922 1_656
O14 P7 1.522922 1_556
O15 P6 1.522922 1_454
O16 P5 1.565062 1_555
O17 P4 1.565062 1_655
O18 P7 1.565062 1_555
O19 P6 1.565062 1_455
O20 P4 1.561579 1_555
O21 P5 1.561579 1_555
O22 P6 1.561579 1_555
O23 P7 1.561579 1_555
