# generated using pymatgen
data_Na5WO5
_symmetry_space_group_name_H-M   'P 1'
_cell_length_a   5.87407496
_cell_length_b   5.87407496
_cell_length_c   10.31083344
_cell_angle_alpha   80.24688855
_cell_angle_beta   80.24688855
_cell_angle_gamma   113.45871880
_symmetry_Int_Tables_number   1
_chemical_formula_structural   Na5WO5
_chemical_formula_sum   'Na10 W2 O10'
_cell_volume   310.41718204
_cell_formula_units_Z   2
loop_
 _symmetry_equiv_pos_site_id
 _symmetry_equiv_pos_as_xyz
  1  'x, y, z'
loop_
 _atom_site_type_symbol
 _atom_site_label
 _atom_site_symmetry_multiplicity
 _atom_site_fract_x
 _atom_site_fract_y
 _atom_site_fract_z
 _atom_site_occupancy
  Na  Na0  1  0.72292400  0.95124800  0.58232500  1
  Na  Na1  1  0.52282500  0.77898200  0.93534800  1
  Na  Na2  1  0.59702000  0.40298000  0.75000000  1
  Na  Na3  1  0.95124800  0.72292400  0.08232500  1
  Na  Na4  1  0.77898200  0.52282500  0.43534800  1
  Na  Na5  1  0.22101800  0.47717500  0.56465200  1
  Na  Na6  1  0.04875200  0.27707600  0.91767500  1
  Na  Na7  1  0.40298000  0.59702000  0.25000000  1
  Na  Na8  1  0.47717500  0.22101800  0.06465200  1
  Na  Na9  1  0.27707600  0.04875200  0.41767500  1
  W  W0  1  0.14375600  0.85624400  0.75000000  1
  W  W1  1  0.85624400  0.14375600  0.25000000  1
  O  O0  1  0.83154200  0.61390800  0.88803800  1
  O  O1  1  0.98396600  0.72439600  0.60987600  1
  O  O2  1  0.61390800  0.83154200  0.38803800  1
  O  O3  1  0.72439600  0.98396600  0.10987600  1
  O  O4  1  0.33837700  0.66162300  0.75000000  1
  O  O5  1  0.66162300  0.33837700  0.25000000  1
  O  O6  1  0.27560400  0.01603400  0.89012400  1
  O  O7  1  0.38609200  0.16845800  0.61196200  1
  O  O8  1  0.01603400  0.27560400  0.39012400  1
  O  O9  1  0.16845800  0.38609200  0.11196200  1
loop_
_geom_bond_atom_site_label_1
_geom_bond_atom_site_label_2
_geom_bond_distance
_geom_bond_site_symmetry_2
Na0 O2 2.339003 1_555
Na0 O8 2.339827 1_665
Na0 O4 2.367796 1_555
Na0 O1 2.419460 1_555
Na0 O7 2.751957 1_565
Na1 O0 2.393168 1_555
Na1 O4 2.419632 1_555
Na1 O6 2.425831 1_565
Na1 O3 2.531999 1_556
Na1 O9 2.538181 1_556
Na2 O7 2.315487 1_555
Na2 O0 2.315487 1_555
Na2 O1 2.316214 1_555
Na2 O6 2.316214 1_555
Na2 O4 2.540519 1_555
Na3 O0 2.339003 1_554
Na3 O6 2.339827 1_664
Na3 O5 2.367796 1_555
Na3 O3 2.419460 1_555
Na3 O9 2.751957 1_655
Na4 O2 2.393168 1_555
Na4 O5 2.419632 1_555
Na4 O8 2.425831 1_655
Na4 O1 2.531999 1_555
Na4 O7 2.538181 1_555
Na5 O7 2.393168 1_555
Na5 O4 2.419632 1_555
Na5 O1 2.425831 1_455
Na5 O8 2.531999 1_555
Na5 O2 2.538181 1_555
Na6 O9 2.339003 1_556
Na6 O3 2.339827 1_446
Na6 O4 2.367796 1_555
Na6 O6 2.419460 1_555
Na6 O0 2.751957 1_455
Na7 O2 2.315487 1_555
Na7 O9 2.315487 1_555
Na7 O3 2.316214 1_555
Na7 O8 2.316214 1_555
Na7 O5 2.540519 1_555
Na8 O9 2.393168 1_555
Na8 O5 2.419632 1_555
Na8 O3 2.425831 1_545
Na8 O6 2.531999 1_554
Na8 O0 2.538181 1_554
Na9 O7 2.339003 1_555
Na9 O1 2.339827 1_445
Na9 O5 2.367796 1_555
Na9 O8 2.419460 1_555
Na9 O2 2.751957 1_545
O0 W0 1.940666 1_655
O1 W0 1.956543 1_655
O2 W1 1.940666 1_565
O3 W1 1.956543 1_565
O4 W0 1.911664 1_555
O5 W1 1.911664 1_555
O6 W0 1.956543 1_545
O7 W0 1.940666 1_545
O8 W1 1.956543 1_455
O9 W1 1.940666 1_455
