# generated using pymatgen
data_LiCuPO4
_symmetry_space_group_name_H-M   'P 1'
_cell_length_a   7.75858000
_cell_length_b   8.48373700
_cell_length_c   17.36733888
_cell_angle_alpha   62.14672891
_cell_angle_beta   90.00000000
_cell_angle_gamma   90.00000000
_symmetry_Int_Tables_number   1
_chemical_formula_structural   LiCuPO4
_chemical_formula_sum   'Li12 Cu12 P12 O48'
_cell_volume   1010.71143533
_cell_formula_units_Z   12
loop_
 _symmetry_equiv_pos_site_id
 _symmetry_equiv_pos_as_xyz
  1  'x, y, z'
loop_
 _atom_site_type_symbol
 _atom_site_label
 _atom_site_symmetry_multiplicity
 _atom_site_fract_x
 _atom_site_fract_y
 _atom_site_fract_z
 _atom_site_occupancy
  Li  Li0  1  0.02931400  0.72181000  0.05874500  1
  Li  Li1  1  0.95353500  0.36158900  0.40847100  1
  Li  Li2  1  0.14898600  0.01484300  0.75360000  1
  Li  Li3  1  0.64898600  0.98515700  0.74640000  1
  Li  Li4  1  0.45353500  0.63841100  0.09152900  1
  Li  Li5  1  0.52931400  0.27819000  0.44125500  1
  Li  Li6  1  0.47068600  0.72181000  0.55874500  1
  Li  Li7  1  0.54646500  0.36158900  0.90847100  1
  Li  Li8  1  0.35101400  0.01484300  0.25360000  1
  Li  Li9  1  0.85101400  0.98515700  0.24640000  1
  Li  Li10  1  0.04646500  0.63841100  0.59152900  1
  Li  Li11  1  0.97068600  0.27819000  0.94125500  1
  Cu  Cu0  1  0.73823200  0.37276400  0.58993400  1
  Cu  Cu1  1  0.76635000  0.66328000  0.22646600  1
  Cu  Cu2  1  0.72997900  0.95701600  0.92434500  1
  Cu  Cu3  1  0.22997900  0.04298400  0.57565500  1
  Cu  Cu4  1  0.26635000  0.33672000  0.27353400  1
  Cu  Cu5  1  0.23823200  0.62723600  0.91006600  1
  Cu  Cu6  1  0.76176800  0.37276400  0.08993400  1
  Cu  Cu7  1  0.73365000  0.66328000  0.72646600  1
  Cu  Cu8  1  0.77002100  0.95701600  0.42434500  1
  Cu  Cu9  1  0.27002100  0.04298400  0.07565500  1
  Cu  Cu10  1  0.23365000  0.33672000  0.77353400  1
  Cu  Cu11  1  0.26176800  0.62723600  0.41006600  1
  P  P0  1  0.33998400  0.36246100  0.59416500  1
  P  P1  1  0.17906900  0.69791300  0.22322600  1
  P  P2  1  0.32796300  0.96788400  0.92491100  1
  P  P3  1  0.82796300  0.03211600  0.57508900  1
  P  P4  1  0.67906900  0.30208700  0.27677400  1
  P  P5  1  0.83998400  0.63753900  0.90583500  1
  P  P6  1  0.16001600  0.36246100  0.09416500  1
  P  P7  1  0.32093100  0.69791300  0.72322600  1
  P  P8  1  0.17203700  0.96788400  0.42491100  1
  P  P9  1  0.67203700  0.03211600  0.07508900  1
  P  P10  1  0.82093100  0.30208700  0.77677400  1
  P  P11  1  0.66001600  0.63753900  0.40583500  1
  O  O0  1  0.49334400  0.55352900  0.39177100  1
  O  O1  1  0.14316700  0.58625800  0.32288900  1
  O  O2  1  0.20669800  0.92390000  0.00390500  1
  O  O3  1  0.64032900  0.82886200  0.12811300  1
  O  O4  1  0.78019900  0.47777000  0.46497900  1
  O  O5  1  0.00641000  0.74648700  0.17240500  1
  O  O6  1  0.24968200  0.24656700  0.68234600  1
  O  O7  1  0.72122900  0.12991500  0.79635600  1
  O  O8  1  0.49932100  0.86663500  0.96427300  1
  O  O9  1  0.38153600  0.24631600  0.54874800  1
  O  O10  1  0.79134700  0.41454900  0.30806300  1
  O  O11  1  0.74958600  0.10399600  0.63437200  1
  O  O12  1  0.29134700  0.58545100  0.19193700  1
  O  O13  1  0.24958600  0.89600400  0.86562800  1
  O  O14  1  0.88153600  0.75368400  0.95125200  1
  O  O15  1  0.99932100  0.13336500  0.53572700  1
  O  O16  1  0.22122900  0.87008500  0.70364400  1
  O  O17  1  0.50641000  0.25351300  0.32759500  1
  O  O18  1  0.74968200  0.75343300  0.81765400  1
  O  O19  1  0.28019900  0.52223000  0.03502100  1
  O  O20  1  0.14032900  0.17113800  0.37188700  1
  O  O21  1  0.70669800  0.07610000  0.49609500  1
  O  O22  1  0.64316700  0.41374200  0.17711100  1
  O  O23  1  0.99334400  0.44647100  0.10822900  1
  O  O24  1  0.00665600  0.55352900  0.89177100  1
  O  O25  1  0.35683300  0.58625800  0.82288900  1
  O  O26  1  0.29330200  0.92390000  0.50390500  1
  O  O27  1  0.85967100  0.82886200  0.62811300  1
  O  O28  1  0.71980100  0.47777000  0.96497900  1
  O  O29  1  0.25031800  0.24656700  0.18234600  1
  O  O30  1  0.49359000  0.74648700  0.67240500  1
  O  O31  1  0.77877100  0.12991500  0.29635600  1
  O  O32  1  0.00067900  0.86663500  0.46427300  1
  O  O33  1  0.11846400  0.24631600  0.04874800  1
  O  O34  1  0.75041400  0.10399600  0.13437200  1
  O  O35  1  0.70865300  0.41454900  0.80806300  1
  O  O36  1  0.25041400  0.89600400  0.36562800  1
  O  O37  1  0.20865300  0.58545100  0.69193700  1
  O  O38  1  0.61846400  0.75368400  0.45125200  1
  O  O39  1  0.50067900  0.13336500  0.03572700  1
  O  O40  1  0.27877100  0.87008500  0.20364400  1
  O  O41  1  0.75031800  0.75343300  0.31765400  1
  O  O42  1  0.99359000  0.25351300  0.82759500  1
  O  O43  1  0.21980100  0.52223000  0.53502100  1
  O  O44  1  0.35967100  0.17113800  0.87188700  1
  O  O45  1  0.79330200  0.07610000  0.99609500  1
  O  O46  1  0.85683300  0.41374200  0.67711100  1
  O  O47  1  0.50665600  0.44647100  0.60822900  1
loop_
_geom_bond_atom_site_label_1
_geom_bond_atom_site_label_2
_geom_bond_distance
_geom_bond_site_symmetry_2
Li0 O2 2.052994 1_555
Li0 O5 2.087613 1_555
Li0 O23 2.096920 1_455
Li0 O14 2.097897 1_454
Li1 O10 2.023390 1_555
Li1 O4 2.155715 1_555
Li1 O15 2.181978 1_555
Li1 O1 2.315079 1_655
Li1 O20 2.464528 1_655
Li2 O16 1.889634 1_545
Li2 O13 1.891613 1_545
Li2 O6 1.932158 1_555
Li3 O7 1.889634 1_565
Li3 O11 1.891613 1_565
Li3 O18 1.932158 1_555
Li4 O12 2.023390 1_555
Li4 O19 2.155715 1_555
Li4 O8 2.181978 1_554
Li4 O22 2.315079 1_555
Li4 O3 2.464528 1_555
Li5 O21 2.052994 1_555
Li5 O17 2.087613 1_555
Li5 O0 2.096920 1_555
Li5 O9 2.097897 1_555
Li6 O26 2.052994 1_555
Li6 O30 2.087613 1_555
Li6 O47 2.096920 1_555
Li6 O38 2.097897 1_555
Li7 O35 2.023390 1_555
Li7 O28 2.155715 1_555
Li7 O39 2.181978 1_556
Li7 O25 2.315079 1_555
Li7 O44 2.464528 1_555
Li8 O40 1.889634 1_545
Li8 O36 1.891613 1_545
Li8 O29 1.932158 1_555
Li9 O31 1.889634 1_565
Li9 O34 1.891613 1_565
Li9 O41 1.932158 1_555
Li10 O37 2.023390 1_555
Li10 O43 2.155715 1_555
Li10 O32 2.181978 1_555
Li10 O46 2.315079 1_455
Li10 O27 2.464528 1_455
Li11 O45 2.052994 1_555
Li11 O42 2.087613 1_555
Li11 O24 2.096920 1_655
Li11 O33 2.097897 1_656
Cu0 O46 1.936932 1_555
Cu0 O4 1.950037 1_555
Cu0 O47 1.976299 1_555
Cu0 O11 2.039156 1_555
Cu1 O3 1.898654 1_555
Cu1 O10 1.924684 1_555
Cu1 O5 2.056580 1_655
Cu1 O41 2.059211 1_555
Cu2 O8 1.942820 1_555
Cu2 O14 1.955371 1_555
Cu2 O45 1.997790 1_565
Cu2 O7 2.012582 1_565
Cu3 O15 1.942820 1_455
Cu3 O9 1.955371 1_555
Cu3 O26 1.997790 1_545
Cu3 O16 2.012582 1_545
Cu4 O20 1.898654 1_555
Cu4 O12 1.924684 1_555
Cu4 O17 2.056580 1_555
Cu4 O29 2.059211 1_555
Cu5 O25 1.936932 1_555
Cu5 O19 1.950037 1_556
Cu5 O24 1.976299 1_555
Cu5 O13 2.039156 1_555
Cu6 O22 1.936932 1_555
Cu6 O28 1.950037 1_554
Cu6 O23 1.976299 1_555
Cu6 O34 2.039156 1_555
Cu7 O27 1.898654 1_555
Cu7 O35 1.924684 1_555
Cu7 O30 2.056580 1_555
Cu7 O18 2.059211 1_555
Cu8 O32 1.942820 1_655
Cu8 O38 1.955371 1_555
Cu8 O21 1.997790 1_565
Cu8 O31 2.012582 1_565
Cu9 O39 1.942820 1_555
Cu9 O33 1.955371 1_555
Cu9 O2 1.997790 1_545
Cu9 O40 2.012582 1_545
Cu10 O44 1.898654 1_555
Cu10 O37 1.924684 1_555
Cu10 O42 2.056580 1_455
Cu10 O6 2.059211 1_555
Cu11 O1 1.936932 1_555
Cu11 O43 1.950037 1_555
Cu11 O0 1.976299 1_555
Cu11 O36 2.039156 1_555
O0 P11 1.550001 1_555
O1 P1 1.561657 1_555
O2 P2 1.558276 1_554
O3 P9 1.548597 1_565
O4 P11 1.568693 1_555
O5 P1 1.550315 1_555
O6 P0 1.547889 1_555
O7 P10 1.543824 1_555
O8 P2 1.556926 1_555
O9 P0 1.556675 1_555
O10 P4 1.564897 1_555
O11 P3 1.545438 1_555
O12 P1 1.564897 1_555
O13 P2 1.545438 1_555
O14 P5 1.556675 1_555
O15 P3 1.556926 1_555
O16 P7 1.543824 1_555
O17 P4 1.550315 1_555
O18 P5 1.547889 1_555
O19 P6 1.568693 1_555
O20 P8 1.548597 1_545
O21 P3 1.558276 1_555
O22 P4 1.561657 1_555
O23 P6 1.550001 1_655
O24 P5 1.550001 1_455
O25 P7 1.561657 1_555
O26 P8 1.558276 1_555
O27 P3 1.548597 1_565
O28 P5 1.568693 1_555
O29 P6 1.547889 1_555
O30 P7 1.550315 1_555
O31 P4 1.543824 1_555
O32 P8 1.556926 1_555
O33 P6 1.556675 1_555
O34 P9 1.545438 1_555
O35 P10 1.564897 1_555
O36 P8 1.545438 1_555
O37 P7 1.564897 1_555
O38 P11 1.556675 1_555
O39 P9 1.556926 1_555
O40 P1 1.543824 1_555
O41 P11 1.547889 1_555
O42 P10 1.550315 1_555
O43 P0 1.568693 1_555
O44 P2 1.548597 1_545
O45 P9 1.558276 1_556
O46 P10 1.561657 1_555
O47 P0 1.550001 1_555
