# generated using pymatgen
data_LiVFe(P2O7)2
_symmetry_space_group_name_H-M   'P 1'
_cell_length_a   7.16116900
_cell_length_b   8.09056285
_cell_length_c   13.70531746
_cell_angle_alpha   89.82000424
_cell_angle_beta   82.75926675
_cell_angle_gamma   89.93726229
_symmetry_Int_Tables_number   1
_chemical_formula_structural   LiVFe(P2O7)2
_chemical_formula_sum   'Li3 V3 Fe3 P12 O42'
_cell_volume   787.72073381
_cell_formula_units_Z   3
loop_
 _symmetry_equiv_pos_site_id
 _symmetry_equiv_pos_as_xyz
  1  'x, y, z'
loop_
 _atom_site_type_symbol
 _atom_site_label
 _atom_site_symmetry_multiplicity
 _atom_site_fract_x
 _atom_site_fract_y
 _atom_site_fract_z
 _atom_site_occupancy
  Li  Li0  1  0.16031000  0.86404100  0.16634600  1
  Li  Li1  1  0.82589500  0.86414200  0.50041100  1
  Li  Li2  1  0.83958700  0.36123600  0.83220500  1
  V  V0  1  0.11772900  0.49436300  0.16277700  1
  V  V1  1  0.78230900  0.49521000  0.49486700  1
  V  V2  1  0.44322100  0.50703200  0.82916700  1
  Fe  Fe0  1  0.56139300  0.01001600  0.17059900  1
  Fe  Fe1  1  0.23078200  0.00838100  0.50590400  1
  Fe  Fe2  1  0.88604300  0.99404000  0.83798900  1
  P  P0  1  0.86946600  0.77931100  0.04375400  1
  P  P1  1  0.47848100  0.67767300  0.04143100  1
  P  P2  1  0.79586600  0.28430300  0.28879500  1
  P  P3  1  0.18374300  0.17920400  0.29403300  1
  P  P4  1  0.53631300  0.78053500  0.37561000  1
  P  P5  1  0.14578800  0.67904000  0.37486800  1
  P  P6  1  0.84938000  0.18106600  0.62667200  1
  P  P7  1  0.46181700  0.28565800  0.62410700  1
  P  P8  1  0.81601000  0.68165700  0.70652200  1
  P  P9  1  0.20532800  0.78178000  0.70987300  1
  P  P10  1  0.52034800  0.17763800  0.95909900  1
  P  P11  1  0.13226800  0.28408300  0.95588200  1
  O  O0  1  0.69643900  0.64778900  0.05298700  1
  O  O1  1  0.81366000  0.93202100  0.10647500  1
  O  O2  1  0.53847400  0.17939500  0.06801900  1
  O  O3  1  0.42033000  0.84691000  0.08415000  1
  O  O4  1  0.37113000  0.53693200  0.09827300  1
  O  O5  1  0.86810100  0.43639600  0.22760900  1
  O  O6  1  0.08361900  0.33206100  0.06493800  1
  O  O7  1  0.96264100  0.14879500  0.28321400  1
  O  O8  1  0.02839100  0.68540000  0.08656100  1
  O  O9  1  0.63328800  0.19251200  0.25454100  1
  O  O10  1  0.58817600  0.82357700  0.26785700  1
  O  O11  1  0.28167200  0.04044600  0.23135900  1
  O  O12  1  0.23214400  0.35084400  0.24795500  1
  O  O13  1  0.13103200  0.67486800  0.26292500  1
  O  O14  1  0.74901500  0.33466800  0.39773400  1
  O  O15  1  0.69601900  0.68654600  0.41811300  1
  O  O16  1  0.36357100  0.64863800  0.38637700  1
  O  O17  1  0.48099500  0.93193500  0.43994700  1
  O  O18  1  0.20834500  0.17720100  0.40170000  1
  O  O19  1  0.94834400  0.04057500  0.56670600  1
  O  O20  1  0.89881400  0.35174500  0.58015100  1
  O  O21  1  0.08752100  0.84787800  0.41890900  1
  O  O22  1  0.03782900  0.53758800  0.43019300  1
  O  O23  1  0.79646100  0.67330700  0.59535300  1
  O  O24  1  0.53456600  0.43630900  0.56142200  1
  O  O25  1  0.62912600  0.14978100  0.61746300  1
  O  O26  1  0.29947700  0.19339100  0.58967400  1
  O  O27  1  0.25632900  0.82536300  0.60182500  1
  O  O28  1  0.87495700  0.18461600  0.73525900  1
  O  O29  1  0.76160700  0.85119500  0.74694100  1
  O  O30  1  0.71277800  0.53945700  0.76593100  1
  O  O31  1  0.41787100  0.33914600  0.73249100  1
  O  O32  1  0.36300900  0.68098500  0.74780500  1
  O  O33  1  0.96636100  0.20009100  0.91740100  1
  O  O34  1  0.03277900  0.64623300  0.71833300  1
  O  O35  1  0.92444900  0.81860400  0.93570000  1
  O  O36  1  0.14053200  0.93042500  0.77335200  1
  O  O37  1  0.62465900  0.04020600  0.90055700  1
  O  O38  1  0.57168200  0.34809200  0.91008000  1
  O  O39  1  0.46263300  0.66527200  0.93035600  1
  O  O40  1  0.19463500  0.43812700  0.89342500  1
  O  O41  1  0.29783700  0.15022900  0.94836600  1
loop_
_geom_bond_atom_site_label_1
_geom_bond_atom_site_label_2
_geom_bond_distance
_geom_bond_site_symmetry_2
Li0 O11 1.947332 1_565
Li0 O13 2.014074 1_555
Li0 O3 2.055999 1_555
Li0 O8 2.109590 1_555
Li1 O19 1.960555 1_565
Li1 O23 2.010062 1_555
Li1 O21 2.061081 1_655
Li1 O15 2.116439 1_555
Li2 O28 1.948782 1_555
Li2 O30 1.981311 1_555
Li2 O33 2.035289 1_555
Li2 O38 2.077187 1_555
Fe0 O2 1.981654 1_555
Fe0 O9 1.982498 1_555
Fe0 O1 2.008698 1_545
Fe0 O10 2.034695 1_545
Fe0 O11 2.084781 1_555
Fe0 O3 2.116618 1_545
Fe1 O26 1.988823 1_555
Fe1 O18 1.994010 1_555
Fe1 O27 2.000511 1_545
Fe1 O17 2.000769 1_545
Fe1 O19 2.104389 1_455
Fe1 O21 2.116911 1_545
Fe2 O35 1.990896 1_555
Fe2 O36 1.991179 1_655
Fe2 O37 1.993590 1_565
Fe2 O29 1.994601 1_555
Fe2 O28 2.092902 1_565
Fe2 O33 2.113239 1_565
O0 P1 1.606546 1_555
O0 P0 1.626690 1_555
O1 P0 1.531052 1_555
O2 P10 1.514739 1_554
O3 P1 1.527513 1_555
O4 P1 1.529655 1_555
O4 V0 1.946321 1_555
O5 P2 1.539653 1_555
O5 V0 1.950357 1_655
O6 P11 1.542111 1_554
O6 V0 1.917373 1_555
O7 P2 1.615177 1_555
O7 P3 1.627812 1_655
O8 P0 1.542837 1_455
O8 V0 2.011326 1_555
O9 P2 1.506402 1_555
O10 P4 1.516214 1_555
O11 P3 1.530495 1_555
O12 P3 1.545219 1_555
O12 V0 1.900765 1_555
O13 P5 1.551554 1_555
O13 V0 2.017817 1_555
O14 P2 1.544356 1_555
O14 V1 1.899387 1_555
O15 P4 1.545583 1_555
O15 V1 2.009056 1_555
O16 P5 1.605802 1_555
O16 P4 1.626857 1_555
O17 P4 1.533789 1_555
O18 P3 1.508013 1_555
O19 P6 1.525436 1_555
O20 P6 1.541860 1_555
O20 V1 1.909111 1_555
O21 P5 1.531280 1_555
O22 P5 1.526784 1_555
O22 V1 1.960124 1_455
O23 P8 1.549185 1_555
O23 V1 2.007762 1_555
O24 P7 1.541778 1_555
O24 V1 1.948807 1_555
O25 P6 1.618349 1_555
O25 P7 1.619430 1_555
O26 P7 1.507936 1_555
O27 P9 1.520282 1_555
O28 P6 1.522551 1_555
O29 P8 1.513041 1_555
O30 P8 1.541852 1_555
O30 V2 2.030794 1_555
O31 P7 1.542315 1_555
O31 V2 1.925085 1_555
O32 P9 1.534154 1_555
O32 V2 1.924557 1_555
O33 P11 1.521001 1_655
O34 P8 1.606273 1_455
O34 P9 1.645898 1_555
O35 P0 1.516421 1_556
O36 P9 1.523843 1_555
O37 P10 1.513529 1_555
O38 P10 1.556068 1_555
O38 V2 1.993790 1_555
O39 P1 1.544323 1_556
O39 V2 1.908350 1_555
O40 P11 1.543895 1_555
O40 V2 1.964500 1_555
O41 P11 1.598846 1_555
O41 P10 1.633990 1_555
