# generated using pymatgen
data_Na5Mn7O16
_symmetry_space_group_name_H-M   'P 1'
_cell_length_a   6.19846803
_cell_length_b   6.19846803
_cell_length_c   10.70690489
_cell_angle_alpha   74.92648969
_cell_angle_beta   74.92648969
_cell_angle_gamma   56.86971347
_symmetry_Int_Tables_number   1
_chemical_formula_structural   Na5Mn7O16
_chemical_formula_sum   'Na5 Mn7 O16'
_cell_volume   329.08430092
_cell_formula_units_Z   1
loop_
 _symmetry_equiv_pos_site_id
 _symmetry_equiv_pos_as_xyz
  1  'x, y, z'
loop_
 _atom_site_type_symbol
 _atom_site_label
 _atom_site_symmetry_multiplicity
 _atom_site_fract_x
 _atom_site_fract_y
 _atom_site_fract_z
 _atom_site_occupancy
  Na  Na0  1  0.76290300  0.76290300  0.56274300  1
  Na  Na1  1  0.69627500  0.69627500  0.91628900  1
  Na  Na2  1  0.00000000  0.00000000  0.50000000  1
  Na  Na3  1  0.30372500  0.30372500  0.08371100  1
  Na  Na4  1  0.23709700  0.23709700  0.43725700  1
  Mn  Mn0  1  0.00000000  0.00000000  0.00000000  1
  Mn  Mn1  1  0.72296600  0.23580400  0.76373400  1
  Mn  Mn2  1  0.23634300  0.23634300  0.76213200  1
  Mn  Mn3  1  0.76365700  0.76365700  0.23786800  1
  Mn  Mn4  1  0.76419600  0.27703400  0.23626600  1
  Mn  Mn5  1  0.23580400  0.72296600  0.76373400  1
  Mn  Mn6  1  0.27703400  0.76419600  0.23626600  1
  O  O0  1  0.88748500  0.31515500  0.87082300  1
  O  O1  1  0.89796100  0.89796100  0.88127900  1
  O  O2  1  0.91348500  0.91348500  0.33793400  1
  O  O3  1  0.56776500  0.56776500  0.66944800  1
  O  O4  1  0.37684000  0.37684000  0.86546500  1
  O  O5  1  0.58972300  0.11081300  0.67587700  1
  O  O6  1  0.68484500  0.11251500  0.12917700  1
  O  O7  1  0.11081300  0.58972300  0.67587700  1
  O  O8  1  0.88918700  0.41027700  0.32412300  1
  O  O9  1  0.41027700  0.88918700  0.32412300  1
  O  O10  1  0.31515500  0.88748500  0.87082300  1
  O  O11  1  0.43223500  0.43223500  0.33055200  1
  O  O12  1  0.62316000  0.62316000  0.13453500  1
  O  O13  1  0.08651500  0.08651500  0.66206600  1
  O  O14  1  0.10203900  0.10203900  0.11872100  1
  O  O15  1  0.11251500  0.68484500  0.12917700  1
loop_
_geom_bond_atom_site_label_1
_geom_bond_atom_site_label_2
_geom_bond_distance
_geom_bond_site_symmetry_2
Na0 O3 2.095959 1_555
Na0 O7 2.328533 1_655
Na0 O5 2.328533 1_565
Na0 O2 2.480188 1_555
Na1 O0 2.111861 1_555
Na1 O10 2.111861 1_555
Na1 O1 2.118280 1_555
Na1 O12 2.234731 1_556
Na2 O2 2.206462 1_445
Na2 O13 2.206462 1_555
Na2 O5 2.599565 1_455
Na2 O7 2.599565 1_545
Na2 O9 2.599565 1_545
Na2 O8 2.599565 1_455
Na3 O15 2.111861 1_555
Na3 O6 2.111861 1_555
Na3 O14 2.118280 1_555
Na3 O4 2.234731 1_554
Na4 O11 2.095959 1_555
Na4 O9 2.328533 1_545
Na4 O8 2.328533 1_455
Na4 O13 2.480188 1_555
Mn0 O1 1.920796 1_444
Mn0 O14 1.920796 1_555
Mn0 O6 1.955151 1_455
Mn0 O15 1.955151 1_545
Mn0 O10 1.955151 1_544
Mn0 O0 1.955151 1_454
Mn1 O3 1.854581 1_555
Mn1 O5 1.910446 1_555
Mn1 O4 1.945059 1_555
Mn1 O1 2.000530 1_545
Mn1 O0 2.011531 1_555
Mn1 O13 2.021871 1_655
Mn2 O7 1.927393 1_555
Mn2 O5 1.927393 1_555
Mn2 O10 2.025093 1_545
Mn2 O0 2.025093 1_455
Mn2 O4 2.138262 1_555
Mn2 O13 2.202430 1_555
Mn3 O8 1.927393 1_555
Mn3 O9 1.927393 1_555
Mn3 O15 2.025093 1_655
Mn3 O6 2.025093 1_565
Mn3 O12 2.138262 1_555
Mn3 O2 2.202430 1_555
Mn4 O11 1.854581 1_555
Mn4 O8 1.910446 1_555
Mn4 O12 1.945059 1_555
Mn4 O14 2.000530 1_655
Mn4 O6 2.011531 1_555
Mn4 O2 2.021871 1_545
Mn5 O3 1.854581 1_555
Mn5 O7 1.910446 1_555
Mn5 O4 1.945059 1_555
Mn5 O1 2.000530 1_455
Mn5 O10 2.011531 1_555
Mn5 O13 2.021871 1_565
Mn6 O11 1.854581 1_555
Mn6 O9 1.910446 1_555
Mn6 O12 1.945059 1_555
Mn6 O14 2.000530 1_565
Mn6 O15 2.011531 1_555
Mn6 O2 2.021871 1_455
