# generated using pymatgen
data_Li3V(BO2)5
_symmetry_space_group_name_H-M   'P 1'
_cell_length_a   6.96062600
_cell_length_b   7.19659844
_cell_length_c   9.40065525
_cell_angle_alpha   81.38783857
_cell_angle_beta   110.23288208
_cell_angle_gamma   118.04188009
_symmetry_Int_Tables_number   1
_chemical_formula_structural   Li3V(BO2)5
_chemical_formula_sum   'Li6 V2 B10 O20'
_cell_volume   389.93009409
_cell_formula_units_Z   2
loop_
 _symmetry_equiv_pos_site_id
 _symmetry_equiv_pos_as_xyz
  1  'x, y, z'
loop_
 _atom_site_type_symbol
 _atom_site_label
 _atom_site_symmetry_multiplicity
 _atom_site_fract_x
 _atom_site_fract_y
 _atom_site_fract_z
 _atom_site_occupancy
  Li  Li0  1  0.22911500  0.49584200  0.75655500  1
  Li  Li1  1  0.81092400  0.99503100  0.84003100  1
  Li  Li2  1  0.02317500  0.81503000  0.53834200  1
  Li  Li3  1  0.97682500  0.18497000  0.46165800  1
  Li  Li4  1  0.18907600  0.00496900  0.15996900  1
  Li  Li5  1  0.77088500  0.50415800  0.24344500  1
  V  V0  1  0.22421200  0.49371500  0.12435500  1
  V  V1  1  0.77578800  0.50628500  0.87564500  1
  B  B0  1  0.29963200  0.19126800  0.92602700  1
  B  B1  1  0.40665300  0.13811000  0.70742600  1
  B  B2  1  0.36464600  0.24788800  0.43292100  1
  B  B3  1  0.22331300  0.83517000  0.86816100  1
  B  B4  1  0.74322200  0.28161700  0.60052900  1
  B  B5  1  0.25677800  0.71838300  0.39947100  1
  B  B6  1  0.77668700  0.16483000  0.13183900  1
  B  B7  1  0.63535400  0.75211200  0.56707900  1
  B  B8  1  0.59334700  0.86189000  0.29257400  1
  B  B9  1  0.70036800  0.80873200  0.07397300  1
  O  O0  1  0.25037500  0.29471400  0.00083000  1
  O  O1  1  0.27176000  0.15482500  0.55139100  1
  O  O2  1  0.40301900  0.27605600  0.81169300  1
  O  O3  1  0.22265700  0.25915900  0.29696200  1
  O  O4  1  0.14207400  0.62860300  0.90026600  1
  O  O5  1  0.65390300  0.21640800  0.72496400  1
  O  O6  1  0.04996500  0.69786800  0.38114700  1
  O  O7  1  0.69720800  0.08630700  0.25475400  1
  O  O8  1  0.60016500  0.31643100  0.46123200  1
  O  O9  1  0.76588600  0.02358600  0.03841000  1
  O  O10  1  0.23411400  0.97641400  0.96159000  1
  O  O11  1  0.39983500  0.68356900  0.53876800  1
  O  O12  1  0.30279200  0.91369300  0.74524600  1
  O  O13  1  0.95003500  0.30213200  0.61885300  1
  O  O14  1  0.34609700  0.78359200  0.27503600  1
  O  O15  1  0.85792600  0.37139700  0.09973400  1
  O  O16  1  0.77734300  0.74084100  0.70303800  1
  O  O17  1  0.59698100  0.72394400  0.18830700  1
  O  O18  1  0.72824000  0.84517500  0.44860900  1
  O  O19  1  0.74962500  0.70528600  0.99917000  1
loop_
_geom_bond_atom_site_label_1
_geom_bond_atom_site_label_2
_geom_bond_distance
_geom_bond_site_symmetry_2
Li0 O13 1.909874 1_455
Li0 O4 2.145231 1_555
Li0 O2 2.314396 1_555
Li0 O0 2.522117 1_556
Li0 O11 2.602657 1_555
Li1 O9 2.048915 1_566
Li1 O16 2.270414 1_555
Li1 O5 2.281701 1_565
Li1 O19 2.332125 1_555
Li2 O6 1.908140 1_555
Li2 O18 2.034528 1_455
Li2 O12 2.138049 1_555
Li2 O1 2.225648 1_565
Li2 O16 2.517148 1_455
Li3 O13 1.908140 1_555
Li3 O1 2.034528 1_655
Li3 O7 2.138049 1_555
Li3 O18 2.225648 1_545
Li3 O3 2.517148 1_655
Li4 O10 2.048915 1_544
Li4 O3 2.270414 1_555
Li4 O14 2.281701 1_545
Li4 O0 2.332125 1_555
Li5 O6 1.909874 1_655
Li5 O15 2.145231 1_555
Li5 O17 2.314396 1_555
Li5 O19 2.522117 1_554
Li5 O8 2.602657 1_555
B0 O0 1.315216 1_556
B0 O2 1.403973 1_555
B0 O10 1.413567 1_545
B1 O1 1.465744 1_555
B1 O12 1.471535 1_545
B1 O5 1.492096 1_555
B1 O2 1.509672 1_555
B2 O3 1.336989 1_555
B2 O1 1.405136 1_555
B2 O8 1.406721 1_555
B3 O4 1.346871 1_555
B3 O12 1.383177 1_555
B3 O10 1.400045 1_555
B4 O13 1.326664 1_555
B4 O8 1.415444 1_555
B4 O5 1.428083 1_555
B5 O6 1.326664 1_555
B5 O11 1.415444 1_555
B5 O14 1.428083 1_555
B6 O15 1.346871 1_555
B6 O7 1.383177 1_555
B6 O9 1.400045 1_555
B7 O16 1.336989 1_555
B7 O18 1.405136 1_555
B7 O11 1.406721 1_555
B8 O18 1.465744 1_555
B8 O7 1.471535 1_565
B8 O14 1.492096 1_555
B8 O17 1.509672 1_555
B9 O19 1.315216 1_554
B9 O17 1.403973 1_555
B9 O9 1.413567 1_565
O0 V0 2.078973 1_555
O2 V1 2.239724 1_555
O3 V0 2.158017 1_555
O4 V0 2.187061 1_556
O4 V1 2.207141 1_455
O5 V1 2.338348 1_555
O14 V0 2.338348 1_555
O15 V1 2.187061 1_554
O15 V0 2.207141 1_655
O16 V1 2.158017 1_555
O17 V0 2.239724 1_555
O19 V1 2.078973 1_555
