# generated using pymatgen
data_La2Pr2O7
_symmetry_space_group_name_H-M   'P 1'
_cell_length_a   8.11774565
_cell_length_b   8.11774565
_cell_length_c   8.11774565
_cell_angle_alpha   60.00000000
_cell_angle_beta   60.00000000
_cell_angle_gamma   60.00000000
_symmetry_Int_Tables_number   1
_chemical_formula_structural   La2Pr2O7
_chemical_formula_sum   'La4 Pr4 O14'
_cell_volume   378.26078691
_cell_formula_units_Z   2
loop_
 _symmetry_equiv_pos_site_id
 _symmetry_equiv_pos_as_xyz
  1  'x, y, z'
loop_
 _atom_site_type_symbol
 _atom_site_label
 _atom_site_symmetry_multiplicity
 _atom_site_fract_x
 _atom_site_fract_y
 _atom_site_fract_z
 _atom_site_occupancy
  La  La0  1  0.12500000  0.12500000  0.12500000  1
  La  La1  1  0.62500000  0.12500000  0.12500000  1
  La  La2  1  0.12500000  0.62500000  0.12500000  1
  La  La3  1  0.12500000  0.12500000  0.62500000  1
  Pr  Pr0  1  0.62500000  0.62500000  0.12500000  1
  Pr  Pr1  1  0.62500000  0.12500000  0.62500000  1
  Pr  Pr2  1  0.12500000  0.62500000  0.62500000  1
  Pr  Pr3  1  0.62500000  0.62500000  0.62500000  1
  O  O0  1  0.00000000  0.00000000  0.00000000  1
  O  O1  1  0.25000000  0.25000000  0.25000000  1
  O  O2  1  0.73029900  0.26970100  0.26970100  1
  O  O3  1  0.73029900  0.73029900  0.26970100  1
  O  O4  1  0.73029900  0.26970100  0.73029900  1
  O  O5  1  0.26970100  0.73029900  0.26970100  1
  O  O6  1  0.26970100  0.26970100  0.73029900  1
  O  O7  1  0.98029900  0.51970100  0.51970100  1
  O  O8  1  0.26970100  0.73029900  0.73029900  1
  O  O9  1  0.51970100  0.98029900  0.51970100  1
  O  O10  1  0.51970100  0.51970100  0.98029900  1
  O  O11  1  0.98029900  0.51970100  0.98029900  1
  O  O12  1  0.98029900  0.98029900  0.51970100  1
  O  O13  1  0.51970100  0.98029900  0.98029900  1
loop_
_geom_bond_atom_site_label_1
_geom_bond_atom_site_label_2
_geom_bond_distance
_geom_bond_site_symmetry_2
La0 O1 2.485542 1_555
La0 O0 2.485542 1_555
La0 O11 2.622632 1_454
La0 O13 2.622632 1_544
La0 O12 2.622632 1_445
La0 O2 2.622632 1_455
La0 O5 2.622632 1_545
La0 O6 2.622632 1_554
La1 O1 2.485542 1_555
La1 O0 2.485542 1_655
La1 O2 2.622632 1_555
La1 O10 2.622632 1_554
La1 O9 2.622632 1_545
La1 O3 2.622632 1_545
La1 O4 2.622632 1_554
La1 O13 2.622632 1_544
La2 O1 2.485542 1_555
La2 O0 2.485542 1_565
La2 O5 2.622632 1_555
La2 O10 2.622632 1_554
La2 O7 2.622632 1_455
La2 O8 2.622632 1_554
La2 O3 2.622632 1_455
La2 O11 2.622632 1_454
La3 O0 2.485542 1_556
La3 O1 2.485542 1_555
La3 O6 2.622632 1_555
La3 O7 2.622632 1_455
La3 O9 2.622632 1_545
La3 O4 2.622632 1_455
La3 O8 2.622632 1_545
La3 O12 2.622632 1_445
O2 Pr1 2.362191 1_555
O2 Pr0 2.362191 1_555
O3 Pr0 2.362191 1_555
O3 Pr3 2.362191 1_555
O4 Pr1 2.362191 1_555
O4 Pr3 2.362191 1_555
O5 Pr2 2.362191 1_555
O5 Pr0 2.362191 1_555
O6 Pr1 2.362191 1_555
O6 Pr2 2.362191 1_555
O7 Pr3 2.362191 1_555
O7 Pr2 2.362191 1_655
O8 Pr2 2.362191 1_555
O8 Pr3 2.362191 1_555
O9 Pr3 2.362191 1_555
O9 Pr1 2.362191 1_565
O10 Pr3 2.362191 1_555
O10 Pr0 2.362191 1_556
O11 Pr2 2.362191 1_655
O11 Pr0 2.362191 1_556
O12 Pr2 2.362191 1_655
O12 Pr1 2.362191 1_565
O13 Pr1 2.362191 1_565
O13 Pr0 2.362191 1_556
