# generated using pymatgen
data_Li4Fe3Ni2Sn3O16
_symmetry_space_group_name_H-M   'P 1'
_cell_length_a   6.08379144
_cell_length_b   6.08379144
_cell_length_c   9.75177437
_cell_angle_alpha   89.03136016
_cell_angle_beta   89.03136016
_cell_angle_gamma   60.12036040
_symmetry_Int_Tables_number   1
_chemical_formula_structural   Li4Fe3Ni2Sn3O16
_chemical_formula_sum   'Li4 Fe3 Ni2 Sn3 O16'
_cell_volume   312.89995515
_cell_formula_units_Z   1
loop_
 _symmetry_equiv_pos_site_id
 _symmetry_equiv_pos_as_xyz
  1  'x, y, z'
loop_
 _atom_site_type_symbol
 _atom_site_label
 _atom_site_symmetry_multiplicity
 _atom_site_fract_x
 _atom_site_fract_y
 _atom_site_fract_z
 _atom_site_occupancy
  Li  Li0  1  0.67385200  0.67385200  0.88495300  1
  Li  Li1  1  0.98304700  0.98304700  0.99551600  1
  Li  Li2  1  0.98570000  0.98570000  0.50153900  1
  Li  Li3  1  0.33960000  0.33960000  0.39468700  1
  Fe  Fe0  1  0.83185100  0.83185100  0.21785300  1
  Fe  Fe1  1  0.66224700  0.17083600  0.71517900  1
  Fe  Fe2  1  0.17083600  0.66224700  0.71517900  1
  Ni  Ni0  1  0.66592400  0.66592400  0.49277700  1
  Ni  Ni1  1  0.33237900  0.33237900  0.98800100  1
  Sn  Sn0  1  0.83234600  0.33916200  0.21378900  1
  Sn  Sn1  1  0.33916200  0.83234600  0.21378900  1
  Sn  Sn2  1  0.16998000  0.16998000  0.71224500  1
  O  O0  1  0.83188700  0.31425300  0.60018200  1
  O  O1  1  0.51916000  0.51916000  0.34215700  1
  O  O2  1  0.67102000  0.67102000  0.09603300  1
  O  O3  1  0.99984100  0.99984100  0.31950800  1
  O  O4  1  0.99666600  0.99666600  0.81388800  1
  O  O5  1  0.31425300  0.83188700  0.60018200  1
  O  O6  1  0.96691100  0.53165500  0.33520900  1
  O  O7  1  0.53165500  0.96691100  0.33520900  1
  O  O8  1  0.15746900  0.15746900  0.09190500  1
  O  O9  1  0.83563300  0.83563300  0.61292900  1
  O  O10  1  0.49248100  0.04132400  0.83601400  1
  O  O11  1  0.04132400  0.49248100  0.83601400  1
  O  O12  1  0.33879400  0.33879400  0.60017800  1
  O  O13  1  0.67903700  0.14736400  0.10615900  1
  O  O14  1  0.48260800  0.48260800  0.83067900  1
  O  O15  1  0.14736400  0.67903700  0.10615900  1
loop_
_geom_bond_atom_site_label_1
_geom_bond_atom_site_label_2
_geom_bond_distance
_geom_bond_site_symmetry_2
Li0 O11 1.991780 1_655
Li0 O10 1.991780 1_565
Li0 O2 2.058038 1_556
Li0 O14 2.092356 1_555
Li1 O4 1.774198 1_555
Li1 O15 1.926418 1_656
Li1 O13 1.926418 1_566
Li1 O8 2.079658 1_666
Li2 O3 1.778460 1_555
Li2 O9 1.900111 1_555
Li2 O5 1.991813 1_655
Li2 O0 1.991813 1_565
Li3 O1 1.949430 1_555
Li3 O12 2.003754 1_555
Li3 O7 2.055364 1_545
Li3 O6 2.055364 1_455
Fe0 O6 1.945839 1_555
Fe0 O7 1.945839 1_555
Fe0 O15 1.980086 1_655
Fe0 O13 1.980086 1_565
Fe0 O3 2.044741 1_555
Fe0 O2 2.087710 1_555
Fe1 O10 1.953035 1_555
Fe1 O0 1.977123 1_555
Fe1 O14 2.006470 1_555
Fe1 O4 2.018031 1_545
Fe1 O9 2.038524 1_545
Fe1 O12 2.050987 1_555
Fe2 O11 1.953035 1_555
Fe2 O5 1.977123 1_555
Fe2 O14 2.006470 1_555
Fe2 O4 2.018031 1_455
Fe2 O9 2.038524 1_455
Fe2 O12 2.050987 1_555
Ni0 O0 2.121688 1_555
Ni0 O5 2.121688 1_555
Ni0 O1 2.152882 1_555
Ni0 O9 2.156108 1_555
Ni0 O6 2.199624 1_555
Ni0 O7 2.199624 1_555
Ni1 O8 2.084867 1_556
Ni1 O10 2.145319 1_555
Ni1 O11 2.145319 1_555
Ni1 O13 2.171539 1_556
Ni1 O15 2.171539 1_556
Ni1 O14 2.182154 1_555
O0 Sn2 2.107175 1_655
O1 Sn0 2.069641 1_555
O1 Sn1 2.069641 1_555
O2 Sn0 2.084110 1_555
O2 Sn1 2.084110 1_555
O3 Sn1 2.056801 1_655
O3 Sn0 2.056801 1_565
O4 Sn2 2.059872 1_665
O5 Sn2 2.107175 1_565
O6 Sn0 2.116259 1_555
O7 Sn1 2.116259 1_555
O8 Sn1 2.081701 1_545
O8 Sn0 2.081701 1_455
O10 Sn2 2.106413 1_555
O11 Sn2 2.106413 1_555
O12 Sn2 2.068564 1_555
O13 Sn0 2.119431 1_555
O15 Sn1 2.119431 1_555
