# generated using pymatgen
data_FePO4
_symmetry_space_group_name_H-M   'P 1'
_cell_length_a   8.73167441
_cell_length_b   8.73167441
_cell_length_c   8.73167493
_cell_angle_alpha   108.14477766
_cell_angle_beta   108.14477766
_cell_angle_gamma   108.14478478
_symmetry_Int_Tables_number   1
_chemical_formula_structural   FePO4
_chemical_formula_sum   'Fe6 P6 O24'
_cell_volume   536.16428723
_cell_formula_units_Z   6
loop_
 _symmetry_equiv_pos_site_id
 _symmetry_equiv_pos_as_xyz
  1  'x, y, z'
loop_
 _atom_site_type_symbol
 _atom_site_label
 _atom_site_symmetry_multiplicity
 _atom_site_fract_x
 _atom_site_fract_y
 _atom_site_fract_z
 _atom_site_occupancy
  Fe  Fe0  1  0.47042700  0.23810900  0.05632600  1
  Fe  Fe1  1  0.23810900  0.05632600  0.47042700  1
  Fe  Fe2  1  0.95238900  0.54699000  0.76215500  1
  Fe  Fe3  1  0.54699000  0.76215500  0.95238900  1
  Fe  Fe4  1  0.05632600  0.47042700  0.23810900  1
  Fe  Fe5  1  0.76215500  0.95238900  0.54699000  1
  P  P0  1  0.71488600  0.12431600  0.90863100  1
  P  P1  1  0.43115500  0.61188000  0.20357900  1
  P  P2  1  0.12431600  0.90863100  0.71488600  1
  P  P3  1  0.20357900  0.43115500  0.61188000  1
  P  P4  1  0.61188000  0.20357900  0.43115500  1
  P  P5  1  0.90863100  0.71488600  0.12431600  1
  O  O0  1  0.71684000  0.08881400  0.42250800  1
  O  O1  1  0.00427100  0.00522700  0.67874600  1
  O  O2  1  0.00737300  0.91708600  0.26417900  1
  O  O3  1  0.42250800  0.71684000  0.08881400  1
  O  O4  1  0.41654200  0.08585100  0.38944000  1
  O  O5  1  0.67874600  0.00427100  0.00522700  1
  O  O6  1  0.36715900  0.62221200  0.70881600  1
  O  O7  1  0.66597200  0.00301900  0.71165800  1
  O  O8  1  0.91708600  0.26417900  0.00737300  1
  O  O9  1  0.91177500  0.59554100  0.22410800  1
  O  O10  1  0.38944000  0.41654200  0.08585100  1
  O  O11  1  0.70881600  0.36715900  0.62221200  1
  O  O12  1  0.00522700  0.67874600  0.00427100  1
  O  O13  1  0.27501900  0.28975600  0.60953200  1
  O  O14  1  0.62221200  0.70881600  0.36715900  1
  O  O15  1  0.71165800  0.66597200  0.00301900  1
  O  O16  1  0.08881400  0.42250800  0.71684000  1
  O  O17  1  0.59554100  0.22410800  0.91177500  1
  O  O18  1  0.22410800  0.91177500  0.59554100  1
  O  O19  1  0.26417900  0.00737300  0.91708600  1
  O  O20  1  0.08585100  0.38944000  0.41654200  1
  O  O21  1  0.00301900  0.71165800  0.66597200  1
  O  O22  1  0.28975600  0.60953200  0.27501900  1
  O  O23  1  0.60953200  0.27501900  0.28975600  1
loop_
_geom_bond_atom_site_label_1
_geom_bond_atom_site_label_2
_geom_bond_distance
_geom_bond_site_symmetry_2
Fe0 O23 1.881135 1_555
Fe0 O10 1.882430 1_555
Fe0 O19 1.905586 1_554
Fe0 O17 1.909809 1_554
Fe1 O13 1.881135 1_555
Fe1 O4 1.882430 1_555
Fe1 O2 1.905586 1_545
Fe1 O18 1.909809 1_545
Fe2 O12 1.884890 1_656
Fe2 O21 1.885621 1_655
Fe2 O11 1.894286 1_555
Fe2 O16 1.894500 1_655
Fe3 O5 1.884889 1_566
Fe3 O15 1.885621 1_556
Fe3 O6 1.894286 1_555
Fe3 O3 1.894500 1_556
Fe4 O22 1.881135 1_555
Fe4 O20 1.882430 1_555
Fe4 O8 1.905586 1_455
Fe4 O9 1.909809 1_455
Fe5 O1 1.884889 1_665
Fe5 O7 1.885621 1_565
Fe5 O14 1.894286 1_555
Fe5 O0 1.894500 1_565
O0 P4 1.554928 1_555
O1 P2 1.555665 1_545
O2 P5 1.550836 1_455
O3 P1 1.554928 1_555
O4 P4 1.544784 1_555
O5 P0 1.555665 1_554
O6 P3 1.556610 1_555
O7 P0 1.545448 1_555
O8 P0 1.550836 1_554
O9 P5 1.553837 1_555
O10 P1 1.544784 1_555
O11 P4 1.556610 1_555
O12 P5 1.555665 1_455
O13 P3 1.544598 1_555
O14 P1 1.556610 1_555
O15 P5 1.545448 1_555
O16 P3 1.554928 1_555
O17 P0 1.553837 1_555
O18 P2 1.553837 1_555
O19 P2 1.550836 1_545
O20 P3 1.544784 1_555
O21 P2 1.545448 1_555
O22 P1 1.544598 1_555
O23 P4 1.544598 1_555
