# generated using pymatgen
data_Mn2V3Sb(PO4)6
_symmetry_space_group_name_H-M   'P 1'
_cell_length_a   8.72948468
_cell_length_b   8.72948468
_cell_length_c   8.72948441
_cell_angle_alpha   59.75848674
_cell_angle_beta   59.75848674
_cell_angle_gamma   59.75848234
_symmetry_Int_Tables_number   1
_chemical_formula_structural   Mn2V3Sb(PO4)6
_chemical_formula_sum   'Mn2 V3 Sb1 P6 O24'
_cell_volume   467.80254942
_cell_formula_units_Z   1
loop_
 _symmetry_equiv_pos_site_id
 _symmetry_equiv_pos_as_xyz
  1  'x, y, z'
loop_
 _atom_site_type_symbol
 _atom_site_label
 _atom_site_symmetry_multiplicity
 _atom_site_fract_x
 _atom_site_fract_y
 _atom_site_fract_z
 _atom_site_occupancy
  Mn  Mn0  1  0.99446000  0.99446000  0.99446000  1
  Mn  Mn1  1  0.50055200  0.50055200  0.50055200  1
  V  V0  1  0.64415300  0.64415300  0.64415300  1
  V  V1  1  0.85573600  0.85573600  0.85573600  1
  V  V2  1  0.35729900  0.35729900  0.35729900  1
  Sb  Sb0  1  0.14420400  0.14420400  0.14420400  1
  P  P0  1  0.95646100  0.25312700  0.54509500  1
  P  P1  1  0.54509500  0.95646100  0.25312700  1
  P  P2  1  0.25312700  0.54509500  0.95646100  1
  P  P3  1  0.74809800  0.46138900  0.04325800  1
  P  P4  1  0.46138900  0.04325800  0.74809800  1
  P  P5  1  0.04325800  0.74809800  0.46138900  1
  O  O0  1  0.50121600  0.11596400  0.30851500  1
  O  O1  1  0.30851500  0.50121600  0.11596400  1
  O  O2  1  0.11596400  0.30851500  0.50121600  1
  O  O3  1  0.94071100  0.08701800  0.73403400  1
  O  O4  1  0.98861500  0.19308900  0.38471800  1
  O  O5  1  0.76380700  0.41386500  0.55732400  1
  O  O6  1  0.73403400  0.94071100  0.08701800  1
  O  O7  1  0.55732400  0.76380700  0.41386500  1
  O  O8  1  0.81091300  0.61224600  0.00745300  1
  O  O9  1  0.41386500  0.55732400  0.76380700  1
  O  O10  1  0.91853100  0.26078900  0.05973100  1
  O  O11  1  0.61224600  0.00745300  0.81091300  1
  O  O12  1  0.38471800  0.98861500  0.19308900  1
  O  O13  1  0.08701800  0.73403400  0.94071100  1
  O  O14  1  0.59137100  0.43584100  0.23847500  1
  O  O15  1  0.19308900  0.38471800  0.98861500  1
  O  O16  1  0.43584100  0.23847500  0.59137100  1
  O  O17  1  0.26078900  0.05973100  0.91853100  1
  O  O18  1  0.23847500  0.59137100  0.43584100  1
  O  O19  1  0.00745300  0.81091300  0.61224600  1
  O  O20  1  0.05973100  0.91853100  0.26078900  1
  O  O21  1  0.88553800  0.69757700  0.48881200  1
  O  O22  1  0.69757700  0.48881200  0.88553800  1
  O  O23  1  0.48881200  0.88553800  0.69757700  1
loop_
_geom_bond_atom_site_label_1
_geom_bond_atom_site_label_2
_geom_bond_distance
_geom_bond_site_symmetry_2
Mn0 O3 2.209886 1_565
Mn0 O13 2.209886 1_655
Mn0 O6 2.209886 1_556
Mn0 O20 2.360278 1_656
Mn0 O10 2.360278 1_566
Mn0 O17 2.360278 1_665
Mn1 O9 2.262114 1_555
Mn1 O5 2.262114 1_555
Mn1 O7 2.262114 1_555
Mn1 O14 2.281519 1_555
Mn1 O18 2.281519 1_555
Mn1 O16 2.281519 1_555
O0 P1 1.507838 1_545
O0 V2 1.974025 1_555
O1 P2 1.507838 1_554
O1 V2 1.974025 1_555
O2 P0 1.507838 1_455
O2 V2 1.974025 1_555
O3 P0 1.550871 1_555
O3 V1 2.075897 1_545
O4 P0 1.583848 1_555
O4 Sb0 1.970086 1_655
O5 P0 1.549724 1_555
O5 V0 2.080648 1_555
O6 P1 1.550871 1_555
O6 V1 2.075897 1_554
O7 P1 1.549724 1_555
O7 V0 2.080648 1_555
O8 P3 1.507560 1_555
O8 V1 1.976166 1_554
O9 P2 1.549724 1_555
O9 V0 2.080648 1_555
O10 P3 1.624256 1_555
O10 Sb0 2.036727 1_655
O11 P4 1.507560 1_555
O11 V1 1.976165 1_545
O12 P1 1.583848 1_555
O12 Sb0 1.970086 1_565
O13 P2 1.550871 1_555
O13 V1 2.075897 1_455
O14 P3 1.549732 1_555
O14 V2 2.069078 1_555
O15 P2 1.583848 1_555
O15 Sb0 1.970086 1_556
O16 P4 1.549732 1_555
O16 V2 2.069078 1_555
O17 P4 1.624257 1_555
O17 Sb0 2.036727 1_556
O18 P5 1.549731 1_555
O18 V2 2.069078 1_555
O19 P5 1.507560 1_555
O19 V1 1.976165 1_455
O20 P5 1.624257 1_555
O20 Sb0 2.036727 1_565
O21 P5 1.523390 1_655
O21 V0 1.992764 1_555
O22 P3 1.523390 1_556
O22 V0 1.992763 1_555
O23 P4 1.523390 1_565
O23 V0 1.992763 1_555
