# generated using pymatgen
data_Sm2(WO4)3
_symmetry_space_group_name_H-M   'P 1'
_cell_length_a   7.04424832
_cell_length_b   7.04424832
_cell_length_c   11.60357731
_cell_angle_alpha   79.19244587
_cell_angle_beta   79.19244587
_cell_angle_gamma   112.23735244
_symmetry_Int_Tables_number   1
_chemical_formula_structural   Sm2(WO4)3
_chemical_formula_sum   'Sm4 W6 O24'
_cell_volume   501.90815176
_cell_formula_units_Z   2
loop_
 _symmetry_equiv_pos_site_id
 _symmetry_equiv_pos_as_xyz
  1  'x, y, z'
loop_
 _atom_site_type_symbol
 _atom_site_label
 _atom_site_symmetry_multiplicity
 _atom_site_fract_x
 _atom_site_fract_y
 _atom_site_fract_z
 _atom_site_occupancy
  Sm  Sm0  1  0.69365700  0.94779700  0.59485000  1
  Sm  Sm1  1  0.94779700  0.69365700  0.09485000  1
  Sm  Sm2  1  0.05220300  0.30634300  0.90515000  1
  Sm  Sm3  1  0.30634300  0.05220300  0.40515000  1
  W  W0  1  0.50842900  0.79764900  0.95233500  1
  W  W1  1  0.79764900  0.50842900  0.45233500  1
  W  W2  1  0.11814000  0.88186000  0.75000000  1
  W  W3  1  0.88186000  0.11814000  0.25000000  1
  W  W4  1  0.20235100  0.49157100  0.54766500  1
  W  W5  1  0.49157100  0.20235100  0.04766500  1
  O  O0  1  0.64817900  0.79515400  0.80345000  1
  O  O1  1  0.40382100  0.98780200  0.72022800  1
  O  O2  1  0.02685900  0.94735300  0.89088700  1
  O  O3  1  0.67388100  0.60551000  0.56103600  1
  O  O4  1  0.22333000  0.62341200  0.96228400  1
  O  O5  1  0.89917000  0.32551000  0.57612700  1
  O  O6  1  0.79515400  0.64817900  0.30345000  1
  O  O7  1  0.67449000  0.10083000  0.92387300  1
  O  O8  1  0.37658800  0.77667000  0.53771600  1
  O  O9  1  0.39449000  0.32611900  0.93896400  1
  O  O10  1  0.05264700  0.97314100  0.60911300  1
  O  O11  1  0.98780200  0.40382100  0.22022800  1
  O  O12  1  0.01219800  0.59617900  0.77977200  1
  O  O13  1  0.94735300  0.02685900  0.39088700  1
  O  O14  1  0.60551000  0.67388100  0.06103600  1
  O  O15  1  0.62341200  0.22333000  0.46228400  1
  O  O16  1  0.32551000  0.89917000  0.07612700  1
  O  O17  1  0.20484600  0.35182100  0.69655000  1
  O  O18  1  0.10083000  0.67449000  0.42387300  1
  O  O19  1  0.77667000  0.37658800  0.03771600  1
  O  O20  1  0.32611900  0.39449000  0.43896400  1
  O  O21  1  0.97314100  0.05264700  0.10911300  1
  O  O22  1  0.59617900  0.01219800  0.27977200  1
  O  O23  1  0.35182100  0.20484600  0.19655000  1
loop_
_geom_bond_atom_site_label_1
_geom_bond_atom_site_label_2
_geom_bond_distance
_geom_bond_site_symmetry_2
O0 W0 1.827757 1_555
O0 Sm0 2.364334 1_555
O1 W2 1.797762 1_555
O1 Sm0 2.416548 1_555
O2 W2 1.847162 1_555
O2 Sm1 2.504268 1_456
O2 Sm2 2.506091 1_565
O3 W1 1.783558 1_555
O3 Sm0 2.471452 1_555
O4 W0 1.883427 1_555
O4 Sm2 2.387129 1_555
O4 Sm1 2.504181 1_456
O5 W4 1.933462 1_655
O5 W1 2.150263 1_555
O5 Sm0 2.443804 1_545
O6 W1 1.827757 1_555
O6 Sm1 2.364334 1_555
O7 W0 1.933462 1_545
O7 W5 2.150263 1_556
O7 Sm2 2.443804 1_655
O8 W4 1.883427 1_555
O8 Sm0 2.387129 1_555
O8 Sm3 2.504181 1_565
O9 W5 1.783558 1_556
O9 Sm2 2.471452 1_555
O10 W2 1.847162 1_555
O10 Sm3 2.504268 1_565
O10 Sm0 2.506091 1_455
O11 W3 1.797762 1_555
O11 Sm1 2.416548 1_555
O12 W2 1.797762 1_555
O12 Sm2 2.416548 1_555
O13 W3 1.847162 1_555
O13 Sm0 2.504268 1_545
O13 Sm3 2.506091 1_655
O14 W0 1.783558 1_554
O14 Sm1 2.471452 1_555
O15 W1 1.883427 1_555
O15 Sm3 2.387129 1_555
O15 Sm0 2.504181 1_545
O16 W5 1.933462 1_565
O16 W0 2.150263 1_554
O16 Sm1 2.443804 1_455
O17 W4 1.827757 1_555
O17 Sm2 2.364334 1_555
O18 W1 1.933462 1_455
O18 W4 2.150263 1_555
O18 Sm3 2.443804 1_565
O19 W5 1.883427 1_555
O19 Sm1 2.387129 1_555
O19 Sm2 2.504181 1_654
O20 W4 1.783558 1_555
O20 Sm3 2.471452 1_555
O21 W3 1.847162 1_555
O21 Sm2 2.504268 1_654
O21 Sm1 2.506091 1_545
O22 W3 1.797762 1_555
O22 Sm3 2.416548 1_555
O23 W5 1.827757 1_555
O23 Sm3 2.364334 1_555
