# generated using pymatgen
data_Li4Cr5WO12
_symmetry_space_group_name_H-M   'P 1'
_cell_length_a   5.26668594
_cell_length_b   5.26668594
_cell_length_c   10.35968577
_cell_angle_alpha   87.09625704
_cell_angle_beta   87.09625704
_cell_angle_gamma   120.70370365
_symmetry_Int_Tables_number   1
_chemical_formula_structural   Li4Cr5WO12
_chemical_formula_sum   'Li4 Cr5 W1 O12'
_cell_volume   245.77589349
_cell_formula_units_Z   1
loop_
 _symmetry_equiv_pos_site_id
 _symmetry_equiv_pos_as_xyz
  1  'x, y, z'
loop_
 _atom_site_type_symbol
 _atom_site_label
 _atom_site_symmetry_multiplicity
 _atom_site_fract_x
 _atom_site_fract_y
 _atom_site_fract_z
 _atom_site_occupancy
  Li  Li0  1  0.87668800  0.53972000  0.29077300  1
  Li  Li1  1  0.46028000  0.12331200  0.70922700  1
  Li  Li2  1  0.53972000  0.87668800  0.29077300  1
  Li  Li3  1  0.12331200  0.46028000  0.70922700  1
  Cr  Cr0  1  0.83644800  0.16355200  0.50000000  1
  Cr  Cr1  1  0.66673300  0.33326700  0.00000000  1
  Cr  Cr2  1  0.50000000  0.50000000  0.50000000  1
  Cr  Cr3  1  0.33326700  0.66673300  0.00000000  1
  Cr  Cr4  1  0.16355200  0.83644800  0.50000000  1
  W  W0  1  0.00000000  0.00000000  0.00000000  1
  O  O0  1  0.01523800  0.35320200  0.89979000  1
  O  O1  1  0.64679800  0.98476200  0.10021000  1
  O  O2  1  0.81201600  0.46691700  0.60367000  1
  O  O3  1  0.53308300  0.18798400  0.39633000  1
  O  O4  1  0.84390300  0.84390300  0.39543100  1
  O  O5  1  0.69570100  0.69570100  0.90506000  1
  O  O6  1  0.30429900  0.30429900  0.09494000  1
  O  O7  1  0.15609700  0.15609700  0.60456900  1
  O  O8  1  0.46691700  0.81201600  0.60367000  1
  O  O9  1  0.18798400  0.53308300  0.39633000  1
  O  O10  1  0.35320200  0.01523800  0.89979000  1
  O  O11  1  0.98476200  0.64679800  0.10021000  1
loop_
_geom_bond_atom_site_label_1
_geom_bond_atom_site_label_2
_geom_bond_distance
_geom_bond_site_symmetry_2
Li0 O11 1.996229 1_555
Li0 O3 2.018222 1_555
Li0 O9 2.030098 1_655
Li0 O4 2.052164 1_555
Li1 O10 1.996229 1_555
Li1 O2 2.018222 1_555
Li1 O8 2.030098 1_545
Li1 O7 2.052164 1_555
Li2 O1 1.996229 1_555
Li2 O9 2.018222 1_555
Li2 O3 2.030098 1_565
Li2 O4 2.052164 1_555
Li3 O0 1.996229 1_555
Li3 O8 2.018222 1_555
Li3 O2 2.030098 1_455
Li3 O7 2.052164 1_555
Cr0 O2 2.023003 1_555
Cr0 O3 2.023003 1_555
Cr0 O7 2.063296 1_655
Cr0 O4 2.063296 1_545
Cr0 O9 2.067870 1_655
Cr0 O8 2.067870 1_545
Cr1 O1 2.014153 1_545
Cr1 O0 2.014153 1_654
Cr1 O6 2.032597 1_555
Cr1 O5 2.032597 1_554
Cr1 O10 2.033554 1_554
Cr1 O11 2.033554 1_555
Cr2 O7 1.996740 1_555
Cr2 O4 1.996740 1_555
Cr2 O3 2.082416 1_555
Cr2 O9 2.082416 1_555
Cr2 O8 2.082416 1_555
Cr2 O2 2.082416 1_555
Cr3 O11 2.014153 1_455
Cr3 O10 2.014153 1_564
Cr3 O6 2.032597 1_555
Cr3 O5 2.032597 1_554
Cr3 O1 2.033554 1_555
Cr3 O0 2.033554 1_554
Cr4 O9 2.023003 1_555
Cr4 O8 2.023003 1_555
Cr4 O7 2.063296 1_565
Cr4 O4 2.063296 1_455
Cr4 O3 2.067870 1_565
Cr4 O2 2.067870 1_455
O0 W0 2.046458 1_556
O1 W0 2.046458 1_665
O5 W0 1.949566 1_666
O6 W0 1.949566 1_555
O10 W0 2.046458 1_556
O11 W0 2.046458 1_665
