# generated using pymatgen
data_Li6Mn15O32
_symmetry_space_group_name_H-M   'P 1'
_cell_length_a   5.98047071
_cell_length_b   5.89186002
_cell_length_c   19.40674593
_cell_angle_alpha   97.90610871
_cell_angle_beta   97.94381110
_cell_angle_gamma   59.19681114
_symmetry_Int_Tables_number   1
_chemical_formula_structural   Li6Mn15O32
_chemical_formula_sum   'Li6 Mn15 O32'
_cell_volume   579.92146612
_cell_formula_units_Z   1
loop_
 _symmetry_equiv_pos_site_id
 _symmetry_equiv_pos_as_xyz
  1  'x, y, z'
loop_
 _atom_site_type_symbol
 _atom_site_label
 _atom_site_symmetry_multiplicity
 _atom_site_fract_x
 _atom_site_fract_y
 _atom_site_fract_z
 _atom_site_occupancy
  Li  Li0  1  0.84864900  0.82934900  0.03265900  1
  Li  Li1  1  0.90248800  0.91733100  0.21742400  1
  Li  Li2  1  0.58807200  0.59101700  0.27588500  1
  Li  Li3  1  0.65966900  0.65163300  0.46902100  1
  Li  Li4  1  0.09030500  0.09778600  0.78059400  1
  Li  Li5  1  0.16214100  0.15626900  0.97453600  1
  Mn  Mn0  1  0.50167900  0.50609300  0.00431200  1
  Mn  Mn1  1  0.87425200  0.37377000  0.12497100  1
  Mn  Mn2  1  0.37547800  0.37287400  0.12521600  1
  Mn  Mn3  1  0.12640200  0.62080100  0.37531400  1
  Mn  Mn4  1  0.24804200  0.24201200  0.24575200  1
  Mn  Mn5  1  0.37475500  0.87297800  0.62478600  1
  Mn  Mn6  1  0.87376300  0.87357500  0.62468000  1
  Mn  Mn7  1  0.12559600  0.12501000  0.37441400  1
  Mn  Mn8  1  0.62279200  0.12604200  0.37551200  1
  Mn  Mn9  1  0.74495600  0.74687000  0.74853400  1
  Mn  Mn10  1  0.00420700  0.00072700  0.50129700  1
  Mn  Mn11  1  0.87425000  0.37339900  0.62486300  1
  Mn  Mn12  1  0.62410000  0.62379500  0.87557400  1
  Mn  Mn13  1  0.12692600  0.62302600  0.87469200  1
  Mn  Mn14  1  0.62403600  0.12705300  0.87453000  1
  O  O0  1  0.69654500  0.63230400  0.05774300  1
  O  O1  1  0.22689100  0.63491400  0.05758700  1
  O  O2  1  0.40737000  0.97134000  0.31379400  1
  O  O3  1  0.67616800  0.21637700  0.06668300  1
  O  O4  1  0.57156700  0.52512800  0.17551000  1
  O  O5  1  0.95998800  0.93305000  0.32240400  1
  O  O6  1  0.17793600  0.22264000  0.07473200  1
  O  O7  1  0.07361900  0.53089400  0.18355600  1
  O  O8  1  0.52301800  0.11127900  0.19255300  1
  O  O9  1  0.83303400  0.83366600  0.43538500  1
  O  O10  1  0.05442300  0.11423000  0.19237800  1
  O  O11  1  0.27578400  0.82432200  0.43373100  1
  O  O12  1  0.97177600  0.42925600  0.31813200  1
  O  O13  1  0.41647800  0.42115000  0.31833700  1
  O  O14  1  0.28769300  0.31213100  0.42691000  1
  O  O15  1  0.17244900  0.73141800  0.56682300  1
  O  O16  1  0.67352500  0.67516400  0.56987400  1
  O  O17  1  0.84334200  0.27570400  0.43542000  1
  O  O18  1  0.58401400  0.57959600  0.68460300  1
  O  O19  1  0.01203900  0.57653300  0.68333600  1
  O  O20  1  0.73641900  0.17098900  0.56594200  1
  O  O21  1  0.91479300  0.91664300  0.81383400  1
  O  O22  1  0.16484200  0.16740900  0.56492500  1
  O  O23  1  0.47375800  0.92389700  0.81637700  1
  O  O24  1  0.89817400  0.47194100  0.81279700  1
  O  O25  1  0.07569300  0.07075800  0.67952000  1
  O  O26  1  0.79814600  0.81058000  0.92664700  1
  O  O27  1  0.45269500  0.44207000  0.82420300  1
  O  O28  1  0.57603000  0.01578800  0.68232100  1
  O  O29  1  0.34994200  0.77893700  0.93797200  1
  O  O30  1  0.33496300  0.32545600  0.93244400  1
  O  O31  1  0.77673000  0.31960800  0.93133300  1
loop_
_geom_bond_atom_site_label_1
_geom_bond_atom_site_label_2
_geom_bond_distance
_geom_bond_site_symmetry_2
Li0 O0 1.942101 1_555
Li0 O1 1.964503 1_655
Li0 O3 2.016144 1_565
Li0 O26 2.033716 1_554
Li1 O10 1.940240 1_665
Li1 O8 1.970267 1_565
Li1 O7 2.012733 1_655
Li1 O5 2.016077 1_555
Li2 O4 1.932106 1_555
Li2 O2 2.004101 1_555
Li2 O13 2.060567 1_555
Li2 O12 2.073968 1_555
Li3 O16 1.936264 1_555
Li3 O17 1.961255 1_555
Li3 O11 2.034635 1_555
Li3 O9 2.042031 1_555
Li4 O25 1.939456 1_555
Li4 O24 1.948268 1_455
Li4 O23 2.034713 1_545
Li4 O21 2.044711 1_445
Li5 O6 1.928916 1_556
Li5 O29 1.984059 1_545
Li5 O30 2.059548 1_555
Li5 O31 2.087543 1_455
Mn0 O1 1.822617 1_555
Mn0 O0 1.824208 1_555
Mn0 O29 1.953869 1_554
Mn0 O3 1.965382 1_555
Mn0 O31 2.069707 1_554
Mn0 O30 2.089528 1_554
Mn1 O4 1.905476 1_555
Mn1 O6 1.906896 1_655
Mn1 O0 1.912433 1_555
Mn1 O10 1.919327 1_655
Mn1 O3 2.002259 1_555
Mn1 O7 2.009351 1_655
Mn2 O6 1.910911 1_555
Mn2 O4 1.911228 1_555
Mn2 O8 1.924666 1_555
Mn2 O1 1.930230 1_555
Mn2 O3 1.988109 1_555
Mn2 O7 1.990275 1_555
Mn3 O14 1.917771 1_555
Mn3 O13 1.923083 1_555
Mn3 O5 1.947155 1_455
Mn3 O12 1.949597 1_455
Mn3 O9 1.979819 1_455
Mn3 O11 1.991102 1_555
Mn4 O8 1.821187 1_555
Mn4 O10 1.824101 1_555
Mn4 O7 1.959787 1_555
Mn4 O2 1.967249 1_545
Mn4 O12 2.065981 1_455
Mn4 O13 2.097771 1_555
Mn5 O25 1.932634 1_565
Mn5 O16 1.933492 1_555
Mn5 O28 1.952182 1_565
Mn5 O15 1.955514 1_555
Mn5 O18 1.958725 1_555
Mn5 O22 1.963608 1_565
Mn6 O19 1.961677 1_655
Mn6 O20 1.965015 1_565
Mn6 O28 1.971938 1_565
Mn6 O15 1.978987 1_655
Mn6 O16 2.161377 1_555
Mn6 O25 2.163863 1_665
Mn7 O14 1.925047 1_555
Mn7 O2 1.932814 1_545
Mn7 O17 1.941035 1_455
Mn7 O12 1.955657 1_455
Mn7 O5 1.958507 1_445
Mn7 O11 1.978895 1_545
Mn8 O13 1.931805 1_555
Mn8 O9 1.956273 1_545
Mn8 O14 2.052936 1_555
Mn8 O5 2.079770 1_545
Mn8 O17 2.086691 1_555
Mn8 O2 2.097858 1_545
Mn9 O19 1.930530 1_655
Mn9 O24 1.933540 1_555
Mn9 O18 1.934462 1_555
Mn9 O28 1.934965 1_565
Mn9 O23 1.982869 1_555
Mn9 O21 1.993545 1_555
Mn10 O20 1.925807 1_455
Mn10 O15 1.927039 1_545
Mn10 O22 1.927921 1_555
Mn10 O17 1.954051 1_455
Mn10 O11 1.980485 1_545
Mn10 O9 1.994161 1_445
Mn11 O16 1.929493 1_555
Mn11 O25 1.929504 1_655
Mn11 O19 1.943496 1_655
Mn11 O20 1.944307 1_555
Mn11 O18 1.960077 1_555
Mn11 O22 1.963775 1_655
Mn12 O29 1.923411 1_555
Mn12 O24 1.929116 1_555
Mn12 O27 1.933665 1_555
Mn12 O31 1.949673 1_555
Mn12 O26 1.965938 1_555
Mn12 O23 1.974758 1_555
Mn13 O30 1.949107 1_555
Mn13 O21 1.974146 1_455
Mn13 O27 2.001330 1_555
Mn13 O26 2.029789 1_455
Mn13 O24 2.146083 1_455
Mn13 O29 2.150017 1_555
Mn14 O27 1.929504 1_555
Mn14 O30 1.929835 1_555
Mn14 O31 1.942930 1_555
Mn14 O26 1.955302 1_545
Mn14 O21 1.976008 1_545
Mn14 O23 1.990954 1_545
