# generated using pymatgen
data_Ca2P2H4O9
_symmetry_space_group_name_H-M   'P 1'
_cell_length_a   6.74747300
_cell_length_b   7.40705020
_cell_length_c   8.34123366
_cell_angle_alpha   85.14236247
_cell_angle_beta   77.28361138
_cell_angle_gamma   73.00554795
_symmetry_Int_Tables_number   1
_chemical_formula_structural   Ca2P2H4O9
_chemical_formula_sum   'Ca4 P4 H8 O18'
_cell_volume   388.80985280
_cell_formula_units_Z   2
loop_
 _symmetry_equiv_pos_site_id
 _symmetry_equiv_pos_as_xyz
  1  'x, y, z'
loop_
 _atom_site_type_symbol
 _atom_site_label
 _atom_site_symmetry_multiplicity
 _atom_site_fract_x
 _atom_site_fract_y
 _atom_site_fract_z
 _atom_site_occupancy
  Ca  Ca0  1  0.31050700  0.24795800  0.49508100  1
  Ca  Ca1  1  0.68949300  0.75204200  0.50491900  1
  Ca  Ca2  1  0.25721600  0.86658400  0.24461500  1
  Ca  Ca3  1  0.74278400  0.13341600  0.75538500  1
  P  P0  1  0.26127400  0.99025300  0.81271600  1
  P  P1  1  0.73872600  0.00974700  0.18728400  1
  P  P2  1  0.16661300  0.71231400  0.64401600  1
  P  P3  1  0.83338700  0.28768600  0.35598400  1
  H  H0  1  0.09838600  0.52248300  0.26215900  1
  H  H1  1  0.90161400  0.47751700  0.73784100  1
  H  H2  1  0.32766100  0.46247000  0.15075400  1
  H  H3  1  0.67233900  0.53753000  0.84924600  1
  H  H4  1  0.34221400  0.23521300  0.97647100  1
  H  H5  1  0.65778600  0.76478700  0.02352900  1
  H  H6  1  0.31740800  0.42081800  0.86640600  1
  H  H7  1  0.68259200  0.57918200  0.13359400  1
  O  O0  1  0.25377300  0.01884600  0.99178200  1
  O  O1  1  0.74622700  0.98115400  0.00821800  1
  O  O2  1  0.48006000  0.98475800  0.70140600  1
  O  O3  1  0.51994000  0.01524200  0.29859400  1
  O  O4  1  0.09280700  0.13554700  0.73604100  1
  O  O5  1  0.90719300  0.86445300  0.26395900  1
  O  O6  1  0.22297200  0.78289500  0.80545700  1
  O  O7  1  0.77702800  0.21710500  0.19454300  1
  O  O8  1  0.17864400  0.50344600  0.68131800  1
  O  O9  1  0.82135600  0.49655400  0.31868200  1
  O  O10  1  0.33936500  0.74303600  0.49931900  1
  O  O11  1  0.66063500  0.25696400  0.50068100  1
  O  O12  1  0.94286200  0.82886600  0.62822700  1
  O  O13  1  0.05713800  0.17113400  0.37177300  1
  O  O14  1  0.24954600  0.50766700  0.26208400  1
  O  O15  1  0.75045400  0.49233300  0.73791600  1
  O  O16  1  0.40832300  0.33906500  0.93734900  1
  O  O17  1  0.59167700  0.66093500  0.06265100  1
loop_
_geom_bond_atom_site_label_1
_geom_bond_atom_site_label_2
_geom_bond_distance
_geom_bond_site_symmetry_2
Ca0 O3 2.385222 1_555
Ca0 O8 2.385621 1_555
Ca0 O11 2.393569 1_555
Ca0 O13 2.397158 1_555
Ca0 O4 2.454072 1_555
Ca0 O14 2.627371 1_555
Ca0 O2 2.658235 1_545
Ca1 O2 2.385222 1_555
Ca1 O9 2.385621 1_555
Ca1 O10 2.393569 1_555
Ca1 O12 2.397158 1_555
Ca1 O5 2.454072 1_555
Ca1 O15 2.627371 1_555
Ca1 O3 2.658235 1_565
Ca2 O0 2.307283 1_564
Ca2 O5 2.336201 1_455
Ca2 O10 2.356068 1_555
Ca2 O13 2.455782 1_565
Ca2 O3 2.476719 1_565
Ca2 O17 2.567312 1_555
Ca2 O14 2.665168 1_555
Ca3 O1 2.307283 1_546
Ca3 O4 2.336201 1_655
Ca3 O11 2.356068 1_555
Ca3 O12 2.455782 1_545
Ca3 O2 2.476719 1_545
Ca3 O16 2.567312 1_555
Ca3 O15 2.665168 1_555
H0 O14 0.993296 1_555
H1 O15 0.993296 1_555
H2 O14 0.993106 1_555
H3 O15 0.993106 1_555
H4 O16 0.995578 1_555
H5 O17 0.995578 1_555
H6 O16 0.987500 1_555
H7 O17 0.987500 1_555
O0 P0 1.514060 1_545
O1 P1 1.514060 1_565
O2 P0 1.552698 1_555
O3 P1 1.552698 1_555
O4 P0 1.532245 1_545
O5 P1 1.532245 1_565
O6 P0 1.638340 1_555
O6 P2 1.640794 1_555
O7 P1 1.638340 1_555
O7 P3 1.640794 1_555
O8 P2 1.533977 1_555
O9 P3 1.533977 1_555
O10 P2 1.535055 1_555
O11 P3 1.535055 1_555
O12 P2 1.532442 1_655
O13 P3 1.532442 1_455
