# generated using pymatgen
data_Tb(BiO2)3
_symmetry_space_group_name_H-M   'P 1'
_cell_length_a   9.60853627
_cell_length_b   9.60853627
_cell_length_c   9.60853627
_cell_angle_alpha   109.47122063
_cell_angle_beta   109.47122063
_cell_angle_gamma   109.47122063
_symmetry_Int_Tables_number   1
_chemical_formula_structural   Tb(BiO2)3
_chemical_formula_sum   'Tb4 Bi12 O24'
_cell_volume   682.88851752
_cell_formula_units_Z   4
loop_
 _symmetry_equiv_pos_site_id
 _symmetry_equiv_pos_as_xyz
  1  'x, y, z'
loop_
 _atom_site_type_symbol
 _atom_site_label
 _atom_site_symmetry_multiplicity
 _atom_site_fract_x
 _atom_site_fract_y
 _atom_site_fract_z
 _atom_site_occupancy
  Tb  Tb0  1  0.00312800  0.50000000  0.00000000  1
  Tb  Tb1  1  0.50000000  0.00000000  0.00312800  1
  Tb  Tb2  1  0.49687200  0.49687200  0.49687200  1
  Tb  Tb3  1  0.00000000  0.00312800  0.50000000  1
  Bi  Bi0  1  0.96664700  0.25000000  0.21664700  1
  Bi  Bi1  1  0.71929200  0.46929200  0.25000000  1
  Bi  Bi2  1  0.78070800  0.03070800  0.75000000  1
  Bi  Bi3  1  0.75000000  0.28335300  0.53335300  1
  Bi  Bi4  1  0.75000000  0.78070800  0.03070800  1
  Bi  Bi5  1  0.53335300  0.75000000  0.28335300  1
  Bi  Bi6  1  0.46929200  0.25000000  0.71929200  1
  Bi  Bi7  1  0.25000000  0.71929200  0.46929200  1
  Bi  Bi8  1  0.25000000  0.21664700  0.96664700  1
  Bi  Bi9  1  0.28335300  0.53335300  0.75000000  1
  Bi  Bi10  1  0.21664700  0.96664700  0.25000000  1
  Bi  Bi11  1  0.03070800  0.75000000  0.78070800  1
  O  O0  1  0.01017300  0.04550200  0.27687100  1
  O  O1  1  0.76669800  0.03532900  0.48982700  1
  O  O2  1  0.73330200  0.22312900  0.26863100  1
  O  O3  1  0.98742500  0.95417600  0.71743000  1
  O  O4  1  0.51257500  0.23000500  0.96675200  1
  O  O5  1  0.76325400  0.54582400  0.53324800  1
  O  O6  1  0.73674600  0.26999500  0.78257000  1
  O  O7  1  0.45449800  0.46467100  0.23136900  1
  O  O8  1  0.46467100  0.23136900  0.45449800  1
  O  O9  1  0.78257000  0.73674600  0.26999500  1
  O  O10  1  0.71743000  0.98742500  0.95417600  1
  O  O11  1  0.23000500  0.96675200  0.51257500  1
  O  O12  1  0.48982700  0.76669800  0.03532900  1
  O  O13  1  0.26863100  0.73330200  0.22312900  1
  O  O14  1  0.23136900  0.45449800  0.46467100  1
  O  O15  1  0.54582400  0.53324800  0.76325400  1
  O  O16  1  0.96675200  0.51257500  0.23000500  1
  O  O17  1  0.53324800  0.76325400  0.54582400  1
  O  O18  1  0.27687100  0.01017300  0.04550200  1
  O  O19  1  0.22312900  0.26863100  0.73330200  1
  O  O20  1  0.04550200  0.27687100  0.01017300  1
  O  O21  1  0.03532900  0.48982700  0.76669800  1
  O  O22  1  0.26999500  0.78257000  0.73674600  1
  O  O23  1  0.95417600  0.71743000  0.98742500  1
loop_
_geom_bond_atom_site_label_1
_geom_bond_atom_site_label_2
_geom_bond_distance
_geom_bond_site_symmetry_2
Bi0 O14 2.348452 1_655
Bi0 O0 2.348452 1_655
Bi0 O20 2.406208 1_655
Bi0 O2 2.406208 1_555
Bi0 O16 2.482769 1_555
Bi0 O10 2.482773 1_544
Bi1 O9 2.358387 1_555
Bi1 O16 2.358396 1_555
Bi1 O5 2.412166 1_555
Bi1 O4 2.412170 1_554
Bi1 O2 2.474497 1_555
Bi1 O7 2.474497 1_555
Bi2 O10 2.358387 1_545
Bi2 O17 2.358390 1_545
Bi2 O6 2.412175 1_555
Bi2 O3 2.412175 1_545
Bi2 O1 2.474497 1_555
Bi2 O20 2.474497 1_656
Bi3 O2 2.348452 1_555
Bi3 O1 2.348452 1_555
Bi3 O21 2.406208 1_655
Bi3 O8 2.406208 1_555
Bi3 O6 2.482773 1_555
Bi3 O5 2.482776 1_555
Bi4 O23 2.358387 1_554
Bi4 O15 2.358390 1_554
Bi4 O9 2.412175 1_555
Bi4 O10 2.412175 1_554
Bi4 O12 2.474497 1_555
Bi4 O0 2.474497 1_665
Bi5 O13 2.348452 1_555
Bi5 O12 2.348452 1_555
Bi5 O1 2.406208 1_565
Bi5 O7 2.406208 1_555
Bi5 O9 2.482773 1_555
Bi5 O17 2.482776 1_555
Bi6 O6 2.358387 1_555
Bi6 O4 2.358396 1_555
Bi6 O15 2.412166 1_555
Bi6 O11 2.412170 1_545
Bi6 O19 2.474497 1_555
Bi6 O8 2.474497 1_555
Bi7 O22 2.358387 1_555
Bi7 O11 2.358396 1_555
Bi7 O17 2.412166 1_555
Bi7 O16 2.412170 1_455
Bi7 O13 2.474497 1_555
Bi7 O14 2.474497 1_555
Bi8 O7 2.348452 1_556
Bi8 O20 2.348452 1_556
Bi8 O18 2.406208 1_556
Bi8 O19 2.406208 1_555
Bi8 O4 2.482769 1_555
Bi8 O3 2.482773 1_445
Bi9 O19 2.348452 1_555
Bi9 O21 2.348452 1_555
Bi9 O14 2.406208 1_555
Bi9 O12 2.406208 1_556
Bi9 O22 2.482773 1_555
Bi9 O15 2.482776 1_555
Bi10 O8 2.348452 1_565
Bi10 O18 2.348452 1_565
Bi10 O0 2.406208 1_565
Bi10 O13 2.406208 1_555
Bi10 O11 2.482769 1_555
Bi10 O23 2.482773 1_454
Bi11 O3 2.358387 1_455
Bi11 O5 2.358390 1_455
Bi11 O22 2.412175 1_555
Bi11 O23 2.412175 1_455
Bi11 O21 2.474497 1_555
Bi11 O18 2.474497 1_566
O0 Tb3 2.338148 1_555
O1 Tb3 2.338148 1_655
O2 Tb1 2.338148 1_555
O3 Tb3 2.320783 1_665
O4 Tb1 2.320778 1_556
O5 Tb2 2.320785 1_555
O6 Tb0 2.320783 1_656
O7 Tb2 2.338148 1_555
O8 Tb2 2.338148 1_555
O9 Tb3 2.320783 1_665
O10 Tb1 2.320783 1_566
O11 Tb3 2.320778 1_565
O12 Tb1 2.338148 1_565
O13 Tb0 2.338148 1_555
O14 Tb2 2.338148 1_555
O15 Tb2 2.320785 1_555
O16 Tb0 2.320778 1_655
O17 Tb2 2.320785 1_555
O18 Tb1 2.338148 1_555
O19 Tb3 2.338148 1_555
O20 Tb0 2.338148 1_555
O21 Tb0 2.338148 1_556
O22 Tb1 2.320783 1_566
O23 Tb0 2.320783 1_656
