# generated using pymatgen
data_VOF2
_symmetry_space_group_name_H-M   'P 1'
_cell_length_a   5.05185282
_cell_length_b   5.05723862
_cell_length_c   13.16344999
_cell_angle_alpha   89.47330044
_cell_angle_beta   89.89648719
_cell_angle_gamma   60.51454944
_symmetry_Int_Tables_number   1
_chemical_formula_structural   VOF2
_chemical_formula_sum   'V6 O6 F12'
_cell_volume   292.73358299
_cell_formula_units_Z   6
loop_
 _symmetry_equiv_pos_site_id
 _symmetry_equiv_pos_as_xyz
  1  'x, y, z'
loop_
 _atom_site_type_symbol
 _atom_site_label
 _atom_site_symmetry_multiplicity
 _atom_site_fract_x
 _atom_site_fract_y
 _atom_site_fract_z
 _atom_site_occupancy
  V  V0  1  0.96803524  -0.00024642  0.50706039  1
  V  V1  1  0.00340520  0.97041861  0.00839476  1
  V  V2  1  0.70130608  0.63862751  0.17226789  1
  V  V3  1  0.31816705  0.31087289  0.33810614  1
  V  V4  1  0.65916016  0.64165521  0.67472884  1
  V  V5  1  0.30975941  0.32348764  0.84264562  1
  O  O0  1  -0.00525420  0.41181155  0.24656514  1
  O  O1  1  0.91935654  0.74843631  0.08096869  1
  O  O2  1  0.25526861  0.09299245  0.41503135  1
  O  O3  1  0.58890601  0.42179309  0.74847648  1
  O  O4  1  0.75141169  0.92963732  0.58220493  1
  O  O5  1  0.09274735  0.25119160  0.91789405  1
  F  F0  1  0.60481445  0.00546667  0.24891804  1
  F  F1  1  0.94807156  0.33578995  0.58422462  1
  F  F2  1  0.69340503  0.04768508  0.90613869  1
  F  F3  1  0.71813987  0.34026402  0.07841309  1
  F  F4  1  0.66119042  0.28867161  0.41533519  1
  F  F5  1  0.99660606  0.61743186  0.75290219  1
  F  F6  1  0.38354778  0.01978408  0.74124015  1
  F  F7  1  0.39863144  0.59885765  0.24815749  1
  F  F8  1  0.34961015  0.72469598  0.57404674  1
  F  F9  1  0.29529372  0.65417348  0.91993157  1
  F  F10  1  0.33427606  0.93624440  0.08839699  1
  F  F11  1  0.05414131  0.69025947  0.40795299  1
loop_
_geom_bond_atom_site_label_1
_geom_bond_atom_site_label_2
_geom_bond_distance
_geom_bond_site_symmetry_2
O0 V2 1.667487 1_455
O0 V3 1.885978 1_555
O1 V1 1.673693 1_655
O1 V2 1.884492 1_555
O2 V3 1.632005 1_555
O2 V0 2.110013 1_455
O3 V4 1.634643 1_555
O3 V5 2.108303 1_555
O4 V0 1.635059 1_565
O4 V4 2.110719 1_555
O5 V5 1.643388 1_555
O5 V1 2.058390 1_546
F0 V3 1.919976 1_555
F0 V2 1.959542 1_545
F1 V4 1.935820 1_555
F1 V0 1.947454 1_555
F2 V5 1.929665 1_555
F2 V1 1.952601 1_646
F3 V2 1.928190 1_555
F3 V1 1.948890 1_645
F4 V0 1.934006 1_555
F4 V3 1.965140 1_555
F5 V5 1.941011 1_655
F5 V4 1.943823 1_555
F6 V5 1.937021 1_555
F6 V4 1.940965 1_545
F7 V2 1.915715 1_555
F7 V3 2.058554 1_555
F8 V4 1.931085 1_555
F8 V0 1.942250 1_465
F9 V5 1.935930 1_555
F9 V1 1.948005 1_556
F10 V1 1.910886 1_555
F10 V2 2.037612 1_555
F11 V0 1.925164 1_465
F11 V3 1.953051 1_555
