# generated using pymatgen
data_Ca(ClO3)2
_symmetry_space_group_name_H-M   'P 1'
_cell_length_a   8.24860587
_cell_length_b   6.97651353
_cell_length_c   6.71521445
_cell_angle_alpha   74.07413894
_cell_angle_beta   54.41073809
_cell_angle_gamma   51.52227504
_symmetry_Int_Tables_number   1
_chemical_formula_structural   Ca(ClO3)2
_chemical_formula_sum   'Ca2 Cl4 O12'
_cell_volume   243.66784017
_cell_formula_units_Z   2
loop_
 _symmetry_equiv_pos_site_id
 _symmetry_equiv_pos_as_xyz
  1  'x, y, z'
loop_
 _atom_site_type_symbol
 _atom_site_label
 _atom_site_symmetry_multiplicity
 _atom_site_fract_x
 _atom_site_fract_y
 _atom_site_fract_z
 _atom_site_occupancy
  Ca  Ca0  1  0.00304636  0.49695490  0.49702122  1
  Ca  Ca1  1  0.75304841  0.24691671  0.24697623  1
  Cl  Cl0  1  0.40169847  0.63717973  0.98730948  1
  Cl  Cl1  1  0.61269398  0.84826316  0.27618349  1
  Cl  Cl2  1  0.26283945  0.27611448  0.84840315  1
  Cl  Cl3  1  0.97378573  0.98736429  0.63706337  1
  O  O0  1  0.37078240  0.52001613  0.22102178  1
  O  O1  1  0.17924147  0.89498532  0.06920972  1
  O  O2  1  0.61127294  0.64471298  0.89035688  1
  O  O3  1  0.60496810  0.63883429  0.39640212  1
  O  O4  1  0.02919808  0.36153246  0.87923668  1
  O  O5  1  0.35496330  0.07091551  0.39339858  1
  O  O6  1  0.18088314  0.39332200  0.07093927  1
  O  O7  1  0.73022028  0.87897212  0.36150928  1
  O  O8  1  0.35971812  0.39632010  0.63891786  1
  O  O9  1  0.85366248  0.89045451  0.64445331  1
  O  O10  1  0.85653689  0.06922082  0.89492547  1
  O  O11  1  0.88828440  0.22107848  0.51982811  1
loop_
_geom_bond_atom_site_label_1
_geom_bond_atom_site_label_2
_geom_bond_distance
_geom_bond_site_symmetry_2
Ca0 O6 2.406533 1_555
Ca0 O5 2.406678 1_555
Ca0 O2 2.428195 1_455
Ca0 O9 2.428379 1_455
Ca0 O11 2.561365 1_455
Ca0 O0 2.561640 1_555
Ca0 O7 2.566028 1_455
Ca0 O4 2.566502 1_555
Ca1 O1 2.407228 1_645
Ca1 O10 2.407702 1_554
Ca1 O3 2.428541 1_555
Ca1 O8 2.428593 1_555
Ca1 O4 2.561624 1_654
Ca1 O7 2.562382 1_545
Ca1 O11 2.565447 1_555
Ca1 O0 2.565983 1_555
Cl0 O1 1.471623 1_556
Cl0 O2 1.483010 1_555
Cl0 O0 1.511893 1_556
Cl1 O5 1.471676 1_565
Cl1 O3 1.482980 1_555
Cl1 O7 1.512067 1_555
Cl2 O6 1.471613 1_556
Cl2 O8 1.482860 1_555
Cl2 O4 1.512030 1_555
Cl3 O10 1.471749 1_565
Cl3 O9 1.483019 1_555
Cl3 O11 1.512131 1_565
