# generated using pymatgen
data_Li4CuNi3(PO4)4
_symmetry_space_group_name_H-M   'P 1'
_cell_length_a   5.96208400
_cell_length_b   4.72453900
_cell_length_c   10.06377143
_cell_angle_alpha   89.21587545
_cell_angle_beta   90.00000000
_cell_angle_gamma   90.00000000
_symmetry_Int_Tables_number   1
_chemical_formula_structural   Li4CuNi3(PO4)4
_chemical_formula_sum   'Li4 Cu1 Ni3 P4 O16'
_cell_volume   283.45075725
_cell_formula_units_Z   1
loop_
 _symmetry_equiv_pos_site_id
 _symmetry_equiv_pos_as_xyz
  1  'x, y, z'
loop_
 _atom_site_type_symbol
 _atom_site_label
 _atom_site_symmetry_multiplicity
 _atom_site_fract_x
 _atom_site_fract_y
 _atom_site_fract_z
 _atom_site_occupancy
  Li  Li0  1  0.24972400  0.00283300  0.99793700  1
  Li  Li1  1  0.75027600  0.00283300  0.99793700  1
  Li  Li2  1  0.75192800  0.49918900  0.50050200  1
  Li  Li3  1  0.24807200  0.49918900  0.50050200  1
  Cu  Cu0  1  0.50000000  0.95350200  0.71756600  1
  Ni  Ni0  1  0.00000000  0.02019500  0.27493200  1
  Ni  Ni1  1  0.00000000  0.48093100  0.77832600  1
  Ni  Ni2  1  0.50000000  0.52126300  0.22363800  1
  P  P0  1  0.50000000  0.08019200  0.40591900  1
  P  P1  1  0.50000000  0.41625100  0.90384800  1
  P  P2  1  0.00000000  0.58600000  0.09482500  1
  P  P3  1  0.00000000  0.91837300  0.59372000  1
  O  O0  1  0.50000000  0.19075000  0.55169200  1
  O  O1  1  0.29401000  0.22481700  0.33600100  1
  O  O2  1  0.70599000  0.22481700  0.33600100  1
  O  O3  1  0.00000000  0.24160600  0.59855900  1
  O  O4  1  0.00000000  0.26183700  0.10087300  1
  O  O5  1  0.29058400  0.28244000  0.83691000  1
  O  O6  1  0.70941600  0.28244000  0.83691000  1
  O  O7  1  0.50000000  0.30376000  0.04988900  1
  O  O8  1  0.00000000  0.70623800  0.95107600  1
  O  O9  1  0.79404500  0.72589900  0.16620400  1
  O  O10  1  0.20595500  0.72589900  0.16620400  1
  O  O11  1  0.50000000  0.74528700  0.89609400  1
  O  O12  1  0.50000000  0.75639700  0.40106200  1
  O  O13  1  0.79641800  0.77320500  0.66613500  1
  O  O14  1  0.20358200  0.77320500  0.66613500  1
  O  O15  1  0.00000000  0.80065300  0.45060000  1
loop_
_geom_bond_atom_site_label_1
_geom_bond_atom_site_label_2
_geom_bond_distance
_geom_bond_site_symmetry_2
Li0 O5 2.090928 1_555
Li0 O8 2.102573 1_545
Li0 O7 2.131105 1_556
Li0 O10 2.141713 1_546
Li0 O11 2.189003 1_545
Li0 O4 2.195897 1_556
Li1 O6 2.090928 1_555
Li1 O8 2.102573 1_645
Li1 O7 2.131105 1_556
Li1 O9 2.141713 1_546
Li1 O11 2.189003 1_545
Li1 O4 2.195897 1_656
Li2 O15 2.109198 1_655
Li2 O2 2.134192 1_555
Li2 O13 2.141014 1_555
Li2 O3 2.146966 1_655
Li2 O0 2.150447 1_555
Li2 O12 2.168164 1_555
Li3 O15 2.109198 1_555
Li3 O1 2.134192 1_555
Li3 O14 2.141014 1_555
Li3 O3 2.146966 1_555
Li3 O0 2.150447 1_555
Li3 O12 2.168164 1_555
Cu0 O0 1.997949 1_565
Cu0 O14 2.031946 1_555
Cu0 O13 2.031946 1_555
Cu0 O11 2.036501 1_555
Cu0 O5 2.338304 1_565
Cu0 O6 2.338304 1_565
Ni0 O15 2.037419 1_545
Ni0 O4 2.077749 1_555
Ni0 O2 2.097921 1_455
Ni0 O1 2.097921 1_555
Ni0 O9 2.163327 1_445
Ni0 O10 2.163327 1_545
Ni1 O8 2.050900 1_555
Ni1 O6 2.052658 1_455
Ni1 O5 2.052658 1_555
Ni1 O3 2.146494 1_555
Ni1 O13 2.147588 1_455
Ni1 O14 2.147588 1_555
Ni2 O7 2.040255 1_555
Ni2 O9 2.080132 1_555
Ni2 O10 2.080132 1_555
Ni2 O12 2.115796 1_555
Ni2 O1 2.169159 1_555
Ni2 O2 2.169159 1_555
O0 P0 1.563961 1_555
O1 P0 1.567524 1_555
O2 P0 1.567524 1_555
O3 P3 1.528569 1_545
O4 P2 1.531897 1_555
O5 P1 1.556927 1_555
O6 P1 1.556927 1_555
O7 P1 1.556009 1_554
O8 P2 1.546941 1_556
O9 P2 1.572789 1_655
O10 P2 1.572789 1_555
O11 P1 1.555434 1_555
O12 P0 1.531231 1_565
O13 P3 1.568777 1_655
O14 P3 1.568777 1_555
O15 P3 1.551063 1_555
