# generated using pymatgen
data_LiV5F11
_symmetry_space_group_name_H-M   'P 1'
_cell_length_a   14.44447100
_cell_length_b   8.22760100
_cell_length_c   10.84862466
_cell_angle_alpha   50.93424460
_cell_angle_beta   90.00000000
_cell_angle_gamma   90.00000000
_symmetry_Int_Tables_number   1
_chemical_formula_structural   LiV5F11
_chemical_formula_sum   'Li4 V20 F44'
_cell_volume   1001.03222346
_cell_formula_units_Z   4
loop_
 _symmetry_equiv_pos_site_id
 _symmetry_equiv_pos_as_xyz
  1  'x, y, z'
loop_
 _atom_site_type_symbol
 _atom_site_label
 _atom_site_symmetry_multiplicity
 _atom_site_fract_x
 _atom_site_fract_y
 _atom_site_fract_z
 _atom_site_occupancy
  Li  Li0  1  0.93593000  0.25832200  0.61057000  1
  Li  Li1  1  0.43593000  0.74167800  0.88943000  1
  Li  Li2  1  0.56407000  0.25832200  0.11057000  1
  Li  Li3  1  0.06407000  0.74167800  0.38943000  1
  V  V0  1  0.82800600  0.72752000  0.54787900  1
  V  V1  1  0.32467200  0.50579400  0.57360900  1
  V  V2  1  0.17521400  0.76217900  0.69552300  1
  V  V3  1  0.50425500  0.53619100  0.72800900  1
  V  V4  1  0.66314800  0.98376200  0.66025700  1
  V  V5  1  0.00425500  0.46380900  0.77199100  1
  V  V6  1  0.67521400  0.23782100  0.80447700  1
  V  V7  1  0.82467200  0.49420600  0.92639100  1
  V  V8  1  0.16314800  0.01623800  0.83974300  1
  V  V9  1  0.32800600  0.27248000  0.95212100  1
  V  V10  1  0.67199400  0.72752000  0.04787900  1
  V  V11  1  0.83685200  0.98376200  0.16025700  1
  V  V12  1  0.17532800  0.50579400  0.07360900  1
  V  V13  1  0.32478600  0.76217900  0.19552300  1
  V  V14  1  0.99574500  0.53619100  0.22800900  1
  V  V15  1  0.33685200  0.01623800  0.33974300  1
  V  V16  1  0.49574500  0.46380900  0.27199100  1
  V  V17  1  0.82478600  0.23782100  0.30447700  1
  V  V18  1  0.67532800  0.49420600  0.42639100  1
  V  V19  1  0.17199400  0.27248000  0.45212100  1
  F  F0  1  0.40963000  0.74420600  0.53398400  1
  F  F1  1  0.08333500  0.71102300  0.57276400  1
  F  F2  1  0.25263300  0.01928600  0.50042200  1
  F  F3  1  0.59870500  0.48135300  0.60177000  1
  F  F4  1  0.91720000  0.48792200  0.60303400  1
  F  F5  1  0.55881200  0.78152600  0.70992600  1
  F  F6  1  0.24119100  0.25699800  0.63178600  1
  F  F7  1  0.90868700  0.70033900  0.72553700  1
  F  F8  1  0.74706500  0.22898300  0.63260000  1
  F  F9  1  0.25346700  0.51051000  0.74315000  1
  F  F10  1  0.75346700  0.48949000  0.75685000  1
  F  F11  1  0.10116900  0.01579900  0.65924400  1
  F  F12  1  0.40868700  0.29966100  0.77446300  1
  F  F13  1  0.05881200  0.21847400  0.79007400  1
  F  F14  1  0.41720000  0.51207800  0.89696600  1
  F  F15  1  0.09870500  0.51864700  0.89823000  1
  F  F16  1  0.60116900  0.98420100  0.84075600  1
  F  F17  1  0.58333500  0.28897700  0.92723600  1
  F  F18  1  0.90963000  0.25579400  0.96601600  1
  F  F19  1  0.24706500  0.77101700  0.86740000  1
  F  F20  1  0.74119100  0.74300200  0.86821400  1
  F  F21  1  0.75263300  0.98071400  0.99957800  1
  F  F22  1  0.24736700  0.01928600  0.00042200  1
  F  F23  1  0.25880900  0.25699800  0.13178600  1
  F  F24  1  0.75293500  0.22898300  0.13260000  1
  F  F25  1  0.09037000  0.74420600  0.03398400  1
  F  F26  1  0.41666500  0.71102300  0.07276400  1
  F  F27  1  0.39883100  0.01579900  0.15924400  1
  F  F28  1  0.90129500  0.48135300  0.10177000  1
  F  F29  1  0.58280000  0.48792200  0.10303400  1
  F  F30  1  0.94118800  0.78152600  0.20992600  1
  F  F31  1  0.59131300  0.70033900  0.22553700  1
  F  F32  1  0.89883100  0.98420100  0.34075600  1
  F  F33  1  0.24653300  0.51051000  0.24315000  1
  F  F34  1  0.74653300  0.48949000  0.25685000  1
  F  F35  1  0.25293500  0.77101700  0.36740000  1
  F  F36  1  0.09131300  0.29966100  0.27446300  1
  F  F37  1  0.75880900  0.74300200  0.36821400  1
  F  F38  1  0.44118800  0.21847400  0.29007400  1
  F  F39  1  0.08280000  0.51207800  0.39696600  1
  F  F40  1  0.40129500  0.51864700  0.39823000  1
  F  F41  1  0.74736700  0.98071400  0.49957800  1
  F  F42  1  0.91666500  0.28897700  0.42723600  1
  F  F43  1  0.59037000  0.25579400  0.46601600  1
loop_
_geom_bond_atom_site_label_1
_geom_bond_atom_site_label_2
_geom_bond_distance
_geom_bond_site_symmetry_2
F0 V1 2.115570 1_555
F0 V15 2.147177 1_565
F0 V3 2.165008 1_555
F1 Li3 1.861338 1_555
F1 V2 2.102038 1_555
F1 V5 2.138285 1_555
F2 V2 2.135858 1_545
F2 V15 2.138728 1_555
F2 V19 2.143614 1_555
F3 V6 2.125626 1_555
F3 V18 2.145346 1_555
F3 V3 2.172381 1_555
F4 Li0 1.858428 1_555
F4 V0 2.101728 1_555
F4 V5 2.126485 1_655
F5 V4 2.049433 1_555
F5 V3 2.057866 1_555
F5 Li1 2.499105 1_555
F6 V1 2.100995 1_555
F6 V19 2.121646 1_555
F6 V8 2.156764 1_555
F7 V7 2.106924 1_555
F7 V0 2.139987 1_555
F7 V5 2.170394 1_655
F8 V18 2.164968 1_555
F8 V6 2.174893 1_555
F8 V4 2.206111 1_545
F9 V2 2.117457 1_555
F9 V1 2.128916 1_555
F9 V9 2.130275 1_555
F10 V6 2.117457 1_555
F10 V7 2.128916 1_555
F10 V0 2.130275 1_555
F11 V19 2.138788 1_555
F11 V2 2.148935 1_545
F11 V8 2.155185 1_555
F12 V1 2.106924 1_555
F12 V9 2.139987 1_555
F12 V3 2.170394 1_555
F13 V8 2.049433 1_555
F13 V5 2.057866 1_555
F13 Li0 2.499105 1_455
F14 Li1 1.858428 1_555
F14 V9 2.101728 1_555
F14 V3 2.126485 1_555
F15 V2 2.125626 1_555
F15 V12 2.145346 1_556
F15 V5 2.172381 1_555
F16 V10 2.138788 1_556
F16 V6 2.148935 1_565
F16 V4 2.155185 1_555
F17 Li2 1.861338 1_556
F17 V6 2.102038 1_555
F17 V3 2.138285 1_555
F18 V7 2.115570 1_555
F18 V11 2.147177 1_546
F18 V5 2.165008 1_655
F19 V12 2.164968 1_556
F19 V2 2.174893 1_555
F19 V8 2.206111 1_565
F20 V7 2.100995 1_555
F20 V10 2.121646 1_556
F20 V4 2.156764 1_555
F21 V6 2.135858 1_565
F21 V11 2.138728 1_556
F21 V10 2.143614 1_556
F22 V13 2.135858 1_545
F22 V8 2.138728 1_554
F22 V9 2.143614 1_554
F23 V12 2.100995 1_555
F23 V9 2.121646 1_554
F23 V15 2.156764 1_555
F24 V7 2.164968 1_554
F24 V17 2.174893 1_555
F24 V11 2.206111 1_545
F25 V12 2.115570 1_555
F25 V8 2.147177 1_564
F25 V14 2.165008 1_455
F26 Li1 1.861338 1_554
F26 V13 2.102038 1_555
F26 V16 2.138285 1_555
F27 V9 2.138788 1_554
F27 V13 2.148935 1_545
F27 V15 2.155185 1_555
F28 V17 2.125626 1_555
F28 V7 2.145346 1_554
F28 V14 2.172381 1_555
F29 Li2 1.858428 1_555
F29 V10 2.101728 1_555
F29 V16 2.126485 1_555
F30 V11 2.049433 1_555
F30 V14 2.057866 1_555
F30 Li3 2.499105 1_655
F31 V18 2.106924 1_555
F31 V10 2.139987 1_555
F31 V16 2.170394 1_555
F32 V0 2.138788 1_555
F32 V17 2.148935 1_565
F32 V11 2.155185 1_555
F33 V13 2.117457 1_555
F33 V12 2.128916 1_555
F33 V19 2.130275 1_555
F34 V17 2.117457 1_555
F34 V18 2.128916 1_555
F34 V10 2.130275 1_555
F35 V1 2.164968 1_555
F35 V13 2.174893 1_555
F35 V15 2.206111 1_565
F36 V12 2.106924 1_555
F36 V19 2.139987 1_555
F36 V14 2.170394 1_455
F37 V18 2.100995 1_555
F37 V0 2.121646 1_555
F37 V11 2.156764 1_555
F38 V15 2.049433 1_555
F38 V16 2.057866 1_555
F38 Li2 2.499105 1_555
F39 Li3 1.858428 1_555
F39 V19 2.101728 1_555
F39 V14 2.126485 1_455
F40 V13 2.125626 1_555
F40 V1 2.145346 1_555
F40 V16 2.172381 1_555
F41 V17 2.135858 1_565
F41 V4 2.138728 1_555
F41 V0 2.143614 1_555
F42 Li0 1.861338 1_555
F42 V17 2.102038 1_555
F42 V14 2.138285 1_555
F43 V18 2.115570 1_555
F43 V4 2.147177 1_545
F43 V16 2.165008 1_555
