# generated using pymatgen
data_HoBiO3
_symmetry_space_group_name_H-M   'P 1'
_cell_length_a   6.12732323
_cell_length_b   6.12732323
_cell_length_c   6.12732411
_cell_angle_alpha   58.51664743
_cell_angle_beta   58.51664743
_cell_angle_gamma   58.51664936
_symmetry_Int_Tables_number   1
_chemical_formula_structural   HoBiO3
_chemical_formula_sum   'Ho2 Bi2 O6'
_cell_volume   157.14701425
_cell_formula_units_Z   2
loop_
 _symmetry_equiv_pos_site_id
 _symmetry_equiv_pos_as_xyz
  1  'x, y, z'
loop_
 _atom_site_type_symbol
 _atom_site_label
 _atom_site_symmetry_multiplicity
 _atom_site_fract_x
 _atom_site_fract_y
 _atom_site_fract_z
 _atom_site_occupancy
  Ho  Ho0  1  0.85815000  0.85815000  0.85815000  1
  Ho  Ho1  1  0.14185000  0.14185000  0.14185000  1
  Bi  Bi0  1  0.64341500  0.64341500  0.64341500  1
  Bi  Bi1  1  0.35658500  0.35658500  0.35658500  1
  O  O0  1  0.21853400  0.54415500  0.98780600  1
  O  O1  1  0.01219400  0.78146600  0.45584500  1
  O  O2  1  0.45584500  0.01219400  0.78146600  1
  O  O3  1  0.54415500  0.98780600  0.21853400  1
  O  O4  1  0.98780600  0.21853400  0.54415500  1
  O  O5  1  0.78146600  0.45584500  0.01219400  1
loop_
_geom_bond_atom_site_label_1
_geom_bond_atom_site_label_2
_geom_bond_distance
_geom_bond_site_symmetry_2
Ho0 O4 2.237672 1_565
Ho0 O0 2.237672 1_655
Ho0 O3 2.237672 1_556
Ho0 O5 2.346162 1_556
Ho0 O2 2.346162 1_565
Ho0 O1 2.346162 1_655
Ho1 O1 2.237672 1_545
Ho1 O5 2.237672 1_455
Ho1 O2 2.237672 1_554
Ho1 O0 2.346162 1_554
Ho1 O3 2.346162 1_545
Ho1 O4 2.346162 1_455
Bi0 O1 2.326106 1_655
Bi0 O2 2.326106 1_565
Bi0 O5 2.326106 1_556
Bi0 O0 2.485078 1_555
Bi0 O4 2.485078 1_555
Bi0 O3 2.485079 1_555
Bi1 O4 2.326106 1_455
Bi1 O3 2.326106 1_545
Bi1 O0 2.326106 1_554
Bi1 O5 2.485078 1_555
Bi1 O1 2.485078 1_555
Bi1 O2 2.485079 1_555
