# generated using pymatgen
data_Li4Ti3Nb2Fe3O16
_symmetry_space_group_name_H-M   'P 1'
_cell_length_a   5.99242590
_cell_length_b   19.80300363
_cell_length_c   6.09403788
_cell_angle_alpha   90.88196569
_cell_angle_beta   119.45284049
_cell_angle_gamma   90.01290309
_symmetry_Int_Tables_number   1
_chemical_formula_structural   Li4Ti3Nb2Fe3O16
_chemical_formula_sum   'Li8 Ti6 Nb4 Fe6 O32'
_cell_volume   629.60599818
_cell_formula_units_Z   2
loop_
 _symmetry_equiv_pos_site_id
 _symmetry_equiv_pos_as_xyz
  1  'x, y, z'
loop_
 _atom_site_type_symbol
 _atom_site_label
 _atom_site_symmetry_multiplicity
 _atom_site_fract_x
 _atom_site_fract_y
 _atom_site_fract_z
 _atom_site_occupancy
  Li  Li0  1  0.66321200  0.45245700  0.32627700  1
  Li  Li1  1  0.66321700  0.95246100  0.32624900  1
  Li  Li2  1  0.00183900  0.49308300  0.00408500  1
  Li  Li3  1  0.00188100  0.99308300  0.00410700  1
  Li  Li4  1  0.00338100  0.24658200  0.00666700  1
  Li  Li5  1  0.00339000  0.74658200  0.00667800  1
  Li  Li6  1  0.33142800  0.20404700  0.66308000  1
  Li  Li7  1  0.33147100  0.70405100  0.66308800  1
  Ti  Ti0  1  0.17738600  0.36722000  0.35446500  1
  Ti  Ti1  1  0.17745900  0.86722000  0.35447600  1
  Ti  Ti2  1  0.84431400  0.11006100  0.18976600  1
  Ti  Ti3  1  0.84433800  0.61005400  0.18990400  1
  Ti  Ti4  1  0.34573600  0.10979700  0.19092900  1
  Ti  Ti5  1  0.34560500  0.60981300  0.19076600  1
  Nb  Nb0  1  0.66601200  0.24946800  0.33219100  1
  Nb  Nb1  1  0.66607800  0.74946900  0.33222100  1
  Nb  Nb2  1  0.35152400  0.49375100  0.70335600  1
  Nb  Nb3  1  0.35141300  0.99374400  0.70331300  1
  Fe  Fe0  1  0.83005100  0.60501400  0.66030500  1
  Fe  Fe1  1  0.66271900  0.85383100  0.83060400  1
  Fe  Fe2  1  0.16784400  0.85385700  0.83053700  1
  Fe  Fe3  1  0.82984300  0.10500800  0.66034700  1
  Fe  Fe4  1  0.66273500  0.35383200  0.83059300  1
  Fe  Fe5  1  0.16780400  0.35386100  0.83051900  1
  O  O0  1  0.52079500  0.16692900  0.04104300  1
  O  O1  1  0.52075300  0.66693200  0.04104600  1
  O  O2  1  0.64861000  0.05377300  0.29676200  1
  O  O3  1  0.64852000  0.55377500  0.29673200  1
  O  O4  1  0.00906700  0.15231600  0.01797000  1
  O  O5  1  0.00908100  0.65231900  0.01796700  1
  O  O6  1  0.00773400  0.39910100  0.01540600  1
  O  O7  1  0.00774000  0.89910300  0.01542700  1
  O  O8  1  0.16286700  0.05235600  0.32523900  1
  O  O9  1  0.16278300  0.55235700  0.32523800  1
  O  O10  1  0.83142000  0.28642000  0.66281500  1
  O  O11  1  0.83143200  0.78641500  0.66286700  1
  O  O12  1  0.31812300  0.30629100  0.63631500  1
  O  O13  1  0.31817300  0.80629900  0.63646500  1
  O  O14  1  0.47979500  0.42885800  0.95938200  1
  O  O15  1  0.47984000  0.92885500  0.95934000  1
  O  O16  1  0.83906600  0.29442400  0.18256400  1
  O  O17  1  0.83909300  0.79442900  0.18261000  1
  O  O18  1  0.34356800  0.29449500  0.18253200  1
  O  O19  1  0.34355400  0.79447300  0.18261400  1
  O  O20  1  0.96184100  0.16888600  0.46410600  1
  O  O21  1  0.96193100  0.66896500  0.46395000  1
  O  O22  1  0.50149600  0.16912000  0.46355800  1
  O  O23  1  0.50174600  0.66905000  0.46370800  1
  O  O24  1  0.46400800  0.42504000  0.49478200  1
  O  O25  1  0.46403000  0.92502400  0.49469200  1
  O  O26  1  0.03093900  0.42507800  0.49473600  1
  O  O27  1  0.03096800  0.92509600  0.49472200  1
  O  O28  1  0.66706500  0.04586600  0.83500400  1
  O  O29  1  0.66702400  0.54585800  0.83510900  1
  O  O30  1  0.16851100  0.04578700  0.83543100  1
  O  O31  1  0.16834400  0.54580700  0.83535000  1
loop_
_geom_bond_atom_site_label_1
_geom_bond_atom_site_label_2
_geom_bond_distance
_geom_bond_site_symmetry_2
Li0 O14 1.994105 1_554
Li0 O24 1.999138 1_555
Li0 O26 1.999157 1_655
Li0 O3 2.015298 1_555
Li1 O15 1.994208 1_554
Li1 O25 1.998855 1_555
Li1 O27 1.999199 1_655
Li1 O2 2.015150 1_565
Li2 O6 1.863165 1_555
Li2 O29 2.044598 1_454
Li2 O31 2.045624 1_554
Li2 O9 2.052029 1_555
Li3 O7 1.863125 1_555
Li3 O28 2.044708 1_464
Li3 O30 2.045700 1_564
Li3 O8 2.051927 1_565
Li4 O4 1.868780 1_555
Li4 O10 2.000731 1_454
Li4 O16 2.005805 1_455
Li4 O18 2.005947 1_555
Li5 O5 1.868717 1_555
Li5 O11 2.000491 1_454
Li5 O19 2.005653 1_555
Li5 O17 2.005934 1_455
Li6 O12 2.032234 1_555
Li6 O22 2.046562 1_555
Li6 O20 2.047558 1_455
Li6 O0 2.148347 1_556
Li7 O13 2.032248 1_555
Li7 O21 2.046900 1_455
Li7 O23 2.047303 1_555
Li7 O1 2.148328 1_556
Nb0 O10 1.888866 1_555
Nb0 O18 1.911322 1_555
Nb0 O16 1.911512 1_555
Nb0 O22 2.226911 1_555
Nb0 O0 2.229047 1_555
Nb0 O20 2.230383 1_555
Nb1 O11 1.888930 1_555
Nb1 O17 1.911295 1_555
Nb1 O19 1.911482 1_555
Nb1 O23 2.227671 1_555
Nb1 O1 2.229115 1_555
Nb1 O21 2.229381 1_555
Nb2 O14 1.886626 1_555
Nb2 O31 1.938538 1_555
Nb2 O29 1.940269 1_555
Nb2 O26 2.167956 1_555
Nb2 O24 2.170510 1_555
Nb2 O9 2.335756 1_555
Nb3 O15 1.886576 1_555
Nb3 O30 1.937637 1_565
Nb3 O28 1.941155 1_565
Nb3 O27 2.167123 1_555
Nb3 O25 2.171306 1_555
Nb3 O8 2.335615 1_565
Fe0 O5 2.101507 1_656
Fe0 O29 2.126694 1_555
Fe0 O31 2.129579 1_655
Fe0 O21 2.153223 1_555
Fe0 O23 2.154965 1_555
Fe0 O3 2.163795 1_555
Fe1 O7 2.006235 1_656
Fe1 O13 2.027614 1_555
Fe1 O11 2.196413 1_555
Fe1 O15 2.198657 1_555
Fe1 O17 2.225101 1_556
Fe1 O25 2.299658 1_555
Fe2 O7 2.006286 1_556
Fe2 O13 2.027569 1_555
Fe2 O11 2.196087 1_455
Fe2 O15 2.199325 1_555
Fe2 O19 2.225227 1_556
Fe2 O27 2.299932 1_555
Fe3 O4 2.101348 1_656
Fe3 O28 2.124828 1_555
Fe3 O30 2.131330 1_655
Fe3 O20 2.152296 1_555
Fe3 O22 2.156161 1_555
Fe3 O2 2.163818 1_555
Fe4 O6 2.006106 1_656
Fe4 O12 2.028049 1_555
Fe4 O10 2.196420 1_555
Fe4 O14 2.199121 1_555
Fe4 O16 2.225008 1_556
Fe4 O24 2.299466 1_555
Fe5 O6 2.006066 1_556
Fe5 O12 2.028273 1_555
Fe5 O10 2.195961 1_455
Fe5 O14 2.199265 1_555
Fe5 O18 2.224745 1_556
Fe5 O26 2.299523 1_555
O0 Ti2 2.037783 1_555
O0 Ti4 2.046556 1_555
O1 Ti3 2.038172 1_555
O1 Ti5 2.046088 1_555
O2 Ti4 1.952605 1_555
O2 Ti2 1.953649 1_555
O3 Ti5 1.952857 1_555
O3 Ti3 1.953416 1_555
O4 Ti2 1.952951 1_455
O4 Ti4 1.956271 1_555
O5 Ti3 1.953672 1_455
O5 Ti5 1.955455 1_555
O6 Ti0 1.917330 1_555
O7 Ti1 1.917294 1_555
O8 Ti4 2.018622 1_555
O8 Ti2 2.027696 1_455
O9 Ti5 2.019254 1_555
O9 Ti3 2.027166 1_455
O12 Ti0 1.938292 1_555
O13 Ti1 1.938769 1_555
O16 Ti0 2.269218 1_655
O17 Ti1 2.269337 1_655
O18 Ti0 2.268013 1_555
O19 Ti1 2.267651 1_555
O20 Ti2 1.851982 1_555
O21 Ti3 1.851741 1_555
O22 Ti4 1.850943 1_555
O23 Ti5 1.851252 1_555
O24 Ti0 1.875341 1_555
O25 Ti1 1.874941 1_555
O26 Ti0 1.876603 1_555
O27 Ti1 1.876898 1_555
O28 Ti2 2.252726 1_556
O29 Ti3 2.252882 1_556
O30 Ti4 2.253946 1_556
O31 Ti5 2.253543 1_556
