# generated using pymatgen
data_K2LiAlF6
_symmetry_space_group_name_H-M   'P 1'
_cell_length_a   5.11937269
_cell_length_b   5.11937269
_cell_length_c   10.94514900
_cell_angle_alpha   90.00000000
_cell_angle_beta   90.00000000
_cell_angle_gamma   120.00000892
_symmetry_Int_Tables_number   1
_chemical_formula_structural   K2LiAlF6
_chemical_formula_sum   'K2 Li1 Al1 F6'
_cell_volume   248.41954695
_cell_formula_units_Z   1
loop_
 _symmetry_equiv_pos_site_id
 _symmetry_equiv_pos_as_xyz
  1  'x, y, z'
loop_
 _atom_site_type_symbol
 _atom_site_label
 _atom_site_symmetry_multiplicity
 _atom_site_fract_x
 _atom_site_fract_y
 _atom_site_fract_z
 _atom_site_occupancy
  K  K0  1  0.00000000  0.00000000  0.73396300  1
  K  K1  1  0.00000000  0.00000000  0.26603700  1
  Li  Li0  1  0.00000000  0.00000000  0.50000000  1
  Al  Al0  1  0.00000000  0.00000000  0.00000000  1
  F  F0  1  0.50000000  0.00000000  0.75049500  1
  F  F1  1  0.50000000  0.50000000  0.75049500  1
  F  F2  1  0.00000000  0.50000000  0.75049500  1
  F  F3  1  0.50000000  0.00000000  0.24950500  1
  F  F4  1  0.50000000  0.50000000  0.24950500  1
  F  F5  1  0.00000000  0.50000000  0.24950500  1
loop_
_geom_bond_atom_site_label_1
_geom_bond_atom_site_label_2
_geom_bond_distance
_geom_bond_site_symmetry_2
K0 Li0 2.560760 1_555
K1 Li0 2.560760 1_555
Al0 K0 2.911815 1_554
Al0 K1 2.911815 1_555
F0 K0 2.566074 1_555
F0 K0 2.566074 1_655
F1 K0 2.566074 1_665
F1 K0 2.566074 1_555
F2 K0 2.566074 1_565
F2 K0 2.566074 1_555
F3 K1 2.566074 1_655
F3 K1 2.566074 1_555
F4 K1 2.566074 1_555
F4 K1 2.566074 1_665
F5 K1 2.566074 1_565
F5 K1 2.566074 1_555
