# generated using pymatgen
data_Li2Ti3O7
_symmetry_space_group_name_H-M   'P 1'
_cell_length_a   5.70610246
_cell_length_b   5.70610246
_cell_length_c   10.57124674
_cell_angle_alpha   88.24946046
_cell_angle_beta   88.24946046
_cell_angle_gamma   51.28497864
_symmetry_Int_Tables_number   1
_chemical_formula_structural   Li2Ti3O7
_chemical_formula_sum   'Li4 Ti6 O14'
_cell_volume   268.41007029
_cell_formula_units_Z   2
loop_
 _symmetry_equiv_pos_site_id
 _symmetry_equiv_pos_as_xyz
  1  'x, y, z'
loop_
 _atom_site_type_symbol
 _atom_site_label
 _atom_site_symmetry_multiplicity
 _atom_site_fract_x
 _atom_site_fract_y
 _atom_site_fract_z
 _atom_site_occupancy
  Li  Li0  1  0.47270800  0.82496700  0.31666100  1
  Li  Li1  1  0.82496700  0.47270800  0.81666100  1
  Li  Li2  1  0.17503300  0.52729200  0.18333900  1
  Li  Li3  1  0.52729200  0.17503300  0.68333900  1
  Ti  Ti0  1  0.00000000  0.50000000  0.50000000  1
  Ti  Ti1  1  0.88169100  0.23774500  0.10384100  1
  Ti  Ti2  1  0.76225500  0.11830900  0.39615900  1
  Ti  Ti3  1  0.23774500  0.88169100  0.60384100  1
  Ti  Ti4  1  0.11830900  0.76225500  0.89615900  1
  Ti  Ti5  1  0.50000000  0.00000000  0.00000000  1
  O  O0  1  0.88445100  0.75309700  0.33790100  1
  O  O1  1  0.75309700  0.88445100  0.83790100  1
  O  O2  1  0.07731600  0.13393300  0.42740300  1
  O  O3  1  0.67106700  0.59386300  0.01767200  1
  O  O4  1  0.13393300  0.07731600  0.92740300  1
  O  O5  1  0.62661100  0.37338900  0.25000000  1
  O  O6  1  0.59386300  0.67106700  0.51767200  1
  O  O7  1  0.40613700  0.32893300  0.48232800  1
  O  O8  1  0.37338900  0.62661100  0.75000000  1
  O  O9  1  0.86606700  0.92268400  0.07259700  1
  O  O10  1  0.32893300  0.40613700  0.98232800  1
  O  O11  1  0.92268400  0.86606700  0.57259700  1
  O  O12  1  0.24690300  0.11554900  0.16209900  1
  O  O13  1  0.11554900  0.24690300  0.66209900  1
loop_
_geom_bond_atom_site_label_1
_geom_bond_atom_site_label_2
_geom_bond_distance
_geom_bond_site_symmetry_2
Li0 O12 2.090402 1_565
Li0 O2 2.134957 1_565
Li0 O0 2.135384 1_555
Li0 O6 2.231769 1_555
Li0 O5 2.269353 1_555
Li1 O13 2.090402 1_655
Li1 O4 2.134957 1_655
Li1 O1 2.135384 1_555
Li1 O3 2.231769 1_556
Li1 O8 2.269353 1_555
Li2 O0 2.090402 1_455
Li2 O9 2.134957 1_455
Li2 O12 2.135384 1_555
Li2 O10 2.231769 1_554
Li2 O5 2.269353 1_555
Li3 O1 2.090402 1_545
Li3 O11 2.134957 1_545
Li3 O13 2.135384 1_555
Li3 O7 2.231769 1_555
Li3 O8 2.269353 1_555
O0 Ti2 1.855482 1_565
O0 Ti0 2.045368 1_655
O1 Ti4 1.855482 1_655
O1 Ti5 2.045368 1_566
O2 Ti2 1.894091 1_455
O2 Ti0 2.017738 1_555
O2 Ti3 2.163478 1_545
O3 Ti1 1.817213 1_555
O3 Ti5 1.874391 1_565
O4 Ti4 1.894091 1_545
O4 Ti5 2.017738 1_556
O4 Ti1 2.163478 1_456
O5 Ti2 1.905603 1_555
O5 Ti1 1.905603 1_555
O6 Ti3 1.817213 1_555
O6 Ti0 1.874391 1_655
O7 Ti2 1.817213 1_555
O7 Ti0 1.874391 1_555
O8 Ti4 1.905603 1_555
O8 Ti3 1.905603 1_555
O9 Ti1 1.894091 1_565
O9 Ti5 2.017738 1_565
O9 Ti4 2.163478 1_654
O10 Ti4 1.817213 1_555
O10 Ti5 1.874391 1_556
O11 Ti3 1.894091 1_655
O11 Ti0 2.017738 1_655
O11 Ti2 2.163478 1_565
O12 Ti1 1.855482 1_455
O12 Ti5 2.045368 1_555
O13 Ti3 1.855482 1_545
O13 Ti0 2.045368 1_555
