# generated using pymatgen
data_LaTa2NO5
_symmetry_space_group_name_H-M   'P 1'
_cell_length_a   5.53339800
_cell_length_b   7.73470700
_cell_length_c   11.31170876
_cell_angle_alpha   89.94742348
_cell_angle_beta   90.00000000
_cell_angle_gamma   90.00000000
_symmetry_Int_Tables_number   1
_chemical_formula_structural   LaTa2NO5
_chemical_formula_sum   'La4 Ta8 N4 O20'
_cell_volume   484.13202034
_cell_formula_units_Z   4
loop_
 _symmetry_equiv_pos_site_id
 _symmetry_equiv_pos_as_xyz
  1  'x, y, z'
loop_
 _atom_site_type_symbol
 _atom_site_label
 _atom_site_symmetry_multiplicity
 _atom_site_fract_x
 _atom_site_fract_y
 _atom_site_fract_z
 _atom_site_occupancy
  La  La0  1  0.79625000  0.74433600  0.03560500  1
  La  La1  1  0.29574900  0.25746200  0.45584700  1
  La  La2  1  0.20375000  0.74433600  0.53560500  1
  La  La3  1  0.70425100  0.25746200  0.95584700  1
  Ta  Ta0  1  0.29212500  0.00264000  0.14238600  1
  Ta  Ta1  1  0.28922500  0.49367000  0.14889700  1
  Ta  Ta2  1  0.78429700  0.00487400  0.35778300  1
  Ta  Ta3  1  0.79500800  0.49913600  0.35496300  1
  Ta  Ta4  1  0.70787500  0.00264000  0.64238600  1
  Ta  Ta5  1  0.71077500  0.49367000  0.64889700  1
  Ta  Ta6  1  0.20499200  0.49913600  0.85496300  1
  Ta  Ta7  1  0.21570300  0.00487400  0.85778300  1
  N  N0  1  0.12208600  0.44637200  0.29097700  1
  N  N1  1  0.70136800  0.24806300  0.35584900  1
  N  N2  1  0.87791400  0.44637200  0.79097700  1
  N  N3  1  0.29863200  0.24806300  0.85584900  1
  O  O0  1  0.02404800  0.03375700  0.02432500  1
  O  O1  1  0.02507600  0.46691700  0.02631500  1
  O  O2  1  0.39925100  0.24722300  0.12255700  1
  O  O3  1  0.20530300  0.75250500  0.14238000  1
  O  O4  1  0.61964800  0.55918200  0.20979300  1
  O  O5  1  0.61575200  0.94141900  0.21132700  1
  O  O6  1  0.11972100  0.05133400  0.28672800  1
  O  O7  1  0.89928600  0.75147900  0.37978100  1
  O  O8  1  0.51650000  0.53688100  0.47649700  1
  O  O9  1  0.51890000  0.96275000  0.47799300  1
  O  O10  1  0.97595200  0.03375700  0.52432500  1
  O  O11  1  0.97492400  0.46691700  0.52631500  1
  O  O12  1  0.60074900  0.24722300  0.62255700  1
  O  O13  1  0.79469700  0.75250500  0.64238000  1
  O  O14  1  0.38035200  0.55918200  0.70979300  1
  O  O15  1  0.38424800  0.94141900  0.71132700  1
  O  O16  1  0.88027900  0.05133400  0.78672800  1
  O  O17  1  0.10071400  0.75147900  0.87978100  1
  O  O18  1  0.48350000  0.53688100  0.97649700  1
  O  O19  1  0.48110000  0.96275000  0.97799300  1
loop_
_geom_bond_atom_site_label_1
_geom_bond_atom_site_label_2
_geom_bond_distance
_geom_bond_site_symmetry_2
La0 O17 2.438861 1_654
La0 O18 2.453291 1_554
La0 O1 2.493781 1_655
La0 O19 2.513495 1_554
La0 O3 2.566350 1_655
La0 O0 2.572135 1_665
La0 O4 2.623554 1_555
La0 O5 2.697748 1_555
La1 O8 2.493682 1_555
La1 N1 2.514457 1_555
La1 O12 2.531883 1_555
La1 O11 2.532571 1_455
La1 N0 2.555679 1_555
La1 O10 2.592840 1_455
La1 O9 2.604336 1_545
La1 O6 2.675055 1_555
La2 O7 2.438861 1_455
La2 O8 2.453291 1_555
La2 O11 2.493781 1_455
La2 O9 2.513495 1_555
La2 O13 2.566350 1_455
La2 O10 2.572135 1_465
La2 O14 2.623554 1_555
La2 O15 2.697748 1_555
La3 O18 2.493682 1_555
La3 N3 2.514457 1_555
La3 O2 2.531883 1_556
La3 O1 2.532571 1_656
La3 N2 2.555679 1_555
La3 O0 2.592840 1_656
La3 O19 2.604336 1_545
La3 O16 2.675055 1_555
N0 Ta1 1.889732 1_555
N0 Ta3 1.991617 1_455
N1 Ta2 1.936264 1_555
N1 Ta3 2.009929 1_555
N2 Ta5 1.889732 1_555
N2 Ta6 1.991617 1_655
N3 Ta7 1.936264 1_555
N3 Ta6 2.009929 1_555
O0 Ta0 2.010281 1_555
O0 Ta7 2.173553 1_554
O1 Ta1 2.025447 1_555
O1 Ta6 2.193006 1_554
O2 Ta0 1.994927 1_555
O2 Ta1 2.023377 1_555
O3 Ta0 1.993477 1_565
O3 Ta1 2.056420 1_555
O4 Ta3 1.962758 1_555
O4 Ta1 2.018615 1_555
O5 Ta2 1.963854 1_565
O5 Ta0 2.009605 1_565
O6 Ta0 1.928457 1_555
O6 Ta2 2.054140 1_455
O7 Ta3 2.054819 1_555
O7 Ta2 2.075386 1_565
O8 Ta3 2.085882 1_555
O8 Ta5 2.251483 1_555
O9 Ta2 2.027555 1_565
O9 Ta4 2.155845 1_565
O10 Ta4 2.010281 1_555
O10 Ta2 2.173553 1_555
O11 Ta5 2.025447 1_555
O11 Ta3 2.193006 1_555
O12 Ta4 1.994927 1_555
O12 Ta5 2.023377 1_555
O13 Ta4 1.993477 1_565
O13 Ta5 2.056420 1_555
O14 Ta6 1.962758 1_555
O14 Ta5 2.018615 1_555
O15 Ta7 1.963854 1_565
O15 Ta4 2.009605 1_565
O16 Ta4 1.928457 1_555
O16 Ta7 2.054140 1_655
O17 Ta6 2.054819 1_555
O17 Ta7 2.075386 1_565
O18 Ta6 2.085882 1_555
O18 Ta1 2.251483 1_556
O19 Ta7 2.027555 1_565
O19 Ta0 2.155845 1_566
