# generated using pymatgen
data_Li4Nb3Co3(TeO8)2
_symmetry_space_group_name_H-M   'P 1'
_cell_length_a   6.10443966
_cell_length_b   10.69897646
_cell_length_c   12.11123257
_cell_angle_alpha   115.32881354
_cell_angle_beta   75.46123747
_cell_angle_gamma   89.93693319
_symmetry_Int_Tables_number   1
_chemical_formula_structural   Li4Nb3Co3(TeO8)2
_chemical_formula_sum   'Li8 Nb6 Co6 Te4 O32'
_cell_volume   686.72284244
_cell_formula_units_Z   2
loop_
 _symmetry_equiv_pos_site_id
 _symmetry_equiv_pos_as_xyz
  1  'x, y, z'
loop_
 _atom_site_type_symbol
 _atom_site_label
 _atom_site_symmetry_multiplicity
 _atom_site_fract_x
 _atom_site_fract_y
 _atom_site_fract_z
 _atom_site_occupancy
  Li  Li0  1  0.54648400  0.78873700  0.90652000  1
  Li  Li1  1  0.04652000  0.28871800  0.90653000  1
  Li  Li2  1  0.00226700  0.99760400  0.99595200  1
  Li  Li3  1  0.50215500  0.49759700  0.99593900  1
  Li  Li4  1  0.25803000  0.73573700  0.48415300  1
  Li  Li5  1  0.75807600  0.23575000  0.48415300  1
  Li  Li6  1  0.29987000  0.36313600  0.40052800  1
  Li  Li7  1  0.79991000  0.86312400  0.40051800  1
  Nb  Nb0  1  0.88269100  0.29821000  0.23473900  1
  Nb  Nb1  1  0.38271100  0.79820900  0.23474700  1
  Nb  Nb2  1  0.38791100  0.45689900  0.71854300  1
  Nb  Nb3  1  0.88793600  0.95685300  0.71853700  1
  Nb  Nb4  1  0.89199300  0.45698800  0.71910100  1
  Nb  Nb5  1  0.39200100  0.95689000  0.71907700  1
  Co  Co0  1  0.14529000  0.66834300  0.71040800  1
  Co  Co1  1  0.64527400  0.16831500  0.71043100  1
  Co  Co2  1  0.13656300  0.52088300  0.21461500  1
  Co  Co3  1  0.63657000  0.02097800  0.21457100  1
  Co  Co4  1  0.64868400  0.52095700  0.21468600  1
  Co  Co5  1  0.14876800  0.02095100  0.21472200  1
  Te  Te0  1  0.75244100  0.61141800  0.49561600  1
  Te  Te1  1  0.25244200  0.11143600  0.49561000  1
  Te  Te2  1  0.49065600  0.18139300  0.01832100  1
  Te  Te3  1  0.99069500  0.68140000  0.01836200  1
  O  O0  1  0.82447500  0.65863400  0.35157500  1
  O  O1  1  0.32449200  0.15864900  0.35154800  1
  O  O2  1  0.94548600  0.37665800  0.10766300  1
  O  O3  1  0.44501600  0.87682300  0.10772100  1
  O  O4  1  0.85055500  0.15546800  0.29954400  1
  O  O5  1  0.35018500  0.65555100  0.29962100  1
  O  O6  1  0.59606200  0.40511000  0.80855500  1
  O  O7  1  0.09604800  0.90509600  0.80856100  1
  O  O8  1  0.44976300  0.38534800  0.10073500  1
  O  O9  1  0.94988000  0.88531100  0.10083600  1
  O  O10  1  0.69789000  0.44670600  0.60432200  1
  O  O11  1  0.19788500  0.94669300  0.60431600  1
  O  O12  1  0.19987500  0.45020700  0.59740300  1
  O  O13  1  0.69987200  0.95018300  0.59740500  1
  O  O14  1  0.09116100  0.42184200  0.81852400  1
  O  O15  1  0.59115700  0.92182200  0.81852700  1
  O  O16  1  0.95478900  0.72676600  0.58985400  1
  O  O17  1  0.45474500  0.22680600  0.58984400  1
  O  O18  1  0.45545500  0.72629000  0.58994800  1
  O  O19  1  0.95570300  0.22634000  0.58988000  1
  O  O20  1  0.06622200  0.41200800  0.33322800  1
  O  O21  1  0.56653700  0.91189700  0.33310200  1
  O  O22  1  0.60119200  0.41278200  0.33382700  1
  O  O23  1  0.10127700  0.91278900  0.33386100  1
  O  O24  1  0.34718700  0.64965100  0.82696700  1
  O  O25  1  0.84710600  0.14962100  0.82698900  1
  O  O26  1  0.82586700  0.64974900  0.82707400  1
  O  O27  1  0.32586100  0.14970600  0.82704400  1
  O  O28  1  0.69708600  0.13809100  0.10261300  1
  O  O29  1  0.19714700  0.63815100  0.10259200  1
  O  O30  1  0.20041300  0.13830500  0.10280900  1
  O  O31  1  0.70043300  0.63825600  0.10281100  1
loop_
_geom_bond_atom_site_label_1
_geom_bond_atom_site_label_2
_geom_bond_distance
_geom_bond_site_symmetry_2
Li0 O24 1.997133 1_555
Li0 O26 1.998001 1_555
Li0 O15 2.095423 1_555
Li0 O3 2.117960 1_556
Li1 O25 1.997673 1_455
Li1 O27 1.997927 1_555
Li1 O14 2.095918 1_555
Li1 O2 2.117298 1_456
Li2 O7 1.970430 1_555
Li2 O9 2.064453 1_456
Li2 O28 2.126689 1_466
Li2 O30 2.127689 1_566
Li3 O6 1.970356 1_555
Li3 O8 2.063175 1_556
Li3 O29 2.126238 1_556
Li3 O31 2.128151 1_556
Li4 O5 1.942800 1_555
Li4 O18 1.997556 1_555
Li4 O16 1.997605 1_455
Li4 O11 2.065508 1_555
Li5 O4 1.943578 1_555
Li5 O19 1.997700 1_555
Li5 O17 1.997880 1_555
Li5 O10 2.065522 1_555
Li6 O20 1.979589 1_555
Li6 O22 1.985290 1_555
Li6 O1 2.001256 1_555
Li6 O12 2.072014 1_555
Li7 O21 1.978733 1_555
Li7 O23 1.985452 1_655
Li7 O0 2.001372 1_555
Li7 O13 2.072150 1_555
Nb0 O20 1.895185 1_655
Nb0 O22 1.896569 1_555
Nb0 O4 1.983877 1_555
Nb0 O2 2.007438 1_555
Nb0 O30 2.310741 1_655
Nb0 O28 2.312604 1_555
Nb1 O21 1.895280 1_555
Nb1 O23 1.896345 1_555
Nb1 O5 1.983621 1_555
Nb1 O3 2.008226 1_555
Nb1 O31 2.310981 1_555
Nb1 O29 2.312322 1_555
Nb2 O24 1.885985 1_555
Nb2 O10 2.015538 1_555
Nb2 O14 2.043831 1_555
Nb2 O12 2.056956 1_555
Nb2 O6 2.078641 1_555
Nb2 O17 2.247579 1_555
Nb3 O25 1.886159 1_565
Nb3 O11 2.015482 1_655
Nb3 O15 2.043888 1_555
Nb3 O13 2.057064 1_555
Nb3 O7 2.078411 1_655
Nb3 O16 2.247494 1_555
Nb4 O26 1.884639 1_555
Nb4 O10 2.011195 1_555
Nb4 O14 2.047185 1_655
Nb4 O12 2.056066 1_655
Nb4 O6 2.068655 1_555
Nb4 O19 2.253432 1_555
Nb5 O27 1.885099 1_565
Nb5 O11 2.011296 1_555
Nb5 O15 2.047035 1_555
Nb5 O13 2.056083 1_555
Nb5 O7 2.068464 1_555
Nb5 O18 2.252824 1_555
Co0 O12 2.113593 1_555
Co0 O24 2.160168 1_555
Co0 O26 2.167083 1_455
Co0 O7 2.272042 1_555
Co0 O18 2.342507 1_555
Co0 O16 2.346605 1_455
Co1 O13 2.113592 1_545
Co1 O25 2.159875 1_555
Co1 O27 2.166799 1_555
Co1 O6 2.272438 1_555
Co1 O19 2.344590 1_555
Co1 O17 2.347447 1_555
Co2 O5 2.060432 1_555
Co2 O2 2.114655 1_455
Co2 O8 2.149216 1_555
Co2 O20 2.174421 1_555
Co2 O29 2.181105 1_555
Co2 O0 2.206474 1_455
Co3 O4 2.061047 1_555
Co3 O3 2.115820 1_545
Co3 O9 2.150042 1_545
Co3 O21 2.175331 1_545
Co3 O28 2.179054 1_555
Co3 O1 2.206188 1_555
Co4 O5 2.058595 1_555
Co4 O2 2.109214 1_555
Co4 O8 2.148542 1_555
Co4 O22 2.173760 1_555
Co4 O31 2.179803 1_555
Co4 O0 2.208418 1_555
Co5 O4 2.056900 1_455
Co5 O3 2.105955 1_545
Co5 O9 2.148139 1_445
Co5 O23 2.173626 1_545
Co5 O30 2.180688 1_555
Co5 O1 2.207772 1_555
O0 Te0 1.965008 1_555
O1 Te1 1.965227 1_555
O8 Te2 1.957118 1_555
O9 Te3 1.956697 1_555
O10 Te0 2.591540 1_555
O11 Te1 2.591837 1_565
O16 Te0 1.964037 1_555
O17 Te1 1.963891 1_555
O18 Te0 1.963732 1_555
O19 Te1 1.962629 1_655
O20 Te0 2.568689 1_455
O21 Te1 2.570766 1_565
O22 Te0 2.560869 1_555
O23 Te1 2.560401 1_565
O24 Te3 2.648851 1_456
O25 Te2 2.648167 1_556
O26 Te3 2.644650 1_556
O27 Te2 2.644312 1_556
O28 Te2 1.973338 1_555
O29 Te3 1.972599 1_455
O30 Te2 1.973300 1_555
O31 Te3 1.973477 1_555
