# generated using pymatgen
data_Cr5Sb3O16
_symmetry_space_group_name_H-M   'P 1'
_cell_length_a   6.06356910
_cell_length_b   6.06356910
_cell_length_c   9.07855718
_cell_angle_alpha   89.85445662
_cell_angle_beta   89.85445662
_cell_angle_gamma   60.31150122
_symmetry_Int_Tables_number   1
_chemical_formula_structural   Cr5Sb3O16
_chemical_formula_sum   'Cr5 Sb3 O16'
_cell_volume   289.97256914
_cell_formula_units_Z   1
loop_
 _symmetry_equiv_pos_site_id
 _symmetry_equiv_pos_as_xyz
  1  'x, y, z'
loop_
 _atom_site_type_symbol
 _atom_site_label
 _atom_site_symmetry_multiplicity
 _atom_site_fract_x
 _atom_site_fract_y
 _atom_site_fract_z
 _atom_site_occupancy
  Cr  Cr0  1  0.33267500  0.83378800  0.79380700  1
  Cr  Cr1  1  0.65898500  0.65898500  0.51631800  1
  Cr  Cr2  1  0.83378800  0.33267500  0.79380700  1
  Cr  Cr3  1  0.16908800  0.16908800  0.29056000  1
  Cr  Cr4  1  0.33027300  0.33027300  0.00967100  1
  Sb  Sb0  1  0.83156000  0.83156000  0.78881100  1
  Sb  Sb1  1  0.16913700  0.66626000  0.28866200  1
  Sb  Sb2  1  0.66626000  0.16913700  0.28866200  1
  O  O0  1  0.33170700  0.82853900  0.39663300  1
  O  O1  1  0.52947500  0.52947500  0.67111600  1
  O  O2  1  0.66801900  0.66801900  0.90455300  1
  O  O3  1  0.00029700  0.00029700  0.68720900  1
  O  O4  1  0.00074700  0.00074700  0.17816100  1
  O  O5  1  0.82853900  0.33170700  0.39663300  1
  O  O6  1  0.51950100  0.94842900  0.65941700  1
  O  O7  1  0.94842900  0.51950100  0.65941700  1
  O  O8  1  0.16921600  0.16921600  0.88807200  1
  O  O9  1  0.83273200  0.83273200  0.39838900  1
  O  O10  1  0.04826600  0.47832000  0.16102100  1
  O  O11  1  0.47832000  0.04826600  0.16102100  1
  O  O12  1  0.33612900  0.33612900  0.40691300  1
  O  O13  1  0.17156100  0.66492200  0.89567900  1
  O  O14  1  0.47922200  0.47922200  0.15409000  1
  O  O15  1  0.66492200  0.17156100  0.89567900  1
loop_
_geom_bond_atom_site_label_1
_geom_bond_atom_site_label_2
_geom_bond_distance
_geom_bond_site_symmetry_2
Cr0 O13 1.959499 1_555
Cr0 O8 1.964465 1_565
Cr0 O1 1.972827 1_555
Cr0 O3 2.001764 1_565
Cr0 O6 2.005940 1_555
Cr0 O2 2.033839 1_555
Cr1 O1 1.951413 1_555
Cr1 O6 2.004730 1_555
Cr1 O7 2.004730 1_555
Cr1 O5 2.039616 1_555
Cr1 O0 2.039616 1_555
Cr1 O9 2.110466 1_555
Cr2 O15 1.959499 1_555
Cr2 O8 1.964465 1_655
Cr2 O1 1.972827 1_555
Cr2 O3 2.001764 1_655
Cr2 O7 2.005940 1_555
Cr2 O2 2.033839 1_555
Cr3 O10 2.016933 1_555
Cr3 O11 2.016933 1_555
Cr3 O5 2.035048 1_455
Cr3 O0 2.035048 1_545
Cr3 O4 2.041517 1_555
Cr3 O12 2.048093 1_555
Cr4 O8 2.020341 1_554
Cr4 O10 2.022773 1_555
Cr4 O11 2.022773 1_555
Cr4 O14 2.042173 1_555
Cr4 O13 2.043198 1_554
Cr4 O15 2.043198 1_554
O0 Sb1 1.967591 1_555
O2 Sb0 2.008561 1_555
O3 Sb0 1.992952 1_445
O4 Sb2 2.026323 1_455
O4 Sb1 2.026323 1_545
O5 Sb2 1.967591 1_555
O6 Sb0 2.035026 1_555
O7 Sb0 2.035026 1_555
O9 Sb2 2.031573 1_565
O9 Sb1 2.031573 1_655
O10 Sb1 2.004242 1_555
O11 Sb2 2.004242 1_555
O12 Sb2 2.042470 1_555
O12 Sb1 2.042470 1_555
O13 Sb0 2.038198 1_455
O14 Sb1 2.048693 1_555
O14 Sb2 2.048693 1_555
O15 Sb0 2.038198 1_545
