# generated using pymatgen
data_Li10Cr3P6(O4F)6
_symmetry_space_group_name_H-M   'P 1'
_cell_length_a   10.16617542
_cell_length_b   10.16617542
_cell_length_c   6.50781900
_cell_angle_alpha   90.00000000
_cell_angle_beta   90.00000000
_cell_angle_gamma   119.99999619
_symmetry_Int_Tables_number   1
_chemical_formula_structural   Li10Cr3P6(O4F)6
_chemical_formula_sum   'Li10 Cr3 P6 O24 F6'
_cell_volume   582.48039434
_cell_formula_units_Z   1
loop_
 _symmetry_equiv_pos_site_id
 _symmetry_equiv_pos_as_xyz
  1  'x, y, z'
loop_
 _atom_site_type_symbol
 _atom_site_label
 _atom_site_symmetry_multiplicity
 _atom_site_fract_x
 _atom_site_fract_y
 _atom_site_fract_z
 _atom_site_occupancy
  Li  Li0  1  0.66666700  0.33333300  0.58111800  1
  Li  Li1  1  0.87397500  0.70648100  0.47560900  1
  Li  Li2  1  0.83250500  0.12602500  0.47560900  1
  Li  Li3  1  0.00000000  0.00000000  0.28676900  1
  Li  Li4  1  0.29351900  0.16749500  0.47560900  1
  Li  Li5  1  0.96793900  0.50747000  0.74553900  1
  Li  Li6  1  0.49253000  0.46046800  0.74553900  1
  Li  Li7  1  0.33333300  0.66666700  0.83435800  1
  Li  Li8  1  0.33333300  0.66666700  0.35951800  1
  Li  Li9  1  0.53953200  0.03206100  0.74553900  1
  Cr  Cr0  1  0.83785700  0.66712800  0.00174200  1
  Cr  Cr1  1  0.82927100  0.16214300  0.00174200  1
  Cr  Cr2  1  0.33287200  0.17072900  0.00174200  1
  P  P0  1  0.70805700  0.84198100  0.73906900  1
  P  P1  1  0.15801900  0.86607500  0.73906900  1
  P  P2  1  0.13392500  0.29194300  0.73906900  1
  P  P3  1  0.95687700  0.47931500  0.26474900  1
  P  P4  1  0.52068500  0.47756200  0.26474900  1
  P  P5  1  0.52243800  0.04312300  0.26474900  1
  O  O0  1  0.69476400  0.59424400  0.22805600  1
  O  O1  1  0.78761200  0.81334300  0.92712100  1
  O  O2  1  0.79162800  0.84501600  0.54214400  1
  O  O3  1  0.99385900  0.72665200  0.77404800  1
  O  O4  1  0.73279300  0.00614100  0.77404800  1
  O  O5  1  0.15498400  0.94661200  0.54214400  1
  O  O6  1  0.18665700  0.97426900  0.92712100  1
  O  O7  1  0.02573100  0.21238800  0.92712100  1
  O  O8  1  0.89947900  0.30523600  0.22805600  1
  O  O9  1  0.05338800  0.20837200  0.54214400  1
  O  O10  1  0.87957000  0.49551000  0.45709700  1
  O  O11  1  0.90457000  0.52725300  0.06523400  1
  O  O12  1  0.40575600  0.10052100  0.22805600  1
  O  O13  1  0.27334800  0.26720700  0.77404800  1
  O  O14  1  0.18368300  0.46172800  0.73888800  1
  O  O15  1  0.47274700  0.37731800  0.06523400  1
  O  O16  1  0.50449000  0.38406000  0.45709700  1
  O  O17  1  0.27804500  0.81631700  0.73888800  1
  O  O18  1  0.53827200  0.72195500  0.73888800  1
  O  O19  1  0.61594000  0.12043000  0.45709700  1
  O  O20  1  0.62268200  0.09543000  0.06523400  1
  O  O21  1  0.12913400  0.56721100  0.27451100  1
  O  O22  1  0.43278900  0.56192200  0.27451100  1
  O  O23  1  0.43807800  0.87086600  0.27451100  1
  F  F0  1  0.70444100  0.52813800  0.79240900  1
  F  F1  1  0.96720400  0.80216800  0.20983200  1
  F  F2  1  0.83496400  0.03279600  0.20983200  1
  F  F3  1  0.82369700  0.29555900  0.79240900  1
  F  F4  1  0.19783200  0.16503600  0.20983200  1
  F  F5  1  0.47186200  0.17630300  0.79240900  1
loop_
_geom_bond_atom_site_label_1
_geom_bond_atom_site_label_2
_geom_bond_distance
_geom_bond_site_symmetry_2
Li0 O19 2.117982 1_555
Li0 O10 2.117985 1_555
Li0 O16 2.117991 1_555
Li1 O2 2.012671 1_555
Li1 O10 2.177102 1_555
Li1 O3 2.247131 1_555
Li1 O0 2.266675 1_555
Li2 O9 2.012681 1_655
Li2 O19 2.177092 1_555
Li2 O4 2.247130 1_555
Li2 O8 2.266675 1_555
Li4 O5 2.012679 1_545
Li4 O16 2.177097 1_555
Li4 O13 2.247126 1_555
Li4 O12 2.266675 1_555
Li5 O10 2.058213 1_555
Li5 O3 2.117018 1_555
Li5 O11 2.216661 1_556
Li5 O14 2.459384 1_655
Li6 O16 2.058209 1_555
Li6 O13 2.117014 1_555
Li6 O15 2.216654 1_556
Li6 O18 2.459395 1_555
Li7 O17 1.967640 1_555
Li7 O14 1.967647 1_555
Li7 O18 1.967650 1_555
Li8 O21 1.881185 1_555
Li8 O23 1.881185 1_555
Li8 O22 1.881202 1_555
Li9 O19 2.058211 1_555
Li9 O4 2.117008 1_555
Li9 O20 2.216656 1_556
Li9 O17 2.459391 1_545
Cr0 O1 1.861597 1_554
Cr0 O11 1.901892 1_555
Cr0 F1 1.908527 1_555
Cr0 O0 1.938166 1_555
Cr0 F0 1.943082 1_554
Cr0 O3 2.029138 1_554
Cr1 O7 1.861597 1_654
Cr1 O20 1.901901 1_555
Cr1 F2 1.908527 1_555
Cr1 O8 1.938166 1_555
Cr1 F3 1.943082 1_554
Cr1 O4 2.029138 1_554
Cr2 O6 1.861598 1_544
Cr2 O15 1.901899 1_555
Cr2 F4 1.908527 1_555
Cr2 O12 1.938161 1_555
Cr2 F5 1.943082 1_554
Cr2 O13 2.029138 1_554
O0 P4 1.580114 1_555
O1 P0 1.572273 1_555
O2 P0 1.529356 1_555
O3 P1 1.574969 1_655
O4 P0 1.574973 1_545
O5 P1 1.529362 1_555
O6 P1 1.572279 1_555
O7 P2 1.572278 1_555
O8 P3 1.580112 1_555
O9 P2 1.529359 1_555
O10 P3 1.530060 1_555
O11 P3 1.570125 1_555
O12 P5 1.580121 1_555
O13 P2 1.574963 1_555
O14 P2 1.536898 1_555
O15 P4 1.570120 1_555
O16 P4 1.530060 1_555
O17 P1 1.536888 1_555
O18 P0 1.536895 1_555
O19 P5 1.530060 1_555
O20 P5 1.570120 1_555
O21 P3 1.518016 1_455
O22 P4 1.518007 1_555
O23 P5 1.518016 1_565
F0 Li6 1.930120 1_555
F0 Li0 2.280300 1_555
F1 Li3 1.932927 1_665
F1 Li1 1.978437 1_555
F2 Li3 1.932927 1_655
F2 Li2 1.978440 1_555
F3 Li5 1.930122 1_555
F3 Li0 2.280292 1_555
F4 Li3 1.932927 1_555
F4 Li4 1.978435 1_555
F5 Li9 1.930130 1_555
F5 Li0 2.280298 1_555
