# generated using pymatgen
data_Li4Mn3CuO8
_symmetry_space_group_name_H-M   'P 1'
_cell_length_a   10.27670325
_cell_length_b   10.27670253
_cell_length_c   14.52866675
_cell_angle_alpha   19.52451978
_cell_angle_beta   19.52452312
_cell_angle_gamma   33.64821721
_symmetry_Int_Tables_number   1
_chemical_formula_structural   Li4Mn3CuO8
_chemical_formula_sum   'Li4 Mn3 Cu1 O8'
_cell_volume   148.42379072
_cell_formula_units_Z   1
loop_
 _symmetry_equiv_pos_site_id
 _symmetry_equiv_pos_as_xyz
  1  'x, y, z'
loop_
 _atom_site_type_symbol
 _atom_site_label
 _atom_site_symmetry_multiplicity
 _atom_site_fract_x
 _atom_site_fract_y
 _atom_site_fract_z
 _atom_site_occupancy
  Li  Li0  1  0.00000000  0.00000000  0.50000000  1
  Li  Li1  1  0.00000000  0.50000000  0.50000000  1
  Li  Li2  1  0.50000000  0.00000000  0.50000000  1
  Li  Li3  1  0.50000000  0.50000000  0.50000000  1
  Mn  Mn0  1  0.00000000  0.50000000  0.00000000  1
  Mn  Mn1  1  0.50000000  0.00000000  0.00000000  1
  Mn  Mn2  1  0.50000000  0.50000000  0.00000000  1
  Cu  Cu0  1  0.00000000  0.00000000  0.00000000  1
  O  O0  1  0.00000000  0.00000000  0.24779500  1
  O  O1  1  0.00000000  0.47548900  0.27656700  1
  O  O2  1  0.47548900  0.00000000  0.27656700  1
  O  O3  1  0.00000000  0.00000000  0.75220500  1
  O  O4  1  0.52451100  0.52451100  0.22754500  1
  O  O5  1  0.00000000  0.52451100  0.72343300  1
  O  O6  1  0.52451100  0.00000000  0.72343300  1
  O  O7  1  0.47548900  0.47548900  0.77245500  1
loop_
_geom_bond_atom_site_label_1
_geom_bond_atom_site_label_2
_geom_bond_distance
_geom_bond_site_symmetry_2
Li0 O5 2.124787 1_545
Li0 O1 2.124787 1_555
Li0 O7 2.124787 1_554
Li0 O4 2.124787 1_446
Li0 O2 2.124787 1_555
Li0 O6 2.124787 1_455
Li1 O0 2.082879 1_565
Li1 O3 2.082879 1_555
Li1 O2 2.224507 1_456
Li1 O6 2.224507 1_564
Li1 O7 2.224507 1_455
Li1 O4 2.224507 1_555
Li2 O3 2.082879 1_555
Li2 O0 2.082879 1_655
Li2 O4 2.224506 1_555
Li2 O7 2.224506 1_545
Li2 O5 2.224507 1_654
Li2 O1 2.224507 1_546
Li3 O0 2.082879 1_556
Li3 O3 2.082879 1_664
Li3 O6 2.224506 1_555
Li3 O2 2.224506 1_565
Li3 O5 2.224507 1_555
Li3 O1 2.224507 1_655
Mn0 O6 1.984882 1_455
Mn0 O2 1.984882 1_564
Mn0 O7 1.984883 1_554
Mn0 O4 1.984883 1_455
Mn0 O0 2.119795 1_555
Mn0 O3 2.119795 1_564
Mn1 O7 1.984882 1_554
Mn1 O4 1.984882 1_545
Mn1 O5 1.984882 1_545
Mn1 O1 1.984882 1_654
Mn1 O3 2.119795 1_654
Mn1 O0 2.119795 1_555
Mn2 O6 1.984882 1_564
Mn2 O2 1.984882 1_555
Mn2 O1 1.984883 1_555
Mn2 O5 1.984883 1_654
Mn2 O0 2.119795 1_664
Mn2 O3 2.119795 1_555
Cu0 O5 2.091283 1_554
Cu0 O1 2.091283 1_545
Cu0 O7 2.091284 1_445
Cu0 O4 2.091284 1_554
Cu0 O6 2.091284 1_554
Cu0 O2 2.091284 1_455
