# generated using pymatgen
data_Li2VCoO5
_symmetry_space_group_name_H-M   'P 1'
_cell_length_a   6.60969200
_cell_length_b   6.60969200
_cell_length_c   4.60459600
_cell_angle_alpha   90.00000000
_cell_angle_beta   90.00000000
_cell_angle_gamma   90.00000000
_symmetry_Int_Tables_number   1
_chemical_formula_structural   Li2VCoO5
_chemical_formula_sum   'Li4 V2 Co2 O10'
_cell_volume   201.16572052
_cell_formula_units_Z   2
loop_
 _symmetry_equiv_pos_site_id
 _symmetry_equiv_pos_as_xyz
  1  'x, y, z'
loop_
 _atom_site_type_symbol
 _atom_site_label
 _atom_site_symmetry_multiplicity
 _atom_site_fract_x
 _atom_site_fract_y
 _atom_site_fract_z
 _atom_site_occupancy
  Li  Li0  1  0.75000000  0.25000000  0.00000000  1
  Li  Li1  1  0.25000000  0.25000000  0.00000000  1
  Li  Li2  1  0.25000000  0.75000000  0.00000000  1
  Li  Li3  1  0.75000000  0.75000000  0.00000000  1
  V  V0  1  0.00000000  0.50000000  0.61320100  1
  V  V1  1  0.50000000  0.00000000  0.38679900  1
  Co  Co0  1  0.50000000  0.50000000  0.50000000  1
  Co  Co1  1  0.00000000  0.00000000  0.50000000  1
  O  O0  1  0.50000000  0.27297200  0.26375000  1
  O  O1  1  0.00000000  0.50000000  0.25033100  1
  O  O2  1  0.27297200  0.50000000  0.73625000  1
  O  O3  1  0.72702800  0.50000000  0.73625000  1
  O  O4  1  0.50000000  0.72702800  0.26375000  1
  O  O5  1  0.00000000  0.77297200  0.73625000  1
  O  O6  1  0.77297200  0.00000000  0.26375000  1
  O  O7  1  0.22702800  0.00000000  0.26375000  1
  O  O8  1  0.50000000  0.00000000  0.74966900  1
  O  O9  1  0.00000000  0.22702800  0.73625000  1
loop_
_geom_bond_atom_site_label_1
_geom_bond_atom_site_label_2
_geom_bond_distance
_geom_bond_site_symmetry_2
Li0 O6 2.056326 1_555
Li0 O3 2.056326 1_554
Li0 O0 2.056326 1_555
Li0 O9 2.056326 1_654
Li0 O8 2.605697 1_554
Li0 O1 2.605697 1_655
Li1 O9 2.056326 1_554
Li1 O0 2.056326 1_555
Li1 O7 2.056326 1_555
Li1 O2 2.056326 1_554
Li1 O8 2.605697 1_554
Li1 O1 2.605697 1_555
Li2 O7 2.056326 1_565
Li2 O5 2.056326 1_554
Li2 O4 2.056326 1_555
Li2 O2 2.056326 1_554
Li2 O8 2.605697 1_564
Li2 O1 2.605697 1_555
Li3 O3 2.056326 1_554
Li3 O6 2.056326 1_565
Li3 O5 2.056326 1_654
Li3 O4 2.056326 1_555
Li3 O8 2.605697 1_564
Li3 O1 2.605697 1_655
Co0 O2 1.853414 1_555
Co0 O0 1.853414 1_555
Co0 O3 1.853414 1_555
Co0 O4 1.853414 1_555
Co1 O9 1.853414 1_555
Co1 O6 1.853414 1_455
Co1 O7 1.853414 1_555
Co1 O5 1.853414 1_545
O0 V1 1.891133 1_555
O1 V0 1.670870 1_555
O2 V0 1.891133 1_555
O3 V0 1.891133 1_655
O4 V1 1.891133 1_565
O5 V0 1.891133 1_555
O6 V1 1.891133 1_555
O7 V1 1.891133 1_555
O8 V1 1.670870 1_555
O9 V0 1.891133 1_555
