# generated using pymatgen
data_Cr4OF11
_symmetry_space_group_name_H-M   'P 1'
_cell_length_a   5.09894800
_cell_length_b   5.32814174
_cell_length_c   8.74449812
_cell_angle_alpha   74.73789697
_cell_angle_beta   90.00000000
_cell_angle_gamma   61.41303176
_symmetry_Int_Tables_number   1
_chemical_formula_structural   Cr4OF11
_chemical_formula_sum   'Cr4 O1 F11'
_cell_volume   199.01382801
_cell_formula_units_Z   1
loop_
 _symmetry_equiv_pos_site_id
 _symmetry_equiv_pos_as_xyz
  1  'x, y, z'
loop_
 _atom_site_type_symbol
 _atom_site_label
 _atom_site_symmetry_multiplicity
 _atom_site_fract_x
 _atom_site_fract_y
 _atom_site_fract_z
 _atom_site_occupancy
  Cr  Cr0  1  0.74514400  0.51343800  0.25706000  1
  Cr  Cr1  1  0.50858100  0.98656200  0.49294000  1
  Cr  Cr2  1  0.25013200  0.49727500  0.74882800  1
  Cr  Cr3  1  0.99740600  0.00272500  0.00117200  1
  O  O0  1  0.74893300  0.75000000  0.37500000  1
  F  F0  1  0.81348000  0.75054200  0.68373600  1
  F  F1  1  0.81402200  0.74945800  0.06626400  1
  F  F2  1  0.75497200  0.25490100  0.12824500  1
  F  F3  1  0.68545400  0.24923100  0.81439700  1
  F  F4  1  0.68225100  0.25076900  0.43513100  1
  F  F5  1  0.31282300  0.74960000  0.56282800  1
  F  F6  1  0.31242300  0.75040000  0.18717200  1
  F  F7  1  0.24680600  0.75000000  0.87500000  1
  F  F8  1  0.25987300  0.24509900  0.62175500  1
  F  F9  1  0.18301900  0.24923100  0.31486900  1
  F  F10  1  0.18468400  0.25076900  0.93560300  1
loop_
_geom_bond_atom_site_label_1
_geom_bond_atom_site_label_2
_geom_bond_distance
_geom_bond_site_symmetry_2
Cr0 O0 1.833134 1_555
Cr0 F6 1.940029 1_555
Cr0 F4 1.941242 1_555
Cr0 F1 1.951012 1_555
Cr0 F9 1.959519 1_655
Cr0 F2 1.979836 1_555
Cr1 O0 1.833135 1_555
Cr1 F5 1.940024 1_555
Cr1 F9 1.941242 1_565
Cr1 F0 1.951014 1_555
Cr1 F4 1.959527 1_565
Cr1 F8 1.979835 1_565
Cr2 F8 1.940288 1_555
Cr2 F7 1.947074 1_555
Cr2 F10 1.947833 1_555
Cr2 F3 1.948356 1_555
Cr2 F5 1.953237 1_555
Cr2 F0 1.955122 1_455
Cr3 F2 1.940286 1_555
Cr3 F7 1.947076 1_644
Cr3 F3 1.947828 1_554
Cr3 F10 1.948356 1_654
Cr3 F6 1.953239 1_645
Cr3 F1 1.955118 1_545
