# generated using pymatgen
data_Bi2(SO4)3
_symmetry_space_group_name_H-M   'P 1'
_cell_length_a   9.34543200
_cell_length_b   9.36127800
_cell_length_c   15.95710665
_cell_angle_alpha   54.22307483
_cell_angle_beta   90.00000000
_cell_angle_gamma   90.00000000
_symmetry_Int_Tables_number   1
_chemical_formula_structural   Bi2(SO4)3
_chemical_formula_sum   'Bi8 S12 O48'
_cell_volume   1132.58235582
_cell_formula_units_Z   4
loop_
 _symmetry_equiv_pos_site_id
 _symmetry_equiv_pos_as_xyz
  1  'x, y, z'
loop_
 _atom_site_type_symbol
 _atom_site_label
 _atom_site_symmetry_multiplicity
 _atom_site_fract_x
 _atom_site_fract_y
 _atom_site_fract_z
 _atom_site_occupancy
  Bi  Bi0  1  0.46386600  0.36848300  0.38258400  1
  Bi  Bi1  1  0.96386600  0.63151700  0.11741600  1
  Bi  Bi2  1  0.53844100  0.86507100  0.88518200  1
  Bi  Bi3  1  0.03844100  0.13492900  0.61481800  1
  Bi  Bi4  1  0.96155900  0.86507100  0.38518200  1
  Bi  Bi5  1  0.46155900  0.13492900  0.11481800  1
  Bi  Bi6  1  0.03613400  0.36848300  0.88258400  1
  Bi  Bi7  1  0.53613400  0.63151700  0.61741600  1
  S  S0  1  0.75437200  0.45531400  0.50634800  1
  S  S1  1  0.61710800  0.74561300  0.15431900  1
  S  S2  1  0.89328200  0.05269900  0.84617400  1
  S  S3  1  0.11710800  0.25438700  0.34568100  1
  S  S4  1  0.39328200  0.94730100  0.65382600  1
  S  S5  1  0.25437200  0.54468600  0.99365200  1
  S  S6  1  0.74562800  0.45531400  0.00634800  1
  S  S7  1  0.60671800  0.05269900  0.34617400  1
  S  S8  1  0.88289200  0.74561300  0.65431900  1
  S  S9  1  0.10671800  0.94730100  0.15382600  1
  S  S10  1  0.38289200  0.25438700  0.84568100  1
  S  S11  1  0.24562800  0.54468600  0.49365200  1
  O  O0  1  0.13345000  0.41052100  0.55723200  1
  O  O1  1  0.12079500  0.79323700  0.14933000  1
  O  O2  1  0.29823700  0.52697000  0.41209200  1
  O  O3  1  0.40404300  0.12050600  0.82457500  1
  O  O4  1  0.63503000  0.48071500  0.43736200  1
  O  O5  1  0.76332300  0.67014200  0.19080800  1
  O  O6  1  0.60206400  0.82825700  0.04218300  1
  O  O7  1  0.01078500  0.08828700  0.77242400  1
  O  O8  1  0.75583300  0.02766400  0.80937200  1
  O  O9  1  0.81533100  0.27521000  0.55687500  1
  O  O10  1  0.93179300  0.89272400  0.94924000  1
  O  O11  1  0.50734900  0.60353000  0.21150300  1
  O  O12  1  0.00734900  0.39647000  0.28849700  1
  O  O13  1  0.43179300  0.10727600  0.55076000  1
  O  O14  1  0.31533100  0.72479000  0.94312500  1
  O  O15  1  0.25583300  0.97233600  0.69062800  1
  O  O16  1  0.10206400  0.17174300  0.45781700  1
  O  O17  1  0.51078500  0.91171300  0.72757600  1
  O  O18  1  0.26332300  0.32985800  0.30919200  1
  O  O19  1  0.13503000  0.51928500  0.06263800  1
  O  O20  1  0.79823700  0.47303000  0.08790800  1
  O  O21  1  0.62079500  0.20676300  0.35067000  1
  O  O22  1  0.90404300  0.87949400  0.67542500  1
  O  O23  1  0.63345000  0.58947900  0.94276800  1
  O  O24  1  0.36655000  0.41052100  0.05723200  1
  O  O25  1  0.09595700  0.12050600  0.32457500  1
  O  O26  1  0.37920500  0.79323700  0.64933000  1
  O  O27  1  0.20176300  0.52697000  0.91209200  1
  O  O28  1  0.86497000  0.48071500  0.93736200  1
  O  O29  1  0.73667700  0.67014200  0.69080800  1
  O  O30  1  0.48921500  0.08828700  0.27242400  1
  O  O31  1  0.89793600  0.82825700  0.54218300  1
  O  O32  1  0.74416700  0.02766400  0.30937200  1
  O  O33  1  0.68466900  0.27521000  0.05687500  1
  O  O34  1  0.56820700  0.89272400  0.44924000  1
  O  O35  1  0.99265100  0.60353000  0.71150300  1
  O  O36  1  0.49265100  0.39647000  0.78849700  1
  O  O37  1  0.06820700  0.10727600  0.05076000  1
  O  O38  1  0.18466900  0.72479000  0.44312500  1
  O  O39  1  0.24416700  0.97233600  0.19062800  1
  O  O40  1  0.98921500  0.91171300  0.22757600  1
  O  O41  1  0.39793600  0.17174300  0.95781700  1
  O  O42  1  0.23667700  0.32985800  0.80919200  1
  O  O43  1  0.36497000  0.51928500  0.56263800  1
  O  O44  1  0.59595700  0.87949400  0.17542500  1
  O  O45  1  0.70176300  0.47303000  0.58790800  1
  O  O46  1  0.87920500  0.20676300  0.85067000  1
  O  O47  1  0.86655000  0.58947900  0.44276800  1
loop_
_geom_bond_atom_site_label_1
_geom_bond_atom_site_label_2
_geom_bond_distance
_geom_bond_site_symmetry_2
Bi0 O11 2.331467 1_555
Bi0 O4 2.345295 1_555
Bi0 O18 2.347313 1_555
Bi0 O13 2.366007 1_555
Bi0 O21 2.367179 1_555
Bi0 O2 2.373953 1_555
Bi1 O12 2.331467 1_655
Bi1 O19 2.345295 1_655
Bi1 O5 2.347313 1_555
Bi1 O10 2.366007 1_554
Bi1 O1 2.367179 1_655
Bi1 O20 2.373953 1_555
Bi2 O17 2.301823 1_555
Bi2 O14 2.346735 1_555
Bi2 O23 2.348757 1_555
Bi2 O3 2.350894 1_565
Bi2 O6 2.395665 1_556
Bi2 O8 2.398891 1_565
Bi3 O7 2.301823 1_555
Bi3 O9 2.346735 1_455
Bi3 O0 2.348757 1_555
Bi3 O22 2.350894 1_445
Bi3 O16 2.395665 1_555
Bi3 O15 2.398891 1_545
Bi4 O40 2.301823 1_555
Bi4 O38 2.346735 1_655
Bi4 O47 2.348757 1_555
Bi4 O25 2.350894 1_665
Bi4 O31 2.395665 1_555
Bi4 O32 2.398891 1_565
Bi5 O30 2.301823 1_555
Bi5 O33 2.346735 1_555
Bi5 O24 2.348757 1_555
Bi5 O44 2.350894 1_545
Bi5 O41 2.395665 1_554
Bi5 O39 2.398891 1_545
Bi6 O35 2.331467 1_455
Bi6 O28 2.345295 1_455
Bi6 O42 2.347313 1_555
Bi6 O37 2.366007 1_556
Bi6 O46 2.367179 1_455
Bi6 O27 2.373953 1_555
Bi7 O36 2.331467 1_555
Bi7 O43 2.345295 1_555
Bi7 O29 2.347313 1_555
Bi7 O34 2.366007 1_555
Bi7 O26 2.367179 1_555
Bi7 O45 2.373953 1_555
O0 S11 1.488580 1_555
O1 S9 1.491135 1_555
O2 S11 1.488423 1_555
O3 S10 1.488891 1_555
O4 S0 1.485320 1_555
O5 S1 1.491423 1_555
O6 S1 1.483735 1_555
O7 S2 1.497788 1_455
O8 S2 1.486845 1_555
O9 S0 1.492569 1_555
O10 S2 1.482305 1_565
O11 S1 1.494920 1_555
O12 S3 1.494920 1_555
O13 S4 1.482305 1_545
O14 S5 1.492569 1_555
O15 S4 1.486845 1_555
O16 S3 1.483735 1_555
O17 S4 1.497788 1_555
O18 S3 1.491423 1_555
O19 S5 1.485320 1_554
O20 S6 1.488423 1_555
O21 S7 1.491135 1_555
O22 S8 1.488891 1_555
O23 S6 1.488580 1_556
O24 S5 1.488580 1_554
O25 S3 1.488891 1_555
O26 S4 1.491135 1_555
O27 S5 1.488423 1_555
O28 S6 1.485320 1_556
O29 S8 1.491423 1_555
O30 S7 1.497788 1_555
O31 S8 1.483735 1_555
O32 S7 1.486845 1_555
O33 S6 1.492569 1_555
O34 S7 1.482305 1_565
O35 S8 1.494920 1_555
O36 S10 1.494920 1_555
O37 S9 1.482305 1_545
O38 S11 1.492569 1_555
O39 S9 1.486845 1_555
O40 S9 1.497788 1_655
O41 S10 1.483735 1_555
O42 S10 1.491423 1_555
O43 S11 1.485320 1_555
O44 S1 1.488891 1_555
O45 S0 1.488423 1_555
O46 S2 1.491135 1_555
O47 S0 1.488580 1_555
