# generated using pymatgen
data_Li2V3SbO8
_symmetry_space_group_name_H-M   'P 1'
_cell_length_a   6.03905252
_cell_length_b   10.71300590
_cell_length_c   6.03898962
_cell_angle_alpha   73.66477487
_cell_angle_beta   60.02281139
_cell_angle_gamma   73.66541874
_symmetry_Int_Tables_number   1
_chemical_formula_structural   Li2V3SbO8
_chemical_formula_sum   'Li4 V6 Sb2 O16'
_cell_volume   320.08584849
_cell_formula_units_Z   2
loop_
 _symmetry_equiv_pos_site_id
 _symmetry_equiv_pos_as_xyz
  1  'x, y, z'
loop_
 _atom_site_type_symbol
 _atom_site_label
 _atom_site_symmetry_multiplicity
 _atom_site_fract_x
 _atom_site_fract_y
 _atom_site_fract_z
 _atom_site_occupancy
  Li  Li0  1  0.43459300  0.69626800  0.43459200  1
  Li  Li1  1  0.93457500  0.19628800  0.93457600  1
  Li  Li2  1  0.06542400  0.80371200  0.06542400  1
  Li  Li3  1  0.56540700  0.30373200  0.56540800  1
  V  V0  1  0.49999900  0.00000000  0.50000000  1
  V  V1  1  0.49999900  0.99999900  0.00000100  1
  V  V2  1  0.00000000  0.99999900  0.50000100  1
  V  V3  1  0.00000400  0.49999900  0.00000500  1
  V  V4  1  0.99999900  0.50000000  0.50000000  1
  V  V5  1  0.50000200  0.50000000  0.99999800  1
  Sb  Sb0  1  0.25005200  0.25006400  0.25005900  1
  Sb  Sb1  1  0.74994800  0.74993600  0.74994100  1
  O  O0  1  0.36707800  0.89875100  0.36707800  1
  O  O1  1  0.86709700  0.39871900  0.86709700  1
  O  O2  1  0.13290200  0.60128100  0.13290300  1
  O  O3  1  0.63292200  0.10124900  0.63292100  1
  O  O4  1  0.59386500  0.12375600  0.14117800  1
  O  O5  1  0.09383000  0.62375300  0.64111700  1
  O  O6  1  0.14116400  0.12376100  0.59386600  1
  O  O7  1  0.64110100  0.62375300  0.09382800  1
  O  O8  1  0.14118900  0.12377300  0.14118900  1
  O  O9  1  0.64110300  0.62393600  0.64108700  1
  O  O10  1  0.35889700  0.37606500  0.35891300  1
  O  O11  1  0.85881100  0.87622700  0.85881000  1
  O  O12  1  0.35889900  0.37624700  0.90617100  1
  O  O13  1  0.85883500  0.87623900  0.40613400  1
  O  O14  1  0.90617100  0.37624700  0.35888300  1
  O  O15  1  0.40613500  0.87624400  0.85882100  1
loop_
_geom_bond_atom_site_label_1
_geom_bond_atom_site_label_2
_geom_bond_distance
_geom_bond_site_symmetry_2
Li0 O9 2.043970 1_555
Li0 O5 2.045313 1_555
Li0 O7 2.045314 1_555
Li0 O0 2.051595 1_555
Li1 O6 2.045114 1_655
Li1 O8 2.045125 1_656
Li1 O4 2.045144 1_556
Li1 O1 2.051068 1_555
Li2 O13 2.045114 1_455
Li2 O11 2.045125 1_454
Li2 O15 2.045149 1_554
Li2 O2 2.051068 1_555
Li3 O10 2.043970 1_555
Li3 O12 2.045309 1_555
Li3 O14 2.045318 1_555
Li3 O3 2.051595 1_555
O0 V0 2.022048 1_565
O0 V1 2.023349 1_555
O0 V2 2.023389 1_555
O1 V3 2.022174 1_656
O1 V4 2.023560 1_555
O1 V5 2.023585 1_555
O2 V3 2.022105 1_555
O2 V4 2.023560 1_455
O2 V5 2.023608 1_554
O3 V0 2.022052 1_555
O3 V1 2.023370 1_546
O3 V2 2.023396 1_645
O4 Sb0 2.032296 1_555
O4 V1 2.085066 1_545
O4 V0 2.086581 1_555
O5 Sb1 2.031948 1_455
O5 V4 2.084630 1_455
O5 V3 2.086877 1_556
O6 Sb0 2.032212 1_555
O6 V2 2.085050 1_545
O6 V0 2.086696 1_555
O7 Sb1 2.031934 1_554
O7 V5 2.084548 1_554
O7 V3 2.086979 1_655
O8 Sb0 2.031647 1_555
O8 V2 2.086618 1_545
O8 V1 2.086645 1_545
O9 Sb1 2.028866 1_555
O9 V4 2.087739 1_555
O9 V5 2.087770 1_555
O10 Sb0 2.028876 1_555
O10 V4 2.087742 1_455
O10 V5 2.087782 1_554
O11 Sb1 2.031643 1_555
O11 V2 2.086597 1_655
O11 V1 2.086644 1_556
O12 Sb0 2.031938 1_556
O12 V5 2.084553 1_555
O12 V3 2.086931 1_556
O13 Sb1 2.032212 1_555
O13 V2 2.085045 1_655
O13 V0 2.086700 1_565
O14 Sb0 2.031944 1_655
O14 V4 2.084618 1_555
O14 V3 2.086821 1_655
O15 Sb1 2.032296 1_555
O15 V1 2.085053 1_556
O15 V0 2.086577 1_565
