# generated using pymatgen
data_Co9Cu3O16
_symmetry_space_group_name_H-M   'P 1'
_cell_length_a   5.80995544
_cell_length_b   5.80995544
_cell_length_c   8.20472700
_cell_angle_alpha   90.00000000
_cell_angle_beta   90.00000000
_cell_angle_gamma   89.09052608
_symmetry_Int_Tables_number   1
_chemical_formula_structural   Co9Cu3O16
_chemical_formula_sum   'Co9 Cu3 O16'
_cell_volume   276.92044641
_cell_formula_units_Z   1
loop_
 _symmetry_equiv_pos_site_id
 _symmetry_equiv_pos_as_xyz
  1  'x, y, z'
loop_
 _atom_site_type_symbol
 _atom_site_label
 _atom_site_symmetry_multiplicity
 _atom_site_fract_x
 _atom_site_fract_y
 _atom_site_fract_z
 _atom_site_occupancy
  Co  Co0  1  0.24921500  0.49974000  0.12715000  1
  Co  Co1  1  0.75078500  0.50026000  0.12715000  1
  Co  Co2  1  0.00026000  0.25078500  0.37285000  1
  Co  Co3  1  0.99974000  0.74921500  0.37285000  1
  Co  Co4  1  0.75169100  0.00026800  0.62238600  1
  Co  Co5  1  0.24830900  0.99973200  0.62238600  1
  Co  Co6  1  0.00000000  0.50000000  0.75000000  1
  Co  Co7  1  0.50026800  0.25169100  0.87761400  1
  Co  Co8  1  0.49973200  0.74830900  0.87761400  1
  Cu  Cu0  1  0.00000000  0.00000000  0.00096900  1
  Cu  Cu1  1  0.50000000  0.00000000  0.25000000  1
  Cu  Cu2  1  0.50000000  0.50000000  0.49903100  1
  O  O0  1  0.49614800  0.71920000  0.11391100  1
  O  O1  1  0.50385200  0.28080000  0.11391100  1
  O  O2  1  0.00346300  0.27951800  0.14087300  1
  O  O3  1  0.99653700  0.72048200  0.14087300  1
  O  O4  1  0.77951800  0.50346300  0.35912700  1
  O  O5  1  0.22048200  0.49653700  0.35912700  1
  O  O6  1  0.78080000  0.00385200  0.38608900  1
  O  O7  1  0.21920000  0.99614800  0.38608900  1
  O  O8  1  0.99636900  0.23022000  0.60922400  1
  O  O9  1  0.00363100  0.76978000  0.60922400  1
  O  O10  1  0.49583500  0.22953900  0.63667700  1
  O  O11  1  0.50416500  0.77046100  0.63667700  1
  O  O12  1  0.72953900  0.99583500  0.86332300  1
  O  O13  1  0.27046100  0.00416500  0.86332300  1
  O  O14  1  0.26978100  0.50363100  0.89077600  1
  O  O15  1  0.73022000  0.49636900  0.89077600  1
loop_
_geom_bond_atom_site_label_1
_geom_bond_atom_site_label_2
_geom_bond_distance
_geom_bond_site_symmetry_2
Co0 O5 1.910731 1_555
Co0 O2 1.935556 1_555
Co0 O3 1.937236 1_455
Co0 O0 1.937500 1_555
Co0 O1 1.938771 1_555
Co0 O14 1.943215 1_554
Co1 O4 1.910731 1_555
Co1 O3 1.935556 1_555
Co1 O2 1.937236 1_655
Co1 O1 1.937500 1_555
Co1 O0 1.938771 1_555
Co1 O15 1.943215 1_554
Co2 O2 1.910731 1_555
Co2 O5 1.935556 1_555
Co2 O4 1.937236 1_455
Co2 O6 1.937500 1_455
Co2 O7 1.938771 1_545
Co2 O8 1.943215 1_455
Co3 O3 1.910731 1_555
Co3 O4 1.935556 1_555
Co3 O5 1.937236 1_655
Co3 O7 1.937500 1_655
Co3 O6 1.938771 1_565
Co3 O9 1.943215 1_655
Co4 O6 1.946255 1_555
Co4 O8 1.969197 1_555
Co4 O9 1.971113 1_645
Co4 O12 1.981201 1_545
Co4 O11 1.981301 1_545
Co4 O10 1.983677 1_555
Co5 O7 1.946255 1_555
Co5 O9 1.969197 1_555
Co5 O8 1.971113 1_465
Co5 O13 1.981201 1_565
Co5 O10 1.981301 1_565
Co5 O11 1.983677 1_555
Co6 O15 1.947398 1_455
Co6 O9 1.947398 1_555
Co6 O8 1.947398 1_455
Co6 O14 1.947403 1_555
Co7 O1 1.946255 1_556
Co7 O15 1.969197 1_555
Co7 O14 1.971109 1_555
Co7 O10 1.981201 1_555
Co7 O13 1.981301 1_555
Co7 O12 1.983677 1_545
Co8 O0 1.946255 1_556
Co8 O14 1.969193 1_555
Co8 O15 1.971113 1_555
Co8 O11 1.981201 1_555
Co8 O12 1.981301 1_555
Co8 O13 1.983677 1_565
Cu0 O12 1.935565 1_444
Cu0 O13 1.935565 1_554
Cu0 O2 1.989068 1_555
Cu0 O3 1.989068 1_445
Cu1 O7 1.977366 1_545
Cu1 O1 1.977366 1_555
Cu1 O0 1.977366 1_545
Cu1 O6 1.977366 1_555
Cu2 O11 1.935565 1_555
Cu2 O10 1.935565 1_555
Cu2 O5 1.989068 1_555
Cu2 O4 1.989068 1_555
