# generated using pymatgen
data_MnO2
_symmetry_space_group_name_H-M   'P 1'
_cell_length_a   2.91973300
_cell_length_b   2.91973374
_cell_length_c   5.05818359
_cell_angle_alpha   106.04978082
_cell_angle_beta   90.70055697
_cell_angle_gamma   119.99032781
_symmetry_Int_Tables_number   1
_chemical_formula_structural   MnO2
_chemical_formula_sum   'Mn1 O2'
_cell_volume   35.30017112
_cell_formula_units_Z   1
loop_
 _symmetry_equiv_pos_site_id
 _symmetry_equiv_pos_as_xyz
  1  'x, y, z'
loop_
 _atom_site_type_symbol
 _atom_site_label
 _atom_site_symmetry_multiplicity
 _atom_site_fract_x
 _atom_site_fract_y
 _atom_site_fract_z
 _atom_site_occupancy
  Mn  Mn0  1  0.00000000  0.00000000  0.00000000  1
  O  O0  1  0.53756900  0.26525200  0.20113100  1
  O  O1  1  0.46243100  0.73474800  0.79886900  1
loop_
_geom_bond_atom_site_label_1
_geom_bond_atom_site_label_2
_geom_bond_distance
_geom_bond_site_symmetry_2
Mn0 O0 1.551901 1_555
Mn0 O1 1.551901 1_444
Mn0 O0 2.025108 1_455
Mn0 O1 2.025108 1_544
Mn0 O0 2.409340 1_445
Mn0 O1 2.409340 1_554
