# generated using pymatgen
data_Li2Cr(CO3)2
_symmetry_space_group_name_H-M   'P 1'
_cell_length_a   7.84752400
_cell_length_b   5.25310500
_cell_length_c   7.16021659
_cell_angle_alpha   64.90979692
_cell_angle_beta   90.00000000
_cell_angle_gamma   90.00000000
_symmetry_Int_Tables_number   1
_chemical_formula_structural   Li2Cr(CO3)2
_chemical_formula_sum   'Li4 Cr2 C4 O12'
_cell_volume   267.31979691
_cell_formula_units_Z   2
loop_
 _symmetry_equiv_pos_site_id
 _symmetry_equiv_pos_as_xyz
  1  'x, y, z'
loop_
 _atom_site_type_symbol
 _atom_site_label
 _atom_site_symmetry_multiplicity
 _atom_site_fract_x
 _atom_site_fract_y
 _atom_site_fract_z
 _atom_site_occupancy
  Li  Li0  1  0.92805100  0.09724300  0.27000200  1
  Li  Li1  1  0.42805100  0.90275700  0.22999800  1
  Li  Li2  1  0.57194900  0.09724300  0.77000200  1
  Li  Li3  1  0.07194900  0.90275700  0.72999800  1
  Cr  Cr0  1  0.50000000  0.50000000  0.00000000  1
  Cr  Cr1  1  0.00000000  0.50000000  0.50000000  1
  C  C0  1  0.27120600  0.34464600  0.34905200  1
  C  C1  1  0.77120600  0.65535400  0.15094800  1
  C  C2  1  0.22879400  0.34464600  0.84905200  1
  C  C3  1  0.72879400  0.65535400  0.65094800  1
  O  O0  1  0.12629700  0.20636400  0.40850200  1
  O  O1  1  0.89478400  0.76142600  0.21531000  1
  O  O2  1  0.39478400  0.23857400  0.28469000  1
  O  O3  1  0.62629700  0.79363600  0.09149800  1
  O  O4  1  0.28427700  0.58226000  0.35898500  1
  O  O5  1  0.78427700  0.41774000  0.14101500  1
  O  O6  1  0.21572300  0.58226000  0.85898500  1
  O  O7  1  0.71572300  0.41774000  0.64101500  1
  O  O8  1  0.37370300  0.20636400  0.90850200  1
  O  O9  1  0.60521600  0.76142600  0.71531000  1
  O  O10  1  0.10521600  0.23857400  0.78469000  1
  O  O11  1  0.87370300  0.79363600  0.59149800  1
loop_
_geom_bond_atom_site_label_1
_geom_bond_atom_site_label_2
_geom_bond_distance
_geom_bond_site_symmetry_2
Li0 O5 1.908346 1_555
Li0 O1 1.979742 1_545
Li0 O0 2.052917 1_655
Li0 O11 2.216077 1_545
Li1 O4 1.908346 1_555
Li1 O2 1.979742 1_565
Li1 O3 2.052917 1_555
Li1 O8 2.216077 1_564
Li2 O7 1.908346 1_555
Li2 O9 1.979742 1_545
Li2 O8 2.052917 1_555
Li2 O3 2.216077 1_546
Li3 O6 1.908346 1_555
Li3 O10 1.979742 1_565
Li3 O11 2.052917 1_455
Li3 O0 2.216077 1_565
Cr0 O9 2.085382 1_554
Cr0 O2 2.085382 1_555
Cr0 O3 2.155896 1_555
Cr0 O8 2.155896 1_554
Cr0 O5 2.411010 1_555
Cr0 O6 2.411010 1_554
Cr1 O10 2.085382 1_555
Cr1 O1 2.085382 1_455
Cr1 O0 2.155896 1_555
Cr1 O11 2.155896 1_455
Cr1 O4 2.411010 1_555
Cr1 O7 2.411010 1_455
C0 O4 1.284096 1_555
C0 O2 1.296577 1_555
C0 O0 1.319015 1_555
C1 O5 1.284096 1_555
C1 O1 1.296577 1_555
C1 O3 1.319015 1_555
C2 O6 1.284096 1_555
C2 O10 1.296577 1_555
C2 O8 1.319015 1_555
C3 O7 1.284096 1_555
C3 O9 1.296577 1_555
C3 O11 1.319015 1_555
