# generated using pymatgen
data_Ag2As2O7
_symmetry_space_group_name_H-M   'P 1'
_cell_length_a   13.76226800
_cell_length_b   6.33031700
_cell_length_c   8.13481208
_cell_angle_alpha   60.18176675
_cell_angle_beta   90.00000000
_cell_angle_gamma   90.00000000
_symmetry_Int_Tables_number   1
_chemical_formula_structural   Ag2As2O7
_chemical_formula_sum   'Ag8 As8 O28'
_cell_volume   614.87405838
_cell_formula_units_Z   4
loop_
 _symmetry_equiv_pos_site_id
 _symmetry_equiv_pos_as_xyz
  1  'x, y, z'
loop_
 _atom_site_type_symbol
 _atom_site_label
 _atom_site_symmetry_multiplicity
 _atom_site_fract_x
 _atom_site_fract_y
 _atom_site_fract_z
 _atom_site_occupancy
  Ag  Ag0  1  0.24113400  0.15215500  0.43496200  1
  Ag  Ag1  1  0.25886600  0.15215500  0.93496200  1
  Ag  Ag2  1  0.75886600  0.84784500  0.56503800  1
  Ag  Ag3  1  0.74113400  0.84784500  0.06503800  1
  Ag  Ag4  1  0.97981700  0.05803200  0.67665000  1
  Ag  Ag5  1  0.52018300  0.05803200  0.17665000  1
  Ag  Ag6  1  0.02018300  0.94196800  0.32335000  1
  Ag  Ag7  1  0.47981700  0.94196800  0.82335000  1
  As  As0  1  0.19733500  0.63941500  0.94777500  1
  As  As1  1  0.30266500  0.63941500  0.44777500  1
  As  As2  1  0.80266500  0.36058500  0.05222500  1
  As  As3  1  0.69733500  0.36058500  0.55222500  1
  As  As4  1  0.00238500  0.49993600  0.18221700  1
  As  As5  1  0.49761500  0.49993600  0.68221700  1
  As  As6  1  0.99761500  0.50006400  0.81778300  1
  As  As7  1  0.50238500  0.50006400  0.31778300  1
  O  O0  1  0.95862800  0.69510400  0.93212700  1
  O  O1  1  0.54137200  0.69510400  0.43212700  1
  O  O2  1  0.04137200  0.30489600  0.06787300  1
  O  O3  1  0.45862800  0.30489600  0.56787300  1
  O  O4  1  0.95934900  0.67756100  0.27644700  1
  O  O5  1  0.54065100  0.67756100  0.77644700  1
  O  O6  1  0.04065100  0.32243900  0.72355300  1
  O  O7  1  0.45934900  0.32243900  0.22355300  1
  O  O8  1  0.04592800  0.22040200  0.39745900  1
  O  O9  1  0.45407200  0.22040200  0.89745900  1
  O  O10  1  0.95407200  0.77959800  0.60254100  1
  O  O11  1  0.54592800  0.77959800  0.10254100  1
  O  O12  1  0.12642600  0.65544400  0.12168200  1
  O  O13  1  0.37357400  0.65544400  0.62168200  1
  O  O14  1  0.87357400  0.34455600  0.87831800  1
  O  O15  1  0.62642600  0.34455600  0.37831800  1
  O  O16  1  0.12521700  0.65641500  0.76372400  1
  O  O17  1  0.37478300  0.65641500  0.26372400  1
  O  O18  1  0.87478300  0.34358500  0.23627600  1
  O  O19  1  0.62521700  0.34358500  0.73627600  1
  O  O20  1  0.26325100  0.37591500  0.06010400  1
  O  O21  1  0.23674900  0.37591500  0.56010400  1
  O  O22  1  0.73674900  0.62408500  0.93989600  1
  O  O23  1  0.76325100  0.62408500  0.43989600  1
  O  O24  1  0.26702900  0.89860000  0.83581100  1
  O  O25  1  0.23297100  0.89860000  0.33581100  1
  O  O26  1  0.73297100  0.10140000  0.16418900  1
  O  O27  1  0.76702900  0.10140000  0.66418900  1
loop_
_geom_bond_atom_site_label_1
_geom_bond_atom_site_label_2
_geom_bond_distance
_geom_bond_site_symmetry_2
Ag0 O21 2.116700 1_555
Ag0 O25 2.127669 1_545
Ag0 O20 2.665004 1_555
Ag0 O8 2.714001 1_555
Ag1 O20 2.116700 1_556
Ag1 O24 2.127669 1_545
Ag1 O21 2.665004 1_555
Ag1 O9 2.714001 1_555
Ag2 O23 2.116700 1_555
Ag2 O27 2.127669 1_565
Ag2 O22 2.665004 1_555
Ag2 O10 2.714001 1_555
Ag3 O22 2.116700 1_554
Ag3 O26 2.127669 1_565
Ag3 O23 2.665004 1_555
Ag3 O11 2.714001 1_555
Ag4 O6 2.069579 1_655
Ag4 O10 2.156942 1_545
Ag4 O8 2.172762 1_655
Ag4 O0 2.221268 1_545
Ag5 O7 2.069579 1_555
Ag5 O11 2.156942 1_545
Ag5 O9 2.172762 1_554
Ag5 O1 2.221268 1_545
Ag6 O4 2.069579 1_455
Ag6 O8 2.156942 1_565
Ag6 O10 2.172762 1_455
Ag6 O2 2.221268 1_565
Ag7 O5 2.069579 1_555
Ag7 O9 2.156942 1_565
Ag7 O11 2.172762 1_556
Ag7 O3 2.221268 1_565
As0 O20 1.710098 1_556
As0 O24 1.719111 1_555
As0 O16 1.754447 1_555
As0 O12 1.762598 1_556
As1 O21 1.710098 1_555
As1 O25 1.719111 1_555
As1 O17 1.754447 1_555
As1 O13 1.762598 1_555
As2 O22 1.710098 1_554
As2 O26 1.719111 1_555
As2 O18 1.754447 1_555
As2 O14 1.762598 1_554
As3 O23 1.710098 1_555
As3 O27 1.719111 1_555
As3 O19 1.754447 1_555
As3 O15 1.762598 1_555
As4 O4 1.749251 1_455
As4 O8 1.864099 1_555
As4 O0 1.878375 1_454
As4 O12 1.908825 1_555
As4 O2 1.954385 1_555
As4 O18 1.955505 1_455
As5 O5 1.749251 1_555
As5 O9 1.864099 1_555
As5 O1 1.878375 1_555
As5 O13 1.908825 1_555
As5 O3 1.954385 1_555
As5 O19 1.955505 1_555
As6 O6 1.749251 1_655
As6 O10 1.864099 1_555
As6 O2 1.878375 1_656
As6 O14 1.908825 1_555
As6 O0 1.954385 1_555
As6 O16 1.955505 1_655
As7 O7 1.749251 1_555
As7 O11 1.864099 1_555
As7 O3 1.878375 1_555
As7 O15 1.908825 1_555
As7 O1 1.954385 1_555
As7 O17 1.955505 1_555
