# generated using pymatgen
data_LiMn3Al2(HO2)6
_symmetry_space_group_name_H-M   'P 1'
_cell_length_a   5.96669700
_cell_length_b   7.85626947
_cell_length_c   9.67442809
_cell_angle_alpha   82.89004518
_cell_angle_beta   80.69888104
_cell_angle_gamma   77.89990987
_symmetry_Int_Tables_number   1
_chemical_formula_structural   LiMn3Al2(HO2)6
_chemical_formula_sum   'Li2 Mn6 Al4 H12 O24'
_cell_volume   435.68990173
_cell_formula_units_Z   2
loop_
 _symmetry_equiv_pos_site_id
 _symmetry_equiv_pos_as_xyz
  1  'x, y, z'
loop_
 _atom_site_type_symbol
 _atom_site_label
 _atom_site_symmetry_multiplicity
 _atom_site_fract_x
 _atom_site_fract_y
 _atom_site_fract_z
 _atom_site_occupancy
  Li  Li0  1  0.84283000  0.65490100  0.99961300  1
  Li  Li1  1  0.15717000  0.34509900  0.00038700  1
  Mn  Mn0  1  0.66398900  0.83368100  0.49763900  1
  Mn  Mn1  1  0.83576200  0.16613900  0.50109100  1
  Mn  Mn2  1  0.16423800  0.83386100  0.49890900  1
  Mn  Mn3  1  0.00000000  0.50000000  0.50000000  1
  Mn  Mn4  1  0.33601100  0.16631900  0.50236100  1
  Mn  Mn5  1  0.50000000  0.50000000  0.50000000  1
  Al  Al0  1  0.66884300  0.33888300  0.00237100  1
  Al  Al1  1  0.00000000  0.00000000  0.00000000  1
  Al  Al2  1  0.50000000  0.00000000  0.00000000  1
  Al  Al3  1  0.33115700  0.66111700  0.99762900  1
  H  H0  1  0.82256500  0.92191000  0.79625800  1
  H  H1  1  0.67096700  0.08240300  0.21302900  1
  H  H2  1  0.98256400  0.23905300  0.79487800  1
  H  H3  1  0.82174200  0.41409600  0.20933400  1
  H  H4  1  0.32903300  0.91759700  0.78697100  1
  H  H5  1  0.17825800  0.58590400  0.79066600  1
  H  H6  1  0.17743500  0.07809000  0.20374200  1
  H  H7  1  0.01743600  0.76094700  0.20512200  1
  H  H8  1  0.50332900  0.24100300  0.80077000  1
  H  H9  1  0.35458400  0.42860800  0.20959900  1
  H  H10  1  0.64541600  0.57139200  0.79040100  1
  H  H11  1  0.49667100  0.75899700  0.19923000  1
  O  O0  1  0.69594100  0.59804200  0.60329800  1
  O  O1  1  0.86011400  0.92751500  0.59909600  1
  O  O2  1  0.79766700  0.91660700  0.89970700  1
  O  O3  1  0.69632500  0.09334900  0.10741400  1
  O  O4  1  0.05265700  0.27578000  0.60939800  1
  O  O5  1  0.95077200  0.22325400  0.89884600  1
  O  O6  1  0.80190600  0.40332700  0.40156900  1
  O  O7  1  0.84837300  0.41611100  0.10703100  1
  O  O8  1  0.30367500  0.90665100  0.89258600  1
  O  O9  1  0.15162700  0.58388900  0.89296900  1
  O  O10  1  0.19809400  0.59667300  0.59843100  1
  O  O11  1  0.38172800  0.94293000  0.61009900  1
  O  O12  1  0.94734300  0.72422000  0.39060200  1
  O  O13  1  0.04922800  0.77674600  0.10115400  1
  O  O14  1  0.20233300  0.08339300  0.10029300  1
  O  O15  1  0.13988600  0.07248500  0.40090400  1
  O  O16  1  0.48542900  0.22553300  0.90412100  1
  O  O17  1  0.53221400  0.26658900  0.60122400  1
  O  O18  1  0.38055400  0.44222100  0.10600500  1
  O  O19  1  0.30405900  0.40195800  0.39670200  1
  O  O20  1  0.61944600  0.55777900  0.89399500  1
  O  O21  1  0.61827200  0.05707000  0.38990100  1
  O  O22  1  0.51457100  0.77446700  0.09587900  1
  O  O23  1  0.46778600  0.73341100  0.39877600  1
loop_
_geom_bond_atom_site_label_1
_geom_bond_atom_site_label_2
_geom_bond_distance
_geom_bond_site_symmetry_2
Li0 O9 1.966611 1_655
Li0 O7 2.025564 1_556
Li0 O22 2.107492 1_556
Li0 O20 2.112436 1_555
Li0 O13 2.125095 1_656
Li0 O2 2.143374 1_555
Li1 O7 1.966611 1_455
Li1 O9 2.025564 1_554
Li1 O16 2.107492 1_554
Li1 O18 2.112436 1_555
Li1 O5 2.125095 1_454
Li1 O14 2.143374 1_555
Mn0 O21 1.918130 1_565
Mn0 O12 1.927494 1_555
Mn0 O1 1.946366 1_555
Mn0 O11 1.946700 1_555
Mn0 O23 1.959822 1_555
Mn0 O0 1.988696 1_555
Mn1 O15 1.954968 1_655
Mn1 O17 1.965822 1_555
Mn1 O6 1.975110 1_555
Mn1 O1 1.981133 1_545
Mn1 O4 2.154941 1_655
Mn1 O21 2.172779 1_555
Mn2 O1 1.954968 1_455
Mn2 O23 1.965822 1_555
Mn2 O10 1.975110 1_555
Mn2 O15 1.981133 1_565
Mn2 O12 2.154941 1_455
Mn2 O11 2.172779 1_555
Mn3 O4 1.932819 1_555
Mn3 O12 1.932819 1_455
Mn3 O10 1.949330 1_555
Mn3 O6 1.949330 1_455
Mn3 O19 1.975358 1_555
Mn3 O0 1.975358 1_455
Mn4 O11 1.918130 1_545
Mn4 O4 1.927494 1_555
Mn4 O15 1.946366 1_555
Mn4 O21 1.946700 1_555
Mn4 O17 1.959822 1_555
Mn4 O19 1.988696 1_555
Mn5 O10 1.944112 1_555
Mn5 O6 1.944112 1_555
Mn5 O23 1.956294 1_555
Mn5 O17 1.956294 1_555
Mn5 O0 1.975997 1_555
Mn5 O19 1.975997 1_555
Al0 O7 1.820973 1_555
Al0 O20 1.893306 1_554
Al0 O18 1.918782 1_555
Al0 O5 1.923025 1_554
Al0 O16 1.961756 1_554
Al0 O3 2.053430 1_555
Al1 O5 1.890053 1_454
Al1 O13 1.890053 1_545
Al1 O14 1.922433 1_555
Al1 O2 1.922433 1_444
Al1 O8 1.980843 1_544
Al1 O3 1.980843 1_455
Al2 O16 1.887335 1_554
Al2 O22 1.887335 1_545
Al2 O2 1.907259 1_544
Al2 O14 1.907259 1_555
Al2 O3 1.982983 1_555
Al2 O8 1.982983 1_544
Al3 O9 1.820973 1_555
Al3 O18 1.893306 1_556
Al3 O20 1.918782 1_555
Al3 O13 1.923025 1_556
Al3 O22 1.961756 1_556
Al3 O8 2.053430 1_555
H0 O2 0.984703 1_555
H1 O3 1.004003 1_555
H1 O21 1.683589 1_555
H2 O5 0.990139 1_555
H3 O7 0.975393 1_555
H4 O8 1.004003 1_555
H4 O11 1.683589 1_555
H5 O9 0.975393 1_555
H6 O14 0.984703 1_555
H7 O13 0.990139 1_555
H8 O16 0.983231 1_555
H9 O18 0.984934 1_555
H10 O20 0.984934 1_555
H11 O22 0.983231 1_555
