# generated using pymatgen
data_SrLaI5
_symmetry_space_group_name_H-M   'P 1'
_cell_length_a   4.68622100
_cell_length_b   9.34484700
_cell_length_c   15.07886123
_cell_angle_alpha   87.62173887
_cell_angle_beta   90.00000000
_cell_angle_gamma   90.00000000
_symmetry_Int_Tables_number   1
_chemical_formula_structural   SrLaI5
_chemical_formula_sum   'Sr2 La2 I10'
_cell_volume   659.76498542
_cell_formula_units_Z   2
loop_
 _symmetry_equiv_pos_site_id
 _symmetry_equiv_pos_as_xyz
  1  'x, y, z'
loop_
 _atom_site_type_symbol
 _atom_site_label
 _atom_site_symmetry_multiplicity
 _atom_site_fract_x
 _atom_site_fract_y
 _atom_site_fract_z
 _atom_site_occupancy
  Sr  Sr0  1  0.75000000  0.08170600  0.85851900  1
  Sr  Sr1  1  0.25000000  0.91829400  0.14148100  1
  La  La0  1  0.25000000  0.41863700  0.65343800  1
  La  La1  1  0.75000000  0.58136300  0.34656200  1
  I  I0  1  0.25000000  0.07489000  0.67971700  1
  I  I1  1  0.75000000  0.14873700  0.07510500  1
  I  I2  1  0.75000000  0.32008400  0.51449300  1
  I  I3  1  0.25000000  0.35171700  0.86536500  1
  I  I4  1  0.25000000  0.37220600  0.28912800  1
  I  I5  1  0.75000000  0.62779400  0.71087200  1
  I  I6  1  0.75000000  0.64828300  0.13463500  1
  I  I7  1  0.25000000  0.67991600  0.48550700  1
  I  I8  1  0.25000000  0.85126300  0.92489500  1
  I  I9  1  0.75000000  0.92511000  0.32028300  1
loop_
_geom_bond_atom_site_label_1
_geom_bond_atom_site_label_2
_geom_bond_distance
_geom_bond_site_symmetry_2
I0 La0 3.220251 1_555
I0 Sr0 3.574576 1_555
I0 Sr0 3.574576 1_455
I1 Sr1 3.309140 1_545
I1 Sr1 3.309140 1_645
I1 Sr0 3.350830 1_554
I2 La0 3.299706 1_555
I2 La0 3.299706 1_655
I2 La1 3.443897 1_555
I3 La0 3.230664 1_555
I3 Sr0 3.448048 1_455
I3 Sr0 3.448048 1_555
I4 La1 3.193885 1_555
I4 La1 3.193885 1_455
I5 La0 3.193885 1_655
I5 La0 3.193885 1_555
I6 La1 3.230664 1_555
I6 Sr1 3.448048 1_555
I6 Sr1 3.448048 1_655
I7 La1 3.299706 1_555
I7 La1 3.299706 1_455
I7 La0 3.443897 1_555
I8 Sr0 3.309140 1_565
I8 Sr0 3.309140 1_465
I8 Sr1 3.350830 1_556
I9 La1 3.220251 1_555
I9 Sr1 3.574576 1_555
I9 Sr1 3.574576 1_655
