# generated using pymatgen
data_YTmO3
_symmetry_space_group_name_H-M   'P 1'
_cell_length_a   9.08893170
_cell_length_b   9.08893170
_cell_length_c   10.49381613
_cell_angle_alpha   54.73571962
_cell_angle_beta   54.73571962
_cell_angle_gamma   70.53574568
_symmetry_Int_Tables_number   1
_chemical_formula_structural   YTmO3
_chemical_formula_sum   'Y8 Tm8 O24'
_cell_volume   577.92174598
_cell_formula_units_Z   8
loop_
 _symmetry_equiv_pos_site_id
 _symmetry_equiv_pos_as_xyz
  1  'x, y, z'
loop_
 _atom_site_type_symbol
 _atom_site_label
 _atom_site_symmetry_multiplicity
 _atom_site_fract_x
 _atom_site_fract_y
 _atom_site_fract_z
 _atom_site_occupancy
  Y  Y0  1  0.00068623  0.50046549  0.75021039  1
  Y  Y1  1  0.25001254  0.24944896  0.46859589  1
  Y  Y2  1  0.75055104  0.74998746  0.53140411  1
  Y  Y3  1  0.46743378  0.53256622  -0.00000000  1
  Y  Y4  1  0.96841044  0.03158956  -0.00000000  1
  Y  Y5  1  0.99862724  0.49775479  0.25006786  1
  Y  Y6  1  0.49953451  0.99931377  0.24978961  1
  Y  Y7  1  0.50224521  0.00137276  0.74993214  1
  Tm  Tm0  1  0.78181351  0.28148756  0.71744184  1
  Tm  Tm1  1  0.28374863  0.78344246  0.21732668  1
  Tm  Tm2  1  0.71851244  0.21818649  0.28255816  1
  Tm  Tm3  1  0.53226034  0.46773966  0.50000000  1
  Tm  Tm4  1  0.03315195  0.96684805  0.50000000  1
  Tm  Tm5  1  0.74998119  0.74950212  0.03247823  1
  Tm  Tm6  1  0.25049788  0.25001881  0.96752177  1
  Tm  Tm7  1  0.21655754  0.71625137  0.78267332  1
  O  O0  1  0.51412818  0.27073810  0.20815764  1
  O  O1  1  0.72926190  0.48587182  0.79184236  1
  O  O2  1  0.95612030  0.74198423  0.78140941  1
  O  O3  1  0.75802100  0.54007328  0.47946046  1
  O  O4  1  0.73897624  0.95955475  0.28104619  1
  O  O5  1  0.54411382  0.76092766  0.97973443  1
  O  O6  1  0.98596327  0.22541268  0.49305785  1
  O  O7  1  0.77458732  0.01403673  0.50694215  1
  O  O8  1  0.72814449  0.03011153  0.97606770  1
  O  O9  1  0.46510193  0.77329023  0.73861863  1
  O  O10  1  0.96988847  0.27185551  0.02393230  1
  O  O11  1  0.22670977  0.53489807  0.26138137  1
  O  O12  1  0.76825260  0.46939287  0.23798377  1
  O  O13  1  0.53060713  0.23174740  0.76201623  1
  O  O14  1  0.26949440  0.96468933  0.52335214  1
  O  O15  1  0.03531067  0.73050560  0.47664786  1
  O  O16  1  0.23029707  0.98846091  0.99190237  1
  O  O17  1  0.01153909  0.76970293  0.00809763  1
  O  O18  1  0.25801577  0.04387970  0.21859059  1
  O  O19  1  0.45992672  0.24197900  0.52053954  1
  O  O20  1  0.04044525  0.26102376  0.71895381  1
  O  O21  1  0.23907234  0.45588618  0.02026557  1
  O  O22  1  0.48841243  0.72641365  0.29322886  1
  O  O23  1  0.27358635  0.51158757  0.70677114  1
loop_
_geom_bond_atom_site_label_1
_geom_bond_atom_site_label_2
_geom_bond_distance
_geom_bond_site_symmetry_2
O0 Tm2 2.222902 1_555
O0 Y3 2.238245 1_555
O0 Y6 2.280571 1_545
O0 Y1 2.322199 1_555
O1 Tm0 2.222902 1_555
O1 Y3 2.238245 1_556
O1 Y0 2.280571 1_655
O1 Y2 2.322199 1_555
O2 Tm5 2.208874 1_556
O2 Tm4 2.232699 1_655
O2 Y0 2.274664 1_655
O2 Tm7 2.306889 1_655
O3 Tm3 2.216706 1_555
O3 Y2 2.239104 1_555
O3 Y5 2.270439 1_555
O3 Tm0 2.305361 1_555
O4 Y2 2.224558 1_555
O4 Y4 2.248106 1_565
O4 Y6 2.266626 1_555
O4 Tm2 2.304095 1_565
O5 Tm5 2.195034 1_556
O5 Y3 2.263209 1_556
O5 Y7 2.270716 1_565
O5 Tm1 2.304725 1_556
O6 Tm4 2.208797 1_645
O6 Tm0 2.226555 1_555
O6 Y5 2.281474 1_555
O6 Y1 2.333786 1_655
O7 Tm4 2.208797 1_645
O7 Tm2 2.226555 1_555
O7 Y7 2.281474 1_555
O7 Y2 2.333786 1_545
O8 Tm0 2.208561 1_555
O8 Tm5 2.224759 1_546
O8 Y6 2.283399 1_546
O8 Y4 2.342815 1_556
O9 Tm7 2.209845 1_555
O9 Y2 2.270593 1_555
O9 Y7 2.285250 1_565
O9 Y3 2.327555 1_556
O10 Tm2 2.208561 1_555
O10 Tm6 2.224759 1_654
O10 Y0 2.283399 1_654
O10 Y4 2.342815 1_555
O11 Tm1 2.209845 1_555
O11 Y1 2.270593 1_555
O11 Y5 2.285250 1_455
O11 Y3 2.327555 1_555
O12 Tm2 2.201521 1_555
O12 Tm5 2.225292 1_555
O12 Y5 2.273946 1_555
O12 Tm3 2.307553 1_555
O13 Tm0 2.201521 1_555
O13 Tm6 2.225292 1_555
O13 Y7 2.273946 1_555
O13 Tm3 2.307553 1_555
O14 Tm7 2.202819 1_555
O14 Y1 2.270450 1_565
O14 Y6 2.275134 1_555
O14 Tm4 2.291061 1_555
O15 Tm1 2.202819 1_555
O15 Y2 2.270450 1_455
O15 Y0 2.275134 1_555
O15 Tm4 2.291061 1_555
O16 Tm1 2.222155 1_556
O16 Y4 2.238226 1_466
O16 Y7 2.274381 1_565
O16 Tm6 2.298907 1_565
O17 Tm7 2.222155 1_554
O17 Y4 2.238226 1_465
O17 Y5 2.274381 1_455
O17 Tm5 2.298907 1_455
O18 Tm6 2.208874 1_554
O18 Tm4 2.232699 1_545
O18 Y6 2.274664 1_545
O18 Tm1 2.306889 1_545
O19 Tm3 2.216706 1_555
O19 Y1 2.239104 1_555
O19 Y7 2.270439 1_555
O19 Tm2 2.305361 1_555
O20 Y1 2.224558 1_555
O20 Y4 2.248106 1_456
O20 Y0 2.266626 1_555
O20 Tm0 2.304095 1_455
O21 Tm6 2.195034 1_554
O21 Y3 2.263209 1_555
O21 Y5 2.270716 1_455
O21 Tm7 2.304725 1_554
O22 Tm3 2.208615 1_555
O22 Tm1 2.225958 1_555
O22 Y6 2.275647 1_555
O22 Tm5 2.311084 1_555
O23 Tm3 2.208615 1_555
O23 Tm7 2.225958 1_555
O23 Y0 2.275647 1_555
O23 Tm6 2.311084 1_555
