# generated using pymatgen
data_Li13Ti28O56
_symmetry_space_group_name_H-M   'P 1'
_cell_length_a   10.36488264
_cell_length_b   10.36488264
_cell_length_c   10.36488284
_cell_angle_alpha   99.53996137
_cell_angle_beta   99.53996137
_cell_angle_gamma   99.53996257
_symmetry_Int_Tables_number   1
_chemical_formula_structural   Li13Ti28O56
_chemical_formula_sum   'Li13 Ti28 O56'
_cell_volume   1061.33706863
_cell_formula_units_Z   1
loop_
 _symmetry_equiv_pos_site_id
 _symmetry_equiv_pos_as_xyz
  1  'x, y, z'
loop_
 _atom_site_type_symbol
 _atom_site_label
 _atom_site_symmetry_multiplicity
 _atom_site_fract_x
 _atom_site_fract_y
 _atom_site_fract_z
 _atom_site_occupancy
  Li  Li0  1  0.87524200  0.30275700  0.01769800  1
  Li  Li1  1  0.12502100  0.55362200  0.26783200  1
  Li  Li2  1  0.55362200  0.26783200  0.12502100  1
  Li  Li3  1  0.01769800  0.87524200  0.30275700  1
  Li  Li4  1  0.58928400  0.16051400  0.44632600  1
  Li  Li5  1  0.44632600  0.58928400  0.16051400  1
  Li  Li6  1  0.69652600  0.83941400  0.41074000  1
  Li  Li7  1  0.83941400  0.41074000  0.69652600  1
  Li  Li8  1  0.26783200  0.12502100  0.55362200  1
  Li  Li9  1  0.30275700  0.01769800  0.87524200  1
  Li  Li10  1  0.73283000  0.73283000  0.73283000  1
  Li  Li11  1  0.16051400  0.44632600  0.58928400  1
  Li  Li12  1  0.41074000  0.69652600  0.83941400  1
  Ti  Ti0  1  0.92955000  0.64494500  0.99957000  1
  Ti  Ti1  1  0.64316700  0.49991600  0.92926300  1
  Ti  Ti2  1  0.07156300  0.21303300  0.28368200  1
  Ti  Ti3  1  0.78643100  0.07041700  0.21229100  1
  Ti  Ti4  1  0.78538500  0.57118600  0.21373100  1
  Ti  Ti5  1  0.71567400  0.78744900  0.07085500  1
  Ti  Ti6  1  0.64494500  0.99957000  0.92955000  1
  Ti  Ti7  1  0.21303300  0.28368200  0.07156300  1
  Ti  Ti8  1  0.28368200  0.07156300  0.21303300  1
  Ti  Ti9  1  0.85731900  0.35681200  0.35752500  1
  Ti  Ti10  1  0.14330700  0.50001700  0.92841300  1
  Ti  Ti11  1  0.92841300  0.14330700  0.50001700  1
  Ti  Ti12  1  0.21229100  0.78643100  0.07041700  1
  Ti  Ti13  1  0.50001700  0.92841300  0.14330700  1
  Ti  Ti14  1  0.07041700  0.21229100  0.78643100  1
  Ti  Ti15  1  0.78744900  0.07085500  0.71567400  1
  Ti  Ti16  1  0.92926300  0.64316700  0.49991600  1
  Ti  Ti17  1  0.35688000  0.35688000  0.35688000  1
  Ti  Ti18  1  0.64302200  0.50009600  0.42858400  1
  Ti  Ti19  1  0.35752500  0.85731900  0.35681200  1
  Ti  Ti20  1  0.42858400  0.64302200  0.50009600  1
  Ti  Ti21  1  0.50009600  0.42858400  0.64302200  1
  Ti  Ti22  1  0.57118600  0.21373100  0.78538500  1
  Ti  Ti23  1  0.99957000  0.92955000  0.64494500  1
  Ti  Ti24  1  0.07085500  0.71567400  0.78744900  1
  Ti  Ti25  1  0.49991600  0.92926300  0.64316700  1
  Ti  Ti26  1  0.35681200  0.35752500  0.85731900  1
  Ti  Ti27  1  0.21373100  0.78538500  0.57118600  1
  O  O0  1  0.05188500  0.32340900  0.95861800  1
  O  O1  1  0.12308600  0.12308600  0.12308600  1
  O  O2  1  0.10557600  0.61221000  0.09129100  1
  O  O3  1  0.53392100  0.32694400  0.94815300  1
  O  O4  1  0.04277500  0.80107400  0.96220900  1
  O  O5  1  0.61221000  0.09129100  0.10557600  1
  O  O6  1  0.81572300  0.48027300  0.03745000  1
  O  O7  1  0.89435600  0.24470200  0.19483800  1
  O  O8  1  0.95861800  0.05188500  0.32340900  1
  O  O9  1  0.76621700  0.18041500  0.38743100  1
  O  O10  1  0.88025300  0.73728200  0.16615800  1
  O  O11  1  0.45183500  0.02298700  0.30888800  1
  O  O12  1  0.62327500  0.60870400  0.10166900  1
  O  O13  1  0.02298700  0.30888800  0.45183500  1
  O  O14  1  0.30888800  0.45183500  0.02298700  1
  O  O15  1  0.69107400  0.40534600  0.26252600  1
  O  O16  1  0.54769000  0.83368100  0.97666200  1
  O  O17  1  0.09129100  0.10557600  0.61221000  1
  O  O18  1  0.94815300  0.53392100  0.32694400  1
  O  O19  1  0.80107400  0.96220900  0.04277500  1
  O  O20  1  0.37740100  0.24872200  0.18422300  1
  O  O21  1  0.75552900  0.66245900  0.39116200  1
  O  O22  1  0.96220900  0.04277500  0.80107400  1
  O  O23  1  0.24872200  0.18422300  0.37740100  1
  O  O24  1  0.81971900  0.46991100  0.51966500  1
  O  O25  1  0.89822000  0.23438800  0.67662100  1
  O  O26  1  0.18422300  0.37740100  0.24872200  1
  O  O27  1  0.67662100  0.89822000  0.23438800  1
  O  O28  1  0.60870400  0.10166900  0.62327500  1
  O  O29  1  0.03745000  0.81572300  0.48027300  1
  O  O30  1  0.46608100  0.53023700  0.33758500  1
  O  O31  1  0.38743100  0.76621700  0.18041500  1
  O  O32  1  0.32340900  0.95861800  0.05188500  1
  O  O33  1  0.10166900  0.62327500  0.60870400  1
  O  O34  1  0.53023700  0.33758500  0.46608100  1
  O  O35  1  0.73728200  0.16615800  0.88025300  1
  O  O36  1  0.90884300  0.75148000  0.67274600  1
  O  O37  1  0.19483800  0.89435600  0.24470200  1
  O  O38  1  0.33758500  0.46608100  0.53023700  1
  O  O39  1  0.48027300  0.03745000  0.81572300  1
  O  O40  1  0.59469500  0.59469500  0.59469500  1
  O  O41  1  0.51966500  0.81971900  0.46991100  1
  O  O42  1  0.40534600  0.26252600  0.69107400  1
  O  O43  1  0.26252600  0.69107400  0.40534600  1
  O  O44  1  0.83368100  0.97666200  0.54769000  1
  O  O45  1  0.97666200  0.54769000  0.83368100  1
  O  O46  1  0.66245900  0.39116200  0.75552900  1
  O  O47  1  0.39116200  0.75552900  0.66245900  1
  O  O48  1  0.46991100  0.51966500  0.81971900  1
  O  O49  1  0.32694400  0.94815300  0.53392100  1
  O  O50  1  0.67274600  0.90884300  0.75148000  1
  O  O51  1  0.18041500  0.38743100  0.76621700  1
  O  O52  1  0.24470200  0.19483800  0.89435600  1
  O  O53  1  0.75148000  0.67274600  0.90884300  1
  O  O54  1  0.16615800  0.88025300  0.73728200  1
  O  O55  1  0.23438800  0.67662100  0.89822000  1
loop_
_geom_bond_atom_site_label_1
_geom_bond_atom_site_label_2
_geom_bond_distance
_geom_bond_site_symmetry_2
Li0 O7 2.014327 1_555
Li0 O0 2.014475 1_654
Li0 O35 2.015912 1_554
Li0 O6 2.025114 1_555
Li1 O26 2.010915 1_555
Li1 O2 2.011043 1_555
Li1 O18 2.016794 1_455
Li1 O43 2.018168 1_555
Li2 O20 2.010915 1_555
Li2 O5 2.011043 1_555
Li2 O3 2.016794 1_554
Li2 O15 2.018168 1_555
Li3 O37 2.014327 1_555
Li3 O8 2.014475 1_465
Li3 O10 2.015912 1_455
Li3 O29 2.025114 1_555
Li4 O28 2.016283 1_555
Li4 O9 2.016373 1_555
Li4 O11 2.017889 1_555
Li4 O34 2.018461 1_555
Li5 O12 2.016283 1_555
Li5 O31 2.016373 1_555
Li5 O14 2.017889 1_555
Li5 O30 2.018461 1_555
Li6 O27 2.010263 1_555
Li6 O44 2.012699 1_555
Li6 O41 2.017014 1_555
Li6 O21 2.017112 1_555
Li7 O25 2.010263 1_555
Li7 O45 2.012699 1_555
Li7 O24 2.017014 1_555
Li7 O46 2.017112 1_555
Li8 O23 2.010915 1_555
Li8 O17 2.011043 1_555
Li8 O49 2.016794 1_545
Li8 O42 2.018168 1_555
Li9 O52 2.014327 1_555
Li9 O32 2.014475 1_546
Li9 O54 2.015912 1_545
Li9 O39 2.025114 1_555
Li10 O36 2.013225 1_555
Li10 O50 2.013225 1_555
Li10 O53 2.013225 1_555
Li10 O40 2.027631 1_555
Li11 O33 2.016283 1_555
Li11 O51 2.016373 1_555
Li11 O13 2.017889 1_555
Li11 O38 2.018461 1_555
Li12 O55 2.010263 1_555
Li12 O16 2.012699 1_555
Li12 O48 2.017014 1_555
Li12 O47 2.017112 1_555
O0 Ti14 2.013490 1_555
O0 Ti10 2.014960 1_555
O0 Ti7 2.017289 1_556
O1 Ti7 1.967332 1_555
O1 Ti8 1.967332 1_555
O1 Ti2 1.967332 1_555
O2 Ti10 2.018444 1_554
O2 Ti12 2.019368 1_555
O2 Ti0 2.021100 1_454
O3 Ti1 2.012878 1_555
O3 Ti26 2.018815 1_555
O3 Ti22 2.020491 1_555
O4 Ti12 1.964600 1_556
O4 Ti0 1.968456 1_455
O4 Ti24 1.969250 1_555
O5 Ti13 2.018444 1_545
O5 Ti3 2.019368 1_555
O5 Ti6 2.021100 1_544
O6 Ti1 2.007306 1_554
O6 Ti4 2.010768 1_555
O6 Ti0 2.041437 1_554
O7 Ti3 2.013175 1_555
O7 Ti9 2.013441 1_555
O7 Ti2 2.017101 1_655
O8 Ti3 2.013490 1_555
O8 Ti11 2.014960 1_555
O8 Ti2 2.017289 1_655
O9 Ti9 2.010755 1_555
O9 Ti11 2.012150 1_555
O9 Ti3 2.039194 1_555
O10 Ti4 2.013647 1_555
O10 Ti5 2.015380 1_555
O10 Ti0 2.016232 1_554
O11 Ti19 2.009501 1_545
O11 Ti13 2.011081 1_545
O11 Ti8 2.039840 1_555
O12 Ti1 2.009597 1_554
O12 Ti4 2.010711 1_555
O12 Ti5 2.039849 1_555
O13 Ti9 2.009501 1_455
O13 Ti11 2.011081 1_455
O13 Ti2 2.039840 1_555
O14 Ti26 2.009501 1_554
O14 Ti10 2.011081 1_554
O14 Ti7 2.039840 1_555
O15 Ti18 2.015179 1_555
O15 Ti4 2.015210 1_555
O15 Ti9 2.020105 1_555
O16 Ti13 2.018225 1_556
O16 Ti6 2.019391 1_555
O16 Ti5 2.020521 1_556
O17 Ti11 2.018444 1_455
O17 Ti14 2.019368 1_555
O17 Ti23 2.021100 1_445
O18 Ti16 2.012878 1_555
O18 Ti9 2.018815 1_555
O18 Ti4 2.020491 1_555
O19 Ti3 1.964600 1_565
O19 Ti6 1.968457 1_554
O19 Ti5 1.969250 1_555
O20 Ti17 2.011158 1_555
O20 Ti7 2.020581 1_555
O20 Ti8 2.022664 1_555
O21 Ti18 2.014486 1_555
O21 Ti16 2.018537 1_555
O21 Ti4 2.020356 1_555
O22 Ti14 1.964600 1_655
O22 Ti23 1.968457 1_545
O22 Ti15 1.969250 1_555
O23 Ti17 2.011158 1_555
O23 Ti8 2.020581 1_555
O23 Ti2 2.022664 1_555
O24 Ti18 2.014453 1_555
O24 Ti9 2.016401 1_555
O24 Ti16 2.019631 1_555
O25 Ti11 2.013658 1_555
O25 Ti14 2.020384 1_655
O25 Ti15 2.022739 1_555
O26 Ti17 2.011158 1_555
O26 Ti2 2.020581 1_555
O26 Ti7 2.022664 1_555
O27 Ti13 2.013658 1_555
O27 Ti3 2.020384 1_565
O27 Ti5 2.022739 1_555
O28 Ti25 2.009597 1_545
O28 Ti22 2.010711 1_555
O28 Ti15 2.039849 1_555
O29 Ti16 2.007306 1_455
O29 Ti27 2.010768 1_555
O29 Ti23 2.041437 1_455
O30 Ti18 2.016155 1_555
O30 Ti17 2.017347 1_555
O30 Ti20 2.017363 1_555
O31 Ti19 2.010755 1_555
O31 Ti13 2.012150 1_555
O31 Ti12 2.039194 1_555
O32 Ti12 2.013490 1_555
O32 Ti13 2.014960 1_555
O32 Ti8 2.017289 1_565
O33 Ti16 2.009597 1_455
O33 Ti27 2.010711 1_555
O33 Ti24 2.039849 1_555
O34 Ti21 2.016155 1_555
O34 Ti17 2.017347 1_555
O34 Ti18 2.017362 1_555
O35 Ti22 2.013647 1_555
O35 Ti15 2.015380 1_555
O35 Ti6 2.016232 1_545
O36 Ti16 2.012945 1_555
O36 Ti24 2.015461 1_655
O36 Ti23 2.016098 1_555
O37 Ti12 2.013175 1_555
O37 Ti19 2.013441 1_555
O37 Ti8 2.017101 1_565
O38 Ti20 2.016155 1_555
O38 Ti17 2.017347 1_555
O38 Ti21 2.017362 1_555
O39 Ti25 2.007306 1_545
O39 Ti22 2.010768 1_555
O39 Ti6 2.041437 1_545
O40 Ti21 2.016361 1_555
O40 Ti20 2.016361 1_555
O40 Ti18 2.016361 1_555
O41 Ti20 2.014453 1_555
O41 Ti19 2.016401 1_555
O41 Ti25 2.019631 1_555
O42 Ti21 2.015178 1_555
O42 Ti22 2.015210 1_555
O42 Ti26 2.020105 1_555
O43 Ti20 2.015179 1_555
O43 Ti27 2.015210 1_555
O43 Ti19 2.020105 1_555
O44 Ti11 2.018225 1_565
O44 Ti23 2.019391 1_555
O44 Ti15 2.020521 1_565
O45 Ti10 2.018225 1_655
O45 Ti0 2.019391 1_555
O45 Ti24 2.020521 1_655
O46 Ti21 2.014486 1_555
O46 Ti1 2.018537 1_555
O46 Ti22 2.020356 1_555
O47 Ti20 2.014486 1_555
O47 Ti25 2.018537 1_555
O47 Ti27 2.020356 1_555
O48 Ti21 2.014453 1_555
O48 Ti26 2.016401 1_555
O48 Ti1 2.019631 1_555
O49 Ti25 2.012878 1_555
O49 Ti19 2.018815 1_555
O49 Ti27 2.020491 1_555
O50 Ti25 2.012944 1_555
O50 Ti15 2.015461 1_565
O50 Ti6 2.016098 1_555
O51 Ti26 2.010755 1_555
O51 Ti10 2.012150 1_555
O51 Ti14 2.039194 1_555
O52 Ti14 2.013175 1_555
O52 Ti26 2.013441 1_555
O52 Ti7 2.017101 1_556
O53 Ti1 2.012944 1_555
O53 Ti5 2.015461 1_556
O53 Ti0 2.016098 1_555
O54 Ti27 2.013647 1_555
O54 Ti24 2.015380 1_555
O54 Ti23 2.016232 1_455
O55 Ti10 2.013658 1_555
O55 Ti12 2.020384 1_556
O55 Ti24 2.022739 1_555
