# generated using pymatgen
data_Fe38O39
_symmetry_space_group_name_H-M   'P 1'
_cell_length_a   40.34274536
_cell_length_b   24.61252332
_cell_length_c   10.25882715
_cell_angle_alpha   24.14690182
_cell_angle_beta   40.89789027
_cell_angle_gamma   19.04792241
_symmetry_Int_Tables_number   1
_chemical_formula_structural   Fe38O39
_chemical_formula_sum   'Fe38 O39'
_cell_volume   817.94299097
_cell_formula_units_Z   1
loop_
 _symmetry_equiv_pos_site_id
 _symmetry_equiv_pos_as_xyz
  1  'x, y, z'
loop_
 _atom_site_type_symbol
 _atom_site_label
 _atom_site_symmetry_multiplicity
 _atom_site_fract_x
 _atom_site_fract_y
 _atom_site_fract_z
 _atom_site_occupancy
  Fe  Fe0  1  0.07674881  0.33355721  0.00119085  1
  Fe  Fe1  1  0.14834377  0.35564995  0.96885543  1
  Fe  Fe2  1  0.22514793  0.35317361  0.96646923  1
  Fe  Fe3  1  0.07760567  0.66315811  0.00688634  1
  Fe  Fe4  1  0.30800124  0.33133693  0.00374732  1
  Fe  Fe5  1  0.14903006  0.67839548  -0.00245874  1
  Fe  Fe6  1  0.38705380  0.32927818  0.99975599  1
  Fe  Fe7  1  0.22557221  0.67286079  0.00577536  1
  Fe  Fe8  1  0.45825038  0.33829099  0.00022206  1
  Fe  Fe9  1  0.07912337  0.99165022  0.00455645  1
  Fe  Fe10  1  0.30501570  0.67489130  0.99028610  1
  Fe  Fe11  1  0.53732707  0.33512957  0.00335493  1
  Fe  Fe12  1  0.15582352  0.99188912  0.00897267  1
  Fe  Fe13  1  0.38568080  0.66366640  0.00281543  1
  Fe  Fe14  1  0.61431920  0.33633360  0.99718457  1
  Fe  Fe15  1  0.23381107  0.99406281  0.00592709  1
  Fe  Fe16  1  0.46267293  0.66487043  0.99664507  1
  Fe  Fe17  1  0.69498430  0.32510870  0.00971390  1
  Fe  Fe18  1  0.31004513  0.99240102  0.00615778  1
  Fe  Fe19  1  0.54174962  0.66170901  -0.00022206  1
  Fe  Fe20  1  0.77442779  0.32713921  0.99422464  1
  Fe  Fe21  1  0.37518445  0.02384500  0.97635588  1
  Fe  Fe22  1  0.61294620  0.67072182  0.00024401  1
  Fe  Fe23  1  0.85096994  0.32160452  0.00245874  1
  Fe  Fe24  1  0.46832501  0.98601263  0.01418209  1
  Fe  Fe25  1  0.69199876  0.66866307  0.99625268  1
  Fe  Fe26  1  0.92239433  0.33684189  0.99311366  1
  Fe  Fe27  1  0.53167499  0.01398737  0.98581791  1
  Fe  Fe28  1  0.77485207  0.64682639  0.03353077  1
  Fe  Fe29  1  -0.00005703  0.33830908  0.98642919  1
  Fe  Fe30  1  0.62481555  0.97615500  0.02364412  1
  Fe  Fe31  1  0.85165623  0.64435005  0.03114457  1
  Fe  Fe32  1  0.68995487  0.00759898  0.99384222  1
  Fe  Fe33  1  0.92325119  0.66644279  0.99880915  1
  Fe  Fe34  1  0.76618893  0.00593719  0.99407291  1
  Fe  Fe35  1  0.00005703  0.66169092  0.01357081  1
  Fe  Fe36  1  0.84417648  0.00811088  0.99102733  1
  Fe  Fe37  1  0.92087663  0.00834978  0.99544355  1
  O  O0  1  0.07523297  0.17334003  0.48581150  1
  O  O1  1  0.15887197  0.15267412  0.51267652  1
  O  O2  1  0.23294633  0.16990074  0.49016480  1
  O  O3  1  0.06945050  0.51338410  0.49286540  1
  O  O4  1  0.30795765  0.16946423  0.50452846  1
  O  O5  1  0.15402817  0.50221310  0.47998356  1
  O  O6  1  0.37280500  0.19792954  0.45863051  1
  O  O7  1  0.25063249  0.45111347  0.54947471  1
  O  O8  1  0.45631217  0.17867040  0.49495929  1
  O  O9  1  0.06030325  0.87129496  0.46386043  1
  O  O10  1  0.30141837  0.51192019  0.49054906  1
  O  O11  1  0.54514477  0.14331680  0.52998686  1
  O  O12  1  0.15849864  0.80951421  0.54035977  1
  O  O13  1  0.37627028  0.51801366  0.48334030  1
  O  O14  1  0.61688111  0.16570523  0.49351218  1
  O  O15  1  0.23722549  0.81658422  0.52116258  1
  O  O16  1  0.46067528  0.49565103  0.50433575  1
  O  O17  1  0.68810418  0.16602852  0.51198660  1
  O  O18  1  0.31189582  0.83397148  0.48801340  1
  O  O19  1  0.53932472  0.50434897  0.49566425  1
  O  O20  1  0.76277451  0.18341578  0.47883742  1
  O  O21  1  0.38311889  0.83429477  0.50648782  1
  O  O22  1  0.62372972  0.48198634  0.51665970  1
  O  O23  1  0.84150136  0.19048579  0.45964023  1
  O  O24  1  0.45485523  0.85668320  0.47001314  1
  O  O25  1  0.69858163  0.48807981  0.50945094  1
  O  O26  1  0.93969675  0.12870504  0.53613957  1
  O  O27  1  0.54368783  0.82132960  0.50504071  1
  O  O28  1  0.74936751  0.54888653  0.45052529  1
  O  O29  1  0.00476663  0.16430699  0.47622555  1
  O  O30  1  0.62719500  0.80207046  0.54136949  1
  O  O31  1  0.84597183  0.49778690  0.52001644  1
  O  O32  1  0.69204235  0.83053577  0.49547154  1
  O  O33  1  0.93054950  0.48661590  0.50713460  1
  O  O34  1  0.76705367  0.83009926  0.50983520  1
  O  O35  1  0.00000000  0.50000000  0.50000000  1
  O  O36  1  0.84112803  0.84732588  0.48732348  1
  O  O37  1  0.92476703  0.82665997  0.51418850  1
  O  O38  1  0.99523337  0.83569301  0.52377445  1
loop_
_geom_bond_atom_site_label_1
_geom_bond_atom_site_label_2
_geom_bond_distance
_geom_bond_site_symmetry_2
Fe0 O0 2.118552 1_555
Fe0 O3 2.146080 1_554
Fe0 O37 2.195894 1_454
Fe0 O15 2.208131 1_545
Fe0 O36 2.215485 1_454
Fe0 O18 2.271821 1_545
Fe1 O37 2.178496 1_455
Fe1 O38 2.193639 1_455
Fe1 O21 2.198490 1_546
Fe1 O18 2.219389 1_546
Fe1 O1 2.229094 1_556
Fe1 O5 2.241910 1_555
Fe2 O7 2.094007 1_555
Fe2 O38 2.168313 1_455
Fe2 O21 2.189117 1_546
Fe2 O9 2.224053 1_555
Fe2 O2 2.225954 1_556
Fe2 O24 2.229778 1_546
Fe3 O2 2.129136 1_555
Fe3 O26 2.163667 1_464
Fe3 O9 2.191035 1_554
Fe3 O3 2.196741 1_555
Fe3 O23 2.201710 1_464
Fe3 O4 2.260035 1_555
Fe4 O24 2.114727 1_545
Fe4 O12 2.129235 1_554
Fe4 O10 2.172679 1_554
Fe4 O27 2.212704 1_545
Fe4 O4 2.216231 1_555
Fe4 O9 2.329537 1_554
Fe5 O5 2.006969 1_555
Fe5 O29 2.060274 1_564
Fe5 O26 2.074519 1_464
Fe5 O6 2.089162 1_555
Fe5 O12 2.134730 1_554
Fe5 O4 2.179154 1_555
Fe6 O13 2.141405 1_555
Fe6 O6 2.142595 1_556
Fe6 O15 2.198903 1_555
Fe6 O12 2.221195 1_555
Fe6 O27 2.235576 1_546
Fe6 O30 2.290652 1_546
Fe7 O7 2.111257 1_555
Fe7 O29 2.170254 1_564
Fe7 O0 2.174466 1_564
Fe7 O6 2.202728 1_555
Fe7 O8 2.225983 1_555
Fe7 O15 2.228460 1_554
Fe8 O15 2.112904 1_554
Fe8 O32 2.164308 1_545
Fe8 O8 2.188929 1_555
Fe8 O30 2.210908 1_545
Fe8 O16 2.212639 1_554
Fe8 O18 2.245545 1_554
Fe9 O31 2.127047 1_464
Fe9 O10 2.161955 1_555
Fe9 O7 2.200440 1_555
Fe9 O0 2.201679 1_564
Fe9 O9 2.219007 1_555
Fe9 O33 2.262734 1_464
Fe10 O1 2.121383 1_565
Fe10 O8 2.160787 1_556
Fe10 O10 2.203334 1_556
Fe10 O0 2.209471 1_565
Fe10 O11 2.225212 1_556
Fe10 O18 2.243013 1_555
Fe11 O18 2.129959 1_554
Fe11 O34 2.131242 1_545
Fe11 O21 2.186756 1_554
Fe11 O11 2.188309 1_555
Fe11 O19 2.211633 1_554
Fe11 O32 2.313224 1_545
Fe12 O33 2.118508 1_464
Fe12 O13 2.134602 1_555
Fe12 O10 2.154553 1_555
Fe12 O1 2.191061 1_564
Fe12 O35 2.237535 1_564
Fe12 O12 2.279093 1_555
Fe13 O21 2.126897 1_554
Fe13 O1 2.185844 1_564
Fe13 O13 2.188323 1_555
Fe13 O14 2.196015 1_555
Fe13 O11 2.255938 1_555
Fe13 O2 2.265368 1_564
Fe14 O14 2.126897 1_556
Fe14 O36 2.185844 1_546
Fe14 O22 2.188323 1_555
Fe14 O21 2.196015 1_555
Fe14 O24 2.255938 1_555
Fe14 O34 2.265368 1_546
Fe15 O16 2.101468 1_555
Fe15 O3 2.191449 1_564
Fe15 O13 2.195988 1_555
Fe15 O15 2.205580 1_555
Fe15 O2 2.220389 1_564
Fe15 O35 2.231732 1_564
Fe16 O17 2.129959 1_556
Fe16 O2 2.131242 1_565
Fe16 O14 2.186756 1_556
Fe16 O24 2.188309 1_555
Fe16 O16 2.211633 1_556
Fe16 O4 2.313224 1_565
Fe17 O36 2.121383 1_545
Fe17 O27 2.160787 1_554
Fe17 O25 2.203334 1_554
Fe17 O37 2.209471 1_545
Fe17 O24 2.225212 1_554
Fe17 O17 2.243013 1_555
Fe18 O18 2.115692 1_555
Fe18 O4 2.124691 1_564
Fe18 O5 2.155388 1_564
Fe18 O16 2.233062 1_555
Fe18 O3 2.260675 1_564
Fe18 O19 2.269246 1_555
Fe19 O20 2.112904 1_555
Fe19 O4 2.164308 1_564
Fe19 O27 2.188929 1_554
Fe19 O6 2.210908 1_564
Fe19 O19 2.212639 1_555
Fe19 O17 2.245545 1_555
Fe20 O28 2.111257 1_555
Fe20 O38 2.170254 1_546
Fe20 O37 2.174466 1_546
Fe20 O30 2.202728 1_555
Fe20 O27 2.225983 1_555
Fe20 O20 2.228460 1_556
Fe21 O7 2.082991 1_555
Fe21 O19 2.160641 1_546
Fe21 O5 2.198332 1_555
Fe21 O21 2.224660 1_546
Fe21 O6 2.244726 1_555
Fe21 O22 2.330787 1_546
Fe22 O22 2.141405 1_555
Fe22 O30 2.142595 1_554
Fe22 O20 2.198903 1_555
Fe22 O23 2.221195 1_555
Fe22 O8 2.235576 1_564
Fe22 O6 2.290652 1_564
Fe23 O31 2.006969 1_554
Fe23 O38 2.060274 1_545
Fe23 O9 2.074519 1_645
Fe23 O30 2.089162 1_554
Fe23 O23 2.134730 1_555
Fe23 O32 2.179154 1_554
Fe24 O7 2.130152 1_564
Fe24 O8 2.134275 1_564
Fe24 O24 2.135005 1_555
Fe24 O10 2.180720 1_564
Fe24 O25 2.188999 1_555
Fe24 O22 2.211621 1_555
Fe25 O11 2.114727 1_565
Fe25 O23 2.129235 1_556
Fe25 O25 2.172679 1_556
Fe25 O8 2.212704 1_565
Fe25 O32 2.216231 1_555
Fe25 O26 2.329537 1_556
Fe26 O34 2.129136 1_555
Fe26 O9 2.163667 1_646
Fe26 O26 2.191035 1_556
Fe26 O33 2.196741 1_555
Fe26 O12 2.201710 1_646
Fe26 O32 2.260035 1_555
Fe27 O28 2.130152 1_546
Fe27 O27 2.134275 1_546
Fe27 O11 2.135005 1_555
Fe27 O25 2.180720 1_546
Fe27 O10 2.188999 1_555
Fe27 O13 2.211621 1_555
Fe28 O28 2.094007 1_555
Fe28 O29 2.168313 1_655
Fe28 O14 2.189117 1_564
Fe28 O26 2.224053 1_555
Fe28 O34 2.225954 1_554
Fe28 O11 2.229778 1_564
Fe29 O29 2.063280 1_556
Fe29 O35 2.120511 1_555
Fe29 O36 2.236199 1_455
Fe29 O15 2.250792 1_546
Fe29 O34 2.266385 1_455
Fe29 O12 2.277670 1_546
Fe30 O28 2.082991 1_555
Fe30 O16 2.160641 1_564
Fe30 O31 2.198332 1_555
Fe30 O14 2.224660 1_564
Fe30 O30 2.244726 1_555
Fe30 O13 2.330787 1_564
Fe31 O0 2.178496 1_655
Fe31 O29 2.193639 1_655
Fe31 O14 2.198490 1_564
Fe31 O17 2.219389 1_564
Fe31 O36 2.229094 1_554
Fe31 O31 2.241910 1_555
Fe32 O17 2.115692 1_555
Fe32 O32 2.124691 1_546
Fe32 O31 2.155388 1_546
Fe32 O19 2.233062 1_555
Fe32 O33 2.260675 1_546
Fe32 O16 2.269246 1_555
Fe33 O37 2.118552 1_555
Fe33 O33 2.146080 1_556
Fe33 O0 2.195894 1_656
Fe33 O20 2.208131 1_565
Fe33 O1 2.215485 1_656
Fe33 O17 2.271821 1_565
Fe34 O19 2.101468 1_555
Fe34 O33 2.191449 1_546
Fe34 O22 2.195988 1_555
Fe34 O20 2.205580 1_555
Fe34 O34 2.220389 1_546
Fe34 O35 2.231732 1_646
Fe35 O38 2.063280 1_454
Fe35 O35 2.120511 1_555
Fe35 O1 2.236199 1_555
Fe35 O20 2.250792 1_464
Fe35 O2 2.266385 1_555
Fe35 O23 2.277670 1_464
Fe36 O3 2.118508 1_646
Fe36 O22 2.134602 1_555
Fe36 O25 2.154553 1_555
Fe36 O36 2.191061 1_546
Fe36 O35 2.237535 1_646
Fe36 O23 2.279093 1_555
Fe37 O5 2.127047 1_646
Fe37 O25 2.161955 1_555
Fe37 O28 2.200440 1_555
Fe37 O37 2.201679 1_546
Fe37 O26 2.219007 1_555
Fe37 O3 2.262734 1_646
