# generated using pymatgen
data_Li4VP2(O4F)2
_symmetry_space_group_name_H-M   'P 1'
_cell_length_a   10.94536900
_cell_length_b   6.46183800
_cell_length_c   10.58411781
_cell_angle_alpha   89.81560936
_cell_angle_beta   90.00000000
_cell_angle_gamma   90.00000000
_symmetry_Int_Tables_number   1
_chemical_formula_structural   Li4VP2(O4F)2
_chemical_formula_sum   'Li16 V4 P8 O32 F8'
_cell_volume   748.58115467
_cell_formula_units_Z   4
loop_
 _symmetry_equiv_pos_site_id
 _symmetry_equiv_pos_as_xyz
  1  'x, y, z'
loop_
 _atom_site_type_symbol
 _atom_site_label
 _atom_site_symmetry_multiplicity
 _atom_site_fract_x
 _atom_site_fract_y
 _atom_site_fract_z
 _atom_site_occupancy
  Li  Li0  1  0.47592600  0.74880800  0.96069300  1
  Li  Li1  1  0.52407400  0.74880800  0.46069300  1
  Li  Li2  1  0.15379300  0.72882500  0.72707600  1
  Li  Li3  1  0.84620700  0.72882500  0.22707600  1
  Li  Li4  1  0.24533000  0.49961200  0.49516300  1
  Li  Li5  1  0.75529000  0.50127700  0.51018200  1
  Li  Li6  1  0.24471000  0.50127700  0.01018200  1
  Li  Li7  1  0.75467000  0.49961200  0.99516300  1
  Li  Li8  1  0.41882900  0.49434300  0.76713100  1
  Li  Li9  1  0.58117100  0.49434300  0.26713100  1
  Li  Li10  1  0.66169400  0.26543800  0.77446000  1
  Li  Li11  1  0.33830600  0.26543800  0.27446000  1
  Li  Li12  1  0.97831400  0.26968000  0.53837300  1
  Li  Li13  1  0.02168600  0.26968000  0.03837300  1
  Li  Li14  1  0.91735300  0.03101800  0.75479000  1
  Li  Li15  1  0.08264700  0.03101800  0.25479000  1
  V  V0  1  0.25329500  0.99256400  0.50266200  1
  V  V1  1  0.74865700  0.99275000  0.50247900  1
  V  V2  1  0.25134300  0.99275000  0.00247900  1
  V  V3  1  0.74670500  0.99256400  0.00266200  1
  P  P0  1  0.00719800  0.75463100  0.96698200  1
  P  P1  1  0.99280200  0.75463100  0.46698200  1
  P  P2  1  0.66731600  0.73443100  0.76049700  1
  P  P3  1  0.33268400  0.73443100  0.26049700  1
  P  P4  1  0.17138200  0.25379400  0.74245100  1
  P  P5  1  0.82861800  0.25379400  0.24245100  1
  P  P6  1  0.50847600  0.26425200  0.52949100  1
  P  P7  1  0.49152400  0.26425200  0.02949100  1
  O  O0  1  0.91744700  0.93669500  0.53656500  1
  O  O1  1  0.08255300  0.93669500  0.03656500  1
  O  O2  1  0.73042000  0.93314900  0.82645900  1
  O  O3  1  0.26958000  0.93314900  0.32645900  1
  O  O4  1  0.69977500  0.76203900  0.61600500  1
  O  O5  1  0.30022500  0.76203900  0.11600500  1
  O  O6  1  0.12628800  0.76991500  0.52464900  1
  O  O7  1  0.87371200  0.76991500  0.02464900  1
  O  O8  1  0.00671400  0.80137200  0.82615200  1
  O  O9  1  0.99328600  0.80137200  0.32615200  1
  O  O10  1  0.53017600  0.74376200  0.78080500  1
  O  O11  1  0.46982400  0.74376200  0.28080500  1
  O  O12  1  0.93605200  0.55031800  0.50455800  1
  O  O13  1  0.06394800  0.55031800  0.00455800  1
  O  O14  1  0.72823400  0.54014200  0.81117300  1
  O  O15  1  0.27176600  0.54014200  0.31117300  1
  O  O16  1  0.23469100  0.45202100  0.69676200  1
  O  O17  1  0.76530900  0.45202100  0.19676200  1
  O  O18  1  0.43280700  0.44625400  0.95878500  1
  O  O19  1  0.56719300  0.44625400  0.45878500  1
  O  O20  1  0.03545500  0.24594000  0.71577300  1
  O  O21  1  0.96454500  0.24594000  0.21577300  1
  O  O22  1  0.51051100  0.28604500  0.67196600  1
  O  O23  1  0.48948900  0.28604500  0.17196600  1
  O  O24  1  0.62459200  0.22519200  0.97768900  1
  O  O25  1  0.37540800  0.22519200  0.47768900  1
  O  O26  1  0.20140800  0.21653600  0.88529600  1
  O  O27  1  0.79859200  0.21653600  0.38529600  1
  O  O28  1  0.23255100  0.06215500  0.66991400  1
  O  O29  1  0.76744900  0.06215500  0.16991400  1
  O  O30  1  0.41716400  0.06113200  0.99028200  1
  O  O31  1  0.58283600  0.06113200  0.49028200  1
  F  F0  1  0.36572700  0.77448100  0.53866200  1
  F  F1  1  0.63427300  0.77448100  0.03866200  1
  F  F2  1  0.26460400  0.78048100  0.87841600  1
  F  F3  1  0.73539600  0.78048100  0.37841600  1
  F  F4  1  0.77171400  0.20883300  0.62814600  1
  F  F5  1  0.22828600  0.20883300  0.12814600  1
  F  F6  1  0.86673500  0.19697700  0.95116800  1
  F  F7  1  0.13326500  0.19697700  0.45116800  1
loop_
_geom_bond_atom_site_label_1
_geom_bond_atom_site_label_2
_geom_bond_distance
_geom_bond_site_symmetry_2
Li0 O10 1.994766 1_555
Li0 O18 2.011378 1_555
Li0 O30 2.142171 1_565
Li0 O5 2.531558 1_556
Li1 O11 1.994766 1_555
Li1 O19 2.011378 1_555
Li1 O31 2.142171 1_565
Li1 O4 2.531558 1_555
Li2 O8 1.978413 1_555
Li2 O16 2.022372 1_555
Li2 O6 2.178950 1_555
Li2 O28 2.395860 1_565
Li3 O9 1.978413 1_555
Li3 O17 2.022372 1_555
Li3 O7 2.178950 1_555
Li3 O29 2.395860 1_565
Li4 O15 1.985268 1_555
Li4 O16 2.157959 1_555
Li4 O6 2.202137 1_555
Li4 O25 2.282067 1_555
Li5 O12 2.004578 1_555
Li5 O4 2.115441 1_555
Li5 O19 2.159215 1_555
Li5 O27 2.317948 1_555
Li6 O13 2.004578 1_555
Li6 O5 2.115441 1_555
Li6 O18 2.159215 1_554
Li6 O26 2.317948 1_554
Li7 O14 1.985268 1_555
Li7 O17 2.157959 1_556
Li7 O7 2.202137 1_556
Li7 O24 2.282067 1_555
Li8 O22 1.960086 1_555
Li8 O10 2.026167 1_555
Li8 O18 2.056861 1_555
Li8 O16 2.166308 1_555
Li9 O23 1.960086 1_555
Li9 O11 2.026167 1_555
Li9 O19 2.056861 1_555
Li9 O17 2.166308 1_555
Li10 O14 1.958778 1_555
Li10 O22 1.982882 1_555
Li10 O24 2.203576 1_555
Li10 O2 2.339146 1_545
Li11 O15 1.958778 1_555
Li11 O23 1.982882 1_555
Li11 O25 2.203576 1_555
Li11 O3 2.339146 1_545
Li12 O12 1.904323 1_555
Li12 O20 1.984517 1_655
Li12 O0 2.252612 1_545
Li12 O27 2.572175 1_555
Li13 O13 1.904323 1_555
Li13 O21 1.984517 1_455
Li13 O1 2.252612 1_545
Li13 O26 2.572175 1_554
Li14 O8 1.929246 1_645
Li14 O20 1.940768 1_655
Li14 O2 2.271252 1_545
Li14 O0 2.390681 1_545
Li15 O9 1.929246 1_445
Li15 O21 1.940768 1_455
Li15 O3 2.271252 1_545
Li15 O1 2.390681 1_545
O0 P1 1.616269 1_555
O0 V1 1.916679 1_555
O1 P0 1.616269 1_554
O1 V2 1.916679 1_555
O2 P2 1.618368 1_555
O2 V3 1.913592 1_556
O3 P3 1.618368 1_555
O3 V0 1.913592 1_555
O4 P2 1.579592 1_555
O4 V1 1.985206 1_555
O5 P3 1.579592 1_555
O5 V2 1.985206 1_555
O6 P1 1.586616 1_455
O6 V0 2.013555 1_555
O7 P0 1.586616 1_654
O7 V3 2.013555 1_555
O8 P0 1.519910 1_555
O9 P1 1.519910 1_555
O10 P2 1.517585 1_555
O11 P3 1.517585 1_555
O12 P1 1.511174 1_555
O13 P0 1.511174 1_554
O14 P2 1.517933 1_555
O15 P3 1.517933 1_555
O16 P4 1.533219 1_555
O17 P5 1.533219 1_555
O18 P7 1.533150 1_556
O19 P6 1.533150 1_555
O20 P4 1.515210 1_555
O21 P5 1.515210 1_555
O22 P6 1.515148 1_555
O23 P7 1.515148 1_555
O24 P7 1.576875 1_556
O24 V3 2.028141 1_546
O25 P6 1.576875 1_555
O25 V0 2.028141 1_545
O26 P4 1.565067 1_555
O26 V2 1.979037 1_546
O27 P5 1.565067 1_555
O27 V1 1.979037 1_545
O28 P4 1.605392 1_555
O28 V0 1.841889 1_545
O29 P5 1.605392 1_555
O29 V3 1.841889 1_545
O30 P7 1.600277 1_556
O30 V2 1.872344 1_546
O31 P6 1.600277 1_555
O31 V1 1.872344 1_545
F0 V0 1.908408 1_555
F0 Li1 1.926987 1_555
F0 Li4 2.260208 1_555
F1 V3 1.908408 1_555
F1 Li0 1.926987 1_554
F1 Li7 2.260208 1_554
F2 V2 1.907434 1_556
F2 Li2 2.037565 1_555
F2 Li6 2.287190 1_556
F2 Li0 2.479726 1_555
F3 V1 1.907434 1_555
F3 Li3 2.037565 1_555
F3 Li5 2.287190 1_555
F3 Li1 2.479726 1_555
F4 V1 1.947916 1_545
F4 Li10 1.996430 1_555
F4 Li5 2.268713 1_555
F4 Li14 2.376572 1_555
F4 Li12 2.483656 1_555
F5 V2 1.947916 1_545
F5 Li11 1.996430 1_555
F5 Li6 2.268713 1_555
F5 Li15 2.376572 1_555
F5 Li13 2.483656 1_555
F6 V3 1.939882 1_546
F6 Li13 1.987915 1_656
F6 Li7 2.356163 1_555
F6 Li14 2.406544 1_555
F7 V0 1.939882 1_545
F7 Li12 1.987915 1_455
F7 Li4 2.356163 1_555
F7 Li15 2.406544 1_555
