# generated using pymatgen
data_Li7FeCo3(PO4)6
_symmetry_space_group_name_H-M   'P 1'
_cell_length_a   8.80942504
_cell_length_b   8.80942504
_cell_length_c   8.80942561
_cell_angle_alpha   60.05639970
_cell_angle_beta   60.05639970
_cell_angle_gamma   60.05640086
_symmetry_Int_Tables_number   1
_chemical_formula_structural   Li7FeCo3(PO4)6
_chemical_formula_sum   'Li7 Fe1 Co3 P6 O24'
_cell_volume   484.04141016
_cell_formula_units_Z   1
loop_
 _symmetry_equiv_pos_site_id
 _symmetry_equiv_pos_as_xyz
  1  'x, y, z'
loop_
 _atom_site_type_symbol
 _atom_site_label
 _atom_site_symmetry_multiplicity
 _atom_site_fract_x
 _atom_site_fract_y
 _atom_site_fract_z
 _atom_site_occupancy
  Li  Li0  1  0.27798100  0.11044900  0.77171200  1
  Li  Li1  1  0.47593500  0.47593500  0.47593500  1
  Li  Li2  1  0.77171200  0.27798100  0.11044900  1
  Li  Li3  1  0.11044900  0.77171200  0.27798100  1
  Li  Li4  1  0.83962300  0.29414500  0.66531800  1
  Li  Li5  1  0.29414500  0.66531800  0.83962300  1
  Li  Li6  1  0.66531800  0.83962300  0.29414500  1
  Fe  Fe0  1  0.85459500  0.85459500  0.85459500  1
  Co  Co0  1  0.35095800  0.35095800  0.35095800  1
  Co  Co1  1  0.14856300  0.14856300  0.14856300  1
  Co  Co2  1  0.65083600  0.65083600  0.65083600  1
  P  P0  1  0.45690900  0.75193700  0.04355400  1
  P  P1  1  0.75193700  0.04355400  0.45690900  1
  P  P2  1  0.04355400  0.45690900  0.75193700  1
  P  P3  1  0.95854900  0.53994300  0.25007300  1
  P  P4  1  0.25007300  0.95854900  0.53994300  1
  P  P5  1  0.53994300  0.25007300  0.95854900  1
  O  O0  1  0.27488900  0.92247600  0.05759500  1
  O  O1  1  0.47700200  0.71014600  0.88070200  1
  O  O2  1  0.42200200  0.59173700  0.23209000  1
  O  O3  1  0.71014600  0.88070200  0.47700200  1
  O  O4  1  0.59173700  0.23209000  0.42200200  1
  O  O5  1  0.88070200  0.47700200  0.71014600  1
  O  O6  1  0.62680300  0.78580100  0.00878100  1
  O  O7  1  0.92247600  0.05759500  0.27488900  1
  O  O8  1  0.78580100  0.00878100  0.62680300  1
  O  O9  1  0.05759500  0.27488900  0.92247600  1
  O  O10  1  0.23209000  0.42200200  0.59173700  1
  O  O11  1  0.00878100  0.62680300  0.78580100  1
  O  O12  1  0.78178100  0.55109200  0.42683800  1
  O  O13  1  0.99439800  0.37568200  0.20689700  1
  O  O14  1  0.91752200  0.72973600  0.09462600  1
  O  O15  1  0.20689700  0.99439800  0.37568200  1
  O  O16  1  0.09462600  0.91752200  0.72973600  1
  O  O17  1  0.37568200  0.20689700  0.99439800  1
  O  O18  1  0.12570600  0.52623400  0.28050900  1
  O  O19  1  0.42683800  0.78178100  0.55109200  1
  O  O20  1  0.28050900  0.12570600  0.52623400  1
  O  O21  1  0.55109200  0.42683800  0.78178100  1
  O  O22  1  0.52623400  0.28050900  0.12570600  1
  O  O23  1  0.72973600  0.09462600  0.91752200  1
loop_
_geom_bond_atom_site_label_1
_geom_bond_atom_site_label_2
_geom_bond_distance
_geom_bond_site_symmetry_2
Li0 O9 2.042221 1_555
Li0 O20 2.088015 1_555
Li0 O0 2.213317 1_546
Li0 O10 2.323388 1_555
Li1 O10 2.056272 1_555
Li1 O4 2.056272 1_555
Li1 O2 2.056272 1_555
Li2 O7 2.042221 1_555
Li2 O22 2.088015 1_555
Li2 O9 2.213317 1_654
Li2 O4 2.323388 1_555
Li3 O0 2.042221 1_555
Li3 O18 2.088015 1_555
Li3 O7 2.213317 1_465
Li3 O2 2.323388 1_555
Li4 O5 2.059484 1_555
Li4 O21 2.123091 1_555
Li4 O23 2.148428 1_555
Li4 O12 2.228656 1_555
Li5 O1 2.059484 1_555
Li5 O19 2.123091 1_555
Li5 O16 2.148428 1_555
Li5 O21 2.228656 1_555
Li6 O3 2.059484 1_555
Li6 O12 2.123091 1_555
Li6 O14 2.148428 1_555
Li6 O19 2.228656 1_555
Fe0 O6 1.977470 1_556
Fe0 O11 1.977470 1_655
Fe0 O8 1.977470 1_565
Fe0 O16 2.056215 1_655
Fe0 O23 2.056215 1_565
Fe0 O14 2.056215 1_556
Co0 O20 1.980143 1_555
Co0 O18 1.980143 1_555
Co0 O22 1.980143 1_555
Co0 O2 2.107378 1_555
Co0 O4 2.107378 1_555
Co0 O10 2.107379 1_555
Co1 O17 1.930995 1_554
Co1 O13 1.930995 1_455
Co1 O15 1.930995 1_545
Co1 O7 2.082761 1_455
Co1 O0 2.082761 1_545
Co1 O9 2.082761 1_554
Co2 O3 1.969877 1_555
Co2 O5 1.969877 1_555
Co2 O1 1.969877 1_555
Co2 O21 2.107917 1_555
Co2 O19 2.107917 1_555
Co2 O12 2.107917 1_555
O0 P0 1.557612 1_555
O1 P0 1.560046 1_556
O2 P0 1.558272 1_555
O3 P1 1.560046 1_565
O4 P1 1.558272 1_555
O5 P2 1.560046 1_655
O6 P0 1.523042 1_555
O7 P1 1.557612 1_555
O8 P1 1.523042 1_555
O9 P2 1.557612 1_555
O10 P2 1.558272 1_555
O11 P2 1.523042 1_555
O12 P3 1.561629 1_555
O13 P3 1.520419 1_555
O14 P3 1.551290 1_555
O15 P4 1.520419 1_555
O16 P4 1.551290 1_555
O17 P5 1.520419 1_555
O18 P3 1.561792 1_455
O19 P4 1.561629 1_555
O20 P4 1.561792 1_545
O21 P5 1.561629 1_555
O22 P5 1.561792 1_554
O23 P5 1.551290 1_555
