# generated using pymatgen
data_Na2FeO3
_symmetry_space_group_name_H-M   'P 1'
_cell_length_a   5.13652352
_cell_length_b   5.13655046
_cell_length_c   10.60970458
_cell_angle_alpha   89.99996329
_cell_angle_beta   89.99957740
_cell_angle_gamma   119.99809142
_symmetry_Int_Tables_number   1
_chemical_formula_structural   Na2FeO3
_chemical_formula_sum   'Na8 Fe4 O12'
_cell_volume   242.42818792
_cell_formula_units_Z   4
loop_
 _symmetry_equiv_pos_site_id
 _symmetry_equiv_pos_as_xyz
  1  'x, y, z'
loop_
 _atom_site_type_symbol
 _atom_site_label
 _atom_site_symmetry_multiplicity
 _atom_site_fract_x
 _atom_site_fract_y
 _atom_site_fract_z
 _atom_site_occupancy
  Na  Na0  1  0.00000724  0.68168984  0.75000606  1
  Na  Na1  1  0.31831201  0.99999265  0.24999393  1
  Na  Na2  1  0.99998764  0.31830959  0.24999328  1
  Na  Na3  1  0.99999915  0.99999584  0.50000028  1
  Na  Na4  1  0.99999906  1.00000527  0.99999947  1
  Na  Na5  1  0.31832709  0.31832615  0.75000685  1
  Na  Na6  1  0.68169163  0.00001121  0.75000622  1
  Na  Na7  1  0.68167144  0.68167153  0.24999329  1
  Fe  Fe0  1  0.33332283  0.66668536  0.50000086  1
  Fe  Fe1  1  0.66667631  0.33331517  0.50000088  1
  Fe  Fe2  1  0.66667769  0.33331013  0.99999914  1
  Fe  Fe3  1  0.33332329  0.66669013  0.99999908  1
  O  O0  1  0.00007298  0.62156797  0.09884365  1
  O  O1  1  1.00006530  0.62155771  0.40114927  1
  O  O2  1  0.99992979  0.37844343  0.59884389  1
  O  O3  1  -0.00008977  0.37841747  0.90114377  1
  O  O4  1  0.37844971  -0.00005170  0.59885009  1
  O  O5  1  0.37843909  0.99994231  0.90115256  1
  O  O6  1  0.62156981  1.00007076  0.09885348  1
  O  O7  1  0.62155121  0.00005995  0.40115412  1
  O  O8  1  0.37847717  0.37844674  0.09884897  1
  O  O9  1  0.37848273  0.37847070  0.40115854  1
  O  O10  1  0.62152080  0.62153261  0.59884720  1
  O  O11  1  0.62153482  0.62154019  0.90115412  1
loop_
_geom_bond_atom_site_label_1
_geom_bond_atom_site_label_2
_geom_bond_distance
_geom_bond_site_symmetry_2
Na0 O3 2.235437 1_555
Na0 O2 2.235566 1_455
Na0 O5 2.417640 1_555
Na0 O4 2.417720 1_565
Na0 O11 2.417793 1_455
Na0 O10 2.417931 1_455
Na1 O6 2.235426 1_555
Na1 O7 2.235545 1_565
Na1 O0 2.417631 1_555
Na1 O1 2.417685 1_455
Na1 O8 2.417695 1_565
Na1 O9 2.417922 1_565
Na2 O0 2.235498 1_655
Na2 O1 2.235525 1_555
Na2 O6 2.417540 1_545
Na2 O7 2.417727 1_555
Na2 O8 2.417850 1_655
Na2 O9 2.418004 1_655
Na3 O1 2.208896 1_555
Na3 O4 2.208901 1_665
Na3 O7 2.208908 1_565
Na3 O2 2.208908 1_565
Na3 O10 2.208910 1_555
Na3 O9 2.208922 1_665
Na4 O3 2.208852 1_665
Na4 O6 2.208853 1_556
Na4 O5 2.208860 1_655
Na4 O0 2.208874 1_656
Na4 O8 2.208888 1_666
Na4 O11 2.208889 1_555
Na5 O11 2.235501 1_555
Na5 O10 2.235539 1_555
Na5 O3 2.417923 1_555
Na5 O5 2.417923 1_545
Na5 O4 2.418002 1_555
Na5 O2 2.418110 1_455
Na6 O5 2.235468 1_545
Na6 O4 2.235532 1_555
Na6 O3 2.417469 1_655
Na6 O2 2.417715 1_555
Na6 O11 2.417792 1_545
Na6 O10 2.417884 1_545
Na7 O8 2.235474 1_555
Na7 O9 2.235562 1_555
Na7 O6 2.417915 1_555
Na7 O0 2.417984 1_655
Na7 O1 2.418039 1_555
Na7 O7 2.418065 1_565
Fe0 O1 1.920195 1_455
Fe0 O4 1.920208 1_565
Fe0 O10 1.920509 1_555
Fe0 O9 1.920576 1_555
Fe0 O7 1.920659 1_565
Fe0 O2 1.920706 1_455
Fe1 O2 1.920127 1_555
Fe1 O7 1.920164 1_555
Fe1 O9 1.920475 1_555
Fe1 O10 1.920599 1_555
Fe1 O4 1.920651 1_555
Fe1 O1 1.920746 1_555
Fe2 O3 1.920130 1_655
Fe2 O6 1.920166 1_546
Fe2 O8 1.920487 1_556
Fe2 O11 1.920614 1_555
Fe2 O5 1.920671 1_545
Fe2 O0 1.920761 1_656
Fe3 O0 1.920119 1_556
Fe3 O5 1.920162 1_555
Fe3 O11 1.920540 1_555
Fe3 O8 1.920727 1_556
Fe3 O6 1.920763 1_556
Fe3 O3 1.920895 1_555
