# generated using pymatgen
data_Li2FePCO7
_symmetry_space_group_name_H-M   'P 1'
_cell_length_a   8.24464028
_cell_length_b   8.24614514
_cell_length_c   9.27766744
_cell_angle_alpha   73.81624601
_cell_angle_beta   106.16508132
_cell_angle_gamma   76.62082532
_symmetry_Int_Tables_number   1
_chemical_formula_structural   Li2FePCO7
_chemical_formula_sum   'Li8 Fe4 P4 C4 O28'
_cell_volume   548.19630070
_cell_formula_units_Z   4
loop_
 _symmetry_equiv_pos_site_id
 _symmetry_equiv_pos_as_xyz
  1  'x, y, z'
loop_
 _atom_site_type_symbol
 _atom_site_label
 _atom_site_symmetry_multiplicity
 _atom_site_fract_x
 _atom_site_fract_y
 _atom_site_fract_z
 _atom_site_occupancy
  Li  Li0  1  0.56621400  0.67830800  0.09830400  1
  Li  Li1  1  0.06620100  0.17831500  0.09829200  1
  Li  Li2  1  0.92824000  0.81623100  0.90167600  1
  Li  Li3  1  0.42824400  0.31622400  0.90167000  1
  Li  Li4  1  0.50411700  0.96018500  0.27297300  1
  Li  Li5  1  0.00409600  0.46021100  0.27296600  1
  Li  Li6  1  0.21016700  0.75414700  0.72700800  1
  Li  Li7  1  0.71017000  0.25415000  0.72701000  1
  Fe  Fe0  1  0.44237600  0.31524200  0.32983100  1
  Fe  Fe1  1  0.06522300  0.19231200  0.67017600  1
  Fe  Fe2  1  0.94239200  0.81523200  0.32985900  1
  Fe  Fe3  1  0.56522100  0.69231700  0.67017200  1
  P  P0  1  0.70314800  0.54901200  0.41690700  1
  P  P1  1  0.20314900  0.04901900  0.41690400  1
  P  P2  1  0.79904200  0.95317000  0.58307600  1
  P  P3  1  0.29904400  0.45316300  0.58307000  1
  C  C0  1  0.73523300  0.01324800  0.04754000  1
  C  C1  1  0.23522100  0.51325900  0.04752200  1
  C  C2  1  0.76329900  0.48525700  0.95248300  1
  C  C3  1  0.26330600  0.98524800  0.95248500  1
  O  O0  1  0.88001400  0.88285000  0.07474500  1
  O  O1  1  0.38000400  0.38286200  0.07472600  1
  O  O2  1  0.63281400  0.62996700  0.92525800  1
  O  O3  1  0.13281800  0.12996200  0.92525800  1
  O  O4  1  0.38436000  0.89101600  0.08959700  1
  O  O5  1  0.88435200  0.39102300  0.08959800  1
  O  O6  1  0.14099000  0.63436700  0.91043400  1
  O  O7  1  0.64100800  0.13435000  0.91045200  1
  O  O8  1  0.69938100  0.01068600  0.17724000  1
  O  O9  1  0.19937300  0.51069200  0.17722600  1
  O  O10  1  0.76089200  0.44947600  0.82279400  1
  O  O11  1  0.26089300  0.94947100  0.82279200  1
  O  O12  1  0.57962000  0.48400100  0.30313600  1
  O  O13  1  0.07962600  0.98400100  0.30313600  1
  O  O14  1  0.73364000  0.82997100  0.69674800  1
  O  O15  1  0.23364400  0.32995800  0.69674800  1
  O  O16  1  0.79687500  0.63930800  0.30921900  1
  O  O17  1  0.29688000  0.13931200  0.30920900  1
  O  O18  1  0.88964100  0.04658100  0.69088600  1
  O  O19  1  0.38964100  0.54658000  0.69087600  1
  O  O20  1  0.64419400  0.08586900  0.42756200  1
  O  O21  1  0.14419800  0.58586200  0.42756200  1
  O  O22  1  0.83559500  0.39396700  0.57239200  1
  O  O23  1  0.33559300  0.89398200  0.57238700  1
  O  O24  1  0.58960500  0.69335400  0.46111700  1
  O  O25  1  0.08960000  0.19336300  0.46110800  1
  O  O26  1  0.94333800  0.83947400  0.53893900  1
  O  O27  1  0.44333300  0.33946900  0.53893100  1
loop_
_geom_bond_atom_site_label_1
_geom_bond_atom_site_label_2
_geom_bond_distance
_geom_bond_site_symmetry_2
Li0 O2 1.945309 1_554
Li0 O4 1.991882 1_555
Li0 O12 2.072352 1_555
Li0 O16 2.200711 1_555
Li1 O3 1.945304 1_554
Li1 O5 1.991910 1_455
Li1 O13 2.072398 1_545
Li1 O17 2.200801 1_555
Li2 O0 1.945296 1_556
Li2 O6 1.991899 1_655
Li2 O14 2.073410 1_555
Li2 O18 2.199291 1_565
Li3 O1 1.945295 1_556
Li3 O7 1.991932 1_555
Li3 O15 2.073390 1_555
Li3 O19 2.199332 1_555
Li4 O4 2.015156 1_555
Li4 O8 2.110508 1_565
Li4 O17 2.154724 1_565
Li4 O24 2.200315 1_555
Li4 O20 2.219267 1_565
Li5 O5 2.015163 1_455
Li5 O9 2.110603 1_555
Li5 O16 2.154589 1_455
Li5 O25 2.200388 1_555
Li5 O21 2.219192 1_555
Li6 O6 2.015204 1_555
Li6 O11 2.112236 1_555
Li6 O19 2.157657 1_555
Li6 O26 2.200254 1_455
Li6 O23 2.216434 1_555
Li7 O7 2.015295 1_555
Li7 O10 2.112243 1_555
Li7 O18 2.157613 1_555
Li7 O27 2.200349 1_555
Li7 O22 2.216344 1_555
Fe0 O20 1.978826 1_555
Fe0 O12 1.992717 1_555
Fe0 O27 2.002915 1_555
Fe0 O9 2.066461 1_555
Fe0 O17 2.100599 1_555
Fe0 O1 2.151965 1_555
Fe1 O22 1.979441 1_455
Fe1 O15 1.992991 1_555
Fe1 O25 2.002813 1_555
Fe1 O11 2.066373 1_545
Fe1 O18 2.099491 1_455
Fe1 O3 2.151818 1_555
Fe2 O21 1.978772 1_655
Fe2 O13 1.992742 1_655
Fe2 O26 2.002798 1_555
Fe2 O8 2.066539 1_565
Fe2 O16 2.100700 1_555
Fe2 O0 2.152041 1_555
Fe3 O23 1.979481 1_555
Fe3 O14 1.993032 1_555
Fe3 O24 2.002743 1_555
Fe3 O10 2.066387 1_555
Fe3 O19 2.099505 1_555
Fe3 O2 2.151855 1_555
C0 O7 1.265380 1_554
C0 O8 1.312459 1_555
C0 O0 1.315952 1_545
C1 O6 1.265405 1_554
C1 O9 1.312472 1_555
C1 O1 1.315961 1_555
C2 O5 1.265421 1_556
C2 O10 1.312434 1_555
C2 O2 1.315936 1_555
C3 O4 1.265404 1_556
C3 O11 1.312444 1_555
C3 O3 1.315966 1_565
O12 P0 1.551868 1_555
O13 P1 1.551869 1_565
O14 P2 1.551761 1_555
O15 P3 1.551809 1_555
O16 P0 1.559237 1_555
O17 P1 1.559294 1_555
O18 P2 1.559318 1_545
O19 P3 1.559326 1_555
O20 P2 1.535164 1_545
O21 P3 1.535129 1_555
O22 P0 1.535139 1_555
O23 P1 1.535097 1_565
O24 P0 1.559351 1_555
O25 P1 1.559351 1_555
O26 P2 1.559192 1_555
O27 P3 1.559155 1_555
