# generated using pymatgen
data_YNi4B
_symmetry_space_group_name_H-M   'P 1'
_cell_length_a   4.94546896
_cell_length_b   4.94546946
_cell_length_c   6.87784130
_cell_angle_alpha   90.00000000
_cell_angle_beta   90.00000000
_cell_angle_gamma   119.99999666
_symmetry_Int_Tables_number   1
_chemical_formula_structural   YNi4B
_chemical_formula_sum   'Y2 Ni8 B2'
_cell_volume   145.67928512
_cell_formula_units_Z   2
loop_
 _symmetry_equiv_pos_site_id
 _symmetry_equiv_pos_as_xyz
  1  'x, y, z'
loop_
 _atom_site_type_symbol
 _atom_site_label
 _atom_site_symmetry_multiplicity
 _atom_site_fract_x
 _atom_site_fract_y
 _atom_site_fract_z
 _atom_site_occupancy
  Y  Y0  1  -0.00000000  -0.00000000  0.50000000  1
  Y  Y1  1  -0.00000000  -0.00000000  0.00000000  1
  Ni  Ni0  1  0.33333300  0.66666700  0.00000000  1
  Ni  Ni1  1  0.66666700  0.33333300  0.00000000  1
  Ni  Ni2  1  0.50000000  -0.00000000  0.29159653  1
  Ni  Ni3  1  0.50000000  0.50000000  0.29159653  1
  Ni  Ni4  1  -0.00000000  0.50000000  0.29159653  1
  Ni  Ni5  1  0.50000000  0.00000000  0.70840347  1
  Ni  Ni6  1  0.50000000  0.50000000  0.70840347  1
  Ni  Ni7  1  -0.00000000  0.50000000  0.70840347  1
  B  B0  1  0.66666700  0.33333300  0.50000000  1
  B  B1  1  0.33333300  0.66666700  0.50000000  1
loop_
_geom_bond_atom_site_label_1
_geom_bond_atom_site_label_2
_geom_bond_distance
_geom_bond_site_symmetry_2
Ni0 Ni7 2.461785 1_554
Ni0 Ni4 2.461785 1_555
Ni0 Ni5 2.461785 1_564
Ni0 Ni2 2.461785 1_565
Ni0 Ni6 2.461787 1_554
Ni0 Ni3 2.461787 1_555
Ni0 Y1 2.855265 1_565
Ni0 Y1 2.855269 1_665
Ni0 Y1 2.855270 1_555
Ni1 Ni7 2.461785 1_654
Ni1 Ni4 2.461785 1_655
Ni1 Ni5 2.461785 1_554
Ni1 Ni2 2.461785 1_555
Ni1 Ni6 2.461787 1_554
Ni1 Ni3 2.461787 1_555
Ni1 Y1 2.855265 1_655
Ni1 Y1 2.855269 1_555
Ni1 Y1 2.855270 1_665
Ni2 Y0 2.858138 1_655
Ni2 Y0 2.858138 1_555
Ni3 Y0 2.858138 1_555
Ni3 Y0 2.858138 1_665
Ni4 Y0 2.858138 1_555
Ni4 Y0 2.858138 1_565
Ni5 Y0 2.858138 1_655
Ni5 Y0 2.858138 1_555
Ni6 Y0 2.858138 1_555
Ni6 Y0 2.858138 1_665
Ni7 Y0 2.858138 1_555
Ni7 Y0 2.858138 1_565
B0 Ni4 2.023036 1_655
B0 Ni7 2.023036 1_655
B0 Ni2 2.023036 1_555
B0 Ni5 2.023036 1_555
B0 Ni3 2.023039 1_555
B0 Ni6 2.023039 1_555
B0 Y0 2.855265 1_655
B0 Y0 2.855269 1_555
B0 Y0 2.855270 1_665
B1 Ni4 2.023036 1_555
B1 Ni7 2.023036 1_555
B1 Ni2 2.023036 1_565
B1 Ni5 2.023036 1_565
B1 Ni3 2.023039 1_555
B1 Ni6 2.023039 1_555
B1 Y0 2.855265 1_565
B1 Y0 2.855269 1_665
B1 Y0 2.855270 1_555
