# generated using pymatgen
data_Li2MnPHO5
_symmetry_space_group_name_H-M   'P 1'
_cell_length_a   5.24022411
_cell_length_b   11.00838545
_cell_length_c   7.84522585
_cell_angle_alpha   102.39872501
_cell_angle_beta   72.95200617
_cell_angle_gamma   80.53871410
_symmetry_Int_Tables_number   1
_chemical_formula_structural   Li2MnPHO5
_chemical_formula_sum   'Li8 Mn4 P4 H4 O20'
_cell_volume   409.87102871
_cell_formula_units_Z   4
loop_
 _symmetry_equiv_pos_site_id
 _symmetry_equiv_pos_as_xyz
  1  'x, y, z'
loop_
 _atom_site_type_symbol
 _atom_site_label
 _atom_site_symmetry_multiplicity
 _atom_site_fract_x
 _atom_site_fract_y
 _atom_site_fract_z
 _atom_site_occupancy
  Li  Li0  1  0.78968500  0.15353300  0.43987600  1
  Li  Li1  1  0.28992700  0.65359800  0.93958500  1
  Li  Li2  1  0.01595200  0.34075500  0.52488300  1
  Li  Li3  1  0.51652200  0.84073000  0.02506600  1
  Li  Li4  1  0.67350500  0.26412000  0.11452500  1
  Li  Li5  1  0.17379600  0.76415700  0.61456000  1
  Li  Li6  1  0.16326100  0.00508200  0.58803200  1
  Li  Li7  1  0.66301100  0.50509200  0.08804000  1
  Mn  Mn0  1  0.99976800  0.99902400  0.99442300  1
  Mn  Mn1  1  0.27554200  0.25123200  0.77209500  1
  Mn  Mn2  1  0.49940600  0.49891900  0.49406800  1
  Mn  Mn3  1  0.77563600  0.75127100  0.27231500  1
  P  P0  1  0.36272500  0.07855800  0.29596900  1
  P  P1  1  0.86276300  0.57846200  0.79581900  1
  P  P2  1  0.14328900  0.43509000  0.18662700  1
  P  P3  1  0.64340200  0.93513300  0.68673100  1
  H  H0  1  0.82930100  0.15488100  0.81084000  1
  H  H1  1  0.32961000  0.65501600  0.31073500  1
  H  H2  1  0.63101800  0.36953000  0.71035100  1
  H  H3  1  0.13131200  0.86961500  0.21033400  1
  O  O0  1  0.63091000  0.12405800  0.23592700  1
  O  O1  1  0.13093300  0.62399000  0.73573800  1
  O  O2  1  0.18439200  0.09569600  0.17529200  1
  O  O3  1  0.68420700  0.59562700  0.67528600  1
  O  O4  1  0.63204100  0.07447400  0.66678600  1
  O  O5  1  0.13208300  0.57444000  0.16674600  1
  O  O6  1  0.18047100  0.16063500  0.50009500  1
  O  O7  1  0.68086000  0.66045200  0.99998000  1
  O  O8  1  0.96255800  0.15973600  0.87653400  1
  O  O9  1  0.46270000  0.65974800  0.37654400  1
  O  O10  1  0.59410300  0.33118700  0.59741100  1
  O  O11  1  0.09423100  0.83121500  0.09748300  1
  O  O12  1  0.37378100  0.34222000  0.00982100  1
  O  O13  1  0.87396000  0.84230700  0.50987300  1
  O  O14  1  0.93105400  0.43485500  0.79923100  1
  O  O15  1  0.43110900  0.93494700  0.29942700  1
  O  O16  1  0.23116600  0.41806400  0.35481700  1
  O  O17  1  0.73116500  0.91820000  0.85498600  1
  O  O18  1  0.85538900  0.40519500  0.21157600  1
  O  O19  1  0.35565200  0.90512100  0.71160800  1
loop_
_geom_bond_atom_site_label_1
_geom_bond_atom_site_label_2
_geom_bond_distance
_geom_bond_site_symmetry_2
Li0 O10 1.990716 1_555
Li0 O0 2.001000 1_555
Li0 O4 2.155980 1_555
Li0 O6 2.242063 1_655
Li0 O2 2.339708 1_655
Li1 O11 1.991246 1_556
Li1 O1 2.001154 1_555
Li1 O5 2.158474 1_556
Li1 O7 2.243090 1_555
Li1 O3 2.337045 1_555
Li2 O16 1.922794 1_555
Li2 O6 1.971495 1_555
Li2 O14 2.057446 1_455
Li2 O10 2.141565 1_455
Li3 O17 1.922720 1_554
Li3 O7 1.972281 1_554
Li3 O15 2.057383 1_555
Li3 O11 2.143657 1_555
Li4 O8 1.987209 1_554
Li4 O0 1.988308 1_555
Li4 O18 2.074688 1_555
Li4 O12 2.120512 1_555
Li4 O16 2.563813 1_555
Li5 O9 1.987089 1_555
Li5 O1 1.988409 1_555
Li5 O19 2.073668 1_555
Li5 O13 2.121084 1_455
Li5 O17 2.565432 1_455
Li6 O19 1.957983 1_545
Li6 O6 1.984425 1_555
Li6 O15 2.173082 1_545
Li7 O18 1.957292 1_555
Li7 O7 1.983206 1_554
Li7 O14 2.174641 1_554
Mn0 O2 2.139377 1_666
Mn0 O8 2.172182 1_565
Mn0 O17 2.205909 1_555
Mn0 O11 2.210594 1_656
Mn0 O0 2.253553 1_566
Mn0 O19 2.329044 1_655
Mn1 O8 2.117859 1_455
Mn1 O12 2.162598 1_556
Mn1 O10 2.258122 1_555
Mn1 O4 2.273396 1_555
Mn1 O6 2.381003 1_555
Mn1 O14 2.404223 1_455
Mn2 O3 2.142110 1_555
Mn2 O9 2.171326 1_555
Mn2 O16 2.203560 1_555
Mn2 O10 2.211446 1_555
Mn2 O1 2.253239 1_555
Mn2 O18 2.327489 1_555
Mn3 O9 2.117446 1_555
Mn3 O13 2.161921 1_555
Mn3 O11 2.258707 1_655
Mn3 O5 2.273632 1_655
Mn3 O7 2.383086 1_554
Mn3 O15 2.404810 1_555
H0 O8 0.983645 1_555
H1 O9 0.983454 1_555
H2 O10 0.983560 1_555
H2 Li2 2.038972 1_655
H3 O11 0.983586 1_555
H3 Li3 2.039259 1_555
O0 P0 1.546726 1_555
O1 P1 1.546856 1_455
O2 P0 1.530589 1_555
O3 P1 1.530607 1_555
O4 P3 1.568262 1_545
O5 P2 1.568276 1_555
O6 P0 1.578354 1_555
O7 P1 1.577915 1_555
O12 P2 1.559097 1_555
O13 P3 1.559287 1_555
O14 P1 1.570275 1_555
O15 P0 1.570459 1_565
O16 P2 1.556385 1_555
O17 P3 1.556302 1_555
O18 P2 1.562184 1_655
O19 P3 1.562001 1_555
