# generated using pymatgen
data_Li3CuS2
_symmetry_space_group_name_H-M   'P 1'
_cell_length_a   7.97154300
_cell_length_b   7.10664000
_cell_length_c   8.78640074
_cell_angle_alpha   54.60762772
_cell_angle_beta   90.00000000
_cell_angle_gamma   90.00000000
_symmetry_Int_Tables_number   1
_chemical_formula_structural   Li3CuS2
_chemical_formula_sum   'Li12 Cu4 S8'
_cell_volume   405.77426669
_cell_formula_units_Z   4
loop_
 _symmetry_equiv_pos_site_id
 _symmetry_equiv_pos_as_xyz
  1  'x, y, z'
loop_
 _atom_site_type_symbol
 _atom_site_label
 _atom_site_symmetry_multiplicity
 _atom_site_fract_x
 _atom_site_fract_y
 _atom_site_fract_z
 _atom_site_occupancy
  Li  Li0  1  0.77053100  0.73214400  0.65926900  1
  Li  Li1  1  0.50164900  0.24715800  0.11156900  1
  Li  Li2  1  0.94860200  0.20820700  0.04493500  1
  Li  Li3  1  0.27053100  0.26785600  0.84073100  1
  Li  Li4  1  0.99835100  0.24715800  0.61156900  1
  Li  Li5  1  0.44860200  0.79179300  0.45506500  1
  Li  Li6  1  0.55139800  0.20820700  0.54493500  1
  Li  Li7  1  0.00164900  0.75284200  0.38843100  1
  Li  Li8  1  0.72946900  0.73214400  0.15926900  1
  Li  Li9  1  0.05139800  0.79179300  0.95506500  1
  Li  Li10  1  0.49835100  0.75284200  0.88843100  1
  Li  Li11  1  0.22946900  0.26785600  0.34073100  1
  Cu  Cu0  1  0.16868600  0.76199500  0.69168800  1
  Cu  Cu1  1  0.66868600  0.23800500  0.80831200  1
  Cu  Cu2  1  0.33131400  0.76199500  0.19168800  1
  Cu  Cu3  1  0.83131400  0.23800500  0.30831200  1
  S  S0  1  0.01230100  0.49322400  0.72528000  1
  S  S1  1  0.51230100  0.50677600  0.77472000  1
  S  S2  1  0.72537100  0.96350600  0.30138400  1
  S  S3  1  0.22537100  0.03649400  0.19861600  1
  S  S4  1  0.77462900  0.96350600  0.80138400  1
  S  S5  1  0.27462900  0.03649400  0.69861600  1
  S  S6  1  0.48769900  0.49322400  0.22528000  1
  S  S7  1  0.98769900  0.50677600  0.27472000  1
loop_
_geom_bond_atom_site_label_1
_geom_bond_atom_site_label_2
_geom_bond_distance
_geom_bond_site_symmetry_2
Li0 S0 2.406866 1_655
Li0 S1 2.439183 1_555
Li0 S4 2.577182 1_555
Li0 S2 2.594629 1_555
Li1 S1 2.417791 1_554
Li1 S6 2.468268 1_555
Li1 S2 2.476141 1_545
Li1 S3 2.519993 1_555
Li2 S0 2.378902 1_654
Li2 S3 2.504279 1_655
Li2 S2 2.594038 1_545
Li3 S1 2.406866 1_555
Li3 S0 2.439183 1_555
Li3 S5 2.577182 1_555
Li3 S3 2.594629 1_556
Li4 S7 2.417791 1_555
Li4 S0 2.468268 1_655
Li4 S4 2.476141 1_545
Li4 S5 2.519993 1_655
Li5 S1 2.378902 1_555
Li5 S2 2.504279 1_555
Li5 S3 2.594038 1_565
Li6 S6 2.378902 1_555
Li6 S5 2.504279 1_555
Li6 S4 2.594038 1_545
Li7 S0 2.417791 1_555
Li7 S7 2.468268 1_455
Li7 S3 2.476141 1_565
Li7 S2 2.519993 1_455
Li8 S6 2.406866 1_555
Li8 S7 2.439183 1_555
Li8 S2 2.577182 1_555
Li8 S4 2.594629 1_554
Li9 S7 2.378902 1_456
Li9 S4 2.504279 1_455
Li9 S5 2.594038 1_565
Li10 S6 2.417791 1_556
Li10 S1 2.468268 1_555
Li10 S5 2.476141 1_565
Li10 S4 2.519993 1_555
Li11 S7 2.406866 1_455
Li11 S6 2.439183 1_555
Li11 S3 2.577182 1_555
Li11 S5 2.594629 1_555
Cu0 S0 2.153253 1_555
Cu0 S5 2.158697 1_565
Cu0 Li9 2.615698 1_555
Cu0 Li5 2.972599 1_555
Cu1 S1 2.153253 1_555
Cu1 S4 2.158697 1_545
Cu1 Li6 2.615698 1_555
Cu1 Li2 2.972599 1_556
Cu2 S6 2.153253 1_555
Cu2 S3 2.158697 1_565
Cu2 Li5 2.615698 1_555
Cu2 Li9 2.972599 1_554
Cu3 S7 2.153253 1_555
Cu3 S2 2.158697 1_545
Cu3 Li2 2.615698 1_555
Cu3 Li6 2.972599 1_555
