# generated using pymatgen
data_P4H3(WO8)2
_symmetry_space_group_name_H-M   'P 1'
_cell_length_a   5.01380100
_cell_length_b   7.49035264
_cell_length_c   8.31863518
_cell_angle_alpha   90.79962764
_cell_angle_beta   90.56782649
_cell_angle_gamma   104.34695202
_symmetry_Int_Tables_number   1
_chemical_formula_structural   P4H3(WO8)2
_chemical_formula_sum   'P4 H3 W2 O16'
_cell_volume   302.60614205
_cell_formula_units_Z   1
loop_
 _symmetry_equiv_pos_site_id
 _symmetry_equiv_pos_as_xyz
  1  'x, y, z'
loop_
 _atom_site_type_symbol
 _atom_site_label
 _atom_site_symmetry_multiplicity
 _atom_site_fract_x
 _atom_site_fract_y
 _atom_site_fract_z
 _atom_site_occupancy
  P  P0  1  0.11793000  0.25964900  0.66114300  1
  P  P1  1  0.37714500  0.22709900  0.14929900  1
  P  P2  1  0.61245500  0.76578600  0.84970400  1
  P  P3  1  0.88255400  0.74306400  0.33878300  1
  H  H0  1  0.45180200  0.49950600  0.60380700  1
  H  H1  1  0.55943600  0.49383500  0.37430100  1
  H  H2  1  0.95925100  0.98533100  0.99315200  1
  W  W0  1  0.99739300  0.49689500  0.00171300  1
  W  W1  1  0.49992200  0.00115100  0.49976600  1
  O  O0  1  0.13991200  0.81908500  0.44071600  1
  O  O1  1  0.05199900  0.31316800  0.83278800  1
  O  O2  1  0.23225900  0.39209300  0.15620900  1
  O  O3  1  0.26169500  0.44057500  0.57099800  1
  O  O4  1  0.32608200  0.67358000  0.92838100  1
  O  O5  1  0.55951400  0.81266500  0.67704300  1
  O  O6  1  0.22791300  0.06340200  0.05226000  1
  O  O7  1  0.30699600  0.12610100  0.66992100  1
  O  O8  1  0.69656300  0.87853300  0.32964600  1
  O  O9  1  0.75045300  0.93474000  0.95231300  1
  O  O10  1  0.44287200  0.19130700  0.32470100  1
  O  O11  1  0.66954300  0.32421600  0.07105200  1
  O  O12  1  0.72961300  0.56237400  0.42827600  1
  O  O13  1  0.77102000  0.61083900  0.84545400  1
  O  O14  1  0.94549300  0.68571100  0.16779100  1
  O  O15  1  0.85906400  0.18119300  0.56087900  1
loop_
_geom_bond_atom_site_label_1
_geom_bond_atom_site_label_2
_geom_bond_distance
_geom_bond_site_symmetry_2
H0 O3 0.980212 1_555
H1 O12 0.980845 1_555
H2 O9 1.071311 1_555
H2 O6 1.409489 1_666
O0 P3 1.519519 1_455
O0 W1 2.025580 1_565
O1 P0 1.538762 1_555
O1 W0 2.020857 1_456
O2 P1 1.581812 1_555
O2 W0 2.027539 1_455
O3 P0 1.572713 1_555
O4 P2 1.583262 1_555
O4 W0 1.949624 1_456
O5 P2 1.519683 1_555
O5 W1 2.125019 1_565
O6 P1 1.490179 1_555
O7 P0 1.541158 1_555
O7 W1 2.062508 1_555
O8 P3 1.541007 1_555
O8 W1 2.063595 1_565
O9 P2 1.527433 1_555
O10 P1 1.534481 1_555
O10 W1 2.117289 1_555
O11 P1 1.614217 1_555
O11 W0 1.921875 1_555
O12 P3 1.580856 1_555
O13 P2 1.561088 1_555
O13 W0 2.046476 1_556
O14 P3 1.538322 1_555
O14 W0 2.027705 1_555
O15 P0 1.520664 1_655
O15 W1 2.019599 1_555
