# generated using pymatgen
data_Zr3(Cu2Si)2
_symmetry_space_group_name_H-M   'P 1'
_cell_length_a   6.33600025
_cell_length_b   6.33600102
_cell_length_c   3.98802710
_cell_angle_alpha   90.00000000
_cell_angle_beta   90.00000000
_cell_angle_gamma   120.00000126
_symmetry_Int_Tables_number   1
_chemical_formula_structural   Zr3(Cu2Si)2
_chemical_formula_sum   'Zr3 Cu4 Si2'
_cell_volume   138.64976923
_cell_formula_units_Z   1
loop_
 _symmetry_equiv_pos_site_id
 _symmetry_equiv_pos_as_xyz
  1  'x, y, z'
loop_
 _atom_site_type_symbol
 _atom_site_label
 _atom_site_symmetry_multiplicity
 _atom_site_fract_x
 _atom_site_fract_y
 _atom_site_fract_z
 _atom_site_occupancy
  Zr  Zr0  1  1.00000000  0.58949517  0.50000000  1
  Zr  Zr1  1  0.41050483  0.41050483  0.50000000  1
  Zr  Zr2  1  0.58949517  0.00000000  0.50000000  1
  Cu  Cu0  1  0.00000000  -0.00000000  0.50000000  1
  Cu  Cu1  1  0.24615499  0.00000000  0.00000000  1
  Cu  Cu2  1  0.75384501  0.75384501  0.00000000  1
  Cu  Cu3  1  1.00000000  0.24615499  -0.00000000  1
  Si  Si0  1  0.66666700  0.33333300  -0.00000000  1
  Si  Si1  1  0.33333300  0.66666700  -0.00000000  1
loop_
_geom_bond_atom_site_label_1
_geom_bond_atom_site_label_2
_geom_bond_distance
_geom_bond_site_symmetry_2
Cu0 Cu1 2.531514 1_556
Cu0 Cu1 2.531514 1_555
Cu0 Cu2 2.531514 1_446
Cu0 Cu2 2.531514 1_445
Cu0 Cu3 2.531514 1_455
Cu0 Cu3 2.531514 1_456
Cu0 Zr2 2.600959 1_455
Cu0 Zr1 2.600959 1_555
Cu0 Zr0 2.600959 1_445
Cu1 Si1 2.435615 1_545
Cu1 Si0 2.435619 1_555
Cu1 Cu2 2.701372 1_445
Cu1 Cu3 2.701373 1_455
Cu1 Zr2 2.951012 1_554
Cu1 Zr2 2.951012 1_555
Cu1 Zr0 3.019436 1_445
Cu1 Zr0 3.019436 1_444
Cu1 Zr1 3.019436 1_554
Cu1 Zr1 3.019436 1_555
Cu2 Si1 2.435621 1_555
Cu2 Si0 2.435621 1_555
Cu2 Cu3 2.701373 1_565
Cu2 Zr1 2.951012 1_555
Cu2 Zr1 2.951012 1_554
Cu2 Zr0 3.019436 1_555
Cu2 Zr0 3.019436 1_554
Cu2 Zr2 3.019436 1_565
Cu2 Zr2 3.019436 1_564
Cu3 Si0 2.435615 1_555
Cu3 Si1 2.435619 1_655
Cu3 Zr0 2.951012 1_555
Cu3 Zr0 2.951012 1_554
Cu3 Zr1 3.019436 1_655
Cu3 Zr1 3.019436 1_654
Cu3 Zr2 3.019436 1_555
Cu3 Zr2 3.019436 1_554
Si0 Zr2 2.764602 1_554
Si0 Zr2 2.764602 1_555
Si0 Zr0 2.764603 1_555
Si0 Zr0 2.764603 1_554
Si0 Zr1 2.764606 1_555
Si0 Zr1 2.764606 1_554
Si1 Zr0 2.764602 1_455
Si1 Zr0 2.764602 1_454
Si1 Zr2 2.764603 1_565
Si1 Zr2 2.764603 1_564
Si1 Zr1 2.764606 1_554
Si1 Zr1 2.764606 1_555
