# generated using pymatgen
data_Li2FeCo3O8
_symmetry_space_group_name_H-M   'P 1'
_cell_length_a   5.81958496
_cell_length_b   5.81958496
_cell_length_c   5.97119986
_cell_angle_alpha   60.29364586
_cell_angle_beta   60.29364586
_cell_angle_gamma   59.43221891
_symmetry_Int_Tables_number   1
_chemical_formula_structural   Li2FeCo3O8
_chemical_formula_sum   'Li2 Fe1 Co3 O8'
_cell_volume   142.99788106
_cell_formula_units_Z   1
loop_
 _symmetry_equiv_pos_site_id
 _symmetry_equiv_pos_as_xyz
  1  'x, y, z'
loop_
 _atom_site_type_symbol
 _atom_site_label
 _atom_site_symmetry_multiplicity
 _atom_site_fract_x
 _atom_site_fract_y
 _atom_site_fract_z
 _atom_site_occupancy
  Li  Li0  1  0.50000000  0.50000000  0.50000000  1
  Li  Li1  1  0.00000000  0.00000000  0.50000000  1
  Fe  Fe0  1  0.00000000  0.00000000  0.00000000  1
  Co  Co0  1  0.50000000  0.50000000  0.00000000  1
  Co  Co1  1  0.50000000  0.00000000  0.00000000  1
  Co  Co2  1  0.00000000  0.50000000  0.00000000  1
  O  O0  1  0.72505500  0.22974800  0.78670200  1
  O  O1  1  0.25610000  0.25610000  0.20154000  1
  O  O2  1  0.22974800  0.72505500  0.78670200  1
  O  O3  1  0.24455200  0.24455200  0.79890700  1
  O  O4  1  0.75544800  0.75544800  0.20109300  1
  O  O5  1  0.77025200  0.27494500  0.21329800  1
  O  O6  1  0.74390000  0.74390000  0.79846000  1
  O  O7  1  0.27494500  0.77025200  0.21329800  1
loop_
_geom_bond_atom_site_label_1
_geom_bond_atom_site_label_2
_geom_bond_distance
_geom_bond_site_symmetry_2
Li0 O7 2.139698 1_555
Li0 O0 2.139698 1_555
Li0 O5 2.139698 1_555
Li0 O2 2.139698 1_555
Li0 O3 2.143341 1_555
Li0 O4 2.143341 1_555
Li1 O1 2.147773 1_555
Li1 O6 2.147773 1_445
Li1 O2 2.157874 1_545
Li1 O5 2.157874 1_455
Li1 O7 2.157874 1_545
Li1 O0 2.157874 1_455
Fe0 O7 2.031284 1_545
Fe0 O0 2.031284 1_454
Fe0 O2 2.031284 1_544
Fe0 O5 2.031284 1_455
Fe0 O4 2.040948 1_445
Fe0 O3 2.040948 1_554
Co0 O0 2.011966 1_554
Co0 O7 2.011966 1_555
Co0 O5 2.011966 1_555
Co0 O2 2.011966 1_554
Co0 O1 2.034912 1_555
Co0 O6 2.034912 1_554
Co1 O7 1.888195 1_545
Co1 O0 1.888195 1_554
Co1 O4 1.897586 1_545
Co1 O3 1.897586 1_554
Co1 O1 1.901904 1_555
Co1 O6 1.901904 1_544
Co2 O2 1.888195 1_554
Co2 O5 1.888195 1_455
Co2 O3 1.897586 1_554
Co2 O4 1.897586 1_455
Co2 O1 1.901904 1_555
Co2 O6 1.901904 1_454
