# generated using pymatgen
data_Li4Cu4Cl10O
_symmetry_space_group_name_H-M   'P 1'
_cell_length_a   10.39481004
_cell_length_b   10.39481004
_cell_length_c   7.53278136
_cell_angle_alpha   78.99509643
_cell_angle_beta   78.99509643
_cell_angle_gamma   83.58844516
_symmetry_Int_Tables_number   1
_chemical_formula_structural   Li4Cu4Cl10O
_chemical_formula_sum   'Li8 Cu8 Cl20 O2'
_cell_volume   781.87888653
_cell_formula_units_Z   2
loop_
 _symmetry_equiv_pos_site_id
 _symmetry_equiv_pos_as_xyz
  1  'x, y, z'
loop_
 _atom_site_type_symbol
 _atom_site_label
 _atom_site_symmetry_multiplicity
 _atom_site_fract_x
 _atom_site_fract_y
 _atom_site_fract_z
 _atom_site_occupancy
  Li  Li0  1  0.92795800  0.71852300  0.35323800  1
  Li  Li1  1  0.71852300  0.92795800  0.85323800  1
  Li  Li2  1  0.57638100  0.74881600  0.35615500  1
  Li  Li3  1  0.74881600  0.57638100  0.85615500  1
  Li  Li4  1  0.25118400  0.42361900  0.14384500  1
  Li  Li5  1  0.42361900  0.25118400  0.64384500  1
  Li  Li6  1  0.28147700  0.07204200  0.14676200  1
  Li  Li7  1  0.07204200  0.28147700  0.64676200  1
  Cu  Cu0  1  0.76953300  0.37278000  0.37435900  1
  Cu  Cu1  1  0.94959200  0.22068500  0.09136500  1
  Cu  Cu2  1  0.37278000  0.76953300  0.87435900  1
  Cu  Cu3  1  0.22068500  0.94959200  0.59136500  1
  Cu  Cu4  1  0.77931500  0.05040800  0.40863500  1
  Cu  Cu5  1  0.62722000  0.23046700  0.12564100  1
  Cu  Cu6  1  0.05040800  0.77931500  0.90863500  1
  Cu  Cu7  1  0.23046700  0.62722000  0.62564100  1
  Cl  Cl0  1  0.84414400  0.73378400  0.05543400  1
  Cl  Cl1  1  0.98628500  0.35108700  0.36478100  1
  Cl  Cl2  1  0.73378400  0.84414400  0.55543400  1
  Cl  Cl3  1  0.35108700  0.98628500  0.86478100  1
  Cl  Cl4  1  0.55451300  0.72517800  0.00364200  1
  Cl  Cl5  1  0.34828200  0.85088600  0.35873300  1
  Cl  Cl6  1  0.72517800  0.55451300  0.50364200  1
  Cl  Cl7  1  0.85088600  0.34828200  0.85873300  1
  Cl  Cl8  1  0.99645800  0.00354200  0.25000000  1
  Cl  Cl9  1  0.58464500  0.41535500  0.25000000  1
  Cl  Cl10  1  0.41535500  0.58464500  0.75000000  1
  Cl  Cl11  1  0.00354200  0.99645800  0.75000000  1
  Cl  Cl12  1  0.14911400  0.65171800  0.14126700  1
  Cl  Cl13  1  0.27482200  0.44548700  0.49635800  1
  Cl  Cl14  1  0.65171800  0.14911400  0.64126700  1
  Cl  Cl15  1  0.44548700  0.27482200  0.99635800  1
  Cl  Cl16  1  0.64891300  0.01371500  0.13521900  1
  Cl  Cl17  1  0.26621600  0.15585600  0.44456600  1
  Cl  Cl18  1  0.01371500  0.64891300  0.63521900  1
  Cl  Cl19  1  0.15585600  0.26621600  0.94456600  1
  O  O0  1  0.78245500  0.21754500  0.25000000  1
  O  O1  1  0.21754500  0.78245500  0.75000000  1
loop_
_geom_bond_atom_site_label_1
_geom_bond_atom_site_label_2
_geom_bond_distance
_geom_bond_site_symmetry_2
Cu0 O0 1.995011 1_555
Cu1 O0 1.911169 1_555
Cu2 O1 1.995011 1_555
Cu3 O1 1.911169 1_555
Cu4 O0 1.911169 1_555
Cu5 O0 1.995011 1_555
Cu6 O1 1.911169 1_555
Cu7 O1 1.995011 1_555
Cl0 Cu6 2.272773 1_654
Cl0 Li0 2.529033 1_555
Cl0 Li1 2.663811 1_554
Cl0 Li3 2.789277 1_554
Cl1 Cu0 2.227818 1_555
Cl1 Li7 2.412898 1_655
Cl1 Cu1 2.775968 1_555
Cl1 Li4 3.025790 1_655
Cl2 Cu4 2.272773 1_565
Cl2 Li1 2.529033 1_555
Cl2 Li0 2.663811 1_555
Cl2 Li2 2.789277 1_555
Cl3 Cu2 2.227818 1_555
Cl3 Li6 2.412898 1_566
Cl3 Cu3 2.775968 1_555
Cl3 Li5 3.025790 1_565
Cl4 Cu2 2.250784 1_554
Cl4 Li3 2.609146 1_554
Cl4 Li2 2.766810 1_555
Cl4 Li1 2.790448 1_554
Cl5 Cu3 2.319022 1_555
Cl5 Li2 2.485235 1_555
Cl5 Li6 2.642343 1_565
Cl6 Cu0 2.250784 1_555
Cl6 Li2 2.609146 1_555
Cl6 Li3 2.766810 1_555
Cl6 Li0 2.790448 1_555
Cl7 Cu1 2.319022 1_556
Cl7 Li3 2.485235 1_555
Cl7 Li7 2.642343 1_655
Cl8 Cu4 2.388921 1_555
Cl8 Cu1 2.388921 1_555
Cl9 Cu0 2.259671 1_555
Cl9 Cu5 2.259671 1_555
Cl10 Cu2 2.259671 1_555
Cl10 Cu7 2.259671 1_555
Cl11 Cu6 2.388921 1_555
Cl11 Cu3 2.388921 1_555
Cl12 Cu6 2.319022 1_554
Cl12 Li4 2.485235 1_555
Cl12 Li0 2.642343 1_455
Cl13 Cu7 2.250784 1_555
Cl13 Li5 2.609146 1_555
Cl13 Li4 2.766810 1_555
Cl13 Li7 2.790448 1_555
Cl14 Cu4 2.319022 1_555
Cl14 Li5 2.485235 1_555
Cl14 Li1 2.642343 1_545
Cl15 Cu5 2.250784 1_556
Cl15 Li4 2.609146 1_556
Cl15 Li5 2.766810 1_555
Cl15 Li6 2.790448 1_556
Cl16 Cu5 2.227818 1_555
Cl16 Li1 2.412898 1_544
Cl16 Cu4 2.775968 1_555
Cl16 Li2 3.025790 1_545
Cl17 Cu3 2.272773 1_545
Cl17 Li6 2.529033 1_555
Cl17 Li7 2.663811 1_555
Cl17 Li5 2.789277 1_555
Cl18 Cu7 2.227818 1_555
Cl18 Li0 2.412898 1_455
Cl18 Cu6 2.775968 1_555
Cl18 Li3 3.025790 1_455
Cl19 Cu1 2.272773 1_456
Cl19 Li7 2.529033 1_555
Cl19 Li6 2.663811 1_556
Cl19 Li4 2.789277 1_556
