# generated using pymatgen
data_Li2FeBO4
_symmetry_space_group_name_H-M   'P 1'
_cell_length_a   5.11862700
_cell_length_b   4.81881300
_cell_length_c   7.83387491
_cell_angle_alpha   52.28323310
_cell_angle_beta   90.00000000
_cell_angle_gamma   90.00000000
_symmetry_Int_Tables_number   1
_chemical_formula_structural   Li2FeBO4
_chemical_formula_sum   'Li4 Fe2 B2 O8'
_cell_volume   152.85200085
_cell_formula_units_Z   2
loop_
 _symmetry_equiv_pos_site_id
 _symmetry_equiv_pos_as_xyz
  1  'x, y, z'
loop_
 _atom_site_type_symbol
 _atom_site_label
 _atom_site_symmetry_multiplicity
 _atom_site_fract_x
 _atom_site_fract_y
 _atom_site_fract_z
 _atom_site_occupancy
  Li  Li0  1  0.34749500  0.25729600  0.24853000  1
  Li  Li1  1  0.18640500  0.50688000  0.49572800  1
  Li  Li2  1  0.65250500  0.25729600  0.74853000  1
  Li  Li3  1  0.81359500  0.50688000  0.99572800  1
  Fe  Fe0  1  0.17755500  0.99875200  0.00172700  1
  Fe  Fe1  1  0.82244500  0.99875200  0.50172700  1
  B  B0  1  0.67928400  0.74710000  0.24829600  1
  B  B1  1  0.32071600  0.74710000  0.74829600  1
  O  O0  1  0.81963500  0.04592200  0.04901300  1
  O  O1  1  0.39953100  0.84794200  0.24017000  1
  O  O2  1  0.69344900  0.43072200  0.25522700  1
  O  O3  1  0.80707800  0.65862200  0.44959800  1
  O  O4  1  0.18036500  0.04592200  0.54901300  1
  O  O5  1  0.60046900  0.84794200  0.74017000  1
  O  O6  1  0.30655100  0.43072200  0.75522700  1
  O  O7  1  0.19292200  0.65862200  0.94959800  1
loop_
_geom_bond_atom_site_label_1
_geom_bond_atom_site_label_2
_geom_bond_distance
_geom_bond_site_symmetry_2
Li0 O2 1.972453 1_555
Li0 O1 2.030874 1_545
Li0 O7 2.075796 1_554
Li0 O4 2.092082 1_555
Li1 O6 1.932018 1_555
Li1 O1 1.968119 1_555
Li1 O4 1.993684 1_555
Li1 O3 2.027783 1_455
Li2 O6 1.972453 1_555
Li2 O5 2.030874 1_545
Li2 O3 2.075796 1_555
Li2 O0 2.092082 1_556
Li3 O2 1.932018 1_556
Li3 O5 1.968119 1_555
Li3 O0 1.993684 1_556
Li3 O7 2.027783 1_655
Fe0 O6 1.892040 1_564
Fe0 O1 1.909814 1_555
Fe0 O0 1.910065 1_465
Fe0 O7 1.917887 1_554
Fe1 O2 1.892040 1_565
Fe1 O5 1.909814 1_555
Fe1 O4 1.910065 1_665
Fe1 O3 1.917887 1_555
B0 O2 1.493729 1_555
B0 O1 1.500941 1_555
B0 O3 1.507938 1_555
B0 O0 1.508754 1_565
B1 O6 1.493729 1_555
B1 O5 1.500941 1_555
B1 O7 1.507938 1_555
B1 O4 1.508754 1_565
