# generated using pymatgen
data_Na2NiPCO7
_symmetry_space_group_name_H-M   'P 1'
_cell_length_a   6.52318700
_cell_length_b   10.25018200
_cell_length_c   10.38439975
_cell_angle_alpha   61.07369985
_cell_angle_beta   90.00000000
_cell_angle_gamma   90.00000000
_symmetry_Int_Tables_number   1
_chemical_formula_structural   Na2NiPCO7
_chemical_formula_sum   'Na8 Ni4 P4 C4 O28'
_cell_volume   607.71680957
_cell_formula_units_Z   4
loop_
 _symmetry_equiv_pos_site_id
 _symmetry_equiv_pos_as_xyz
  1  'x, y, z'
loop_
 _atom_site_type_symbol
 _atom_site_label
 _atom_site_symmetry_multiplicity
 _atom_site_fract_x
 _atom_site_fract_y
 _atom_site_fract_z
 _atom_site_occupancy
  Na  Na0  1  0.73244800  0.73618800  0.25842600  1
  Na  Na1  1  0.26623700  0.73608000  0.25700900  1
  Na  Na2  1  0.23096100  0.26847100  0.23834100  1
  Na  Na3  1  0.00283200  0.08887700  0.06206900  1
  Na  Na4  1  0.99716800  0.08887700  0.56206900  1
  Na  Na5  1  0.26755200  0.73618800  0.75842600  1
  Na  Na6  1  0.73376300  0.73608000  0.75700900  1
  Na  Na7  1  0.76903900  0.26847100  0.73834100  1
  Ni  Ni0  1  0.00018900  0.65260800  0.06197900  1
  Ni  Ni1  1  0.49783300  0.34492200  0.43840200  1
  Ni  Ni2  1  0.99981100  0.65260800  0.56197900  1
  Ni  Ni3  1  0.50216700  0.34492200  0.93840200  1
  P  P0  1  0.50215000  0.57380100  0.07321900  1
  P  P1  1  0.99930000  0.42243600  0.43123200  1
  P  P2  1  0.49785000  0.57380100  0.57321900  1
  P  P3  1  0.00070000  0.42243600  0.93123200  1
  C  C0  1  0.50232200  0.06837200  0.10872300  1
  C  C1  1  0.49767800  0.06837200  0.60872300  1
  C  C2  1  0.00433700  0.92931400  0.39055200  1
  C  C3  1  0.99566300  0.92931400  0.89055200  1
  O  O0  1  0.00006400  0.86788200  0.03430300  1
  O  O1  1  0.31348200  0.67311000  0.05814600  1
  O  O2  1  0.68986300  0.67300300  0.05861300  1
  O  O3  1  0.99583900  0.57008100  0.28449800  1
  O  O4  1  0.49758700  0.53956600  0.44169300  1
  O  O5  1  0.00118800  0.46298500  0.05851300  1
  O  O6  1  0.49793000  0.42763700  0.21995400  1
  O  O7  1  0.18577800  0.32405300  0.44090500  1
  O  O8  1  0.81042600  0.32052800  0.45794700  1
  O  O9  1  0.49487200  0.16837700  0.15262600  1
  O  O10  1  0.50512800  0.16837700  0.65262600  1
  O  O11  1  0.48904200  0.12688100  0.46642100  1
  O  O12  1  0.01289300  0.06905500  0.30904700  1
  O  O13  1  0.98710700  0.06905500  0.80904700  1
  O  O14  1  0.50034900  0.93013200  0.19568300  1
  O  O15  1  0.49965100  0.93013200  0.69568300  1
  O  O16  1  0.99993600  0.86788200  0.53430300  1
  O  O17  1  0.99958900  0.83596500  0.33857100  1
  O  O18  1  0.00041100  0.83596500  0.83857100  1
  O  O19  1  0.31013700  0.67300300  0.55861300  1
  O  O20  1  0.68651800  0.67311000  0.55814600  1
  O  O21  1  0.00416100  0.57008100  0.78449800  1
  O  O22  1  0.50241300  0.53956600  0.94169300  1
  O  O23  1  0.99881200  0.46298500  0.55851300  1
  O  O24  1  0.50207000  0.42763700  0.71995400  1
  O  O25  1  0.81422200  0.32405300  0.94090500  1
  O  O26  1  0.18957400  0.32052800  0.95794700  1
  O  O27  1  0.51095800  0.12688100  0.96642100  1
loop_
_geom_bond_atom_site_label_1
_geom_bond_atom_site_label_2
_geom_bond_distance
_geom_bond_site_symmetry_2
Na0 O14 2.327185 1_555
Na0 O3 2.340586 1_555
Na0 O17 2.366163 1_555
Na0 O2 2.470221 1_555
Na0 O4 2.514058 1_555
Na0 O0 2.692066 1_655
Na0 O20 2.871971 1_555
Na1 O14 2.338543 1_555
Na1 O3 2.370229 1_455
Na1 O17 2.372756 1_455
Na1 O1 2.462830 1_555
Na1 O4 2.505188 1_555
Na1 O0 2.676919 1_555
Na1 O19 2.889707 1_555
Na2 O12 2.299761 1_555
Na2 O6 2.330155 1_555
Na2 O9 2.385800 1_555
Na2 O7 2.448573 1_555
Na2 O5 2.471289 1_555
Na2 O11 2.687929 1_555
Na2 O26 2.707908 1_554
Na3 O26 2.409869 1_554
Na3 O0 2.417974 1_545
Na3 O25 2.444123 1_454
Na3 O12 2.473717 1_555
Na3 O13 2.733476 1_454
Na3 O17 2.786520 1_445
Na4 O8 2.409869 1_555
Na4 O16 2.417974 1_545
Na4 O7 2.444123 1_655
Na4 O13 2.473717 1_555
Na4 O12 2.733476 1_655
Na4 O18 2.786520 1_645
Na5 O15 2.327185 1_555
Na5 O21 2.340586 1_555
Na5 O18 2.366163 1_555
Na5 O19 2.470221 1_555
Na5 O22 2.514058 1_555
Na5 O16 2.692066 1_455
Na5 O1 2.871971 1_556
Na6 O15 2.338543 1_555
Na6 O21 2.370229 1_655
Na6 O18 2.372756 1_655
Na6 O20 2.462830 1_555
Na6 O22 2.505188 1_555
Na6 O16 2.676919 1_555
Na6 O2 2.889707 1_556
Na7 O13 2.299761 1_555
Na7 O24 2.330155 1_555
Na7 O10 2.385800 1_555
Na7 O25 2.448573 1_555
Na7 O23 2.471289 1_555
Na7 O27 2.687929 1_555
Na7 O8 2.707908 1_555
Ni0 O5 1.961343 1_555
Ni0 O2 2.033643 1_455
Ni0 O3 2.040818 1_455
Ni0 O1 2.052861 1_555
Ni0 O0 2.082833 1_555
Ni0 O18 2.167156 1_554
Ni1 O6 2.001044 1_555
Ni1 O4 2.011889 1_555
Ni1 O7 2.045653 1_555
Ni1 O8 2.052453 1_555
Ni1 O10 2.081221 1_555
Ni1 O11 2.110433 1_555
Ni2 O23 1.961343 1_555
Ni2 O19 2.033643 1_655
Ni2 O21 2.040818 1_655
Ni2 O20 2.052861 1_555
Ni2 O16 2.082833 1_555
Ni2 O17 2.167156 1_555
Ni3 O24 2.001044 1_555
Ni3 O22 2.011889 1_555
Ni3 O25 2.045653 1_555
Ni3 O26 2.052453 1_555
Ni3 O9 2.081221 1_556
Ni3 O27 2.110433 1_555
C0 O14 1.259226 1_545
C0 O27 1.299690 1_554
C0 O9 1.308841 1_555
C1 O15 1.259226 1_545
C1 O11 1.299690 1_555
C1 O10 1.308841 1_555
C2 O12 1.264275 1_565
C2 O17 1.306724 1_455
C2 O16 1.310108 1_455
C3 O13 1.264275 1_565
C3 O18 1.306724 1_655
C3 O0 1.310108 1_656
O1 P0 1.556028 1_555
O2 P0 1.551496 1_555
O3 P1 1.543335 1_555
O4 P2 1.565966 1_555
O5 P3 1.565626 1_554
O6 P0 1.535841 1_555
O7 P1 1.552019 1_455
O8 P1 1.551046 1_555
O19 P2 1.551496 1_555
O20 P2 1.556028 1_555
O21 P3 1.543335 1_555
O22 P0 1.565966 1_556
O23 P1 1.565626 1_555
O24 P2 1.535841 1_555
O25 P3 1.552019 1_655
O26 P3 1.551046 1_555
