# generated using pymatgen
data_PtN4(ClO)2
_symmetry_space_group_name_H-M   'P 1'
_cell_length_a   6.78707227
_cell_length_b   6.78707227
_cell_length_c   5.66139281
_cell_angle_alpha   83.84598608
_cell_angle_beta   83.84598608
_cell_angle_gamma   42.29543519
_symmetry_Int_Tables_number   1
_chemical_formula_structural   PtN4(ClO)2
_chemical_formula_sum   'Pt1 N4 Cl2 O2'
_cell_volume   174.33529915
_cell_formula_units_Z   1
loop_
 _symmetry_equiv_pos_site_id
 _symmetry_equiv_pos_as_xyz
  1  'x, y, z'
loop_
 _atom_site_type_symbol
 _atom_site_label
 _atom_site_symmetry_multiplicity
 _atom_site_fract_x
 _atom_site_fract_y
 _atom_site_fract_z
 _atom_site_occupancy
  Pt  Pt0  1  0.00000000  0.00000000  0.00000000  1
  N  N0  1  0.86165600  0.30377500  0.74110700  1
  N  N1  1  0.30377500  0.86165600  0.74110700  1
  N  N2  1  0.13834400  0.69622500  0.25889300  1
  N  N3  1  0.69622500  0.13834400  0.25889300  1
  Cl  Cl0  1  0.31148800  0.31148800  0.11945400  1
  Cl  Cl1  1  0.68851200  0.68851200  0.88054600  1
  O  O0  1  0.86330800  0.86330800  0.36908300  1
  O  O1  1  0.13669200  0.13669200  0.63091700  1
loop_
_geom_bond_atom_site_label_1
_geom_bond_atom_site_label_2
_geom_bond_distance
_geom_bond_site_symmetry_2
N0 O1 1.389273 1_655
N0 Pt0 2.015927 1_656
N1 O1 1.389273 1_565
N1 Pt0 2.015927 1_566
N2 O0 1.389273 1_455
N2 Pt0 2.015927 1_565
N3 O0 1.389273 1_545
N3 Pt0 2.015927 1_655
Cl0 N2 2.127490 1_555
Cl0 N3 2.127490 1_555
Cl1 N0 2.127490 1_555
Cl1 N1 2.127490 1_555
