# generated using pymatgen
data_Ca6La2Mn7CrO24
_symmetry_space_group_name_H-M   'P 1'
_cell_length_a   7.65262400
_cell_length_b   7.69003816
_cell_length_c   7.69848016
_cell_angle_alpha   89.77531124
_cell_angle_beta   89.84235320
_cell_angle_gamma   89.87547720
_symmetry_Int_Tables_number   1
_chemical_formula_structural   Ca6La2Mn7CrO24
_chemical_formula_sum   'Ca6 La2 Mn7 Cr1 O24'
_cell_volume   453.04137449
_cell_formula_units_Z   1
loop_
 _symmetry_equiv_pos_site_id
 _symmetry_equiv_pos_as_xyz
  1  'x, y, z'
loop_
 _atom_site_type_symbol
 _atom_site_label
 _atom_site_symmetry_multiplicity
 _atom_site_fract_x
 _atom_site_fract_y
 _atom_site_fract_z
 _atom_site_occupancy
  Ca  Ca0  1  0.24883200  0.73716500  0.22750400  1
  Ca  Ca1  1  0.75092900  0.27340800  0.26426200  1
  Ca  Ca2  1  0.24907100  0.72659200  0.73573800  1
  Ca  Ca3  1  0.75116800  0.26283500  0.77249600  1
  Ca  Ca4  1  0.25003000  0.23926700  0.73046900  1
  Ca  Ca5  1  0.74997000  0.76073300  0.26953100  1
  La  La0  1  0.75077200  0.76507500  0.75941000  1
  La  La1  1  0.24922800  0.23492500  0.24059000  1
  Mn  Mn0  1  0.50000000  0.50000000  0.50000000  1
  Mn  Mn1  1  0.00000000  0.50000000  0.50000000  1
  Mn  Mn2  1  0.50000000  0.50000000  0.00000000  1
  Mn  Mn3  1  0.00000000  0.50000000  0.00000000  1
  Mn  Mn4  1  0.50000000  0.00000000  0.00000000  1
  Mn  Mn5  1  0.50000000  0.00000000  0.50000000  1
  Mn  Mn6  1  0.00000000  0.00000000  0.50000000  1
  Cr  Cr0  1  0.00000000  0.00000000  0.00000000  1
  O  O0  1  0.24986200  0.53804100  0.46277100  1
  O  O1  1  0.53913900  0.52787000  0.24980900  1
  O  O2  1  0.96091000  0.53051400  0.25060300  1
  O  O3  1  0.45766600  0.75025300  0.96538400  1
  O  O4  1  0.03979300  0.74526100  0.96371300  1
  O  O5  1  0.25061800  0.47090400  0.04151000  1
  O  O6  1  0.74938200  0.52909600  0.95849000  1
  O  O7  1  0.96020700  0.25473900  0.03628700  1
  O  O8  1  0.54233400  0.24974700  0.03461600  1
  O  O9  1  0.46086100  0.47213000  0.75019100  1
  O  O10  1  0.03909000  0.46948600  0.74939700  1
  O  O11  1  0.25542500  0.05195800  0.96844300  1
  O  O12  1  0.75013800  0.46195900  0.53722900  1
  O  O13  1  0.95244900  0.02986200  0.74445600  1
  O  O14  1  0.54725500  0.02891300  0.74952000  1
  O  O15  1  0.46458100  0.24973900  0.47288900  1
  O  O16  1  0.03525600  0.25043400  0.47133700  1
  O  O17  1  0.25057600  0.97554000  0.55201400  1
  O  O18  1  0.74942400  0.02446000  0.44798600  1
  O  O19  1  0.53541900  0.75026100  0.52711100  1
  O  O20  1  0.96474400  0.74956600  0.52866300  1
  O  O21  1  0.04755100  0.97013800  0.25554400  1
  O  O22  1  0.45274500  0.97108700  0.25048000  1
  O  O23  1  0.74457500  0.94804200  0.03155700  1
loop_
_geom_bond_atom_site_label_1
_geom_bond_atom_site_label_2
_geom_bond_distance
_geom_bond_site_symmetry_2
Ca0 O0 2.367185 1_555
Ca0 O21 2.370262 1_555
Ca0 O22 2.391338 1_555
Ca0 O5 2.503138 1_555
Ca0 O3 2.572455 1_554
Ca0 O4 2.589105 1_554
Ca0 O2 2.724458 1_455
Ca0 O1 2.745883 1_555
Ca1 O18 2.375799 1_555
Ca1 O7 2.377235 1_555
Ca1 O8 2.392938 1_555
Ca1 O1 2.540445 1_555
Ca1 O2 2.552174 1_555
Ca1 O12 2.557779 1_555
Ca1 O16 2.705936 1_655
Ca1 O15 2.719311 1_555
Ca2 O17 2.375799 1_555
Ca2 O4 2.377235 1_555
Ca2 O3 2.392938 1_555
Ca2 O9 2.540445 1_555
Ca2 O10 2.552174 1_555
Ca2 O0 2.557779 1_555
Ca2 O20 2.705936 1_455
Ca2 O19 2.719311 1_555
Ca3 O12 2.367185 1_555
Ca3 O13 2.370262 1_555
Ca3 O14 2.391338 1_555
Ca3 O6 2.503138 1_555
Ca3 O8 2.572455 1_556
Ca3 O7 2.589105 1_556
Ca3 O10 2.724458 1_655
Ca3 O9 2.745883 1_555
Ca4 O11 2.326439 1_555
Ca4 O10 2.397836 1_555
Ca4 O9 2.418446 1_555
Ca4 O17 2.454035 1_545
Ca4 O15 2.572128 1_555
Ca4 O16 2.589314 1_555
Ca4 O14 2.792097 1_555
Ca4 O13 2.793560 1_455
Ca5 O23 2.326439 1_555
Ca5 O2 2.397836 1_555
Ca5 O1 2.418446 1_555
Ca5 O18 2.454035 1_565
Ca5 O19 2.572128 1_555
Ca5 O20 2.589314 1_555
Ca5 O22 2.792097 1_555
Ca5 O21 2.793560 1_655
La0 O6 2.370715 1_555
La0 O20 2.415754 1_555
La0 O19 2.438393 1_555
La0 O23 2.528590 1_556
La0 O14 2.556101 1_565
La0 O13 2.559737 1_565
La0 O4 2.721159 1_655
La0 O3 2.745669 1_555
La0 O12 2.896634 1_555
La1 O5 2.370715 1_555
La1 O16 2.415754 1_555
La1 O15 2.438393 1_555
La1 O11 2.528590 1_554
La1 O22 2.556101 1_545
La1 O21 2.559737 1_545
La1 O7 2.721159 1_455
La1 O8 2.745669 1_555
La1 O0 2.896634 1_555
Mn0 O19 1.956150 1_555
Mn0 O15 1.956150 1_555
Mn0 O0 1.957513 1_555
Mn0 O12 1.957513 1_555
Mn0 O1 1.959422 1_555
Mn0 O9 1.959422 1_555
Mn1 O20 1.950756 1_455
Mn1 O16 1.950756 1_555
Mn1 O0 1.955148 1_555
Mn1 O12 1.955148 1_455
Mn1 O10 1.957086 1_555
Mn1 O2 1.957086 1_455
Mn2 O5 1.947361 1_555
Mn2 O6 1.947361 1_554
Mn2 O9 1.959803 1_554
Mn2 O1 1.959803 1_555
Mn2 O3 1.968055 1_554
Mn2 O8 1.968055 1_555
Mn3 O4 1.930263 1_554
Mn3 O7 1.930263 1_455
Mn3 O6 1.957400 1_454
Mn3 O5 1.957400 1_555
Mn3 O10 1.966385 1_554
Mn3 O2 1.966385 1_455
Mn4 O11 1.928781 1_554
Mn4 O23 1.928781 1_545
Mn4 O8 1.967671 1_555
Mn4 O3 1.967671 1_544
Mn4 O22 1.972754 1_545
Mn4 O14 1.972754 1_554
Mn5 O15 1.949426 1_555
Mn5 O19 1.949426 1_545
Mn5 O17 1.958522 1_545
Mn5 O18 1.958522 1_555
Mn5 O14 1.969183 1_555
Mn5 O22 1.969183 1_545
Mn6 O13 1.930312 1_455
Mn6 O21 1.930312 1_545
Mn6 O16 1.956775 1_555
Mn6 O20 1.956775 1_445
Mn6 O18 1.968462 1_455
Mn6 O17 1.968462 1_545
Cr0 O7 2.002373 1_455
Cr0 O4 2.002373 1_544
Cr0 O11 2.009833 1_554
Cr0 O23 2.009833 1_445
Cr0 O13 2.013816 1_454
Cr0 O21 2.013816 1_545
