# generated using pymatgen
data_Sr16V8O31
_symmetry_space_group_name_H-M   'P 1'
_cell_length_a   6.90354933
_cell_length_b   10.83874891
_cell_length_c   11.63065892
_cell_angle_alpha   117.63429321
_cell_angle_beta   103.20904537
_cell_angle_gamma   89.92665614
_symmetry_Int_Tables_number   1
_chemical_formula_structural   Sr16V8O31
_chemical_formula_sum   'Sr16 V8 O31'
_cell_volume   745.04813587
_cell_formula_units_Z   1
loop_
 _symmetry_equiv_pos_site_id
 _symmetry_equiv_pos_as_xyz
  1  'x, y, z'
loop_
 _atom_site_type_symbol
 _atom_site_label
 _atom_site_symmetry_multiplicity
 _atom_site_fract_x
 _atom_site_fract_y
 _atom_site_fract_z
 _atom_site_occupancy
  Sr  Sr0  1  0.40207839  0.46763690  0.19378147  1
  Sr  Sr1  1  0.16303598  0.60385741  0.95469096  1
  Sr  Sr2  1  0.59792161  0.53236310  0.80621853  1
  Sr  Sr3  1  0.91165158  0.73750742  0.70737807  1
  Sr  Sr4  1  0.36085286  0.66227721  0.55980805  1
  Sr  Sr5  1  0.15649590  0.10093208  0.94873935  1
  Sr  Sr6  1  0.84350410  0.89906792  0.05126065  1
  Sr  Sr7  1  0.66043199  0.85646993  0.44974344  1
  Sr  Sr8  1  0.09758929  0.78376279  0.30487534  1
  Sr  Sr9  1  0.59535364  0.02907160  0.80386256  1
  Sr  Sr10  1  0.40464636  0.97092840  0.19613744  1
  Sr  Sr11  1  0.90241071  0.21623721  0.69512466  1
  Sr  Sr12  1  0.33956801  0.14353007  0.55025656  1
  Sr  Sr13  1  0.08834842  0.26249258  0.29262193  1
  Sr  Sr14  1  0.63914714  0.33772279  0.44019195  1
  Sr  Sr15  1  0.83696402  0.39614259  0.04530904  1
  V  V0  1  0.37524465  0.81705575  0.87632925  1
  V  V1  1  0.86954860  0.56649371  0.36699733  1
  V  V2  1  0.12772250  0.93781967  0.62680640  1
  V  V3  1  0.62494330  0.68849011  0.12405188  1
  V  V4  1  0.62475535  0.18294425  0.12367075  1
  V  V5  1  0.37505670  0.31150989  0.87594812  1
  V  V6  1  0.87227750  0.06218033  0.37319360  1
  V  V7  1  0.13045140  0.43350629  0.63300267  1
  O  O0  1  0.24161988  0.62569423  0.74067935  1
  O  O1  1  0.50000000  0.50000000  -0.00000000  1
  O  O2  1  0.88568208  0.48261142  0.67973402  1
  O  O3  1  0.61493589  0.77239665  0.79535844  1
  O  O4  1  0.13621013  0.85231539  0.95462985  1
  O  O5  1  0.11431792  0.51738858  0.32026598  1
  O  O6  1  0.25380569  0.87973434  0.75224397  1
  O  O7  1  0.38438823  0.72212570  0.20509488  1
  O  O8  1  0.67312677  0.59135331  0.46415214  1
  O  O9  1  0.75386155  0.62298411  0.24973725  1
  O  O10  1  0.86239320  0.64435590  0.04101687  1
  O  O11  1  0.49644734  0.74757799  0.99687403  1
  O  O12  1  0.50000000  0.00000000  -0.00000000  1
  O  O13  1  0.36940471  0.89660847  0.54345113  1
  O  O14  1  0.00477389  0.74637597  0.50280951  1
  O  O15  1  0.88429786  0.98015655  0.70606798  1
  O  O16  1  0.74729370  0.87145086  0.24813896  1
  O  O17  1  0.25270630  0.12854914  0.75186104  1
  O  O18  1  0.38506411  0.22760335  0.20464156  1
  O  O19  1  0.74619431  0.12026566  0.24775603  1
  O  O20  1  0.50355266  0.25242201  0.00312597  1
  O  O21  1  0.13760680  0.35564410  0.95898313  1
  O  O22  1  0.61561177  0.27787430  0.79490512  1
  O  O23  1  -0.00000000  0.00000000  0.50000000  1
  O  O24  1  0.63059529  0.10339153  0.45654887  1
  O  O25  1  0.11570214  0.01984345  0.29393202  1
  O  O26  1  0.24613845  0.37701589  0.75026275  1
  O  O27  1  0.86378987  0.14768461  0.04537015  1
  O  O28  1  0.32687323  0.40864669  0.53584786  1
  O  O29  1  0.75838012  0.37430577  0.25932065  1
  O  O30  1  0.99522611  0.25362403  0.49719049  1
loop_
_geom_bond_atom_site_label_1
_geom_bond_atom_site_label_2
_geom_bond_distance
_geom_bond_site_symmetry_2
O0 V7 1.908252 1_555
O0 V0 1.986519 1_555
O0 Sr4 2.612678 1_555
O0 Sr3 2.613996 1_455
O0 Sr2 2.739851 1_555
O0 Sr1 2.776669 1_555
O1 V3 1.923771 1_555
O1 V5 1.923771 1_554
O1 Sr15 2.634321 1_555
O1 Sr1 2.634321 1_554
O1 Sr2 2.662697 1_554
O1 Sr0 2.662697 1_555
O2 V7 1.892910 1_655
O2 Sr14 2.627927 1_555
O2 Sr3 2.630444 1_555
O2 Sr2 2.645433 1_555
O2 Sr11 2.974930 1_555
O2 Sr1 2.988228 1_655
O3 V0 2.036303 1_555
O3 Sr3 2.446010 1_555
O3 Sr4 2.604362 1_555
O3 Sr2 2.666610 1_555
O3 Sr6 2.702191 1_556
O3 Sr9 2.741837 1_565
O4 V0 2.015154 1_555
O4 Sr6 2.471864 1_456
O4 Sr3 2.620956 1_455
O4 Sr10 2.693364 1_556
O4 Sr1 2.699415 1_555
O4 Sr5 2.731719 1_565
O5 V1 1.892910 1_455
O5 Sr4 2.627927 1_555
O5 Sr13 2.630444 1_555
O5 Sr0 2.645433 1_555
O5 Sr8 2.974930 1_555
O5 Sr15 2.988228 1_455
O6 V2 1.884873 1_555
O6 V0 1.897971 1_555
O6 Sr3 2.632095 1_455
O6 Sr4 2.639808 1_555
O6 Sr9 2.646022 1_565
O6 Sr5 2.652729 1_565
O7 V3 2.043108 1_555
O7 Sr8 2.457787 1_555
O7 Sr1 2.639722 1_554
O7 Sr0 2.703786 1_555
O7 Sr7 2.744778 1_555
O7 Sr10 2.751527 1_555
O8 V1 1.898705 1_555
O8 Sr4 2.602815 1_555
O8 Sr3 2.635196 1_555
O8 Sr14 2.636477 1_555
O8 Sr0 2.931487 1_555
O8 Sr7 2.955049 1_555
O9 V1 1.774350 1_555
O9 V3 1.949276 1_555
O9 Sr15 2.687796 1_555
O9 Sr8 2.712442 1_655
O9 Sr0 2.725459 1_555
O9 Sr7 2.729865 1_555
O10 V3 2.035084 1_555
O10 Sr1 2.459601 1_654
O10 Sr2 2.629932 1_554
O10 Sr6 2.711834 1_555
O10 Sr15 2.720467 1_555
O10 Sr8 2.786544 1_655
O11 V3 1.913807 1_556
O11 V0 1.916904 1_555
O11 Sr1 2.597950 1_555
O11 Sr2 2.599332 1_555
O11 Sr10 2.663826 1_556
O11 Sr6 2.681525 1_556
O12 V0 1.880148 1_544
O12 V4 1.880148 1_555
O12 Sr9 2.662732 1_554
O12 Sr10 2.662732 1_545
O12 Sr5 2.669837 1_554
O12 Sr6 2.669837 1_545
O13 V2 2.063683 1_555
O13 Sr7 2.443830 1_555
O13 Sr4 2.635204 1_555
O13 Sr12 2.649701 1_565
O13 Sr8 2.682283 1_555
O13 Sr9 2.735065 1_565
O14 V1 1.908337 1_455
O14 V2 1.942942 1_555
O14 Sr3 2.644765 1_455
O14 Sr4 2.668936 1_555
O14 Sr8 2.722983 1_555
O14 Sr7 2.731531 1_455
O15 V2 2.048918 1_655
O15 Sr9 2.455314 1_565
O15 Sr11 2.624805 1_565
O15 Sr3 2.643378 1_555
O15 Sr7 2.695474 1_555
O15 Sr5 2.714020 1_665
O16 V3 1.876462 1_555
O16 V6 1.943026 1_565
O16 Sr7 2.622981 1_555
O16 Sr8 2.652070 1_655
O16 Sr10 2.658651 1_555
O16 Sr6 2.665605 1_555
O17 V5 1.876462 1_555
O17 V2 1.943026 1_545
O17 Sr12 2.622981 1_555
O17 Sr11 2.652070 1_455
O17 Sr9 2.658651 1_555
O17 Sr5 2.665605 1_555
O18 V4 2.036303 1_555
O18 Sr13 2.446010 1_555
O18 Sr14 2.604362 1_555
O18 Sr0 2.666610 1_555
O18 Sr5 2.702191 1_554
O18 Sr10 2.741837 1_545
O19 V6 1.884873 1_555
O19 V4 1.897971 1_555
O19 Sr13 2.632095 1_655
O19 Sr14 2.639808 1_555
O19 Sr10 2.646022 1_545
O19 Sr6 2.652729 1_545
O20 V5 1.913807 1_554
O20 V4 1.916904 1_555
O20 Sr15 2.597950 1_555
O20 Sr0 2.599332 1_555
O20 Sr9 2.663826 1_554
O20 Sr5 2.681525 1_554
O21 V5 2.035084 1_555
O21 Sr15 2.459601 1_456
O21 Sr0 2.629932 1_556
O21 Sr5 2.711834 1_555
O21 Sr1 2.720467 1_555
O21 Sr11 2.786544 1_455
O22 V5 2.043108 1_555
O22 Sr11 2.457787 1_555
O22 Sr15 2.639722 1_556
O22 Sr2 2.703786 1_555
O22 Sr12 2.744778 1_555
O22 Sr9 2.751527 1_555
O23 V2 1.932118 1_545
O23 V6 1.932118 1_455
O23 Sr7 2.607067 1_445
O23 Sr12 2.607067 1_555
O23 Sr8 2.618754 1_545
O23 Sr11 2.618754 1_455
O24 V6 2.063683 1_555
O24 Sr12 2.443830 1_555
O24 Sr14 2.635204 1_555
O24 Sr7 2.649701 1_545
O24 Sr11 2.682283 1_555
O24 Sr10 2.735065 1_545
O25 V6 2.048918 1_455
O25 Sr10 2.455314 1_545
O25 Sr8 2.624805 1_545
O25 Sr13 2.643378 1_555
O25 Sr12 2.695474 1_555
O25 Sr6 2.714020 1_445
O26 V7 1.774350 1_555
O26 V5 1.949276 1_555
O26 Sr1 2.687796 1_555
O26 Sr11 2.712442 1_455
O26 Sr2 2.725459 1_555
O26 Sr12 2.729865 1_555
O27 V4 2.015154 1_555
O27 Sr5 2.471864 1_654
O27 Sr13 2.620956 1_655
O27 Sr9 2.693364 1_554
O27 Sr15 2.699415 1_555
O27 Sr6 2.731719 1_545
O28 V7 1.898705 1_555
O28 Sr14 2.602815 1_555
O28 Sr13 2.635196 1_555
O28 Sr4 2.636477 1_555
O28 Sr2 2.931487 1_555
O28 Sr12 2.955049 1_555
O29 V1 1.908252 1_555
O29 V4 1.986519 1_555
O29 Sr14 2.612678 1_555
O29 Sr13 2.613996 1_655
O29 Sr0 2.739851 1_555
O29 Sr15 2.776669 1_555
O30 V7 1.908337 1_655
O30 V6 1.942942 1_555
O30 Sr13 2.644765 1_655
O30 Sr14 2.668936 1_555
O30 Sr11 2.722983 1_555
O30 Sr12 2.731531 1_655
