# generated using pymatgen
data_KCaP3H4O11
_symmetry_space_group_name_H-M   'P 1'
_cell_length_a   12.82600400
_cell_length_b   7.91373000
_cell_length_c   20.56169229
_cell_angle_alpha   89.31317906
_cell_angle_beta   90.00000000
_cell_angle_gamma   90.00000000
_symmetry_Int_Tables_number   1
_chemical_formula_structural   KCaP3H4O11
_chemical_formula_sum   'K8 Ca8 P24 H32 O88'
_cell_volume   2086.89333380
_cell_formula_units_Z   8
loop_
 _symmetry_equiv_pos_site_id
 _symmetry_equiv_pos_as_xyz
  1  'x, y, z'
loop_
 _atom_site_type_symbol
 _atom_site_label
 _atom_site_symmetry_multiplicity
 _atom_site_fract_x
 _atom_site_fract_y
 _atom_site_fract_z
 _atom_site_occupancy
  K  K0  1  0.73064000  0.98688300  0.33666100  1
  K  K1  1  0.23064000  0.01311700  0.16333900  1
  K  K2  1  0.26936000  0.01311700  0.66333900  1
  K  K3  1  0.76936000  0.98688300  0.83666100  1
  K  K4  1  0.55049700  0.73696300  0.16565400  1
  K  K5  1  0.05049700  0.26303700  0.33434600  1
  K  K6  1  0.44950300  0.26303700  0.83434600  1
  K  K7  1  0.94950300  0.73696300  0.66565400  1
  Ca  Ca0  1  0.75447100  0.50860200  0.37554900  1
  Ca  Ca1  1  0.25447100  0.49139800  0.12445100  1
  Ca  Ca2  1  0.24552900  0.49139800  0.62445100  1
  Ca  Ca3  1  0.74552900  0.50860200  0.87554900  1
  Ca  Ca4  1  0.30369200  0.00028000  0.41308900  1
  Ca  Ca5  1  0.80369200  0.99972000  0.08691100  1
  Ca  Ca6  1  0.69630800  0.99972000  0.58691100  1
  Ca  Ca7  1  0.19630800  0.00028000  0.91308900  1
  P  P0  1  0.82844100  0.68549400  0.21684500  1
  P  P1  1  0.32844100  0.31450600  0.28315500  1
  P  P2  1  0.17155900  0.31450600  0.78315500  1
  P  P3  1  0.67155900  0.68549400  0.71684500  1
  P  P4  1  0.99224400  0.66869900  0.11711500  1
  P  P5  1  0.49224400  0.33130100  0.38288500  1
  P  P6  1  0.00775600  0.33130100  0.88288500  1
  P  P7  1  0.50775600  0.66869900  0.61711500  1
  P  P8  1  0.50424900  0.70082000  0.36141900  1
  P  P9  1  0.00424900  0.29918000  0.13858100  1
  P  P10  1  0.49575100  0.29918000  0.63858100  1
  P  P11  1  0.99575100  0.70082000  0.86141900  1
  P  P12  1  0.81434000  0.31605800  0.21824200  1
  P  P13  1  0.31434000  0.68394200  0.28175800  1
  P  P14  1  0.18566000  0.68394200  0.78175800  1
  P  P15  1  0.68566000  0.31605800  0.71824200  1
  P  P16  1  0.61379500  0.83194100  0.97912100  1
  P  P17  1  0.11379500  0.16805900  0.52087900  1
  P  P18  1  0.38620500  0.16805900  0.02087900  1
  P  P19  1  0.88620500  0.83194100  0.47912100  1
  P  P20  1  0.61113900  0.21106700  0.98311100  1
  P  P21  1  0.11113900  0.78893300  0.51688900  1
  P  P22  1  0.38886100  0.78893300  0.01688900  1
  P  P23  1  0.88886100  0.21106700  0.48311100  1
  H  H0  1  0.63189700  0.08753200  0.20195300  1
  H  H1  1  0.13189700  0.91246800  0.29804700  1
  H  H2  1  0.36810300  0.91246800  0.79804700  1
  H  H3  1  0.86810300  0.08753200  0.70195300  1
  H  H4  1  0.03565800  0.86886500  0.25618200  1
  H  H5  1  0.53565800  0.13113500  0.24381800  1
  H  H6  1  0.96434200  0.13113500  0.74381800  1
  H  H7  1  0.46434200  0.86886500  0.75618200  1
  H  H8  1  0.80144800  0.41350200  0.00564500  1
  H  H9  1  0.30144800  0.58649800  0.49435500  1
  H  H10  1  0.19855200  0.58649800  0.99435500  1
  H  H11  1  0.69855200  0.41350200  0.50564500  1
  H  H12  1  0.16244700  0.39859900  0.98467300  1
  H  H13  1  0.66244700  0.60140100  0.51532700  1
  H  H14  1  0.83755300  0.60140100  0.01532700  1
  H  H15  1  0.33755300  0.39859900  0.48467300  1
  H  H16  1  0.07386400  0.04973100  0.03633000  1
  H  H17  1  0.57386400  0.95026900  0.46367000  1
  H  H18  1  0.92613600  0.95026900  0.96367000  1
  H  H19  1  0.42613600  0.04973100  0.53633000  1
  H  H20  1  0.63089000  0.12247300  0.44991600  1
  H  H21  1  0.13089000  0.87752700  0.05008400  1
  H  H22  1  0.36911000  0.87752700  0.55008400  1
  H  H23  1  0.86911000  0.12247300  0.94991600  1
  H  H24  1  0.60909500  0.35375800  0.13672600  1
  H  H25  1  0.10909500  0.64624200  0.36327400  1
  H  H26  1  0.39090500  0.64624200  0.86327400  1
  H  H27  1  0.89090500  0.35375800  0.63672600  1
  H  H28  1  0.98907700  0.62781800  0.36219300  1
  H  H29  1  0.48907700  0.37218200  0.13780700  1
  H  H30  1  0.01092300  0.37218200  0.63780700  1
  H  H31  1  0.51092300  0.62781800  0.86219300  1
  O  O0  1  0.76718100  0.81876000  0.18106700  1
  O  O1  1  0.26718100  0.18124000  0.31893300  1
  O  O2  1  0.23281900  0.18124000  0.81893300  1
  O  O3  1  0.73281900  0.81876000  0.68106700  1
  O  O4  1  0.83277100  0.68539500  0.28946900  1
  O  O5  1  0.33277100  0.31460500  0.21053100  1
  O  O6  1  0.16722900  0.31460500  0.71053100  1
  O  O7  1  0.66722900  0.68539500  0.78946900  1
  O  O8  1  0.94958600  0.68789600  0.19168400  1
  O  O9  1  0.44958600  0.31210400  0.30831600  1
  O  O10  1  0.05041400  0.31210400  0.80831600  1
  O  O11  1  0.55041400  0.68789600  0.69168400  1
  O  O12  1  0.42450500  0.23115400  0.42883200  1
  O  O13  1  0.92450500  0.76884600  0.07116800  1
  O  O14  1  0.57549500  0.76884600  0.57116800  1
  O  O15  1  0.07549500  0.23115400  0.92883200  1
  O  O16  1  0.60744800  0.29726800  0.38036700  1
  O  O17  1  0.10744800  0.70273200  0.11963300  1
  O  O18  1  0.39255200  0.70273200  0.61963300  1
  O  O19  1  0.89255200  0.29726800  0.88036700  1
  O  O20  1  0.46740300  0.52836400  0.39822600  1
  O  O21  1  0.96740300  0.47163600  0.10177400  1
  O  O22  1  0.53259700  0.47163600  0.60177400  1
  O  O23  1  0.03259700  0.52836400  0.89822600  1
  O  O24  1  0.46495200  0.84631900  0.40074300  1
  O  O25  1  0.96495200  0.15368100  0.09925700  1
  O  O26  1  0.53504800  0.15368100  0.59925700  1
  O  O27  1  0.03504800  0.84631900  0.90074300  1
  O  O28  1  0.61697800  0.69062300  0.34355100  1
  O  O29  1  0.11697800  0.30937700  0.15644900  1
  O  O30  1  0.38302200  0.30937700  0.65644900  1
  O  O31  1  0.88302200  0.69062300  0.84355100  1
  O  O32  1  0.94027800  0.30758500  0.20734000  1
  O  O33  1  0.44027800  0.69241500  0.29266000  1
  O  O34  1  0.05972200  0.69241500  0.79266000  1
  O  O35  1  0.55972200  0.30758500  0.70734000  1
  O  O36  1  0.76059800  0.19321700  0.17431500  1
  O  O37  1  0.26059800  0.80678300  0.32568500  1
  O  O38  1  0.23940200  0.80678300  0.82568500  1
  O  O39  1  0.73940200  0.19321700  0.67431500  1
  O  O40  1  0.29844900  0.69545300  0.20968500  1
  O  O41  1  0.79844900  0.30454700  0.29031500  1
  O  O42  1  0.70155100  0.30454700  0.79031500  1
  O  O43  1  0.20155100  0.69545300  0.70968500  1
  O  O44  1  0.28507600  0.49585900  0.30908500  1
  O  O45  1  0.78507600  0.50414100  0.19091500  1
  O  O46  1  0.71492400  0.50414100  0.69091500  1
  O  O47  1  0.21492400  0.49585900  0.80908500  1
  O  O48  1  0.65626600  0.83757400  0.04730400  1
  O  O49  1  0.15626600  0.16242600  0.45269600  1
  O  O50  1  0.34373400  0.16242600  0.95269600  1
  O  O51  1  0.84373400  0.83757400  0.54730400  1
  O  O52  1  0.33126100  0.25454000  0.07481400  1
  O  O53  1  0.83126100  0.74546000  0.42518600  1
  O  O54  1  0.66873900  0.74546000  0.92518600  1
  O  O55  1  0.16873900  0.25454000  0.57481400  1
  O  O56  1  0.50315700  0.24596200  0.02136400  1
  O  O57  1  0.00315700  0.75403800  0.47863600  1
  O  O58  1  0.49684300  0.75403800  0.97863600  1
  O  O59  1  0.99684300  0.24596200  0.52136400  1
  O  O60  1  0.69710600  0.21102400  0.03282200  1
  O  O61  1  0.19710600  0.78897600  0.46717800  1
  O  O62  1  0.30289400  0.78897600  0.96717800  1
  O  O63  1  0.80289400  0.21102400  0.53282200  1
  O  O64  1  0.38109100  0.67175200  0.07450300  1
  O  O65  1  0.88109100  0.32824800  0.42549700  1
  O  O66  1  0.61890900  0.32824800  0.92549700  1
  O  O67  1  0.11890900  0.67175200  0.57450300  1
  O  O68  1  0.40754600  0.97503700  0.04766300  1
  O  O69  1  0.90754600  0.02496300  0.45233700  1
  O  O70  1  0.59245400  0.02496300  0.95233700  1
  O  O71  1  0.09245400  0.97503700  0.54766300  1
  O  O72  1  0.07881400  0.96445500  0.26976200  1
  O  O73  1  0.57881400  0.03554500  0.23023800  1
  O  O74  1  0.92118600  0.03554500  0.73023800  1
  O  O75  1  0.42118600  0.96445500  0.76976200  1
  O  O76  1  0.18207500  0.48114100  0.01739100  1
  O  O77  1  0.68207500  0.51885900  0.48260900  1
  O  O78  1  0.81792500  0.51885900  0.98260900  1
  O  O79  1  0.31792500  0.48114100  0.51739100  1
  O  O80  1  0.63940100  0.01139500  0.47138600  1
  O  O81  1  0.13940100  0.98860500  0.02861400  1
  O  O82  1  0.36059900  0.98860500  0.52861400  1
  O  O83  1  0.86059900  0.01139500  0.97138600  1
  O  O84  1  0.05193400  0.59887300  0.33811500  1
  O  O85  1  0.55193400  0.40112700  0.16188500  1
  O  O86  1  0.94806600  0.40112700  0.66188500  1
  O  O87  1  0.44806600  0.59887300  0.83811500  1
loop_
_geom_bond_atom_site_label_1
_geom_bond_atom_site_label_2
_geom_bond_distance
_geom_bond_site_symmetry_2
K0 O28 2.762998 1_555
K0 O41 2.815462 1_565
K0 O4 2.899223 1_555
K0 O53 2.923290 1_555
K0 O73 2.951023 1_565
K0 O80 3.015596 1_565
K0 O16 3.064400 1_565
K0 O69 3.303571 1_565
K1 O29 2.762998 1_555
K1 O40 2.815462 1_545
K1 O5 2.899223 1_555
K1 O52 2.923290 1_555
K1 O72 2.951023 1_545
K1 O81 3.015596 1_545
K1 O17 3.064400 1_545
K1 O68 3.303571 1_545
K2 O30 2.762998 1_555
K2 O43 2.815462 1_545
K2 O6 2.899223 1_555
K2 O55 2.923290 1_555
K2 O75 2.951023 1_545
K2 O82 3.015596 1_545
K2 O18 3.064400 1_545
K2 O71 3.303571 1_545
K3 O31 2.762998 1_555
K3 O42 2.815462 1_565
K3 O7 2.899223 1_555
K3 O54 2.923290 1_555
K3 O74 2.951023 1_565
K3 O83 3.015596 1_565
K3 O19 3.064400 1_565
K3 O70 3.303571 1_565
K4 O85 2.659837 1_555
K4 O73 2.748434 1_565
K4 O0 2.871981 1_555
K4 O48 2.889576 1_555
K4 O64 2.919465 1_555
K4 O33 2.986702 1_555
K5 O84 2.659837 1_555
K5 O72 2.748434 1_545
K5 O1 2.871981 1_555
K5 O49 2.889576 1_555
K5 O65 2.919465 1_455
K5 O32 2.986702 1_455
K6 O87 2.659837 1_555
K6 O75 2.748434 1_545
K6 O2 2.871981 1_555
K6 O50 2.889576 1_555
K6 O66 2.919465 1_555
K6 O35 2.986702 1_555
K7 O86 2.659837 1_555
K7 O74 2.748434 1_565
K7 O3 2.871981 1_555
K7 O51 2.889576 1_555
K7 O67 2.919465 1_655
K7 O34 2.986702 1_655
Ca0 O53 2.360310 1_555
Ca0 O28 2.365370 1_555
Ca0 O65 2.386251 1_555
Ca0 O77 2.391434 1_555
Ca0 O4 2.457516 1_555
Ca0 O41 2.462755 1_555
Ca0 O16 2.521672 1_555
Ca1 O52 2.360310 1_555
Ca1 O29 2.365370 1_555
Ca1 O64 2.386251 1_555
Ca1 O76 2.391434 1_555
Ca1 O5 2.457516 1_555
Ca1 O40 2.462755 1_555
Ca1 O17 2.521672 1_555
Ca2 O55 2.360310 1_555
Ca2 O30 2.365370 1_555
Ca2 O67 2.386251 1_555
Ca2 O79 2.391434 1_555
Ca2 O6 2.457516 1_555
Ca2 O43 2.462755 1_555
Ca2 O18 2.521672 1_555
Ca3 O54 2.360310 1_555
Ca3 O31 2.365370 1_555
Ca3 O66 2.386251 1_555
Ca3 O78 2.391434 1_555
Ca3 O7 2.457516 1_555
Ca3 O42 2.462755 1_555
Ca3 O19 2.521672 1_555
Ca4 O24 2.415434 1_545
Ca4 O61 2.420220 1_545
Ca4 O12 2.420385 1_555
Ca4 O49 2.431107 1_555
Ca4 O37 2.438471 1_545
Ca4 O1 2.439625 1_555
Ca4 O82 2.485657 1_545
Ca5 O25 2.415434 1_565
Ca5 O60 2.420220 1_565
Ca5 O13 2.420385 1_555
Ca5 O48 2.431107 1_555
Ca5 O36 2.438471 1_565
Ca5 O0 2.439625 1_555
Ca5 O83 2.485657 1_564
Ca6 O26 2.415434 1_565
Ca6 O63 2.420220 1_565
Ca6 O14 2.420385 1_555
Ca6 O51 2.431107 1_555
Ca6 O39 2.438471 1_565
Ca6 O3 2.439625 1_555
Ca6 O80 2.485657 1_565
Ca7 O27 2.415434 1_545
Ca7 O62 2.420220 1_545
Ca7 O15 2.420385 1_555
Ca7 O50 2.431107 1_555
Ca7 O38 2.438471 1_545
Ca7 O2 2.439625 1_555
Ca7 O81 2.485657 1_546
H0 O73 0.982504 1_555
H1 O72 0.982504 1_555
H2 O75 0.982504 1_555
H3 O74 0.982504 1_555
H4 O72 0.980646 1_555
H5 O73 0.980646 1_555
H6 O74 0.980646 1_555
H7 O75 0.980646 1_555
H8 O78 0.977095 1_554
H9 O79 0.977095 1_555
H10 O76 0.977095 1_556
H11 O77 0.977095 1_555
H12 O76 0.976309 1_556
H13 O77 0.976309 1_555
H14 O78 0.976309 1_554
H15 O79 0.976309 1_555
H16 O81 0.983657 1_545
H17 O80 0.983657 1_565
H18 O83 0.983657 1_565
H19 O82 0.983657 1_545
H20 O80 0.984994 1_555
H20 K0 2.875942 1_545
H21 O81 0.984994 1_555
H21 K1 2.875942 1_565
H22 O82 0.984994 1_555
H22 K2 2.875942 1_565
H23 O83 0.984994 1_555
H23 K3 2.875942 1_545
H24 O85 0.974828 1_555
H25 O84 0.974828 1_555
H26 O87 0.974828 1_555
H27 O86 0.974828 1_555
H28 O84 0.974814 1_655
H29 O85 0.974814 1_555
H30 O86 0.974814 1_455
H31 O87 0.974814 1_555
O0 P0 1.500731 1_555
O1 P1 1.500731 1_555
O2 P2 1.500731 1_555
O3 P3 1.500731 1_555
O4 P0 1.494296 1_555
O5 P1 1.494296 1_555
O6 P2 1.494296 1_555
O7 P3 1.494296 1_555
O8 P4 1.636740 1_555
O8 P0 1.637710 1_555
O9 P5 1.636740 1_555
O9 P1 1.637710 1_555
O10 P6 1.636740 1_555
O10 P2 1.637710 1_555
O11 P7 1.636740 1_555
O11 P3 1.637710 1_555
O12 P5 1.502518 1_555
O13 P4 1.502518 1_555
O14 P7 1.502518 1_555
O15 P6 1.502518 1_555
O16 P5 1.502955 1_555
O17 P4 1.502955 1_455
O18 P7 1.502955 1_555
O19 P6 1.502955 1_655
O20 P8 1.622942 1_555
O20 P5 1.626302 1_555
O21 P9 1.622942 1_655
O21 P4 1.626302 1_555
O22 P10 1.622942 1_555
O22 P7 1.626302 1_555
O23 P11 1.622942 1_455
O23 P6 1.626302 1_555
O24 P8 1.501984 1_555
O25 P9 1.501984 1_655
O26 P10 1.501984 1_555
O27 P11 1.501984 1_455
O28 P8 1.494229 1_555
O29 P9 1.494229 1_555
O30 P10 1.494229 1_555
O31 P11 1.494229 1_555
O32 P12 1.632250 1_555
O32 P9 1.636680 1_655
O33 P13 1.632250 1_555
O33 P8 1.636680 1_555
O34 P14 1.632250 1_555
O34 P11 1.636680 1_455
O35 P15 1.632250 1_555
O35 P10 1.636680 1_555
O36 P12 1.502335 1_555
O37 P13 1.502335 1_555
O38 P14 1.502335 1_555
O39 P15 1.502335 1_555
O40 P13 1.497584 1_555
O41 P12 1.497584 1_555
O42 P15 1.497584 1_555
O43 P14 1.497584 1_555
O44 P13 1.628495 1_555
O44 P1 1.634535 1_555
O45 P12 1.628495 1_555
O45 P0 1.634535 1_555
O46 P15 1.628495 1_555
O46 P3 1.634535 1_555
O47 P14 1.628495 1_555
O47 P2 1.634535 1_555
O48 P16 1.505226 1_554
O49 P17 1.505226 1_555
O50 P18 1.505226 1_556
O51 P19 1.505226 1_555
O52 P18 1.487639 1_555
O53 P19 1.487639 1_555
O54 P16 1.487639 1_555
O55 P17 1.487639 1_555
O56 P20 1.618111 1_554
O56 P18 1.621852 1_555
O57 P21 1.618111 1_555
O57 P19 1.621852 1_455
O58 P22 1.618111 1_556
O58 P16 1.621852 1_555
O59 P23 1.618111 1_555
O59 P17 1.621852 1_655
O60 P20 1.503503 1_554
O61 P21 1.503503 1_555
O62 P22 1.503503 1_556
O63 P23 1.503503 1_555
O64 P22 1.498975 1_555
O65 P23 1.498975 1_555
O66 P20 1.498975 1_555
O67 P21 1.498975 1_555
O68 P22 1.627648 1_555
O68 P18 1.640543 1_565
O69 P23 1.627648 1_555
O69 P19 1.640543 1_545
O70 P20 1.627648 1_555
O70 P16 1.640543 1_545
O71 P21 1.627648 1_555
O71 P17 1.640543 1_565
