# generated using pymatgen
data_NiH36C12S6(I2O3)2
_symmetry_space_group_name_H-M   'P 1'
_cell_length_a   9.71778458
_cell_length_b   9.71778458
_cell_length_c   9.71778503
_cell_angle_alpha   76.77568380
_cell_angle_beta   76.77568380
_cell_angle_gamma   76.77568184
_symmetry_Int_Tables_number   1
_chemical_formula_structural   NiH36C12S6(I2O3)2
_chemical_formula_sum   'Ni1 H36 C12 S6 I4 O6'
_cell_volume   854.47145267
_cell_formula_units_Z   1
loop_
 _symmetry_equiv_pos_site_id
 _symmetry_equiv_pos_as_xyz
  1  'x, y, z'
loop_
 _atom_site_type_symbol
 _atom_site_label
 _atom_site_symmetry_multiplicity
 _atom_site_fract_x
 _atom_site_fract_y
 _atom_site_fract_z
 _atom_site_occupancy
  Ni  Ni0  1  0.00000000  0.00000000  0.00000000  1
  H  H0  1  0.95572300  0.19721700  0.40607800  1
  H  H1  1  0.82875600  0.10926400  0.54336400  1
  H  H2  1  0.93783100  0.29950300  0.67240700  1
  H  H3  1  0.61571600  0.11765100  0.33975200  1
  H  H4  1  0.59392200  0.04427700  0.80278300  1
  H  H5  1  0.76418000  0.25320100  0.40658000  1
  H  H6  1  0.96413600  0.47938700  0.66040000  1
  H  H7  1  0.89073600  0.45663600  0.17124400  1
  H  H8  1  0.70049700  0.32759300  0.06216900  1
  H  H9  1  0.59342000  0.23582000  0.74679900  1
  H  H10  1  0.33960000  0.03586400  0.52061300  1
  H  H11  1  0.45663600  0.17124400  0.89073600  1
  H  H12  1  0.66024800  0.38428400  0.88234900  1
  H  H13  1  0.32759300  0.06216900  0.70049700  1
  H  H14  1  0.88234900  0.66024800  0.38428400  1
  H  H15  1  0.80278300  0.59392200  0.04427700  1
  H  H16  1  0.52061300  0.33960000  0.03586400  1
  H  H17  1  0.74679900  0.59342000  0.23582000  1
  H  H18  1  0.25320100  0.40658000  0.76418000  1
  H  H19  1  0.47938700  0.66040000  0.96413600  1
  H  H20  1  0.19721700  0.40607800  0.95572300  1
  H  H21  1  0.11765100  0.33975200  0.61571600  1
  H  H22  1  0.67240700  0.93783100  0.29950300  1
  H  H23  1  0.33975200  0.61571600  0.11765100  1
  H  H24  1  0.54336400  0.82875600  0.10926400  1
  H  H25  1  0.66040000  0.96413600  0.47938700  1
  H  H26  1  0.40658000  0.76418000  0.25320100  1
  H  H27  1  0.29950300  0.67240700  0.93783100  1
  H  H28  1  0.10926400  0.54336400  0.82875600  1
  H  H29  1  0.03586400  0.52061300  0.33960000  1
  H  H30  1  0.23582000  0.74679900  0.59342000  1
  H  H31  1  0.40607800  0.95572300  0.19721700  1
  H  H32  1  0.38428400  0.88234900  0.66024800  1
  H  H33  1  0.06216900  0.70049700  0.32759300  1
  H  H34  1  0.17124400  0.89073600  0.45663600  1
  H  H35  1  0.04427700  0.80278300  0.59392200  1
  C  C0  1  0.85149800  0.16261200  0.43040900  1
  C  C1  1  0.68336900  0.01156700  0.36470400  1
  C  C2  1  0.56959100  0.14850200  0.83738800  1
  C  C3  1  0.98843300  0.63529600  0.31663100  1
  C  C4  1  0.63529600  0.31663100  0.98843300  1
  C  C5  1  0.83738800  0.56959100  0.14850200  1
  C  C6  1  0.16261200  0.43040900  0.85149800  1
  C  C7  1  0.36470400  0.68336900  0.01156700  1
  C  C8  1  0.01156700  0.36470400  0.68336900  1
  C  C9  1  0.43040900  0.85149800  0.16261200  1
  C  C10  1  0.31663100  0.98843300  0.63529600  1
  C  C11  1  0.14850200  0.83738800  0.56959100  1
  S  S0  1  0.86819500  0.03121700  0.32133500  1
  S  S1  1  0.67866500  0.13180500  0.96878300  1
  S  S2  1  0.96878300  0.67866500  0.13180500  1
  S  S3  1  0.03121700  0.32133500  0.86819500  1
  S  S4  1  0.32133500  0.86819500  0.03121700  1
  S  S5  1  0.13180500  0.96878300  0.67866500  1
  I  I0  1  0.57241200  0.57241200  0.57241200  1
  I  I1  1  0.42758800  0.42758800  0.42758800  1
  I  I2  1  0.26254000  0.26254000  0.26254000  1
  I  I3  1  0.73746000  0.73746000  0.73746000  1
  O  O0  1  0.89234500  0.11356900  0.16598200  1
  O  O1  1  0.83401800  0.10765500  0.88643100  1
  O  O2  1  0.88643100  0.83401800  0.10765500  1
  O  O3  1  0.11356900  0.16598200  0.89234500  1
  O  O4  1  0.16598200  0.89234500  0.11356900  1
  O  O5  1  0.10765500  0.88643100  0.83401800  1
loop_
_geom_bond_atom_site_label_1
_geom_bond_atom_site_label_2
_geom_bond_distance
_geom_bond_site_symmetry_2
Ni0 O1 2.104361 1_454
Ni0 O4 2.104361 1_545
Ni0 O3 2.104361 1_554
Ni0 O2 2.104361 1_445
Ni0 O0 2.104361 1_455
Ni0 O5 2.104361 1_544
C0 H5 1.097029 1_555
C0 H1 1.097068 1_555
C0 H0 1.097596 1_555
C0 S0 1.796102 1_555
C1 H22 1.095346 1_545
C1 H3 1.096473 1_555
C1 H25 1.096603 1_545
C1 S0 1.792714 1_555
C2 H9 1.097029 1_555
C2 H11 1.097068 1_555
C2 H4 1.097596 1_555
C2 S1 1.796102 1_555
C3 H33 1.095346 1_655
C3 H14 1.096473 1_555
C3 H29 1.096603 1_655
C3 S2 1.792714 1_555
C4 H8 1.095346 1_556
C4 H12 1.096473 1_555
C4 H16 1.096603 1_556
C4 S1 1.792714 1_555
C5 H17 1.097029 1_555
C5 H7 1.097068 1_555
C5 H15 1.097596 1_555
C5 S2 1.796102 1_555
C6 H18 1.097029 1_555
C6 H28 1.097068 1_555
C6 H20 1.097596 1_555
C6 S3 1.796102 1_555
C7 H27 1.095346 1_554
C7 H23 1.096473 1_555
C7 H19 1.096603 1_554
C7 S4 1.792714 1_555
C8 H2 1.095346 1_455
C8 H21 1.096473 1_555
C8 H6 1.096603 1_455
C8 S3 1.792714 1_555
C9 H26 1.097029 1_555
C9 H24 1.097068 1_555
C9 H31 1.097596 1_555
C9 S4 1.796102 1_555
C10 H13 1.095346 1_565
C10 H32 1.096473 1_555
C10 H10 1.096603 1_565
C10 S5 1.792714 1_555
C11 H30 1.097029 1_555
C11 H34 1.097068 1_555
C11 H35 1.097596 1_555
C11 S5 1.796102 1_555
I0 I1 2.942909 1_555
I0 I3 3.353873 1_555
I1 I2 3.353873 1_555
O0 S0 1.531579 1_555
O1 S1 1.531579 1_555
O2 S2 1.531579 1_555
O3 S3 1.531579 1_555
O4 S4 1.531579 1_555
O5 S5 1.531579 1_555
