# generated using pymatgen
data_LiAgF2
_symmetry_space_group_name_H-M   'P 1'
_cell_length_a   5.57883300
_cell_length_b   5.69887000
_cell_length_c   7.21747300
_cell_angle_alpha   90.00000000
_cell_angle_beta   90.00000000
_cell_angle_gamma   90.00000000
_symmetry_Int_Tables_number   1
_chemical_formula_structural   LiAgF2
_chemical_formula_sum   'Li4 Ag4 F8'
_cell_volume   229.46543679
_cell_formula_units_Z   4
loop_
 _symmetry_equiv_pos_site_id
 _symmetry_equiv_pos_as_xyz
  1  'x, y, z'
loop_
 _atom_site_type_symbol
 _atom_site_label
 _atom_site_symmetry_multiplicity
 _atom_site_fract_x
 _atom_site_fract_y
 _atom_site_fract_z
 _atom_site_occupancy
  Li  Li0  1  0.00029600  0.07258400  0.62712000  1
  Li  Li1  1  0.50029600  0.42741600  0.12712000  1
  Li  Li2  1  0.00029600  0.57258400  0.87288000  1
  Li  Li3  1  0.50029600  0.92741600  0.37288000  1
  Ag  Ag0  1  0.99542900  0.07122000  0.13438600  1
  Ag  Ag1  1  0.49542900  0.42878000  0.63438600  1
  Ag  Ag2  1  0.99542900  0.57122000  0.36561400  1
  Ag  Ag3  1  0.49542900  0.92878000  0.86561400  1
  F  F0  1  0.33141900  0.03903100  0.58099300  1
  F  F1  1  0.42534500  0.10441400  0.15806200  1
  F  F2  1  0.92534500  0.39558600  0.65806200  1
  F  F3  1  0.83141900  0.46096900  0.08099300  1
  F  F4  1  0.33141900  0.53903100  0.91900700  1
  F  F5  1  0.42534500  0.60441400  0.34193800  1
  F  F6  1  0.92534500  0.89558600  0.84193800  1
  F  F7  1  0.83141900  0.96096900  0.41900700  1
loop_
_geom_bond_atom_site_label_1
_geom_bond_atom_site_label_2
_geom_bond_distance
_geom_bond_site_symmetry_2
Ag0 F7 2.334927 1_545
Ag0 F6 2.368524 1_544
Ag0 F1 2.411939 1_655
Ag0 F3 2.432923 1_555
Ag1 F4 2.334927 1_555
Ag1 F5 2.368524 1_555
Ag1 F2 2.411939 1_555
Ag1 F0 2.432923 1_555
Ag2 F3 2.334927 1_555
Ag2 F2 2.368524 1_555
Ag2 F5 2.411939 1_655
Ag2 F7 2.432923 1_555
Ag3 F0 2.334927 1_565
Ag3 F1 2.368524 1_566
Ag3 F6 2.411939 1_555
Ag3 F4 2.432923 1_555
F0 Li3 1.883712 1_545
F0 Li0 1.886754 1_555
F1 Li3 1.896356 1_545
F1 Li1 1.900805 1_555
F2 Li2 1.896356 1_655
F2 Li0 1.900805 1_655
F3 Li2 1.883712 1_654
F3 Li1 1.886754 1_555
F4 Li1 1.883712 1_556
F4 Li2 1.886754 1_555
F5 Li1 1.896356 1_555
F5 Li3 1.900805 1_555
F6 Li0 1.896356 1_665
F6 Li2 1.900805 1_655
F7 Li0 1.883712 1_665
F7 Li3 1.886754 1_555
