# generated using pymatgen
data_CsEr2Cu3Se5
_symmetry_space_group_name_H-M   'P 1'
_cell_length_a   7.63361152
_cell_length_b   7.63361152
_cell_length_c   17.27301300
_cell_angle_alpha   90.00000000
_cell_angle_beta   90.00000000
_cell_angle_gamma   148.70124473
_symmetry_Int_Tables_number   1
_chemical_formula_structural   CsEr2Cu3Se5
_chemical_formula_sum   'Cs2 Er4 Cu6 Se10'
_cell_volume   522.89467568
_cell_formula_units_Z   2
loop_
 _symmetry_equiv_pos_site_id
 _symmetry_equiv_pos_as_xyz
  1  'x, y, z'
loop_
 _atom_site_type_symbol
 _atom_site_label
 _atom_site_symmetry_multiplicity
 _atom_site_fract_x
 _atom_site_fract_y
 _atom_site_fract_z
 _atom_site_occupancy
  Cs  Cs0  1  0.05888700  0.94307600  0.24920700  1
  Cs  Cs1  1  0.92855600  0.05614400  0.74978500  1
  Er  Er0  1  0.79956600  0.18574700  0.41063900  1
  Er  Er1  1  0.19477400  0.81231400  0.59416800  1
  Er  Er2  1  0.20235400  0.81460600  0.90714400  1
  Er  Er3  1  0.81244500  0.19981300  0.09356200  1
  Cu  Cu0  1  0.34311400  0.65131600  0.24747400  1
  Cu  Cu1  1  0.65935000  0.35025300  0.75251300  1
  Cu  Cu2  1  0.57823500  0.41847900  0.03333200  1
  Cu  Cu3  1  0.41667900  0.57891800  0.96458500  1
  Cu  Cu4  1  0.41973900  0.58171000  0.53537400  1
  Cu  Cu5  1  0.59374900  0.42242800  0.46744100  1
  Se  Se0  1  0.76141800  0.24239100  0.25200800  1
  Se  Se1  1  0.22811600  0.74938100  0.74989300  1
  Se  Se2  1  0.56177500  0.43675000  0.60927900  1
  Se  Se3  1  0.43309900  0.55303300  0.38948500  1
  Se  Se4  1  0.44032500  0.56797700  0.11437300  1
  Se  Se5  1  0.55063800  0.43035100  0.88701200  1
  Se  Se6  1  0.81852300  0.15741300  0.56984600  1
  Se  Se7  1  0.16362000  0.83028300  0.43140300  1
  Se  Se8  1  0.16738800  0.82250800  0.07013900  1
  Se  Se9  1  0.82446600  0.16016900  0.93162000  1
loop_
_geom_bond_atom_site_label_1
_geom_bond_atom_site_label_2
_geom_bond_distance
_geom_bond_site_symmetry_2
Cs0 Se8 3.521751 1_555
Cs0 Se7 3.530015 1_555
Cs0 Se4 3.579590 1_455
Cs0 Se4 3.594576 1_565
Cs0 Se3 3.602898 1_565
Cs0 Se0 3.607150 1_455
Cs0 Se0 3.611487 1_565
Cs0 Se3 3.639970 1_455
Cs0 Cu0 3.727149 1_565
Cs0 Cu0 3.744250 1_455
Cs1 Se6 3.474620 1_555
Cs1 Se9 3.493578 1_555
Cs1 Se1 3.543056 1_655
Cs1 Se1 3.560254 1_545
Cs1 Se5 3.625881 1_655
Cs1 Se5 3.634550 1_545
Cs1 Se2 3.669036 1_545
Cs1 Se2 3.700852 1_655
Cs1 Cu1 3.786471 1_545
Cs1 Cu1 3.841840 1_655
Er0 Se6 2.771936 1_555
Er0 Se0 2.827499 1_555
Er0 Se3 2.863025 1_545
Er0 Se3 2.865450 1_655
Er0 Se7 2.923518 1_545
Er0 Se7 2.948330 1_655
Er1 Se1 2.782044 1_555
Er1 Se2 2.795858 1_565
Er1 Se2 2.821712 1_455
Er1 Se7 2.834665 1_555
Er1 Se6 2.889972 1_565
Er1 Se6 2.979983 1_455
Er2 Se1 2.798508 1_555
Er2 Se5 2.815442 1_565
Er2 Se8 2.833542 1_556
Er2 Se9 2.877764 1_565
Er2 Se5 2.921781 1_455
Er2 Se9 2.971494 1_455
Er3 Se0 2.822059 1_555
Er3 Se9 2.823462 1_554
Er3 Se4 2.824974 1_655
Er3 Se4 2.836824 1_545
Er3 Se8 2.844282 1_655
Er3 Se8 2.910191 1_545
Cu0 Se0 2.404157 1_455
Cu0 Se0 2.437016 1_565
Cu0 Se4 2.654773 1_555
Cu0 Se3 2.816460 1_555
Cu1 Se1 2.351423 1_655
Cu1 Se1 2.464493 1_545
Cu1 Se5 2.706832 1_555
Cu1 Se2 2.819989 1_555
Cu2 Se4 2.534420 1_555
Cu2 Se8 2.537412 1_655
Cu2 Se5 2.544191 1_554
Cu2 Se8 2.560097 1_545
Cu3 Se9 2.469360 1_565
Cu3 Se5 2.471672 1_555
Cu3 Se9 2.506723 1_455
Cu3 Se4 2.599883 1_556
Cu4 Se6 2.464208 1_565
Cu4 Se2 2.465780 1_555
Cu4 Se3 2.539013 1_555
Cu4 Se6 2.550497 1_455
Cu5 Se7 2.420569 1_655
Cu5 Se2 2.473758 1_555
Cu5 Se7 2.497386 1_545
Cu5 Se3 2.529917 1_555
