# generated using pymatgen
data_Li2V3WO8
_symmetry_space_group_name_H-M   'P 1'
_cell_length_a   8.62041717
_cell_length_b   8.58555411
_cell_length_c   8.61406622
_cell_angle_alpha   90.01283381
_cell_angle_beta   89.98205262
_cell_angle_gamma   90.01619116
_symmetry_Int_Tables_number   1
_chemical_formula_structural   Li2V3WO8
_chemical_formula_sum   'Li8 V12 W4 O32'
_cell_volume   637.53608261
_cell_formula_units_Z   4
loop_
 _symmetry_equiv_pos_site_id
 _symmetry_equiv_pos_as_xyz
  1  'x, y, z'
loop_
 _atom_site_type_symbol
 _atom_site_label
 _atom_site_symmetry_multiplicity
 _atom_site_fract_x
 _atom_site_fract_y
 _atom_site_fract_z
 _atom_site_occupancy
  Li  Li0  1  0.99873200  0.99956800  0.99927700  1
  Li  Li1  1  0.25038000  0.25156900  0.25132100  1
  Li  Li2  1  0.24966500  0.74844200  0.75113200  1
  Li  Li3  1  0.50106100  0.00052900  0.49876800  1
  Li  Li4  1  0.49850600  0.50040200  0.00087200  1
  Li  Li5  1  0.75013000  0.24905700  0.74910100  1
  Li  Li6  1  0.74938200  0.75193300  0.24919500  1
  Li  Li7  1  0.00114300  0.49912800  0.50136500  1
  V  V0  1  0.12219700  0.12791300  0.62605500  1
  V  V1  1  0.12285800  0.37932900  0.87162300  1
  V  V2  1  0.13040100  0.62587800  0.12030800  1
  V  V3  1  0.36987800  0.37351800  0.62012300  1
  V  V4  1  0.37742500  0.62062100  0.37091300  1
  V  V5  1  0.37805400  0.87192400  0.12579000  1
  V  V6  1  0.62218600  0.37207600  0.37360700  1
  V  V7  1  0.62232500  0.12143500  0.12907900  1
  V  V8  1  0.62994900  0.87359200  0.87969400  1
  V  V9  1  0.87002700  0.12648400  0.38057000  1
  V  V10  1  0.87726200  0.87917500  0.62884200  1
  V  V11  1  0.87797400  0.62832700  0.87372300  1
  W  W0  1  0.12624700  0.87541000  0.37529400  1
  W  W1  1  0.37393800  0.12408200  0.87539600  1
  W  W2  1  0.62601100  0.62419900  0.62450600  1
  W  W3  1  0.87387500  0.37595300  0.12441500  1
  O  O0  1  0.11099800  0.10674200  0.38040800  1
  O  O1  1  0.11828100  0.88918400  0.61264400  1
  O  O2  1  0.11257000  0.61334200  0.88714900  1
  O  O3  1  0.14057600  0.13949400  0.86983000  1
  O  O4  1  0.10982300  0.38381200  0.11206700  1
  O  O5  1  0.13703000  0.36278300  0.63715900  1
  O  O6  1  0.13302800  0.64372600  0.36313200  1
  O  O7  1  0.13931000  0.86750200  0.13771000  1
  O  O8  1  0.36055600  0.13196900  0.63767700  1
  O  O9  1  0.36682300  0.35640200  0.86269800  1
  O  O10  1  0.36300200  0.63690600  0.13700000  1
  O  O11  1  0.39139500  0.61623600  0.61219000  1
  O  O12  1  0.35976800  0.86010500  0.36950700  1
  O  O13  1  0.38754000  0.38657200  0.38709300  1
  O  O14  1  0.38148500  0.11054500  0.11262600  1
  O  O15  1  0.38935900  0.89265500  0.88018900  1
  O  O16  1  0.61093600  0.39299100  0.61954300  1
  O  O17  1  0.61854400  0.61070600  0.38716600  1
  O  O18  1  0.61279700  0.88697200  0.11269000  1
  O  O19  1  0.63889200  0.36020600  0.13051500  1
  O  O20  1  0.60822700  0.11634100  0.88758200  1
  O  O21  1  0.63724100  0.13687100  0.36293700  1
  O  O22  1  0.63324800  0.85619600  0.63680300  1
  O  O23  1  0.63945300  0.63218900  0.86207400  1
  O  O24  1  0.86100700  0.36774500  0.36224600  1
  O  O25  1  0.86746800  0.14513400  0.13717300  1
  O  O26  1  0.86301500  0.86321600  0.86292600  1
  O  O27  1  0.89128100  0.88401000  0.38756300  1
  O  O28  1  0.85967400  0.63978100  0.63024200  1
  O  O29  1  0.88733200  0.11344600  0.61325800  1
  O  O30  1  0.88140500  0.38970400  0.88766800  1
  O  O31  1  0.88833500  0.60611500  0.11970600  1
loop_
_geom_bond_atom_site_label_1
_geom_bond_atom_site_label_2
_geom_bond_distance
_geom_bond_site_symmetry_2
Li0 O26 2.029335 1_555
Li0 O7 2.044131 1_656
Li0 O3 2.044661 1_665
Li0 O25 2.062180 1_566
Li1 O13 2.027017 1_555
Li1 O14 2.042039 1_555
Li1 O4 2.049002 1_555
Li1 O0 2.055522 1_555
Li2 O2 2.028258 1_555
Li2 O1 2.041626 1_555
Li2 O11 2.052514 1_555
Li2 O15 2.053881 1_555
Li3 O21 2.028881 1_555
Li3 O8 2.042439 1_555
Li3 O12 2.043592 1_545
Li3 O22 2.061594 1_545
Li4 O10 2.027877 1_555
Li4 O19 2.040284 1_555
Li4 O23 2.045704 1_554
Li4 O9 2.057461 1_554
Li5 O29 2.030525 1_555
Li5 O30 2.040325 1_555
Li5 O16 2.052966 1_555
Li5 O20 2.053431 1_555
Li6 O18 2.028643 1_555
Li6 O17 2.038097 1_555
Li6 O27 2.049955 1_555
Li6 O31 2.060507 1_555
Li7 O5 2.028058 1_555
Li7 O24 2.041411 1_455
Li7 O28 2.043849 1_455
Li7 O6 2.061712 1_555
O0 W0 1.990973 1_545
O0 V9 2.084222 1_455
O0 V0 2.125992 1_555
O1 W0 2.049070 1_555
O1 V0 2.053117 1_565
O1 V10 2.084070 1_455
O2 V1 2.015523 1_555
O2 V2 2.017215 1_556
O2 V11 2.029775 1_455
O3 W1 2.016648 1_555
O3 V1 2.064870 1_555
O3 V0 2.108234 1_555
O4 W3 2.037815 1_455
O4 V1 2.074560 1_554
O4 V2 2.086971 1_555
O5 V3 2.014643 1_555
O5 V0 2.022746 1_555
O5 V1 2.028293 1_555
O6 W0 1.992742 1_555
O6 V2 2.097402 1_555
O6 V4 2.117262 1_555
O7 W0 2.050735 1_555
O7 V5 2.060940 1_555
O7 V2 2.081249 1_555
O8 W1 2.052144 1_555
O8 V0 2.057507 1_555
O8 V3 2.080899 1_555
O9 W1 1.998577 1_555
O9 V3 2.094908 1_555
O9 V1 2.113700 1_555
O10 V2 2.012512 1_555
O10 V4 2.023683 1_555
O10 V5 2.024215 1_555
O11 W2 2.026435 1_555
O11 V4 2.082249 1_555
O11 V3 2.093184 1_555
O12 W0 2.017969 1_555
O12 V4 2.061811 1_555
O12 V5 2.107719 1_555
O13 V3 2.016194 1_555
O13 V4 2.016212 1_555
O13 V6 2.029896 1_555
O14 W1 2.047898 1_554
O14 V5 2.052059 1_545
O14 V7 2.083089 1_555
O15 W1 1.991847 1_565
O15 V8 2.080483 1_555
O15 V5 2.125340 1_556
O16 W2 1.989712 1_555
O16 V3 2.084693 1_555
O16 V6 2.128248 1_555
O17 W2 2.048747 1_555
O17 V6 2.052320 1_555
O17 V4 2.085064 1_555
O18 V8 2.015688 1_554
O18 V7 2.019557 1_565
O18 V5 2.030770 1_555
O19 W3 2.030784 1_555
O19 V7 2.054944 1_555
O19 V6 2.101364 1_555
O20 W1 2.023539 1_555
O20 V7 2.084304 1_556
O20 V8 2.093668 1_545
O21 V9 2.014502 1_555
O21 V7 2.022922 1_555
O21 V6 2.025632 1_555
O22 W2 1.995573 1_555
O22 V8 2.097754 1_555
O22 V10 2.113771 1_555
O23 W2 2.050872 1_555
O23 V11 2.058906 1_555
O23 V8 2.079730 1_555
O24 W3 2.052883 1_555
O24 V6 2.061376 1_555
O24 V9 2.078878 1_555
O25 W3 1.985530 1_555
O25 V9 2.102902 1_555
O25 V7 2.124115 1_555
O26 V8 2.016259 1_555
O26 V11 2.022969 1_555
O26 V10 2.024783 1_555
O27 W0 2.029591 1_655
O27 V10 2.082288 1_555
O27 V9 2.090755 1_565
O28 W2 2.019292 1_555
O28 V10 2.060910 1_555
O28 V11 2.105657 1_555
O29 V9 2.013122 1_555
O29 V10 2.017693 1_545
O29 V0 2.031432 1_655
O30 W3 2.043805 1_556
O30 V11 2.052478 1_555
O30 V1 2.087891 1_655
O31 W3 1.980385 1_555
O31 V2 2.093557 1_655
O31 V11 2.129425 1_554
