# generated using pymatgen
data_Li5Fe8(BO3)8
_symmetry_space_group_name_H-M   'P 1'
_cell_length_a   5.26757100
_cell_length_b   9.08061555
_cell_length_c   10.21422984
_cell_angle_alpha   89.99919508
_cell_angle_beta   88.65484704
_cell_angle_gamma   89.98004879
_symmetry_Int_Tables_number   1
_chemical_formula_structural   Li5Fe8(BO3)8
_chemical_formula_sum   'Li5 Fe8 B8 O24'
_cell_volume   488.44041044
_cell_formula_units_Z   1
loop_
 _symmetry_equiv_pos_site_id
 _symmetry_equiv_pos_as_xyz
  1  'x, y, z'
loop_
 _atom_site_type_symbol
 _atom_site_label
 _atom_site_symmetry_multiplicity
 _atom_site_fract_x
 _atom_site_fract_y
 _atom_site_fract_z
 _atom_site_occupancy
  Li  Li0  1  0.33883300  0.98541100  0.15569600  1
  Li  Li1  1  0.65637200  0.00233500  0.88014300  1
  Li  Li2  1  0.15788900  0.50533700  0.40346700  1
  Li  Li3  1  0.84466800  0.51557100  0.66264400  1
  Li  Li4  1  0.83724600  0.49451600  0.16459100  1
  Fe  Fe0  1  0.15925600  0.82704600  0.87502500  1
  Fe  Fe1  1  0.83392200  0.84603300  0.62904700  1
  Fe  Fe2  1  0.33489400  0.65763200  0.12740400  1
  Fe  Fe3  1  0.64690100  0.67925800  0.38139700  1
  Fe  Fe4  1  0.34772800  0.33256000  0.62984600  1
  Fe  Fe5  1  0.16120800  0.16316000  0.37999500  1
  Fe  Fe6  1  0.65752300  0.33634100  0.88066200  1
  Fe  Fe7  1  0.83890600  0.15663600  0.13191100  1
  B  B0  1  0.15063600  0.83235600  0.37467200  1
  B  B1  1  0.33246800  0.65873300  0.63226900  1
  B  B2  1  0.83027700  0.83028200  0.11839600  1
  B  B3  1  0.65802400  0.66986600  0.87789500  1
  B  B4  1  0.33543800  0.33023200  0.13114100  1
  B  B5  1  0.67280100  0.33292300  0.37222300  1
  B  B6  1  0.16491500  0.16270400  0.88210400  1
  B  B7  1  0.84085600  0.17494700  0.63857200  1
  O  O0  1  0.26427000  0.96532100  0.34759900  1
  O  O1  1  0.08969000  0.83132400  0.08224900  1
  O  O2  1  0.69068600  0.95768000  0.10804000  1
  O  O3  1  0.20344500  0.78159200  0.68442600  1
  O  O4  1  0.28063600  0.70230700  0.34027500  1
  O  O5  1  0.79327200  0.79979900  0.85206200  1
  O  O6  1  0.91296400  0.82349600  0.43117000  1
  O  O7  1  0.40905000  0.68289400  0.92309800  1
  O  O8  1  0.19510400  0.53277700  0.60532500  1
  O  O9  1  0.58966800  0.66489500  0.60302300  1
  O  O10  1  0.72056800  0.69961100  0.16294500  1
  O  O11  1  0.19488100  0.45560100  0.14297500  1
  O  O12  1  0.76839800  0.53546200  0.85933400  1
  O  O13  1  0.30642900  0.28490700  0.84430400  1
  O  O14  1  0.41630600  0.32115900  0.41081900  1
  O  O15  1  0.79023600  0.46820400  0.36603000  1
  O  O16  1  0.59012700  0.33508200  0.08311500  1
  O  O17  1  0.07467500  0.18557800  0.57035500  1
  O  O18  1  0.23192100  0.19442500  0.16991400  1
  O  O19  1  0.72834900  0.31049800  0.68046400  1
  O  O20  1  0.80735000  0.20645800  0.33555500  1
  O  O21  1  0.27853400  0.02662200  0.88667300  1
  O  O22  1  0.90739400  0.17888500  0.91779300  1
  O  O23  1  0.72285400  0.04839300  0.66931600  1
loop_
_geom_bond_atom_site_label_1
_geom_bond_atom_site_label_2
_geom_bond_distance
_geom_bond_site_symmetry_2
Li0 O2 1.921668 1_555
Li0 O18 1.983931 1_565
Li0 O0 1.998398 1_555
Li0 O1 2.071341 1_555
Li1 O5 1.993529 1_545
Li1 O21 2.001948 1_555
Li1 O22 2.119403 1_555
Li1 O23 2.213485 1_555
Li1 O2 2.373898 1_546
Li2 O4 2.003741 1_555
Li2 O15 2.011396 1_455
Li2 O8 2.090612 1_555
Li2 O14 2.158445 1_555
Li3 O8 1.929809 1_655
Li3 O19 1.967702 1_555
Li3 O9 2.012673 1_555
Li3 O12 2.047517 1_555
Li4 O11 1.924211 1_655
Li4 O10 1.961175 1_555
Li4 O15 2.080385 1_555
Li4 O16 2.129615 1_555
Fe0 O21 1.922905 1_565
Fe0 O7 1.927441 1_555
Fe0 O5 1.963259 1_455
Fe0 O3 1.998334 1_555
Fe0 O1 2.139978 1_556
Fe1 O23 1.968769 1_565
Fe1 O6 2.064164 1_555
Fe1 O9 2.109294 1_555
Fe1 O3 2.121813 1_655
Fe1 O5 2.321248 1_555
Fe2 O11 1.982499 1_555
Fe2 O1 2.096478 1_555
Fe2 O10 2.107017 1_555
Fe2 O7 2.126461 1_554
Fe2 O4 2.223660 1_555
Fe3 O6 1.993221 1_555
Fe3 O4 1.995068 1_555
Fe3 O15 2.064246 1_555
Fe3 O10 2.263384 1_555
Fe3 O9 2.280437 1_555
Fe4 O8 2.005734 1_555
Fe4 O17 2.064415 1_555
Fe4 O19 2.091806 1_555
Fe4 O13 2.238443 1_555
Fe4 O14 2.260150 1_555
Fe5 O0 1.903296 1_545
Fe5 O20 1.968306 1_455
Fe5 O14 1.996108 1_555
Fe5 O17 1.997039 1_555
Fe5 O18 2.187785 1_555
Fe6 O12 1.911201 1_555
Fe6 O13 1.951725 1_555
Fe6 O22 1.985621 1_555
Fe6 O19 2.083238 1_555
Fe6 O16 2.089956 1_556
Fe7 O2 1.985680 1_545
Fe7 O20 2.131367 1_555
Fe7 O18 2.143018 1_655
Fe7 O16 2.149554 1_555
Fe7 O22 2.217466 1_554
B0 O6 1.368589 1_455
B0 O0 1.373065 1_555
B0 O4 1.405384 1_555
B1 O9 1.381649 1_555
B1 O8 1.384709 1_555
B1 O3 1.404583 1_555
B2 O2 1.375946 1_555
B2 O10 1.391796 1_555
B2 O1 1.407120 1_655
B3 O12 1.363033 1_555
B3 O7 1.385150 1_555
B3 O5 1.400367 1_555
B4 O11 1.361626 1_555
B4 O18 1.401893 1_555
B4 O16 1.418305 1_555
B5 O15 1.376374 1_555
B5 O20 1.395836 1_555
B5 O14 1.402642 1_555
B6 O21 1.374098 1_555
B6 O13 1.386789 1_555
B6 O22 1.404009 1_455
B7 O23 1.340498 1_555
B7 O17 1.404136 1_655
B7 O19 1.427234 1_555
