# generated using pymatgen
data_Bi5O7F
_symmetry_space_group_name_H-M   'P 1'
_cell_length_a   14.66020790
_cell_length_b   14.66020790
_cell_length_c   14.66020790
_cell_angle_alpha   159.26645138
_cell_angle_beta   113.79125955
_cell_angle_gamma   70.20580366
_symmetry_Int_Tables_number   1
_chemical_formula_structural   Bi5O7F
_chemical_formula_sum   'Bi20 O28 F4'
_cell_volume   1013.37706405
_cell_formula_units_Z   4
loop_
 _symmetry_equiv_pos_site_id
 _symmetry_equiv_pos_as_xyz
  1  'x, y, z'
loop_
 _atom_site_type_symbol
 _atom_site_label
 _atom_site_symmetry_multiplicity
 _atom_site_fract_x
 _atom_site_fract_y
 _atom_site_fract_z
 _atom_site_occupancy
  Bi  Bi0  1  0.38736600  0.31841600  0.09090800  1
  Bi  Bi1  1  0.27249200  0.70354200  0.59090800  1
  Bi  Bi2  1  0.22750800  0.81841600  0.43105000  1
  Bi  Bi3  1  0.11263400  0.20354200  0.93105000  1
  Bi  Bi4  1  0.35708100  0.40456100  0.88881300  1
  Bi  Bi5  1  0.48425200  0.09543900  0.45252000  1
  Bi  Bi6  1  0.85708100  0.96826800  0.95252000  1
  Bi  Bi7  1  0.98425200  0.53173200  0.38881300  1
  Bi  Bi8  1  0.94858100  0.69858100  0.25000000  1
  Bi  Bi9  1  0.55141900  0.80141900  0.75000000  1
  Bi  Bi10  1  0.44858100  0.19858100  0.25000000  1
  Bi  Bi11  1  0.05141900  0.30141900  0.75000000  1
  Bi  Bi12  1  0.01574800  0.46826800  0.61118700  1
  Bi  Bi13  1  0.14291900  0.03173200  0.04748000  1
  Bi  Bi14  1  0.64291900  0.59543900  0.11118700  1
  Bi  Bi15  1  0.51574800  0.90456100  0.54748000  1
  Bi  Bi16  1  0.88736600  0.79645800  0.06895000  1
  Bi  Bi17  1  0.77249200  0.18158400  0.56895000  1
  Bi  Bi18  1  0.72750800  0.29645800  0.40909200  1
  Bi  Bi19  1  0.61263400  0.68158400  0.90909300  1
  O  O0  1  0.41754200  0.49685200  0.41286100  1
  O  O1  1  0.41600900  0.99531800  0.91286100  1
  O  O2  1  0.21962500  0.09854400  0.01668300  1
  O  O3  1  0.41814000  0.79705800  0.51668300  1
  O  O4  1  0.49724700  0.52029100  0.12140700  1
  O  O5  1  0.10111600  0.62416100  0.62140700  1
  O  O6  1  0.25000000  0.98902300  0.73902300  1
  O  O7  1  0.25000000  0.48902300  0.23902300  1
  O  O8  1  0.39888400  0.02029100  0.52304500  1
  O  O9  1  0.00275300  0.12416100  0.02304500  1
  O  O10  1  0.08186000  0.59854400  0.37891900  1
  O  O11  1  0.28037500  0.29705800  0.87891900  1
  O  O12  1  0.08399100  0.99685200  0.57930900  1
  O  O13  1  0.08245800  0.49531800  0.07930900  1
  O  O14  1  0.91754200  0.50468200  0.92069100  1
  O  O15  1  0.91600900  0.00314800  0.42069100  1
  O  O16  1  0.91814000  0.40145600  0.62108100  1
  O  O17  1  0.71962500  0.70294200  0.12108100  1
  O  O18  1  0.99724700  0.87583900  0.97695500  1
  O  O19  1  0.60111600  0.97970900  0.47695500  1
  O  O20  1  0.75000000  0.51097700  0.76097700  1
  O  O21  1  0.75000000  0.01097700  0.26097700  1
  O  O22  1  0.89888400  0.37583900  0.37859300  1
  O  O23  1  0.50275300  0.47970900  0.87859300  1
  O  O24  1  0.58186000  0.20294200  0.48331700  1
  O  O25  1  0.78037500  0.90145600  0.98331700  1
  O  O26  1  0.58245800  0.50314800  0.58713900  1
  O  O27  1  0.58399100  0.00468200  0.08713900  1
  F  F0  1  0.90305900  0.15305900  0.75000000  1
  F  F1  1  0.09694100  0.84694100  0.25000000  1
  F  F2  1  0.40305900  0.65305900  0.75000000  1
  F  F3  1  0.59694100  0.34694100  0.25000000  1
loop_
_geom_bond_atom_site_label_1
_geom_bond_atom_site_label_2
_geom_bond_distance
_geom_bond_site_symmetry_2
Bi0 O7 2.232550 1_555
Bi0 O0 2.306699 1_555
Bi0 O6 2.365479 1_544
Bi0 O1 2.415959 1_544
Bi0 O3 2.519822 1_555
Bi0 O11 2.606969 1_554
Bi1 O6 2.232550 1_555
Bi1 O1 2.306695 1_555
Bi1 O7 2.365479 1_555
Bi1 O0 2.415946 1_555
Bi1 O2 2.519820 1_566
Bi1 O10 2.606981 1_555
Bi2 O6 2.232550 1_555
Bi2 O12 2.306695 1_555
Bi2 O7 2.365479 1_555
Bi2 O13 2.415949 1_555
Bi2 O11 2.519820 1_565
Bi2 O3 2.606981 1_555
Bi3 O7 2.232550 1_556
Bi3 O13 2.306696 1_556
Bi3 O6 2.365479 1_545
Bi3 O12 2.415959 1_545
Bi3 O10 2.519827 1_556
Bi3 O2 2.606969 1_556
Bi4 O11 2.100136 1_555
Bi4 O4 2.148275 1_556
Bi4 O8 2.162162 1_555
Bi5 O24 2.100124 1_555
Bi5 O19 2.148267 1_545
Bi5 O23 2.162164 1_555
Bi6 O25 2.100136 1_555
Bi6 O18 2.148277 1_555
Bi6 O22 2.162162 1_566
Bi7 O10 2.100123 1_655
Bi7 O5 2.148267 1_655
Bi7 O9 2.162159 1_655
Bi8 O14 2.242548 1_554
Bi8 O12 2.242551 1_655
Bi8 O15 2.246609 1_565
Bi8 O13 2.246621 1_655
Bi9 O26 2.242551 1_555
Bi9 O1 2.242551 1_555
Bi9 O27 2.246609 1_566
Bi9 O0 2.246618 1_555
Bi10 O0 2.242551 1_555
Bi10 O27 2.242551 1_555
Bi10 O1 2.246609 1_544
Bi10 O26 2.246618 1_555
Bi11 O13 2.242548 1_556
Bi11 O15 2.242551 1_455
Bi11 O12 2.246609 1_545
Bi11 O14 2.246621 1_455
Bi12 O16 2.100123 1_455
Bi12 O22 2.148267 1_455
Bi12 O18 2.162159 1_455
Bi13 O2 2.100136 1_555
Bi13 O9 2.148277 1_555
Bi13 O5 2.162162 1_544
Bi14 O17 2.100136 1_555
Bi14 O23 2.148275 1_554
Bi14 O19 2.162162 1_555
Bi15 O3 2.100124 1_555
Bi15 O8 2.148267 1_565
Bi15 O4 2.162164 1_555
Bi16 O20 2.232550 1_554
Bi16 O14 2.306696 1_554
Bi16 O21 2.365479 1_565
Bi16 O15 2.415959 1_565
Bi16 O16 2.519827 1_554
Bi16 O25 2.606969 1_554
Bi17 O21 2.232550 1_555
Bi17 O15 2.306695 1_555
Bi17 O20 2.365479 1_555
Bi17 O14 2.415949 1_555
Bi17 O17 2.519820 1_545
Bi17 O24 2.606981 1_555
Bi18 O21 2.232550 1_555
Bi18 O27 2.306695 1_555
Bi18 O20 2.365479 1_555
Bi18 O26 2.415946 1_555
Bi18 O25 2.519820 1_544
Bi18 O16 2.606981 1_555
Bi19 O20 2.232554 1_555
Bi19 O26 2.306712 1_555
Bi19 O21 2.365480 1_566
Bi19 O27 2.415969 1_566
Bi19 O24 2.519819 1_555
Bi19 O17 2.606957 1_556
