# generated using pymatgen
data_Li2MnCO5
_symmetry_space_group_name_H-M   'P 1'
_cell_length_a   2.90903000
_cell_length_b   9.43820000
_cell_length_c   11.82975000
_cell_angle_alpha   90.00000000
_cell_angle_beta   90.00000000
_cell_angle_gamma   90.00000000
_symmetry_Int_Tables_number   1
_chemical_formula_structural   Li2MnCO5
_chemical_formula_sum   'Li8 Mn4 C4 O20'
_cell_volume   324.79769817
_cell_formula_units_Z   4
loop_
 _symmetry_equiv_pos_site_id
 _symmetry_equiv_pos_as_xyz
  1  'x, y, z'
loop_
 _atom_site_type_symbol
 _atom_site_label
 _atom_site_symmetry_multiplicity
 _atom_site_fract_x
 _atom_site_fract_y
 _atom_site_fract_z
 _atom_site_occupancy
  Li  Li0  1  0.00000000  0.00000000  0.50000000  1
  Li  Li1  1  0.50000000  0.00000000  0.00000000  1
  Li  Li2  1  0.50000000  0.00590200  0.28377100  1
  Li  Li3  1  0.50000000  0.49409800  0.78377100  1
  Li  Li4  1  0.00000000  0.50000000  0.00000000  1
  Li  Li5  1  0.50000000  0.50000000  0.50000000  1
  Li  Li6  1  0.50000000  0.50590200  0.21622900  1
  Li  Li7  1  0.50000000  0.99409800  0.71622900  1
  Mn  Mn0  1  0.00000000  0.24317500  0.11335900  1
  Mn  Mn1  1  0.00000000  0.25682500  0.61335900  1
  Mn  Mn2  1  0.00000000  0.74317500  0.38664100  1
  Mn  Mn3  1  0.00000000  0.75682500  0.88664100  1
  C  C0  1  0.00000000  0.23872900  0.86207500  1
  C  C1  1  0.00000000  0.26127100  0.36207500  1
  C  C2  1  0.00000000  0.73872900  0.63792500  1
  C  C3  1  0.00000000  0.76127100  0.13792500  1
  O  O0  1  0.50000000  0.11718000  0.14360900  1
  O  O1  1  0.00000000  0.12801100  0.36339300  1
  O  O2  1  0.50000000  0.12959600  0.58022400  1
  O  O3  1  0.00000000  0.16079600  0.95462300  1
  O  O4  1  0.00000000  0.16548800  0.76770000  1
  O  O5  1  0.00000000  0.33451200  0.26770000  1
  O  O6  1  0.00000000  0.33920400  0.45462300  1
  O  O7  1  0.50000000  0.37040400  0.08022400  1
  O  O8  1  0.00000000  0.37198900  0.86339300  1
  O  O9  1  0.50000000  0.38282000  0.64360900  1
  O  O10  1  0.50000000  0.61718000  0.35639100  1
  O  O11  1  0.00000000  0.62801100  0.13660700  1
  O  O12  1  0.50000000  0.62959600  0.91977600  1
  O  O13  1  0.00000000  0.66079600  0.54537700  1
  O  O14  1  0.00000000  0.66548800  0.73230000  1
  O  O15  1  0.00000000  0.83451200  0.23230000  1
  O  O16  1  0.00000000  0.83920400  0.04537700  1
  O  O17  1  0.50000000  0.87040400  0.41977600  1
  O  O18  1  0.00000000  0.87198900  0.63660700  1
  O  O19  1  0.50000000  0.88282000  0.85639100  1
loop_
_geom_bond_atom_site_label_1
_geom_bond_atom_site_label_2
_geom_bond_distance
_geom_bond_site_symmetry_2
Li0 O18 2.017740 1_545
Li0 O1 2.017740 1_555
Li0 O2 2.124235 1_555
Li0 O2 2.124235 1_455
Li0 O17 2.124235 1_545
Li0 O17 2.124235 1_445
Li1 O19 2.027137 1_544
Li1 O0 2.027137 1_555
Li1 O3 2.169551 1_554
Li1 O3 2.169551 1_654
Li1 O16 2.169551 1_645
Li1 O16 2.169551 1_545
Li2 O0 1.962725 1_555
Li2 O17 2.055250 1_545
Li2 O1 2.081114 1_655
Li2 O1 2.081114 1_555
Li2 O15 2.258989 1_545
Li2 O15 2.258989 1_645
Li3 O9 1.962725 1_555
Li3 O12 2.055250 1_555
Li3 O8 2.081114 1_555
Li3 O8 2.081114 1_655
Li3 O14 2.258989 1_555
Li3 O14 2.258989 1_655
Li4 O11 2.017740 1_555
Li4 O8 2.017740 1_554
Li4 O7 2.124235 1_555
Li4 O7 2.124235 1_455
Li4 O12 2.124235 1_454
Li4 O12 2.124235 1_554
Li5 O9 2.027137 1_555
Li5 O10 2.027137 1_555
Li5 O13 2.169551 1_555
Li5 O13 2.169551 1_655
Li5 O6 2.169551 1_655
Li5 O6 2.169551 1_555
Li6 O10 1.962725 1_555
Li6 O7 2.055250 1_555
Li6 O11 2.081114 1_555
Li6 O11 2.081114 1_655
Li6 O5 2.258989 1_555
Li6 O5 2.258989 1_655
Li7 O19 1.962725 1_555
Li7 O2 2.055250 1_565
Li7 O18 2.081114 1_655
Li7 O18 2.081114 1_555
Li7 O4 2.258989 1_565
Li7 O4 2.258989 1_665
Mn0 O0 1.912534 1_455
Mn0 O0 1.912534 1_555
Mn0 O7 1.926451 1_455
Mn0 O7 1.926451 1_555
Mn0 O5 2.019095 1_555
Mn0 O3 2.032408 1_554
Mn1 O9 1.912534 1_455
Mn1 O9 1.912534 1_555
Mn1 O2 1.926451 1_555
Mn1 O2 1.926451 1_455
Mn1 O4 2.019095 1_555
Mn1 O6 2.032408 1_555
Mn2 O10 1.912534 1_455
Mn2 O10 1.912534 1_555
Mn2 O17 1.926451 1_455
Mn2 O17 1.926451 1_555
Mn2 O15 2.019095 1_555
Mn2 O13 2.032408 1_555
Mn3 O19 1.912534 1_455
Mn3 O19 1.912534 1_555
Mn3 O12 1.926451 1_555
Mn3 O12 1.926451 1_455
Mn3 O14 2.019095 1_555
Mn3 O16 2.032408 1_556
C0 O8 1.257831 1_555
C0 O4 1.313113 1_555
C0 O3 1.318962 1_555
C1 O1 1.257831 1_555
C1 O5 1.313113 1_555
C1 O6 1.318962 1_555
C2 O18 1.257831 1_555
C2 O14 1.313113 1_555
C2 O13 1.318962 1_555
C3 O11 1.257831 1_555
C3 O15 1.313113 1_555
C3 O16 1.318962 1_555
