# generated using pymatgen
data_La9Mn10O30
_symmetry_space_group_name_H-M   'P 1'
_cell_length_a   5.50986049
_cell_length_b   5.50986049
_cell_length_c   22.99508608
_cell_angle_alpha   83.04662403
_cell_angle_beta   83.04662403
_cell_angle_gamma   60.86100400
_symmetry_Int_Tables_number   1
_chemical_formula_structural   La9Mn10O30
_chemical_formula_sum   'La9 Mn10 O30'
_cell_volume   603.70733333
_cell_formula_units_Z   1
loop_
 _symmetry_equiv_pos_site_id
 _symmetry_equiv_pos_as_xyz
  1  'x, y, z'
loop_
 _atom_site_type_symbol
 _atom_site_label
 _atom_site_symmetry_multiplicity
 _atom_site_fract_x
 _atom_site_fract_y
 _atom_site_fract_z
 _atom_site_occupancy
  La  La0  1  0.44794600  0.74646100  0.20442100  1
  La  La1  1  0.55191600  0.85069600  0.89803800  1
  La  La2  1  0.65593600  0.95776100  0.58909700  1
  La  La3  1  0.25353900  0.55205400  0.79557900  1
  La  La4  1  0.04223900  0.34406400  0.41090300  1
  La  La5  1  0.14930400  0.44808400  0.10196200  1
  La  La6  1  0.75312700  0.04139200  0.30670100  1
  La  La7  1  0.84976600  0.15023400  0.00000000  1
  La  La8  1  0.95860800  0.24687300  0.69329900  1
  Mn  Mn0  1  0.39590300  0.70148400  0.35400900  1
  Mn  Mn1  1  0.50028200  0.79969400  0.05028500  1
  Mn  Mn2  1  0.60359900  0.89698300  0.74825900  1
  Mn  Mn3  1  0.29851600  0.60409700  0.64599100  1
  Mn  Mn4  1  0.10301700  0.39640100  0.25174100  1
  Mn  Mn5  1  0.20030500  0.49971800  0.94971500  1
  Mn  Mn6  1  0.79879900  0.10057800  0.15088300  1
  Mn  Mn7  1  0.89942200  0.20120100  0.84911700  1
  Mn  Mn8  1  0.00407800  0.29896200  0.54783100  1
  Mn  Mn9  1  0.70103800  0.99592200  0.45216900  1
  O  O0  1  0.02406600  0.88876300  0.91338400  1
  O  O1  1  0.38770500  0.79873700  0.70277000  1
  O  O2  1  0.61940900  0.80289600  0.39369400  1
  O  O3  1  0.80915700  0.98291800  0.80137000  1
  O  O4  1  0.15398200  0.94103800  0.59629300  1
  O  O5  1  0.05896200  0.84601800  0.40370700  1
  O  O6  1  0.11123700  0.97593400  0.08661600  1
  O  O7  1  0.71655900  0.57204300  0.28744700  1
  O  O8  1  0.88883200  0.62396500  0.01354700  1
  O  O9  1  0.91747600  0.76944100  0.68769800  1
  O  O10  1  0.20126300  0.61229500  0.29723000  1
  O  O11  1  0.62441800  0.48813300  0.11351800  1
  O  O12  1  0.98347200  0.41316300  0.90095500  1
  O  O13  1  0.42795700  0.28344100  0.71255300  1
  O  O14  1  0.82839600  0.68144300  0.50917400  1
  O  O15  1  0.57051200  0.31662500  0.38827300  1
  O  O16  1  0.97508900  0.71347300  0.18713300  1
  O  O17  1  0.41559500  0.58440500  0.00000000  1
  O  O18  1  0.77467500  0.51509900  0.78738700  1
  O  O19  1  0.19710400  0.38059100  0.60630600  1
  O  O20  1  0.48490100  0.22532500  0.21261300  1
  O  O21  1  0.51186700  0.37558200  0.88648200  1
  O  O22  1  0.28652700  0.02491100  0.81286700  1
  O  O23  1  0.68337500  0.42948800  0.61172700  1
  O  O24  1  0.31855700  0.17160400  0.49082600  1
  O  O25  1  0.23055900  0.08252400  0.31230200  1
  O  O26  1  0.58683700  0.01652800  0.09904500  1
  O  O27  1  0.80173900  0.19826100  0.50000000  1
  O  O28  1  0.01708200  0.19084300  0.19863000  1
  O  O29  1  0.37603500  0.11116800  0.98645300  1
loop_
_geom_bond_atom_site_label_1
_geom_bond_atom_site_label_2
_geom_bond_distance
_geom_bond_site_symmetry_2
La0 O7 2.369344 1_555
La0 O28 2.446533 1_565
La0 O11 2.494250 1_555
La0 O10 2.615845 1_555
La0 O20 2.762381 1_555
La0 O20 2.773321 1_565
La0 O16 2.776419 1_455
La0 O16 2.801948 1_555
La0 O26 2.908335 1_565
La0 O25 3.041414 1_565
La0 O28 3.141954 1_655
La0 O6 3.237588 1_555
La1 O22 2.401389 1_565
La1 O12 2.426354 1_555
La1 O29 2.450990 1_565
La1 O3 2.707683 1_555
La1 O21 2.773064 1_565
La1 O0 2.776292 1_655
La1 O21 2.778026 1_555
La1 O0 2.793304 1_555
La1 O17 2.833391 1_556
La2 O14 2.333294 1_555
La2 O19 2.494133 1_565
La2 O27 2.565100 1_565
La2 O9 2.656953 1_555
La2 O4 2.725127 1_655
La2 O23 2.788986 1_565
La2 O4 2.796180 1_555
La2 O23 2.826596 1_555
La2 O24 2.861765 1_565
La2 O1 3.091236 1_555
La2 O19 3.147568 1_655
La2 O13 3.321452 1_565
La3 O13 2.369344 1_555
La3 O3 2.446533 1_455
La3 O21 2.494250 1_555
La3 O1 2.615845 1_555
La3 O18 2.762381 1_555
La3 O18 2.773321 1_455
La3 O22 2.776419 1_565
La3 O22 2.801948 1_555
La3 O12 2.908335 1_455
La3 O9 3.041414 1_455
La3 O3 3.141954 1_545
La3 O0 3.237588 1_555
La4 O24 2.333294 1_555
La4 O2 2.494133 1_455
La4 O27 2.565100 1_455
La4 O25 2.656953 1_555
La4 O5 2.725127 1_545
La4 O15 2.788986 1_455
La4 O5 2.796180 1_555
La4 O15 2.826596 1_555
La4 O14 2.861765 1_455
La4 O10 3.091236 1_555
La4 O2 3.147568 1_545
La4 O7 3.321452 1_455
La5 O16 2.401389 1_455
La5 O26 2.426354 1_555
La5 O8 2.450990 1_455
La5 O28 2.707683 1_555
La5 O11 2.773064 1_455
La5 O6 2.776292 1_545
La5 O11 2.778026 1_555
La5 O6 2.793304 1_555
La5 O17 2.833391 1_555
La6 O15 2.361440 1_555
La6 O10 2.458306 1_645
La6 O2 2.494157 1_545
La6 O20 2.583972 1_555
La7 O6 2.418489 1_645
La7 O0 2.418489 1_644
La7 O17 2.423286 1_555
La7 O26 2.768198 1_555
La7 O12 2.768198 1_554
La7 O8 2.777901 1_555
La7 O29 2.777901 1_554
La7 O29 2.782292 1_654
La7 O8 2.782292 1_545
La8 O23 2.361440 1_555
La8 O1 2.458306 1_645
La8 O19 2.494157 1_655
La8 O18 2.583972 1_555
Mn0 O5 1.911453 1_555
Mn0 O2 1.930604 1_555
Mn0 O15 1.958371 1_555
Mn0 O25 2.004722 1_565
Mn0 O10 2.025815 1_555
Mn0 O7 2.086934 1_555
Mn1 O26 1.980070 1_565
Mn1 O17 1.990892 1_555
Mn1 O6 1.992874 1_555
Mn1 O8 1.993966 1_555
Mn1 O11 2.005484 1_555
Mn1 O29 2.014360 1_564
Mn2 O1 1.966642 1_555
Mn2 O9 1.973409 1_555
Mn2 O13 1.976617 1_565
Mn2 O18 1.985159 1_555
Mn2 O3 1.998925 1_555
Mn2 O22 2.044999 1_565
Mn3 O4 1.911453 1_555
Mn3 O19 1.930604 1_555
Mn3 O23 1.958371 1_555
Mn3 O9 2.004722 1_455
Mn3 O1 2.025815 1_555
Mn3 O13 2.086934 1_555
Mn4 O10 1.966642 1_555
Mn4 O25 1.973409 1_555
Mn4 O7 1.976617 1_455
Mn4 O20 1.985159 1_555
Mn4 O28 1.998925 1_555
Mn4 O16 2.044999 1_455
Mn5 O12 1.980066 1_455
Mn5 O17 1.990896 1_556
Mn5 O0 1.992874 1_555
Mn5 O29 1.993966 1_555
Mn5 O21 2.005488 1_555
Mn5 O8 2.014357 1_456
Mn6 O28 1.983385 1_655
Mn6 O16 1.983819 1_545
Mn6 O20 1.990671 1_555
Mn6 O11 1.994697 1_555
Mn6 O26 1.999190 1_555
Mn6 O6 2.024239 1_645
Mn7 O3 1.983385 1_545
Mn7 O22 1.983819 1_655
Mn7 O18 1.990671 1_555
Mn7 O21 1.994697 1_555
Mn7 O12 1.999190 1_555
Mn7 O0 2.024239 1_645
Mn8 O24 1.923989 1_555
Mn8 O27 1.951298 1_455
Mn8 O4 1.979327 1_545
Mn8 O14 1.984066 1_455
Mn8 O19 2.024845 1_555
Mn8 O23 2.046478 1_455
Mn9 O14 1.923989 1_555
Mn9 O27 1.951298 1_565
Mn9 O5 1.979327 1_655
Mn9 O24 1.984066 1_565
Mn9 O2 2.024845 1_555
Mn9 O15 2.046478 1_565
