# generated using pymatgen
data_Li32Ti3Cr13O48
_symmetry_space_group_name_H-M   'P 1'
_cell_length_a   5.06137800
_cell_length_b   8.73376106
_cell_length_c   19.55836626
_cell_angle_alpha   98.25294139
_cell_angle_beta   94.97986868
_cell_angle_gamma   89.90477116
_symmetry_Int_Tables_number   1
_chemical_formula_structural   Li32Ti3Cr13O48
_chemical_formula_sum   'Li32 Ti3 Cr13 O48'
_cell_volume   852.34056251
_cell_formula_units_Z   1
loop_
 _symmetry_equiv_pos_site_id
 _symmetry_equiv_pos_as_xyz
  1  'x, y, z'
loop_
 _atom_site_type_symbol
 _atom_site_label
 _atom_site_symmetry_multiplicity
 _atom_site_fract_x
 _atom_site_fract_y
 _atom_site_fract_z
 _atom_site_occupancy
  Li  Li0  1  0.98428900  0.16839900  0.24938800  1
  Li  Li1  1  0.87414200  0.37413300  0.37482900  1
  Li  Li2  1  0.74974400  0.25212100  0.00060800  1
  Li  Li3  1  0.74292200  0.92113500  0.00069900  1
  Li  Li4  1  0.99134500  0.16933000  0.74991900  1
  Li  Li5  1  0.75218700  0.57732100  0.50015400  1
  Li  Li6  1  0.87241000  0.37539600  0.87607400  1
  Li  Li7  1  0.74981800  0.24989400  0.49983600  1
  Li  Li8  1  0.74737600  0.92268800  0.49944800  1
  Li  Li9  1  0.62677200  0.12540600  0.12479800  1
  Li  Li10  1  0.75770000  0.57860000  0.99998100  1
  Li  Li11  1  0.51034500  0.33114200  0.24973600  1
  Li  Li12  1  0.62620200  0.12633500  0.62524200  1
  Li  Li13  1  0.50176800  0.00014400  0.24971400  1
  Li  Li14  1  0.49396300  0.66965900  0.24929600  1
  Li  Li15  1  0.51663900  0.33421200  0.75073400  1
  Li  Li16  1  0.37273800  0.87537100  0.37558800  1
  Li  Li17  1  0.50009700  0.00015700  0.75014100  1
  Li  Li18  1  0.25531300  0.74900000  0.99930700  1
  Li  Li19  1  0.48290600  0.66567100  0.74932100  1
  Li  Li20  1  0.24361800  0.42014200  0.99975200  1
  Li  Li21  1  0.37397100  0.87399100  0.87490100  1
  Li  Li22  1  0.25545300  0.07858300  0.49909200  1
  Li  Li23  1  0.25004800  0.74959900  0.49985800  1
  Li  Li24  1  0.12319400  0.62422200  0.12504600  1
  Li  Li25  1  0.24474300  0.42177200  0.50069500  1
  Li  Li26  1  0.00968100  0.83232500  0.25049300  1
  Li  Li27  1  0.25304000  0.07792900  0.00020400  1
  Li  Li28  1  0.12748500  0.62436600  0.62391600  1
  Li  Li29  1  0.00118300  0.49803600  0.25013800  1
  Li  Li30  1  0.00864400  0.83070400  0.75043100  1
  Li  Li31  1  0.00002500  0.50029000  0.75001400  1
  Ti  Ti0  1  0.86831900  0.71120100  0.87306100  1
  Ti  Ti1  1  0.36913800  0.21142600  0.37298000  1
  Ti  Ti2  1  0.13128400  0.28857000  0.62712900  1
  Cr  Cr0  1  0.87943500  0.70326400  0.37595900  1
  Cr  Cr1  1  0.86938900  0.03808400  0.37436700  1
  Cr  Cr2  1  0.88020300  0.04770700  0.87602300  1
  Cr  Cr3  1  0.62921300  0.79666700  0.12583700  1
  Cr  Cr4  1  0.62010900  0.46139200  0.12536600  1
  Cr  Cr5  1  0.62055400  0.79708400  0.62378800  1
  Cr  Cr6  1  0.63091700  0.46188800  0.62511400  1
  Cr  Cr7  1  0.37973300  0.54795300  0.37523900  1
  Cr  Cr8  1  0.36884300  0.53784400  0.87509600  1
  Cr  Cr9  1  0.38034200  0.20283900  0.87652400  1
  Cr  Cr10  1  0.12267600  0.95286500  0.12428400  1
  Cr  Cr11  1  0.12971500  0.28843400  0.12454200  1
  Cr  Cr12  1  0.12044100  0.95222500  0.62443400  1
  O  O0  1  0.96404000  0.10095600  0.06846000  1
  O  O1  1  0.93388700  0.78686800  0.06871900  1
  O  O2  1  0.92591100  0.42727900  0.06862600  1
  O  O3  1  0.96548100  0.10377200  0.56895400  1
  O  O4  1  0.81638200  0.96368800  0.18130800  1
  O  O5  1  0.82407700  0.32327900  0.18138800  1
  O  O6  1  0.93541600  0.78784700  0.56856600  1
  O  O7  1  0.91942000  0.42896400  0.56761400  1
  O  O8  1  0.78531000  0.64945100  0.18170200  1
  O  O9  1  0.71563900  0.85884400  0.31983200  1
  O  O10  1  0.81381300  0.95887400  0.68130800  1
  O  O11  1  0.82726900  0.32101500  0.68407400  1
  O  O12  1  0.68707600  0.54108800  0.31867500  1
  O  O13  1  0.67281700  0.17877000  0.31579900  1
  O  O14  1  0.78217500  0.64118600  0.67988800  1
  O  O15  1  0.71231800  0.86040000  0.81847600  1
  O  O16  1  0.46876100  0.60435100  0.06942400  1
  O  O17  1  0.56480100  0.71228200  0.43123900  1
  O  O18  1  0.58015700  0.07080900  0.43210400  1
  O  O19  1  0.67414300  0.53301700  0.81906800  1
  O  O20  1  0.68676000  0.17439300  0.81826500  1
  O  O21  1  0.43307000  0.92233900  0.06777500  1
  O  O22  1  0.41622700  0.28330700  0.06876000  1
  O  O23  1  0.53489500  0.39623400  0.43098100  1
  O  O24  1  0.46202900  0.61177500  0.56856800  1
  O  O25  1  0.56821800  0.71234400  0.93117100  1
  O  O26  1  0.56644900  0.07419100  0.93308100  1
  O  O27  1  0.31768000  0.82719500  0.18224300  1
  O  O28  1  0.33355700  0.46666100  0.18132200  1
  O  O29  1  0.43383600  0.92549000  0.56728800  1
  O  O30  1  0.43194100  0.28738700  0.56906900  1
  O  O31  1  0.53713400  0.38794300  0.93167800  1
  O  O32  1  0.28053800  0.14508500  0.18062600  1
  O  O33  1  0.21309000  0.36050500  0.31813800  1
  O  O34  1  0.31334700  0.82553500  0.68207700  1
  O  O35  1  0.32576200  0.46712000  0.68113600  1
  O  O36  1  0.18667300  0.67461300  0.31761200  1
  O  O37  1  0.17354800  0.03272000  0.31854500  1
  O  O38  1  0.28772800  0.13976300  0.68187100  1
  O  O39  1  0.21771900  0.35891100  0.82029800  1
  O  O40  1  0.06631800  0.57469900  0.43246400  1
  O  O41  1  0.06816100  0.21260400  0.43078800  1
  O  O42  1  0.17260700  0.67910600  0.81620500  1
  O  O43  1  0.18609200  0.04128800  0.81896600  1
  O  O44  1  0.03760900  0.88851100  0.43111100  1
  O  O45  1  0.08081400  0.57124300  0.93270700  1
  O  O46  1  0.06434000  0.21255900  0.93156500  1
  O  O47  1  0.03489400  0.89622200  0.93137100  1
loop_
_geom_bond_atom_site_label_1
_geom_bond_atom_site_label_2
_geom_bond_distance
_geom_bond_site_symmetry_2
Li0 O32 2.090189 1_655
Li0 O37 2.093500 1_655
Li0 O13 2.121757 1_555
Li0 O5 2.140495 1_555
Li0 O4 2.194750 1_545
Li0 O33 2.247800 1_655
Li1 O41 2.098688 1_655
Li1 O23 2.111186 1_555
Li1 O33 2.116207 1_655
Li1 O12 2.122144 1_555
Li1 O13 2.125691 1_555
Li1 O40 2.129236 1_655
Li2 O2 2.029628 1_555
Li2 O26 2.054930 1_554
Li2 O31 2.141422 1_554
Li2 O46 2.171585 1_654
Li2 O0 2.220118 1_555
Li2 O22 2.232786 1_555
Li3 O1 2.073658 1_555
Li3 O47 2.081314 1_654
Li3 O21 2.129285 1_555
Li3 O0 2.150870 1_565
Li3 O26 2.152253 1_564
Li3 O25 2.245230 1_554
Li4 O43 2.060255 1_655
Li4 O38 2.082061 1_655
Li4 O11 2.098485 1_555
Li4 O20 2.122730 1_555
Li4 O39 2.242149 1_655
Li4 O10 2.252709 1_545
Li5 O24 2.064425 1_555
Li5 O17 2.082328 1_555
Li5 O7 2.104619 1_555
Li5 O40 2.153546 1_655
Li5 O23 2.162050 1_555
Li5 O6 2.261653 1_555
Li6 O31 2.088049 1_555
Li6 O19 2.094520 1_555
Li6 O46 2.097538 1_655
Li6 O20 2.119984 1_555
Li6 O45 2.127086 1_655
Li6 O39 2.133175 1_655
Li7 O18 2.037350 1_555
Li7 O7 2.037605 1_555
Li7 O41 2.185343 1_655
Li7 O30 2.185977 1_555
Li7 O23 2.205815 1_555
Li7 O3 2.209545 1_555
Li8 O44 2.063556 1_655
Li8 O6 2.085696 1_555
Li8 O18 2.101598 1_565
Li8 O29 2.153045 1_555
Li8 O3 2.167019 1_565
Li8 O17 2.257955 1_555
Li9 O4 2.096893 1_545
Li9 O0 2.105117 1_555
Li9 O22 2.113042 1_555
Li9 O5 2.115089 1_555
Li9 O32 2.137779 1_555
Li9 O21 2.144425 1_545
Li10 O16 2.071235 1_556
Li10 O25 2.078197 1_555
Li10 O2 2.140378 1_556
Li10 O45 2.181485 1_655
Li10 O31 2.216365 1_555
Li10 O1 2.237514 1_556
Li11 O28 2.057970 1_555
Li11 O33 2.090169 1_555
Li11 O13 2.102909 1_555
Li11 O5 2.157537 1_555
Li11 O32 2.218838 1_555
Li11 O12 2.250907 1_555
Li12 O30 2.098519 1_555
Li12 O3 2.112927 1_555
Li12 O38 2.113478 1_555
Li12 O11 2.119302 1_555
Li12 O10 2.125619 1_545
Li12 O29 2.133778 1_545
Li13 O13 2.021207 1_555
Li13 O27 2.027340 1_545
Li13 O4 2.161700 1_545
Li13 O9 2.190694 1_545
Li13 O32 2.214902 1_555
Li13 O37 2.220300 1_555
Li14 O8 2.055239 1_555
Li14 O12 2.064240 1_555
Li14 O36 2.133102 1_555
Li14 O28 2.170398 1_555
Li14 O27 2.172514 1_555
Li14 O9 2.230512 1_555
Li15 O35 2.086933 1_555
Li15 O39 2.111561 1_555
Li15 O11 2.120628 1_555
Li15 O19 2.142417 1_555
Li15 O20 2.182213 1_555
Li15 O38 2.262622 1_555
Li16 O44 2.086371 1_555
Li16 O37 2.095226 1_565
Li16 O17 2.101271 1_555
Li16 O36 2.120444 1_555
Li16 O18 2.121397 1_565
Li16 O9 2.122431 1_555
Li17 O20 2.046387 1_555
Li17 O34 2.048171 1_545
Li17 O38 2.153782 1_555
Li17 O15 2.155149 1_545
Li17 O10 2.166449 1_545
Li17 O43 2.167396 1_555
Li18 O21 2.026807 1_556
Li18 O45 2.027626 1_555
Li18 O25 2.151474 1_555
Li18 O1 2.202689 1_456
Li18 O16 2.208944 1_556
Li18 O47 2.211730 1_555
Li19 O19 2.088251 1_555
Li19 O14 2.111139 1_555
Li19 O42 2.122170 1_555
Li19 O35 2.138851 1_555
Li19 O34 2.177812 1_555
Li19 O15 2.267954 1_555
Li20 O22 2.065915 1_556
Li20 O31 2.072019 1_555
Li20 O45 2.108466 1_555
Li20 O2 2.180795 1_456
Li20 O16 2.202474 1_556
Li20 O46 2.233846 1_555
Li21 O25 2.103460 1_555
Li21 O15 2.110561 1_555
Li21 O47 2.114064 1_555
Li21 O42 2.120230 1_555
Li21 O43 2.123599 1_565
Li21 O26 2.131469 1_565
Li22 O41 2.068513 1_555
Li22 O3 2.080917 1_455
Li22 O29 2.163533 1_545
Li22 O18 2.184035 1_555
Li22 O44 2.203904 1_545
Li22 O30 2.252421 1_555
Li23 O40 2.037016 1_555
Li23 O29 2.043188 1_555
Li23 O24 2.148448 1_555
Li23 O44 2.156135 1_555
Li23 O17 2.165455 1_555
Li23 O6 2.166629 1_455
Li24 O1 2.100253 1_455
Li24 O2 2.107799 1_455
Li24 O8 2.111570 1_455
Li24 O28 2.113117 1_555
Li24 O16 2.132576 1_555
Li24 O27 2.146683 1_555
Li25 O30 2.071355 1_555
Li25 O23 2.079614 1_555
Li25 O40 2.163045 1_555
Li25 O7 2.185957 1_455
Li25 O24 2.201280 1_555
Li25 O41 2.254261 1_555
Li26 O4 2.077641 1_455
Li26 O9 2.089689 1_455
Li26 O27 2.134921 1_555
Li26 O37 2.160331 1_565
Li26 O36 2.175754 1_555
Li26 O8 2.185103 1_455
Li27 O0 2.055035 1_455
Li27 O46 2.079376 1_554
Li27 O26 2.142407 1_554
Li27 O47 2.164353 1_544
Li27 O21 2.173894 1_545
Li27 O22 2.195377 1_555
Li28 O24 2.081940 1_555
Li28 O35 2.094597 1_555
Li28 O6 2.100480 1_455
Li28 O7 2.121131 1_455
Li28 O34 2.124097 1_555
Li28 O14 2.135358 1_455
Li29 O5 2.036475 1_455
Li29 O36 2.051032 1_555
Li29 O33 2.137440 1_555
Li29 O12 2.165422 1_455
Li29 O8 2.232406 1_455
Li29 O28 2.236588 1_555
Li30 O10 2.062173 1_455
Li30 O15 2.081833 1_455
Li30 O42 2.096813 1_555
Li30 O34 2.123239 1_555
Li30 O14 2.243500 1_455
Li30 O43 2.252720 1_565
Li31 O42 2.026268 1_555
Li31 O11 2.026927 1_455
Li31 O14 2.197420 1_455
Li31 O39 2.201849 1_555
Li31 O35 2.211067 1_555
Li31 O19 2.213750 1_455
Cr0 O40 1.883637 1_655
Cr0 O12 1.889176 1_555
Cr0 O44 1.943051 1_655
Cr0 O17 1.996302 1_555
Cr0 O9 2.001293 1_555
Cr0 O36 2.001968 1_655
Cr1 O9 1.890618 1_545
Cr1 O18 1.921683 1_555
Cr1 O37 1.959852 1_655
Cr1 O41 1.970429 1_655
Cr1 O44 1.977778 1_645
Cr1 O13 2.003479 1_555
Cr2 O46 1.871178 1_655
Cr2 O20 1.903197 1_555
Cr2 O47 1.948294 1_645
Cr2 O43 1.981706 1_655
Cr2 O15 1.993736 1_545
Cr2 O26 2.013218 1_555
Cr3 O4 1.890550 1_555
Cr3 O21 1.907441 1_555
Cr3 O8 1.929056 1_555
Cr3 O1 1.975978 1_555
Cr3 O27 1.997642 1_555
Cr3 O16 2.003753 1_555
Cr4 O28 1.887921 1_555
Cr4 O16 1.893768 1_555
Cr4 O5 1.974909 1_555
Cr4 O2 1.979308 1_555
Cr4 O8 1.983920 1_555
Cr4 O22 2.005577 1_555
Cr5 O29 1.882256 1_555
Cr5 O10 1.891099 1_555
Cr5 O24 1.944640 1_555
Cr5 O6 1.996516 1_555
Cr5 O14 1.999080 1_555
Cr5 O34 2.001063 1_555
Cr6 O14 1.888369 1_555
Cr6 O7 1.915866 1_555
Cr6 O35 1.966554 1_555
Cr6 O30 1.967829 1_555
Cr6 O24 1.978708 1_555
Cr6 O11 2.008854 1_555
Cr7 O17 1.874011 1_555
Cr7 O36 1.900531 1_555
Cr7 O23 1.955453 1_555
Cr7 O12 1.981601 1_555
Cr7 O33 1.988715 1_555
Cr7 O40 2.013844 1_555
Cr8 O39 1.885936 1_555
Cr8 O45 1.915561 1_555
Cr8 O19 1.967447 1_555
Cr8 O25 1.968998 1_555
Cr8 O31 1.978080 1_555
Cr8 O42 2.010119 1_555
Cr9 O26 1.883006 1_555
Cr9 O43 1.892394 1_555
Cr9 O31 1.939581 1_555
Cr9 O20 1.997399 1_555
Cr9 O46 1.999104 1_555
Cr9 O39 2.003571 1_555
Cr10 O1 1.888901 1_455
Cr10 O27 1.903462 1_555
Cr10 O0 1.938914 1_465
Cr10 O4 1.981308 1_455
Cr10 O21 1.994033 1_555
Cr10 O32 1.997896 1_565
Cr11 O22 1.885643 1_555
Cr11 O32 1.897130 1_555
Cr11 O2 1.977695 1_455
Cr11 O0 1.979039 1_455
Cr11 O5 1.980327 1_455
Cr11 O28 2.007697 1_555
Cr12 O6 1.873094 1_455
Cr12 O34 1.900543 1_555
Cr12 O3 1.950781 1_465
Cr12 O10 1.982466 1_455
Cr12 O38 1.993206 1_565
Cr12 O29 2.012818 1_555
O3 Ti2 1.978714 1_655
O7 Ti2 2.048653 1_655
O11 Ti2 1.973302 1_655
O13 Ti1 1.974833 1_555
O15 Ti0 1.926342 1_555
O18 Ti1 2.043308 1_555
O19 Ti0 1.963664 1_555
O23 Ti1 1.977260 1_555
O25 Ti0 1.973663 1_555
O30 Ti2 1.975316 1_555
O33 Ti1 1.928736 1_555
O35 Ti2 1.966754 1_555
O37 Ti1 1.973483 1_555
O38 Ti2 1.926461 1_555
O41 Ti1 1.973494 1_555
O42 Ti0 1.973198 1_455
O45 Ti0 2.049144 1_455
O47 Ti0 1.982725 1_455
