# generated using pymatgen
data_H15RhBr3N5
_symmetry_space_group_name_H-M   'P 1'
_cell_length_a   6.88199570
_cell_length_b   10.93630921
_cell_length_c   13.90945291
_cell_angle_alpha   90.00000000
_cell_angle_beta   90.00000000
_cell_angle_gamma   90.00000000
_symmetry_Int_Tables_number   1
_chemical_formula_structural   H15RhBr3N5
_chemical_formula_sum   'H60 Rh4 Br12 N20'
_cell_volume   1046.87595845
_cell_formula_units_Z   4
loop_
 _symmetry_equiv_pos_site_id
 _symmetry_equiv_pos_as_xyz
  1  'x, y, z'
loop_
 _atom_site_type_symbol
 _atom_site_label
 _atom_site_symmetry_multiplicity
 _atom_site_fract_x
 _atom_site_fract_y
 _atom_site_fract_z
 _atom_site_occupancy
  H  H0  1  0.06621673  0.02315221  0.12406475  1
  H  H1  1  0.43378327  0.47684779  0.62406475  1
  H  H2  1  0.93378327  0.52315221  0.87593525  1
  H  H3  1  0.56621673  0.97684779  0.37593525  1
  H  H4  1  0.93378327  0.97684779  0.87593525  1
  H  H5  1  0.56621673  0.52315221  0.37593525  1
  H  H6  1  0.06621673  0.47684779  0.12406475  1
  H  H7  1  0.43378327  0.02315221  0.62406475  1
  H  H8  1  0.19717037  0.02935758  0.02529164  1
  H  H9  1  0.30282963  0.47064242  0.52529164  1
  H  H10  1  0.80282963  0.52935758  0.97470836  1
  H  H11  1  0.69717037  0.97064242  0.47470836  1
  H  H12  1  0.80282963  0.97064242  0.97470836  1
  H  H13  1  0.69717037  0.52935758  0.47470836  1
  H  H14  1  0.19717037  0.47064242  0.02529164  1
  H  H15  1  0.30282963  0.02935758  0.52529164  1
  H  H16  1  0.30552821  0.02314829  0.13037805  1
  H  H17  1  0.19447179  0.47685171  0.63037805  1
  H  H18  1  0.69447179  0.52314829  0.86962195  1
  H  H19  1  0.80552821  0.97685171  0.36962195  1
  H  H20  1  0.69447179  0.97685171  0.86962195  1
  H  H21  1  0.80552821  0.52314829  0.36962195  1
  H  H22  1  0.30552821  0.47685171  0.13037805  1
  H  H23  1  0.19447179  0.02314829  0.63037805  1
  H  H24  1  0.01188154  0.25000000  0.26572618  1
  H  H25  1  0.48811846  0.25000000  0.76572618  1
  H  H26  1  0.98811846  0.75000000  0.73427382  1
  H  H27  1  0.51188154  0.75000000  0.23427382  1
  H  H28  1  0.87787254  0.17427528  0.18763569  1
  H  H29  1  0.62212746  0.32572472  0.68763569  1
  H  H30  1  0.12212746  0.67427528  0.81236431  1
  H  H31  1  0.37787254  0.82572472  0.31236431  1
  H  H32  1  0.12212746  0.82572472  0.81236431  1
  H  H33  1  0.37787254  0.67427528  0.31236431  1
  H  H34  1  0.87787254  0.32572472  0.18763569  1
  H  H35  1  0.62212746  0.17427528  0.68763569  1
  H  H36  1  0.55268522  0.25000000  0.02608854  1
  H  H37  1  0.94731478  0.25000000  0.52608854  1
  H  H38  1  0.44731478  0.75000000  0.97391146  1
  H  H39  1  0.05268522  0.75000000  0.47391146  1
  H  H40  1  0.40483394  0.32526458  0.95425461  1
  H  H41  1  0.09516606  0.17473542  0.45425461  1
  H  H42  1  0.59516606  0.82526458  0.04574539  1
  H  H43  1  0.90483394  0.67473542  0.54574539  1
  H  H44  1  0.59516606  0.67473542  0.04574539  1
  H  H45  1  0.90483394  0.82526458  0.54574539  1
  H  H46  1  0.40483394  0.17473542  0.95425461  1
  H  H47  1  0.09516606  0.32526458  0.45425461  1
  H  H48  1  0.33857279  0.25000000  0.27453847  1
  H  H49  1  0.16142721  0.25000000  0.77453847  1
  H  H50  1  0.66142721  0.75000000  0.72546153  1
  H  H51  1  0.83857279  0.75000000  0.22546153  1
  H  H52  1  0.48209571  0.32600314  0.20164753  1
  H  H53  1  0.01790429  0.17399686  0.70164753  1
  H  H54  1  0.51790429  0.82600314  0.79835247  1
  H  H55  1  0.98209571  0.67399686  0.29835247  1
  H  H56  1  0.51790429  0.67399686  0.79835247  1
  H  H57  1  0.98209571  0.82600314  0.29835247  1
  H  H58  1  0.48209571  0.17399686  0.20164753  1
  H  H59  1  0.01790429  0.32600314  0.70164753  1
  Rh  Rh0  1  0.18991843  0.25000000  0.09765110  1
  Rh  Rh1  1  0.31008157  0.25000000  0.59765110  1
  Rh  Rh2  1  0.81008157  0.75000000  0.90234890  1
  Rh  Rh3  1  0.68991843  0.75000000  0.40234890  1
  Br  Br0  1  0.94291521  0.25000000  0.96470449  1
  Br  Br1  1  0.55708479  0.25000000  0.46470449  1
  Br  Br2  1  0.05708479  0.75000000  0.03529551  1
  Br  Br3  1  0.44291521  0.75000000  0.53529551  1
  Br  Br4  1  0.82666217  0.50659684  0.65450326  1
  Br  Br5  1  0.67333783  0.99340316  0.15450326  1
  Br  Br6  1  0.17333783  0.00659684  0.34549674  1
  Br  Br7  1  0.32666217  0.49340316  0.84549674  1
  Br  Br8  1  0.17333783  0.49340316  0.34549674  1
  Br  Br9  1  0.32666217  0.00659684  0.84549674  1
  Br  Br10  1  0.82666217  0.99340316  0.65450326  1
  Br  Br11  1  0.67333783  0.50659684  0.15450326  1
  N  N0  1  0.39503754  0.25000000  0.20674066  1
  N  N1  1  0.10496246  0.25000000  0.70674066  1
  N  N2  1  0.60496246  0.75000000  0.79325934  1
  N  N3  1  0.89503754  0.75000000  0.29325934  1
  N  N4  1  0.96398970  0.25000000  0.19647333  1
  N  N5  1  0.53601030  0.25000000  0.69647333  1
  N  N6  1  0.03601030  0.75000000  0.80352667  1
  N  N7  1  0.46398970  0.75000000  0.30352667  1
  N  N8  1  0.41556562  0.25000000  0.99798863  1
  N  N9  1  0.08443438  0.25000000  0.49798863  1
  N  N10  1  0.58443438  0.75000000  0.00201137  1
  N  N11  1  0.91556562  0.75000000  0.50201137  1
  N  N12  1  0.18927371  0.05982891  0.09477416  1
  N  N13  1  0.31072629  0.44017109  0.59477416  1
  N  N14  1  0.81072629  0.55982891  0.90522584  1
  N  N15  1  0.68927371  0.94017109  0.40522584  1
  N  N16  1  0.81072629  0.94017109  0.90522584  1
  N  N17  1  0.68927371  0.55982891  0.40522584  1
  N  N18  1  0.18927371  0.44017109  0.09477416  1
  N  N19  1  0.31072629  0.05982891  0.59477416  1
loop_
_geom_bond_atom_site_label_1
_geom_bond_atom_site_label_2
_geom_bond_distance
_geom_bond_site_symmetry_2
H0 N12 1.021801 1_555
H1 N13 1.021801 1_555
H2 N14 1.021801 1_555
H3 N15 1.021801 1_555
H4 N16 1.021801 1_555
H5 N17 1.021801 1_555
H6 N18 1.021801 1_555
H7 N19 1.021801 1_555
H8 N12 1.023747 1_555
H9 N13 1.023747 1_555
H10 N14 1.023747 1_555
H11 N15 1.023747 1_555
H12 N16 1.023747 1_555
H13 N17 1.023747 1_555
H14 N18 1.023747 1_555
H15 N19 1.023747 1_555
H16 N12 1.022876 1_555
H17 N13 1.022876 1_555
H18 N14 1.022876 1_555
H19 N15 1.022876 1_555
H20 N16 1.022876 1_555
H21 N17 1.022876 1_555
H22 N18 1.022876 1_555
H23 N19 1.022876 1_555
H24 N4 1.018095 1_455
H25 N5 1.018095 1_555
H26 N6 1.018095 1_655
H27 N7 1.018095 1_555
H28 N4 1.025761 1_555
H29 N5 1.025761 1_555
H30 N6 1.025761 1_555
H31 N7 1.025761 1_555
H32 N6 1.025761 1_555
H33 N7 1.025761 1_555
H34 N4 1.025761 1_555
H35 N5 1.025761 1_555
H36 N8 1.021398 1_554
H37 N9 1.021398 1_655
H38 N10 1.021398 1_556
H39 N11 1.021398 1_455
H40 N8 1.026170 1_555
H41 N9 1.026170 1_555
H42 N10 1.026170 1_555
H43 N11 1.026170 1_555
H44 N10 1.026170 1_555
H45 N11 1.026170 1_555
H46 N8 1.026170 1_555
H47 N9 1.026170 1_555
H48 N0 1.019955 1_555
H49 N1 1.019955 1_555
H50 N2 1.019955 1_555
H51 N3 1.019955 1_555
H52 N0 1.027065 1_555
H53 N1 1.027065 1_555
H54 N2 1.027065 1_555
H55 N3 1.027065 1_555
H56 N2 1.027065 1_555
H57 N3 1.027065 1_555
H58 N0 1.027065 1_555
H59 N1 1.027065 1_555
Br0 Rh0 2.511806 1_656
Br1 Rh1 2.511806 1_555
Br2 Rh2 2.511806 1_454
Br3 Rh3 2.511806 1_555
N0 Rh0 2.072469 1_555
N1 Rh1 2.072469 1_555
N2 Rh2 2.072469 1_555
N3 Rh3 2.072469 1_555
N4 Rh0 2.075320 1_655
N5 Rh1 2.075320 1_555
N6 Rh2 2.075320 1_455
N7 Rh3 2.075320 1_555
N8 Rh0 2.081633 1_556
N9 Rh1 2.081633 1_555
N10 Rh2 2.081633 1_554
N11 Rh3 2.081633 1_555
N12 Rh0 2.080160 1_555
N13 Rh1 2.080160 1_555
N14 Rh2 2.080160 1_555
N15 Rh3 2.080160 1_555
N16 Rh2 2.080160 1_555
N17 Rh3 2.080160 1_555
N18 Rh0 2.080160 1_555
N19 Rh1 2.080160 1_555
