# generated using pymatgen
data_Ba6YBr15
_symmetry_space_group_name_H-M   'P 1'
_cell_length_a   12.35180700
_cell_length_b   16.61459800
_cell_length_c   23.56931529
_cell_angle_alpha   74.55791439
_cell_angle_beta   90.00000000
_cell_angle_gamma   90.00000000
_symmetry_Int_Tables_number   1
_chemical_formula_structural   Ba6YBr15
_chemical_formula_sum   'Ba24 Y4 Br60'
_cell_volume   4662.29038183
_cell_formula_units_Z   4
loop_
 _symmetry_equiv_pos_site_id
 _symmetry_equiv_pos_as_xyz
  1  'x, y, z'
loop_
 _atom_site_type_symbol
 _atom_site_label
 _atom_site_symmetry_multiplicity
 _atom_site_fract_x
 _atom_site_fract_y
 _atom_site_fract_z
 _atom_site_occupancy
  Ba  Ba0  1  0.62722200  0.24823100  0.88382500  1
  Ba  Ba1  1  0.12266100  0.24317300  0.88058800  1
  Ba  Ba2  1  0.87204500  0.60595000  0.94297700  1
  Ba  Ba3  1  0.37286000  0.60855500  0.96236700  1
  Ba  Ba4  1  0.38130300  0.99043600  0.90972800  1
  Ba  Ba5  1  0.86823700  0.98078900  0.91619600  1
  Ba  Ba6  1  0.36823700  0.51921100  0.58380400  1
  Ba  Ba7  1  0.88130300  0.50956400  0.59027200  1
  Ba  Ba8  1  0.87286000  0.89144500  0.53763300  1
  Ba  Ba9  1  0.37204500  0.89405000  0.55702300  1
  Ba  Ba10  1  0.62266100  0.25682700  0.61941200  1
  Ba  Ba11  1  0.12722200  0.25176900  0.61617500  1
  Ba  Ba12  1  0.87277800  0.74823100  0.38382500  1
  Ba  Ba13  1  0.37733900  0.74317300  0.38058800  1
  Ba  Ba14  1  0.62795500  0.10595000  0.44297700  1
  Ba  Ba15  1  0.12714000  0.10855500  0.46236700  1
  Ba  Ba16  1  0.11869700  0.49043600  0.40972800  1
  Ba  Ba17  1  0.63176300  0.48078900  0.41619600  1
  Ba  Ba18  1  0.13176300  0.01921100  0.08380400  1
  Ba  Ba19  1  0.61869700  0.00956400  0.09027200  1
  Ba  Ba20  1  0.62714000  0.39144500  0.03763300  1
  Ba  Ba21  1  0.12795500  0.39405000  0.05702300  1
  Ba  Ba22  1  0.87733900  0.75682700  0.11941200  1
  Ba  Ba23  1  0.37277800  0.75176900  0.11617500  1
  Y  Y0  1  0.12737200  0.58710300  0.78041600  1
  Y  Y1  1  0.62737200  0.91289700  0.71958400  1
  Y  Y2  1  0.37262800  0.08710300  0.28041600  1
  Y  Y3  1  0.87262800  0.41289700  0.21958400  1
  Br  Br0  1  0.63157400  0.59428900  0.99996500  1
  Br  Br1  1  0.87520200  0.18196700  0.88419500  1
  Br  Br2  1  0.37436500  0.19043500  0.88582400  1
  Br  Br3  1  0.11418000  0.58909000  0.99320200  1
  Br  Br4  1  0.36897100  0.79618100  0.97221000  1
  Br  Br5  1  0.88273400  0.78270800  0.97670900  1
  Br  Br6  1  0.11667900  0.44518900  0.86974600  1
  Br  Br7  1  0.64129700  0.43243200  0.89575600  1
  Br  Br8  1  0.12689800  0.25979800  0.74710200  1
  Br  Br9  1  0.96959100  0.68262800  0.81435200  1
  Br  Br10  1  0.28394900  0.66838900  0.82692300  1
  Br  Br11  1  0.62540000  0.02822600  0.94460200  1
  Br  Br12  1  0.12453700  0.02875700  0.93619100  1
  Br  Br13  1  0.46910300  0.94173000  0.79601400  1
  Br  Br14  1  0.78166000  0.92529300  0.80291200  1
  Br  Br15  1  0.28166000  0.57470700  0.69708800  1
  Br  Br16  1  0.96910300  0.55827000  0.70398600  1
  Br  Br17  1  0.62453700  0.47124300  0.56380900  1
  Br  Br18  1  0.12540000  0.47177400  0.55539800  1
  Br  Br19  1  0.78394900  0.83161100  0.67307700  1
  Br  Br20  1  0.46959100  0.81737200  0.68564800  1
  Br  Br21  1  0.62689800  0.24020200  0.75289800  1
  Br  Br22  1  0.14129700  0.06756800  0.60424400  1
  Br  Br23  1  0.61667900  0.05481100  0.63025400  1
  Br  Br24  1  0.38273400  0.71729200  0.52329100  1
  Br  Br25  1  0.86897100  0.70381900  0.52779000  1
  Br  Br26  1  0.61418000  0.91091000  0.50679800  1
  Br  Br27  1  0.87436500  0.30956500  0.61417600  1
  Br  Br28  1  0.37520200  0.31803300  0.61580500  1
  Br  Br29  1  0.13157400  0.90571100  0.50003500  1
  Br  Br30  1  0.86842600  0.09428900  0.49996500  1
  Br  Br31  1  0.62479800  0.68196700  0.38419500  1
  Br  Br32  1  0.12563500  0.69043500  0.38582400  1
  Br  Br33  1  0.38582000  0.08909000  0.49320200  1
  Br  Br34  1  0.13102900  0.29618100  0.47221000  1
  Br  Br35  1  0.61726600  0.28270800  0.47670900  1
  Br  Br36  1  0.38332100  0.94518900  0.36974600  1
  Br  Br37  1  0.85870300  0.93243200  0.39575600  1
  Br  Br38  1  0.37310200  0.75979800  0.24710200  1
  Br  Br39  1  0.53040900  0.18262800  0.31435200  1
  Br  Br40  1  0.21605100  0.16838900  0.32692300  1
  Br  Br41  1  0.87460000  0.52822600  0.44460200  1
  Br  Br42  1  0.37546300  0.52875700  0.43619100  1
  Br  Br43  1  0.03089700  0.44173000  0.29601400  1
  Br  Br44  1  0.71834000  0.42529300  0.30291200  1
  Br  Br45  1  0.21834000  0.07470700  0.19708800  1
  Br  Br46  1  0.53089700  0.05827000  0.20398600  1
  Br  Br47  1  0.87546300  0.97124300  0.06380900  1
  Br  Br48  1  0.37460000  0.97177400  0.05539800  1
  Br  Br49  1  0.71605100  0.33161100  0.17307700  1
  Br  Br50  1  0.03040900  0.31737200  0.18564800  1
  Br  Br51  1  0.87310200  0.74020200  0.25289800  1
  Br  Br52  1  0.35870300  0.56756800  0.10424400  1
  Br  Br53  1  0.88332100  0.55481100  0.13025400  1
  Br  Br54  1  0.11726600  0.21729200  0.02329100  1
  Br  Br55  1  0.63102900  0.20381900  0.02779000  1
  Br  Br56  1  0.88582000  0.41091000  0.00679800  1
  Br  Br57  1  0.62563500  0.80956500  0.11417600  1
  Br  Br58  1  0.12479800  0.81803300  0.11580500  1
  Br  Br59  1  0.36842600  0.40571100  0.00003500  1
loop_
_geom_bond_atom_site_label_1
_geom_bond_atom_site_label_2
_geom_bond_distance
_geom_bond_site_symmetry_2
Ba0 Br21 3.124029 1_555
Ba0 Br7 3.151794 1_555
Ba0 Br1 3.254079 1_555
Ba0 Br2 3.264177 1_555
Ba0 Br55 3.275190 1_556
Ba0 Br11 3.553208 1_555
Ba1 Br8 3.084584 1_555
Ba1 Br1 3.215260 1_455
Ba1 Br2 3.223552 1_555
Ba1 Br54 3.275927 1_556
Ba1 Br6 3.298414 1_555
Ba1 Br12 3.452936 1_555
Ba2 Br56 3.193236 1_556
Ba2 Br9 3.195092 1_555
Ba2 Br3 3.201266 1_655
Ba2 Br5 3.243065 1_555
Ba2 Br0 3.244295 1_555
Ba3 Br4 3.187319 1_555
Ba3 Br52 3.234752 1_556
Ba3 Br59 3.248984 1_556
Ba3 Br10 3.270361 1_555
Ba3 Br3 3.273635 1_555
Ba3 Br0 3.307774 1_555
Ba4 Br4 3.174491 1_555
Ba4 Br13 3.188921 1_555
Ba4 Br2 3.220169 1_565
Ba4 Br11 3.230343 1_565
Ba4 Br12 3.326324 1_565
Ba4 Br48 3.365105 1_556
Ba5 Br11 3.216718 1_565
Ba5 Br5 3.224526 1_555
Ba5 Br1 3.225834 1_565
Ba5 Br14 3.230140 1_555
Ba5 Br12 3.328566 1_665
Ba5 Br47 3.441463 1_556
Ba6 Br18 3.216718 1_555
Ba6 Br24 3.224526 1_555
Ba6 Br28 3.225834 1_555
Ba6 Br15 3.230140 1_555
Ba6 Br17 3.328566 1_555
Ba6 Br42 3.441463 1_555
Ba7 Br25 3.174491 1_555
Ba7 Br16 3.188921 1_555
Ba7 Br27 3.220169 1_555
Ba7 Br18 3.230343 1_655
Ba7 Br17 3.326324 1_555
Ba7 Br41 3.365105 1_555
Ba8 Br25 3.187319 1_555
Ba8 Br37 3.234752 1_555
Ba8 Br30 3.248984 1_565
Ba8 Br19 3.270361 1_555
Ba8 Br26 3.273635 1_555
Ba8 Br29 3.307774 1_655
Ba9 Br33 3.193236 1_565
Ba9 Br20 3.195092 1_555
Ba9 Br26 3.201266 1_555
Ba9 Br24 3.243065 1_555
Ba9 Br29 3.244295 1_555
Ba10 Br21 3.084584 1_555
Ba10 Br28 3.215260 1_555
Ba10 Br27 3.223552 1_555
Ba10 Br35 3.275927 1_555
Ba10 Br23 3.298414 1_555
Ba10 Br17 3.452936 1_555
Ba11 Br8 3.124029 1_555
Ba11 Br22 3.151794 1_555
Ba11 Br28 3.254079 1_555
Ba11 Br27 3.264177 1_455
Ba11 Br34 3.275190 1_555
Ba11 Br18 3.553208 1_555
Ba12 Br51 3.124029 1_555
Ba12 Br37 3.151794 1_555
Ba12 Br31 3.254079 1_555
Ba12 Br32 3.264177 1_655
Ba12 Br25 3.275190 1_555
Ba12 Br41 3.553208 1_555
Ba13 Br38 3.084584 1_555
Ba13 Br31 3.215260 1_555
Ba13 Br32 3.223552 1_555
Ba13 Br24 3.275927 1_555
Ba13 Br36 3.298414 1_555
Ba13 Br42 3.452936 1_555
Ba14 Br26 3.193236 1_545
Ba14 Br39 3.195092 1_555
Ba14 Br33 3.201266 1_555
Ba14 Br35 3.243065 1_555
Ba14 Br30 3.244295 1_555
Ba15 Br34 3.187319 1_555
Ba15 Br22 3.234752 1_555
Ba15 Br29 3.248984 1_545
Ba15 Br40 3.270361 1_555
Ba15 Br33 3.273635 1_555
Ba15 Br30 3.307774 1_455
Ba16 Br34 3.174491 1_555
Ba16 Br43 3.188921 1_555
Ba16 Br32 3.220169 1_555
Ba16 Br41 3.230343 1_455
Ba16 Br42 3.326324 1_555
Ba16 Br18 3.365105 1_555
Ba17 Br41 3.216718 1_555
Ba17 Br35 3.224526 1_555
Ba17 Br31 3.225834 1_555
Ba17 Br44 3.230140 1_555
Ba17 Br42 3.328566 1_555
Ba17 Br17 3.441463 1_555
Ba18 Br48 3.216718 1_545
Ba18 Br54 3.224526 1_555
Ba18 Br58 3.225834 1_545
Ba18 Br45 3.230140 1_555
Ba18 Br47 3.328566 1_445
Ba18 Br12 3.441463 1_554
Ba19 Br55 3.174491 1_555
Ba19 Br46 3.188921 1_555
Ba19 Br57 3.220169 1_545
Ba19 Br48 3.230343 1_545
Ba19 Br47 3.326324 1_545
Ba19 Br11 3.365105 1_554
Ba20 Br55 3.187319 1_555
Ba20 Br7 3.234752 1_554
Ba20 Br0 3.248984 1_554
Ba20 Br49 3.270361 1_555
Ba20 Br56 3.273635 1_555
Ba20 Br59 3.307774 1_555
Ba21 Br3 3.193236 1_554
Ba21 Br50 3.195092 1_555
Ba21 Br56 3.201266 1_455
Ba21 Br54 3.243065 1_555
Ba21 Br59 3.244295 1_555
Ba22 Br51 3.084584 1_555
Ba22 Br58 3.215260 1_655
Ba22 Br57 3.223552 1_555
Ba22 Br5 3.275927 1_554
Ba22 Br53 3.298414 1_555
Ba22 Br47 3.452936 1_555
Ba23 Br38 3.124029 1_555
Ba23 Br52 3.151794 1_555
Ba23 Br58 3.254079 1_555
Ba23 Br57 3.264177 1_555
Ba23 Br4 3.275190 1_554
Ba23 Br48 3.553208 1_555
Br6 Y0 2.714064 1_555
Br9 Y0 2.762757 1_655
Br10 Y0 2.748489 1_555
Br13 Y1 2.784916 1_555
Br14 Y1 2.783322 1_555
Br15 Y0 2.783322 1_555
Br16 Y0 2.784916 1_655
Br19 Y1 2.748489 1_555
Br20 Y1 2.762757 1_555
Br23 Y1 2.714064 1_545
Br36 Y2 2.714064 1_565
Br39 Y2 2.762757 1_555
Br40 Y2 2.748489 1_555
Br43 Y3 2.784916 1_455
Br44 Y3 2.783322 1_555
Br45 Y2 2.783322 1_555
Br46 Y2 2.784916 1_555
Br49 Y3 2.748489 1_555
Br50 Y3 2.762757 1_455
Br53 Y3 2.714064 1_555
