# generated using pymatgen
data_Li5Mn6(BO3)6
_symmetry_space_group_name_H-M   'P 1'
_cell_length_a   9.03378669
_cell_length_b   7.92961606
_cell_length_c   6.21152033
_cell_angle_alpha   79.85398863
_cell_angle_beta   76.81713379
_cell_angle_gamma   113.63604495
_symmetry_Int_Tables_number   1
_chemical_formula_structural   Li5Mn6(BO3)6
_chemical_formula_sum   'Li5 Mn6 B6 O18'
_cell_volume   378.60808021
_cell_formula_units_Z   1
loop_
 _symmetry_equiv_pos_site_id
 _symmetry_equiv_pos_as_xyz
  1  'x, y, z'
loop_
 _atom_site_type_symbol
 _atom_site_label
 _atom_site_symmetry_multiplicity
 _atom_site_fract_x
 _atom_site_fract_y
 _atom_site_fract_z
 _atom_site_occupancy
  Li  Li0  1  0.06035900  0.17821300  0.49517600  1
  Li  Li1  1  0.71504500  0.49894600  0.16155400  1
  Li  Li2  1  0.27774500  0.48566100  0.83376800  1
  Li  Li3  1  0.94368600  0.81871900  0.50094800  1
  Li  Li4  1  0.38900300  0.84580300  0.83285400  1
  Mn  Mn0  1  0.28313000  0.13419500  0.10525200  1
  Mn  Mn1  1  0.40347600  0.19900300  0.54865100  1
  Mn  Mn2  1  0.06225200  0.53367200  0.22524700  1
  Mn  Mn3  1  0.92342100  0.44752100  0.78928700  1
  Mn  Mn4  1  0.60047200  0.81285200  0.43004300  1
  Mn  Mn5  1  0.73191700  0.87374100  0.88399900  1
  B  B0  1  0.94295900  0.13393200  0.12483800  1
  B  B1  1  0.73231000  0.20163700  0.54074300  1
  B  B2  1  0.39887100  0.53268000  0.20830100  1
  B  B3  1  0.60091800  0.47548100  0.77987400  1
  B  B4  1  0.25917900  0.79849500  0.47194100  1
  B  B5  1  0.06531600  0.86309800  0.87466200  1
  O  O0  1  0.01764700  0.05071500  0.24824500  1
  O  O1  1  0.77553600  0.02550600  0.13038700  1
  O  O2  1  0.63714800  0.00138000  0.65873000  1
  O  O3  1  0.30930900  0.33826200  0.33502700  1
  O  O4  1  0.66428500  0.30257800  0.43668400  1
  O  O5  1  0.32705900  0.61996700  0.08336600  1
  O  O6  1  0.90391400  0.29356600  0.53153900  1
  O  O7  1  0.57004200  0.63900400  0.19751000  1
  O  O8  1  0.97243300  0.66833800  0.00361700  1
  O  O9  1  0.03019700  0.33075800  0.99969200  1
  O  O10  1  0.43015500  0.36617800  0.79063500  1
  O  O11  1  0.09095700  0.68814100  0.47852200  1
  O  O12  1  0.67183500  0.39087300  0.90558800  1
  O  O13  1  0.33725800  0.71152900  0.58646300  1
  O  O14  1  0.68785800  0.67276600  0.65746700  1
  O  O15  1  0.34131100  0.99392400  0.36060600  1
  O  O16  1  0.23650900  0.96674500  0.86307000  1
  O  O17  1  0.99484100  0.95155700  0.74879200  1
loop_
_geom_bond_atom_site_label_1
_geom_bond_atom_site_label_2
_geom_bond_distance
_geom_bond_site_symmetry_2
Li0 O17 1.945888 1_445
Li0 O6 1.961853 1_455
Li0 O3 1.975904 1_555
Li0 O0 2.006762 1_555
Li1 O4 1.920411 1_555
Li1 O12 1.977265 1_554
Li1 O7 2.029710 1_555
Li1 O8 2.040608 1_555
Li2 O13 1.933516 1_555
Li2 O10 1.957632 1_555
Li2 O9 1.967773 1_555
Li2 O5 2.062205 1_556
Li3 O0 1.952753 1_665
Li3 O11 1.983031 1_655
Li3 O14 2.014897 1_555
Li3 O17 2.049057 1_555
Li4 O5 1.938799 1_556
Li4 O16 1.964071 1_555
Li4 O2 1.980760 1_565
Li4 O13 2.048374 1_555
Mn0 O15 2.063185 1_545
Mn0 O0 2.127731 1_555
Mn0 O10 2.134830 1_554
Mn0 O16 2.178931 1_544
Mn0 O3 2.317810 1_555
Mn1 O4 2.051614 1_555
Mn1 O3 2.110851 1_555
Mn1 O15 2.135496 1_545
Mn1 O16 2.154744 1_545
Mn1 O10 2.164652 1_555
Mn2 O8 2.092897 1_455
Mn2 O5 2.116820 1_555
Mn2 O6 2.142304 1_455
Mn2 O11 2.157059 1_555
Mn2 O9 2.289413 1_554
Mn3 O12 2.051173 1_555
Mn3 O9 2.088205 1_655
Mn3 O11 2.170625 1_655
Mn3 O6 2.174724 1_555
Mn3 O8 2.345830 1_556
Mn4 O1 2.054815 1_565
Mn4 O13 2.093529 1_555
Mn4 O14 2.124069 1_555
Mn4 O7 2.154288 1_555
Mn4 O2 2.219940 1_565
Mn5 O2 2.111289 1_565
Mn5 O17 2.111873 1_555
Mn5 O1 2.118846 1_566
Mn5 O7 2.153337 1_556
Mn5 O14 2.283635 1_555
B0 O0 1.375854 1_655
B0 O1 1.396789 1_555
B0 O9 1.402907 1_654
B1 O4 1.352559 1_555
B1 O6 1.405927 1_555
B1 O2 1.416246 1_555
B2 O5 1.379348 1_555
B2 O3 1.390231 1_555
B2 O7 1.412043 1_555
B3 O12 1.363294 1_555
B3 O14 1.402010 1_555
B3 O10 1.412749 1_555
B4 O15 1.377199 1_555
B4 O13 1.387502 1_555
B4 O11 1.403420 1_555
B5 O17 1.378605 1_455
B5 O8 1.396166 1_456
B5 O16 1.407680 1_555
