# generated using pymatgen
data_Co3(O2F)2
_symmetry_space_group_name_H-M   'P 1'
_cell_length_a   5.34358320
_cell_length_b   5.34358320
_cell_length_c   7.03701339
_cell_angle_alpha   71.26149941
_cell_angle_beta   71.26149941
_cell_angle_gamma   68.94053019
_symmetry_Int_Tables_number   1
_chemical_formula_structural   Co3(O2F)2
_chemical_formula_sum   'Co6 O8 F4'
_cell_volume   172.69140752
_cell_formula_units_Z   2
loop_
 _symmetry_equiv_pos_site_id
 _symmetry_equiv_pos_as_xyz
  1  'x, y, z'
loop_
 _atom_site_type_symbol
 _atom_site_label
 _atom_site_symmetry_multiplicity
 _atom_site_fract_x
 _atom_site_fract_y
 _atom_site_fract_z
 _atom_site_occupancy
  Co  Co0  1  0.33762800  0.33762800  0.16838700  1
  Co  Co1  1  0.31561900  0.31561900  0.66477100  1
  Co  Co2  1  0.00000000  0.00000000  0.00000000  1
  Co  Co3  1  0.00000000  0.00000000  0.50000000  1
  Co  Co4  1  0.66237200  0.66237200  0.83161300  1
  Co  Co5  1  0.68438100  0.68438100  0.33522900  1
  O  O0  1  0.63343100  0.02317000  0.66276800  1
  O  O1  1  0.30434000  0.69566000  0.00000000  1
  O  O2  1  0.91025500  0.91025500  0.29342500  1
  O  O3  1  0.08974500  0.08974500  0.70657500  1
  O  O4  1  0.02317000  0.63343100  0.66276800  1
  O  O5  1  0.69566000  0.30434000  0.00000000  1
  O  O6  1  0.36656900  0.97683000  0.33723200  1
  O  O7  1  0.97683000  0.36656900  0.33723200  1
  F  F0  1  0.24016000  0.24016000  0.97576500  1
  F  F1  1  0.56020500  0.56020500  0.64260700  1
  F  F2  1  0.43979500  0.43979500  0.35739300  1
  F  F3  1  0.75984000  0.75984000  0.02423500  1
loop_
_geom_bond_atom_site_label_1
_geom_bond_atom_site_label_2
_geom_bond_distance
_geom_bond_site_symmetry_2
Co0 F0 1.866008 1_554
Co0 F2 1.874128 1_555
Co0 O1 1.878900 1_555
Co0 O5 1.878900 1_555
Co0 O7 1.893317 1_455
Co0 O6 1.893317 1_545
Co1 O4 1.848745 1_555
Co1 O0 1.848745 1_555
Co1 O3 1.894948 1_555
Co1 F2 2.007827 1_555
Co1 F0 2.024225 1_555
Co1 F1 2.099122 1_555
Co2 O5 1.840863 1_455
Co2 O1 1.840863 1_545
Co2 O2 1.901673 1_445
Co2 O3 1.901673 1_554
Co2 F0 2.055536 1_554
Co2 F3 2.055536 1_445
Co3 O3 1.906356 1_555
Co3 O2 1.906356 1_445
Co3 O7 1.907734 1_455
Co3 O6 1.907734 1_545
Co3 O4 1.907734 1_545
Co3 O0 1.907734 1_455
Co4 F3 1.866008 1_556
Co4 F1 1.874128 1_555
Co4 O1 1.878900 1_556
Co4 O5 1.878900 1_556
Co4 O0 1.893317 1_565
Co4 O4 1.893317 1_655
Co5 O6 1.848745 1_555
Co5 O7 1.848745 1_555
Co5 O2 1.894948 1_555
Co5 F1 2.007827 1_555
Co5 F3 2.024225 1_555
Co5 F2 2.099122 1_555
