# generated using pymatgen
data_Nb8Tl8O25
_symmetry_space_group_name_H-M   'P 1'
_cell_length_a   7.64763076
_cell_length_b   7.64763076
_cell_length_c   13.23375956
_cell_angle_alpha   73.21387555
_cell_angle_beta   73.21387555
_cell_angle_gamma   60.02092985
_symmetry_Int_Tables_number   1
_chemical_formula_structural   Nb8Tl8O25
_chemical_formula_sum   'Nb8 Tl8 O25'
_cell_volume   632.05340929
_cell_formula_units_Z   1
loop_
 _symmetry_equiv_pos_site_id
 _symmetry_equiv_pos_as_xyz
  1  'x, y, z'
loop_
 _atom_site_type_symbol
 _atom_site_label
 _atom_site_symmetry_multiplicity
 _atom_site_fract_x
 _atom_site_fract_y
 _atom_site_fract_z
 _atom_site_occupancy
  Nb  Nb0  1  0.00007600  0.50059700  0.99986400  1
  Nb  Nb1  1  0.00063000  0.50016700  0.49990400  1
  Nb  Nb2  1  0.50059700  0.00007600  0.99986400  1
  Nb  Nb3  1  0.50034000  0.50034000  0.49981700  1
  Nb  Nb4  1  0.00036000  0.00036000  0.99969500  1
  Nb  Nb5  1  0.75014400  0.75014400  0.25011000  1
  Nb  Nb6  1  0.50016700  0.00063000  0.49990400  1
  Nb  Nb7  1  0.25042300  0.25042300  0.74908800  1
  Tl  Tl0  1  0.26091600  0.72869500  0.24485100  1
  Tl  Tl1  1  0.24306200  0.75378400  0.74931200  1
  Tl  Tl2  1  0.75374000  0.75374000  0.74951800  1
  Tl  Tl3  1  0.49844700  0.49844700  0.00269200  1
  Tl  Tl4  1  0.23462500  0.23462500  0.25452000  1
  Tl  Tl5  1  0.99534100  0.99534100  0.51283500  1
  Tl  Tl6  1  0.72869500  0.26091600  0.24485100  1
  Tl  Tl7  1  0.75378400  0.24306200  0.74931200  1
  O  O0  1  0.90443400  0.53395700  0.15517300  1
  O  O1  1  0.90615500  0.90615500  0.15581800  1
  O  O2  1  0.28051700  0.90907500  0.02992500  1
  O  O3  1  0.96687600  0.59333400  0.34441500  1
  O  O4  1  0.77980300  0.77980300  0.53132100  1
  O  O5  1  0.28070400  0.28070400  0.03093400  1
  O  O6  1  0.09290400  0.71922700  0.96883100  1
  O  O7  1  0.53395700  0.90443400  0.15517300  1
  O  O8  1  0.21963800  0.59127300  0.46944900  1
  O  O9  1  0.56228600  0.56228600  0.81307700  1
  O  O10  1  0.40572700  0.03220700  0.65640200  1
  O  O11  1  0.59127300  0.21963800  0.46944900  1
  O  O12  1  0.59500400  0.59500400  0.34505100  1
  O  O13  1  0.40566000  0.40566000  0.65639000  1
  O  O14  1  0.46701800  0.09441300  0.84438000  1
  O  O15  1  0.90907500  0.28051700  0.02992500  1
  O  O16  1  0.59333400  0.96687600  0.34441500  1
  O  O17  1  0.77978400  0.40904400  0.53145200  1
  O  O18  1  0.40904400  0.77978400  0.53145200  1
  O  O19  1  0.71907700  0.71907700  0.96880500  1
  O  O20  1  0.21968400  0.21968400  0.47031400  1
  O  O21  1  0.03220700  0.40572700  0.65640200  1
  O  O22  1  0.71922700  0.09290400  0.96883100  1
  O  O23  1  0.09419300  0.09419300  0.84431900  1
  O  O24  1  0.09441300  0.46701800  0.84438000  1
loop_
_geom_bond_atom_site_label_1
_geom_bond_atom_site_label_2
_geom_bond_distance
_geom_bond_site_symmetry_2
Nb0 O0 2.018042 1_456
Nb0 O24 2.020625 1_555
Nb0 O6 2.022236 1_555
Nb0 O15 2.024679 1_456
Nb0 O19 2.025822 1_455
Nb0 O5 2.026444 1_556
Nb1 O8 2.016752 1_555
Nb1 O20 2.018915 1_555
Nb1 O3 2.021041 1_455
Nb1 O4 2.024110 1_455
Nb1 O17 2.028150 1_455
Nb1 O21 2.029736 1_555
Nb2 O7 2.018042 1_546
Nb2 O14 2.020625 1_555
Nb2 O22 2.022236 1_555
Nb2 O2 2.024679 1_546
Nb2 O19 2.025822 1_545
Nb2 O5 2.026444 1_556
Nb3 O12 2.013450 1_555
Nb3 O17 2.021548 1_555
Nb3 O18 2.021548 1_555
Nb3 O8 2.024457 1_555
Nb3 O11 2.024457 1_555
Nb3 O13 2.032916 1_555
Nb4 O23 2.016923 1_555
Nb4 O2 2.019122 1_546
Nb4 O15 2.019122 1_456
Nb4 O1 2.026331 1_446
Nb4 O22 2.027266 1_455
Nb4 O6 2.027266 1_545
Nb5 O12 2.019576 1_555
Nb5 O16 2.021590 1_555
Nb5 O3 2.021590 1_555
Nb5 O7 2.024385 1_555
Nb5 O0 2.024385 1_555
Nb5 O1 2.026546 1_555
Nb6 O11 2.016752 1_555
Nb6 O20 2.018915 1_555
Nb6 O16 2.021041 1_545
Nb6 O4 2.024110 1_545
Nb6 O18 2.028150 1_545
Nb6 O10 2.029736 1_555
Nb7 O13 2.012434 1_555
Nb7 O21 2.014994 1_555
Nb7 O10 2.014994 1_555
Nb7 O14 2.029784 1_555
Nb7 O24 2.029784 1_555
Nb7 O23 2.032359 1_555
O0 Tl4 2.783466 1_655
O0 Tl6 2.833188 1_555
O1 Tl0 2.798923 1_655
O1 Tl6 2.798923 1_565
O2 Tl0 2.776592 1_555
O3 Tl0 2.773366 1_655
O3 Tl4 2.828067 1_655
O4 Tl5 2.782717 1_555
O5 Tl4 2.814771 1_555
O7 Tl4 2.783466 1_565
O7 Tl0 2.833188 1_555
O8 Tl5 2.824849 1_455
O8 Tl0 2.832652 1_555
O9 Tl3 2.365666 1_556
O9 Tl2 2.390570 1_555
O9 Tl7 2.391631 1_555
O9 Tl1 2.391631 1_555
O11 Tl5 2.824849 1_545
O11 Tl6 2.832652 1_555
O12 Tl0 2.809770 1_555
O12 Tl6 2.809770 1_555
O15 Tl6 2.776592 1_555
O16 Tl6 2.773366 1_565
O16 Tl4 2.828067 1_565
O17 Tl5 2.791330 1_545
O18 Tl5 2.791330 1_455
O20 Tl4 2.795998 1_555
O20 Tl5 2.833779 1_445
