# generated using pymatgen
data_Na5Ni2P2(CO7)2
_symmetry_space_group_name_H-M   'P 1'
_cell_length_a   6.62726700
_cell_length_b   10.25069200
_cell_length_c   10.44057039
_cell_angle_alpha   60.86409876
_cell_angle_beta   90.00000000
_cell_angle_gamma   90.00000000
_symmetry_Int_Tables_number   1
_chemical_formula_structural   Na5Ni2P2(CO7)2
_chemical_formula_sum   'Na10 Ni4 P4 C4 O28'
_cell_volume   619.52457327
_cell_formula_units_Z   2
loop_
 _symmetry_equiv_pos_site_id
 _symmetry_equiv_pos_as_xyz
  1  'x, y, z'
loop_
 _atom_site_type_symbol
 _atom_site_label
 _atom_site_symmetry_multiplicity
 _atom_site_fract_x
 _atom_site_fract_y
 _atom_site_fract_z
 _atom_site_occupancy
  Na  Na0  1  0.48622300  0.73872300  0.99597300  1
  Na  Na1  1  0.01377700  0.73872300  0.99597300  1
  Na  Na2  1  0.98622300  0.26127700  0.00402700  1
  Na  Na3  1  0.51377700  0.26127700  0.00402700  1
  Na  Na4  1  0.75000000  0.08398000  0.81467000  1
  Na  Na5  1  0.25000000  0.91602000  0.18533000  1
  Na  Na6  1  0.00553600  0.74499600  0.51029600  1
  Na  Na7  1  0.49446400  0.74499600  0.51029600  1
  Na  Na8  1  0.99446400  0.25500400  0.48970400  1
  Na  Na9  1  0.50553600  0.25500400  0.48970400  1
  Ni  Ni0  1  0.75000000  0.64696200  0.81756300  1
  Ni  Ni1  1  0.25000000  0.35303800  0.18243700  1
  Ni  Ni2  1  0.75000000  0.65054000  0.31484700  1
  Ni  Ni3  1  0.25000000  0.34946000  0.68515300  1
  P  P0  1  0.25000000  0.57862000  0.81593700  1
  P  P1  1  0.75000000  0.42138000  0.18406300  1
  P  P2  1  0.25000000  0.57980200  0.31755500  1
  P  P3  1  0.75000000  0.42019800  0.68244500  1
  C  C0  1  0.25000000  0.06928100  0.86232600  1
  C  C1  1  0.25000000  0.07196000  0.34930900  1
  C  C2  1  0.75000000  0.93071900  0.13767400  1
  C  C3  1  0.75000000  0.92804000  0.65069100  1
  O  O0  1  0.75000000  0.86147600  0.79470100  1
  O  O1  1  0.06160900  0.67343300  0.80597900  1
  O  O2  1  0.43839100  0.67343300  0.80597900  1
  O  O3  1  0.75000000  0.57218900  0.03902600  1
  O  O4  1  0.25000000  0.54919700  0.18385000  1
  O  O5  1  0.75000000  0.45080300  0.81615000  1
  O  O6  1  0.25000000  0.42781100  0.96097400  1
  O  O7  1  0.93839100  0.32656700  0.19402100  1
  O  O8  1  0.56160900  0.32656700  0.19402100  1
  O  O9  1  0.25000000  0.16310700  0.91375800  1
  O  O10  1  0.25000000  0.16013300  0.40547000  1
  O  O11  1  0.25000000  0.13852400  0.20529900  1
  O  O12  1  0.75000000  0.07202000  0.05060300  1
  O  O13  1  0.75000000  0.06992300  0.57747100  1
  O  O14  1  0.25000000  0.92798000  0.94939700  1
  O  O15  1  0.25000000  0.93007700  0.42252900  1
  O  O16  1  0.75000000  0.87179200  0.27936000  1
  O  O17  1  0.75000000  0.83689300  0.08624200  1
  O  O18  1  0.75000000  0.83986700  0.59453000  1
  O  O19  1  0.06358700  0.67877300  0.30429500  1
  O  O20  1  0.43641300  0.67877300  0.30429500  1
  O  O21  1  0.75000000  0.57183500  0.53878000  1
  O  O22  1  0.25000000  0.54822400  0.68225700  1
  O  O23  1  0.75000000  0.45177600  0.31774300  1
  O  O24  1  0.25000000  0.42816500  0.46122000  1
  O  O25  1  0.56358700  0.32122700  0.69570500  1
  O  O26  1  0.93641300  0.32122700  0.69570500  1
  O  O27  1  0.25000000  0.12820800  0.72064000  1
loop_
_geom_bond_atom_site_label_1
_geom_bond_atom_site_label_2
_geom_bond_distance
_geom_bond_site_symmetry_2
Na0 O3 2.329147 1_556
Na0 O14 2.352088 1_555
Na0 O2 2.403335 1_555
Na0 O17 2.424942 1_556
Na0 O4 2.522299 1_556
Na0 O0 2.545641 1_555
Na1 O3 2.329147 1_456
Na1 O14 2.352088 1_555
Na1 O1 2.403335 1_555
Na1 O17 2.424942 1_456
Na1 O4 2.522299 1_556
Na1 O0 2.545641 1_455
Na2 O6 2.329147 1_654
Na2 O12 2.352088 1_555
Na2 O7 2.403335 1_555
Na2 O9 2.424942 1_654
Na2 O5 2.522299 1_554
Na2 O11 2.545641 1_655
Na3 O6 2.329147 1_554
Na3 O12 2.352088 1_555
Na3 O8 2.403335 1_555
Na3 O9 2.424942 1_554
Na3 O5 2.522299 1_554
Na3 O11 2.545641 1_555
Na4 O0 2.389279 1_545
Na4 O12 2.405968 1_556
Na4 O26 2.458034 1_555
Na4 O25 2.458034 1_555
Na4 O13 2.549758 1_555
Na4 O17 2.731555 1_546
Na5 O11 2.389279 1_565
Na5 O14 2.405968 1_554
Na5 O20 2.458034 1_555
Na5 O19 2.458034 1_555
Na5 O15 2.549758 1_555
Na5 O9 2.731555 1_564
Na6 O15 2.317545 1_555
Na6 O18 2.328081 1_455
Na6 O21 2.364968 1_455
Na6 O22 2.527907 1_555
Na6 O19 2.579987 1_555
Na6 O16 2.705386 1_455
Na6 O1 2.828641 1_555
Na7 O15 2.317545 1_555
Na7 O18 2.328081 1_555
Na7 O21 2.364968 1_555
Na7 O22 2.527907 1_555
Na7 O20 2.579987 1_555
Na7 O16 2.705386 1_555
Na7 O2 2.828641 1_555
Na8 O13 2.317545 1_555
Na8 O10 2.328081 1_655
Na8 O24 2.364968 1_655
Na8 O23 2.527907 1_555
Na8 O26 2.579987 1_555
Na8 O27 2.705386 1_655
Na8 O7 2.828641 1_555
Na9 O13 2.317545 1_555
Na9 O10 2.328081 1_555
Na9 O24 2.364968 1_555
Na9 O23 2.527907 1_555
Na9 O25 2.579987 1_555
Na9 O27 2.705386 1_555
Na9 O8 2.828641 1_555
Ni0 O5 2.017989 1_555
Ni0 O3 2.051342 1_556
Ni0 O2 2.078702 1_555
Ni0 O1 2.078702 1_655
Ni0 O0 2.093111 1_555
Ni0 O18 2.201978 1_555
Ni1 O4 2.017989 1_555
Ni1 O6 2.051342 1_554
Ni1 O7 2.078702 1_455
Ni1 O8 2.078702 1_555
Ni1 O11 2.093111 1_555
Ni1 O10 2.201978 1_555
Ni2 O23 2.022920 1_555
Ni2 O21 2.068895 1_555
Ni2 O19 2.093768 1_655
Ni2 O20 2.093768 1_555
Ni2 O16 2.112529 1_555
Ni2 O17 2.214948 1_555
Ni3 O22 2.022920 1_555
Ni3 O24 2.068895 1_555
Ni3 O25 2.093768 1_555
Ni3 O26 2.093768 1_455
Ni3 O27 2.112529 1_555
Ni3 O9 2.214948 1_555
C0 O14 1.281477 1_545
C0 O27 1.297319 1_555
C0 O9 1.310068 1_555
C1 O15 1.271618 1_545
C1 O10 1.294909 1_555
C1 O11 1.314240 1_555
C2 O12 1.281477 1_565
C2 O16 1.297319 1_555
C2 O17 1.310068 1_555
C3 O13 1.271618 1_565
C3 O18 1.294909 1_555
C3 O0 1.314240 1_555
O1 P0 1.554284 1_555
O2 P0 1.554284 1_555
O3 P1 1.550263 1_555
O4 P2 1.572759 1_555
O5 P3 1.572759 1_555
O6 P0 1.550263 1_555
O7 P1 1.554284 1_555
O8 P1 1.554284 1_555
O19 P2 1.561373 1_555
O20 P2 1.561373 1_555
O21 P3 1.547779 1_555
O22 P0 1.571149 1_555
O23 P1 1.571149 1_555
O24 P2 1.547779 1_555
O25 P3 1.561373 1_555
O26 P3 1.561373 1_555
