# generated using pymatgen
data_LiCo3Sb(PO4)6
_symmetry_space_group_name_H-M   'P 1'
_cell_length_a   8.75727632
_cell_length_b   8.75727632
_cell_length_c   8.75727602
_cell_angle_alpha   58.53827139
_cell_angle_beta   58.53827139
_cell_angle_gamma   58.53827390
_symmetry_Int_Tables_number   1
_chemical_formula_structural   LiCo3Sb(PO4)6
_chemical_formula_sum   'Li1 Co3 Sb1 P6 O24'
_cell_volume   459.01298426
_cell_formula_units_Z   1
loop_
 _symmetry_equiv_pos_site_id
 _symmetry_equiv_pos_as_xyz
  1  'x, y, z'
loop_
 _atom_site_type_symbol
 _atom_site_label
 _atom_site_symmetry_multiplicity
 _atom_site_fract_x
 _atom_site_fract_y
 _atom_site_fract_z
 _atom_site_occupancy
  Li  Li0  1  0.98988400  0.98988400  0.98988400  1
  Co  Co0  1  0.85219600  0.85219600  0.85219600  1
  Co  Co1  1  0.64373000  0.64373000  0.64373000  1
  Co  Co2  1  0.35598800  0.35598800  0.35598800  1
  Sb  Sb0  1  0.14374800  0.14374800  0.14374800  1
  P  P0  1  0.96783300  0.25071900  0.54098200  1
  P  P1  1  0.54098200  0.96783300  0.25071900  1
  P  P2  1  0.25071900  0.54098200  0.96783300  1
  P  P3  1  0.74373000  0.46146000  0.04050500  1
  P  P4  1  0.46146000  0.04050500  0.74373000  1
  P  P5  1  0.04050500  0.74373000  0.46146000  1
  O  O0  1  0.86376300  0.72123300  0.49046700  1
  O  O1  1  0.72123300  0.49046700  0.86376300  1
  O  O2  1  0.94257700  0.08040600  0.72809900  1
  O  O3  1  0.49046700  0.86376300  0.72123300  1
  O  O4  1  0.78535300  0.42476800  0.56244300  1
  O  O5  1  0.98354100  0.21903800  0.37205700  1
  O  O6  1  0.72809900  0.94257700  0.08040600  1
  O  O7  1  0.56244300  0.78535300  0.42476800  1
  O  O8  1  0.42476800  0.56244300  0.78535300  1
  O  O9  1  0.78947800  0.62264900  0.01259100  1
  O  O10  1  0.92048400  0.26887800  0.05987100  1
  O  O11  1  0.62264900  0.01259100  0.78947800  1
  O  O12  1  0.37205700  0.98354100  0.21903800  1
  O  O13  1  0.08040600  0.72809900  0.94257700  1
  O  O14  1  0.21903800  0.37205700  0.98354100  1
  O  O15  1  0.57153300  0.43769000  0.22355400  1
  O  O16  1  0.43769000  0.22355400  0.57153300  1
  O  O17  1  0.26887800  0.05987100  0.92048400  1
  O  O18  1  0.01259100  0.78947800  0.62264900  1
  O  O19  1  0.22355400  0.57153300  0.43769000  1
  O  O20  1  0.50898400  0.14393500  0.27583300  1
  O  O21  1  0.05987100  0.92048400  0.26887800  1
  O  O22  1  0.27583300  0.50898400  0.14393500  1
  O  O23  1  0.14393500  0.27583300  0.50898400  1
loop_
_geom_bond_atom_site_label_1
_geom_bond_atom_site_label_2
_geom_bond_distance
_geom_bond_site_symmetry_2
Li0 O2 2.192543 1_565
Li0 O6 2.192543 1_556
Li0 O13 2.192543 1_655
Li0 O21 2.517668 1_656
Li0 O17 2.517668 1_665
Li0 O10 2.517668 1_566
Co0 O18 1.927521 1_655
Co0 O9 1.927521 1_556
Co0 O11 1.927521 1_565
Co0 O6 2.070663 1_556
Co0 O2 2.070663 1_565
Co0 O13 2.070663 1_655
Co1 O1 1.920834 1_555
Co1 O0 1.920834 1_555
Co1 O3 1.920834 1_555
Co1 O7 1.934571 1_555
Co1 O8 1.934571 1_555
Co1 O4 1.934571 1_555
Co2 O22 1.875657 1_555
Co2 O23 1.875657 1_555
Co2 O20 1.875657 1_555
Co2 O16 1.917910 1_555
Co2 O15 1.917910 1_555
Co2 O19 1.917910 1_555
O0 P5 1.534474 1_655
O1 P3 1.534474 1_556
O2 P0 1.540584 1_555
O3 P4 1.534474 1_565
O4 P0 1.534656 1_555
O5 P0 1.568584 1_555
O5 Sb0 1.970509 1_655
O6 P1 1.540584 1_555
O7 P1 1.534656 1_555
O8 P2 1.534656 1_555
O9 P3 1.529936 1_555
O10 P3 1.587275 1_555
O10 Sb0 1.996382 1_655
O11 P4 1.529936 1_555
O12 P1 1.568584 1_555
O12 Sb0 1.970509 1_565
O13 P2 1.540584 1_555
O14 P2 1.568584 1_555
O14 Sb0 1.970509 1_556
O15 P3 1.530685 1_555
O16 P4 1.530685 1_555
O17 P4 1.587275 1_555
O17 Sb0 1.996382 1_556
O18 P5 1.529936 1_555
O19 P5 1.530685 1_555
O20 P1 1.530951 1_545
O21 P5 1.587275 1_555
O21 Sb0 1.996382 1_565
O22 P2 1.530951 1_554
O23 P0 1.530951 1_455
