# generated using pymatgen
data_FeOF
_symmetry_space_group_name_H-M   'P 1'
_cell_length_a   9.49034302
_cell_length_b   14.09870300
_cell_length_c   3.09642800
_cell_angle_alpha   90.00000000
_cell_angle_beta   90.00000000
_cell_angle_gamma   89.99626869
_symmetry_Int_Tables_number   1
_chemical_formula_structural   FeOF
_chemical_formula_sum   'Fe12 O12 F12'
_cell_volume   414.30679547
_cell_formula_units_Z   12
loop_
 _symmetry_equiv_pos_site_id
 _symmetry_equiv_pos_as_xyz
  1  'x, y, z'
loop_
 _atom_site_type_symbol
 _atom_site_label
 _atom_site_symmetry_multiplicity
 _atom_site_fract_x
 _atom_site_fract_y
 _atom_site_fract_z
 _atom_site_occupancy
  Fe  Fe0  1  0.01074800  0.99504100  0.00000000  1
  Fe  Fe1  1  0.02412400  0.32539000  0.00000000  1
  Fe  Fe2  1  0.99547800  0.67041900  0.00000000  1
  Fe  Fe3  1  0.26748100  0.17846000  0.50000000  1
  Fe  Fe4  1  0.21768000  0.50481100  0.50000000  1
  Fe  Fe5  1  0.21730300  0.82726400  0.50000000  1
  Fe  Fe6  1  0.50838700  0.32899200  0.00000000  1
  Fe  Fe7  1  0.52458500  0.98651200  0.00000000  1
  Fe  Fe8  1  0.50423000  0.67192100  0.00000000  1
  Fe  Fe9  1  0.72609300  0.16403500  0.50000000  1
  Fe  Fe10  1  0.77617100  0.51163500  0.50000000  1
  Fe  Fe11  1  0.74543200  0.81833700  0.50000000  1
  O  O0  1  0.10088900  0.26429800  0.50000000  1
  O  O1  1  0.08517400  0.60906400  0.50000000  1
  O  O2  1  0.09529300  0.93921900  0.50000000  1
  O  O3  1  0.13863900  0.76483700  0.00000000  1
  O  O4  1  0.14512900  0.43979000  0.00000000  1
  O  O5  1  0.35458400  0.23376300  0.00000000  1
  O  O6  1  0.60179900  0.27497000  0.50000000  1
  O  O7  1  0.60370600  0.92438300  0.50000000  1
  O  O8  1  0.65010600  0.09908500  0.00000000  1
  O  O9  1  0.65555400  0.76120700  0.00000000  1
  O  O10  1  0.85505500  0.57286700  0.00000000  1
  O  O11  1  0.90014100  0.73144300  0.50000000  1
  F  F0  1  0.15630800  0.10215900  0.00000000  1
  F  F1  1  0.34578400  0.57293100  0.00000000  1
  F  F2  1  0.34509600  0.89359500  0.00000000  1
  F  F3  1  0.40087200  0.05940000  0.50000000  1
  F  F4  1  0.40339100  0.40708900  0.50000000  1
  F  F5  1  0.39410700  0.73396000  0.50000000  1
  F  F6  1  0.59234500  0.59416800  0.50000000  1
  F  F7  1  0.65923800  0.44183500  0.00000000  1
  F  F8  1  0.84932600  0.23265800  0.00000000  1
  F  F9  1  0.84796100  0.89986400  0.00000000  1
  F  F10  1  0.90323200  0.06993400  0.50000000  1
  F  F11  1  0.89855500  0.39466300  0.50000000  1
loop_
_geom_bond_atom_site_label_1
_geom_bond_atom_site_label_2
_geom_bond_distance
_geom_bond_site_symmetry_2
Fe0 O2 1.913130 1_555
Fe0 O2 1.913130 1_554
Fe1 O0 1.915595 1_555
Fe1 O0 1.915595 1_554
Fe1 O4 1.980009 1_555
Fe2 O3 1.902150 1_655
Fe2 O10 1.915159 1_555
Fe2 O1 1.967171 1_654
Fe2 O1 1.967171 1_655
Fe2 O11 1.988897 1_555
Fe2 O11 1.988897 1_554
Fe3 O5 1.920498 1_555
Fe3 O5 1.920498 1_556
Fe3 O0 1.990968 1_555
Fe4 O4 1.926522 1_555
Fe4 O4 1.926522 1_556
Fe4 O1 1.934306 1_555
Fe5 O3 1.931070 1_555
Fe5 O3 1.931070 1_556
Fe5 O2 1.957535 1_555
Fe6 O6 1.939814 1_555
Fe6 O6 1.939814 1_554
Fe6 O5 1.983281 1_555
Fe7 O7 1.930797 1_555
Fe7 O7 1.930797 1_554
Fe7 O8 1.984511 1_565
Fe8 O9 1.909787 1_555
Fe9 O8 1.937944 1_556
Fe9 O8 1.937944 1_555
Fe9 O6 1.958933 1_555
Fe10 O10 1.924261 1_556
Fe10 O10 1.924261 1_555
Fe11 O11 1.912159 1_555
Fe11 O9 1.942520 1_555
Fe11 O9 1.942520 1_556
Fe11 O7 2.011019 1_555
F0 Fe0 2.046792 1_545
F0 Fe3 2.160443 1_555
F0 Fe3 2.160443 1_554
F1 Fe8 2.051632 1_555
F1 Fe4 2.190330 1_554
F1 Fe4 2.190330 1_555
F2 Fe7 2.148960 1_555
F2 Fe5 2.177742 1_554
F2 Fe5 2.177742 1_555
F3 Fe3 2.102371 1_555
F3 Fe7 2.198019 1_545
F3 Fe7 2.198019 1_546
F4 Fe6 2.145246 1_555
F4 Fe6 2.145246 1_556
F4 Fe4 2.236997 1_555
F5 Fe8 2.062556 1_555
F5 Fe8 2.062556 1_556
F5 Fe5 2.132044 1_555
F6 Fe8 2.073123 1_556
F6 Fe8 2.073123 1_555
F6 Fe10 2.096962 1_555
F7 Fe6 2.140314 1_555
F7 Fe10 2.144073 1_554
F7 Fe10 2.144073 1_555
F8 Fe1 2.112228 1_655
F8 Fe9 2.168167 1_554
F8 Fe9 2.168167 1_555
F9 Fe0 2.046368 1_655
F9 Fe11 2.159881 1_554
F9 Fe11 2.159881 1_555
F10 Fe0 2.133748 1_645
F10 Fe0 2.133748 1_646
F10 Fe9 2.141490 1_555
F11 Fe10 2.017043 1_555
F11 Fe1 2.184219 1_655
F11 Fe1 2.184219 1_656
