# generated using pymatgen
data_Li4Ti3(NiO4)3
_symmetry_space_group_name_H-M   'P 1'
_cell_length_a   5.21179628
_cell_length_b   7.62971581
_cell_length_c   5.56986462
_cell_angle_alpha   68.58211896
_cell_angle_beta   89.97362202
_cell_angle_gamma   95.94842560
_symmetry_Int_Tables_number   1
_chemical_formula_structural   Li4Ti3(NiO4)3
_chemical_formula_sum   'Li4 Ti3 Ni3 O12'
_cell_volume   204.90206916
_cell_formula_units_Z   1
loop_
 _symmetry_equiv_pos_site_id
 _symmetry_equiv_pos_as_xyz
  1  'x, y, z'
loop_
 _atom_site_type_symbol
 _atom_site_label
 _atom_site_symmetry_multiplicity
 _atom_site_fract_x
 _atom_site_fract_y
 _atom_site_fract_z
 _atom_site_occupancy
  Li  Li0  1  0.67054366  0.66395595  0.17473443  1
  Li  Li1  1  0.35307708  0.31960215  0.83795616  1
  Li  Li2  1  0.16600044  0.66661342  0.91559197  1
  Li  Li3  1  0.97901589  0.01509328  0.48955219  1
  Ti  Ti0  1  0.82365788  0.32451554  0.08618740  1
  Ti  Ti1  1  0.50927531  0.00875961  0.74448036  1
  Ti  Ti2  1  0.16745918  0.66705024  0.40648508  1
  Ni  Ni0  1  0.66680925  0.66667486  0.66863045  1
  Ni  Ni1  1  0.33373096  0.33278021  0.33533527  1
  Ni  Ni2  1  -0.00143823  0.00086873  0.00138877  1
  O  O0  1  0.95739314  0.52775132  0.74408457  1
  O  O1  1  0.87301029  0.81406439  0.35393550  1
  O  O2  1  0.79967064  0.84579319  0.82549046  1
  O  O3  1  0.68449678  0.15694572  0.91777069  1
  O  O4  1  0.64877568  0.17632145  0.40814666  1
  O  O5  1  0.53329346  0.48727808  0.00430060  1
  O  O6  1  0.46083584  0.51932304  0.50076242  1
  O  O7  1  0.37623293  0.80557787  0.60524961  1
  O  O8  1  0.30570585  0.83949766  0.07684841  1
  O  O9  1  0.20998038  0.13794304  0.67461568  1
  O  O10  1  0.12308065  0.19558556  0.14572251  1
  O  O11  1  0.02606293  0.49467169  0.24939782  1
loop_
_geom_bond_atom_site_label_1
_geom_bond_atom_site_label_2
_geom_bond_distance
_geom_bond_site_symmetry_2
Li0 O5 1.991304 1_555
Li0 O6 1.998641 1_555
Li0 O2 1.998983 1_554
Li0 O1 2.001691 1_555
Li0 O11 2.319228 1_655
Li0 O8 2.387910 1_555
Li1 O10 1.961921 1_556
Li1 O6 1.973896 1_555
Li1 O5 1.998676 1_556
Li1 O9 2.003057 1_555
Li1 O3 2.182517 1_555
Li2 O0 1.928331 1_455
Li2 O11 1.931016 1_556
Li2 O7 1.931732 1_555
Li2 O8 1.934835 1_556
Li2 O2 2.409726 1_455
Li2 O5 2.414683 1_556
Li3 O9 1.965439 1_655
Li3 O1 1.974647 1_545
Li3 O10 1.996496 1_655
Li3 O2 2.006560 1_545
Li3 O4 2.171021 1_555
Ni0 O7 1.897675 1_555
Ni0 O0 1.897809 1_555
Ni0 O5 1.945674 1_556
Ni0 O2 1.945998 1_555
Ni0 O1 1.949378 1_555
Ni0 O6 1.951678 1_555
Ni1 O9 1.986316 1_555
Ni1 O10 1.996661 1_555
Ni1 O5 2.006918 1_555
Ni1 O6 2.019017 1_555
Ni1 O11 2.074957 1_555
Ni1 O4 2.082971 1_555
Ni2 O10 1.986822 1_555
Ni2 O9 1.997423 1_554
Ni2 O2 2.006894 1_444
Ni2 O1 2.019146 1_445
Ni2 O8 2.070315 1_545
Ni2 O3 2.076988 1_454
O0 Ti0 2.034191 1_556
O0 Ti2 2.039953 1_655
O1 Ti2 1.953525 1_655
O2 Ti1 2.005283 1_565
O3 Ti1 1.904649 1_555
O3 Ti0 1.930002 1_556
O4 Ti0 1.905007 1_555
O4 Ti1 1.931160 1_555
O5 Ti0 2.004196 1_555
O6 Ti2 1.951849 1_555
O7 Ti1 2.034961 1_565
O7 Ti2 2.035681 1_555
O8 Ti2 1.912929 1_555
O8 Ti1 2.046628 1_564
O9 Ti1 1.896096 1_555
O10 Ti0 1.895599 1_455
O11 Ti2 1.917940 1_555
O11 Ti0 2.050264 1_455
