# generated using pymatgen
data_Li2TiFe2O5
_symmetry_space_group_name_H-M   'P 1'
_cell_length_a   9.50431600
_cell_length_b   4.21111317
_cell_length_c   5.04107937
_cell_angle_alpha   65.32180925
_cell_angle_beta   88.46169050
_cell_angle_gamma   90.01978729
_symmetry_Int_Tables_number   1
_chemical_formula_structural   Li2TiFe2O5
_chemical_formula_sum   'Li4 Ti2 Fe4 O10'
_cell_volume   183.25442467
_cell_formula_units_Z   2
loop_
 _symmetry_equiv_pos_site_id
 _symmetry_equiv_pos_as_xyz
  1  'x, y, z'
loop_
 _atom_site_type_symbol
 _atom_site_label
 _atom_site_symmetry_multiplicity
 _atom_site_fract_x
 _atom_site_fract_y
 _atom_site_fract_z
 _atom_site_occupancy
  Li  Li0  1  0.90145000  0.30024400  0.39911300  1
  Li  Li1  1  0.69846000  0.89978300  0.20086300  1
  Li  Li2  1  0.50447300  0.50428700  0.99162200  1
  Li  Li3  1  0.09555800  0.69571500  0.60840700  1
  Ti  Ti0  1  0.60864800  0.20679100  0.58928800  1
  Ti  Ti1  1  0.99125200  0.99313700  0.01041900  1
  Fe  Fe0  1  0.79995900  0.60008800  0.79991500  1
  Fe  Fe1  1  0.30019700  0.09971300  0.80063100  1
  Fe  Fe2  1  0.21077900  0.38754100  0.22591500  1
  Fe  Fe3  1  0.38893600  0.81260600  0.37372700  1
  O  O0  1  0.80006000  0.10005600  0.79997200  1
  O  O1  1  0.90119900  0.80977700  0.38063400  1
  O  O2  1  0.69883300  0.39029900  0.21928000  1
  O  O3  1  0.50385800  0.01129300  0.97707000  1
  O  O4  1  0.60199700  0.70110600  0.59642600  1
  O  O5  1  0.41908300  0.30108000  0.39698900  1
  O  O6  1  0.30003700  0.59996000  0.80007900  1
  O  O7  1  0.09638300  0.18866100  0.62301300  1
  O  O8  1  0.18079900  0.89887000  0.20306900  1
  O  O9  1  0.99803800  0.49899200  0.00356700  1
loop_
_geom_bond_atom_site_label_1
_geom_bond_atom_site_label_2
_geom_bond_distance
_geom_bond_site_symmetry_2
Li0 O9 2.006685 1_555
Li0 O0 2.048201 1_555
Li0 O1 2.106011 1_545
Li0 O1 2.108512 1_555
Li0 O2 2.116900 1_555
Li0 O7 2.144125 1_655
Li1 O4 2.006243 1_555
Li1 O0 2.049216 1_564
Li1 O2 2.106078 1_565
Li1 O2 2.108428 1_555
Li1 O1 2.117851 1_555
Li1 O3 2.141115 1_564
Li2 O5 2.004252 1_556
Li2 O4 2.009108 1_555
Li2 O3 2.105502 1_565
Li2 O3 2.107748 1_555
Li2 O2 2.148089 1_556
Li2 O6 2.155559 1_555
Li3 O8 2.003596 1_555
Li3 O9 2.008946 1_456
Li3 O7 2.105608 1_555
Li3 O7 2.107675 1_565
Li3 O1 2.148350 1_455
Li3 O6 2.156189 1_555
Fe0 O0 2.105542 1_565
Fe0 O0 2.105572 1_555
Fe0 O2 2.122316 1_556
Fe0 O1 2.122434 1_555
Fe0 O4 2.124392 1_555
Fe0 O9 2.125739 1_556
Fe1 O6 2.105438 1_555
Fe1 O6 2.105680 1_545
Fe1 O3 2.119648 1_555
Fe1 O7 2.123203 1_555
Fe1 O8 2.135823 1_546
Fe1 O5 2.138048 1_555
Fe2 O7 2.091244 1_555
Fe2 O6 2.103868 1_554
Fe2 O8 2.127465 1_555
Fe2 O8 2.128017 1_545
Fe2 O5 2.150772 1_555
Fe2 O9 2.290851 1_455
Fe3 O3 2.091995 1_564
Fe3 O6 2.104754 1_555
Fe3 O5 2.127737 1_555
Fe3 O5 2.128380 1_565
Fe3 O8 2.148548 1_555
Fe3 O4 2.294332 1_555
O0 Ti1 2.082168 1_546
O0 Ti0 2.084548 1_555
O1 Ti1 1.876759 1_555
O2 Ti0 1.876450 1_555
O3 Ti0 2.010502 1_555
O4 Ti0 2.097840 1_555
O4 Ti0 2.115620 1_565
O5 Ti0 2.028868 1_555
O7 Ti1 2.010533 1_446
O8 Ti1 2.029458 1_455
O9 Ti1 2.096543 1_555
O9 Ti1 2.116956 1_545
