# generated using pymatgen
data_LiV3CrO8
_symmetry_space_group_name_H-M   'P 1'
_cell_length_a   5.35118000
_cell_length_b   6.03318457
_cell_length_c   10.45698641
_cell_angle_alpha   97.50076063
_cell_angle_beta   103.95809814
_cell_angle_gamma   107.34440269
_symmetry_Int_Tables_number   1
_chemical_formula_structural   LiV3CrO8
_chemical_formula_sum   'Li2 V6 Cr2 O16'
_cell_volume   305.17451299
_cell_formula_units_Z   2
loop_
 _symmetry_equiv_pos_site_id
 _symmetry_equiv_pos_as_xyz
  1  'x, y, z'
loop_
 _atom_site_type_symbol
 _atom_site_label
 _atom_site_symmetry_multiplicity
 _atom_site_fract_x
 _atom_site_fract_y
 _atom_site_fract_z
 _atom_site_occupancy
  Li  Li0  1  0.25182300  0.87717700  0.24693800  1
  Li  Li1  1  0.74519900  0.62609300  0.74798200  1
  V  V0  1  0.65695300  0.19183400  0.11845700  1
  V  V1  1  0.84886700  0.55044700  0.38039100  1
  V  V2  1  0.16994700  0.94618200  0.62335700  1
  V  V3  1  0.33099500  0.30573300  0.88003700  1
  V  V4  1  0.63855700  0.69444400  0.12227300  1
  V  V5  1  0.86858900  0.06475000  0.38156100  1
  Cr  Cr0  1  0.12750000  0.43747700  0.62422300  1
  Cr  Cr1  1  0.36417000  0.81079300  0.87664400  1
  O  O0  1  0.40034100  0.76941900  0.68700500  1
  O  O1  1  0.63394600  0.15128000  0.94214100  1
  O  O2  1  0.89741900  0.53423800  0.19927300  1
  O  O3  1  0.13681000  0.88827600  0.43481600  1
  O  O4  1  0.39795500  0.27957900  0.70016200  1
  O  O5  1  0.62908300  0.64000400  0.93871000  1
  O  O6  1  0.90844700  0.01957600  0.19283800  1
  O  O7  1  0.11678600  0.39341400  0.43108700  1
  O  O8  1  0.86144300  0.61249600  0.56206500  1
  O  O9  1  0.09783700  0.97036100  0.80028100  1
  O  O10  1  0.36641500  0.35272100  0.06085200  1
  O  O11  1  0.59930000  0.72965100  0.30246400  1
  O  O12  1  0.87325100  0.09322800  0.55716700  1
  O  O13  1  0.09490100  0.48054900  0.81276100  1
  O  O14  1  0.38045400  0.86503900  0.07353700  1
  O  O15  1  0.60301000  0.21523600  0.30297600  1
loop_
_geom_bond_atom_site_label_1
_geom_bond_atom_site_label_2
_geom_bond_distance
_geom_bond_site_symmetry_2
Li0 O14 2.089150 1_555
Li0 O3 2.194679 1_555
Li0 O15 2.215016 1_565
Li0 O6 2.236299 1_465
Li0 O2 2.249693 1_455
Li0 O11 2.277623 1_555
Li1 O8 2.178420 1_555
Li1 O5 2.226244 1_555
Li1 O4 2.244111 1_555
Li1 O9 2.245604 1_655
Li1 O0 2.255551 1_555
Li1 O13 2.292428 1_655
Cr0 O7 1.986883 1_555
Cr0 O0 2.006075 1_555
Cr0 O13 2.010998 1_555
Cr0 O4 2.024281 1_555
Cr0 O12 2.032508 1_455
Cr0 O8 2.047807 1_455
Cr1 O13 1.992147 1_555
Cr1 O9 2.016272 1_555
Cr1 O14 2.018496 1_556
Cr1 O5 2.023411 1_555
Cr1 O0 2.029043 1_555
Cr1 O1 2.039733 1_565
O0 V2 1.916676 1_555
O1 V0 1.796980 1_556
O1 V3 2.113997 1_555
O2 V1 1.966795 1_555
O2 V4 1.991173 1_555
O2 V0 2.017957 1_555
O3 V2 1.911849 1_555
O3 V5 2.045513 1_465
O3 V1 2.062502 1_455
O4 V2 1.954958 1_545
O4 V3 1.993145 1_555
O5 V4 1.890374 1_556
O5 V3 2.067560 1_555
O6 V4 1.974076 1_545
O6 V0 2.009019 1_555
O6 V5 2.027725 1_555
O7 V5 1.947792 1_455
O7 V1 1.951507 1_455
O8 V1 1.868528 1_555
O8 V2 2.088104 1_655
O9 V3 1.974462 1_565
O9 V2 1.974974 1_555
O10 V3 1.829336 1_554
O10 V4 2.048595 1_555
O10 V0 2.079139 1_555
O11 V4 1.937197 1_555
O11 V5 2.024696 1_565
O11 V1 2.045083 1_555
O12 V5 1.815254 1_555
O12 V2 2.063200 1_645
O13 V3 1.939805 1_555
O14 V4 1.967629 1_555
O14 V0 1.995173 1_565
O15 V5 1.979895 1_555
O15 V1 1.987119 1_555
O15 V0 2.012001 1_555
