# generated using pymatgen
data_BaP2(HO2)4
_symmetry_space_group_name_H-M   'P 1'
_cell_length_a   7.78938500
_cell_length_b   8.62824400
_cell_length_c   10.57345300
_cell_angle_alpha   90.00000000
_cell_angle_beta   90.00000000
_cell_angle_gamma   90.00000000
_symmetry_Int_Tables_number   1
_chemical_formula_structural   BaP2(HO2)4
_chemical_formula_sum   'Ba4 P8 H16 O32'
_cell_volume   710.62818279
_cell_formula_units_Z   4
loop_
 _symmetry_equiv_pos_site_id
 _symmetry_equiv_pos_as_xyz
  1  'x, y, z'
loop_
 _atom_site_type_symbol
 _atom_site_label
 _atom_site_symmetry_multiplicity
 _atom_site_fract_x
 _atom_site_fract_y
 _atom_site_fract_z
 _atom_site_occupancy
  Ba  Ba0  1  0.75000000  0.89986600  0.25000000  1
  Ba  Ba1  1  0.25000000  0.60013400  0.75000000  1
  Ba  Ba2  1  0.25000000  0.10013400  0.75000000  1
  Ba  Ba3  1  0.75000000  0.39986600  0.25000000  1
  P  P0  1  0.07462500  0.70844400  0.42288900  1
  P  P1  1  0.42537500  0.70844400  0.07711100  1
  P  P2  1  0.57462500  0.79155600  0.57711100  1
  P  P3  1  0.92537500  0.79155600  0.92288900  1
  P  P4  1  0.92537500  0.29155600  0.57711100  1
  P  P5  1  0.57462500  0.29155600  0.92288900  1
  P  P6  1  0.42537500  0.20844400  0.42288900  1
  P  P7  1  0.07462500  0.20844400  0.07711100  1
  H  H0  1  0.91801400  0.80194900  0.57816300  1
  H  H1  1  0.58198600  0.80194900  0.92183700  1
  H  H2  1  0.41801400  0.69805100  0.42183700  1
  H  H3  1  0.08198600  0.69805100  0.07816200  1
  H  H4  1  0.08198600  0.19805100  0.42183700  1
  H  H5  1  0.41801400  0.19805100  0.07816200  1
  H  H6  1  0.58198600  0.30194900  0.57816300  1
  H  H7  1  0.91801400  0.30194900  0.92183700  1
  H  H8  1  0.18382800  0.94917200  0.38197900  1
  H  H9  1  0.31617200  0.94917200  0.11802100  1
  H  H10  1  0.68382800  0.55082800  0.61802100  1
  H  H11  1  0.81617200  0.55082800  0.88197900  1
  H  H12  1  0.81617200  0.05082800  0.61802100  1
  H  H13  1  0.68382800  0.05082800  0.88197900  1
  H  H14  1  0.31617200  0.44917200  0.38197900  1
  H  H15  1  0.18382800  0.44917200  0.11802100  1
  O  O0  1  0.23943100  0.61290700  0.42953100  1
  O  O1  1  0.26056900  0.61290700  0.07046900  1
  O  O2  1  0.73943100  0.88709300  0.57046900  1
  O  O3  1  0.76056900  0.88709300  0.92953100  1
  O  O4  1  0.76056900  0.38709300  0.57046900  1
  O  O5  1  0.73943100  0.38709300  0.92953100  1
  O  O6  1  0.26056900  0.11290700  0.42953100  1
  O  O7  1  0.23943100  0.11290700  0.07046900  1
  O  O8  1  0.03726000  0.75427800  0.56709800  1
  O  O9  1  0.46274000  0.75427800  0.93290200  1
  O  O10  1  0.53726000  0.74572200  0.43290200  1
  O  O11  1  0.96274000  0.74572200  0.06709800  1
  O  O12  1  0.96274000  0.24572200  0.43290200  1
  O  O13  1  0.53726000  0.24572200  0.06709800  1
  O  O14  1  0.46274000  0.25427800  0.56709800  1
  O  O15  1  0.03726000  0.25427800  0.93290200  1
  O  O16  1  0.91716900  0.63920600  0.36099600  1
  O  O17  1  0.58283100  0.63920600  0.13900400  1
  O  O18  1  0.41716900  0.86079400  0.63900400  1
  O  O19  1  0.08283100  0.86079400  0.86099600  1
  O  O20  1  0.08283100  0.36079400  0.63900400  1
  O  O21  1  0.41716900  0.36079400  0.86099600  1
  O  O22  1  0.58283100  0.13920600  0.36099600  1
  O  O23  1  0.91716900  0.13920600  0.13900400  1
  O  O24  1  0.10287000  0.86724800  0.34795200  1
  O  O25  1  0.39713000  0.86724800  0.15204800  1
  O  O26  1  0.60287000  0.63275200  0.65204800  1
  O  O27  1  0.89713000  0.63275200  0.84795200  1
  O  O28  1  0.89713000  0.13275200  0.65204800  1
  O  O29  1  0.60287000  0.13275200  0.84795200  1
  O  O30  1  0.39713000  0.36724800  0.34795200  1
  O  O31  1  0.10287000  0.36724800  0.15204800  1
loop_
_geom_bond_atom_site_label_1
_geom_bond_atom_site_label_2
_geom_bond_distance
_geom_bond_site_symmetry_2
Ba0 O23 2.708784 1_565
Ba0 O22 2.708784 1_565
Ba0 O17 2.851511 1_555
Ba0 O16 2.851511 1_555
Ba0 O11 2.873134 1_555
Ba0 O10 2.873134 1_555
Ba0 O24 2.950743 1_655
Ba0 O25 2.950743 1_555
Ba1 O20 2.708784 1_555
Ba1 O21 2.708784 1_555
Ba1 O18 2.851511 1_555
Ba1 O19 2.851511 1_555
Ba1 O9 2.873134 1_555
Ba1 O8 2.873134 1_555
Ba1 O27 2.950743 1_455
Ba1 O26 2.950743 1_555
Ba2 O18 2.708784 1_545
Ba2 O19 2.708784 1_545
Ba2 O21 2.851511 1_555
Ba2 O20 2.851511 1_555
Ba2 O14 2.873134 1_555
Ba2 O15 2.873134 1_555
Ba2 O29 2.950743 1_555
Ba2 O28 2.950743 1_455
Ba3 O16 2.708784 1_555
Ba3 O17 2.708784 1_555
Ba3 O22 2.851511 1_555
Ba3 O23 2.851511 1_555
Ba3 O12 2.873134 1_555
Ba3 O13 2.873134 1_555
Ba3 O31 2.950743 1_655
Ba3 O30 2.950743 1_555
H0 O8 1.022564 1_655
H0 O2 1.575228 1_555
H1 O9 1.022564 1_555
H1 O3 1.575228 1_555
H2 O10 1.022564 1_555
H2 O0 1.575228 1_555
H3 O11 1.022563 1_455
H3 O1 1.575228 1_555
H4 O12 1.022564 1_455
H4 O6 1.575228 1_555
H5 O13 1.022563 1_555
H5 O7 1.575228 1_555
H6 O14 1.022564 1_555
H6 O4 1.575228 1_555
H7 O15 1.022564 1_655
H7 O5 1.575228 1_555
H8 O24 1.013296 1_555
H8 O6 1.614302 1_565
H9 O25 1.013296 1_555
H9 O7 1.614302 1_565
H10 O26 1.013296 1_555
H10 O4 1.614302 1_555
H11 O27 1.013296 1_555
H11 O5 1.614302 1_555
H12 O28 1.013296 1_555
H12 O2 1.614302 1_545
H13 O29 1.013296 1_555
H13 O3 1.614302 1_545
H14 O30 1.013296 1_555
H14 O0 1.614302 1_555
H15 O31 1.013296 1_555
H15 O1 1.614302 1_555
O0 P0 1.527223 1_555
O1 P1 1.527223 1_555
O2 P2 1.527223 1_555
O3 P3 1.527223 1_555
O4 P4 1.527223 1_555
O5 P5 1.527223 1_555
O6 P6 1.527223 1_555
O7 P7 1.527223 1_555
O8 P0 1.601899 1_555
O9 P1 1.601899 1_556
O10 P2 1.601899 1_555
O11 P3 1.601899 1_554
O12 P4 1.601899 1_555
O13 P5 1.601899 1_554
O14 P6 1.601899 1_555
O15 P7 1.601899 1_556
O16 P0 1.513085 1_655
O17 P1 1.513085 1_555
O18 P2 1.513085 1_555
O19 P3 1.513085 1_455
O20 P4 1.513085 1_455
O21 P5 1.513085 1_555
O22 P6 1.513085 1_555
O23 P7 1.513085 1_655
O24 P0 1.598017 1_555
O25 P1 1.598017 1_555
O26 P2 1.598017 1_555
O27 P3 1.598017 1_555
O28 P4 1.598017 1_555
O29 P5 1.598017 1_555
O30 P6 1.598017 1_555
O31 P7 1.598017 1_555
