# generated using pymatgen
data_HgH4C4(NCl2)2
_symmetry_space_group_name_H-M   'P 1'
_cell_length_a   11.87089800
_cell_length_b   8.65415800
_cell_length_c   16.64302745
_cell_angle_alpha   60.70066943
_cell_angle_beta   90.00000000
_cell_angle_gamma   90.00000000
_symmetry_Int_Tables_number   1
_chemical_formula_structural   HgH4C4(NCl2)2
_chemical_formula_sum   'Hg4 H16 C16 N8 Cl16'
_cell_volume   1491.05805929
_cell_formula_units_Z   4
loop_
 _symmetry_equiv_pos_site_id
 _symmetry_equiv_pos_as_xyz
  1  'x, y, z'
loop_
 _atom_site_type_symbol
 _atom_site_label
 _atom_site_symmetry_multiplicity
 _atom_site_fract_x
 _atom_site_fract_y
 _atom_site_fract_z
 _atom_site_occupancy
  Hg  Hg0  1  0.65540400  0.08013400  0.59734500  1
  Hg  Hg1  1  0.84459600  0.08013400  0.09734500  1
  Hg  Hg2  1  0.34459600  0.91986600  0.40265500  1
  Hg  Hg3  1  0.15540400  0.91986600  0.90265500  1
  H  H0  1  0.03424500  0.55549300  0.10610900  1
  H  H1  1  0.46575500  0.55549300  0.60610900  1
  H  H2  1  0.96575500  0.44450700  0.89389100  1
  H  H3  1  0.53424500  0.44450700  0.39389100  1
  H  H4  1  0.81082900  0.44885700  0.15856500  1
  H  H5  1  0.68917100  0.44885700  0.65856500  1
  H  H6  1  0.18917100  0.55114300  0.84143500  1
  H  H7  1  0.31082900  0.55114300  0.34143500  1
  H  H8  1  0.19266400  0.14411900  0.50942200  1
  H  H9  1  0.30733600  0.14411900  0.00942200  1
  H  H10  1  0.80733600  0.85588100  0.49057800  1
  H  H11  1  0.69266400  0.85588100  0.99057800  1
  H  H12  1  0.23614200  0.42913700  0.58091400  1
  H  H13  1  0.26385800  0.42913700  0.08091400  1
  H  H14  1  0.76385800  0.57086300  0.41908600  1
  H  H15  1  0.73614200  0.57086300  0.91908600  1
  C  C0  1  0.00433500  0.44519500  0.26021600  1
  C  C1  1  0.49566500  0.44519500  0.76021600  1
  C  C2  1  0.99566500  0.55480500  0.73978400  1
  C  C3  1  0.50433500  0.55480500  0.23978400  1
  C  C4  1  0.99736400  0.64821100  0.20861900  1
  C  C5  1  0.50263600  0.64821100  0.70861900  1
  C  C6  1  0.00263600  0.35178900  0.79138100  1
  C  C7  1  0.49736400  0.35178900  0.29138100  1
  C  C8  1  0.05823800  0.17270200  0.59835000  1
  C  C9  1  0.44176200  0.17270200  0.09835000  1
  C  C10  1  0.94176200  0.82729800  0.40165000  1
  C  C11  1  0.55823800  0.82729800  0.90165000  1
  C  C12  1  0.14956900  0.04490300  0.66019500  1
  C  C13  1  0.35043100  0.04490300  0.16019500  1
  C  C14  1  0.85043100  0.95509700  0.33980500  1
  C  C15  1  0.64956900  0.95509700  0.83980500  1
  N  N0  1  0.51951800  0.45144400  0.33094700  1
  N  N1  1  0.98048200  0.45144400  0.83094700  1
  N  N2  1  0.48048200  0.54855600  0.66905300  1
  N  N3  1  0.01951800  0.54855600  0.16905300  1
  N  N4  1  0.65096400  0.87187700  0.93213200  1
  N  N5  1  0.84903600  0.87187700  0.43213200  1
  N  N6  1  0.34903600  0.12812300  0.06786800  1
  N  N7  1  0.15096400  0.12812300  0.56786800  1
  Cl  Cl0  1  0.50424000  0.27437100  0.55213500  1
  Cl  Cl1  1  0.99576000  0.27437100  0.05213500  1
  Cl  Cl2  1  0.49576000  0.72562900  0.44786500  1
  Cl  Cl3  1  0.00424000  0.72562900  0.94786500  1
  Cl  Cl4  1  0.79000300  0.44824000  0.39988400  1
  Cl  Cl5  1  0.70999700  0.44824000  0.89988400  1
  Cl  Cl6  1  0.20999700  0.55176000  0.60011600  1
  Cl  Cl7  1  0.29000300  0.55176000  0.10011600  1
  Cl  Cl8  1  0.28340900  0.58294800  0.86886500  1
  Cl  Cl9  1  0.21659100  0.58294800  0.36886500  1
  Cl  Cl10  1  0.71659100  0.41705200  0.13113500  1
  Cl  Cl11  1  0.78340900  0.41705200  0.63113500  1
  Cl  Cl12  1  0.68836700  0.90850000  0.11712800  1
  Cl  Cl13  1  0.81163300  0.90850000  0.61712800  1
  Cl  Cl14  1  0.31163300  0.09150000  0.88287200  1
  Cl  Cl15  1  0.18836700  0.09150000  0.38287200  1
loop_
_geom_bond_atom_site_label_1
_geom_bond_atom_site_label_2
_geom_bond_distance
_geom_bond_site_symmetry_2
H0 N3 1.034425 1_555
H1 N2 1.034425 1_555
H2 N1 1.034425 1_555
H3 N0 1.034425 1_555
H8 N7 1.038553 1_555
H9 N6 1.038553 1_555
H10 N5 1.038553 1_555
H11 N4 1.038553 1_555
C0 N3 1.343981 1_555
C1 N2 1.343981 1_555
C2 N1 1.343981 1_555
C3 N0 1.343981 1_555
C4 N3 1.342537 1_655
C5 N2 1.342537 1_555
C6 N1 1.342537 1_455
C7 N0 1.342537 1_555
C8 N7 1.345136 1_555
C9 N6 1.345136 1_555
C10 N5 1.345136 1_555
C11 N4 1.345136 1_555
C12 N7 1.340510 1_555
C13 N6 1.340510 1_555
C14 N5 1.340510 1_555
C15 N4 1.340510 1_555
Cl0 Hg0 2.318170 1_555
Cl1 Hg1 2.318170 1_555
Cl2 Hg2 2.318170 1_555
Cl3 Hg3 2.318170 1_555
Cl4 H14 1.287062 1_555
Cl5 H15 1.287062 1_555
Cl6 H12 1.287062 1_555
Cl7 H13 1.287062 1_555
Cl8 H6 1.287874 1_555
Cl9 H7 1.287874 1_555
Cl10 H4 1.287874 1_555
Cl11 H5 1.287874 1_555
Cl12 Hg1 2.296839 1_565
Cl13 Hg0 2.296839 1_565
Cl14 Hg3 2.296839 1_545
Cl15 Hg2 2.296839 1_545
