# generated using pymatgen
data_LiFeF5
_symmetry_space_group_name_H-M   'P 1'
_cell_length_a   5.37373000
_cell_length_b   10.87202300
_cell_length_c   13.51641400
_cell_angle_alpha   90.00000000
_cell_angle_beta   90.00000000
_cell_angle_gamma   90.00000000
_symmetry_Int_Tables_number   1
_chemical_formula_structural   LiFeF5
_chemical_formula_sum   'Li8 Fe8 F40'
_cell_volume   789.67372841
_cell_formula_units_Z   8
loop_
 _symmetry_equiv_pos_site_id
 _symmetry_equiv_pos_as_xyz
  1  'x, y, z'
loop_
 _atom_site_type_symbol
 _atom_site_label
 _atom_site_symmetry_multiplicity
 _atom_site_fract_x
 _atom_site_fract_y
 _atom_site_fract_z
 _atom_site_occupancy
  Li  Li0  1  0.75000000  0.40000000  0.05860300  1
  Li  Li1  1  0.25000000  0.86688100  0.18950400  1
  Li  Li2  1  0.75000000  0.36688100  0.31049600  1
  Li  Li3  1  0.25000000  0.90000000  0.44139700  1
  Li  Li4  1  0.75000000  0.10000000  0.55860300  1
  Li  Li5  1  0.25000000  0.63311900  0.68950400  1
  Li  Li6  1  0.75000000  0.13311900  0.81049600  1
  Li  Li7  1  0.25000000  0.60000000  0.94139700  1
  Fe  Fe0  1  0.25000000  0.17166300  0.05091000  1
  Fe  Fe1  1  0.75000000  0.06088800  0.29427300  1
  Fe  Fe2  1  0.25000000  0.56088800  0.20572700  1
  Fe  Fe3  1  0.75000000  0.67166300  0.44909000  1
  Fe  Fe4  1  0.25000000  0.32833700  0.55091000  1
  Fe  Fe5  1  0.75000000  0.43911200  0.79427300  1
  Fe  Fe6  1  0.25000000  0.93911200  0.70572700  1
  Fe  Fe7  1  0.75000000  0.82833700  0.94909000  1
  F  F0  1  0.01577700  0.29121900  0.05564500  1
  F  F1  1  0.48422300  0.29121900  0.05564500  1
  F  F2  1  0.75000000  0.84851000  0.08340800  1
  F  F3  1  0.01993800  0.06455800  0.09103600  1
  F  F4  1  0.48006200  0.06455800  0.09103600  1
  F  F5  1  0.25000000  0.53619900  0.06904700  1
  F  F6  1  0.02521200  0.68294600  0.21232000  1
  F  F7  1  0.47478800  0.68294600  0.21232000  1
  F  F8  1  0.00666800  0.44724200  0.22699000  1
  F  F9  1  0.49333200  0.44724200  0.22699000  1
  F  F10  1  0.50666800  0.94724200  0.27301000  1
  F  F11  1  0.99333200  0.94724200  0.27301000  1
  F  F12  1  0.52521200  0.18294600  0.28768000  1
  F  F13  1  0.97478800  0.18294600  0.28768000  1
  F  F14  1  0.75000000  0.03619900  0.43095300  1
  F  F15  1  0.51993800  0.56455800  0.40896400  1
  F  F16  1  0.98006200  0.56455800  0.40896400  1
  F  F17  1  0.25000000  0.34851000  0.41659200  1
  F  F18  1  0.51577700  0.79121900  0.44435500  1
  F  F19  1  0.98422300  0.79121900  0.44435500  1
  F  F20  1  0.01577700  0.20878100  0.55564500  1
  F  F21  1  0.48422300  0.20878100  0.55564500  1
  F  F22  1  0.75000000  0.65149000  0.58340800  1
  F  F23  1  0.01993800  0.43544200  0.59103600  1
  F  F24  1  0.48006200  0.43544200  0.59103600  1
  F  F25  1  0.25000000  0.96380100  0.56904700  1
  F  F26  1  0.02521200  0.81705400  0.71232000  1
  F  F27  1  0.47478800  0.81705400  0.71232000  1
  F  F28  1  0.00666800  0.05275800  0.72699000  1
  F  F29  1  0.49333200  0.05275800  0.72699000  1
  F  F30  1  0.50666800  0.55275800  0.77301000  1
  F  F31  1  0.99333200  0.55275800  0.77301000  1
  F  F32  1  0.52521200  0.31705400  0.78768000  1
  F  F33  1  0.97478800  0.31705400  0.78768000  1
  F  F34  1  0.75000000  0.46380100  0.93095300  1
  F  F35  1  0.51993800  0.93544200  0.90896400  1
  F  F36  1  0.98006200  0.93544200  0.90896400  1
  F  F37  1  0.25000000  0.15149000  0.91659200  1
  F  F38  1  0.51577700  0.70878100  0.94435500  1
  F  F39  1  0.98422300  0.70878100  0.94435500  1
loop_
_geom_bond_atom_site_label_1
_geom_bond_atom_site_label_2
_geom_bond_distance
_geom_bond_site_symmetry_2
F0 Fe0 1.810475 1_555
F0 Li0 1.854751 1_455
F1 Fe0 1.810475 1_555
F1 Li0 1.854751 1_555
F2 Fe7 1.828697 1_554
F3 Fe0 1.782837 1_555
F4 Fe0 1.782837 1_555
F5 Li7 1.859583 1_554
F5 Fe2 1.866821 1_555
F6 Fe2 1.796680 1_555
F6 Li1 2.356529 1_555
F7 Fe2 1.796680 1_555
F7 Li1 2.356529 1_555
F8 Fe2 1.821821 1_555
F8 Li2 1.984859 1_455
F9 Fe2 1.821821 1_555
F9 Li2 1.984859 1_555
F10 Fe1 1.821821 1_565
F10 Li1 1.984859 1_555
F11 Fe1 1.821821 1_565
F11 Li1 1.984859 1_655
F12 Fe1 1.796680 1_555
F12 Li2 2.356529 1_555
F13 Fe1 1.796680 1_555
F13 Li2 2.356529 1_555
F14 Li4 1.859583 1_555
F14 Fe1 1.866821 1_555
F15 Fe3 1.782837 1_555
F16 Fe3 1.782837 1_555
F17 Fe4 1.828697 1_555
F18 Fe3 1.810475 1_555
F18 Li3 1.854751 1_555
F19 Fe3 1.810475 1_555
F19 Li3 1.854751 1_655
F20 Fe4 1.810475 1_555
F20 Li4 1.854751 1_455
F21 Fe4 1.810475 1_555
F21 Li4 1.854751 1_555
F22 Fe3 1.828697 1_555
F23 Fe4 1.782837 1_555
F24 Fe4 1.782837 1_555
F25 Li3 1.859583 1_555
F25 Fe6 1.866821 1_555
F26 Fe6 1.796680 1_555
F26 Li5 2.356529 1_555
F27 Fe6 1.796680 1_555
F27 Li5 2.356529 1_555
F28 Fe6 1.821821 1_545
F28 Li6 1.984859 1_455
F29 Fe6 1.821821 1_545
F29 Li6 1.984859 1_555
F30 Fe5 1.821821 1_555
F30 Li5 1.984859 1_555
F31 Fe5 1.821821 1_555
F31 Li5 1.984859 1_655
F32 Fe5 1.796680 1_555
F32 Li6 2.356529 1_555
F33 Fe5 1.796680 1_555
F33 Li6 2.356529 1_555
F34 Li0 1.859583 1_556
F34 Fe5 1.866821 1_555
F35 Fe7 1.782837 1_555
F36 Fe7 1.782837 1_555
F37 Fe0 1.828697 1_556
F38 Fe7 1.810475 1_555
F38 Li7 1.854751 1_555
F39 Fe7 1.810475 1_555
F39 Li7 1.854751 1_655
