# generated using pymatgen
data_Li2V(SiO3)2
_symmetry_space_group_name_H-M   'P 1'
_cell_length_a   7.17623400
_cell_length_b   10.14003800
_cell_length_c   10.14694500
_cell_angle_alpha   90.00000000
_cell_angle_beta   90.00000000
_cell_angle_gamma   90.00000000
_symmetry_Int_Tables_number   1
_chemical_formula_structural   Li2V(SiO3)2
_chemical_formula_sum   'Li12 V6 Si12 O36'
_cell_volume   738.36564333
_cell_formula_units_Z   6
loop_
 _symmetry_equiv_pos_site_id
 _symmetry_equiv_pos_as_xyz
  1  'x, y, z'
loop_
 _atom_site_type_symbol
 _atom_site_label
 _atom_site_symmetry_multiplicity
 _atom_site_fract_x
 _atom_site_fract_y
 _atom_site_fract_z
 _atom_site_occupancy
  Li  Li0  1  0.49715500  0.49962200  0.00000000  1
  Li  Li1  1  0.75043100  0.75347800  0.00000000  1
  Li  Li2  1  0.30193900  0.45102700  0.21741700  1
  Li  Li3  1  0.74983100  0.50684400  0.21988400  1
  Li  Li4  1  0.25016900  0.00684400  0.28011600  1
  Li  Li5  1  0.69806100  0.95102700  0.28258300  1
  Li  Li6  1  0.24956900  0.25347800  0.50000000  1
  Li  Li7  1  0.50284500  0.99962200  0.50000000  1
  Li  Li8  1  0.69806100  0.95102700  0.71741700  1
  Li  Li9  1  0.25016900  0.00684400  0.71988400  1
  Li  Li10  1  0.74983100  0.50684400  0.78011600  1
  Li  Li11  1  0.30193900  0.45102700  0.78258300  1
  V  V0  1  0.97962300  0.01483400  0.00000000  1
  V  V1  1  0.24738100  0.24499000  0.00000000  1
  V  V2  1  0.72788400  0.25386600  0.00000000  1
  V  V3  1  0.02037700  0.51483400  0.50000000  1
  V  V4  1  0.27211600  0.75386600  0.50000000  1
  V  V5  1  0.75261900  0.74499000  0.50000000  1
  Si  Si0  1  0.98734400  0.53447700  0.00000000  1
  Si  Si1  1  0.50734100  0.95722300  0.00000000  1
  Si  Si2  1  0.02159000  0.75679000  0.22568600  1
  Si  Si3  1  0.46259600  0.74038000  0.22214400  1
  Si  Si4  1  0.53740400  0.24038000  0.27785600  1
  Si  Si5  1  0.97841000  0.25679000  0.27431400  1
  Si  Si6  1  0.49265900  0.45722300  0.50000000  1
  Si  Si7  1  0.01265600  0.03447700  0.50000000  1
  Si  Si8  1  0.97841000  0.25679000  0.72568600  1
  Si  Si9  1  0.53740400  0.24038000  0.72214400  1
  Si  Si10  1  0.46259600  0.74038000  0.77785600  1
  Si  Si11  1  0.02159000  0.75679000  0.77431400  1
  O  O0  1  0.30195000  0.02431500  0.00000000  1
  O  O1  1  0.18805900  0.46307300  0.00000000  1
  O  O2  1  0.68500100  0.05470500  0.00000000  1
  O  O3  1  0.79496300  0.45136300  0.00000000  1
  O  O4  1  0.55844000  0.85194000  0.12260100  1
  O  O5  1  0.94632000  0.63625200  0.12718600  1
  O  O6  1  0.00768100  0.20200500  0.12529500  1
  O  O7  1  0.47665300  0.28842200  0.13110300  1
  O  O8  1  0.51080200  0.59151100  0.17812300  1
  O  O9  1  0.92722100  0.89471500  0.18188200  1
  O  O10  1  0.24393000  0.78014000  0.20317800  1
  O  O11  1  0.75607000  0.28014000  0.29682200  1
  O  O12  1  0.07277900  0.39471500  0.31811800  1
  O  O13  1  0.48919800  0.09151100  0.32187700  1
  O  O14  1  0.52334700  0.78842200  0.36889700  1
  O  O15  1  0.99231900  0.70200500  0.37470500  1
  O  O16  1  0.05368000  0.13625200  0.37281400  1
  O  O17  1  0.44156000  0.35194000  0.37739900  1
  O  O18  1  0.69805000  0.52431500  0.50000000  1
  O  O19  1  0.31499900  0.55470500  0.50000000  1
  O  O20  1  0.81194100  0.96307300  0.50000000  1
  O  O21  1  0.20503700  0.95136300  0.50000000  1
  O  O22  1  0.44156000  0.35194000  0.62260100  1
  O  O23  1  0.05368000  0.13625200  0.62718600  1
  O  O24  1  0.99231900  0.70200500  0.62529500  1
  O  O25  1  0.52334700  0.78842200  0.63110300  1
  O  O26  1  0.48919800  0.09151100  0.67812300  1
  O  O27  1  0.07277900  0.39471500  0.68188200  1
  O  O28  1  0.75607000  0.28014000  0.70317800  1
  O  O29  1  0.24393000  0.78014000  0.79682200  1
  O  O30  1  0.92722100  0.89471500  0.81811800  1
  O  O31  1  0.51080200  0.59151100  0.82187700  1
  O  O32  1  0.47665300  0.28842200  0.86889700  1
  O  O33  1  0.00768100  0.20200500  0.87470500  1
  O  O34  1  0.94632000  0.63625200  0.87281400  1
  O  O35  1  0.55844000  0.85194000  0.87739900  1
loop_
_geom_bond_atom_site_label_1
_geom_bond_atom_site_label_2
_geom_bond_distance
_geom_bond_site_symmetry_2
Li0 O8 2.035798 1_555
Li0 O31 2.035798 1_554
Li0 O3 2.192448 1_555
Li0 O1 2.248893 1_555
Li0 O32 2.525407 1_554
Li0 O7 2.525407 1_555
Li1 O35 2.107766 1_554
Li1 O4 2.107766 1_555
Li1 O34 2.248241 1_554
Li1 O5 2.248241 1_555
Li2 O12 2.018548 1_555
Li2 O8 2.105887 1_555
Li2 O17 2.156066 1_555
Li2 O7 2.248925 1_555
Li2 O1 2.355789 1_555
Li3 O8 1.964429 1_555
Li3 O5 2.143560 1_555
Li3 O3 2.323667 1_555
Li3 O11 2.428147 1_555
Li4 O13 1.964429 1_555
Li4 O16 2.143560 1_555
Li4 O21 2.323667 1_545
Li4 O10 2.428147 1_545
Li5 O9 2.018548 1_555
Li5 O13 2.105887 1_565
Li5 O4 2.156066 1_555
Li5 O14 2.248925 1_555
Li5 O20 2.355789 1_555
Li6 O22 2.107766 1_555
Li6 O17 2.107766 1_555
Li6 O23 2.248241 1_555
Li6 O16 2.248241 1_555
Li7 O13 2.035798 1_565
Li7 O26 2.035798 1_565
Li7 O21 2.192448 1_555
Li7 O20 2.248893 1_555
Li7 O25 2.525407 1_555
Li7 O14 2.525407 1_555
Li8 O30 2.018548 1_555
Li8 O26 2.105887 1_565
Li8 O35 2.156066 1_555
Li8 O25 2.248925 1_555
Li8 O20 2.355789 1_555
Li9 O26 1.964429 1_555
Li9 O23 2.143560 1_555
Li9 O21 2.323667 1_545
Li9 O29 2.428147 1_545
Li10 O31 1.964429 1_555
Li10 O34 2.143560 1_555
Li10 O3 2.323667 1_556
Li10 O28 2.428147 1_555
Li11 O27 2.018548 1_555
Li11 O31 2.105887 1_555
Li11 O22 2.156066 1_555
Li11 O32 2.248925 1_555
Li11 O1 2.355789 1_556
O0 Si1 1.623364 1_545
O0 V1 2.271660 1_555
O0 V0 2.315091 1_455
O1 Si0 1.612117 1_455
O1 V1 2.251973 1_555
O2 Si1 1.613233 1_545
O2 V2 2.042813 1_555
O2 V0 2.152584 1_555
O3 Si0 1.617484 1_555
O3 V2 2.059669 1_555
O4 Si3 1.665217 1_555
O4 Si1 1.679816 1_555
O5 Si2 1.668723 1_655
O5 Si0 1.678457 1_555
O6 Si5 1.624542 1_455
O6 V1 2.182942 1_555
O6 V0 2.293252 1_455
O6 V2 2.434034 1_455
O7 Si4 1.626278 1_555
O7 V1 2.161176 1_555
O7 V2 2.267793 1_555
O8 Si3 1.611799 1_555
O9 Si2 1.616218 1_655
O9 V0 2.242991 1_565
O10 Si2 1.629124 1_555
O10 Si3 1.631553 1_555
O11 Si5 1.629124 1_555
O11 Si4 1.631553 1_555
O12 Si5 1.616218 1_455
O12 V3 2.242991 1_555
O13 Si4 1.611799 1_555
O14 Si3 1.626278 1_555
O14 V5 2.161176 1_555
O14 V4 2.267793 1_555
O15 Si2 1.624542 1_655
O15 V5 2.182942 1_555
O15 V3 2.293252 1_655
O15 V4 2.434034 1_655
O16 Si5 1.668723 1_455
O16 Si7 1.678457 1_555
O17 Si4 1.665217 1_555
O17 Si6 1.679816 1_555
O18 Si6 1.623364 1_555
O18 V5 2.271660 1_555
O18 V3 2.315091 1_655
O19 Si6 1.613233 1_555
O19 V4 2.042813 1_555
O19 V3 2.152584 1_555
O20 Si7 1.612117 1_665
O20 V5 2.251973 1_555
O21 Si7 1.617484 1_565
O21 V4 2.059669 1_555
O22 Si9 1.665217 1_555
O22 Si6 1.679816 1_555
O23 Si8 1.668723 1_455
O23 Si7 1.678457 1_555
O24 Si11 1.624542 1_655
O24 V5 2.182942 1_555
O24 V3 2.293252 1_655
O24 V4 2.434034 1_655
O25 Si10 1.626278 1_555
O25 V5 2.161176 1_555
O25 V4 2.267793 1_555
O26 Si9 1.611799 1_555
O27 Si8 1.616218 1_455
O27 V3 2.242991 1_555
O28 Si8 1.629124 1_555
O28 Si9 1.631553 1_555
O29 Si11 1.629124 1_555
O29 Si10 1.631553 1_555
O30 Si11 1.616218 1_655
O30 V0 2.242991 1_566
O31 Si10 1.611799 1_555
O32 Si9 1.626278 1_555
O32 V1 2.161176 1_556
O32 V2 2.267793 1_556
O33 Si8 1.624542 1_455
O33 V1 2.182942 1_556
O33 V0 2.293252 1_456
O33 V2 2.434034 1_456
O34 Si11 1.668723 1_655
O34 Si0 1.678457 1_556
O35 Si10 1.665217 1_555
O35 Si1 1.679816 1_556
