# generated using pymatgen
data_Sr4Ta2O9
_symmetry_space_group_name_H-M   'P 1'
_cell_length_a   5.81199300
_cell_length_b   10.22895600
_cell_length_c   17.90492959
_cell_angle_alpha   55.97932219
_cell_angle_beta   90.00000000
_cell_angle_gamma   90.00000000
_symmetry_Int_Tables_number   1
_chemical_formula_structural   Sr4Ta2O9
_chemical_formula_sum   'Sr16 Ta8 O36'
_cell_volume   882.26177613
_cell_formula_units_Z   4
loop_
 _symmetry_equiv_pos_site_id
 _symmetry_equiv_pos_as_xyz
  1  'x, y, z'
loop_
 _atom_site_type_symbol
 _atom_site_label
 _atom_site_symmetry_multiplicity
 _atom_site_fract_x
 _atom_site_fract_y
 _atom_site_fract_z
 _atom_site_occupancy
  Sr  Sr0  1  0.00000000  0.50000000  0.50000000  1
  Sr  Sr1  1  0.00000000  0.00000000  0.00000000  1
  Sr  Sr2  1  0.00036900  0.77751900  0.23379400  1
  Sr  Sr3  1  0.48306100  0.54857500  0.60389100  1
  Sr  Sr4  1  0.51446100  0.11297700  0.07648100  1
  Sr  Sr5  1  0.01446100  0.88702300  0.42351900  1
  Sr  Sr6  1  0.98306100  0.45142500  0.89610900  1
  Sr  Sr7  1  0.50036900  0.22248100  0.26620600  1
  Sr  Sr8  1  0.50000000  0.00000000  0.50000000  1
  Sr  Sr9  1  0.49963100  0.77751900  0.73379400  1
  Sr  Sr10  1  0.50000000  0.50000000  0.00000000  1
  Sr  Sr11  1  0.01693900  0.54857500  0.10389100  1
  Sr  Sr12  1  0.98553900  0.11297700  0.57648100  1
  Sr  Sr13  1  0.48553900  0.88702300  0.92351900  1
  Sr  Sr14  1  0.51693900  0.45142500  0.39610900  1
  Sr  Sr15  1  0.99963100  0.22248100  0.76620600  1
  Ta  Ta0  1  0.49192000  0.32966700  0.83282000  1
  Ta  Ta1  1  0.50923300  0.83531500  0.33263400  1
  Ta  Ta2  1  0.99192000  0.67033300  0.66718000  1
  Ta  Ta3  1  0.00923300  0.16468500  0.16736600  1
  Ta  Ta4  1  0.99076700  0.83531500  0.83263400  1
  Ta  Ta5  1  0.00808000  0.32966700  0.33282000  1
  Ta  Ta6  1  0.49076700  0.16468500  0.66736600  1
  Ta  Ta7  1  0.50808000  0.67033300  0.16718000  1
  O  O0  1  0.56900300  0.26799100  0.73916500  1
  O  O1  1  0.31957900  0.13594600  0.89595400  1
  O  O2  1  0.78242200  0.70275900  0.37254500  1
  O  O3  1  0.32956900  0.67938600  0.43600400  1
  O  O4  1  0.77384500  0.23488700  0.89970800  1
  O  O5  1  0.10102300  0.06258000  0.10788500  1
  O  O6  1  0.90117200  0.61522900  0.58383100  1
  O  O7  1  0.21033000  0.46359800  0.75096500  1
  O  O8  1  0.72318500  0.01807200  0.22323400  1
  O  O9  1  0.22318500  0.98192800  0.27676600  1
  O  O10  1  0.71033000  0.53640200  0.74903500  1
  O  O11  1  0.40117200  0.38477100  0.91616900  1
  O  O12  1  0.60102300  0.93742000  0.39211500  1
  O  O13  1  0.27384500  0.76511300  0.60029200  1
  O  O14  1  0.82956900  0.32061400  0.06399600  1
  O  O15  1  0.28242200  0.29724100  0.12745500  1
  O  O16  1  0.81957900  0.86405400  0.60404600  1
  O  O17  1  0.06900300  0.73200900  0.76083500  1
  O  O18  1  0.93099700  0.26799100  0.23916500  1
  O  O19  1  0.18042100  0.13594600  0.39595400  1
  O  O20  1  0.71757800  0.70275900  0.87254500  1
  O  O21  1  0.17043100  0.67938600  0.93600400  1
  O  O22  1  0.72615500  0.23488700  0.39970800  1
  O  O23  1  0.39897700  0.06258000  0.60788500  1
  O  O24  1  0.59882800  0.61522900  0.08383100  1
  O  O25  1  0.28967000  0.46359800  0.25096500  1
  O  O26  1  0.77681500  0.01807200  0.72323400  1
  O  O27  1  0.27681500  0.98192800  0.77676600  1
  O  O28  1  0.78967000  0.53640200  0.24903500  1
  O  O29  1  0.09882800  0.38477100  0.41616900  1
  O  O30  1  0.89897700  0.93742000  0.89211500  1
  O  O31  1  0.22615500  0.76511300  0.10029200  1
  O  O32  1  0.67043100  0.32061400  0.56399600  1
  O  O33  1  0.21757800  0.29724100  0.62745500  1
  O  O34  1  0.68042100  0.86405400  0.10404600  1
  O  O35  1  0.43099700  0.73200900  0.26083500  1
loop_
_geom_bond_atom_site_label_1
_geom_bond_atom_site_label_2
_geom_bond_distance
_geom_bond_site_symmetry_2
O0 Ta6 2.120413 1_555
O0 Ta0 2.143469 1_555
O0 Sr15 2.542236 1_555
O0 Sr3 2.564103 1_555
O1 Ta0 1.923853 1_555
O1 Sr1 2.440359 1_556
O1 Sr13 2.500200 1_545
O1 Sr15 2.708744 1_455
O2 Ta1 1.945750 1_555
O2 Sr0 2.410870 1_655
O2 Sr2 2.497071 1_655
O2 Sr14 2.820375 1_555
O2 Sr5 2.851186 1_655
O3 Ta1 1.938204 1_555
O3 Sr0 2.448709 1_555
O3 Sr3 2.668615 1_555
O3 Sr5 2.717303 1_555
O3 Sr14 2.999549 1_555
O4 Ta0 1.939025 1_555
O4 Sr1 2.428409 1_656
O4 Sr6 2.495804 1_555
O4 Sr15 2.791293 1_555
O4 Sr4 3.070679 1_556
O5 Ta3 1.937610 1_555
O5 Sr1 2.422707 1_555
O5 Sr4 2.455908 1_555
O5 Sr2 2.563429 1_545
O6 Ta2 1.940176 1_555
O6 Sr0 2.439638 1_655
O6 Sr3 2.494999 1_555
O6 Sr5 2.733549 1_655
O7 Ta0 2.111053 1_555
O7 Ta2 2.187216 1_455
O7 Sr15 2.627536 1_455
O7 Sr3 2.764296 1_555
O7 Sr6 2.855148 1_455
O8 Ta3 2.082064 1_655
O8 Ta1 2.186403 1_545
O8 Sr4 2.542439 1_555
O8 Sr2 2.857451 1_645
O8 Sr7 2.905344 1_555
O9 Ta1 2.082064 1_555
O9 Ta3 2.186403 1_565
O9 Sr5 2.542439 1_555
O9 Sr7 2.857451 1_565
O9 Sr2 2.905344 1_555
O10 Ta2 2.111053 1_555
O10 Ta0 2.187216 1_555
O10 Sr9 2.627536 1_555
O10 Sr6 2.764296 1_555
O10 Sr3 2.855148 1_555
O11 Ta0 1.940176 1_555
O11 Sr10 2.439638 1_556
O11 Sr6 2.494999 1_455
O11 Sr4 2.733549 1_556
O12 Ta1 1.937610 1_555
O12 Sr8 2.422707 1_565
O12 Sr5 2.455908 1_655
O12 Sr7 2.563429 1_565
O13 Ta2 1.939025 1_455
O13 Sr8 2.428409 1_565
O13 Sr3 2.495804 1_555
O13 Sr9 2.791293 1_555
O13 Sr5 3.070679 1_555
O14 Ta3 1.938204 1_655
O14 Sr10 2.448709 1_555
O14 Sr6 2.668615 1_554
O14 Sr4 2.717303 1_555
O14 Sr11 2.999549 1_655
O15 Ta3 1.945750 1_555
O15 Sr10 2.410870 1_555
O15 Sr7 2.497071 1_555
O15 Sr11 2.820375 1_555
O15 Sr4 2.851186 1_555
O16 Ta2 1.923853 1_555
O16 Sr8 2.440359 1_565
O16 Sr12 2.500200 1_565
O16 Sr9 2.708744 1_555
O17 Ta4 2.120413 1_455
O17 Ta2 2.143469 1_455
O17 Sr9 2.542236 1_555
O17 Sr6 2.564103 1_455
O18 Ta3 2.120413 1_655
O18 Ta5 2.143469 1_655
O18 Sr7 2.542236 1_555
O18 Sr11 2.564103 1_655
O19 Ta5 1.923853 1_555
O19 Sr8 2.440359 1_555
O19 Sr5 2.500200 1_545
O19 Sr7 2.708744 1_555
O20 Ta4 1.945750 1_555
O20 Sr10 2.410870 1_556
O20 Sr9 2.497071 1_555
O20 Sr6 2.820375 1_555
O20 Sr13 2.851186 1_555
O21 Ta4 1.938204 1_455
O21 Sr10 2.448709 1_556
O21 Sr11 2.668615 1_556
O21 Sr13 2.717303 1_555
O21 Sr6 2.999549 1_455
O22 Ta5 1.939025 1_655
O22 Sr8 2.428409 1_555
O22 Sr14 2.495804 1_555
O22 Sr7 2.791293 1_555
O22 Sr12 3.070679 1_555
O23 Ta6 1.937610 1_555
O23 Sr8 2.422707 1_555
O23 Sr12 2.455908 1_455
O23 Sr9 2.563429 1_545
O24 Ta7 1.940176 1_555
O24 Sr10 2.439638 1_555
O24 Sr11 2.494999 1_655
O24 Sr13 2.733549 1_554
O25 Ta5 2.111053 1_555
O25 Ta7 2.187216 1_555
O25 Sr7 2.627536 1_555
O25 Sr11 2.764296 1_555
O25 Sr14 2.855148 1_555
O26 Ta6 2.082064 1_555
O26 Ta4 2.186403 1_545
O26 Sr12 2.542439 1_555
O26 Sr9 2.857451 1_545
O26 Sr15 2.905344 1_555
O27 Ta4 2.082064 1_455
O27 Ta6 2.186403 1_565
O27 Sr13 2.542439 1_555
O27 Sr15 2.857451 1_465
O27 Sr9 2.905344 1_555
O28 Ta7 2.111053 1_555
O28 Ta5 2.187216 1_655
O28 Sr2 2.627536 1_655
O28 Sr14 2.764296 1_555
O28 Sr11 2.855148 1_655
O29 Ta5 1.940176 1_555
O29 Sr0 2.439638 1_555
O29 Sr14 2.494999 1_555
O29 Sr12 2.733549 1_455
O30 Ta4 1.937610 1_555
O30 Sr1 2.422707 1_666
O30 Sr13 2.455908 1_555
O30 Sr15 2.563429 1_565
O31 Ta7 1.939025 1_555
O31 Sr1 2.428409 1_565
O31 Sr11 2.495804 1_555
O31 Sr2 2.791293 1_555
O31 Sr13 3.070679 1_554
O32 Ta6 1.938204 1_555
O32 Sr0 2.448709 1_655
O32 Sr14 2.668615 1_555
O32 Sr12 2.717303 1_555
O32 Sr3 2.999549 1_555
O33 Ta6 1.945750 1_555
O33 Sr0 2.410870 1_555
O33 Sr15 2.497071 1_455
O33 Sr3 2.820375 1_555
O33 Sr12 2.851186 1_455
O34 Ta7 1.923853 1_555
O34 Sr1 2.440359 1_665
O34 Sr4 2.500200 1_565
O34 Sr2 2.708744 1_655
O35 Ta1 2.120413 1_555
O35 Ta7 2.143469 1_555
O35 Sr2 2.542236 1_555
O35 Sr14 2.564103 1_555
