# generated using pymatgen
data_Zr3N2O3
_symmetry_space_group_name_H-M   'P 1'
_cell_length_a   5.77735648
_cell_length_b   5.77735648
_cell_length_c   10.89214300
_cell_angle_alpha   90.00000000
_cell_angle_beta   90.00000000
_cell_angle_gamma   139.38498308
_symmetry_Int_Tables_number   1
_chemical_formula_structural   Zr3N2O3
_chemical_formula_sum   'Zr6 N4 O6'
_cell_volume   236.66540150
_cell_formula_units_Z   2
loop_
 _symmetry_equiv_pos_site_id
 _symmetry_equiv_pos_as_xyz
  1  'x, y, z'
loop_
 _atom_site_type_symbol
 _atom_site_label
 _atom_site_symmetry_multiplicity
 _atom_site_fract_x
 _atom_site_fract_y
 _atom_site_fract_z
 _atom_site_occupancy
  Zr  Zr0  1  0.13612700  0.86387300  0.93981400  1
  Zr  Zr1  1  0.13553900  0.86446100  0.55380600  1
  Zr  Zr2  1  0.18622100  0.81377900  0.24889800  1
  Zr  Zr3  1  0.81377900  0.18622100  0.74889800  1
  Zr  Zr4  1  0.86446100  0.13553900  0.05380600  1
  Zr  Zr5  1  0.86387300  0.13612700  0.43981400  1
  N  N0  1  0.04699900  0.95300100  0.38519700  1
  N  N1  1  0.70532700  0.29467300  0.57562500  1
  N  N2  1  0.29467300  0.70532700  0.07562500  1
  N  N3  1  0.95300100  0.04699900  0.88519700  1
  O  O0  1  0.04484100  0.95515900  0.11702200  1
  O  O1  1  0.69275600  0.30724400  0.91967100  1
  O  O2  1  0.75645600  0.24354400  0.25996700  1
  O  O3  1  0.24354400  0.75645600  0.75996700  1
  O  O4  1  0.30724400  0.69275600  0.41967100  1
  O  O5  1  0.95515900  0.04484100  0.61702200  1
loop_
_geom_bond_atom_site_label_1
_geom_bond_atom_site_label_2
_geom_bond_distance
_geom_bond_site_symmetry_2
N0 Zr5 2.071698 1_465
N0 Zr1 2.072041 1_555
N0 Zr2 2.116629 1_555
N1 Zr1 2.156098 1_655
N1 Zr1 2.156098 1_545
N1 Zr3 2.223319 1_555
N1 Zr5 2.267171 1_555
N2 Zr4 2.156098 1_565
N2 Zr4 2.156098 1_455
N2 Zr2 2.223319 1_555
N2 Zr0 2.267171 1_554
N3 Zr0 2.071698 1_645
N3 Zr4 2.072041 1_556
N3 Zr3 2.116629 1_555
O0 Zr4 2.072420 1_465
O0 Zr2 2.100121 1_555
O0 Zr0 2.168902 1_554
O1 Zr0 2.108333 1_545
O1 Zr0 2.108333 1_655
O1 Zr3 2.275930 1_555
O1 Zr4 2.365738 1_556
O2 Zr2 2.148060 1_655
O2 Zr2 2.148060 1_545
O2 Zr5 2.278666 1_555
O2 Zr4 2.532244 1_555
O3 Zr3 2.148060 1_455
O3 Zr3 2.148060 1_565
O3 Zr0 2.278666 1_555
O3 Zr1 2.532244 1_555
O4 Zr5 2.108333 1_565
O4 Zr5 2.108333 1_455
O4 Zr2 2.275930 1_555
O4 Zr1 2.365738 1_555
O5 Zr1 2.072420 1_645
O5 Zr3 2.100121 1_555
O5 Zr5 2.168902 1_555
