# generated using pymatgen
data_Li2Ni(CO3)2
_symmetry_space_group_name_H-M   'P 1'
_cell_length_a   5.18271667
_cell_length_b   6.43857936
_cell_length_c   15.51718708
_cell_angle_alpha   89.96850640
_cell_angle_beta   90.05843588
_cell_angle_gamma   66.67999626
_symmetry_Int_Tables_number   1
_chemical_formula_structural   Li2Ni(CO3)2
_chemical_formula_sum   'Li8 Ni4 C8 O24'
_cell_volume   475.49782218
_cell_formula_units_Z   4
loop_
 _symmetry_equiv_pos_site_id
 _symmetry_equiv_pos_as_xyz
  1  'x, y, z'
loop_
 _atom_site_type_symbol
 _atom_site_label
 _atom_site_symmetry_multiplicity
 _atom_site_fract_x
 _atom_site_fract_y
 _atom_site_fract_z
 _atom_site_occupancy
  Li  Li0  1  0.33913800  0.26383300  0.46206100  1
  Li  Li1  1  0.33916400  0.26388200  0.96208300  1
  Li  Li2  1  0.15189700  0.24861400  0.21199200  1
  Li  Li3  1  0.15184200  0.24858900  0.71203800  1
  Li  Li4  1  0.82229900  0.79912300  0.28204500  1
  Li  Li5  1  0.82234300  0.79894700  0.78202500  1
  Li  Li6  1  0.65780800  0.73709900  0.03687800  1
  Li  Li7  1  0.65772500  0.73704000  0.53686300  1
  Ni  Ni0  1  0.49812200  0.50159000  0.75080400  1
  Ni  Ni1  1  0.99703100  0.00436400  0.00017700  1
  Ni  Ni2  1  0.49840900  0.50144800  0.25096200  1
  Ni  Ni3  1  0.99618800  0.00492700  0.50022200  1
  C  C0  1  0.70870000  0.13754300  0.13145900  1
  C  C1  1  0.70849600  0.13756900  0.63156000  1
  C  C2  1  0.78794200  0.36594500  0.38115300  1
  C  C3  1  0.78790300  0.36583700  0.88111900  1
  C  C4  1  0.20869300  0.63903700  0.11954100  1
  C  C5  1  0.20852800  0.63905900  0.61950900  1
  C  C6  1  0.28624300  0.86781300  0.36925700  1
  C  C7  1  0.28643400  0.86763400  0.86915100  1
  O  O0  1  0.96507300  0.12351800  0.12805300  1
  O  O1  1  0.96486500  0.12358300  0.62812400  1
  O  O2  1  0.60270300  0.09705900  0.05994500  1
  O  O3  1  0.60241500  0.09725900  0.56001800  1
  O  O4  1  0.56605300  0.18073800  0.20237400  1
  O  O5  1  0.56594200  0.18063400  0.70246500  1
  O  O6  1  0.93211000  0.32072000  0.45170800  1
  O  O7  1  0.93223300  0.32047400  0.95166300  1
  O  O8  1  0.89254600  0.40456800  0.30932600  1
  O  O9  1  0.89246100  0.40450200  0.80927600  1
  O  O10  1  0.52977700  0.38259800  0.37829200  1
  O  O11  1  0.52974400  0.38257700  0.87827300  1
  O  O12  1  0.46664100  0.62131000  0.12292400  1
  O  O13  1  0.46658800  0.62120900  0.62288400  1
  O  O14  1  0.10358800  0.59689300  0.19122300  1
  O  O15  1  0.10353400  0.59681100  0.69120900  1
  O  O16  1  0.43182300  0.81874800  0.29925600  1
  O  O17  1  0.43196000  0.81863400  0.79913300  1
  O  O18  1  0.06264700  0.68839500  0.04954300  1
  O  O19  1  0.06244700  0.68857800  0.54956600  1
  O  O20  1  0.39083700  0.91037100  0.44088100  1
  O  O21  1  0.39113400  0.91014500  0.94077500  1
  O  O22  1  0.02838200  0.88516200  0.37244900  1
  O  O23  1  0.02864700  0.88492700  0.87237700  1
loop_
_geom_bond_atom_site_label_1
_geom_bond_atom_site_label_2
_geom_bond_distance
_geom_bond_site_symmetry_2
Li0 O10 1.962209 1_555
Li0 O6 1.999377 1_455
Li0 O3 2.039089 1_555
Li0 O20 2.208452 1_545
Li1 O11 1.962164 1_555
Li1 O7 1.999412 1_455
Li1 O2 2.039036 1_556
Li1 O21 2.210087 1_545
Li2 O0 1.974534 1_455
Li2 O8 2.008322 1_455
Li2 O4 2.019545 1_555
Li2 O14 2.179343 1_555
Li3 O1 1.974445 1_455
Li3 O9 2.007212 1_455
Li3 O5 2.019106 1_555
Li3 O15 2.179121 1_555
Li4 O22 1.970227 1_655
Li4 O16 1.995355 1_555
Li4 O14 2.076092 1_655
Li4 O8 2.455911 1_555
Li4 O4 2.595964 1_565
Li5 O23 1.970212 1_655
Li5 O17 1.994529 1_555
Li5 O15 2.075586 1_655
Li5 O9 2.455315 1_555
Li5 O5 2.595601 1_565
Li6 O12 1.976499 1_555
Li6 O18 2.004352 1_655
Li6 O21 2.037198 1_554
Li6 O2 2.249037 1_565
Li7 O13 1.976291 1_555
Li7 O19 2.004214 1_655
Li7 O20 2.036848 1_555
Li7 O3 2.250592 1_565
Ni0 O17 2.072428 1_555
Ni0 O9 2.091650 1_555
Ni0 O5 2.093743 1_555
Ni0 O15 2.101444 1_555
Ni0 O11 2.103475 1_555
Ni0 O13 2.111384 1_555
Ni1 O7 2.068471 1_554
Ni1 O18 2.071519 1_645
Ni1 O21 2.100710 1_644
Ni1 O2 2.105179 1_555
Ni1 O23 2.110323 1_644
Ni1 O0 2.110709 1_555
Ni2 O16 2.073255 1_555
Ni2 O8 2.090145 1_555
Ni2 O4 2.093879 1_555
Ni2 O10 2.101187 1_555
Ni2 O14 2.103326 1_555
Ni2 O12 2.113545 1_555
Ni3 O6 2.067446 1_555
Ni3 O19 2.072889 1_645
Ni3 O20 2.102516 1_645
Ni3 O3 2.103136 1_555
Ni3 O1 2.110236 1_555
Ni3 O22 2.110441 1_645
C0 O4 1.293832 1_555
C0 O0 1.296753 1_555
C0 O2 1.309046 1_555
C1 O5 1.293475 1_555
C1 O1 1.296836 1_555
C1 O3 1.309222 1_555
C2 O6 1.291284 1_555
C2 O10 1.299996 1_555
C2 O8 1.306003 1_555
C3 O7 1.291546 1_555
C3 O11 1.299776 1_555
C3 O9 1.306193 1_555
C4 O18 1.288868 1_555
C4 O12 1.296939 1_555
C4 O14 1.313586 1_555
C5 O19 1.288253 1_555
C5 O13 1.297259 1_555
C5 O15 1.313785 1_555
C6 O16 1.289293 1_555
C6 O22 1.297266 1_555
C6 O20 1.311815 1_555
C7 O17 1.289373 1_555
C7 O23 1.297021 1_555
C7 O21 1.311974 1_555
