# generated using pymatgen
data_Ba6Ti7Nb9O42
_symmetry_space_group_name_H-M   'P 1'
_cell_length_a   9.20248458
_cell_length_b   9.20248458
_cell_length_c   11.94856456
_cell_angle_alpha   89.99117909
_cell_angle_beta   89.99117909
_cell_angle_gamma   119.89089806
_symmetry_Int_Tables_number   1
_chemical_formula_structural   Ba6Ti7Nb9O42
_chemical_formula_sum   'Ba6 Ti7 Nb9 O42'
_cell_volume   877.26933751
_cell_formula_units_Z   1
loop_
 _symmetry_equiv_pos_site_id
 _symmetry_equiv_pos_as_xyz
  1  'x, y, z'
loop_
 _atom_site_type_symbol
 _atom_site_label
 _atom_site_symmetry_multiplicity
 _atom_site_fract_x
 _atom_site_fract_y
 _atom_site_fract_z
 _atom_site_occupancy
  Ba  Ba0  1  0.59614300  0.59614300  0.24476200  1
  Ba  Ba1  1  0.41124900  0.41124900  0.75094500  1
  Ba  Ba2  1  0.99963300  0.40624700  0.24501600  1
  Ba  Ba3  1  0.99632000  0.59553300  0.75007900  1
  Ba  Ba4  1  0.59553300  0.99632000  0.75007900  1
  Ba  Ba5  1  0.40624700  0.99963300  0.24501600  1
  Ti  Ti0  1  0.74954700  0.74954700  0.90906000  1
  Ti  Ti1  1  0.76158500  0.76158500  0.60017700  1
  Ti  Ti2  1  0.24208600  0.24208600  0.09306300  1
  Ti  Ti3  1  0.00016600  0.24154500  0.59358700  1
  Ti  Ti4  1  0.75557900  0.99616600  0.08994100  1
  Ti  Ti5  1  0.99616600  0.75557900  0.08994100  1
  Ti  Ti6  1  0.24154500  0.00016600  0.59358700  1
  Nb  Nb0  1  0.24846200  0.24846200  0.40633600  1
  Nb  Nb1  1  0.33548700  0.66536100  0.00557100  1
  Nb  Nb2  1  0.33334900  0.66679900  0.50914700  1
  Nb  Nb3  1  0.99741900  0.24411000  0.90701100  1
  Nb  Nb4  1  0.75251700  0.99823300  0.40492600  1
  Nb  Nb5  1  0.99823300  0.75251700  0.40492600  1
  Nb  Nb6  1  0.66536100  0.33548700  0.00557100  1
  Nb  Nb7  1  0.66679900  0.33334900  0.50914700  1
  Nb  Nb8  1  0.24411000  0.99741900  0.90701100  1
  O  O0  1  0.79856500  0.79856500  0.07261500  1
  O  O1  1  0.79601500  0.79601500  0.42526600  1
  O  O2  1  0.78771800  0.78771800  0.75163300  1
  O  O3  1  0.52069600  0.68816100  0.59982600  1
  O  O4  1  0.51965500  0.68700900  0.90171100  1
  O  O5  1  0.20634900  0.20634900  0.24850200  1
  O  O6  1  0.20140400  0.20140400  0.57551900  1
  O  O7  1  0.20617900  0.20617900  0.92552300  1
  O  O8  1  0.52055100  0.83276400  0.10151600  1
  O  O9  1  0.51523400  0.83109400  0.39880500  1
  O  O10  1  0.31195100  0.47915100  0.10032300  1
  O  O11  1  0.31567700  0.48477200  0.39878600  1
  O  O12  1  0.16918300  0.48372500  0.89933200  1
  O  O13  1  0.16656300  0.47894200  0.59965300  1
  O  O14  1  0.31220500  0.83351700  0.60006900  1
  O  O15  1  0.31647700  0.83178500  0.89735000  1
  O  O16  1  0.00143100  0.20140300  0.07552400  1
  O  O17  1  0.99977000  0.20507500  0.42597300  1
  O  O18  1  0.99991100  0.20567700  0.74846600  1
  O  O19  1  0.16711400  0.68928300  0.09673000  1
  O  O20  1  0.16864800  0.68458500  0.39945100  1
  O  O21  1  0.80017600  0.99962800  0.57600600  1
  O  O22  1  0.79602600  0.99988300  0.92586100  1
  O  O23  1  0.79321200  0.99919500  0.24762400  1
  O  O24  1  0.83178500  0.31647700  0.89735000  1
  O  O25  1  0.83351700  0.31220500  0.60006900  1
  O  O26  1  0.99919500  0.79321200  0.24762400  1
  O  O27  1  0.99962800  0.80017600  0.57600600  1
  O  O28  1  0.99988300  0.79602600  0.92586100  1
  O  O29  1  0.68928300  0.16711400  0.09673000  1
  O  O30  1  0.68458500  0.16864800  0.39945100  1
  O  O31  1  0.83109400  0.51523400  0.39880500  1
  O  O32  1  0.83276400  0.52055100  0.10151600  1
  O  O33  1  0.68816100  0.52069600  0.59982600  1
  O  O34  1  0.68700900  0.51965500  0.90171100  1
  O  O35  1  0.47894200  0.16656300  0.59965300  1
  O  O36  1  0.48372500  0.16918300  0.89933200  1
  O  O37  1  0.48477200  0.31567700  0.39878600  1
  O  O38  1  0.47915100  0.31195100  0.10032300  1
  O  O39  1  0.20567700  0.99991100  0.74846600  1
  O  O40  1  0.20507500  0.99977000  0.42597300  1
  O  O41  1  0.20140300  0.00143100  0.07552400  1
loop_
_geom_bond_atom_site_label_1
_geom_bond_atom_site_label_2
_geom_bond_distance
_geom_bond_site_symmetry_2
Ba0 O0 2.776677 1_555
Ba0 O1 2.836958 1_555
Ba0 O10 2.858825 1_555
Ba0 O38 2.858825 1_555
Ba0 O11 2.908657 1_555
Ba0 O37 2.908657 1_555
Ba0 O32 3.108682 1_555
Ba0 O8 3.108682 1_555
Ba0 O31 3.197235 1_555
Ba0 O9 3.197235 1_555
Ba0 O26 3.216063 1_555
Ba0 O23 3.216063 1_555
Ba1 O7 2.814585 1_555
Ba1 O6 2.852633 1_555
Ba1 O4 2.856381 1_555
Ba1 O34 2.856381 1_555
Ba1 O3 2.865038 1_555
Ba1 O33 2.865038 1_555
Ba2 O16 2.772618 1_655
Ba2 O32 2.831019 1_555
Ba2 O17 2.846638 1_555
Ba2 O19 2.880183 1_655
Ba2 O31 2.887589 1_555
Ba2 O20 2.901129 1_655
Ba2 O10 3.126630 1_655
Ba2 O29 3.142809 1_555
Ba2 O11 3.203751 1_655
Ba2 O30 3.204716 1_555
Ba2 O5 3.239183 1_655
Ba2 O23 3.247903 1_545
Ba3 O28 2.785244 1_555
Ba3 O27 2.795563 1_555
Ba3 O24 2.847111 1_555
Ba3 O25 2.892111 1_555
Ba3 O12 2.898490 1_655
Ba3 O13 2.917402 1_655
Ba3 O33 3.129655 1_555
Ba3 O34 3.144729 1_555
Ba3 O14 3.179800 1_655
Ba3 O15 3.181510 1_655
Ba3 O2 3.193299 1_555
Ba3 O39 3.227120 1_655
Ba4 O22 2.785244 1_555
Ba4 O21 2.795563 1_555
Ba4 O15 2.847111 1_555
Ba4 O14 2.892111 1_555
Ba4 O36 2.898490 1_565
Ba4 O35 2.917402 1_565
Ba4 O3 3.129655 1_555
Ba4 O4 3.144729 1_555
Ba4 O25 3.179800 1_565
Ba4 O24 3.181510 1_565
Ba4 O2 3.193299 1_555
Ba4 O18 3.227120 1_565
Ba5 O41 2.772618 1_565
Ba5 O8 2.831019 1_555
Ba5 O40 2.846638 1_555
Ba5 O29 2.880183 1_565
Ba5 O9 2.887589 1_555
Ba5 O30 2.901129 1_565
Ba5 O38 3.126630 1_565
Ba5 O19 3.142809 1_555
Ba5 O37 3.203751 1_565
Ba5 O20 3.204716 1_555
Ba5 O5 3.239183 1_565
Ba5 O26 3.247903 1_455
Nb0 O5 1.925543 1_555
Nb0 O11 1.943975 1_555
Nb0 O37 1.943975 1_555
Nb0 O6 2.067378 1_555
Nb0 O40 2.130997 1_545
Nb0 O17 2.130997 1_455
Nb1 O10 1.973446 1_555
Nb1 O8 1.993501 1_555
Nb1 O19 1.993786 1_555
Nb1 O4 2.028504 1_554
Nb1 O12 2.049163 1_554
Nb1 O15 2.077187 1_554
Nb2 O3 1.961580 1_555
Nb2 O13 1.966748 1_555
Nb2 O14 1.967210 1_555
Nb2 O20 2.071177 1_555
Nb2 O11 2.073763 1_555
Nb2 O9 2.074165 1_555
Nb3 O18 1.929401 1_555
Nb3 O24 1.947281 1_555
Nb3 O12 1.973605 1_655
Nb3 O16 2.055285 1_656
Nb3 O22 2.094012 1_545
Nb3 O7 2.128359 1_655
Nb4 O23 1.915579 1_555
Nb4 O9 1.947243 1_555
Nb4 O30 1.957444 1_565
Nb4 O21 2.089446 1_555
Nb4 O1 2.103476 1_555
Nb4 O17 2.132411 1_565
Nb5 O26 1.915579 1_555
Nb5 O31 1.947243 1_555
Nb5 O20 1.957444 1_655
Nb5 O27 2.089446 1_555
Nb5 O1 2.103476 1_555
Nb5 O40 2.132411 1_655
Nb6 O38 1.973446 1_555
Nb6 O32 1.993501 1_555
Nb6 O29 1.993786 1_555
Nb6 O34 2.028504 1_554
Nb6 O36 2.049163 1_554
Nb6 O24 2.077187 1_554
Nb7 O33 1.961580 1_555
Nb7 O35 1.966748 1_555
Nb7 O25 1.967210 1_555
Nb7 O30 2.071177 1_555
Nb7 O37 2.073763 1_555
Nb7 O31 2.074165 1_555
Nb8 O39 1.929401 1_555
Nb8 O15 1.947281 1_555
Nb8 O36 1.973605 1_565
Nb8 O41 2.055285 1_566
Nb8 O28 2.094012 1_455
Nb8 O7 2.128359 1_565
O0 Ti0 2.005936 1_554
O0 Ti5 2.055003 1_555
O0 Ti4 2.055003 1_555
O1 Ti1 2.113798 1_555
O2 Ti1 1.825717 1_555
O2 Ti0 1.913544 1_555
O3 Ti1 1.969207 1_555
O4 Ti0 1.897670 1_555
O5 Ti2 1.886160 1_555
O6 Ti6 2.072265 1_555
O6 Ti3 2.072265 1_555
O7 Ti2 2.029140 1_556
O8 Ti4 1.927807 1_555
O10 Ti2 1.944814 1_555
O13 Ti3 1.946418 1_555
O14 Ti6 1.942833 1_565
O16 Ti2 2.064564 1_555
O16 Ti4 2.110999 1_445
O17 Ti3 2.030427 1_655
O18 Ti3 1.879533 1_655
O19 Ti5 1.951971 1_455
O21 Ti1 2.057327 1_555
O21 Ti3 2.074598 1_665
O22 Ti4 1.992591 1_556
O22 Ti0 2.132701 1_555
O23 Ti4 1.913397 1_555
O25 Ti3 1.942833 1_655
O26 Ti5 1.913397 1_555
O27 Ti1 2.057327 1_555
O27 Ti6 2.074598 1_665
O28 Ti5 1.992591 1_556
O28 Ti0 2.132701 1_555
O29 Ti4 1.951971 1_545
O32 Ti5 1.927807 1_555
O33 Ti1 1.969207 1_555
O34 Ti0 1.897670 1_555
O35 Ti6 1.946418 1_555
O38 Ti2 1.944814 1_555
O39 Ti6 1.879533 1_565
O40 Ti6 2.030427 1_565
O41 Ti2 2.064564 1_555
O41 Ti5 2.110999 1_445
