# generated using pymatgen
data_Fe6OF11
_symmetry_space_group_name_H-M   'P 1'
_cell_length_a   10.75082743
_cell_length_b   10.75082743
_cell_length_c   3.18353100
_cell_angle_alpha   90.00000000
_cell_angle_beta   90.00000000
_cell_angle_gamma   142.72599701
_symmetry_Int_Tables_number   1
_chemical_formula_structural   Fe6OF11
_chemical_formula_sum   'Fe6 O1 F11'
_cell_volume   222.84268538
_cell_formula_units_Z   1
loop_
 _symmetry_equiv_pos_site_id
 _symmetry_equiv_pos_as_xyz
  1  'x, y, z'
loop_
 _atom_site_type_symbol
 _atom_site_label
 _atom_site_symmetry_multiplicity
 _atom_site_fract_x
 _atom_site_fract_y
 _atom_site_fract_z
 _atom_site_occupancy
  Fe  Fe0  1  0.00236100  0.99763900  0.00000000  1
  Fe  Fe1  1  0.49567500  0.50432500  0.50000000  1
  Fe  Fe2  1  0.66567100  0.33432900  0.00000000  1
  Fe  Fe3  1  0.83454900  0.16545100  0.50000000  1
  Fe  Fe4  1  0.17064400  0.82935600  0.50000000  1
  Fe  Fe5  1  0.34145900  0.65854100  0.00000000  1
  O  O0  1  0.39640700  0.60359300  0.50000000  1
  F  F0  1  0.70423500  0.69774700  0.00000000  1
  F  F1  1  0.97079400  0.62856900  0.00000000  1
  F  F2  1  0.30225300  0.29576500  0.00000000  1
  F  F3  1  0.59898100  0.40101900  0.50000000  1
  F  F4  1  0.73481900  0.26518100  0.50000000  1
  F  F5  1  0.07110200  0.92889800  0.50000000  1
  F  F6  1  0.37143100  0.02920600  0.00000000  1
  F  F7  1  0.62523000  0.95846500  0.00000000  1
  F  F8  1  0.93368200  0.06631800  0.50000000  1
  F  F9  1  0.27543600  0.72456400  0.50000000  1
  F  F10  1  0.04153500  0.37477000  0.00000000  1
loop_
_geom_bond_atom_site_label_1
_geom_bond_atom_site_label_2
_geom_bond_distance
_geom_bond_site_symmetry_2
Fe1 O0 2.022502 1_555
Fe5 O0 1.946032 1_555
Fe5 O0 1.946032 1_554
F0 Fe0 2.054663 1_655
F0 Fe1 2.113021 1_554
F0 Fe1 2.113021 1_555
F1 Fe2 2.062187 1_555
F1 Fe4 2.104382 1_654
F1 Fe4 2.104382 1_655
F2 Fe0 2.054663 1_545
F2 Fe1 2.113021 1_554
F2 Fe1 2.113021 1_555
F3 Fe2 2.092827 1_556
F3 Fe2 2.092827 1_555
F3 Fe1 2.104773 1_555
F4 Fe3 2.031915 1_555
F4 Fe2 2.125682 1_555
F4 Fe2 2.125682 1_556
F5 Fe4 2.028084 1_555
F5 Fe0 2.120196 1_556
F5 Fe0 2.120196 1_555
F6 Fe2 2.062187 1_555
F6 Fe4 2.104382 1_544
F6 Fe4 2.104382 1_545
F7 Fe5 2.012115 1_555
F7 Fe3 2.140090 1_565
F7 Fe3 2.140090 1_564
F8 Fe3 2.019751 1_555
F8 Fe0 2.119361 1_645
F8 Fe0 2.119361 1_646
F9 Fe5 2.084030 1_556
F9 Fe5 2.084030 1_555
F9 Fe4 2.135049 1_555
F10 Fe5 2.012115 1_555
F10 Fe3 2.140090 1_455
F10 Fe3 2.140090 1_454
