# generated using pymatgen
data_Mn6O7F5
_symmetry_space_group_name_H-M   'P 1'
_cell_length_a   5.53594000
_cell_length_b   5.58062421
_cell_length_c   7.36255199
_cell_angle_alpha   73.48854989
_cell_angle_beta   72.06133125
_cell_angle_gamma   71.59998549
_symmetry_Int_Tables_number   1
_chemical_formula_structural   Mn6O7F5
_chemical_formula_sum   'Mn6 O7 F5'
_cell_volume   200.88474206
_cell_formula_units_Z   1
loop_
 _symmetry_equiv_pos_site_id
 _symmetry_equiv_pos_as_xyz
  1  'x, y, z'
loop_
 _atom_site_type_symbol
 _atom_site_label
 _atom_site_symmetry_multiplicity
 _atom_site_fract_x
 _atom_site_fract_y
 _atom_site_fract_z
 _atom_site_occupancy
  Mn  Mn0  1  0.68607900  0.69349400  0.83795000  1
  Mn  Mn1  1  0.33863900  0.33757500  0.67411500  1
  Mn  Mn2  1  0.67943900  0.61082200  0.31168800  1
  Mn  Mn3  1  0.32918000  0.33307800  0.16438900  1
  Mn  Mn4  1  0.99066900  0.98322400  0.50271700  1
  Mn  Mn5  1  0.97598500  0.04466200  0.99897500  1
  O  O0  1  0.02522600  0.64365800  0.67217300  1
  O  O1  1  0.22614100  0.25006500  0.95841400  1
  O  O2  1  0.77118500  0.79703500  0.02594000  1
  O  O3  1  0.43041400  0.41296700  0.38123600  1
  O  O4  1  0.97328300  0.32164200  0.32841400  1
  O  O5  1  0.64506100  0.03053200  0.67317000  1
  O  O6  1  0.68306900  0.34469100  0.00296900  1
  F  F0  1  0.36565300  0.92272900  0.33901600  1
  F  F1  1  0.89241600  0.84996800  0.30576700  1
  F  F2  1  0.57325600  0.57728700  0.64211700  1
  F  F3  1  0.11265800  0.10562900  0.69068600  1
  F  F4  1  0.30164500  0.74094400  0.99026100  1
loop_
_geom_bond_atom_site_label_1
_geom_bond_atom_site_label_2
_geom_bond_distance
_geom_bond_site_symmetry_2
Mn0 O2 1.870748 1_556
Mn0 O0 1.882493 1_655
Mn0 O5 1.914198 1_565
Mn0 O6 1.982207 1_556
Mn1 O1 1.953370 1_555
Mn1 O5 1.994540 1_555
Mn1 O3 2.007319 1_555
Mn1 O0 2.014624 1_555
Mn2 O3 1.893830 1_555
Mn2 O4 1.902329 1_555
Mn2 O2 2.048478 1_555
Mn3 O6 1.963894 1_555
Mn3 O4 1.978426 1_455
Mn3 O1 1.984638 1_554
Mn3 O3 2.043353 1_555
Mn4 O5 1.922398 1_565
Mn4 O0 1.938675 1_655
Mn4 O4 1.951053 1_565
Mn5 O6 1.928310 1_556
Mn5 O1 1.968183 1_655
Mn5 O2 1.982172 1_546
F0 Mn4 2.030659 1_455
F0 Mn2 2.040283 1_555
F0 Mn3 2.265472 1_565
F1 Mn2 2.025277 1_555
F1 Mn4 2.075011 1_555
F1 Mn5 2.185227 1_564
F2 Mn0 2.057052 1_555
F2 Mn1 2.064281 1_555
F2 Mn2 2.286662 1_555
F3 Mn1 2.023339 1_555
F3 Mn4 2.059670 1_445
F3 Mn5 2.122698 1_455
F4 Mn5 2.046618 1_465
F4 Mn0 2.049343 1_555
F4 Mn3 2.256178 1_556
