# generated using pymatgen
data_TlCoO3
_symmetry_space_group_name_H-M   'P 1'
_cell_length_a   5.32707600
_cell_length_b   5.40994877
_cell_length_c   7.92476083
_cell_angle_alpha   89.48993646
_cell_angle_beta   89.53109509
_cell_angle_gamma   89.13552350
_symmetry_Int_Tables_number   1
_chemical_formula_structural   TlCoO3
_chemical_formula_sum   'Tl4 Co4 O12'
_cell_volume   228.34288850
_cell_formula_units_Z   4
loop_
 _symmetry_equiv_pos_site_id
 _symmetry_equiv_pos_as_xyz
  1  'x, y, z'
loop_
 _atom_site_type_symbol
 _atom_site_label
 _atom_site_symmetry_multiplicity
 _atom_site_fract_x
 _atom_site_fract_y
 _atom_site_fract_z
 _atom_site_occupancy
  Tl  Tl0  1  0.98178300  0.04643400  0.74754400  1
  Tl  Tl1  1  0.51444500  0.54631300  0.74766100  1
  Tl  Tl2  1  0.48555500  0.45368700  0.25233900  1
  Tl  Tl3  1  0.01821700  0.95356600  0.25245600  1
  Co  Co0  1  0.00000000  0.50000000  0.00000000  1
  Co  Co1  1  0.00000000  0.50000000  0.50000000  1
  Co  Co2  1  0.50000000  0.00000000  0.00000000  1
  Co  Co3  1  0.50000000  0.00000000  0.50000000  1
  O  O0  1  0.89340000  0.54188600  0.24376400  1
  O  O1  1  0.79475800  0.79402600  0.55905300  1
  O  O2  1  0.79371900  0.79500800  0.94270500  1
  O  O3  1  0.69595800  0.28658900  0.94176500  1
  O  O4  1  0.70344100  0.29283700  0.56026200  1
  O  O5  1  0.60728700  0.04108700  0.25320500  1
  O  O6  1  0.39271300  0.95891300  0.74679500  1
  O  O7  1  0.29655900  0.70716300  0.43973800  1
  O  O8  1  0.30404200  0.71341100  0.05823500  1
  O  O9  1  0.20628100  0.20499200  0.05729500  1
  O  O10  1  0.20524200  0.20597400  0.44094700  1
  O  O11  1  0.10660000  0.45811400  0.75623600  1
loop_
_geom_bond_atom_site_label_1
_geom_bond_atom_site_label_2
_geom_bond_distance
_geom_bond_site_symmetry_2
Co0 O9 1.975646 1_555
Co0 O2 1.975646 1_454
Co0 O0 2.022750 1_455
Co0 O11 2.022750 1_554
Co0 O8 2.060917 1_555
Co0 O3 2.060917 1_454
Co1 O10 1.974086 1_555
Co1 O1 1.974086 1_455
Co1 O7 2.002852 1_555
Co1 O4 2.002852 1_455
Co1 O11 2.122261 1_555
Co1 O0 2.122261 1_455
Co2 O3 1.932543 1_554
Co2 O8 1.932543 1_545
Co2 O2 1.956830 1_544
Co2 O9 1.956830 1_555
Co2 O6 2.105468 1_544
Co2 O5 2.105468 1_555
Co3 O1 1.968796 1_545
Co3 O10 1.968796 1_555
Co3 O7 1.996525 1_545
Co3 O4 1.996525 1_555
Co3 O5 2.044252 1_555
Co3 O6 2.044252 1_545
O0 Tl2 2.231785 1_555
O0 Tl3 2.335657 1_655
O1 Tl0 2.278210 1_565
O1 Tl1 2.499587 1_555
O2 Tl0 2.285630 1_565
O2 Tl1 2.558837 1_555
O3 Tl1 2.284789 1_555
O3 Tl0 2.512546 1_555
O4 Tl1 2.251601 1_555
O4 Tl0 2.473743 1_555
O5 Tl3 2.232655 1_645
O5 Tl2 2.314986 1_555
O6 Tl0 2.232655 1_465
O6 Tl1 2.314986 1_555
O7 Tl2 2.251601 1_555
O7 Tl3 2.473743 1_555
O8 Tl2 2.284789 1_555
O8 Tl3 2.512546 1_555
O9 Tl3 2.285630 1_545
O9 Tl2 2.558837 1_555
O10 Tl3 2.278210 1_545
O10 Tl2 2.499587 1_555
O11 Tl1 2.231785 1_555
O11 Tl0 2.335657 1_455
