# generated using pymatgen
data_Ba2SrI6
_symmetry_space_group_name_H-M   'P 1'
_cell_length_a   13.45041895
_cell_length_b   13.45041895
_cell_length_c   13.45041895
_cell_angle_alpha   109.47122063
_cell_angle_beta   109.47122063
_cell_angle_gamma   109.47122063
_symmetry_Int_Tables_number   1
_chemical_formula_structural   Ba2SrI6
_chemical_formula_sum   'Ba8 Sr4 I24'
_cell_volume   1873.20601863
_cell_formula_units_Z   4
loop_
 _symmetry_equiv_pos_site_id
 _symmetry_equiv_pos_as_xyz
  1  'x, y, z'
loop_
 _atom_site_type_symbol
 _atom_site_label
 _atom_site_symmetry_multiplicity
 _atom_site_fract_x
 _atom_site_fract_y
 _atom_site_fract_z
 _atom_site_occupancy
  Ba  Ba0  1  0.81069800  0.50000000  0.00000000  1
  Ba  Ba1  1  0.50000000  0.00000000  0.18930200  1
  Ba  Ba2  1  0.31069800  0.31069800  0.31069800  1
  Ba  Ba3  1  0.50000000  0.00000000  0.81069800  1
  Ba  Ba4  1  0.18930200  0.50000000  0.00000000  1
  Ba  Ba5  1  0.00000000  0.18930200  0.50000000  1
  Ba  Ba6  1  0.68930200  0.68930200  0.68930200  1
  Ba  Ba7  1  0.00000000  0.81069800  0.50000000  1
  Sr  Sr0  1  0.00000000  0.00000000  0.00000000  1
  Sr  Sr1  1  0.50000000  0.50000000  0.00000000  1
  Sr  Sr2  1  0.50000000  0.00000000  0.50000000  1
  Sr  Sr3  1  0.00000000  0.50000000  0.50000000  1
  I  I0  1  0.79894100  0.21646600  0.27950900  1
  I  I1  1  0.58247400  0.29894100  0.01943200  1
  I  I2  1  0.28353400  0.08247400  0.06304300  1
  I  I3  1  0.51943200  0.22049100  0.43695700  1
  I  I4  1  0.78353400  0.72049100  0.20105900  1
  I  I5  1  0.98056800  0.41752600  0.70105900  1
  I  I6  1  0.08247400  0.06304300  0.28353400  1
  I  I7  1  0.72049100  0.20105900  0.78353400  1
  I  I8  1  0.77950900  0.56304300  0.48056800  1
  I  I9  1  0.43695700  0.51943200  0.22049100  1
  I  I10  1  0.06304300  0.28353400  0.08247400  1
  I  I11  1  0.29894100  0.01943200  0.58247400  1
  I  I12  1  0.70105900  0.98056800  0.41752600  1
  I  I13  1  0.56304300  0.48056800  0.77950900  1
  I  I14  1  0.93695700  0.71646600  0.91752600  1
  I  I15  1  0.27950900  0.79894100  0.21646600  1
  I  I16  1  0.22049100  0.43695700  0.51943200  1
  I  I17  1  0.91752600  0.93695700  0.71646600  1
  I  I18  1  0.01943200  0.58247400  0.29894100  1
  I  I19  1  0.21646600  0.27950900  0.79894100  1
  I  I20  1  0.48056800  0.77950900  0.56304300  1
  I  I21  1  0.71646600  0.91752600  0.93695700  1
  I  I22  1  0.41752600  0.70105900  0.98056800  1
  I  I23  1  0.20105900  0.78353400  0.72049100  1
loop_
_geom_bond_atom_site_label_1
_geom_bond_atom_site_label_2
_geom_bond_distance
_geom_bond_site_symmetry_2
Ba0 I13 3.503787 1_554
Ba0 I4 3.503787 1_555
Ba0 I1 3.503795 1_555
Ba0 I14 3.564342 1_554
Ba0 I7 3.564352 1_554
Ba0 I18 3.564356 1_655
Ba1 I15 3.503787 1_545
Ba1 I3 3.503787 1_555
Ba1 I12 3.503795 1_545
Ba1 I2 3.564342 1_555
Ba1 I0 3.564352 1_555
Ba1 I22 3.564356 1_544
Ba2 I10 3.503794 1_555
Ba2 I2 3.503794 1_555
Ba2 I6 3.503794 1_555
Ba2 I16 3.564352 1_555
Ba2 I3 3.564352 1_555
Ba2 I9 3.564352 1_555
Ba3 I7 3.503787 1_555
Ba3 I20 3.503787 1_545
Ba3 I11 3.503795 1_555
Ba3 I21 3.564342 1_545
Ba3 I23 3.564352 1_545
Ba3 I1 3.564356 1_556
Ba4 I19 3.503787 1_554
Ba4 I9 3.503787 1_555
Ba4 I22 3.503795 1_554
Ba4 I10 3.564342 1_555
Ba4 I15 3.564352 1_555
Ba4 I5 3.564356 1_454
Ba5 I16 3.503787 1_555
Ba5 I0 3.503787 1_455
Ba5 I5 3.503795 1_455
Ba5 I6 3.564342 1_555
Ba5 I19 3.564352 1_555
Ba5 I12 3.564356 1_445
Ba6 I14 3.503794 1_555
Ba6 I21 3.503794 1_555
Ba6 I17 3.503794 1_555
Ba6 I20 3.564352 1_555
Ba6 I8 3.564352 1_555
Ba6 I13 3.564352 1_555
Ba7 I8 3.503787 1_455
Ba7 I23 3.503787 1_555
Ba7 I18 3.503795 1_555
Ba7 I17 3.564342 1_455
Ba7 I4 3.564352 1_455
Ba7 I11 3.564356 1_565
I0 Sr3 3.300031 1_655
I1 Sr1 3.300023 1_555
I2 Sr0 3.300033 1_555
I3 Sr2 3.300031 1_555
I4 Sr1 3.300031 1_555
I5 Sr3 3.300023 1_655
I6 Sr0 3.300033 1_555
I7 Sr2 3.300031 1_555
I8 Sr3 3.300031 1_655
I9 Sr1 3.300031 1_555
I10 Sr0 3.300033 1_555
I11 Sr2 3.300023 1_555
I12 Sr2 3.300023 1_565
I13 Sr1 3.300031 1_556
I14 Sr0 3.300033 1_666
I15 Sr2 3.300031 1_565
I16 Sr3 3.300031 1_555
I17 Sr0 3.300033 1_666
I18 Sr3 3.300023 1_555
I19 Sr1 3.300031 1_556
I20 Sr2 3.300031 1_565
I21 Sr0 3.300033 1_666
I22 Sr1 3.300023 1_556
I23 Sr3 3.300031 1_555
