# generated using pymatgen
data_Mn4O7F
_symmetry_space_group_name_H-M   'P 1'
_cell_length_a   7.06521238
_cell_length_b   7.06521238
_cell_length_c   4.95698669
_cell_angle_alpha   89.75306721
_cell_angle_beta   89.75306721
_cell_angle_gamma   101.77802271
_symmetry_Int_Tables_number   1
_chemical_formula_structural   Mn4O7F
_chemical_formula_sum   'Mn8 O14 F2'
_cell_volume   242.22372981
_cell_formula_units_Z   2
loop_
 _symmetry_equiv_pos_site_id
 _symmetry_equiv_pos_as_xyz
  1  'x, y, z'
loop_
 _atom_site_type_symbol
 _atom_site_label
 _atom_site_symmetry_multiplicity
 _atom_site_fract_x
 _atom_site_fract_y
 _atom_site_fract_z
 _atom_site_occupancy
  Mn  Mn0  1  0.57039300  0.43360300  0.72954800  1
  Mn  Mn1  1  0.92807600  0.07306800  0.25626200  1
  Mn  Mn2  1  0.06570300  0.42061900  0.76584100  1
  Mn  Mn3  1  0.42061900  0.06570300  0.26584100  1
  Mn  Mn4  1  0.58111900  0.91536800  0.74714300  1
  Mn  Mn5  1  0.91536800  0.58111900  0.24714300  1
  Mn  Mn6  1  0.43360300  0.57039300  0.22954800  1
  Mn  Mn7  1  0.07306800  0.92807600  0.75626200  1
  O  O0  1  0.93947900  0.32811800  0.08667500  1
  O  O1  1  0.82830500  0.43953300  0.57779200  1
  O  O2  1  0.32701200  0.43772300  0.91029900  1
  O  O3  1  0.93961800  0.83245600  0.43081500  1
  O  O4  1  0.83245600  0.93961800  0.93081500  1
  O  O5  1  0.43772300  0.32701200  0.41029900  1
  O  O6  1  0.67185700  0.06299800  0.42586900  1
  O  O7  1  0.43953300  0.82830500  0.07779200  1
  O  O8  1  0.32811800  0.93947900  0.58667500  1
  O  O9  1  0.66514100  0.56191600  0.05544000  1
  O  O10  1  0.56191600  0.66514100  0.55544000  1
  O  O11  1  0.06296000  0.17251800  0.58584300  1
  O  O12  1  0.17251800  0.06296000  0.08584300  1
  O  O13  1  0.06299800  0.67185700  0.92586900  1
  F  F0  1  0.55962600  0.18279200  0.92847300  1
  F  F1  1  0.18279200  0.55962600  0.42847300  1
loop_
_geom_bond_atom_site_label_1
_geom_bond_atom_site_label_2
_geom_bond_distance
_geom_bond_site_symmetry_2
Mn0 O10 1.858164 1_555
Mn0 O9 1.911496 1_556
Mn0 O5 1.919630 1_555
Mn0 O2 1.941087 1_555
Mn0 O1 1.960819 1_555
Mn1 O3 1.920874 1_545
Mn1 O4 1.926233 1_544
Mn1 O12 1.933823 1_655
Mn1 O11 1.954712 1_655
Mn1 O0 1.971649 1_555
Mn1 O6 1.980572 1_555
Mn2 O0 1.868844 1_456
Mn2 O1 1.950360 1_455
Mn2 O13 1.950969 1_555
Mn2 O2 1.963899 1_555
Mn2 O11 1.966940 1_555
Mn3 O8 1.868844 1_545
Mn3 O7 1.950360 1_545
Mn3 O6 1.950969 1_555
Mn3 O5 1.963899 1_555
Mn3 O12 1.966940 1_555
Mn4 O6 1.933658 1_565
Mn4 O7 1.947155 1_556
Mn4 O4 1.975513 1_555
Mn4 O10 1.991127 1_555
Mn4 O8 1.998078 1_555
Mn5 O13 1.933658 1_654
Mn5 O1 1.947155 1_555
Mn5 O3 1.975513 1_555
Mn5 O9 1.991127 1_555
Mn5 O0 1.998078 1_555
Mn6 O9 1.858164 1_555
Mn6 O10 1.911496 1_555
Mn6 O2 1.919630 1_554
Mn6 O5 1.941087 1_555
Mn6 O7 1.960819 1_555
Mn7 O4 1.920874 1_455
Mn7 O3 1.926233 1_455
Mn7 O11 1.933823 1_565
Mn7 O12 1.954712 1_566
Mn7 O8 1.971649 1_555
Mn7 O13 1.980572 1_555
F0 Mn0 2.011835 1_555
F0 Mn3 2.021837 1_556
F0 Mn4 2.128719 1_545
F1 Mn6 2.011835 1_555
F1 Mn2 2.021837 1_555
F1 Mn5 2.128719 1_455
