# generated using pymatgen
data_V3O5F
_symmetry_space_group_name_H-M   'P 1'
_cell_length_a   5.52092451
_cell_length_b   5.52092451
_cell_length_c   7.32959265
_cell_angle_alpha   70.12253160
_cell_angle_beta   70.12253160
_cell_angle_gamma   71.83676038
_symmetry_Int_Tables_number   1
_chemical_formula_structural   V3O5F
_chemical_formula_sum   'V6 O10 F2'
_cell_volume   192.66337151
_cell_formula_units_Z   2
loop_
 _symmetry_equiv_pos_site_id
 _symmetry_equiv_pos_as_xyz
  1  'x, y, z'
loop_
 _atom_site_type_symbol
 _atom_site_label
 _atom_site_symmetry_multiplicity
 _atom_site_fract_x
 _atom_site_fract_y
 _atom_site_fract_z
 _atom_site_occupancy
  V  V0  1  0.67390600  0.67390600  0.84651600  1
  V  V1  1  0.31943000  0.31943000  0.67132600  1
  V  V2  1  0.65600600  0.65600600  0.31801700  1
  V  V3  1  0.33822000  0.33822000  0.15964100  1
  V  V4  1  0.99964500  0.99964500  0.51508400  1
  V  V5  1  0.01198800  0.01198800  0.98740900  1
  O  O0  1  0.63788700  0.03995200  0.65929600  1
  O  O1  1  0.96104100  0.36856300  0.33419100  1
  O  O2  1  0.23780200  0.23780200  0.96531200  1
  O  O3  1  0.09690800  0.09690800  0.69660800  1
  O  O4  1  0.77206600  0.77206600  0.03797000  1
  O  O5  1  0.43266500  0.43266500  0.36886000  1
  O  O6  1  0.69658200  0.29409600  0.00663600  1
  O  O7  1  0.03995200  0.63788700  0.65929600  1
  O  O8  1  0.36856300  0.96104100  0.33419100  1
  O  O9  1  0.29409600  0.69658200  0.00663600  1
  F  F0  1  0.56425700  0.56425700  0.63299300  1
  F  F1  1  0.89898800  0.89898800  0.30001800  1
loop_
_geom_bond_atom_site_label_1
_geom_bond_atom_site_label_2
_geom_bond_distance
_geom_bond_site_symmetry_2
O0 V4 1.898164 1_545
O0 V1 1.943070 1_555
O0 V0 2.013923 1_545
O1 V2 1.926190 1_555
O1 V4 2.009209 1_545
O1 V3 2.029225 1_655
O2 V5 1.956823 1_555
O2 V1 1.963479 1_555
O2 V3 1.977143 1_556
O3 V4 1.870395 1_445
O3 V1 1.919437 1_555
O3 V5 1.939241 1_555
O4 V2 1.871264 1_555
O4 V0 1.942671 1_554
O4 V5 2.018087 1_664
O5 V2 1.871536 1_555
O5 V1 2.013763 1_555
O5 V3 2.037731 1_555
O6 V3 1.899450 1_555
O6 V5 1.941496 1_654
O6 V0 2.013155 1_554
O7 V4 1.898164 1_455
O7 V1 1.943070 1_555
O7 V0 2.013923 1_455
O8 V2 1.926190 1_555
O8 V4 2.009209 1_455
O8 V3 2.029225 1_565
O9 V3 1.899450 1_555
O9 V5 1.941496 1_564
O9 V0 2.013155 1_554
F0 V1 2.086988 1_555
F0 V2 2.100600 1_555
F0 V0 2.167779 1_555
F1 V5 2.080141 1_664
F1 V4 2.118126 1_555
F1 V2 2.120808 1_555
