# generated using pymatgen
data_CaFe2P3HO12
_symmetry_space_group_name_H-M   'P 1'
_cell_length_a   20.04676000
_cell_length_b   6.45567200
_cell_length_c   9.13290647
_cell_angle_alpha   46.30930538
_cell_angle_beta   90.00000000
_cell_angle_gamma   90.00000000
_symmetry_Int_Tables_number   1
_chemical_formula_structural   CaFe2P3HO12
_chemical_formula_sum   'Ca4 Fe8 P12 H4 O48'
_cell_volume   854.63487648
_cell_formula_units_Z   4
loop_
 _symmetry_equiv_pos_site_id
 _symmetry_equiv_pos_as_xyz
  1  'x, y, z'
loop_
 _atom_site_type_symbol
 _atom_site_label
 _atom_site_symmetry_multiplicity
 _atom_site_fract_x
 _atom_site_fract_y
 _atom_site_fract_z
 _atom_site_occupancy
  Ca  Ca0  1  0.91987000  0.79580400  0.05596000  1
  Ca  Ca1  1  0.58013000  0.79580400  0.55596000  1
  Ca  Ca2  1  0.08013000  0.20419600  0.94404000  1
  Ca  Ca3  1  0.41987000  0.20419600  0.44404000  1
  Fe  Fe0  1  0.90190200  0.68732600  0.71823200  1
  Fe  Fe1  1  0.59809800  0.68732600  0.21823200  1
  Fe  Fe2  1  0.09809800  0.31267400  0.28176800  1
  Fe  Fe3  1  0.40190200  0.31267400  0.78176800  1
  Fe  Fe4  1  0.78813900  0.33840100  0.10034300  1
  Fe  Fe5  1  0.71186100  0.33840100  0.60034300  1
  Fe  Fe6  1  0.21186100  0.66159900  0.89965700  1
  Fe  Fe7  1  0.28813900  0.66159900  0.39965700  1
  P  P0  1  0.87858700  0.30174900  0.61607000  1
  P  P1  1  0.62141300  0.30174900  0.11607000  1
  P  P2  1  0.12141300  0.69825100  0.38393000  1
  P  P3  1  0.37858700  0.69825100  0.88393000  1
  P  P4  1  0.74654600  0.85587300  0.58819400  1
  P  P5  1  0.75345400  0.85587300  0.08819400  1
  P  P6  1  0.25345400  0.14412700  0.41180600  1
  P  P7  1  0.24654600  0.14412700  0.91180600  1
  P  P8  1  0.94853700  0.16868100  0.21627300  1
  P  P9  1  0.55146300  0.16868100  0.71627300  1
  P  P10  1  0.05146300  0.83131900  0.78372700  1
  P  P11  1  0.44853700  0.83131900  0.28372700  1
  H  H0  1  0.94676500  0.65644500  0.39487500  1
  H  H1  1  0.55323500  0.65644500  0.89487500  1
  H  H2  1  0.05323500  0.34355500  0.60512500  1
  H  H3  1  0.44676500  0.34355500  0.10512500  1
  O  O0  1  0.89229600  0.99116300  0.72344000  1
  O  O1  1  0.60770400  0.99116300  0.22344000  1
  O  O2  1  0.10770400  0.00883700  0.27656000  1
  O  O3  1  0.39229600  0.00883700  0.77656000  1
  O  O4  1  0.92753000  0.49015900  0.42312800  1
  O  O5  1  0.57247000  0.49015900  0.92312800  1
  O  O6  1  0.07247000  0.50984100  0.57687200  1
  O  O7  1  0.42753000  0.50984100  0.07687200  1
  O  O8  1  0.90141000  0.33231200  0.76210100  1
  O  O9  1  0.59859000  0.33231200  0.26210100  1
  O  O10  1  0.09859000  0.66768800  0.23789900  1
  O  O11  1  0.40141000  0.66768800  0.73789900  1
  O  O12  1  0.80761700  0.40014600  0.54080700  1
  O  O13  1  0.69238300  0.40014600  0.04080700  1
  O  O14  1  0.19238300  0.59985400  0.45919300  1
  O  O15  1  0.30761700  0.59985400  0.95919300  1
  O  O16  1  0.79993700  0.64870200  0.76067700  1
  O  O17  1  0.70006300  0.64870200  0.26067700  1
  O  O18  1  0.20006300  0.35129800  0.23932300  1
  O  O19  1  0.29993700  0.35129800  0.73932300  1
  O  O20  1  0.78538700  0.08471400  0.39084900  1
  O  O21  1  0.71461300  0.08471400  0.89084900  1
  O  O22  1  0.21461300  0.91528600  0.60915100  1
  O  O23  1  0.28538700  0.91528600  0.10915100  1
  O  O24  1  0.70123000  0.00252300  0.63120600  1
  O  O25  1  0.79877000  0.00252300  0.13120600  1
  O  O26  1  0.29877000  0.99747700  0.36879400  1
  O  O27  1  0.20123000  0.99747700  0.86879400  1
  O  O28  1  0.69881300  0.68097700  0.57393400  1
  O  O29  1  0.80118700  0.68097700  0.07393400  1
  O  O30  1  0.30118700  0.31902300  0.42606600  1
  O  O31  1  0.19881300  0.31902300  0.92606600  1
  O  O32  1  0.91885400  0.92883900  0.43017400  1
  O  O33  1  0.58114600  0.92883900  0.93017400  1
  O  O34  1  0.08114600  0.07116100  0.56982600  1
  O  O35  1  0.41885400  0.07116100  0.06982600  1
  O  O36  1  0.89228100  0.39296600  0.06429900  1
  O  O37  1  0.60771900  0.39296600  0.56429900  1
  O  O38  1  0.10771900  0.60703400  0.93570100  1
  O  O39  1  0.39228100  0.60703400  0.43570100  1
  O  O40  1  0.97670200  0.03127000  0.14367600  1
  O  O41  1  0.52329800  0.03127000  0.64367600  1
  O  O42  1  0.02329800  0.96873000  0.85632400  1
  O  O43  1  0.47670200  0.96873000  0.35632400  1
  O  O44  1  0.99985600  0.34891200  0.21628700  1
  O  O45  1  0.50014400  0.34891200  0.71628700  1
  O  O46  1  0.00014400  0.65108800  0.78371300  1
  O  O47  1  0.49985600  0.65108800  0.28371300  1
loop_
_geom_bond_atom_site_label_1
_geom_bond_atom_site_label_2
_geom_bond_distance
_geom_bond_site_symmetry_2
Ca0 O0 2.414005 1_554
Ca0 O40 2.435733 1_565
Ca0 O4 2.453689 1_555
Ca0 O42 2.461203 1_654
Ca0 O29 2.463529 1_555
Ca0 O8 2.548298 1_564
Ca0 O36 2.607898 1_555
Ca0 O44 2.683693 1_555
Ca1 O1 2.414005 1_555
Ca1 O41 2.435733 1_565
Ca1 O5 2.453689 1_555
Ca1 O43 2.461203 1_555
Ca1 O28 2.463529 1_555
Ca1 O9 2.548298 1_565
Ca1 O37 2.607898 1_555
Ca1 O45 2.683693 1_555
Ca2 O2 2.414005 1_556
Ca2 O42 2.435733 1_545
Ca2 O6 2.453689 1_555
Ca2 O40 2.461203 1_456
Ca2 O31 2.463529 1_555
Ca2 O10 2.548298 1_546
Ca2 O38 2.607898 1_555
Ca2 O46 2.683693 1_555
Ca3 O3 2.414005 1_555
Ca3 O43 2.435733 1_545
Ca3 O7 2.453689 1_555
Ca3 O41 2.461203 1_555
Ca3 O30 2.463529 1_555
Ca3 O11 2.548298 1_545
Ca3 O39 2.607898 1_555
Ca3 O47 2.683693 1_555
Fe0 O32 1.949564 1_555
Fe0 O0 2.003898 1_555
Fe0 O46 2.024292 1_655
Fe0 O8 2.035840 1_555
Fe0 O16 2.063279 1_555
Fe0 O36 2.310873 1_556
Fe1 O33 1.949564 1_554
Fe1 O1 2.003898 1_555
Fe1 O47 2.024292 1_555
Fe1 O9 2.035840 1_555
Fe1 O17 2.063279 1_555
Fe1 O37 2.310873 1_555
Fe2 O34 1.949564 1_555
Fe2 O2 2.003898 1_555
Fe2 O44 2.024292 1_455
Fe2 O10 2.035840 1_555
Fe2 O18 2.063279 1_555
Fe2 O38 2.310873 1_554
Fe3 O35 1.949564 1_556
Fe3 O3 2.003898 1_555
Fe3 O45 2.024292 1_555
Fe3 O11 2.035840 1_555
Fe3 O19 2.063279 1_555
Fe3 O39 2.310873 1_555
Fe4 O20 1.929121 1_555
Fe4 O13 1.959582 1_555
Fe4 O25 1.995522 1_555
Fe4 O29 2.068976 1_555
Fe4 O36 2.104942 1_555
Fe4 O16 2.259845 1_554
Fe5 O21 1.929121 1_555
Fe5 O12 1.959582 1_555
Fe5 O24 1.995522 1_555
Fe5 O28 2.068976 1_555
Fe5 O37 2.104942 1_555
Fe5 O17 2.259845 1_555
Fe6 O22 1.929121 1_555
Fe6 O15 1.959582 1_555
Fe6 O27 1.995522 1_555
Fe6 O31 2.068976 1_555
Fe6 O38 2.104942 1_555
Fe6 O18 2.259845 1_556
Fe7 O23 1.929121 1_555
Fe7 O14 1.959582 1_555
Fe7 O26 1.995522 1_555
Fe7 O30 2.068976 1_555
Fe7 O39 2.104942 1_555
Fe7 O19 2.259845 1_555
H0 O4 0.992455 1_555
H1 O5 0.992455 1_555
H2 O6 0.992455 1_555
H3 O7 0.992455 1_555
O0 P0 1.530035 1_565
O1 P1 1.530035 1_565
O2 P2 1.530035 1_545
O3 P3 1.530035 1_545
O4 P0 1.608142 1_555
O5 P1 1.608142 1_556
O6 P2 1.608142 1_555
O7 P3 1.608142 1_554
O8 P0 1.546131 1_555
O9 P1 1.546131 1_555
O10 P2 1.546131 1_555
O11 P3 1.546131 1_555
O12 P0 1.515550 1_555
O13 P1 1.515550 1_555
O14 P2 1.515550 1_555
O15 P3 1.515550 1_555
O16 P4 1.582766 1_555
O17 P5 1.582766 1_555
O18 P6 1.582766 1_555
O19 P7 1.582766 1_555
O20 P4 1.535794 1_545
O21 P5 1.535794 1_546
O22 P6 1.535794 1_565
O23 P7 1.535794 1_564
O24 P4 1.545848 1_545
O25 P5 1.545848 1_545
O26 P6 1.545848 1_565
O27 P7 1.545848 1_565
O28 P4 1.552595 1_555
O29 P5 1.552595 1_555
O30 P6 1.552595 1_555
O31 P7 1.552595 1_555
O32 P8 1.545632 1_565
O33 P9 1.545632 1_565
O34 P10 1.545632 1_545
O35 P11 1.545632 1_545
O36 P8 1.586922 1_555
O37 P9 1.586922 1_555
O38 P10 1.586922 1_555
O39 P11 1.586922 1_555
O40 P8 1.535530 1_555
O41 P9 1.535530 1_555
O42 P10 1.535530 1_555
O43 P11 1.535530 1_555
O44 P8 1.553175 1_555
O45 P9 1.553175 1_555
O46 P10 1.553175 1_555
O47 P11 1.553175 1_555
