# generated using pymatgen
data_Li3Fe2Ni3O10
_symmetry_space_group_name_H-M   'P 1'
_cell_length_a   5.04801400
_cell_length_b   5.06923991
_cell_length_c   7.69817601
_cell_angle_alpha   71.25298105
_cell_angle_beta   70.93406166
_cell_angle_gamma   79.69884346
_symmetry_Int_Tables_number   1
_chemical_formula_structural   Li3Fe2Ni3O10
_chemical_formula_sum   'Li3 Fe2 Ni3 O10'
_cell_volume   175.70796705
_cell_formula_units_Z   1
loop_
 _symmetry_equiv_pos_site_id
 _symmetry_equiv_pos_as_xyz
  1  'x, y, z'
loop_
 _atom_site_type_symbol
 _atom_site_label
 _atom_site_symmetry_multiplicity
 _atom_site_fract_x
 _atom_site_fract_y
 _atom_site_fract_z
 _atom_site_occupancy
  Li  Li0  1  0.51904900  0.76296700  0.42874300  1
  Li  Li1  1  0.48312200  0.39456100  0.21520100  1
  Li  Li2  1  0.49609200  0.23063300  0.59965300  1
  Fe  Fe0  1  0.01024600  0.89083800  0.69016600  1
  Fe  Fe1  1  0.99492200  0.10840200  0.30626000  1
  Ni  Ni0  1  0.49906600  0.99578000  0.99707800  1
  Ni  Ni1  1  0.98821900  0.30640600  0.89679200  1
  Ni  Ni2  1  0.00721000  0.70297900  0.09724200  1
  O  O0  1  0.22663400  0.95928400  0.86138600  1
  O  O1  1  0.77011800  0.90598200  0.52714900  1
  O  O2  1  0.78047400  0.66643000  0.95307600  1
  O  O3  1  0.21225900  0.56068500  0.66702200  1
  O  O4  1  0.24454500  0.77761100  0.21970900  1
  O  O5  1  0.75217800  0.19388300  0.76854300  1
  O  O6  1  0.77645200  0.45241300  0.32138600  1
  O  O7  1  0.23029800  0.31978800  0.06951600  1
  O  O8  1  0.24362400  0.10606300  0.45295400  1
  O  O9  1  0.75972100  0.05308900  0.14082000  1
loop_
_geom_bond_atom_site_label_1
_geom_bond_atom_site_label_2
_geom_bond_distance
_geom_bond_site_symmetry_2
Li0 O1 2.003662 1_555
Li0 O8 2.041319 1_565
Li0 O6 2.062249 1_555
Li0 O3 2.077887 1_555
Li0 O9 2.310024 1_565
Li0 O4 2.420402 1_555
Li1 O6 2.011700 1_555
Li1 O4 2.098037 1_555
Li1 O7 2.100395 1_555
Li1 O8 2.101552 1_555
Li1 O9 2.127015 1_555
Li1 O2 2.279864 1_554
Li2 O1 2.050681 1_545
Li2 O5 2.062146 1_555
Li2 O3 2.082331 1_555
Li2 O6 2.212713 1_555
Li2 O0 2.213407 1_545
Li2 O8 2.232683 1_555
Fe0 O3 1.826269 1_555
Fe0 O8 1.920019 1_565
Fe0 O5 1.946180 1_465
Fe0 O1 1.987137 1_455
Fe0 O2 2.047931 1_455
Fe0 O0 2.102629 1_555
Fe1 O1 1.807328 1_545
Fe1 O6 1.905180 1_555
Fe1 O7 1.914905 1_655
Fe1 O8 1.940069 1_655
Fe1 O4 2.063391 1_645
Fe1 O9 2.108747 1_555
Ni0 O5 1.894961 1_565
Ni0 O4 1.913752 1_556
Ni0 O2 2.030036 1_555
Ni0 O7 2.036396 1_566
Ni0 O0 2.042154 1_555
Ni0 O9 2.081998 1_566
Ni1 O3 1.954021 1_655
Ni1 O0 1.988887 1_645
Ni1 O9 2.017917 1_556
Ni1 O5 2.023231 1_555
Ni1 O2 2.035985 1_555
Ni1 O7 2.101213 1_656
Ni2 O4 1.896475 1_555
Ni2 O2 1.901035 1_454
Ni2 O6 1.937749 1_455
Ni2 O0 1.973854 1_554
Ni2 O9 2.034487 1_465
Ni2 O7 2.100985 1_555
