# generated using pymatgen
data_CrFe(PO4)2
_symmetry_space_group_name_H-M   'P 1'
_cell_length_a   8.39419796
_cell_length_b   8.39419796
_cell_length_c   8.39419839
_cell_angle_alpha   61.67432466
_cell_angle_beta   61.67432466
_cell_angle_gamma   61.67432644
_symmetry_Int_Tables_number   1
_chemical_formula_structural   CrFe(PO4)2
_chemical_formula_sum   'Cr3 Fe3 P6 O24'
_cell_volume   433.93703571
_cell_formula_units_Z   3
loop_
 _symmetry_equiv_pos_site_id
 _symmetry_equiv_pos_as_xyz
  1  'x, y, z'
loop_
 _atom_site_type_symbol
 _atom_site_label
 _atom_site_symmetry_multiplicity
 _atom_site_fract_x
 _atom_site_fract_y
 _atom_site_fract_z
 _atom_site_occupancy
  Cr  Cr0  1  0.99889100  0.99889100  0.99889100  1
  Cr  Cr1  1  0.14217300  0.14217300  0.14217300  1
  Cr  Cr2  1  0.50057100  0.50057100  0.50057100  1
  Fe  Fe0  1  0.64697900  0.64697900  0.64697900  1
  Fe  Fe1  1  0.85356800  0.85356800  0.85356800  1
  Fe  Fe2  1  0.35297300  0.35297300  0.35297300  1
  P  P0  1  0.95220900  0.25026000  0.54602100  1
  P  P1  1  0.54602100  0.95220900  0.25026000  1
  P  P2  1  0.25026000  0.54602100  0.95220900  1
  P  P3  1  0.75020200  0.45166500  0.04997700  1
  P  P4  1  0.45166500  0.04997700  0.75020200  1
  P  P5  1  0.04997700  0.75020200  0.45166500  1
  O  O0  1  0.50599100  0.10560600  0.32468600  1
  O  O1  1  0.32468600  0.50599100  0.10560600  1
  O  O2  1  0.10560600  0.32468600  0.50599100  1
  O  O3  1  0.93945900  0.09392800  0.74988800  1
  O  O4  1  0.99290900  0.17991200  0.39025900  1
  O  O5  1  0.74790600  0.40540900  0.56319200  1
  O  O6  1  0.74988800  0.93945900  0.09392800  1
  O  O7  1  0.56319200  0.74790600  0.40540900  1
  O  O8  1  0.82474200  0.60596300  0.00631600  1
  O  O9  1  0.40540900  0.56319200  0.74790600  1
  O  O10  1  0.90699100  0.24792800  0.06273400  1
  O  O11  1  0.60596300  0.00631600  0.82474200  1
  O  O12  1  0.39025900  0.99290900  0.17991200  1
  O  O13  1  0.09392800  0.74988800  0.93945900  1
  O  O14  1  0.59494100  0.43783800  0.25268500  1
  O  O15  1  0.17991200  0.39025900  0.99290900  1
  O  O16  1  0.43783800  0.25268500  0.59494100  1
  O  O17  1  0.24792800  0.06273400  0.90699100  1
  O  O18  1  0.25268500  0.59494100  0.43783800  1
  O  O19  1  0.00631600  0.82474200  0.60596300  1
  O  O20  1  0.06273400  0.90699100  0.24792800  1
  O  O21  1  0.89464600  0.67818300  0.49238700  1
  O  O22  1  0.67818300  0.49238700  0.89464600  1
  O  O23  1  0.49238700  0.89464600  0.67818300  1
loop_
_geom_bond_atom_site_label_1
_geom_bond_atom_site_label_2
_geom_bond_distance
_geom_bond_site_symmetry_2
Cr0 O6 2.069700 1_556
Cr0 O13 2.069700 1_655
Cr0 O3 2.069700 1_565
Cr0 O17 2.095905 1_665
Cr0 O10 2.095905 1_566
Cr0 O20 2.095905 1_656
Cr1 O15 1.944290 1_554
Cr1 O12 1.944290 1_545
Cr1 O4 1.944290 1_455
Cr1 O20 2.038248 1_545
Cr1 O10 2.038248 1_455
Cr1 O17 2.038248 1_554
Cr2 O7 2.070817 1_555
Cr2 O5 2.070817 1_555
Cr2 O9 2.070817 1_555
Cr2 O16 2.077093 1_555
Cr2 O18 2.077093 1_555
Cr2 O14 2.077093 1_555
Fe0 O21 1.925806 1_555
Fe0 O23 1.925806 1_555
Fe0 O22 1.925806 1_555
Fe0 O9 2.117079 1_555
Fe0 O5 2.117079 1_555
Fe0 O7 2.117079 1_555
Fe1 O8 1.917389 1_556
Fe1 O11 1.917389 1_565
Fe1 O19 1.917389 1_655
Fe1 O3 2.113463 1_565
Fe1 O13 2.113463 1_655
Fe1 O6 2.113463 1_556
Fe2 O2 1.914501 1_555
Fe2 O0 1.914501 1_555
Fe2 O1 1.914501 1_555
Fe2 O14 2.126737 1_555
Fe2 O18 2.126737 1_555
Fe2 O16 2.126737 1_555
O0 P1 1.521459 1_545
O1 P2 1.521459 1_554
O2 P0 1.521459 1_455
O3 P0 1.578119 1_555
O4 P0 1.514041 1_555
O5 P0 1.575452 1_555
O6 P1 1.578119 1_555
O7 P1 1.575452 1_555
O8 P3 1.518013 1_555
O9 P2 1.575452 1_555
O10 P3 1.578744 1_555
O11 P4 1.518013 1_555
O12 P1 1.514041 1_555
O13 P2 1.578119 1_555
O14 P3 1.568136 1_555
O15 P2 1.514041 1_555
O16 P4 1.568136 1_555
O17 P4 1.578744 1_555
O18 P5 1.568136 1_555
O19 P5 1.518013 1_555
O20 P5 1.578745 1_555
O21 P5 1.520322 1_655
O22 P3 1.520322 1_556
O23 P4 1.520322 1_565
