# generated using pymatgen
data_NiSnO3
_symmetry_space_group_name_H-M   'P 1'
_cell_length_a   5.31704273
_cell_length_b   5.31691587
_cell_length_c   9.92470082
_cell_angle_alpha   90.00262946
_cell_angle_beta   74.45697111
_cell_angle_gamma   119.99823294
_symmetry_Int_Tables_number   1
_chemical_formula_structural   NiSnO3
_chemical_formula_sum   'Ni4 Sn4 O12'
_cell_volume   231.06681765
_cell_formula_units_Z   4
loop_
 _symmetry_equiv_pos_site_id
 _symmetry_equiv_pos_as_xyz
  1  'x, y, z'
loop_
 _atom_site_type_symbol
 _atom_site_label
 _atom_site_symmetry_multiplicity
 _atom_site_fract_x
 _atom_site_fract_y
 _atom_site_fract_z
 _atom_site_occupancy
  Ni  Ni0  1  0.64652500  0.32326800  0.03021700  1
  Ni  Ni1  1  0.35347500  0.67673200  0.96978200  1
  Ni  Ni2  1  0.64654200  0.82327700  0.53019200  1
  Ni  Ni3  1  0.35345800  0.17672300  0.46980800  1
  Sn  Sn0  1  0.85382800  0.92693700  0.21929000  1
  Sn  Sn1  1  0.85382000  0.42693300  0.71930400  1
  Sn  Sn2  1  0.14618000  0.57306700  0.28069600  1
  Sn  Sn3  1  0.14617200  0.07306300  0.78071000  1
  O  O0  1  0.95047000  0.82360500  0.62591300  1
  O  O1  1  0.95044300  0.32359200  0.12590200  1
  O  O2  1  0.55049300  0.12688900  0.62592200  1
  O  O3  1  0.55051500  0.62687500  0.12591200  1
  O  O4  1  0.75275100  0.07633400  0.87408500  1
  O  O5  1  0.75277500  0.57637000  0.37407400  1
  O  O6  1  0.24722500  0.42363000  0.62592600  1
  O  O7  1  0.24724900  0.92366600  0.12591500  1
  O  O8  1  0.44948500  0.37312500  0.87408800  1
  O  O9  1  0.44950700  0.87311100  0.37407800  1
  O  O10  1  0.04955700  0.67640800  0.87409800  1
  O  O11  1  0.04953000  0.17639500  0.37408700  1
loop_
_geom_bond_atom_site_label_1
_geom_bond_atom_site_label_2
_geom_bond_distance
_geom_bond_site_symmetry_2
Ni0 O7 2.081456 1_545
Ni0 O3 2.081458 1_555
Ni0 O1 2.081523 1_555
Ni0 O10 2.171587 1_654
Ni0 O4 2.171685 1_554
Ni0 O8 2.171797 1_554
Ni1 O8 2.081454 1_555
Ni1 O4 2.081454 1_565
Ni1 O10 2.081516 1_555
Ni1 O1 2.171591 1_456
Ni1 O7 2.171691 1_556
Ni1 O3 2.171805 1_556
Ni2 O2 2.081723 1_565
Ni2 O6 2.081728 1_555
Ni2 O0 2.081800 1_555
Ni2 O11 2.171396 1_665
Ni2 O5 2.171504 1_555
Ni2 O9 2.171607 1_555
Ni3 O9 2.081723 1_545
Ni3 O5 2.081728 1_555
Ni3 O11 2.081800 1_555
Ni3 O0 2.171396 1_445
Ni3 O6 2.171504 1_555
Ni3 O2 2.171607 1_555
O0 Sn1 2.057305 1_555
O0 Sn3 2.163031 1_665
O1 Sn0 2.057284 1_545
O1 Sn2 2.163107 1_655
O2 Sn1 2.057480 1_555
O2 Sn3 2.162961 1_555
O3 Sn0 2.057452 1_555
O3 Sn2 2.163033 1_555
O4 Sn3 2.057269 1_655
O4 Sn1 2.163239 1_555
O5 Sn2 2.057285 1_655
O5 Sn0 2.163165 1_555
O6 Sn1 2.057285 1_455
O6 Sn3 2.163165 1_555
O7 Sn0 2.057269 1_455
O7 Sn2 2.163239 1_555
O8 Sn3 2.057452 1_555
O8 Sn1 2.163033 1_555
O9 Sn2 2.057480 1_555
O9 Sn0 2.162961 1_555
O10 Sn3 2.057284 1_565
O10 Sn1 2.163107 1_455
O11 Sn2 2.057305 1_555
O11 Sn0 2.163031 1_445
