# generated using pymatgen
data_Na5VO4
_symmetry_space_group_name_H-M   'P 1'
_cell_length_a   10.44382800
_cell_length_b   10.69326900
_cell_length_c   10.82132300
_cell_angle_alpha   90.00000000
_cell_angle_beta   90.00000000
_cell_angle_gamma   90.00000000
_symmetry_Int_Tables_number   1
_chemical_formula_structural   Na5VO4
_chemical_formula_sum   'Na40 V8 O32'
_cell_volume   1208.51087581
_cell_formula_units_Z   8
loop_
 _symmetry_equiv_pos_site_id
 _symmetry_equiv_pos_as_xyz
  1  'x, y, z'
loop_
 _atom_site_type_symbol
 _atom_site_label
 _atom_site_symmetry_multiplicity
 _atom_site_fract_x
 _atom_site_fract_y
 _atom_site_fract_z
 _atom_site_occupancy
  Na  Na0  1  0.83229000  0.10677000  0.11450400  1
  Na  Na1  1  0.66771000  0.10677000  0.61450400  1
  Na  Na2  1  0.14465200  0.11470800  0.39888700  1
  Na  Na3  1  0.35534800  0.11470800  0.89888700  1
  Na  Na4  1  0.39912900  0.11907700  0.16187700  1
  Na  Na5  1  0.10087100  0.11907700  0.66187700  1
  Na  Na6  1  0.58795400  0.12241400  0.35466800  1
  Na  Na7  1  0.91204600  0.12241400  0.85466800  1
  Na  Na8  1  0.86404600  0.15408200  0.38138400  1
  Na  Na9  1  0.63595400  0.15408200  0.88138400  1
  Na  Na10  1  0.13595400  0.34591800  0.88138400  1
  Na  Na11  1  0.36404600  0.34591800  0.38138400  1
  Na  Na12  1  0.08795400  0.37758600  0.35466800  1
  Na  Na13  1  0.41204600  0.37758600  0.85466800  1
  Na  Na14  1  0.60087100  0.38092300  0.66187700  1
  Na  Na15  1  0.89912900  0.38092300  0.16187700  1
  Na  Na16  1  0.64465200  0.38529200  0.39888700  1
  Na  Na17  1  0.85534800  0.38529200  0.89888700  1
  Na  Na18  1  0.16771000  0.39323000  0.61450400  1
  Na  Na19  1  0.33229000  0.39323000  0.11450400  1
  Na  Na20  1  0.66771000  0.60677000  0.88549600  1
  Na  Na21  1  0.83229000  0.60677000  0.38549600  1
  Na  Na22  1  0.14465200  0.61470800  0.10111300  1
  Na  Na23  1  0.35534800  0.61470800  0.60111300  1
  Na  Na24  1  0.39912900  0.61907700  0.33812300  1
  Na  Na25  1  0.10087100  0.61907700  0.83812300  1
  Na  Na26  1  0.58795400  0.62241400  0.14533200  1
  Na  Na27  1  0.91204600  0.62241400  0.64533200  1
  Na  Na28  1  0.63595400  0.65408200  0.61861600  1
  Na  Na29  1  0.86404600  0.65408200  0.11861600  1
  Na  Na30  1  0.13595400  0.84591800  0.61861600  1
  Na  Na31  1  0.36404600  0.84591800  0.11861600  1
  Na  Na32  1  0.08795400  0.87758600  0.14533200  1
  Na  Na33  1  0.41204600  0.87758600  0.64533200  1
  Na  Na34  1  0.60087100  0.88092300  0.83812300  1
  Na  Na35  1  0.89912900  0.88092300  0.33812300  1
  Na  Na36  1  0.64465200  0.88529200  0.10111300  1
  Na  Na37  1  0.85534800  0.88529200  0.60111300  1
  Na  Na38  1  0.16771000  0.89323000  0.88549600  1
  Na  Na39  1  0.33229000  0.89323000  0.38549600  1
  V  V0  1  0.11486500  0.14605500  0.12702400  1
  V  V1  1  0.38513500  0.14605500  0.62702400  1
  V  V2  1  0.88513500  0.35394500  0.62702400  1
  V  V3  1  0.61486500  0.35394500  0.12702400  1
  V  V4  1  0.11486500  0.64605500  0.37297600  1
  V  V5  1  0.38513500  0.64605500  0.87297600  1
  V  V6  1  0.61486500  0.85394500  0.37297600  1
  V  V7  1  0.88513500  0.85394500  0.87297600  1
  O  O0  1  0.22983900  0.02290800  0.05054800  1
  O  O1  1  0.27016100  0.02290800  0.55054800  1
  O  O2  1  0.00322000  0.05143700  0.24226800  1
  O  O3  1  0.49678000  0.05143700  0.74226800  1
  O  O4  1  0.00111400  0.24009200  0.01989800  1
  O  O5  1  0.49888600  0.24009200  0.51989800  1
  O  O6  1  0.22301600  0.24466600  0.23815000  1
  O  O7  1  0.27698400  0.24466600  0.73815000  1
  O  O8  1  0.72301600  0.25533400  0.23815000  1
  O  O9  1  0.77698400  0.25533400  0.73815000  1
  O  O10  1  0.99888600  0.25990800  0.51989800  1
  O  O11  1  0.50111400  0.25990800  0.01989800  1
  O  O12  1  0.50322000  0.44856300  0.24226800  1
  O  O13  1  0.99678000  0.44856300  0.74226800  1
  O  O14  1  0.77016100  0.47709200  0.55054800  1
  O  O15  1  0.72983900  0.47709200  0.05054800  1
  O  O16  1  0.27016100  0.52290800  0.94945200  1
  O  O17  1  0.22983900  0.52290800  0.44945200  1
  O  O18  1  0.00322000  0.55143700  0.25773200  1
  O  O19  1  0.49678000  0.55143700  0.75773200  1
  O  O20  1  0.49888600  0.74009200  0.98010200  1
  O  O21  1  0.00111400  0.74009200  0.48010200  1
  O  O22  1  0.22301600  0.74466600  0.26185000  1
  O  O23  1  0.27698400  0.74466600  0.76185000  1
  O  O24  1  0.72301600  0.75533400  0.26185000  1
  O  O25  1  0.77698400  0.75533400  0.76185000  1
  O  O26  1  0.99888600  0.75990800  0.98010200  1
  O  O27  1  0.50111400  0.75990800  0.48010200  1
  O  O28  1  0.99678000  0.94856300  0.75773200  1
  O  O29  1  0.50322000  0.94856300  0.25773200  1
  O  O30  1  0.77016100  0.97709200  0.94945200  1
  O  O31  1  0.72983900  0.97709200  0.44945200  1
loop_
_geom_bond_atom_site_label_1
_geom_bond_atom_site_label_2
_geom_bond_distance
_geom_bond_site_symmetry_2
Na0 O2 2.334185 1_655
Na0 O30 2.352445 1_544
Na0 O8 2.369909 1_555
Na0 O4 2.487835 1_655
Na1 O3 2.334185 1_555
Na1 O31 2.352445 1_545
Na1 O9 2.369909 1_555
Na1 O5 2.487835 1_555
Na2 O1 2.318459 1_555
Na2 O2 2.347761 1_555
Na2 O6 2.372020 1_555
Na2 O10 2.538329 1_455
Na3 O0 2.318459 1_556
Na3 O3 2.347761 1_555
Na3 O7 2.372020 1_555
Na3 O11 2.538329 1_556
Na4 O29 2.362703 1_545
Na4 O0 2.373783 1_555
Na4 O11 2.400596 1_555
Na4 O6 2.422350 1_555
Na5 O28 2.362703 1_445
Na5 O1 2.373783 1_555
Na5 O10 2.400596 1_455
Na5 O7 2.422350 1_555
Na6 O29 2.310735 1_545
Na6 O8 2.366377 1_555
Na6 O5 2.376076 1_555
Na6 O31 2.379632 1_545
Na7 O28 2.310735 1_545
Na7 O9 2.366377 1_555
Na7 O4 2.376076 1_656
Na7 O30 2.379632 1_545
Na8 O10 2.347434 1_555
Na8 O2 2.362991 1_655
Na8 O8 2.396691 1_555
Na8 O31 2.467606 1_545
Na9 O11 2.347434 1_556
Na9 O3 2.362991 1_555
Na9 O9 2.396691 1_555
Na9 O30 2.467606 1_545
Na10 O4 2.347434 1_556
Na10 O13 2.362991 1_455
Na10 O7 2.396691 1_555
Na10 O16 2.467606 1_555
Na11 O5 2.347434 1_555
Na11 O12 2.362991 1_555
Na11 O6 2.396691 1_555
Na11 O17 2.467606 1_555
Na12 O18 2.310735 1_555
Na12 O6 2.366377 1_555
Na12 O10 2.376076 1_455
Na12 O17 2.379632 1_555
Na13 O19 2.310735 1_555
Na13 O7 2.366377 1_555
Na13 O11 2.376076 1_556
Na13 O16 2.379632 1_555
Na14 O19 2.362703 1_555
Na14 O14 2.373783 1_555
Na14 O5 2.400596 1_555
Na14 O9 2.422350 1_555
Na15 O18 2.362703 1_655
Na15 O15 2.373783 1_555
Na15 O4 2.400596 1_655
Na15 O8 2.422350 1_555
Na16 O14 2.318459 1_555
Na16 O12 2.347761 1_555
Na16 O8 2.372020 1_555
Na16 O5 2.538329 1_555
Na17 O15 2.318459 1_556
Na17 O13 2.347761 1_555
Na17 O9 2.372020 1_555
Na17 O4 2.538329 1_656
Na18 O13 2.334185 1_455
Na18 O17 2.352445 1_555
Na18 O7 2.369909 1_555
Na18 O10 2.487835 1_455
Na19 O12 2.334185 1_555
Na19 O16 2.352445 1_554
Na19 O6 2.369909 1_555
Na19 O11 2.487835 1_555
Na20 O19 2.334185 1_555
Na20 O15 2.352445 1_556
Na20 O25 2.369909 1_555
Na20 O20 2.487835 1_555
Na21 O18 2.334185 1_655
Na21 O14 2.352445 1_555
Na21 O24 2.369909 1_555
Na21 O21 2.487835 1_655
Na22 O16 2.318459 1_554
Na22 O18 2.347761 1_555
Na22 O22 2.372020 1_555
Na22 O26 2.538329 1_454
Na23 O17 2.318459 1_555
Na23 O19 2.347761 1_555
Na23 O23 2.372020 1_555
Na23 O27 2.538329 1_555
Na24 O12 2.362703 1_555
Na24 O17 2.373783 1_555
Na24 O27 2.400596 1_555
Na24 O22 2.422350 1_555
Na25 O13 2.362703 1_455
Na25 O16 2.373783 1_555
Na25 O26 2.400596 1_455
Na25 O23 2.422350 1_555
Na26 O12 2.310735 1_555
Na26 O24 2.366377 1_555
Na26 O20 2.376076 1_554
Na26 O15 2.379632 1_555
Na27 O13 2.310735 1_555
Na27 O25 2.366377 1_555
Na27 O21 2.376076 1_655
Na27 O14 2.379632 1_555
Na28 O27 2.347434 1_555
Na28 O19 2.362991 1_555
Na28 O25 2.396691 1_555
Na28 O14 2.467606 1_555
Na29 O26 2.347434 1_554
Na29 O18 2.362991 1_655
Na29 O24 2.396691 1_555
Na29 O15 2.467606 1_555
Na30 O21 2.347434 1_555
Na30 O28 2.362991 1_455
Na30 O23 2.396691 1_555
Na30 O1 2.467606 1_565
Na31 O20 2.347434 1_554
Na31 O29 2.362991 1_555
Na31 O22 2.396691 1_555
Na31 O0 2.467606 1_565
Na32 O2 2.310735 1_565
Na32 O22 2.366377 1_555
Na32 O26 2.376076 1_454
Na32 O0 2.379632 1_565
Na33 O3 2.310735 1_565
Na33 O23 2.366377 1_555
Na33 O27 2.376076 1_555
Na33 O1 2.379632 1_565
Na34 O3 2.362703 1_565
Na34 O30 2.373783 1_555
Na34 O20 2.400596 1_555
Na34 O25 2.422350 1_555
Na35 O2 2.362703 1_665
Na35 O31 2.373783 1_555
Na35 O21 2.400596 1_655
Na35 O24 2.422350 1_555
Na36 O30 2.318459 1_554
Na36 O29 2.347761 1_555
Na36 O24 2.372020 1_555
Na36 O20 2.538329 1_554
Na37 O31 2.318459 1_555
Na37 O28 2.347761 1_555
Na37 O25 2.372020 1_555
Na37 O21 2.538329 1_655
Na38 O28 2.334185 1_455
Na38 O0 2.352445 1_566
Na38 O23 2.369909 1_555
Na38 O26 2.487835 1_455
Na39 O29 2.334185 1_555
Na39 O1 2.352445 1_565
Na39 O22 2.369909 1_555
Na39 O27 2.487835 1_555
O0 V0 1.964891 1_555
O1 V1 1.964891 1_555
O2 V0 1.984563 1_555
O3 V1 1.984563 1_555
O4 V0 1.940706 1_555
O5 V1 1.940706 1_555
O6 V0 1.958006 1_555
O7 V1 1.958006 1_555
O8 V3 1.958006 1_555
O9 V2 1.958006 1_555
O10 V2 1.940706 1_555
O11 V3 1.940706 1_555
O12 V3 1.984563 1_555
O13 V2 1.984563 1_555
O14 V2 1.964891 1_555
O15 V3 1.964891 1_555
O16 V5 1.964891 1_555
O17 V4 1.964891 1_555
O18 V4 1.984563 1_555
O19 V5 1.984563 1_555
O20 V5 1.940706 1_555
O21 V4 1.940706 1_555
O22 V4 1.958006 1_555
O23 V5 1.958006 1_555
O24 V6 1.958006 1_555
O25 V7 1.958006 1_555
O26 V7 1.940706 1_555
O27 V6 1.940706 1_555
O28 V7 1.984563 1_555
O29 V6 1.984563 1_555
O30 V7 1.964891 1_555
O31 V6 1.964891 1_555
