# generated using pymatgen
data_Li3Mo4P9O32
_symmetry_space_group_name_H-M   'P 1'
_cell_length_a   14.02332600
_cell_length_b   14.02332600
_cell_length_c   6.47322800
_cell_angle_alpha   90.00000000
_cell_angle_beta   90.00000000
_cell_angle_gamma   90.00000000
_symmetry_Int_Tables_number   1
_chemical_formula_structural   Li3Mo4P9O32
_chemical_formula_sum   'Li6 Mo8 P18 O64'
_cell_volume   1272.98405656
_cell_formula_units_Z   2
loop_
 _symmetry_equiv_pos_site_id
 _symmetry_equiv_pos_as_xyz
  1  'x, y, z'
loop_
 _atom_site_type_symbol
 _atom_site_label
 _atom_site_symmetry_multiplicity
 _atom_site_fract_x
 _atom_site_fract_y
 _atom_site_fract_z
 _atom_site_occupancy
  Li  Li0  1  0.50000000  0.50000000  0.50000000  1
  Li  Li1  1  0.00000000  0.50000000  0.13667900  1
  Li  Li2  1  0.50000000  0.00000000  0.86332100  1
  Li  Li3  1  0.00000000  0.50000000  0.63667900  1
  Li  Li4  1  0.50000000  0.00000000  0.36332100  1
  Li  Li5  1  0.00000000  0.00000000  0.00000000  1
  Mo  Mo0  1  0.12119900  0.19669100  0.62292200  1
  Mo  Mo1  1  0.37880100  0.69669100  0.87707800  1
  Mo  Mo2  1  0.62119900  0.30330900  0.87707800  1
  Mo  Mo3  1  0.69669100  0.62119900  0.12292200  1
  Mo  Mo4  1  0.30330900  0.37880100  0.12292200  1
  Mo  Mo5  1  0.19669100  0.87880100  0.37707800  1
  Mo  Mo6  1  0.87880100  0.80330900  0.62292200  1
  Mo  Mo7  1  0.80330900  0.12119900  0.37707800  1
  P  P0  1  0.39892700  0.74745800  0.36909700  1
  P  P1  1  0.56033800  0.80775100  0.11290200  1
  P  P2  1  0.93966200  0.30775100  0.38709800  1
  P  P3  1  0.75254200  0.10107300  0.86909700  1
  P  P4  1  0.24745800  0.89892700  0.86909700  1
  P  P5  1  0.89892700  0.75254200  0.13090300  1
  P  P6  1  0.10107300  0.24745800  0.13090300  1
  P  P7  1  0.25254200  0.39892700  0.63090300  1
  P  P8  1  0.80775100  0.43966200  0.88709800  1
  P  P9  1  0.60107300  0.25254200  0.36909700  1
  P  P10  1  0.69224900  0.93966200  0.61290200  1
  P  P11  1  0.30775100  0.06033800  0.61290200  1
  P  P12  1  0.50000000  0.50000000  0.00000000  1
  P  P13  1  0.00000000  0.00000000  0.50000000  1
  P  P14  1  0.43966200  0.19224900  0.11290200  1
  P  P15  1  0.06033800  0.69224900  0.38709800  1
  P  P16  1  0.19224900  0.56033800  0.88709800  1
  P  P17  1  0.74745800  0.60107300  0.63090300  1
  O  O0  1  0.84182700  0.66108100  0.10768600  1
  O  O1  1  0.66108100  0.15817300  0.89231400  1
  O  O2  1  0.91429400  0.44339100  0.89792600  1
  O  O3  1  0.75430900  0.49078200  0.06394400  1
  O  O4  1  0.25430900  0.00921800  0.43605600  1
  O  O5  1  0.24569100  0.50921800  0.06394400  1
  O  O6  1  0.68329900  0.63378800  0.80933500  1
  O  O7  1  0.00758100  0.72474000  0.17199400  1
  O  O8  1  0.26230400  0.16092500  0.64038200  1
  O  O9  1  0.83891900  0.65817300  0.60768600  1
  O  O10  1  0.34182700  0.83891900  0.39231400  1
  O  O11  1  0.55660900  0.91429400  0.10207400  1
  O  O12  1  0.23769600  0.66092500  0.85961800  1
  O  O13  1  0.05660900  0.58570600  0.39792600  1
  O  O14  1  0.94089200  0.06364300  0.35131900  1
  O  O15  1  0.00921800  0.74569100  0.56394400  1
  O  O16  1  0.06364300  0.05910800  0.64868100  1
  O  O17  1  0.13378800  0.18329900  0.30933500  1
  O  O18  1  0.76230400  0.33907500  0.85961800  1
  O  O19  1  0.40284200  0.68728300  0.56760100  1
  O  O20  1  0.31670100  0.36621200  0.80933500  1
  O  O21  1  0.49078200  0.24569100  0.93605600  1
  O  O22  1  0.94339100  0.41429400  0.39792600  1
  O  O23  1  0.15817300  0.33891900  0.10768600  1
  O  O24  1  0.33907500  0.23769600  0.14038200  1
  O  O25  1  0.66092500  0.76230400  0.14038200  1
  O  O26  1  0.27526000  0.00758100  0.82800600  1
  O  O27  1  0.43635700  0.55910800  0.85131900  1
  O  O28  1  0.90284200  0.81271700  0.93239900  1
  O  O29  1  0.44339100  0.08570600  0.10207400  1
  O  O30  1  0.31271700  0.40284200  0.43239900  1
  O  O31  1  0.56364300  0.44089200  0.85131900  1
  O  O32  1  0.65817300  0.16108100  0.39231400  1
  O  O33  1  0.44089200  0.43635700  0.14868100  1
  O  O34  1  0.86621200  0.81670100  0.30933500  1
  O  O35  1  0.18329900  0.86621200  0.69066500  1
  O  O36  1  0.81670100  0.13378800  0.69066500  1
  O  O37  1  0.08570600  0.55660900  0.89792600  1
  O  O38  1  0.58570600  0.94339100  0.60207400  1
  O  O39  1  0.16092500  0.73769600  0.35961800  1
  O  O40  1  0.16108100  0.34182700  0.60768600  1
  O  O41  1  0.49241900  0.22474000  0.32800600  1
  O  O42  1  0.50921800  0.75430900  0.93605600  1
  O  O43  1  0.05910800  0.93635700  0.35131900  1
  O  O44  1  0.36621200  0.68329900  0.19066500  1
  O  O45  1  0.77526000  0.49241900  0.67199400  1
  O  O46  1  0.09715800  0.18728300  0.93239900  1
  O  O47  1  0.93635700  0.94089200  0.64868100  1
  O  O48  1  0.63378800  0.31670100  0.19066500  1
  O  O49  1  0.99241900  0.27526000  0.17199400  1
  O  O50  1  0.55910800  0.56364300  0.14868100  1
  O  O51  1  0.74569100  0.99078200  0.43605600  1
  O  O52  1  0.68728300  0.59715800  0.43239900  1
  O  O53  1  0.22474000  0.50758100  0.67199400  1
  O  O54  1  0.72474000  0.99241900  0.82800600  1
  O  O55  1  0.50758100  0.77526000  0.32800600  1
  O  O56  1  0.81271700  0.09715800  0.06760100  1
  O  O57  1  0.33891900  0.84182700  0.89231400  1
  O  O58  1  0.83907500  0.26230400  0.35961800  1
  O  O59  1  0.18728300  0.90284200  0.06760100  1
  O  O60  1  0.41429400  0.05660900  0.60207400  1
  O  O61  1  0.73769600  0.83907500  0.64038200  1
  O  O62  1  0.59715800  0.31271700  0.56760100  1
  O  O63  1  0.99078200  0.25430900  0.56394400  1
loop_
_geom_bond_atom_site_label_1
_geom_bond_atom_site_label_2
_geom_bond_distance
_geom_bond_site_symmetry_2
Li0 O27 2.579812 1_555
Li0 O31 2.579812 1_555
Li0 O50 2.579812 1_555
Li0 O33 2.579812 1_555
Li1 O37 2.112651 1_554
Li1 O2 2.112651 1_454
Li1 O13 2.221390 1_555
Li1 O22 2.221390 1_455
Li2 O29 2.112651 1_556
Li2 O11 2.112651 1_546
Li2 O38 2.221390 1_545
Li2 O60 2.221390 1_555
Li3 O13 2.112651 1_555
Li3 O22 2.112651 1_455
Li3 O37 2.221390 1_555
Li3 O2 2.221390 1_455
Li4 O38 2.112651 1_545
Li4 O60 2.112651 1_555
Li4 O29 2.221390 1_555
Li4 O11 2.221390 1_545
Li5 O16 2.579812 1_554
Li5 O14 2.579812 1_455
Li5 O43 2.579812 1_545
Li5 O47 2.579812 1_444
Mo0 O63 2.035538 1_455
Mo0 O46 2.035765 1_555
Mo0 O8 2.044464 1_555
Mo0 O17 2.046219 1_555
Mo0 O16 2.098030 1_555
Mo0 O40 2.113036 1_555
Mo1 O42 2.035538 1_555
Mo1 O19 2.035765 1_555
Mo1 O12 2.044464 1_555
Mo1 O44 2.046219 1_556
Mo1 O27 2.098030 1_555
Mo1 O57 2.113036 1_555
Mo2 O21 2.035538 1_555
Mo2 O62 2.035765 1_555
Mo2 O18 2.044464 1_555
Mo2 O48 2.046219 1_556
Mo2 O31 2.098030 1_555
Mo2 O1 2.113036 1_555
Mo3 O3 2.035538 1_555
Mo3 O52 2.035765 1_555
Mo3 O25 2.044464 1_555
Mo3 O6 2.046219 1_554
Mo3 O50 2.098030 1_555
Mo3 O0 2.113036 1_555
Mo4 O5 2.035538 1_555
Mo4 O30 2.035765 1_555
Mo4 O24 2.044464 1_555
Mo4 O20 2.046219 1_554
Mo4 O33 2.098030 1_555
Mo4 O23 2.113036 1_555
Mo5 O4 2.035538 1_565
Mo5 O59 2.035765 1_555
Mo5 O39 2.044464 1_555
Mo5 O35 2.046219 1_555
Mo5 O43 2.098030 1_555
Mo5 O10 2.113036 1_555
Mo6 O15 2.035538 1_655
Mo6 O28 2.035765 1_555
Mo6 O61 2.044464 1_555
Mo6 O34 2.046219 1_555
Mo6 O47 2.098030 1_555
Mo6 O9 2.113036 1_555
Mo7 O51 2.035538 1_545
Mo7 O56 2.035765 1_555
Mo7 O58 2.044464 1_555
Mo7 O36 2.046219 1_555
Mo7 O14 2.098030 1_555
Mo7 O32 2.113036 1_555
O0 P5 1.519470 1_555
O1 P3 1.519470 1_555
O2 P8 1.496644 1_555
O3 P8 1.544682 1_554
O4 P11 1.544682 1_555
O5 P16 1.544682 1_554
O6 P17 1.534298 1_555
O7 P5 1.595114 1_455
O7 P15 1.641272 1_555
O8 P11 1.558046 1_555
O9 P17 1.519470 1_555
O10 P0 1.519470 1_555
O11 P1 1.496644 1_555
O12 P16 1.558046 1_555
O13 P15 1.496644 1_555
O14 P13 1.552383 1_655
O15 P15 1.544682 1_555
O16 P13 1.552383 1_555
O17 P6 1.534298 1_555
O18 P8 1.558046 1_555
O19 P0 1.538255 1_555
O20 P7 1.534298 1_555
O21 P14 1.544682 1_556
O22 P2 1.496644 1_555
O23 P6 1.519470 1_555
O24 P14 1.558046 1_555
O25 P1 1.558046 1_555
O26 P4 1.595114 1_545
O26 P11 1.641272 1_555
O27 P12 1.552383 1_556
O28 P5 1.538255 1_556
O29 P14 1.496644 1_555
O30 P7 1.538255 1_555
O31 P12 1.552383 1_556
O32 P9 1.519470 1_555
O33 P12 1.552383 1_555
O34 P5 1.534298 1_555
O35 P4 1.534298 1_555
O36 P3 1.534298 1_555
O37 P16 1.496644 1_555
O38 P10 1.496644 1_555
O39 P15 1.558046 1_555
O40 P7 1.519470 1_555
O41 P9 1.595114 1_555
O41 P14 1.641272 1_555
O42 P1 1.544682 1_556
O43 P13 1.552383 1_565
O44 P0 1.534298 1_555
O45 P17 1.595114 1_555
O45 P8 1.641272 1_555
O46 P6 1.538255 1_556
O47 P13 1.552383 1_665
O48 P9 1.534298 1_555
O49 P6 1.595114 1_655
O49 P2 1.641272 1_555
O50 P12 1.552383 1_555
O51 P10 1.544682 1_555
O52 P17 1.538255 1_555
O53 P7 1.595114 1_555
O53 P16 1.641272 1_555
O54 P3 1.595114 1_565
O54 P10 1.641272 1_555
O55 P0 1.595114 1_555
O55 P1 1.641272 1_555
O56 P3 1.538255 1_554
O57 P4 1.519470 1_555
O58 P2 1.558046 1_555
O59 P4 1.538255 1_554
O60 P11 1.496644 1_555
O61 P10 1.558046 1_555
O62 P9 1.538255 1_555
O63 P2 1.544682 1_555
