# generated using pymatgen
data_Li5V3P8O29
_symmetry_space_group_name_H-M   'P 1'
_cell_length_a   9.77400800
_cell_length_b   9.79896638
_cell_length_c   14.01927677
_cell_angle_alpha   89.81025689
_cell_angle_beta   89.87971344
_cell_angle_gamma   60.14818466
_symmetry_Int_Tables_number   1
_chemical_formula_structural   Li5V3P8O29
_chemical_formula_sum   'Li10 V6 P16 O58'
_cell_volume   1164.53706437
_cell_formula_units_Z   2
loop_
 _symmetry_equiv_pos_site_id
 _symmetry_equiv_pos_as_xyz
  1  'x, y, z'
loop_
 _atom_site_type_symbol
 _atom_site_label
 _atom_site_symmetry_multiplicity
 _atom_site_fract_x
 _atom_site_fract_y
 _atom_site_fract_z
 _atom_site_occupancy
  Li  Li0  1  0.90710000  0.77395800  0.44304300  1
  Li  Li1  1  0.31423800  0.91458300  0.44110200  1
  Li  Li2  1  0.33216800  0.76555600  0.94038200  1
  Li  Li3  1  0.89763700  0.33449500  0.93774800  1
  Li  Li4  1  0.22802400  0.68381600  0.56005800  1
  Li  Li5  1  0.77483200  0.32164000  0.44313200  1
  Li  Li6  1  0.09271200  0.66804500  0.05903900  1
  Li  Li7  1  0.67729700  0.09495600  0.56317300  1
  Li  Li8  1  0.23179500  0.09701400  0.05699500  1
  Li  Li9  1  0.93307800  0.01583100  0.99251600  1
  V  V0  1  0.43991600  0.56442700  0.75166200  1
  V  V1  1  0.56800600  0.42839600  0.24504300  1
  V  V2  1  0.99893100  0.56665900  0.25282100  1
  V  V3  1  0.00423500  0.43251400  0.74805700  1
  V  V4  1  0.56890400  0.99687500  0.75403500  1
  V  V5  1  0.43525900  0.00118800  0.24797100  1
  P  P0  1  0.77721700  0.91420600  0.15844700  1
  P  P1  1  0.91265100  0.76962000  0.66011500  1
  P  P2  1  0.31899800  0.91156000  0.65840000  1
  P  P3  1  0.66956900  0.66360000  0.87097300  1
  P  P4  1  0.66252300  0.66559000  0.36972300  1
  P  P5  1  0.31607000  0.77034600  0.15856900  1
  P  P6  1  0.23400000  0.67904000  0.34269800  1
  P  P7  1  0.91475000  0.31429900  0.15655300  1
  P  P8  1  0.08911900  0.68621700  0.84343600  1
  P  P9  1  0.77271100  0.31604600  0.65621000  1
  P  P10  1  0.69031600  0.22236800  0.83937600  1
  P  P11  1  0.33620000  0.33643700  0.63071900  1
  P  P12  1  0.32997600  0.33766900  0.12764600  1
  P  P13  1  0.68135600  0.08825600  0.34226700  1
  P  P14  1  0.08741700  0.22825400  0.34037900  1
  P  P15  1  0.22596100  0.08537800  0.84234800  1
  O  O0  1  0.75547400  0.00396000  0.43419200  1
  O  O1  1  0.74805600  0.91939800  0.65987600  1
  O  O2  1  0.01638500  0.77627300  0.93332000  1
  O  O3  1  0.91631000  0.74095500  0.16469300  1
  O  O4  1  0.61769400  0.91867500  0.16797000  1
  O  O5  1  0.67651800  0.80513600  0.82785700  1
  O  O6  1  0.47752100  0.90567300  0.67814100  1
  O  O7  1  0.22772600  0.99529300  0.93081600  1
  O  O8  1  0.33850700  0.91559600  0.15762300  1
  O  O9  1  0.81180300  0.67213600  0.33298300  1
  O  O10  1  0.89770000  0.62257600  0.67645200  1
  O  O11  1  0.51231700  0.81354800  0.32761400  1
  O  O12  1  0.65361500  0.65748500  0.97629400  1
  O  O13  1  0.65939200  0.65882200  0.47595500  1
  O  O14  1  0.51242100  0.67259000  0.82656100  1
  O  O15  1  0.91014400  0.47093600  0.16943900  1
  O  O16  1  0.81568300  0.50906600  0.83202700  1
  O  O17  1  0.34243200  0.74129600  0.66313300  1
  O  O18  1  0.20977100  0.79204300  0.25159700  1
  O  O19  1  0.24958100  0.75518600  0.43174100  1
  O  O20  1  0.23228000  0.76439700  0.06995800  1
  O  O21  1  0.47492400  0.61637800  0.17357600  1
  O  O22  1  0.66710700  0.51470500  0.32475600  1
  O  O23  1  0.26110600  0.66012000  0.83696900  1
  O  O24  1  0.62001100  0.47595100  0.67922700  1
  O  O25  1  0.91477900  0.33894200  0.66011300  1
  O  O26  1  0.00246400  0.79268700  0.75055700  1
  O  O27  1  0.00318000  0.75783400  0.57050200  1
  O  O28  1  0.99184400  0.23775100  0.42467600  1
  O  O29  1  0.08354000  0.66455400  0.34420500  1
  O  O30  1  0.38255100  0.52045500  0.32178800  1
  O  O31  1  0.74548800  0.33784400  0.16577500  1
  O  O32  1  0.33400000  0.48716700  0.67697100  1
  O  O33  1  0.53495800  0.38224800  0.82965300  1
  O  O34  1  0.79201500  0.21240300  0.92178200  1
  O  O35  1  0.74844700  0.24947300  0.56585700  1
  O  O36  1  0.78810300  0.20015000  0.74221500  1
  O  O37  1  0.66486600  0.25464000  0.33902300  1
  O  O38  1  0.18734900  0.49082300  0.16831100  1
  O  O39  1  0.08914200  0.53071100  0.83338200  1
  O  O40  1  0.48260700  0.33151100  0.17567800  1
  O  O41  1  0.33733100  0.34122200  0.02178600  1
  O  O42  1  0.32776000  0.35592300  0.52536200  1
  O  O43  1  0.48680900  0.18674900  0.66696300  1
  O  O44  1  0.09587300  0.38071500  0.32214500  1
  O  O45  1  0.18842500  0.33800900  0.67787300  1
  O  O46  1  0.65427800  0.08657500  0.83782600  1
  O  O47  1  0.79703400  0.99316100  0.25591200  1
  O  O48  1  0.79687300  0.99497400  0.07502400  1
  O  O49  1  0.52007200  0.10256500  0.32251400  1
  O  O50  1  0.32262100  0.19073400  0.16638100  1
  O  O51  1  0.37823100  0.09156600  0.82920700  1
  O  O52  1  0.07983500  0.25067200  0.84225100  1
  O  O53  1  0.99262700  0.22843100  0.06545100  1
  O  O54  1  0.01089500  0.20115900  0.24411400  1
  O  O55  1  0.25642800  0.08409300  0.34010600  1
  O  O56  1  0.24480800  0.98820900  0.56657500  1
  O  O57  1  0.20666800  0.99859400  0.74873100  1
loop_
_geom_bond_atom_site_label_1
_geom_bond_atom_site_label_2
_geom_bond_distance
_geom_bond_site_symmetry_2
Li0 O27 1.989288 1_655
Li0 O0 1.991240 1_565
Li0 O29 2.050021 1_655
Li0 O9 2.277105 1_555
Li1 O56 1.895056 1_555
Li1 O19 1.959734 1_555
Li1 O55 2.033829 1_565
Li1 O11 2.312805 1_555
Li2 O7 1.959264 1_555
Li2 O20 2.063166 1_556
Li2 O23 2.092897 1_555
Li2 O14 2.209091 1_555
Li3 O34 1.944080 1_555
Li3 O52 2.044364 1_655
Li3 O53 2.044847 1_556
Li3 O16 2.094911 1_555
Li4 O27 1.946695 1_555
Li4 O19 1.976446 1_555
Li4 O17 2.072435 1_555
Li4 O32 2.339166 1_555
Li5 O28 1.872160 1_555
Li5 O35 1.923119 1_555
Li5 O37 2.105207 1_555
Li5 O22 2.333516 1_555
Li6 O2 1.998284 1_554
Li6 O20 2.014879 1_555
Li6 O3 2.108807 1_455
Li6 O38 2.146467 1_555
Li7 O35 1.956081 1_555
Li7 O0 1.993788 1_555
Li7 O1 2.019829 1_545
Li7 O43 2.173201 1_555
Li8 O53 2.034681 1_455
Li8 O7 2.043451 1_544
Li8 O8 2.093321 1_545
Li8 O50 2.193117 1_555
Li9 O48 1.847928 1_546
Li9 O34 1.985900 1_555
Li9 O2 2.229204 1_645
O0 P13 1.506342 1_555
O1 P1 1.546483 1_555
O1 V4 2.014577 1_555
O2 P8 1.500353 1_555
O3 P0 1.562014 1_555
O3 V2 1.926845 1_555
O4 P0 1.543364 1_555
O4 V5 1.911411 1_565
O5 P3 1.543224 1_555
O5 V4 1.931789 1_555
O6 P2 1.547027 1_555
O6 V4 1.879740 1_555
O7 P15 1.515072 1_565
O8 P5 1.544229 1_555
O8 V5 2.000914 1_565
O9 P4 1.577363 1_555
O9 V2 1.947710 1_555
O10 P1 1.535327 1_555
O10 V3 1.903145 1_655
O11 P4 1.576347 1_555
O11 V5 1.950888 1_565
O12 P3 1.488549 1_555
O13 P4 1.491480 1_555
O14 P3 1.619742 1_555
O14 V0 1.867179 1_555
O15 P7 1.524314 1_555
O15 V2 1.954795 1_555
O16 P3 1.574799 1_555
O16 V3 1.991311 1_655
O17 P2 1.568236 1_555
O17 V0 1.949034 1_555
O18 P5 1.613009 1_555
O18 P6 1.626111 1_555
O19 P6 1.502772 1_555
O20 P5 1.506517 1_555
O21 P5 1.548700 1_555
O21 V1 1.883582 1_555
O22 P4 1.589194 1_555
O22 V1 1.930974 1_555
O23 P8 1.571926 1_555
O23 V0 1.931623 1_555
O24 P9 1.568458 1_555
O24 V0 1.833143 1_555
O25 P9 1.513938 1_555
O25 V3 1.983780 1_655
O26 P8 1.617786 1_555
O26 P1 1.622785 1_455
O27 P1 1.506366 1_455
O28 P14 1.478994 1_655
O29 P6 1.546258 1_555
O29 V2 2.011892 1_455
O30 P6 1.537516 1_555
O30 V1 1.904577 1_555
O31 P7 1.557626 1_555
O31 V1 1.870186 1_555
O32 P11 1.605335 1_555
O32 V0 1.879178 1_555
O33 P10 1.552400 1_555
O33 V0 1.893589 1_555
O34 P10 1.496558 1_555
O35 P9 1.499012 1_555
O36 P9 1.608647 1_555
O36 P10 1.614197 1_555
O37 P13 1.556972 1_555
O37 V1 1.979092 1_555
O38 P12 1.562116 1_555
O38 V2 1.995412 1_455
O39 P8 1.530656 1_555
O39 V3 1.962707 1_555
O40 P12 1.611497 1_555
O40 V1 1.828134 1_555
O41 P12 1.486801 1_555
O42 P11 1.485881 1_555
O43 P11 1.557332 1_555
O43 V4 2.024471 1_545
O44 P14 1.557047 1_555
O44 V2 1.853556 1_455
O45 P11 1.580289 1_555
O45 V3 1.845427 1_555
O46 P10 1.536860 1_555
O46 V4 1.894702 1_545
O47 P13 1.601616 1_565
O47 P0 1.631076 1_555
O48 P0 1.474919 1_555
O49 P13 1.537170 1_555
O49 V5 1.896421 1_555
O50 P12 1.571881 1_555
O50 V5 1.981346 1_555
O51 P15 1.530109 1_555
O51 V4 1.929113 1_545
O52 P15 1.536346 1_555
O52 V3 2.035339 1_555
O53 P7 1.511294 1_555
O54 P7 1.605530 1_455
O54 P14 1.629574 1_555
O55 P14 1.549608 1_555
O55 V5 1.991829 1_555
O56 P2 1.484068 1_555
O57 P2 1.614196 1_555
O57 P15 1.627668 1_565
