# generated using pymatgen
data_Li2Fe3CuO8
_symmetry_space_group_name_H-M   'P 1'
_cell_length_a   8.39293591
_cell_length_b   8.41845620
_cell_length_c   8.35225106
_cell_angle_alpha   89.98092309
_cell_angle_beta   89.94705039
_cell_angle_gamma   90.01503302
_symmetry_Int_Tables_number   1
_chemical_formula_structural   Li2Fe3CuO8
_chemical_formula_sum   'Li8 Fe12 Cu4 O32'
_cell_volume   590.13269863
_cell_formula_units_Z   4
loop_
 _symmetry_equiv_pos_site_id
 _symmetry_equiv_pos_as_xyz
  1  'x, y, z'
loop_
 _atom_site_type_symbol
 _atom_site_label
 _atom_site_symmetry_multiplicity
 _atom_site_fract_x
 _atom_site_fract_y
 _atom_site_fract_z
 _atom_site_occupancy
  Li  Li0  1  0.12078200  0.87652800  0.37744200  1
  Li  Li1  1  0.24998300  0.75186000  0.74732900  1
  Li  Li2  1  0.24906800  0.25050900  0.24743000  1
  Li  Li3  1  0.37812700  0.12221400  0.87881600  1
  Li  Li4  1  0.62298300  0.62289500  0.62075600  1
  Li  Li5  1  0.75049000  0.74930400  0.25077300  1
  Li  Li6  1  0.75026900  0.25250800  0.75061500  1
  Li  Li7  1  0.87746200  0.37898800  0.12309600  1
  Fe  Fe0  1  0.12002700  0.62399500  0.12424800  1
  Fe  Fe1  1  0.12330900  0.37608800  0.88030400  1
  Fe  Fe2  1  0.12408500  0.11982300  0.62401600  1
  Fe  Fe3  1  0.37565100  0.87959300  0.12315700  1
  Fe  Fe4  1  0.37575600  0.62350300  0.37957300  1
  Fe  Fe5  1  0.37991800  0.37656200  0.62435100  1
  Fe  Fe6  1  0.62040200  0.87622000  0.87611700  1
  Fe  Fe7  1  0.62353400  0.12421400  0.12006700  1
  Fe  Fe8  1  0.62523500  0.38114700  0.37602900  1
  Fe  Fe9  1  0.87602800  0.61999900  0.87646700  1
  Fe  Fe10  1  0.87680400  0.87526500  0.61984300  1
  Fe  Fe11  1  0.88015600  0.12373500  0.37543900  1
  Cu  Cu0  1  0.99735600  0.50138500  0.49804400  1
  Cu  Cu1  1  0.50430000  0.49650500  0.99769900  1
  Cu  Cu2  1  0.49557700  0.99543500  0.50342200  1
  Cu  Cu3  1  0.00266400  0.00189100  0.00347200  1
  O  O0  1  0.10278700  0.12621300  0.38710400  1
  O  O1  1  0.10772900  0.89480700  0.62800700  1
  O  O2  1  0.11449400  0.61459600  0.88381800  1
  O  O3  1  0.12590200  0.39286200  0.10505400  1
  O  O4  1  0.11925400  0.14307500  0.86859400  1
  O  O5  1  0.13687500  0.36169700  0.63927300  1
  O  O6  1  0.13643800  0.61951000  0.35990100  1
  O  O7  1  0.13961800  0.86018000  0.11884600  1
  O  O8  1  0.35838100  0.13641100  0.61923400  1
  O  O9  1  0.36261700  0.38203700  0.86035600  1
  O  O10  1  0.36086100  0.63523400  0.13854200  1
  O  O11  1  0.37923600  0.85640000  0.36472000  1
  O  O12  1  0.37246200  0.61046400  0.60304300  1
  O  O13  1  0.38420900  0.38710700  0.38409200  1
  O  O14  1  0.39294900  0.10567500  0.12904400  1
  O  O15  1  0.39617200  0.87223300  0.88867800  1
  O  O16  1  0.60614100  0.37382200  0.60736400  1
  O  O17  1  0.60792200  0.60605800  0.37135000  1
  O  O18  1  0.61587100  0.88486100  0.11392700  1
  O  O19  1  0.62741700  0.11163800  0.89643900  1
  O  O20  1  0.62195900  0.36014800  0.13805900  1
  O  O21  1  0.63983900  0.13731800  0.36148800  1
  O  O22  1  0.63848700  0.87928700  0.64095800  1
  O  O23  1  0.64293800  0.63343600  0.88155500  1
  O  O24  1  0.86034900  0.36311900  0.37958200  1
  O  O25  1  0.86193000  0.12100000  0.13933200  1
  O  O26  1  0.86206600  0.86027200  0.86281500  1
  O  O27  1  0.88014900  0.64129300  0.63570200  1
  O  O28  1  0.87263800  0.89054400  0.39521900  1
  O  O29  1  0.88538800  0.11415300  0.61549800  1
  O  O30  1  0.89053000  0.39699300  0.87331900  1
  O  O31  1  0.89643100  0.62746800  0.11066100  1
loop_
_geom_bond_atom_site_label_1
_geom_bond_atom_site_label_2
_geom_bond_distance
_geom_bond_site_symmetry_2
Li0 O28 2.091171 1_455
Li0 O1 2.101242 1_555
Li0 O0 2.108987 1_565
Li0 O7 2.169908 1_555
Li0 O6 2.172701 1_555
Li0 O11 2.178338 1_555
Li1 O1 1.966978 1_555
Li1 O2 1.980915 1_555
Li1 O12 1.981213 1_555
Li1 O15 1.982146 1_555
Li2 O13 1.978461 1_555
Li2 O3 1.980102 1_555
Li2 O14 1.980397 1_555
Li2 O0 1.989731 1_555
Li3 O14 2.098361 1_556
Li3 O19 2.099492 1_555
Li3 O15 2.111522 1_545
Li3 O8 2.177816 1_555
Li3 O4 2.181584 1_555
Li3 O9 2.196588 1_555
Li4 O17 2.091902 1_555
Li4 O16 2.104551 1_555
Li4 O12 2.110513 1_555
Li4 O27 2.167603 1_555
Li4 O22 2.168948 1_555
Li4 O23 2.186671 1_555
Li5 O18 1.971657 1_555
Li5 O17 1.973935 1_555
Li5 O31 1.980053 1_555
Li5 O28 1.980629 1_555
Li6 O29 1.978750 1_555
Li6 O30 1.979375 1_555
Li6 O16 1.985024 1_555
Li6 O19 1.987214 1_555
Li7 O3 2.093667 1_655
Li7 O30 2.094420 1_554
Li7 O31 2.100354 1_555
Li7 O24 2.151018 1_555
Li7 O20 2.153747 1_555
Li7 O25 2.179905 1_555
Fe0 O31 1.880394 1_455
Fe0 O3 1.953061 1_555
Fe0 O6 1.973523 1_555
Fe0 O7 1.995549 1_555
Fe0 O2 2.010295 1_554
Fe0 O10 2.027123 1_555
Fe1 O3 1.882665 1_556
Fe1 O30 1.962575 1_455
Fe1 O4 1.964366 1_555
Fe1 O2 2.009474 1_555
Fe1 O9 2.015850 1_555
Fe1 O5 2.019942 1_555
Fe2 O1 1.899498 1_545
Fe2 O8 1.971714 1_555
Fe2 O0 1.987682 1_555
Fe2 O29 2.005253 1_455
Fe2 O5 2.043032 1_555
Fe2 O4 2.052563 1_555
Fe3 O14 1.909406 1_565
Fe3 O15 1.966826 1_554
Fe3 O7 1.988057 1_555
Fe3 O18 2.018028 1_555
Fe3 O11 2.027207 1_555
Fe3 O10 2.064787 1_555
Fe4 O12 1.869844 1_555
Fe4 O17 1.955264 1_555
Fe4 O11 1.964721 1_555
Fe4 O13 1.991718 1_555
Fe4 O6 2.015713 1_555
Fe4 O10 2.019529 1_555
Fe5 O16 1.903984 1_555
Fe5 O9 1.976934 1_555
Fe5 O12 1.978073 1_555
Fe5 O13 2.008926 1_555
Fe5 O8 2.030186 1_555
Fe5 O5 2.047326 1_555
Fe6 O15 1.885063 1_555
Fe6 O22 1.969984 1_555
Fe6 O18 1.987934 1_556
Fe6 O19 1.990028 1_565
Fe6 O26 2.035678 1_555
Fe6 O23 2.053140 1_555
Fe7 O19 1.871085 1_554
Fe7 O14 1.942903 1_555
Fe7 O20 1.991973 1_555
Fe7 O25 2.007639 1_555
Fe7 O18 2.016663 1_545
Fe7 O21 2.024216 1_555
Fe8 O17 1.899401 1_555
Fe8 O16 1.939613 1_555
Fe8 O24 1.979413 1_555
Fe8 O20 1.995704 1_555
Fe8 O13 2.024610 1_555
Fe8 O21 2.059969 1_555
Fe9 O30 1.881530 1_555
Fe9 O23 1.960029 1_555
Fe9 O31 1.964712 1_556
Fe9 O2 2.002956 1_655
Fe9 O27 2.019108 1_555
Fe9 O26 2.029324 1_555
Fe10 O28 1.880835 1_555
Fe10 O1 1.946325 1_655
Fe10 O27 1.974297 1_555
Fe10 O22 2.008072 1_555
Fe10 O29 2.012653 1_565
Fe10 O26 2.036886 1_555
Fe11 O0 1.871267 1_655
Fe11 O28 1.970982 1_545
Fe11 O25 1.978231 1_555
Fe11 O29 2.007150 1_555
Fe11 O24 2.022437 1_555
Fe11 O21 2.023697 1_555
Cu0 O24 1.912653 1_555
Cu0 O27 1.917362 1_555
Cu0 O6 1.918046 1_655
Cu0 O5 2.036619 1_655
Cu1 O23 1.902691 1_555
Cu1 O9 1.913427 1_555
Cu1 O20 1.915477 1_556
Cu1 O10 2.048442 1_556
Cu2 O11 1.915169 1_555
Cu2 O8 1.915586 1_565
Cu2 O22 1.927879 1_555
Cu2 O21 2.072112 1_565
Cu3 O4 1.906757 1_554
Cu3 O7 1.917038 1_545
Cu3 O25 1.920190 1_455
Cu3 O26 2.048600 1_444
