# generated using pymatgen
data_Ca2YFe4SbO12
_symmetry_space_group_name_H-M   'P 1'
_cell_length_a   10.97387200
_cell_length_b   10.98281436
_cell_length_c   10.98925732
_cell_angle_alpha   109.49117703
_cell_angle_beta   109.35776240
_cell_angle_gamma   109.38311480
_symmetry_Int_Tables_number   1
_chemical_formula_structural   Ca2YFe4SbO12
_chemical_formula_sum   'Ca8 Y4 Fe16 Sb4 O48'
_cell_volume   1021.85449365
_cell_formula_units_Z   4
loop_
 _symmetry_equiv_pos_site_id
 _symmetry_equiv_pos_as_xyz
  1  'x, y, z'
loop_
 _atom_site_type_symbol
 _atom_site_label
 _atom_site_symmetry_multiplicity
 _atom_site_fract_x
 _atom_site_fract_y
 _atom_site_fract_z
 _atom_site_occupancy
  Ca  Ca0  1  0.25008700  0.62191400  0.87983100  1
  Ca  Ca1  1  0.61883200  0.23957900  0.37386100  1
  Ca  Ca2  1  0.87590200  0.12120600  0.24179300  1
  Ca  Ca3  1  0.24962900  0.12067200  0.36882800  1
  Ca  Ca4  1  0.75037100  0.87932800  0.63117200  1
  Ca  Ca5  1  0.12409800  0.87879400  0.75820700  1
  Ca  Ca6  1  0.38116800  0.76042100  0.62613900  1
  Ca  Ca7  1  0.74991300  0.37808600  0.12016900  1
  Y  Y0  1  0.63019400  0.36817700  0.75471600  1
  Y  Y1  1  0.12439100  0.25487200  0.88384500  1
  Y  Y2  1  0.36980600  0.63182300  0.24528400  1
  Y  Y3  1  0.87560900  0.74512800  0.11615500  1
  Fe  Fe0  1  0.87677800  0.63046100  0.75484300  1
  Fe  Fe1  1  0.62639900  0.74902700  0.87559800  1
  Fe  Fe2  1  0.24946700  0.87350600  0.12882400  1
  Fe  Fe3  1  0.87292600  0.25361800  0.62853800  1
  Fe  Fe4  1  0.25086900  0.37424400  0.62986800  1
  Fe  Fe5  1  0.00000000  0.00000000  0.00000000  1
  Fe  Fe6  1  0.50000000  0.50000000  0.00000000  1
  Fe  Fe7  1  0.62367500  0.87283700  0.24910500  1
  Fe  Fe8  1  0.37632500  0.12716400  0.75089500  1
  Fe  Fe9  1  0.50000000  0.00000000  0.50000000  1
  Fe  Fe10  1  0.12707400  0.74638200  0.37146200  1
  Fe  Fe11  1  0.75053300  0.12649400  0.87117600  1
  Fe  Fe12  1  0.74913100  0.62575600  0.37013200  1
  Fe  Fe13  1  0.00000000  0.50000000  0.00000000  1
  Fe  Fe14  1  0.37360100  0.25097300  0.12440200  1
  Fe  Fe15  1  0.12322200  0.36953900  0.24515700  1
  Sb  Sb0  1  0.50000000  0.00000000  0.00000000  1
  Sb  Sb1  1  0.00000000  0.50000000  0.50000000  1
  Sb  Sb2  1  0.00000000  0.00000000  0.50000000  1
  Sb  Sb3  1  0.50000000  0.50000000  0.50000000  1
  O  O0  1  0.30179100  0.88216300  0.97861000  1
  O  O1  1  0.67496600  0.47748100  0.60088500  1
  O  O2  1  0.42196500  0.30258900  0.32590100  1
  O  O3  1  0.02272400  0.61749200  0.69945000  1
  O  O4  1  0.47770100  0.80083300  0.88175700  1
  O  O5  1  0.19907200  0.52102500  0.61716900  1
  O  O6  1  0.88172300  0.30158800  0.47806900  1
  O  O7  1  0.02479200  0.39841500  0.82443300  1
  O  O8  1  0.40353200  0.02414500  0.32244200  1
  O  O9  1  0.67847200  0.20948200  0.58743900  1
  O  O10  1  0.62035000  0.02303600  0.19862900  1
  O  O11  1  0.62613900  0.59587600  0.91911100  1
  O  O12  1  0.08161700  0.17717900  0.20218500  1
  O  O13  1  0.40745100  0.38292700  0.58423200  1
  O  O14  1  0.29350300  0.41364400  0.82271500  1
  O  O15  1  0.09692000  0.17541400  0.47822100  1
  O  O16  1  0.87310200  0.58001300  0.90329800  1
  O  O17  1  0.82185600  0.89805200  0.02592700  1
  O  O18  1  0.92387000  0.09951600  0.62224400  1
  O  O19  1  0.20587600  0.67599500  0.08491900  1
  O  O20  1  0.57804200  0.87406400  0.39921500  1
  O  O21  1  0.82556500  0.91808600  0.29954300  1
  O  O22  1  0.52607900  0.32413400  0.89952100  1
  O  O23  1  0.08960100  0.90971500  0.11935200  1
  O  O24  1  0.91039900  0.09028500  0.88064800  1
  O  O25  1  0.47392100  0.67586600  0.10047900  1
  O  O26  1  0.17443500  0.08191400  0.70045700  1
  O  O27  1  0.42195800  0.12593600  0.60078500  1
  O  O28  1  0.79412300  0.32400500  0.91508100  1
  O  O29  1  0.07613000  0.90048400  0.37775600  1
  O  O30  1  0.17814400  0.10194800  0.97407300  1
  O  O31  1  0.12689800  0.41998700  0.09670200  1
  O  O32  1  0.90308000  0.82458600  0.52177900  1
  O  O33  1  0.70649700  0.58635600  0.17728500  1
  O  O34  1  0.59254900  0.61707300  0.41576800  1
  O  O35  1  0.91838300  0.82282100  0.79781500  1
  O  O36  1  0.37386100  0.40412400  0.08088900  1
  O  O37  1  0.37965000  0.97696400  0.80137100  1
  O  O38  1  0.32152800  0.79051800  0.41256100  1
  O  O39  1  0.59646800  0.97585500  0.67755800  1
  O  O40  1  0.97520800  0.60158500  0.17556700  1
  O  O41  1  0.11827700  0.69841200  0.52193100  1
  O  O42  1  0.80092800  0.47897500  0.38283100  1
  O  O43  1  0.52229900  0.19916700  0.11824300  1
  O  O44  1  0.97727600  0.38250800  0.30055000  1
  O  O45  1  0.57803500  0.69741100  0.67409900  1
  O  O46  1  0.32503400  0.52251900  0.39911500  1
  O  O47  1  0.69820900  0.11783700  0.02139000  1
loop_
_geom_bond_atom_site_label_1
_geom_bond_atom_site_label_2
_geom_bond_distance
_geom_bond_site_symmetry_2
Ca0 O19 2.385473 1_556
Ca0 O14 2.411774 1_555
Ca0 O0 2.472790 1_555
Ca0 O5 2.501102 1_555
Ca0 O25 2.528000 1_556
Ca0 O7 2.546608 1_555
Ca0 O3 2.594909 1_555
Ca0 O4 2.603862 1_555
Ca1 O9 2.385226 1_555
Ca1 O2 2.430001 1_555
Ca1 O8 2.451930 1_555
Ca1 O6 2.466441 1_555
Ca1 O43 2.468435 1_555
Ca1 O10 2.521104 1_555
Ca1 O1 2.644497 1_555
Ca1 O42 2.669242 1_555
Ca2 O12 2.360597 1_655
Ca2 O10 2.453970 1_555
Ca2 O21 2.458394 1_545
Ca2 O44 2.461409 1_555
Ca2 O17 2.491687 1_545
Ca2 O47 2.536037 1_555
Ca2 O15 2.611384 1_655
Ca2 O6 2.654059 1_555
Ca3 O8 2.373758 1_555
Ca3 O23 2.415978 1_545
Ca3 O15 2.477284 1_555
Ca3 O13 2.513993 1_555
Ca3 O12 2.533323 1_555
Ca3 O2 2.550161 1_555
Ca3 O29 2.590127 1_545
Ca3 O27 2.590493 1_555
Ca4 O39 2.373758 1_555
Ca4 O24 2.415978 1_565
Ca4 O32 2.477284 1_555
Ca4 O34 2.513993 1_555
Ca4 O35 2.533323 1_555
Ca4 O45 2.550161 1_555
Ca4 O18 2.590127 1_565
Ca4 O20 2.590493 1_555
Ca5 O35 2.360597 1_455
Ca5 O37 2.453970 1_555
Ca5 O26 2.458394 1_565
Ca5 O3 2.461409 1_555
Ca5 O30 2.491687 1_565
Ca5 O0 2.536037 1_555
Ca5 O32 2.611384 1_455
Ca5 O41 2.654059 1_555
Ca6 O38 2.385226 1_555
Ca6 O45 2.430001 1_555
Ca6 O39 2.451930 1_555
Ca6 O41 2.466441 1_555
Ca6 O4 2.468435 1_555
Ca6 O37 2.521104 1_555
Ca6 O46 2.644497 1_555
Ca6 O5 2.669242 1_555
Ca7 O28 2.385466 1_554
Ca7 O33 2.411774 1_555
Ca7 O47 2.472790 1_555
Ca7 O42 2.501102 1_555
Ca7 O22 2.528000 1_554
Ca7 O40 2.546608 1_555
Ca7 O44 2.594909 1_555
Ca7 O43 2.603862 1_555
Fe0 O35 1.856292 1_555
Fe0 O16 1.897919 1_555
Fe0 O3 1.922450 1_655
Fe0 O1 1.933734 1_555
Fe1 O17 1.877501 1_556
Fe1 O11 1.895345 1_555
Fe1 O4 1.911767 1_555
Fe1 O45 1.920885 1_555
Fe2 O8 1.879433 1_565
Fe2 O23 1.901676 1_555
Fe2 O19 1.904456 1_555
Fe2 O0 1.939212 1_554
Fe3 O7 1.875790 1_655
Fe3 O9 1.876415 1_555
Fe3 O6 1.916898 1_555
Fe3 O18 1.938389 1_555
Fe4 O14 1.869142 1_555
Fe4 O5 1.909738 1_555
Fe4 O15 1.912134 1_555
Fe4 O13 1.925518 1_555
Fe5 O35 2.040627 1_444
Fe5 O12 2.040627 1_555
Fe5 O30 2.070224 1_554
Fe5 O17 2.070224 1_445
Fe5 O23 2.080969 1_545
Fe5 O24 2.080969 1_454
Fe6 O25 2.045731 1_555
Fe6 O22 2.045731 1_554
Fe6 O14 2.060059 1_554
Fe6 O33 2.060059 1_555
Fe6 O11 2.070721 1_554
Fe6 O36 2.070721 1_555
Fe7 O20 1.873339 1_555
Fe7 O25 1.884459 1_555
Fe7 O10 1.915040 1_565
Fe7 O21 1.932350 1_555
Fe8 O27 1.873336 1_555
Fe8 O22 1.884453 1_555
Fe8 O37 1.915050 1_545
Fe8 O26 1.932347 1_555
Fe9 O39 2.039748 1_545
Fe9 O8 2.039748 1_555
Fe9 O27 2.065428 1_555
Fe9 O20 2.065428 1_545
Fe9 O38 2.082929 1_545
Fe9 O9 2.082929 1_555
Fe10 O40 1.875790 1_455
Fe10 O38 1.876415 1_555
Fe10 O41 1.916898 1_555
Fe10 O29 1.938389 1_555
Fe11 O39 1.879433 1_545
Fe11 O24 1.901676 1_555
Fe11 O28 1.904459 1_555
Fe11 O47 1.939212 1_556
Fe12 O33 1.869142 1_555
Fe12 O42 1.909738 1_555
Fe12 O32 1.912134 1_555
Fe12 O34 1.925518 1_555
Fe13 O7 2.038181 1_554
Fe13 O40 2.038181 1_455
Fe13 O19 2.052131 1_555
Fe13 O28 2.052138 1_454
Fe13 O16 2.072481 1_454
Fe13 O31 2.072481 1_555
Fe14 O30 1.877501 1_554
Fe14 O36 1.895345 1_555
Fe14 O43 1.911767 1_555
Fe14 O2 1.920885 1_555
Fe15 O12 1.856292 1_555
Fe15 O31 1.897919 1_555
Fe15 O44 1.922450 1_455
Fe15 O46 1.933734 1_555
O0 Sb0 2.012673 1_566
O1 Sb3 2.015912 1_555
O1 Y0 2.460412 1_555
O2 Sb3 2.001965 1_555
O3 Sb1 2.016929 1_555
O4 Sb0 2.017490 1_566
O5 Sb1 2.021306 1_555
O6 Sb1 2.013978 1_655
O7 Y1 2.337477 1_555
O9 Y0 2.412075 1_555
O10 Sb0 2.017770 1_555
O11 Y3 2.365021 1_556
O11 Y0 2.575244 1_555
O13 Sb3 2.022928 1_555
O13 Y0 2.634496 1_555
O14 Y1 2.529071 1_555
O15 Sb2 2.004099 1_555
O16 Y0 2.376470 1_555
O16 Y3 2.419583 1_556
O17 Y3 2.352259 1_555
O18 Sb2 2.016800 1_655
O18 Y1 2.461456 1_655
O19 Y2 2.371788 1_555
O20 Y2 2.358030 1_555
O21 Sb2 2.016243 1_665
O21 Y3 2.615888 1_555
O22 Y0 2.328893 1_555
O23 Y3 2.422535 1_455
O24 Y1 2.422535 1_655
O25 Y2 2.328893 1_555
O26 Sb2 2.016243 1_555
O26 Y1 2.615888 1_555
O27 Y0 2.358030 1_555
O28 Y0 2.371782 1_555
O29 Sb2 2.016800 1_565
O29 Y3 2.461456 1_455
O30 Y1 2.352259 1_555
O31 Y2 2.376470 1_555
O31 Y1 2.419583 1_554
O32 Sb2 2.004099 1_665
O33 Y3 2.529071 1_555
O34 Sb3 2.022928 1_555
O34 Y2 2.634496 1_555
O36 Y1 2.365021 1_554
O36 Y2 2.575244 1_555
O37 Sb0 2.017770 1_566
O38 Y2 2.412075 1_555
O40 Y3 2.337477 1_555
O41 Sb1 2.013978 1_555
O42 Sb1 2.021306 1_655
O43 Sb0 2.017490 1_555
O44 Sb1 2.016929 1_655
O45 Sb3 2.001965 1_555
O46 Sb3 2.015912 1_555
O46 Y2 2.460412 1_555
O47 Sb0 2.012673 1_555
