# generated using pymatgen
data_K2CoP4H10O17
_symmetry_space_group_name_H-M   'P 1'
_cell_length_a   16.37381900
_cell_length_b   7.49235400
_cell_length_c   13.13207892
_cell_angle_alpha   88.19472495
_cell_angle_beta   90.00000000
_cell_angle_gamma   90.00000000
_symmetry_Int_Tables_number   1
_chemical_formula_structural   K2CoP4H10O17
_chemical_formula_sum   'K8 Co4 P16 H40 O68'
_cell_volume   1610.22345628
_cell_formula_units_Z   4
loop_
 _symmetry_equiv_pos_site_id
 _symmetry_equiv_pos_as_xyz
  1  'x, y, z'
loop_
 _atom_site_type_symbol
 _atom_site_label
 _atom_site_symmetry_multiplicity
 _atom_site_fract_x
 _atom_site_fract_y
 _atom_site_fract_z
 _atom_site_occupancy
  K  K0  1  0.22484300  0.02142700  0.06854400  1
  K  K1  1  0.27515700  0.52142700  0.06854400  1
  K  K2  1  0.65812500  0.22607700  0.39557700  1
  K  K3  1  0.84187500  0.72607700  0.39557700  1
  K  K4  1  0.15812500  0.27392300  0.60442300  1
  K  K5  1  0.34187500  0.77392300  0.60442300  1
  K  K6  1  0.72484300  0.47857300  0.93145600  1
  K  K7  1  0.77515700  0.97857300  0.93145600  1
  Co  Co0  1  0.50000000  0.50000000  0.00000000  1
  Co  Co1  1  0.00000000  0.00000000  0.00000000  1
  Co  Co2  1  0.50000000  0.50000000  0.50000000  1
  Co  Co3  1  0.00000000  0.00000000  0.50000000  1
  P  P0  1  0.88043700  0.27079500  0.12817000  1
  P  P1  1  0.05693200  0.34840000  0.13341700  1
  P  P2  1  0.61956300  0.77079500  0.12817000  1
  P  P3  1  0.44306800  0.84840000  0.13341700  1
  P  P4  1  0.87716600  0.26107000  0.35512300  1
  P  P5  1  0.05167700  0.35674900  0.35844000  1
  P  P6  1  0.62283400  0.76107000  0.35512300  1
  P  P7  1  0.44832300  0.85674900  0.35844000  1
  P  P8  1  0.55167700  0.14325100  0.64156000  1
  P  P9  1  0.37716600  0.23893000  0.64487700  1
  P  P10  1  0.94832300  0.64325100  0.64156000  1
  P  P11  1  0.12283400  0.73893000  0.64487700  1
  P  P12  1  0.55693200  0.15160000  0.86658300  1
  P  P13  1  0.38043700  0.22920500  0.87183000  1
  P  P14  1  0.94306800  0.65160000  0.86658300  1
  P  P15  1  0.11956300  0.72920500  0.87183000  1
  H  H0  1  0.46175800  0.23029200  0.12741700  1
  H  H1  1  0.03824200  0.73029200  0.12741700  1
  H  H2  1  0.55351100  0.29519200  0.14902200  1
  H  H3  1  0.94648900  0.79519200  0.14902200  1
  H  H4  1  0.66903200  0.11716200  0.16110100  1
  H  H5  1  0.70106400  0.31322100  0.16462600  1
  H  H6  1  0.83096800  0.61716200  0.16110100  1
  H  H7  1  0.79893600  0.81322100  0.16462600  1
  H  H8  1  0.32991600  0.16016200  0.22013300  1
  H  H9  1  0.17008400  0.66016200  0.22013300  1
  H  H10  1  0.28097000  0.29492500  0.28673800  1
  H  H11  1  0.21903000  0.79492500  0.28673800  1
  H  H12  1  0.47626600  0.39723900  0.30147900  1
  H  H13  1  0.02373400  0.89723900  0.30147900  1
  H  H14  1  0.45208000  0.22936400  0.37184300  1
  H  H15  1  0.04792000  0.72936400  0.37184300  1
  H  H16  1  0.22272700  0.48432400  0.39746700  1
  H  H17  1  0.27727300  0.98432400  0.39746700  1
  H  H18  1  0.30709400  0.43192600  0.44900100  1
  H  H19  1  0.19290600  0.93192600  0.44900100  1
  H  H20  1  0.80709400  0.06807400  0.55099900  1
  H  H21  1  0.69290600  0.56807400  0.55099900  1
  H  H22  1  0.72272700  0.01567600  0.60253300  1
  H  H23  1  0.77727300  0.51567600  0.60253300  1
  H  H24  1  0.95208000  0.27063600  0.62815700  1
  H  H25  1  0.54792000  0.77063600  0.62815700  1
  H  H26  1  0.97626600  0.10276100  0.69852100  1
  H  H27  1  0.52373400  0.60276100  0.69852100  1
  H  H28  1  0.78097000  0.20507500  0.71326200  1
  H  H29  1  0.71903000  0.70507500  0.71326200  1
  H  H30  1  0.82991600  0.33983800  0.77986700  1
  H  H31  1  0.67008400  0.83983800  0.77986700  1
  H  H32  1  0.20106400  0.18677900  0.83537400  1
  H  H33  1  0.16903200  0.38283800  0.83889900  1
  H  H34  1  0.29893600  0.68677900  0.83537400  1
  H  H35  1  0.33096800  0.88283800  0.83889900  1
  H  H36  1  0.05351100  0.20480800  0.85097800  1
  H  H37  1  0.44648900  0.70480800  0.85097800  1
  H  H38  1  0.96175800  0.26970800  0.87258300  1
  H  H39  1  0.53824200  0.76970800  0.87258300  1
  O  O0  1  0.89106000  0.12193800  0.05502600  1
  O  O1  1  0.60894000  0.62193800  0.05502600  1
  O  O2  1  0.07638100  0.19478400  0.06628100  1
  O  O3  1  0.42361900  0.69478400  0.06628100  1
  O  O4  1  0.39744900  0.02036400  0.12036300  1
  O  O5  1  0.80750200  0.39096700  0.11623100  1
  O  O6  1  0.10255100  0.52036400  0.12036300  1
  O  O7  1  0.69249800  0.89096700  0.11623100  1
  O  O8  1  0.96046100  0.39883400  0.12590800  1
  O  O9  1  0.49650400  0.33758700  0.13425800  1
  O  O10  1  0.53953900  0.89883400  0.12590800  1
  O  O11  1  0.00349600  0.83758700  0.13425800  1
  O  O12  1  0.65379300  0.23766600  0.18339100  1
  O  O13  1  0.84620700  0.73766600  0.18339100  1
  O  O14  1  0.28543300  0.24779700  0.21701600  1
  O  O15  1  0.21456700  0.74779700  0.21701600  1
  O  O16  1  0.88466100  0.17831300  0.24182700  1
  O  O17  1  0.06570900  0.26671600  0.24921300  1
  O  O18  1  0.61533900  0.67831300  0.24182700  1
  O  O19  1  0.43429100  0.76671600  0.24921300  1
  O  O20  1  0.95429900  0.39969900  0.35709100  1
  O  O21  1  0.40482300  0.03125200  0.36516900  1
  O  O22  1  0.80289900  0.37214700  0.36474600  1
  O  O23  1  0.48350500  0.34434600  0.36997600  1
  O  O24  1  0.54570100  0.89969900  0.35709100  1
  O  O25  1  0.09517700  0.53125200  0.36516900  1
  O  O26  1  0.69710100  0.87214700  0.36474600  1
  O  O27  1  0.01649500  0.84434600  0.36997600  1
  O  O28  1  0.26230500  0.38726500  0.40754100  1
  O  O29  1  0.89238100  0.10475300  0.42859100  1
  O  O30  1  0.23769500  0.88726500  0.40754100  1
  O  O31  1  0.60761900  0.60475300  0.42859100  1
  O  O32  1  0.06930100  0.21080800  0.43697200  1
  O  O33  1  0.43069900  0.71080800  0.43697200  1
  O  O34  1  0.56930100  0.28919200  0.56302800  1
  O  O35  1  0.93069900  0.78919200  0.56302800  1
  O  O36  1  0.39238100  0.39524700  0.57140900  1
  O  O37  1  0.76230500  0.11273500  0.59245900  1
  O  O38  1  0.10761900  0.89524700  0.57140900  1
  O  O39  1  0.73769500  0.61273500  0.59245900  1
  O  O40  1  0.98350500  0.15565400  0.63002400  1
  O  O41  1  0.30289900  0.12785300  0.63525400  1
  O  O42  1  0.90482300  0.46874800  0.63483100  1
  O  O43  1  0.45429900  0.10030100  0.64290900  1
  O  O44  1  0.51649500  0.65565400  0.63002400  1
  O  O45  1  0.19710100  0.62785300  0.63525400  1
  O  O46  1  0.59517700  0.96874800  0.63483100  1
  O  O47  1  0.04570100  0.60030100  0.64290900  1
  O  O48  1  0.56570900  0.23328400  0.75078700  1
  O  O49  1  0.38466100  0.32168700  0.75817300  1
  O  O50  1  0.93429100  0.73328400  0.75078700  1
  O  O51  1  0.11533900  0.82168700  0.75817300  1
  O  O52  1  0.78543300  0.25220300  0.78298400  1
  O  O53  1  0.71456700  0.75220300  0.78298400  1
  O  O54  1  0.15379300  0.26233400  0.81660900  1
  O  O55  1  0.34620700  0.76233400  0.81660900  1
  O  O56  1  0.99650400  0.16241300  0.86574200  1
  O  O57  1  0.46046100  0.10116600  0.87409200  1
  O  O58  1  0.50349600  0.66241300  0.86574200  1
  O  O59  1  0.03953900  0.60116600  0.87409200  1
  O  O60  1  0.30750200  0.10903300  0.88376900  1
  O  O61  1  0.89744900  0.47963600  0.87963700  1
  O  O62  1  0.19249800  0.60903300  0.88376900  1
  O  O63  1  0.60255100  0.97963600  0.87963700  1
  O  O64  1  0.57638100  0.30521600  0.93371900  1
  O  O65  1  0.92361900  0.80521600  0.93371900  1
  O  O66  1  0.39106000  0.37806200  0.94497400  1
  O  O67  1  0.10894000  0.87806200  0.94497400  1
loop_
_geom_bond_atom_site_label_1
_geom_bond_atom_site_label_2
_geom_bond_distance
_geom_bond_site_symmetry_2
K0 O67 2.738322 1_544
K0 O2 2.755847 1_555
K0 O15 2.789447 1_545
K0 O14 2.805471 1_555
K0 O60 2.837269 1_554
K0 O4 2.906941 1_555
K1 O66 2.738322 1_554
K1 O3 2.755847 1_555
K1 O14 2.789447 1_555
K1 O15 2.805471 1_555
K1 O62 2.837269 1_554
K1 O6 2.906941 1_555
K2 O22 2.636858 1_555
K2 O34 2.690704 1_555
K2 O26 2.769608 1_545
K2 O12 2.785964 1_555
K2 O31 2.999818 1_555
K2 O23 3.009062 1_555
K2 O24 3.114734 1_545
K2 O37 3.190188 1_555
K3 O26 2.636858 1_555
K3 O35 2.690704 1_555
K3 O22 2.769608 1_555
K3 O13 2.785964 1_555
K3 O29 2.999818 1_565
K3 O27 3.009062 1_655
K3 O20 3.114734 1_555
K3 O39 3.190188 1_555
K4 O41 2.636858 1_555
K4 O32 2.690704 1_555
K4 O45 2.769608 1_555
K4 O54 2.785964 1_555
K4 O38 2.999818 1_545
K4 O40 3.009062 1_455
K4 O47 3.114734 1_555
K4 O28 3.190188 1_555
K5 O45 2.636858 1_555
K5 O33 2.690704 1_555
K5 O41 2.769608 1_565
K5 O55 2.785964 1_555
K5 O36 2.999818 1_555
K5 O44 3.009062 1_555
K5 O43 3.114734 1_565
K5 O30 3.190188 1_555
K6 O1 2.738322 1_556
K6 O64 2.755847 1_555
K6 O53 2.789447 1_555
K6 O52 2.805471 1_555
K6 O5 2.837269 1_556
K6 O61 2.906941 1_555
K7 O0 2.738322 1_566
K7 O65 2.755847 1_555
K7 O52 2.789447 1_565
K7 O53 2.805471 1_555
K7 O7 2.837269 1_556
K7 O63 2.906941 1_555
Co0 O9 2.111236 1_555
Co0 O58 2.111236 1_554
Co0 O3 2.128752 1_555
Co0 O64 2.128752 1_554
Co0 O66 2.140149 1_554
Co0 O1 2.140149 1_555
Co1 O56 2.111236 1_454
Co1 O11 2.111236 1_545
Co1 O2 2.128752 1_555
Co1 O65 2.128752 1_444
Co1 O67 2.140149 1_544
Co1 O0 2.140149 1_455
Co2 O34 2.094028 1_555
Co2 O33 2.094028 1_555
Co2 O23 2.115177 1_555
Co2 O44 2.115177 1_555
Co2 O36 2.134034 1_555
Co2 O31 2.134034 1_555
Co3 O35 2.094028 1_445
Co3 O32 2.094028 1_555
Co3 O27 2.115177 1_545
Co3 O40 2.115177 1_455
Co3 O38 2.134034 1_545
Co3 O29 2.134034 1_455
H0 O9 0.991231 1_555
H1 O11 0.991231 1_555
H2 O9 1.002936 1_555
H3 O11 1.002936 1_655
H4 O12 0.989822 1_555
H5 O12 0.985634 1_555
H6 O13 0.989822 1_555
H7 O13 0.985634 1_555
H8 O14 0.980612 1_555
H9 O15 0.980612 1_555
H10 O14 0.994335 1_555
H11 O15 0.994335 1_555
H12 O23 0.978648 1_555
H13 O27 0.978648 1_555
H14 O23 1.003089 1_555
H14 O21 1.678640 1_555
H15 O27 1.003089 1_555
H15 O25 1.678640 1_555
H16 O28 0.979908 1_555
H17 O30 0.979908 1_555
H18 O28 0.978625 1_555
H19 O30 0.978625 1_555
H20 O37 0.978625 1_555
H21 O39 0.978625 1_555
H22 O37 0.979908 1_555
H23 O39 0.979908 1_555
H24 O40 1.003089 1_555
H24 O42 1.678640 1_555
H25 O44 1.003089 1_555
H25 O46 1.678640 1_555
H26 O40 0.978648 1_555
H27 O44 0.978648 1_555
H28 O52 0.994335 1_555
H29 O53 0.994335 1_555
H30 O52 0.980612 1_555
H31 O53 0.980612 1_555
H32 O54 0.985634 1_555
H33 O54 0.989822 1_555
H34 O55 0.985634 1_555
H35 O55 0.989822 1_555
H36 O56 1.002936 1_455
H37 O58 1.002936 1_555
H38 O56 0.991231 1_555
H39 O58 0.991231 1_555
O0 P0 1.504741 1_555
O1 P2 1.504741 1_555
O2 P1 1.505756 1_555
O3 P3 1.505756 1_555
O4 P3 1.494466 1_545
O5 P0 1.500842 1_555
O6 P1 1.494466 1_555
O7 P2 1.500842 1_555
O8 P0 1.623654 1_555
O8 P1 1.626436 1_655
O10 P2 1.623654 1_555
O10 P3 1.626436 1_555
O16 P0 1.627101 1_555
O16 P4 1.634388 1_555
O17 P5 1.620562 1_555
O17 P1 1.627551 1_555
O18 P2 1.627101 1_555
O18 P6 1.634388 1_555
O19 P7 1.620562 1_555
O19 P3 1.627551 1_555
O20 P5 1.626585 1_655
O20 P4 1.635922 1_555
O21 P7 1.493920 1_545
O22 P4 1.481195 1_555
O24 P7 1.626585 1_555
O24 P6 1.635922 1_555
O25 P5 1.493920 1_555
O26 P6 1.481195 1_555
O29 P4 1.514383 1_555
O31 P6 1.514383 1_555
O32 P5 1.507115 1_555
O33 P7 1.507115 1_555
O34 P8 1.507115 1_555
O35 P10 1.507115 1_555
O36 P9 1.514383 1_555
O38 P11 1.514383 1_555
O41 P9 1.481195 1_555
O42 P10 1.493920 1_555
O43 P8 1.626585 1_555
O43 P9 1.635922 1_555
O45 P11 1.481195 1_555
O46 P8 1.493920 1_565
O47 P10 1.626585 1_455
O47 P11 1.635922 1_555
O48 P8 1.620562 1_555
O48 P12 1.627551 1_555
O49 P13 1.627101 1_555
O49 P9 1.634388 1_555
O50 P10 1.620562 1_555
O50 P14 1.627551 1_555
O51 P15 1.627101 1_555
O51 P11 1.634388 1_555
O57 P13 1.623654 1_555
O57 P12 1.626436 1_555
O59 P15 1.623654 1_555
O59 P14 1.626436 1_455
O60 P13 1.500842 1_555
O61 P14 1.494466 1_555
O62 P15 1.500842 1_555
O63 P12 1.494466 1_565
O64 P12 1.505756 1_555
O65 P14 1.505756 1_555
O66 P13 1.504741 1_555
O67 P15 1.504741 1_555
