# generated using pymatgen
data_Li4Ti3Co3(NiO8)2
_symmetry_space_group_name_H-M   'P 1'
_cell_length_a   5.76459908
_cell_length_b   5.76459908
_cell_length_c   9.64508434
_cell_angle_alpha   89.83543712
_cell_angle_beta   89.83543712
_cell_angle_gamma   60.54368129
_symmetry_Int_Tables_number   1
_chemical_formula_structural   Li4Ti3Co3(NiO8)2
_chemical_formula_sum   'Li4 Ti3 Co3 Ni2 O16'
_cell_volume   279.07811465
_cell_formula_units_Z   1
loop_
 _symmetry_equiv_pos_site_id
 _symmetry_equiv_pos_as_xyz
  1  'x, y, z'
loop_
 _atom_site_type_symbol
 _atom_site_label
 _atom_site_symmetry_multiplicity
 _atom_site_fract_x
 _atom_site_fract_y
 _atom_site_fract_z
 _atom_site_occupancy
  Li  Li0  1  0.32606600  0.32606600  0.89023100  1
  Li  Li1  1  0.01386400  0.01386400  0.99600800  1
  Li  Li2  1  0.01091200  0.01091200  0.49917300  1
  Li  Li3  1  0.65911100  0.65911100  0.39681300  1
  Ti  Ti0  1  0.16610700  0.65907300  0.21526100  1
  Ti  Ti1  1  0.65907300  0.16610700  0.21526100  1
  Ti  Ti2  1  0.82774100  0.82774100  0.71460600  1
  Co  Co0  1  0.16923200  0.16923200  0.21296700  1
  Co  Co1  1  0.33627900  0.82935700  0.71367900  1
  Co  Co2  1  0.82935700  0.33627900  0.71367900  1
  Ni  Ni0  1  0.33492900  0.33492900  0.49140600  1
  Ni  Ni1  1  0.66730600  0.66730600  0.98669600  1
  O  O0  1  0.16416600  0.68332400  0.60589200  1
  O  O1  1  0.48008000  0.48008000  0.33214500  1
  O  O2  1  0.33457400  0.33457400  0.10041100  1
  O  O3  1  0.00395700  0.00395700  0.31380800  1
  O  O4  1  0.00310700  0.00310700  0.81139800  1
  O  O5  1  0.68332400  0.16416600  0.60589200  1
  O  O6  1  0.03092300  0.47351300  0.33278200  1
  O  O7  1  0.47351300  0.03092300  0.33278200  1
  O  O8  1  0.84096100  0.84096100  0.10185100  1
  O  O9  1  0.16120300  0.16120300  0.61607500  1
  O  O10  1  0.50892300  0.96140400  0.83226700  1
  O  O11  1  0.96140400  0.50892300  0.83226700  1
  O  O12  1  0.66244000  0.66244000  0.60529000  1
  O  O13  1  0.32266200  0.84996500  0.10876200  1
  O  O14  1  0.51532100  0.51532100  0.82205100  1
  O  O15  1  0.84996500  0.32266200  0.10876200  1
loop_
_geom_bond_atom_site_label_1
_geom_bond_atom_site_label_2
_geom_bond_distance
_geom_bond_site_symmetry_2
Li0 O10 1.914853 1_545
Li0 O11 1.914853 1_455
Li0 O14 1.993813 1_555
Li0 O2 2.029255 1_556
Li1 O4 1.784153 1_555
Li1 O15 1.896100 1_456
Li1 O13 1.896100 1_546
Li1 O8 1.998608 1_446
Li2 O3 1.789432 1_555
Li2 O9 1.876687 1_555
Li2 O0 1.938894 1_545
Li2 O5 1.938894 1_455
Li3 O1 1.890558 1_555
Li3 O7 1.964905 1_565
Li3 O6 1.964905 1_655
Li3 O12 2.011162 1_555
Co0 O15 1.893202 1_455
Co0 O13 1.893202 1_545
Co0 O3 1.908808 1_555
Co0 O7 1.918011 1_555
Co0 O6 1.918011 1_555
Co0 O2 1.969027 1_555
Co1 O14 1.895433 1_555
Co1 O0 1.899016 1_555
Co1 O10 1.906507 1_555
Co1 O9 1.913245 1_565
Co1 O4 1.919190 1_565
Co1 O12 1.941398 1_555
Co2 O14 1.895433 1_555
Co2 O5 1.899016 1_555
Co2 O11 1.906507 1_555
Co2 O9 1.913245 1_655
Co2 O4 1.919190 1_655
Co2 O12 1.941398 1_555
Ni0 O5 2.069761 1_555
Ni0 O0 2.069761 1_555
Ni0 O9 2.103397 1_555
Ni0 O1 2.105622 1_555
Ni0 O6 2.163684 1_555
Ni0 O7 2.163684 1_555
Ni1 O8 2.058198 1_556
Ni1 O15 2.092407 1_556
Ni1 O13 2.092407 1_556
Ni1 O10 2.096977 1_555
Ni1 O11 2.096977 1_555
Ni1 O14 2.197260 1_555
O0 Ti2 1.989736 1_455
O1 Ti0 1.944151 1_555
O1 Ti1 1.944151 1_555
O2 Ti0 1.971904 1_555
O2 Ti1 1.971904 1_555
O3 Ti1 1.976815 1_455
O3 Ti0 1.976815 1_545
O4 Ti2 1.982774 1_445
O5 Ti2 1.989736 1_545
O6 Ti0 1.960643 1_555
O7 Ti1 1.960643 1_555
O8 Ti1 1.970110 1_565
O8 Ti0 1.970110 1_655
O10 Ti2 1.964582 1_555
O11 Ti2 1.964582 1_555
O12 Ti2 1.957621 1_555
O13 Ti0 2.011322 1_555
O15 Ti1 2.011322 1_555
