# generated using pymatgen
data_Li5Co3(SnO5)2
_symmetry_space_group_name_H-M   'P 1'
_cell_length_a   5.26638706
_cell_length_b   5.27315092
_cell_length_c   8.01865507
_cell_angle_alpha   107.78390066
_cell_angle_beta   101.87734068
_cell_angle_gamma   100.79038663
_symmetry_Int_Tables_number   1
_chemical_formula_structural   Li5Co3(SnO5)2
_chemical_formula_sum   'Li5 Co3 Sn2 O10'
_cell_volume   199.88896826
_cell_formula_units_Z   1
loop_
 _symmetry_equiv_pos_site_id
 _symmetry_equiv_pos_as_xyz
  1  'x, y, z'
loop_
 _atom_site_type_symbol
 _atom_site_label
 _atom_site_symmetry_multiplicity
 _atom_site_fract_x
 _atom_site_fract_y
 _atom_site_fract_z
 _atom_site_occupancy
  Li  Li0  1  0.22186200  0.91523900  0.40114000  1
  Li  Li1  1  0.41727000  0.29259600  0.79706800  1
  Li  Li2  1  0.50000000  0.50000000  0.50000000  1
  Li  Li3  1  0.58273000  0.70740400  0.20293200  1
  Li  Li4  1  0.77813800  0.08476100  0.59886000  1
  Co  Co0  1  0.00000000  0.50000000  0.00000000  1
  Co  Co1  1  0.70289700  0.89861500  0.89922500  1
  Co  Co2  1  0.29710300  0.10138500  0.10077500  1
  Sn  Sn0  1  0.10737800  0.70709000  0.69862600  1
  Sn  Sn1  1  0.89262200  0.29291000  0.30137400  1
  O  O0  1  0.05923600  0.08908400  0.85141400  1
  O  O1  1  0.32407700  0.69661500  0.95065300  1
  O  O2  1  0.14248900  0.31490300  0.54619500  1
  O  O3  1  0.21543300  0.48559100  0.22298300  1
  O  O4  1  0.45864200  0.89052800  0.66107900  1
  O  O5  1  0.54135800  0.10947200  0.33892100  1
  O  O6  1  0.78456700  0.51440900  0.77701700  1
  O  O7  1  0.85751100  0.68509700  0.45380500  1
  O  O8  1  0.67592300  0.30338500  0.04934700  1
  O  O9  1  0.94076400  0.91091600  0.14858600  1
loop_
_geom_bond_atom_site_label_1
_geom_bond_atom_site_label_2
_geom_bond_distance
_geom_bond_site_symmetry_2
Li0 O5 2.035060 1_565
Li0 O2 2.236458 1_565
Li0 O9 2.240161 1_455
Li0 O4 2.252408 1_555
Li0 O7 2.260011 1_455
Li0 O3 2.269186 1_555
Li1 O6 2.128688 1_555
Li1 O4 2.142466 1_545
Li1 O8 2.171958 1_556
Li1 O0 2.182450 1_555
Li1 O2 2.272601 1_555
Li1 O1 2.309544 1_555
Li2 O2 2.110598 1_555
Li2 O7 2.110598 1_555
Li2 O4 2.148367 1_555
Li2 O5 2.148367 1_555
Li2 O6 2.381144 1_555
Li2 O3 2.381144 1_555
Li3 O3 2.128688 1_555
Li3 O5 2.142466 1_565
Li3 O1 2.171958 1_554
Li3 O9 2.182450 1_555
Li3 O7 2.272601 1_555
Li3 O8 2.309544 1_555
Li4 O4 2.035060 1_545
Li4 O7 2.236458 1_545
Li4 O0 2.240161 1_655
Li4 O5 2.252408 1_555
Li4 O2 2.260011 1_655
Li4 O6 2.269186 1_555
Co0 O3 1.941709 1_555
Co0 O6 1.941709 1_454
Co0 O1 2.002600 1_554
Co0 O8 2.002600 1_455
Co0 O0 2.245235 1_554
Co0 O9 2.245235 1_455
Co1 O4 2.054672 1_555
Co1 O9 2.104970 1_556
Co1 O0 2.122044 1_665
Co1 O6 2.129994 1_555
Co1 O8 2.153925 1_566
Co1 O1 2.257439 1_555
Co2 O5 2.054672 1_555
Co2 O0 2.104970 1_554
Co2 O9 2.122044 1_445
Co2 O3 2.129994 1_555
Co2 O1 2.153925 1_544
Co2 O8 2.257439 1_555
O0 Sn0 2.105783 1_545
O1 Sn0 2.128844 1_555
O2 Sn1 2.083111 1_455
O2 Sn0 2.120655 1_555
O3 Sn1 2.121527 1_455
O4 Sn0 2.045865 1_555
O5 Sn1 2.045865 1_555
O6 Sn0 2.121527 1_655
O7 Sn0 2.083111 1_655
O7 Sn1 2.120655 1_555
O8 Sn1 2.128844 1_555
O9 Sn1 2.105783 1_565
