# generated using pymatgen
data_LaBO3
_symmetry_space_group_name_H-M   'P 1'
_cell_length_a   4.17942406
_cell_length_b   5.08865142
_cell_length_c   6.31435532
_cell_angle_alpha   90.00000000
_cell_angle_beta   107.68584388
_cell_angle_gamma   90.00000000
_symmetry_Int_Tables_number   1
_chemical_formula_structural   LaBO3
_chemical_formula_sum   'La2 B2 O6'
_cell_volume   127.94431487
_cell_formula_units_Z   2
loop_
 _symmetry_equiv_pos_site_id
 _symmetry_equiv_pos_as_xyz
  1  'x, y, z'
loop_
 _atom_site_type_symbol
 _atom_site_label
 _atom_site_symmetry_multiplicity
 _atom_site_fract_x
 _atom_site_fract_y
 _atom_site_fract_z
 _atom_site_occupancy
  La  La0  1  0.62066132  0.25000000  0.77560341  1
  La  La1  1  0.37933868  0.75000000  0.22439659  1
  B  B0  1  0.99691267  0.25000000  0.25327063  1
  B  B1  1  0.00308733  0.75000000  0.74672937  1
  O  O0  1  0.84126251  0.01696247  0.17220390  1
  O  O1  1  0.15873749  0.51696247  0.82779610  1
  O  O2  1  0.67323021  0.75000000  0.61642783  1
  O  O3  1  0.32676979  0.25000000  0.38357217  1
  O  O4  1  0.15873749  0.98303753  0.82779610  1
  O  O5  1  0.84126251  0.48303753  0.17220390  1
loop_
_geom_bond_atom_site_label_1
_geom_bond_atom_site_label_2
_geom_bond_distance
_geom_bond_site_symmetry_2
La0 O3 2.406037 1_555
La0 O1 2.463286 1_555
La0 O4 2.463286 1_545
La0 O1 2.561461 1_655
La0 O4 2.561461 1_645
La0 O0 2.669234 1_556
La0 O5 2.669234 1_556
La0 O2 2.768799 1_545
La0 O2 2.768799 1_555
La1 O2 2.406037 1_555
La1 O0 2.463286 1_565
La1 O5 2.463286 1_555
La1 O0 2.561461 1_465
La1 O5 2.561461 1_455
La1 O1 2.669234 1_554
La1 O4 2.669234 1_554
La1 O3 2.768799 1_555
La1 O3 2.768799 1_565
B0 O3 1.374169 1_655
B0 O0 1.374452 1_555
B0 O5 1.374452 1_555
B1 O2 1.374169 1_455
B1 O4 1.374452 1_555
B1 O1 1.374452 1_555
