# generated using pymatgen
data_Li4Cu(PO3)6
_symmetry_space_group_name_H-M   'P 1'
_cell_length_a   7.21406659
_cell_length_b   7.21406659
_cell_length_c   14.21937356
_cell_angle_alpha   85.29926802
_cell_angle_beta   85.29926802
_cell_angle_gamma   66.67460711
_symmetry_Int_Tables_number   1
_chemical_formula_structural   Li4Cu(PO3)6
_chemical_formula_sum   'Li8 Cu2 P12 O36'
_cell_volume   676.25749155
_cell_formula_units_Z   2
loop_
 _symmetry_equiv_pos_site_id
 _symmetry_equiv_pos_as_xyz
  1  'x, y, z'
loop_
 _atom_site_type_symbol
 _atom_site_label
 _atom_site_symmetry_multiplicity
 _atom_site_fract_x
 _atom_site_fract_y
 _atom_site_fract_z
 _atom_site_occupancy
  Li  Li0  1  0.96202000  0.70151000  0.92819000  1
  Li  Li1  1  0.70151000  0.96202000  0.42819000  1
  Li  Li2  1  0.77495600  0.56113100  0.54682200  1
  Li  Li3  1  0.56113100  0.77495600  0.04682200  1
  Li  Li4  1  0.43886900  0.22504400  0.95317800  1
  Li  Li5  1  0.22504400  0.43886900  0.45317800  1
  Li  Li6  1  0.29849000  0.03798000  0.57181000  1
  Li  Li7  1  0.03798000  0.29849000  0.07181000  1
  Cu  Cu0  1  0.36429700  0.63570300  0.75000000  1
  Cu  Cu1  1  0.63570300  0.36429700  0.25000000  1
  P  P0  1  0.96120900  0.85629500  0.61293700  1
  P  P1  1  0.85629500  0.96120900  0.11293700  1
  P  P2  1  0.62819900  0.90284400  0.75432900  1
  P  P3  1  0.90284400  0.62819900  0.25432900  1
  P  P4  1  0.77059900  0.39702600  0.89021400  1
  P  P5  1  0.39702600  0.77059900  0.39021400  1
  P  P6  1  0.60297400  0.22940100  0.60978600  1
  P  P7  1  0.22940100  0.60297400  0.10978600  1
  P  P8  1  0.09715600  0.37180100  0.74567100  1
  P  P9  1  0.37180100  0.09715600  0.24567100  1
  P  P10  1  0.14370500  0.03879100  0.88706300  1
  P  P11  1  0.03879100  0.14370500  0.38706300  1
  O  O0  1  0.86100200  0.81456500  0.71378700  1
  O  O1  1  0.90570300  0.75809000  0.53672900  1
  O  O2  1  0.81456500  0.86100200  0.21378700  1
  O  O3  1  0.75809000  0.90570300  0.03672900  1
  O  O4  1  0.62816100  0.89931900  0.85858900  1
  O  O5  1  0.89931900  0.62816100  0.35858900  1
  O  O6  1  0.81689500  0.50301100  0.96662800  1
  O  O7  1  0.51625500  0.79924400  0.70656700  1
  O  O8  1  0.86636600  0.44944100  0.78937800  1
  O  O9  1  0.50301100  0.81689500  0.46662800  1
  O  O10  1  0.79924400  0.51625500  0.20656700  1
  O  O11  1  0.44944100  0.86636600  0.28937800  1
  O  O12  1  0.90055200  0.15517700  0.90303700  1
  O  O13  1  0.18329600  0.82282600  0.87129700  1
  O  O14  1  0.55788700  0.42434800  0.87555500  1
  O  O15  1  0.15517700  0.90055200  0.40303700  1
  O  O16  1  0.57565200  0.44211300  0.62444500  1
  O  O17  1  0.82282600  0.18329600  0.37129700  1
  O  O18  1  0.17717400  0.81670400  0.62870300  1
  O  O19  1  0.42434800  0.55788700  0.37555500  1
  O  O20  1  0.84482300  0.09944800  0.59696300  1
  O  O21  1  0.44211300  0.57565200  0.12444500  1
  O  O22  1  0.81670400  0.17717400  0.12870300  1
  O  O23  1  0.09944800  0.84482300  0.09696300  1
  O  O24  1  0.55055900  0.13363400  0.71062200  1
  O  O25  1  0.20075600  0.48374500  0.79343300  1
  O  O26  1  0.49698900  0.18310500  0.53337200  1
  O  O27  1  0.13363400  0.55055900  0.21062200  1
  O  O28  1  0.48374500  0.20075600  0.29343300  1
  O  O29  1  0.18310500  0.49698900  0.03337200  1
  O  O30  1  0.10068100  0.37183900  0.64141100  1
  O  O31  1  0.37183900  0.10068100  0.14141100  1
  O  O32  1  0.24191000  0.09429700  0.96327100  1
  O  O33  1  0.18543500  0.13899800  0.78621300  1
  O  O34  1  0.09429700  0.24191000  0.46327100  1
  O  O35  1  0.13899800  0.18543500  0.28621300  1
loop_
_geom_bond_atom_site_label_1
_geom_bond_atom_site_label_2
_geom_bond_distance
_geom_bond_site_symmetry_2
Li0 O6 2.100133 1_555
Li0 O13 2.178806 1_655
Li0 O3 2.236183 1_556
Li0 O29 2.263479 1_656
Li0 O4 2.500819 1_555
Li0 O25 2.629769 1_655
Li1 O9 2.100133 1_555
Li1 O17 2.178806 1_565
Li1 O1 2.236183 1_555
Li1 O26 2.263479 1_565
Li1 O5 2.500819 1_555
Li1 O28 2.629769 1_565
Li2 O1 1.983643 1_555
Li2 O16 2.141233 1_555
Li2 O9 2.389303 1_555
Li3 O3 1.983643 1_555
Li3 O21 2.141233 1_555
Li3 O6 2.389303 1_554
Li4 O32 1.983643 1_555
Li4 O14 2.141233 1_555
Li4 O29 2.389303 1_556
Li5 O34 1.983643 1_555
Li5 O19 2.141233 1_555
Li5 O26 2.389303 1_555
Li6 O26 2.100133 1_555
Li6 O18 2.178806 1_545
Li6 O34 2.236183 1_555
Li6 O9 2.263479 1_545
Li6 O30 2.500819 1_555
Li6 O7 2.629769 1_545
Li7 O29 2.100133 1_555
Li7 O22 2.178806 1_455
Li7 O32 2.236183 1_554
Li7 O6 2.263479 1_454
Li7 O31 2.500819 1_555
Li7 O10 2.629769 1_455
Cu0 O25 1.941359 1_555
Cu0 O7 1.941359 1_555
Cu0 O13 2.262458 1_555
Cu0 O18 2.262458 1_555
Cu0 O14 2.395574 1_555
Cu0 O16 2.395574 1_555
Cu1 O10 1.941359 1_555
Cu1 O28 1.941359 1_555
Cu1 O17 2.262458 1_555
Cu1 O22 2.262458 1_555
Cu1 O19 2.395574 1_555
Cu1 O21 2.395574 1_555
O0 P0 1.612856 1_555
O0 P2 1.616471 1_555
O1 P0 1.502699 1_555
O2 P1 1.612856 1_555
O2 P3 1.616471 1_555
O3 P1 1.502699 1_555
O4 P2 1.480624 1_555
O5 P3 1.480624 1_555
O6 P4 1.508179 1_555
O7 P2 1.524150 1_555
O8 P8 1.618934 1_655
O8 P4 1.622278 1_555
O9 P5 1.508179 1_555
O10 P3 1.524150 1_555
O11 P9 1.618934 1_565
O11 P5 1.622278 1_555
O12 P10 1.622694 1_655
O12 P4 1.623810 1_555
O13 P10 1.501174 1_565
O14 P4 1.497738 1_555
O15 P11 1.622694 1_565
O15 P5 1.623810 1_555
O16 P6 1.497738 1_555
O17 P11 1.501174 1_655
O18 P0 1.501174 1_455
O19 P5 1.497738 1_555
O20 P0 1.622694 1_545
O20 P6 1.623810 1_555
O21 P7 1.497738 1_555
O22 P1 1.501174 1_545
O23 P1 1.622694 1_455
O23 P7 1.623810 1_555
O24 P2 1.618934 1_545
O24 P6 1.622278 1_555
O25 P8 1.524150 1_555
O26 P6 1.508179 1_555
O27 P3 1.618934 1_455
O27 P7 1.622278 1_555
O28 P9 1.524150 1_555
O29 P7 1.508179 1_555
O30 P8 1.480624 1_555
O31 P9 1.480624 1_555
O32 P10 1.502699 1_555
O33 P10 1.612856 1_555
O33 P8 1.616471 1_555
O34 P11 1.502699 1_555
O35 P11 1.612856 1_555
O35 P9 1.616471 1_555
