# generated using pymatgen
data_Ho2TeO6
_symmetry_space_group_name_H-M   'P 1'
_cell_length_a   9.00666657
_cell_length_b   9.00666127
_cell_length_c   5.15445525
_cell_angle_alpha   90.00014951
_cell_angle_beta   89.99990743
_cell_angle_gamma   120.00015998
_symmetry_Int_Tables_number   1
_chemical_formula_structural   Ho2TeO6
_chemical_formula_sum   'Ho6 Te3 O18'
_cell_volume   362.11008477
_cell_formula_units_Z   3
loop_
 _symmetry_equiv_pos_site_id
 _symmetry_equiv_pos_as_xyz
  1  'x, y, z'
loop_
 _atom_site_type_symbol
 _atom_site_label
 _atom_site_symmetry_multiplicity
 _atom_site_fract_x
 _atom_site_fract_y
 _atom_site_fract_z
 _atom_site_occupancy
  Ho  Ho0  1  -0.00000093  0.61740342  0.00000004  1
  Ho  Ho1  1  0.00000200  0.28051609  0.50000196  1
  Ho  Ho2  1  0.38259585  0.38259581  -0.00000011  1
  Ho  Ho3  1  0.28051468  0.00000159  0.49999832  1
  Ho  Ho4  1  0.71948408  0.71948313  0.50000159  1
  Ho  Ho5  1  0.61740304  -0.00000182  0.00000040  1
  Te  Te0  1  0.33333269  0.66665914  0.49684674  1
  Te  Te1  1  0.00000848  0.00000814  -0.00000073  1
  Te  Te2  1  0.66665885  0.33333091  0.50315246  1
  O  O0  1  0.07683271  0.87685295  0.78839202  1
  O  O1  1  0.22665868  0.76253049  0.28214752  1
  O  O2  1  0.13267709  0.54416060  0.70994433  1
  O  O3  1  0.41148498  0.86732518  0.70994361  1
  O  O4  1  0.12314314  0.19997649  0.78838943  1
  O  O5  1  0.23746761  0.46412977  0.28215074  1
  O  O6  1  0.53587314  0.77334108  0.28214759  1
  O  O7  1  0.19997761  0.12314442  0.21160621  1
  O  O8  1  0.45583984  0.58851828  0.70994208  1
  O  O9  1  0.46412963  0.23746724  0.71784869  1
  O  O10  1  0.80002234  0.92316804  0.78839085  1
  O  O11  1  0.58851858  0.45583969  0.29005928  1
  O  O12  1  0.54416005  0.13267624  0.29005516  1
  O  O13  1  0.92316829  0.80002363  0.21161076  1
  O  O14  1  0.77334018  0.53587099  0.71785372  1
  O  O15  1  0.76253016  0.22665851  0.71785426  1
  O  O16  1  0.86732452  0.41148419  0.29005694  1
  O  O17  1  0.87685474  0.07683380  0.21160815  1
loop_
_geom_bond_atom_site_label_1
_geom_bond_atom_site_label_2
_geom_bond_distance
_geom_bond_site_symmetry_2
Ho0 O16 2.210585 1_455
Ho0 O2 2.210592 1_554
Ho0 O14 2.307086 1_454
Ho0 O1 2.307092 1_555
Ho0 O0 2.347764 1_554
Ho0 O13 2.347785 1_455
Ho1 O4 2.184135 1_555
Ho1 O17 2.184162 1_455
Ho1 O5 2.243466 1_555
Ho1 O15 2.243504 1_455
Ho1 O2 2.323779 1_555
Ho1 O16 2.323802 1_455
Ho2 O8 2.210611 1_554
Ho2 O11 2.210617 1_555
Ho2 O5 2.307119 1_555
Ho2 O9 2.307121 1_554
Ho2 O7 2.347773 1_555
Ho2 O4 2.347791 1_554
Ho3 O7 2.184148 1_555
Ho3 O0 2.184163 1_545
Ho3 O9 2.243465 1_555
Ho3 O1 2.243496 1_545
Ho3 O12 2.323790 1_555
Ho3 O3 2.323811 1_545
Ho4 O10 2.184159 1_555
Ho4 O13 2.184161 1_555
Ho4 O14 2.243485 1_555
Ho4 O6 2.243490 1_555
Ho4 O11 2.323772 1_555
Ho4 O8 2.323776 1_555
Ho5 O3 2.210575 1_544
Ho5 O12 2.210589 1_555
Ho5 O6 2.307080 1_545
Ho5 O15 2.307093 1_554
Ho5 O10 2.347773 1_544
Ho5 O17 2.347776 1_555
O0 Te1 1.914757 1_566
O1 Te0 1.929510 1_555
O2 Te0 1.922481 1_555
O3 Te0 1.922553 1_555
O4 Te1 1.914680 1_556
O5 Te0 1.929390 1_555
O6 Te0 1.929475 1_555
O7 Te1 1.914677 1_555
O8 Te0 1.922443 1_555
O9 Te2 1.929393 1_555
O10 Te1 1.914792 1_666
O11 Te2 1.922444 1_555
O12 Te2 1.922473 1_555
O13 Te1 1.914791 1_665
O14 Te2 1.929477 1_555
O15 Te2 1.929507 1_555
O16 Te2 1.922547 1_555
O17 Te1 1.914761 1_655
