# generated using pymatgen
data_Ti5Ni(PO4)6
_symmetry_space_group_name_H-M   'P 1'
_cell_length_a   8.24755140
_cell_length_b   8.24755140
_cell_length_c   8.24755056
_cell_angle_alpha   63.59867171
_cell_angle_beta   63.59867178
_cell_angle_gamma   63.59867631
_symmetry_Int_Tables_number   1
_chemical_formula_structural   Ti5Ni(PO4)6
_chemical_formula_sum   'Ti5 Ni1 P6 O24'
_cell_volume   428.24176250
_cell_formula_units_Z   1
loop_
 _symmetry_equiv_pos_site_id
 _symmetry_equiv_pos_as_xyz
  1  'x, y, z'
loop_
 _atom_site_type_symbol
 _atom_site_label
 _atom_site_symmetry_multiplicity
 _atom_site_fract_x
 _atom_site_fract_y
 _atom_site_fract_z
 _atom_site_occupancy
  Ti  Ti0  1  0.00284613  0.00284613  0.00284613  1
  Ti  Ti1  1  0.50124725  0.50124725  0.50124725  1
  Ti  Ti2  1  0.13739718  0.13739718  0.13739718  1
  Ti  Ti3  1  0.35860746  0.35860746  0.35860746  1
  Ti  Ti4  1  0.63832753  0.63832753  0.63832753  1
  Ni  Ni0  1  0.85983865  0.85983865  0.85983865  1
  P  P0  1  0.46397544  0.74774516  0.04263830  1
  P  P1  1  0.74774516  0.04263830  0.46397544  1
  P  P2  1  0.95832947  0.54511459  0.24363270  1
  P  P3  1  0.24363270  0.95832947  0.54511459  1
  P  P4  1  0.54511459  0.24363270  0.95832947  1
  P  P5  1  0.04263830  0.46397544  0.74774516  1
  O  O0  1  0.48984003  0.32848339  0.11338972  1
  O  O1  1  0.11338972  0.48984003  0.32848339  1
  O  O2  1  0.25993670  0.89554696  0.05621262  1
  O  O3  1  0.32848339  0.11338972  0.48984003  1
  O  O4  1  0.61304535  0.81956400  0.01378742  1
  O  O5  1  0.43974756  0.59515298  0.24594724  1
  O  O6  1  0.89554696  0.05621262  0.25993670  1
  O  O7  1  0.59515298  0.24594724  0.43974756  1
  O  O8  1  0.99637314  0.39053164  0.16968079  1
  O  O9  1  0.24594724  0.43974756  0.59515298  1
  O  O10  1  0.95027756  0.74516031  0.10170554  1
  O  O11  1  0.16968079  0.99637314  0.39053164  1
  O  O12  1  0.81956400  0.01378742  0.61304535  1
  O  O13  1  0.05621262  0.25993670  0.89554696  1
  O  O14  1  0.75741516  0.55779649  0.39736530  1
  O  O15  1  0.01378742  0.61304535  0.81956400  1
  O  O16  1  0.39736530  0.75741516  0.55779649  1
  O  O17  1  0.10170554  0.95027756  0.74516031  1
  O  O18  1  0.55779649  0.39736530  0.75741516  1
  O  O19  1  0.39053164  0.16968079  0.99637314  1
  O  O20  1  0.66991828  0.88789679  0.50552815  1
  O  O21  1  0.74516031  0.10170554  0.95027756  1
  O  O22  1  0.88789679  0.50552815  0.66991828  1
  O  O23  1  0.50552815  0.66991828  0.88789679  1
loop_
_geom_bond_atom_site_label_1
_geom_bond_atom_site_label_2
_geom_bond_distance
_geom_bond_site_symmetry_2
Ni0 O12 1.947653 1_565
Ni0 O4 1.947654 1_556
Ni0 O15 1.947654 1_655
Ni0 O10 2.109064 1_556
Ni0 O17 2.109064 1_655
Ni0 O21 2.109064 1_565
O0 P4 1.525376 1_554
O0 Ti3 1.893280 1_555
O1 P2 1.525376 1_455
O1 Ti3 1.893281 1_555
O2 P0 1.568409 1_555
O2 Ti2 2.059521 1_565
O2 Ti0 2.070669 1_565
O3 P3 1.525376 1_545
O3 Ti3 1.893280 1_555
O4 P0 1.476881 1_555
O5 P0 1.576204 1_555
O5 Ti3 2.028122 1_555
O5 Ti1 2.107328 1_555
O6 P1 1.568408 1_555
O6 Ti2 2.059521 1_655
O6 Ti0 2.070669 1_655
O7 P1 1.576204 1_555
O7 Ti3 2.028122 1_555
O7 Ti1 2.107329 1_555
O8 P2 1.503827 1_555
O8 Ti2 1.960058 1_655
O9 P5 1.576204 1_555
O9 Ti3 2.028122 1_555
O9 Ti1 2.107328 1_555
O10 P2 1.533268 1_555
O10 Ti0 2.081732 1_665
O11 P3 1.503827 1_555
O11 Ti2 1.960058 1_565
O12 P1 1.476881 1_555
O13 P5 1.568408 1_555
O13 Ti2 2.059521 1_556
O13 Ti0 2.070669 1_556
O14 P2 1.568352 1_555
O14 Ti4 2.052611 1_555
O14 Ti1 2.080019 1_555
O15 P5 1.476881 1_555
O16 P3 1.568352 1_555
O16 Ti4 2.052611 1_555
O16 Ti1 2.080020 1_555
O17 P3 1.533268 1_555
O17 Ti0 2.081732 1_566
O18 P4 1.568352 1_555
O18 Ti4 2.052611 1_555
O18 Ti1 2.080019 1_555
O19 P4 1.503827 1_555
O19 Ti2 1.960058 1_556
O20 P1 1.517290 1_565
O20 Ti4 1.929378 1_555
O21 P4 1.533269 1_555
O21 Ti0 2.081732 1_656
O22 P5 1.517290 1_655
O22 Ti4 1.929378 1_555
O23 P0 1.517290 1_556
O23 Ti4 1.929378 1_555
