# generated using pymatgen
data_Li2TiCo3O8
_symmetry_space_group_name_H-M   'P 1'
_cell_length_a   8.13931500
_cell_length_b   8.13931500
_cell_length_c   8.13931500
_cell_angle_alpha   90.00000000
_cell_angle_beta   90.00000000
_cell_angle_gamma   90.00000000
_symmetry_Int_Tables_number   1
_chemical_formula_structural   Li2TiCo3O8
_chemical_formula_sum   'Li8 Ti4 Co12 O32'
_cell_volume   539.21699198
_cell_formula_units_Z   4
loop_
 _symmetry_equiv_pos_site_id
 _symmetry_equiv_pos_as_xyz
  1  'x, y, z'
loop_
 _atom_site_type_symbol
 _atom_site_label
 _atom_site_symmetry_multiplicity
 _atom_site_fract_x
 _atom_site_fract_y
 _atom_site_fract_z
 _atom_site_occupancy
  Li  Li0  1  0.99509300  0.99509300  0.99509300  1
  Li  Li1  1  0.25490700  0.25490700  0.25490700  1
  Li  Li2  1  0.24509300  0.74509300  0.75490700  1
  Li  Li3  1  0.50490700  0.00490700  0.49509300  1
  Li  Li4  1  0.49509300  0.50490700  0.00490700  1
  Li  Li5  1  0.75490700  0.24509300  0.74509300  1
  Li  Li6  1  0.74509300  0.75490700  0.24509300  1
  Li  Li7  1  0.00490700  0.49509300  0.50490700  1
  Ti  Ti0  1  0.12500000  0.87500000  0.37500000  1
  Ti  Ti1  1  0.37500000  0.12500000  0.87500000  1
  Ti  Ti2  1  0.62500000  0.62500000  0.62500000  1
  Ti  Ti3  1  0.87500000  0.37500000  0.12500000  1
  Co  Co0  1  0.12587800  0.12412200  0.62500000  1
  Co  Co1  1  0.12500000  0.37412200  0.87587800  1
  Co  Co2  1  0.12412200  0.62500000  0.12587800  1
  Co  Co3  1  0.37587800  0.37500000  0.62587800  1
  Co  Co4  1  0.37500000  0.62587800  0.37587800  1
  Co  Co5  1  0.37412200  0.87587800  0.12500000  1
  Co  Co6  1  0.62587800  0.37587800  0.37500000  1
  Co  Co7  1  0.62500000  0.12587800  0.12412200  1
  Co  Co8  1  0.62412200  0.87500000  0.87412200  1
  Co  Co9  1  0.87587800  0.12500000  0.37412200  1
  Co  Co10  1  0.87500000  0.87412200  0.62412200  1
  Co  Co11  1  0.87412200  0.62412200  0.87500000  1
  O  O0  1  0.11167700  0.11711800  0.38905100  1
  O  O1  1  0.11094900  0.88832300  0.61711800  1
  O  O2  1  0.10845000  0.60845000  0.89155000  1
  O  O3  1  0.13288200  0.13832300  0.86094900  1
  O  O4  1  0.11711800  0.38905100  0.11167700  1
  O  O5  1  0.14155000  0.35845000  0.64155000  1
  O  O6  1  0.13905100  0.63288200  0.36167700  1
  O  O7  1  0.13832300  0.86094900  0.13288200  1
  O  O8  1  0.36167700  0.13905100  0.63288200  1
  O  O9  1  0.36094900  0.36711800  0.86167700  1
  O  O10  1  0.35845000  0.64155000  0.14155000  1
  O  O11  1  0.38288200  0.61094900  0.61167700  1
  O  O12  1  0.36711800  0.86167700  0.36094900  1
  O  O13  1  0.39155000  0.39155000  0.39155000  1
  O  O14  1  0.38905100  0.11167700  0.11711800  1
  O  O15  1  0.38832300  0.88288200  0.88905100  1
  O  O16  1  0.61167700  0.38288200  0.61094900  1
  O  O17  1  0.61094900  0.61167700  0.38288200  1
  O  O18  1  0.60845000  0.89155000  0.10845000  1
  O  O19  1  0.63288200  0.36167700  0.13905100  1
  O  O20  1  0.61711800  0.11094900  0.88832300  1
  O  O21  1  0.64155000  0.14155000  0.35845000  1
  O  O22  1  0.63905100  0.86711800  0.63832300  1
  O  O23  1  0.63832300  0.63905100  0.86711800  1
  O  O24  1  0.86167700  0.36094900  0.36711800  1
  O  O25  1  0.86094900  0.13288200  0.13832300  1
  O  O26  1  0.85845000  0.85845000  0.85845000  1
  O  O27  1  0.88288200  0.88905100  0.38832300  1
  O  O28  1  0.86711800  0.63832300  0.63905100  1
  O  O29  1  0.89155000  0.10845000  0.60845000  1
  O  O30  1  0.88905100  0.38832300  0.88288200  1
  O  O31  1  0.88832300  0.61711800  0.11094900  1
loop_
_geom_bond_atom_site_label_1
_geom_bond_atom_site_label_2
_geom_bond_distance
_geom_bond_site_symmetry_2
Li0 O26 1.926353 1_555
Li0 O7 1.951659 1_656
Li0 O25 1.951659 1_566
Li0 O3 1.951659 1_665
Li1 O13 1.926353 1_555
Li1 O14 1.951659 1_555
Li1 O0 1.951659 1_555
Li1 O4 1.951659 1_555
Li2 O2 1.926353 1_555
Li2 O1 1.951659 1_555
Li2 O15 1.951659 1_555
Li2 O11 1.951659 1_555
Li3 O21 1.926353 1_555
Li3 O8 1.951659 1_555
Li3 O22 1.951659 1_545
Li3 O12 1.951659 1_545
Li4 O10 1.926353 1_555
Li4 O23 1.951659 1_554
Li4 O19 1.951659 1_555
Li4 O9 1.951659 1_554
Li5 O29 1.926353 1_555
Li5 O20 1.951659 1_555
Li5 O30 1.951659 1_555
Li5 O16 1.951659 1_555
Li6 O18 1.926353 1_555
Li6 O31 1.951659 1_555
Li6 O27 1.951659 1_555
Li6 O17 1.951659 1_555
Li7 O5 1.926353 1_555
Li7 O28 1.951659 1_455
Li7 O24 1.951659 1_455
Li7 O6 1.951659 1_555
Co0 O5 1.916271 1_555
Co0 O29 1.916271 1_455
Co0 O8 1.924155 1_555
Co0 O1 1.924155 1_545
Co0 O3 1.924783 1_555
Co0 O0 1.924783 1_555
Co1 O2 1.916271 1_555
Co1 O5 1.916271 1_555
Co1 O4 1.924155 1_556
Co1 O3 1.924155 1_555
Co1 O30 1.924783 1_455
Co1 O9 1.924783 1_555
Co2 O10 1.916271 1_555
Co2 O2 1.916271 1_554
Co2 O31 1.924155 1_455
Co2 O6 1.924155 1_555
Co2 O7 1.924783 1_555
Co2 O4 1.924783 1_555
Co3 O5 1.916271 1_555
Co3 O13 1.916271 1_555
Co3 O9 1.924155 1_555
Co3 O16 1.924155 1_555
Co3 O11 1.924783 1_555
Co3 O8 1.924783 1_555
Co4 O10 1.916271 1_555
Co4 O13 1.916271 1_555
Co4 O12 1.924155 1_555
Co4 O11 1.924155 1_555
Co4 O17 1.924783 1_555
Co4 O6 1.924783 1_555
Co5 O18 1.916271 1_555
Co5 O10 1.916271 1_555
Co5 O14 1.924155 1_565
Co5 O7 1.924155 1_555
Co5 O15 1.924783 1_554
Co5 O12 1.924783 1_555
Co6 O21 1.916271 1_555
Co6 O13 1.916271 1_555
Co6 O24 1.924155 1_555
Co6 O17 1.924155 1_555
Co6 O16 1.924783 1_555
Co6 O19 1.924783 1_555
Co7 O21 1.916271 1_555
Co7 O18 1.916271 1_545
Co7 O20 1.924155 1_554
Co7 O19 1.924155 1_555
Co7 O25 1.924783 1_555
Co7 O14 1.924783 1_555
Co8 O18 1.916271 1_556
Co8 O26 1.916271 1_555
Co8 O22 1.924155 1_555
Co8 O15 1.924155 1_555
Co8 O20 1.924783 1_565
Co8 O23 1.924783 1_555
Co9 O29 1.916271 1_555
Co9 O21 1.916271 1_555
Co9 O0 1.924155 1_655
Co9 O25 1.924155 1_555
Co9 O27 1.924783 1_545
Co9 O24 1.924783 1_555
Co10 O29 1.916271 1_565
Co10 O26 1.916271 1_555
Co10 O28 1.924155 1_555
Co10 O27 1.924155 1_555
Co10 O1 1.924783 1_655
Co10 O22 1.924783 1_555
Co11 O2 1.916271 1_655
Co11 O26 1.916271 1_555
Co11 O23 1.924155 1_555
Co11 O30 1.924155 1_555
Co11 O31 1.924783 1_556
Co11 O28 1.924783 1_555
O0 Ti0 1.976967 1_545
O1 Ti0 1.976967 1_555
O3 Ti1 1.976967 1_555
O4 Ti3 1.976967 1_455
O6 Ti0 1.976967 1_555
O7 Ti0 1.976967 1_555
O8 Ti1 1.976967 1_555
O9 Ti1 1.976967 1_555
O11 Ti2 1.976967 1_555
O12 Ti0 1.976967 1_555
O14 Ti1 1.976967 1_554
O15 Ti1 1.976967 1_565
O16 Ti2 1.976967 1_555
O17 Ti2 1.976967 1_555
O19 Ti3 1.976967 1_555
O20 Ti1 1.976967 1_555
O22 Ti2 1.976967 1_555
O23 Ti2 1.976967 1_555
O24 Ti3 1.976967 1_555
O25 Ti3 1.976967 1_555
O27 Ti0 1.976967 1_655
O28 Ti2 1.976967 1_555
O30 Ti3 1.976967 1_556
O31 Ti3 1.976967 1_555
