# generated using pymatgen
data_Li7V3P8O29
_symmetry_space_group_name_H-M   'P 1'
_cell_length_a   9.80459225
_cell_length_b   9.80459225
_cell_length_c   13.83506701
_cell_angle_alpha   89.85634812
_cell_angle_beta   89.85634812
_cell_angle_gamma   60.05768696
_symmetry_Int_Tables_number   1
_chemical_formula_structural   Li7V3P8O29
_chemical_formula_sum   'Li14 V6 P16 O58'
_cell_volume   1152.44792433
_cell_formula_units_Z   2
loop_
 _symmetry_equiv_pos_site_id
 _symmetry_equiv_pos_as_xyz
  1  'x, y, z'
loop_
 _atom_site_type_symbol
 _atom_site_label
 _atom_site_symmetry_multiplicity
 _atom_site_fract_x
 _atom_site_fract_y
 _atom_site_fract_z
 _atom_site_occupancy
  Li  Li0  1  0.23633100  0.66287700  0.43837900  1
  Li  Li1  1  0.10126700  0.66291200  0.93918600  1
  Li  Li2  1  0.66287700  0.23633100  0.93837900  1
  Li  Li3  1  0.66291200  0.10126700  0.43918600  1
  Li  Li4  1  0.10214800  0.23649200  0.43945400  1
  Li  Li5  1  0.76350800  0.89785200  0.06054600  1
  Li  Li6  1  0.23649200  0.10214800  0.93945400  1
  Li  Li7  1  0.89785200  0.76350800  0.56054600  1
  Li  Li8  1  0.33708800  0.89873300  0.56081400  1
  Li  Li9  1  0.33712300  0.76366900  0.06162100  1
  Li  Li10  1  0.89873300  0.33708800  0.06081400  1
  Li  Li11  1  0.76366900  0.33712300  0.56162100  1
  Li  Li12  1  0.00000000  0.00000000  0.50000000  1
  Li  Li13  1  0.00000000  0.00000000  0.00000000  1
  V  V0  1  0.56431800  0.99853700  0.25079600  1
  V  V1  1  0.43568200  0.00146300  0.74920400  1
  V  V2  1  0.99853700  0.56431800  0.75079600  1
  V  V3  1  0.00146300  0.43568200  0.24920400  1
  V  V4  1  0.43642800  0.56357200  0.25000000  1
  V  V5  1  0.56357200  0.43642800  0.75000000  1
  P  P0  1  0.22477200  0.68674800  0.65767000  1
  P  P1  1  0.08619900  0.68709000  0.15708400  1
  P  P2  1  0.68674800  0.22477200  0.15767000  1
  P  P3  1  0.33205300  0.33079100  0.37331600  1
  P  P4  1  0.33079100  0.33205300  0.87331600  1
  P  P5  1  0.68709000  0.08619900  0.65708400  1
  P  P6  1  0.77410700  0.91081000  0.84328500  1
  P  P7  1  0.08919000  0.22589300  0.65671500  1
  P  P8  1  0.91081000  0.77410700  0.34328500  1
  P  P9  1  0.22589300  0.08919000  0.15671500  1
  P  P10  1  0.31291000  0.91380100  0.34291600  1
  P  P11  1  0.66920900  0.66794700  0.12668400  1
  P  P12  1  0.66794700  0.66920900  0.62668400  1
  P  P13  1  0.31325200  0.77522800  0.84233000  1
  P  P14  1  0.91380100  0.31291000  0.84291600  1
  P  P15  1  0.77522800  0.31325200  0.34233000  1
  O  O0  1  0.21634900  0.78255400  0.93403900  1
  O  O1  1  0.24889300  0.66893600  0.15549500  1
  O  O2  1  0.99996900  0.77534500  0.43318400  1
  O  O3  1  0.07732400  0.66508700  0.66092200  1
  O  O4  1  0.37461300  0.53077600  0.66500300  1
  O  O5  1  0.32124700  0.48595700  0.33582100  1
  O  O6  1  0.53077600  0.37461300  0.16500300  1
  O  O7  1  0.78255400  0.21634900  0.43403900  1
  O  O8  1  0.66893600  0.24889300  0.65549500  1
  O  O9  1  0.18803200  0.48668200  0.83141000  1
  O  O10  1  0.09047200  0.52873800  0.17218100  1
  O  O11  1  0.48595700  0.32124700  0.83582100  1
  O  O12  1  0.33231600  0.32163200  0.48157700  1
  O  O13  1  0.32163200  0.33231600  0.98157700  1
  O  O14  1  0.48668200  0.18803200  0.33141000  1
  O  O15  1  0.09049100  0.37894700  0.67048700  1
  O  O16  1  0.18767600  0.32312000  0.32897400  1
  O  O17  1  0.66508700  0.07732400  0.16092200  1
  O  O18  1  0.79694400  0.99659800  0.75016500  1
  O  O19  1  0.77534500  0.99996900  0.93318400  1
  O  O20  1  0.77565200  0.99330900  0.56698100  1
  O  O21  1  0.52873800  0.09047200  0.67218100  1
  O  O22  1  0.32312000  0.18767600  0.82897400  1
  O  O23  1  0.74525100  0.91838300  0.34360200  1
  O  O24  1  0.37894700  0.09049100  0.17048700  1
  O  O25  1  0.08161700  0.25474900  0.15639800  1
  O  O26  1  0.99659800  0.79694400  0.25016500  1
  O  O27  1  0.99330900  0.77565200  0.06698100  1
  O  O28  1  0.00669100  0.22434800  0.93301900  1
  O  O29  1  0.91838300  0.74525100  0.84360200  1
  O  O30  1  0.62105300  0.90950900  0.82951300  1
  O  O31  1  0.25474900  0.08161700  0.65639800  1
  O  O32  1  0.67688000  0.81232400  0.17102600  1
  O  O33  1  0.47126200  0.90952800  0.32781900  1
  O  O34  1  0.22434800  0.00669100  0.43301900  1
  O  O35  1  0.22465500  0.00003100  0.06681600  1
  O  O36  1  0.20305600  0.00340200  0.24983500  1
  O  O37  1  0.33491300  0.92267600  0.83907800  1
  O  O38  1  0.81232400  0.67688000  0.67102600  1
  O  O39  1  0.90950900  0.62105300  0.32951300  1
  O  O40  1  0.51331800  0.81196800  0.66859000  1
  O  O41  1  0.66768400  0.67836800  0.51842300  1
  O  O42  1  0.67836800  0.66768400  0.01842300  1
  O  O43  1  0.51404300  0.67875300  0.16417900  1
  O  O44  1  0.90952800  0.47126200  0.82781900  1
  O  O45  1  0.81196800  0.51331800  0.16859000  1
  O  O46  1  0.33106400  0.75110700  0.34450500  1
  O  O47  1  0.20393100  0.79606900  0.75000000  1
  O  O48  1  0.21744600  0.78365100  0.56596100  1
  O  O49  1  0.46922400  0.62538700  0.83499700  1
  O  O50  1  0.67875300  0.51404300  0.66417900  1
  O  O51  1  0.62538700  0.46922400  0.33499700  1
  O  O52  1  0.92267600  0.33491300  0.33907800  1
  O  O53  1  0.00003100  0.22465500  0.56681600  1
  O  O54  1  0.00340200  0.20305600  0.74983500  1
  O  O55  1  0.75110700  0.33106400  0.84450500  1
  O  O56  1  0.78365100  0.21744600  0.06596100  1
  O  O57  1  0.79606900  0.20393100  0.25000000  1
loop_
_geom_bond_atom_site_label_1
_geom_bond_atom_site_label_2
_geom_bond_distance
_geom_bond_site_symmetry_2
Li0 O2 2.010241 1_455
Li0 O46 2.021927 1_555
Li0 O5 2.068844 1_555
Li0 O48 2.083756 1_555
Li1 O0 1.993660 1_555
Li1 O29 2.043823 1_455
Li1 O27 2.073808 1_456
Li1 O9 2.114657 1_555
Li2 O19 2.010241 1_545
Li2 O55 2.021927 1_555
Li2 O11 2.068844 1_555
Li2 O56 2.083756 1_556
Li3 O7 1.993660 1_555
Li3 O23 2.043823 1_545
Li3 O20 2.073808 1_545
Li3 O14 2.114657 1_555
Li4 O34 1.955912 1_555
Li4 O53 2.055939 1_555
Li4 O52 2.065559 1_455
Li4 O16 2.111625 1_555
Li5 O27 1.955912 1_555
Li5 O19 2.055939 1_554
Li5 O17 2.065559 1_565
Li5 O32 2.111625 1_555
Li6 O28 1.955912 1_555
Li6 O35 2.055939 1_556
Li6 O37 2.065559 1_545
Li6 O22 2.111625 1_555
Li7 O20 1.955912 1_555
Li7 O2 2.055939 1_555
Li7 O3 2.065559 1_655
Li7 O38 2.111625 1_555
Li8 O48 1.993660 1_555
Li8 O31 2.043823 1_565
Li8 O34 2.073808 1_565
Li8 O40 2.114657 1_555
Li9 O35 2.010241 1_565
Li9 O1 2.021927 1_555
Li9 O43 2.068844 1_555
Li9 O0 2.083756 1_554
Li10 O56 1.993660 1_555
Li10 O25 2.043823 1_655
Li10 O28 2.073808 1_654
Li10 O45 2.114657 1_555
Li11 O53 2.010241 1_655
Li11 O8 2.021927 1_555
Li11 O50 2.068844 1_555
Li11 O7 2.083756 1_555
Li12 O48 2.315860 1_545
Li12 O7 2.315860 1_455
Li12 O53 2.391040 1_555
Li12 O2 2.391040 1_445
Li12 O34 2.415573 1_555
Li12 O20 2.415573 1_445
Li13 O56 2.315860 1_455
Li13 O0 2.315860 1_544
Li13 O35 2.391040 1_555
Li13 O19 2.391040 1_444
Li13 O27 2.415573 1_445
Li13 O28 2.415573 1_554
O0 P13 1.563323 1_555
O1 P1 1.514291 1_555
O1 V4 2.065589 1_555
O2 P8 1.525573 1_555
O3 P0 1.563074 1_555
O3 V2 1.967188 1_455
O4 P0 1.504809 1_555
O4 V5 1.991374 1_555
O5 P3 1.558914 1_555
O5 V4 2.027516 1_555
O6 P2 1.504809 1_555
O6 V4 1.991374 1_555
O7 P15 1.563323 1_555
O8 P5 1.514291 1_555
O8 V5 2.065589 1_555
O9 P4 1.573240 1_555
O9 V2 1.967116 1_455
O10 P1 1.545756 1_555
O10 V3 1.874800 1_555
O11 P4 1.558914 1_555
O11 V5 2.027516 1_555
O12 P3 1.500195 1_555
O13 P4 1.500195 1_555
O14 P3 1.573240 1_555
O14 V0 1.967116 1_545
O15 P7 1.519512 1_555
O15 V2 1.928719 1_455
O16 P3 1.580088 1_555
O16 V3 1.939558 1_555
O17 P2 1.563074 1_555
O17 V0 1.967188 1_545
O18 P6 1.611988 1_555
O18 P5 1.626947 1_565
O19 P6 1.525573 1_555
O20 P5 1.532392 1_565
O21 P5 1.545756 1_555
O21 V1 1.874800 1_555
O22 P4 1.580088 1_555
O22 V1 1.939558 1_555
O23 P8 1.530929 1_555
O23 V0 2.006951 1_555
O24 P9 1.519512 1_555
O24 V0 1.928719 1_545
O25 P9 1.530929 1_555
O25 V3 2.006951 1_555
O26 P8 1.611988 1_555
O26 P1 1.626947 1_655
O27 P1 1.532392 1_655
O28 P14 1.532392 1_455
O29 P6 1.530929 1_555
O29 V2 2.006951 1_555
O30 P6 1.519512 1_555
O30 V1 1.928719 1_565
O31 P7 1.530929 1_555
O31 V1 2.006951 1_555
O32 P11 1.580088 1_555
O32 V0 1.939558 1_555
O33 P10 1.545756 1_555
O33 V0 1.874800 1_555
O34 P10 1.532392 1_545
O35 P9 1.525573 1_555
O36 P9 1.611988 1_555
O36 P10 1.626947 1_545
O37 P13 1.563074 1_555
O37 V1 1.967188 1_565
O38 P12 1.580088 1_555
O38 V2 1.939558 1_555
O39 P8 1.519512 1_555
O39 V3 1.928719 1_655
O40 P12 1.573240 1_555
O40 V1 1.967116 1_565
O41 P12 1.500195 1_555
O42 P11 1.500195 1_555
O43 P11 1.558914 1_555
O43 V4 2.027516 1_555
O44 P14 1.545756 1_555
O44 V2 1.874800 1_555
O45 P11 1.573240 1_555
O45 V3 1.967116 1_655
O46 P10 1.514291 1_555
O46 V4 2.065589 1_555
O47 P0 1.615321 1_555
O47 P13 1.615321 1_555
O48 P0 1.563323 1_555
O49 P13 1.504809 1_555
O49 V5 1.991374 1_555
O50 P12 1.558914 1_555
O50 V5 2.027516 1_555
O51 P15 1.504809 1_555
O51 V4 1.991374 1_555
O52 P15 1.563074 1_555
O52 V3 1.967188 1_655
O53 P7 1.525573 1_555
O54 P7 1.611988 1_555
O54 P14 1.626947 1_455
O55 P14 1.514291 1_555
O55 V5 2.065589 1_555
O56 P2 1.563323 1_555
O57 P2 1.615321 1_555
O57 P15 1.615321 1_555
