# generated using pymatgen
data_Li3Cr2FeO6
_symmetry_space_group_name_H-M   'P 1'
_cell_length_a   6.65206538
_cell_length_b   6.65206538
_cell_length_c   5.94907499
_cell_angle_alpha   76.99327028
_cell_angle_beta   76.99327028
_cell_angle_gamma   25.81837323
_symmetry_Int_Tables_number   1
_chemical_formula_structural   Li3Cr2FeO6
_chemical_formula_sum   'Li3 Cr2 Fe1 O6'
_cell_volume   111.55087725
_cell_formula_units_Z   1
loop_
 _symmetry_equiv_pos_site_id
 _symmetry_equiv_pos_as_xyz
  1  'x, y, z'
loop_
 _atom_site_type_symbol
 _atom_site_label
 _atom_site_symmetry_multiplicity
 _atom_site_fract_x
 _atom_site_fract_y
 _atom_site_fract_z
 _atom_site_occupancy
  Li  Li0  1  0.00000000  0.00000000  0.00000000  1
  Li  Li1  1  0.66714700  0.66714700  0.66654300  1
  Li  Li2  1  0.33285300  0.33285300  0.33345700  1
  Cr  Cr0  1  0.66695000  0.66695000  0.16621900  1
  Cr  Cr1  1  0.33305000  0.33305000  0.83378100  1
  Fe  Fe0  1  0.00000000  0.00000000  0.50000000  1
  O  O0  1  0.16216900  0.16216900  0.40187200  1
  O  O1  1  0.82722700  0.82722700  0.06877700  1
  O  O2  1  0.83783100  0.83783100  0.59812800  1
  O  O3  1  0.49471100  0.49471100  0.73939900  1
  O  O4  1  0.50528900  0.50528900  0.26060100  1
  O  O5  1  0.17277300  0.17277300  0.93122300  1
loop_
_geom_bond_atom_site_label_1
_geom_bond_atom_site_label_2
_geom_bond_distance
_geom_bond_site_symmetry_2
Li0 O4 2.160065 1_455
Li0 O4 2.160065 1_545
Li0 O3 2.160065 1_544
Li0 O3 2.160065 1_454
Li0 O5 2.182636 1_554
Li0 O1 2.182636 1_445
Li1 O2 2.156109 1_555
Li1 O0 2.176888 1_655
Li1 O0 2.176888 1_565
Li1 O3 2.177281 1_555
Li1 O5 2.178595 1_565
Li1 O5 2.178595 1_655
Li2 O0 2.156109 1_555
Li2 O2 2.176888 1_545
Li2 O2 2.176888 1_455
Li2 O4 2.177281 1_555
Li2 O1 2.178595 1_545
Li2 O1 2.178595 1_455
Cr0 O1 2.024746 1_555
Cr0 O5 2.029757 1_654
Cr0 O5 2.029757 1_564
Cr0 O0 2.034112 1_565
Cr0 O0 2.034112 1_655
Cr0 O4 2.041218 1_555
Cr1 O5 2.024746 1_555
Cr1 O1 2.029757 1_456
Cr1 O1 2.029757 1_546
Cr1 O2 2.034112 1_455
Cr1 O2 2.034112 1_545
Cr1 O3 2.041218 1_555
Fe0 O0 2.048513 1_555
Fe0 O2 2.048513 1_445
Fe0 O3 2.048532 1_455
Fe0 O3 2.048532 1_545
Fe0 O4 2.048532 1_545
Fe0 O4 2.048532 1_455
