# generated using pymatgen
data_H13Se2N3O8
_symmetry_space_group_name_H-M   'P 1'
_cell_length_a   6.12864686
_cell_length_b   6.12864686
_cell_length_c   16.23658476
_cell_angle_alpha   76.74502448
_cell_angle_beta   76.74502448
_cell_angle_gamma   60.03024099
_symmetry_Int_Tables_number   1
_chemical_formula_structural   H13Se2N3O8
_chemical_formula_sum   'H26 Se4 N6 O16'
_cell_volume   509.44930209
_cell_formula_units_Z   2
loop_
 _symmetry_equiv_pos_site_id
 _symmetry_equiv_pos_as_xyz
  1  'x, y, z'
loop_
 _atom_site_type_symbol
 _atom_site_label
 _atom_site_symmetry_multiplicity
 _atom_site_fract_x
 _atom_site_fract_y
 _atom_site_fract_z
 _atom_site_occupancy
  H  H0  1  0.38793200  0.71015000  0.78430200  1
  H  H1  1  0.71015000  0.38793200  0.28430200  1
  H  H2  1  0.61206800  0.28985000  0.21569800  1
  H  H3  1  0.28985000  0.61206800  0.71569800  1
  H  H4  1  0.08244100  0.78246000  0.79318500  1
  H  H5  1  0.78246000  0.08244100  0.29318500  1
  H  H6  1  0.91755900  0.21754000  0.20681500  1
  H  H7  1  0.21754000  0.91755900  0.70681500  1
  H  H8  1  0.30918000  0.65804600  0.06630000  1
  H  H9  1  0.65804600  0.30918000  0.56630000  1
  H  H10  1  0.69082000  0.34195400  0.93370000  1
  H  H11  1  0.34195400  0.69082000  0.43370000  1
  H  H12  1  0.16637800  0.47281900  0.07133700  1
  H  H13  1  0.47281900  0.16637800  0.57133700  1
  H  H14  1  0.83362200  0.52718100  0.92866300  1
  H  H15  1  0.52718100  0.83362200  0.42866300  1
  H  H16  1  0.17172900  0.68084700  0.98311100  1
  H  H17  1  0.68084700  0.17172900  0.48311100  1
  H  H18  1  0.82827100  0.31915300  0.01688900  1
  H  H19  1  0.31915300  0.82827100  0.51688900  1
  H  H20  1  0.98697700  0.79273000  0.07389100  1
  H  H21  1  0.79273000  0.98697700  0.57389100  1
  H  H22  1  0.01302300  0.20727000  0.92610900  1
  H  H23  1  0.20727000  0.01302300  0.42610900  1
  H  H24  1  0.73400100  0.26599900  0.75000000  1
  H  H25  1  0.26599900  0.73400100  0.25000000  1
  Se  Se0  1  0.43949700  0.94832900  0.13592400  1
  Se  Se1  1  0.94832900  0.43949700  0.63592400  1
  Se  Se2  1  0.56050300  0.05167100  0.86407600  1
  Se  Se3  1  0.05167100  0.56050300  0.36407600  1
  N  N0  1  0.24630600  0.75369400  0.75000000  1
  N  N1  1  0.75369400  0.24630600  0.25000000  1
  N  N2  1  0.15790300  0.65154100  0.04842600  1
  N  N3  1  0.65154100  0.15790300  0.54842600  1
  N  N4  1  0.84209700  0.34845900  0.95157400  1
  N  N5  1  0.34845900  0.84209700  0.45157400  1
  O  O0  1  0.38640800  0.84867100  0.24323100  1
  O  O1  1  0.84867100  0.38640800  0.74323100  1
  O  O2  1  0.61359200  0.15132900  0.75676900  1
  O  O3  1  0.15132900  0.61359200  0.25676900  1
  O  O4  1  0.64568800  0.05870800  0.12133300  1
  O  O5  1  0.05870800  0.64568800  0.62133300  1
  O  O6  1  0.35431200  0.94129200  0.87866700  1
  O  O7  1  0.94129200  0.35431200  0.37866700  1
  O  O8  1  0.15524100  0.17670800  0.10889900  1
  O  O9  1  0.17670800  0.15524100  0.60889900  1
  O  O10  1  0.84475900  0.82329200  0.89110100  1
  O  O11  1  0.82329200  0.84475900  0.39110100  1
  O  O12  1  0.55630500  0.69538500  0.08608400  1
  O  O13  1  0.69538500  0.55630500  0.58608400  1
  O  O14  1  0.44369500  0.30461500  0.91391600  1
  O  O15  1  0.30461500  0.44369500  0.41391600  1
loop_
_geom_bond_atom_site_label_1
_geom_bond_atom_site_label_2
_geom_bond_distance
_geom_bond_site_symmetry_2
H0 N0 1.028052 1_555
H1 N1 1.028052 1_555
H2 N1 1.028052 1_555
H3 N0 1.028052 1_555
H4 N0 1.043157 1_555
H5 N1 1.043157 1_555
H6 N1 1.043157 1_555
H7 N0 1.043157 1_555
H8 N2 1.054034 1_555
H8 O12 1.747130 1_555
H9 N3 1.054034 1_555
H9 O13 1.747130 1_555
H10 N4 1.054034 1_555
H10 O14 1.747130 1_555
H11 N5 1.054034 1_555
H11 O15 1.747130 1_555
H12 N2 1.051659 1_555
H13 N3 1.051659 1_555
H14 N4 1.051659 1_555
H15 N5 1.051659 1_555
H16 N2 1.025054 1_556
H17 N3 1.025054 1_555
H18 N4 1.025054 1_554
H19 N5 1.025054 1_555
H20 N2 1.037728 1_655
H21 N3 1.037728 1_565
H22 N4 1.037728 1_455
H23 N5 1.037728 1_545
H24 O1 1.223131 1_555
H24 O2 1.223131 1_555
H25 O0 1.223131 1_555
H25 O3 1.223131 1_555
O0 Se0 1.721949 1_555
O1 Se1 1.721949 1_555
O2 Se2 1.721949 1_555
O3 Se3 1.721949 1_555
O4 Se0 1.659486 1_545
O5 Se1 1.659486 1_455
O6 Se2 1.659486 1_565
O7 Se3 1.659486 1_655
O8 Se0 1.679075 1_545
O9 Se1 1.679075 1_455
O10 Se2 1.679075 1_565
O11 Se3 1.679075 1_655
O12 Se0 1.664734 1_555
O13 Se1 1.664734 1_555
O14 Se2 1.664734 1_555
O15 Se3 1.664734 1_555
