# generated using pymatgen
data_NaLi5Mn2P2(CO7)2
_symmetry_space_group_name_H-M   'P 1'
_cell_length_a   6.68227100
_cell_length_b   8.63384100
_cell_length_c   9.99739134
_cell_angle_alpha   87.60521582
_cell_angle_beta   90.00000000
_cell_angle_gamma   90.00000000
_symmetry_Int_Tables_number   1
_chemical_formula_structural   NaLi5Mn2P2(CO7)2
_chemical_formula_sum   'Na2 Li10 Mn4 P4 C4 O28'
_cell_volume   576.28240716
_cell_formula_units_Z   2
loop_
 _symmetry_equiv_pos_site_id
 _symmetry_equiv_pos_as_xyz
  1  'x, y, z'
loop_
 _atom_site_type_symbol
 _atom_site_label
 _atom_site_symmetry_multiplicity
 _atom_site_fract_x
 _atom_site_fract_y
 _atom_site_fract_z
 _atom_site_occupancy
  Na  Na0  1  0.99808900  0.24805300  0.87632200  1
  Na  Na1  1  0.49808900  0.75194700  0.12367800  1
  Li  Li0  1  0.25524300  0.08428500  0.61939600  1
  Li  Li1  1  0.25039500  0.09071900  0.12409400  1
  Li  Li2  1  0.02953100  0.26554800  0.36752100  1
  Li  Li3  1  0.46793200  0.26667000  0.36565600  1
  Li  Li4  1  0.47522400  0.26967600  0.86492600  1
  Li  Li5  1  0.52953100  0.73445200  0.63247900  1
  Li  Li6  1  0.96793200  0.73333000  0.63434400  1
  Li  Li7  1  0.97522400  0.73032400  0.13507400  1
  Li  Li8  1  0.75524300  0.91571500  0.38060400  1
  Li  Li9  1  0.75039500  0.90928100  0.87590600  1
  Mn  Mn0  1  0.74619800  0.35077200  0.63276200  1
  Mn  Mn1  1  0.74779000  0.35390600  0.14279700  1
  Mn  Mn2  1  0.24619800  0.64922800  0.36723800  1
  Mn  Mn3  1  0.24779000  0.64609400  0.85720300  1
  P  P0  1  0.24996800  0.40624000  0.60212000  1
  P  P1  1  0.24895600  0.40836900  0.10894000  1
  P  P2  1  0.74996800  0.59376000  0.39788000  1
  P  P3  1  0.74895600  0.59163100  0.89106000  1
  C  C0  1  0.74993500  0.03785000  0.61369600  1
  C  C1  1  0.75865800  0.04301500  0.11190400  1
  C  C2  1  0.24993500  0.96215000  0.38630400  1
  C  C3  1  0.25865800  0.95698500  0.88809600  1
  O  O0  1  0.24850900  0.10818000  0.41532100  1
  O  O1  1  0.28152600  0.09897700  0.92305000  1
  O  O2  1  0.75584900  0.07913200  0.73664400  1
  O  O3  1  0.75189700  0.07850700  0.23692900  1
  O  O4  1  0.74512600  0.14160700  0.51554500  1
  O  O5  1  0.74127800  0.15187400  0.01854100  1
  O  O6  1  0.06227600  0.31373400  0.64850200  1
  O  O7  1  0.42957000  0.30742300  0.65601500  1
  O  O8  1  0.06707300  0.30322800  0.15056600  1
  O  O9  1  0.43244600  0.31810000  0.16801000  1
  O  O10  1  0.25484500  0.41687400  0.44520400  1
  O  O11  1  0.75517400  0.42401300  0.35025500  1
  O  O12  1  0.26728500  0.42198700  0.95300800  1
  O  O13  1  0.72922600  0.42558200  0.83964400  1
  O  O14  1  0.25517400  0.57598700  0.64974500  1
  O  O15  1  0.75484500  0.58312600  0.55479600  1
  O  O16  1  0.22922600  0.57441800  0.16035600  1
  O  O17  1  0.76728500  0.57801300  0.04699200  1
  O  O18  1  0.56227600  0.68626600  0.35149800  1
  O  O19  1  0.92957000  0.69257700  0.34398500  1
  O  O20  1  0.56707300  0.69677200  0.84943400  1
  O  O21  1  0.93244600  0.68190000  0.83199000  1
  O  O22  1  0.24512600  0.85839300  0.48445500  1
  O  O23  1  0.24127800  0.84812600  0.98145900  1
  O  O24  1  0.25584900  0.92086800  0.26335600  1
  O  O25  1  0.25189700  0.92149300  0.76307100  1
  O  O26  1  0.74850900  0.89182000  0.58467900  1
  O  O27  1  0.78152600  0.90102300  0.07695000  1
loop_
_geom_bond_atom_site_label_1
_geom_bond_atom_site_label_2
_geom_bond_distance
_geom_bond_site_symmetry_2
Na0 O1 2.326340 1_655
Na0 O5 2.357411 1_556
Na0 O6 2.363281 1_655
Na0 O13 2.380055 1_555
Na0 O12 2.484948 1_655
Na0 O2 2.620581 1_555
Na0 O8 2.840005 1_656
Na1 O27 2.326340 1_555
Na1 O23 2.357411 1_554
Na1 O18 2.363281 1_555
Na1 O16 2.380055 1_555
Na1 O17 2.484948 1_555
Na1 O24 2.620581 1_555
Na1 O20 2.840005 1_554
Li0 O25 1.967345 1_545
Li0 O0 2.042523 1_555
Li0 O7 2.293798 1_555
Li0 O6 2.391654 1_555
Li0 O22 2.418292 1_545
Li1 O24 1.979800 1_545
Li1 O1 2.018946 1_554
Li1 O8 2.231062 1_555
Li1 O9 2.366166 1_555
Li2 O0 2.039927 1_555
Li2 O10 2.159123 1_555
Li2 O8 2.194150 1_555
Li2 O11 2.289763 1_455
Li2 O4 2.610461 1_455
Li3 O9 2.020998 1_555
Li3 O0 2.052336 1_555
Li3 O10 2.104267 1_555
Li3 O11 2.352847 1_555
Li3 O4 2.589817 1_555
Li4 O1 2.028169 1_555
Li4 O7 2.122381 1_555
Li4 O12 2.128905 1_555
Li4 O13 2.174445 1_555
Li4 O5 2.534400 1_556
Li5 O26 2.039927 1_555
Li5 O15 2.159123 1_555
Li5 O20 2.194150 1_555
Li5 O14 2.289763 1_555
Li5 O22 2.610461 1_555
Li6 O21 2.020998 1_555
Li6 O26 2.052336 1_555
Li6 O15 2.104267 1_555
Li6 O14 2.352847 1_655
Li6 O22 2.589817 1_655
Li7 O27 2.028169 1_555
Li7 O19 2.122381 1_555
Li7 O17 2.128905 1_555
Li7 O16 2.174445 1_655
Li7 O23 2.534400 1_654
Li8 O3 1.967345 1_565
Li8 O26 2.042523 1_555
Li8 O19 2.293798 1_555
Li8 O18 2.391654 1_555
Li8 O4 2.418292 1_565
Li9 O2 1.979800 1_565
Li9 O27 2.018946 1_556
Li9 O20 2.231062 1_555
Li9 O21 2.366166 1_555
Mn0 O15 2.122424 1_555
Mn0 O6 2.140996 1_655
Mn0 O7 2.159498 1_555
Mn0 O4 2.193499 1_555
Mn0 O13 2.195329 1_555
Mn0 O2 2.525789 1_555
Mn1 O17 2.126812 1_555
Mn1 O9 2.143116 1_555
Mn1 O8 2.178672 1_655
Mn1 O5 2.183747 1_555
Mn1 O11 2.185261 1_555
Mn1 O3 2.520531 1_555
Mn2 O10 2.122424 1_555
Mn2 O18 2.140996 1_555
Mn2 O19 2.159498 1_455
Mn2 O22 2.193499 1_555
Mn2 O16 2.195329 1_555
Mn2 O24 2.525789 1_555
Mn3 O12 2.126812 1_555
Mn3 O21 2.143116 1_455
Mn3 O20 2.178672 1_555
Mn3 O23 2.183747 1_555
Mn3 O14 2.185261 1_555
Mn3 O25 2.520531 1_555
C0 O2 1.294621 1_555
C0 O4 1.301126 1_555
C0 O26 1.305537 1_545
C1 O27 1.297762 1_545
C1 O3 1.300100 1_555
C1 O5 1.301823 1_555
C2 O24 1.294621 1_555
C2 O22 1.301126 1_555
C2 O0 1.305537 1_565
C3 O1 1.297762 1_565
C3 O25 1.300100 1_555
C3 O23 1.301823 1_555
O6 P0 1.547579 1_555
O7 P0 1.555685 1_555
O8 P1 1.562957 1_555
O9 P1 1.555985 1_555
O10 P0 1.567939 1_555
O11 P2 1.560164 1_555
O12 P1 1.563240 1_556
O13 P3 1.548714 1_555
O14 P0 1.560164 1_555
O15 P2 1.567939 1_555
O16 P1 1.548714 1_555
O17 P3 1.563240 1_554
O18 P2 1.547579 1_555
O19 P2 1.555685 1_555
O20 P3 1.562957 1_555
O21 P3 1.555985 1_555
