# generated using pymatgen
data_LaGaS2O
_symmetry_space_group_name_H-M   'P 1'
_cell_length_a   5.59694600
_cell_length_b   5.81315500
_cell_length_c   11.55035100
_cell_angle_alpha   90.00000000
_cell_angle_beta   90.00000000
_cell_angle_gamma   90.00000000
_symmetry_Int_Tables_number   1
_chemical_formula_structural   LaGaS2O
_chemical_formula_sum   'La4 Ga4 S8 O4'
_cell_volume   375.80123402
_cell_formula_units_Z   4
loop_
 _symmetry_equiv_pos_site_id
 _symmetry_equiv_pos_as_xyz
  1  'x, y, z'
loop_
 _atom_site_type_symbol
 _atom_site_label
 _atom_site_symmetry_multiplicity
 _atom_site_fract_x
 _atom_site_fract_y
 _atom_site_fract_z
 _atom_site_occupancy
  La  La0  1  0.25000000  0.84931200  0.60806100  1
  La  La1  1  0.75000000  0.15068800  0.39193900  1
  La  La2  1  0.75000000  0.84931200  0.89193900  1
  La  La3  1  0.25000000  0.15068800  0.10806100  1
  Ga  Ga0  1  0.25000000  0.47970900  0.83667900  1
  Ga  Ga1  1  0.75000000  0.52029100  0.16332100  1
  Ga  Ga2  1  0.75000000  0.47970900  0.66332100  1
  Ga  Ga3  1  0.25000000  0.52029100  0.33667900  1
  S  S0  1  0.25000000  0.90325600  0.34682200  1
  S  S1  1  0.75000000  0.09674400  0.65317800  1
  S  S2  1  0.75000000  0.90325600  0.15317800  1
  S  S3  1  0.25000000  0.09674400  0.84682200  1
  S  S4  1  0.25000000  0.65807100  0.01114200  1
  S  S5  1  0.75000000  0.34192900  0.98885800  1
  S  S6  1  0.75000000  0.65807100  0.48885800  1
  S  S7  1  0.25000000  0.34192900  0.51114200  1
  O  O0  1  0.50000000  0.37351800  0.25000000  1
  O  O1  1  0.00000000  0.62648200  0.75000000  1
  O  O2  1  0.50000000  0.62648200  0.75000000  1
  O  O3  1  0.00000000  0.37351800  0.25000000  1
loop_
_geom_bond_atom_site_label_1
_geom_bond_atom_site_label_2
_geom_bond_distance
_geom_bond_site_symmetry_2
La0 O1 2.514670 1_555
La0 O2 2.514670 1_555
La0 S0 3.033653 1_555
La0 S7 3.074688 1_565
La0 S3 3.110337 1_565
La0 S7 3.154789 1_555
La0 S1 3.189341 1_565
La0 S1 3.189341 1_465
La0 S6 3.311048 1_455
La0 S6 3.311048 1_555
La1 O3 2.514670 1_655
La1 O0 2.514670 1_555
La1 S1 3.033653 1_555
La1 S6 3.074688 1_545
La1 S2 3.110337 1_545
La1 S6 3.154789 1_555
La1 S0 3.189341 1_645
La1 S0 3.189341 1_545
La1 S7 3.311048 1_655
La1 S7 3.311048 1_555
La2 O1 2.514670 1_655
La2 O2 2.514670 1_555
La2 S2 3.033653 1_556
La2 S5 3.074688 1_565
La2 S1 3.110337 1_565
La2 S5 3.154789 1_555
La2 S3 3.189341 1_665
La2 S3 3.189341 1_565
La2 S4 3.311048 1_656
La2 S4 3.311048 1_556
La3 O0 2.514670 1_555
La3 O3 2.514670 1_555
La3 S3 3.033653 1_554
La3 S4 3.074688 1_545
La3 S0 3.110337 1_545
La3 S4 3.154789 1_555
La3 S2 3.189341 1_445
La3 S2 3.189341 1_545
La3 S5 3.311048 1_554
La3 S5 3.311048 1_454
Ga0 O2 1.920465 1_555
Ga0 O1 1.920465 1_555
Ga0 S3 2.229315 1_555
Ga0 S4 2.266211 1_556
Ga1 O3 1.920465 1_655
Ga1 O0 1.920465 1_555
Ga1 S2 2.229315 1_555
Ga1 S5 2.266211 1_554
Ga2 O2 1.920465 1_555
Ga2 O1 1.920465 1_655
Ga2 S1 2.229315 1_555
Ga2 S6 2.266211 1_555
Ga3 O0 1.920465 1_555
Ga3 O3 1.920465 1_555
Ga3 S0 2.229315 1_555
Ga3 S7 2.266211 1_555
