# generated using pymatgen
data_Li3Co3OF7
_symmetry_space_group_name_H-M   'P 1'
_cell_length_a   6.09872255
_cell_length_b   10.41066364
_cell_length_c   6.09813551
_cell_angle_alpha   106.96107865
_cell_angle_beta   60.00179541
_cell_angle_gamma   106.97776089
_symmetry_Int_Tables_number   1
_chemical_formula_structural   Li3Co3OF7
_chemical_formula_sum   'Li6 Co6 O2 F14'
_cell_volume   315.69867314
_cell_formula_units_Z   2
loop_
 _symmetry_equiv_pos_site_id
 _symmetry_equiv_pos_as_xyz
  1  'x, y, z'
loop_
 _atom_site_type_symbol
 _atom_site_label
 _atom_site_symmetry_multiplicity
 _atom_site_fract_x
 _atom_site_fract_y
 _atom_site_fract_z
 _atom_site_occupancy
  Li  Li0  1  0.67615500  0.06081200  0.67646000  1
  Li  Li1  1  0.17642600  0.56078500  0.17620100  1
  Li  Li2  1  0.49938600  0.49406900  0.49948800  1
  Li  Li3  1  0.99948600  0.99408900  0.99938600  1
  Li  Li4  1  0.94162000  0.31530500  0.94155800  1
  Li  Li5  1  0.44161500  0.81531300  0.44161800  1
  Co  Co0  1  0.89295400  0.63698200  0.89304600  1
  Co  Co1  1  0.43601600  0.30796100  0.92377000  1
  Co  Co2  1  0.92411200  0.30769700  0.43550400  1
  Co  Co3  1  0.39309900  0.13708000  0.39307600  1
  Co  Co4  1  0.93589700  0.80788300  0.42383600  1
  Co  Co5  1  0.42383800  0.80789300  0.93590400  1
  O  O0  1  0.58112400  0.19942800  0.58128100  1
  O  O1  1  0.08113500  0.69949900  0.08118200  1
  F  F0  1  0.05875400  0.19352700  0.05852100  1
  F  F1  1  0.55866000  0.69347000  0.55867200  1
  F  F2  1  0.29551900  0.42372000  0.29522900  1
  F  F3  1  0.79540800  0.92373400  0.79536300  1
  F  F4  1  0.81603800  0.43151900  0.81664500  1
  F  F5  1  0.31638100  0.93153700  0.31641400  1
  F  F6  1  0.57299600  0.19327000  0.04851500  1
  F  F7  1  0.07302200  0.69340400  0.54855600  1
  F  F8  1  0.04868700  0.19356800  0.57298100  1
  F  F9  1  0.54856100  0.69343900  0.07304800  1
  F  F10  1  0.83181300  0.43350100  0.30011500  1
  F  F11  1  0.33197100  0.93346900  0.79967800  1
  F  F12  1  0.29959800  0.43353000  0.83197700  1
  F  F13  1  0.79974000  0.93351800  0.33198100  1
loop_
_geom_bond_atom_site_label_1
_geom_bond_atom_site_label_2
_geom_bond_distance
_geom_bond_site_symmetry_2
Li0 O0 2.017119 1_555
Li1 O1 2.018411 1_555
Co0 O1 1.871288 1_656
Co0 F7 2.000130 1_655
Co0 F9 2.000248 1_556
Co0 F4 2.015831 1_555
Co1 O0 1.944425 1_555
Co1 F12 2.059668 1_555
Co1 F2 2.094559 1_556
Co1 F6 2.109544 1_556
Co1 F0 2.113793 1_556
Co1 F4 2.165212 1_555
Co2 O0 1.945394 1_555
Co2 F10 2.059124 1_555
Co2 F2 2.094979 1_655
Co2 F8 2.106424 1_655
Co2 F0 2.111887 1_655
Co2 F4 2.171297 1_555
Co3 O0 1.870873 1_555
Co3 F6 1.999506 1_555
Co3 F8 2.000527 1_555
Co3 F5 2.016617 1_545
Co4 O1 1.944555 1_655
Co4 F13 2.059334 1_555
Co4 F3 2.095215 1_555
Co4 F7 2.108353 1_655
Co4 F1 2.113608 1_555
Co4 F5 2.167575 1_655
Co5 O1 1.944468 1_556
Co5 F11 2.059106 1_555
Co5 F3 2.095023 1_555
Co5 F9 2.108229 1_556
Co5 F1 2.113951 1_555
Co5 F5 2.167963 1_556
F0 Li3 1.956233 1_444
F0 Li4 2.047521 1_454
F1 Li2 1.955855 1_555
F1 Li5 2.048086 1_555
F2 Li2 2.029368 1_555
F2 Li1 2.197104 1_555
F3 Li3 2.029244 1_555
F3 Li0 2.197365 1_565
F4 Li4 2.071914 1_555
F5 Li5 2.071744 1_555
F6 Li4 2.107802 1_554
F6 Li0 2.167705 1_554
F7 Li5 2.107168 1_555
F7 Li1 2.169641 1_555
F8 Li4 2.106700 1_455
F8 Li0 2.170630 1_455
F9 Li5 2.107247 1_555
F9 Li1 2.168550 1_555
F10 Li2 1.954627 1_555
F10 Li1 2.028246 1_655
F10 Li4 2.047141 1_554
F11 Li3 1.955178 1_455
F11 Li0 2.026615 1_565
F11 Li5 2.044802 1_555
F12 Li2 1.954378 1_555
F12 Li1 2.026731 1_556
F12 Li4 2.044404 1_455
F13 Li3 1.955053 1_554
F13 Li0 2.028055 1_565
F13 Li5 2.044966 1_555
