# generated using pymatgen
data_Li4Ti3V3Cr2O16
_symmetry_space_group_name_H-M   'P 1'
_cell_length_a   5.92474977
_cell_length_b   5.92474977
_cell_length_c   9.62822388
_cell_angle_alpha   89.88250441
_cell_angle_beta   89.88250441
_cell_angle_gamma   59.56306332
_symmetry_Int_Tables_number   1
_chemical_formula_structural   Li4Ti3V3Cr2O16
_chemical_formula_sum   'Li4 Ti3 V3 Cr2 O16'
_cell_volume   291.39802138
_cell_formula_units_Z   1
loop_
 _symmetry_equiv_pos_site_id
 _symmetry_equiv_pos_as_xyz
  1  'x, y, z'
loop_
 _atom_site_type_symbol
 _atom_site_label
 _atom_site_symmetry_multiplicity
 _atom_site_fract_x
 _atom_site_fract_y
 _atom_site_fract_z
 _atom_site_occupancy
  Li  Li0  1  0.66867300  0.66867300  0.10694100  1
  Li  Li1  1  0.99779300  0.99779300  0.00553300  1
  Li  Li2  1  0.00067500  0.00067500  0.50267400  1
  Li  Li3  1  0.33364800  0.33364800  0.60762700  1
  Ti  Ti0  1  0.34008000  0.83455700  0.78441600  1
  Ti  Ti1  1  0.83455700  0.34008000  0.78441600  1
  Ti  Ti2  1  0.16812900  0.16812900  0.27904500  1
  V  V0  1  0.83093300  0.83093300  0.79078500  1
  V  V1  1  0.65402200  0.18086400  0.29144300  1
  V  V2  1  0.18086400  0.65402200  0.29144300  1
  Cr  Cr0  1  0.66836200  0.66836200  0.51406600  1
  Cr  Cr1  1  0.33526600  0.33526600  0.01458200  1
  O  O0  1  0.33193400  0.83342500  0.39555500  1
  O  O1  1  0.52144800  0.52144800  0.66098300  1
  O  O2  1  0.65587600  0.65587600  0.89877200  1
  O  O3  1  0.00540600  0.00540600  0.68828700  1
  O  O4  1  0.00119500  0.00119500  0.19079200  1
  O  O5  1  0.83342500  0.33193400  0.39555500  1
  O  O6  1  0.51376100  0.96110200  0.66064400  1
  O  O7  1  0.96110200  0.51376100  0.66064400  1
  O  O8  1  0.16437300  0.16437300  0.89656500  1
  O  O9  1  0.83806400  0.83806400  0.39419700  1
  O  O10  1  0.04060300  0.47733100  0.16126000  1
  O  O11  1  0.47733100  0.04060300  0.16126000  1
  O  O12  1  0.32357000  0.32357000  0.40242800  1
  O  O13  1  0.16798100  0.67096200  0.89563500  1
  O  O14  1  0.48144700  0.48144700  0.16122900  1
  O  O15  1  0.67096200  0.16798100  0.89563500  1
loop_
_geom_bond_atom_site_label_1
_geom_bond_atom_site_label_2
_geom_bond_distance
_geom_bond_site_symmetry_2
Li0 O10 1.971237 1_655
Li0 O11 1.971237 1_565
Li0 O14 1.994015 1_555
Li0 O2 2.008924 1_554
Li1 O4 1.784141 1_665
Li1 O15 1.977811 1_564
Li1 O13 1.977811 1_654
Li1 O8 2.006808 1_664
Li2 O3 1.787901 1_555
Li2 O9 1.973812 1_445
Li2 O0 1.980655 1_545
Li2 O5 1.980655 1_455
Li3 O7 1.970383 1_455
Li3 O6 1.970383 1_545
Li3 O12 1.978663 1_555
Li3 O1 1.999752 1_555
Cr0 O6 2.057679 1_555
Cr0 O7 2.057679 1_555
Cr0 O5 2.064266 1_555
Cr0 O0 2.064266 1_555
Cr0 O1 2.067311 1_555
Cr0 O9 2.090108 1_555
Cr1 O15 2.061013 1_554
Cr1 O13 2.061013 1_554
Cr1 O10 2.063175 1_555
Cr1 O11 2.063175 1_555
Cr1 O14 2.064905 1_555
Cr1 O8 2.095130 1_554
O0 V2 1.976790 1_555
O0 Ti2 2.044052 1_565
O1 Ti0 1.998140 1_555
O1 Ti1 1.998140 1_555
O2 Ti1 1.957177 1_555
O2 Ti0 1.957177 1_555
O2 V0 2.076900 1_555
O3 Ti1 1.945022 1_455
O3 Ti0 1.945022 1_545
O3 V0 2.045800 1_445
O4 Ti2 1.917400 1_555
O4 V1 2.020099 1_455
O4 V2 2.020099 1_545
O5 V1 1.976790 1_555
O5 Ti2 2.044052 1_655
O6 Ti0 1.952980 1_555
O6 V0 2.057538 1_555
O7 Ti1 1.952980 1_555
O7 V0 2.057538 1_555
O8 Ti1 2.002773 1_455
O8 Ti0 2.002773 1_545
O9 V2 2.011251 1_655
O9 V1 2.011251 1_565
O10 Ti2 1.950793 1_555
O10 V2 2.061220 1_555
O11 Ti2 1.950793 1_555
O11 V1 2.061220 1_555
O12 Ti2 1.993951 1_555
O12 V2 2.001964 1_555
O12 V1 2.001964 1_555
O13 V0 1.997969 1_455
O13 Ti0 2.029391 1_555
O14 V1 1.984948 1_555
O14 V2 1.984948 1_555
O15 V0 1.997969 1_545
O15 Ti1 2.029391 1_555
