# generated using pymatgen
data_NaVPCO7
_symmetry_space_group_name_H-M   'P 1'
_cell_length_a   5.47356127
_cell_length_b   6.43346800
_cell_length_c   17.34186839
_cell_angle_alpha   90.00000661
_cell_angle_beta   88.12850074
_cell_angle_gamma   90.00000000
_symmetry_Int_Tables_number   1
_chemical_formula_structural   NaVPCO7
_chemical_formula_sum   'Na4 V4 P4 C4 O28'
_cell_volume   610.35048479
_cell_formula_units_Z   4
loop_
 _symmetry_equiv_pos_site_id
 _symmetry_equiv_pos_as_xyz
  1  'x, y, z'
loop_
 _atom_site_type_symbol
 _atom_site_label
 _atom_site_symmetry_multiplicity
 _atom_site_fract_x
 _atom_site_fract_y
 _atom_site_fract_z
 _atom_site_occupancy
  Na  Na0  1  0.77769400  0.25000100  0.03893700  1
  Na  Na1  1  0.77792000  0.25000200  0.53892300  1
  Na  Na2  1  0.22232700  0.74999900  0.46105600  1
  Na  Na3  1  0.22206500  0.74999700  0.96108000  1
  V  V0  1  0.77313100  0.75000100  0.66915600  1
  V  V1  1  0.22696200  0.24999800  0.83084300  1
  V  V2  1  0.77306700  0.75000100  0.16918700  1
  V  V3  1  0.22689500  0.24999900  0.33078600  1
  P  P0  1  0.73919100  0.25000000  0.21712400  1
  P  P1  1  0.73926800  0.25000000  0.71713300  1
  P  P2  1  0.26079000  0.75000000  0.28285900  1
  P  P3  1  0.26075800  0.75000000  0.78289900  1
  C  C0  1  0.69757400  0.75000100  0.03061900  1
  C  C1  1  0.69781600  0.75000100  0.53047900  1
  C  C2  1  0.30242500  0.24999800  0.46936000  1
  C  C3  1  0.30222000  0.25000000  0.96953100  1
  O  O0  1  0.34416700  0.24999900  0.03938100  1
  O  O1  1  0.34455700  0.24999800  0.53926800  1
  O  O2  1  0.65584200  0.75000100  0.46063100  1
  O  O3  1  0.65543200  0.75000200  0.96071500  1
  O  O4  1  0.91990600  0.75000100  0.05981700  1
  O  O5  1  0.92008800  0.75000200  0.55974200  1
  O  O6  1  0.08008700  0.25000000  0.44016500  1
  O  O7  1  0.07995400  0.25000300  0.94025800  1
  O  O8  1  0.52756900  0.74999900  0.08699100  1
  O  O9  1  0.52771900  0.75000100  0.58686300  1
  O  O10  1  0.47242800  0.24999800  0.41299300  1
  O  O11  1  0.47233900  0.24999900  0.91315100  1
  O  O12  1  0.07324800  0.75000100  0.21779300  1
  O  O13  1  0.07284100  0.75000200  0.71790100  1
  O  O14  1  0.92672300  0.24999900  0.28219300  1
  O  O15  1  0.92710000  0.24999700  0.78213800  1
  O  O16  1  0.47921100  0.25000000  0.25479400  1
  O  O17  1  0.47953100  0.24999900  0.75492500  1
  O  O18  1  0.52076700  0.75000000  0.24518600  1
  O  O19  1  0.52043400  0.75000200  0.74509100  1
  O  O20  1  0.77553900  0.05969000  0.16398700  1
  O  O21  1  0.77544900  0.05970300  0.66398300  1
  O  O22  1  0.77554100  0.44031100  0.16398700  1
  O  O23  1  0.77545200  0.44029900  0.66398400  1
  O  O24  1  0.22446000  0.55968900  0.33599700  1
  O  O25  1  0.22452700  0.55969400  0.83604700  1
  O  O26  1  0.22446000  0.94031000  0.33599700  1
  O  O27  1  0.22452800  0.94030300  0.83604900  1
loop_
_geom_bond_atom_site_label_1
_geom_bond_atom_site_label_2
_geom_bond_distance
_geom_bond_site_symmetry_2
Na0 O7 2.341093 1_654
Na0 O0 2.372698 1_555
Na0 O22 2.490048 1_555
Na0 O20 2.490051 1_555
Na0 O11 2.791056 1_554
Na1 O6 2.341716 1_655
Na1 O1 2.371851 1_555
Na1 O21 2.490124 1_555
Na1 O23 2.490133 1_555
Na1 O10 2.793525 1_555
Na2 O5 2.341101 1_455
Na2 O2 2.372642 1_555
Na2 O24 2.490186 1_555
Na2 O26 2.490190 1_555
Na2 O9 2.791474 1_555
Na3 O4 2.341428 1_456
Na3 O3 2.371863 1_555
Na3 O27 2.489709 1_555
Na3 O25 2.489730 1_555
Na3 O8 2.793302 1_556
C0 O3 1.241394 1_554
C0 O8 1.327467 1_555
C0 O4 1.333266 1_555
C1 O2 1.240240 1_555
C1 O9 1.327956 1_555
C1 O5 1.333424 1_555
C2 O1 1.241451 1_555
C2 O10 1.327397 1_555
C2 O6 1.333275 1_555
C3 O0 1.240242 1_556
C3 O11 1.327988 1_555
C3 O7 1.333465 1_555
O4 V2 2.035635 1_555
O5 V0 2.036572 1_555
O6 V3 2.035717 1_555
O7 V1 2.036690 1_555
O8 V2 1.990634 1_555
O9 V0 1.991548 1_555
O10 V3 1.990909 1_555
O11 V1 1.991606 1_555
O12 P2 1.550037 1_555
O12 V2 1.870993 1_455
O13 P3 1.550563 1_555
O13 V0 1.869849 1_455
O14 P0 1.550038 1_555
O14 V3 1.870841 1_655
O15 P1 1.550334 1_555
O15 V1 1.870258 1_655
O16 P0 1.546291 1_555
O16 V3 1.877546 1_555
O17 P1 1.545918 1_555
O17 V1 1.877664 1_555
O18 P2 1.546297 1_555
O18 V2 1.877566 1_555
O19 P3 1.545725 1_555
O19 V0 1.878364 1_555
O20 P0 1.541363 1_555
O20 V2 1.994440 1_545
O21 P1 1.541331 1_555
O21 V0 1.994498 1_545
O22 P0 1.541370 1_555
O22 V2 1.994446 1_555
O23 P1 1.541333 1_555
O23 V0 1.994497 1_555
O24 P2 1.541368 1_555
O24 V3 1.994454 1_555
O25 P3 1.541386 1_555
O25 V1 1.994487 1_555
O26 P2 1.541363 1_555
O26 V3 1.994447 1_565
O27 P3 1.541391 1_555
O27 V1 1.994482 1_565
