# generated using pymatgen
data_LiNi(SO4)2
_symmetry_space_group_name_H-M   'P 1'
_cell_length_a   9.08003700
_cell_length_b   9.22061900
_cell_length_c   13.74807800
_cell_angle_alpha   89.73866881
_cell_angle_beta   90.00000000
_cell_angle_gamma   90.00000000
_symmetry_Int_Tables_number   1
_chemical_formula_structural   LiNi(SO4)2
_chemical_formula_sum   'Li8 Ni8 S16 O64'
_cell_volume   1151.02608399
_cell_formula_units_Z   8
loop_
 _symmetry_equiv_pos_site_id
 _symmetry_equiv_pos_as_xyz
  1  'x, y, z'
loop_
 _atom_site_type_symbol
 _atom_site_label
 _atom_site_symmetry_multiplicity
 _atom_site_fract_x
 _atom_site_fract_y
 _atom_site_fract_z
 _atom_site_occupancy
  Li  Li0  1  0.53492400  0.04730200  0.62610300  1
  Li  Li1  1  0.46507600  0.04730200  0.12610300  1
  Li  Li2  1  0.03578900  0.45265400  0.62441000  1
  Li  Li3  1  0.96421100  0.45265400  0.12441000  1
  Li  Li4  1  0.29728600  0.76788200  0.87318600  1
  Li  Li5  1  0.70271400  0.76788200  0.37318600  1
  Li  Li6  1  0.97501800  0.95976500  0.37359000  1
  Li  Li7  1  0.02498200  0.95976500  0.87359000  1
  Ni  Ni0  1  0.64284500  0.13935500  0.87701800  1
  Ni  Ni1  1  0.35715500  0.13935500  0.37701800  1
  Ni  Ni2  1  0.14349600  0.36164500  0.87634700  1
  Ni  Ni3  1  0.85650400  0.36164500  0.37634700  1
  Ni  Ni4  1  0.64308900  0.63942400  0.62450600  1
  Ni  Ni5  1  0.35691100  0.63942400  0.12450600  1
  Ni  Ni6  1  0.14506200  0.86108000  0.62388300  1
  Ni  Ni7  1  0.85493800  0.86108000  0.12388300  1
  S  S0  1  0.68343100  0.07825600  0.27398400  1
  S  S1  1  0.31656900  0.07825600  0.77398400  1
  S  S2  1  0.06518200  0.16016900  0.50918700  1
  S  S3  1  0.93481800  0.16016900  0.00918700  1
  S  S4  1  0.56341000  0.34333900  0.50753100  1
  S  S5  1  0.43659000  0.34333900  0.00753100  1
  S  S6  1  0.81786100  0.42271000  0.77352000  1
  S  S7  1  0.18213900  0.42271000  0.27352000  1
  S  S8  1  0.31822300  0.57445000  0.72493300  1
  S  S9  1  0.68177700  0.57445000  0.22493300  1
  S  S10  1  0.06391700  0.66053200  0.99049300  1
  S  S11  1  0.93608300  0.66053200  0.49049300  1
  S  S12  1  0.56581400  0.84051600  0.99080600  1
  S  S13  1  0.43418600  0.84051600  0.49080600  1
  S  S14  1  0.18359000  0.92206900  0.22745400  1
  S  S15  1  0.81641000  0.92206900  0.72745400  1
  O  O0  1  0.04947300  0.00000000  0.52374900  1
  O  O1  1  0.95052700  0.00000000  0.02374900  1
  O  O2  1  0.75289000  0.01447700  0.65120300  1
  O  O3  1  0.24711000  0.01447700  0.15120300  1
  O  O4  1  0.28588300  0.02165000  0.67367400  1
  O  O5  1  0.71411700  0.02165000  0.17367400  1
  O  O6  1  0.51775800  0.07915800  0.27802800  1
  O  O7  1  0.48224200  0.07915800  0.77802800  1
  O  O8  1  0.02346100  0.18671400  0.91848200  1
  O  O9  1  0.97653900  0.18671400  0.41848200  1
  O  O10  1  0.77887600  0.20076200  0.98832800  1
  O  O11  1  0.22112400  0.20076200  0.48832800  1
  O  O12  1  0.74453200  0.22601300  0.28081600  1
  O  O13  1  0.25546800  0.22601300  0.78081600  1
  O  O14  1  0.01576400  0.24251200  0.59314700  1
  O  O15  1  0.98423600  0.24251200  0.09314700  1
  O  O16  1  0.51802200  0.25744200  0.59217200  1
  O  O17  1  0.48197800  0.25744200  0.09217200  1
  O  O18  1  0.75573800  0.27374900  0.78072400  1
  O  O19  1  0.24426200  0.27374900  0.28072400  1
  O  O20  1  0.72008100  0.30289100  0.48714300  1
  O  O21  1  0.27991900  0.30289100  0.98714300  1
  O  O22  1  0.52586500  0.31451300  0.91882700  1
  O  O23  1  0.47413500  0.31451300  0.41882700  1
  O  O24  1  0.98404400  0.41768200  0.77480300  1
  O  O25  1  0.01595600  0.41768200  0.27480300  1
  O  O26  1  0.21485300  0.47968900  0.17344900  1
  O  O27  1  0.78514700  0.47968900  0.67344900  1
  O  O28  1  0.25143200  0.48521000  0.64986600  1
  O  O29  1  0.74856800  0.48521000  0.14986600  1
  O  O30  1  0.54733400  0.50132200  0.52530600  1
  O  O31  1  0.45266600  0.50132200  0.02530600  1
  O  O32  1  0.04739000  0.50068300  0.97538000  1
  O  O33  1  0.95261000  0.50068300  0.47538000  1
  O  O34  1  0.24177400  0.51303600  0.35134800  1
  O  O35  1  0.75822600  0.51303600  0.85134800  1
  O  O36  1  0.28326500  0.52250600  0.82662300  1
  O  O37  1  0.71673500  0.52250600  0.32662300  1
  O  O38  1  0.48217200  0.57471700  0.72069500  1
  O  O39  1  0.51782800  0.57471700  0.22069500  1
  O  O40  1  0.02331700  0.68699100  0.58064400  1
  O  O41  1  0.97668300  0.68699100  0.08064400  1
  O  O42  1  0.22225900  0.69881500  0.00987300  1
  O  O43  1  0.77774100  0.69881500  0.50987300  1
  O  O44  1  0.26095100  0.72773800  0.72332300  1
  O  O45  1  0.73904900  0.72773800  0.22332300  1
  O  O46  1  0.02007600  0.74505300  0.90512200  1
  O  O47  1  0.97992400  0.74505300  0.40512200  1
  O  O48  1  0.50873500  0.76455900  0.90631300  1
  O  O49  1  0.49126500  0.76455900  0.40631300  1
  O  O50  1  0.24390600  0.77274300  0.22115400  1
  O  O51  1  0.75609400  0.77274300  0.72115400  1
  O  O52  1  0.27943300  0.79963900  0.50999900  1
  O  O53  1  0.72056700  0.79963900  0.00999900  1
  O  O54  1  0.52357100  0.81515500  0.58189700  1
  O  O55  1  0.47642900  0.81515500  0.08189700  1
  O  O56  1  0.01805600  0.92075200  0.22418600  1
  O  O57  1  0.98194400  0.92075200  0.72418600  1
  O  O58  1  0.21621200  0.97870200  0.32768200  1
  O  O59  1  0.78378800  0.97870200  0.82768200  1
  O  O60  1  0.74670100  0.98210600  0.34954300  1
  O  O61  1  0.25329900  0.98210600  0.84954300  1
  O  O62  1  0.55149200  0.00277500  0.97847300  1
  O  O63  1  0.44850800  0.00277500  0.47847300  1
loop_
_geom_bond_atom_site_label_1
_geom_bond_atom_site_label_2
_geom_bond_distance
_geom_bond_site_symmetry_2
Li0 O16 1.996820 1_555
Li0 O2 2.031434 1_555
Li0 O7 2.164086 1_555
Li0 O63 2.216134 1_555
Li0 O54 2.230192 1_545
Li0 O4 2.365533 1_555
Li1 O17 1.996820 1_555
Li1 O3 2.031434 1_555
Li1 O6 2.164086 1_555
Li1 O62 2.216134 1_554
Li1 O55 2.230192 1_545
Li1 O5 2.365533 1_555
Li2 O14 1.994953 1_555
Li2 O28 2.011839 1_555
Li2 O24 2.143289 1_455
Li2 O33 2.226245 1_455
Li2 O40 2.243161 1_555
Li2 O27 2.386975 1_455
Li3 O15 1.994953 1_555
Li3 O29 2.011839 1_555
Li3 O25 2.143289 1_655
Li3 O32 2.226245 1_654
Li3 O41 2.243161 1_555
Li3 O26 2.386975 1_655
Li4 O48 1.973447 1_555
Li4 O61 2.039864 1_555
Li4 O42 2.095251 1_556
Li4 O44 2.120795 1_555
Li4 O36 2.357585 1_555
Li4 O46 2.563575 1_555
Li5 O49 1.973447 1_555
Li5 O60 2.039864 1_555
Li5 O43 2.095251 1_555
Li5 O45 2.120795 1_555
Li5 O37 2.357585 1_555
Li5 O47 2.563575 1_555
Li6 O47 2.025241 1_555
Li6 O60 2.109257 1_555
Li6 O56 2.123169 1_655
Li6 O9 2.184468 1_565
Li6 O0 2.205314 1_665
Li6 O58 2.285640 1_655
Li7 O46 2.025241 1_555
Li7 O61 2.109257 1_555
Li7 O57 2.123169 1_455
Li7 O8 2.184468 1_565
Li7 O1 2.205314 1_466
Li7 O59 2.285640 1_455
Ni0 O22 2.018793 1_555
Ni0 O10 2.048401 1_555
Ni0 O62 2.050242 1_555
Ni0 O7 2.072117 1_555
Ni0 O59 2.073967 1_545
Ni0 O18 2.079426 1_555
Ni1 O23 2.018793 1_555
Ni1 O11 2.048401 1_555
Ni1 O63 2.050242 1_555
Ni1 O6 2.072117 1_555
Ni1 O58 2.073967 1_545
Ni1 O19 2.079426 1_555
Ni2 O8 2.028952 1_555
Ni2 O21 2.034857 1_555
Ni2 O36 2.066084 1_555
Ni2 O32 2.067539 1_555
Ni2 O24 2.074975 1_455
Ni2 O13 2.082701 1_555
Ni3 O9 2.028952 1_555
Ni3 O20 2.034857 1_555
Ni3 O37 2.066084 1_555
Ni3 O33 2.067539 1_555
Ni3 O25 2.074975 1_655
Ni3 O12 2.082701 1_555
Ni4 O54 2.034144 1_555
Ni4 O38 2.057296 1_555
Ni4 O30 2.062350 1_555
Ni4 O43 2.066543 1_555
Ni4 O27 2.068053 1_555
Ni4 O51 2.084324 1_555
Ni5 O55 2.034144 1_555
Ni5 O39 2.057296 1_555
Ni5 O31 2.062350 1_555
Ni5 O42 2.066543 1_555
Ni5 O26 2.068053 1_555
Ni5 O50 2.084324 1_555
Ni6 O40 2.039802 1_555
Ni6 O52 2.066166 1_555
Ni6 O0 2.067171 1_565
Ni6 O4 2.074811 1_565
Ni6 O57 2.098793 1_455
Ni6 O44 2.114852 1_555
Ni7 O41 2.039802 1_555
Ni7 O53 2.066166 1_555
Ni7 O1 2.067171 1_565
Ni7 O5 2.074811 1_565
Ni7 O56 2.098793 1_655
Ni7 O45 2.114852 1_555
O0 S2 1.496274 1_555
O1 S3 1.496274 1_555
O2 S15 1.466102 1_545
O3 S14 1.466102 1_545
O4 S1 1.502817 1_555
O5 S0 1.502817 1_555
O6 S0 1.505368 1_555
O7 S1 1.505368 1_555
O8 S3 1.503335 1_456
O9 S2 1.503335 1_655
O10 S3 1.492077 1_556
O11 S2 1.492077 1_555
O12 S0 1.474434 1_555
O13 S1 1.474434 1_555
O14 S2 1.455400 1_555
O15 S3 1.455400 1_555
O16 S4 1.463839 1_555
O17 S5 1.463839 1_555
O18 S6 1.487713 1_555
O19 S7 1.487713 1_555
O20 S4 1.497446 1_555
O21 S5 1.497446 1_556
O22 S5 1.489266 1_556
O23 S4 1.489266 1_555
O24 S6 1.509760 1_555
O25 S7 1.509760 1_555
O26 S7 1.500150 1_555
O27 S6 1.500150 1_555
O28 S8 1.455234 1_555
O29 S9 1.455234 1_555
O30 S4 1.485345 1_555
O31 S5 1.485345 1_555
O32 S10 1.496958 1_555
O33 S11 1.496958 1_555
O34 S7 1.462828 1_555
O35 S6 1.462828 1_555
O36 S8 1.509492 1_555
O37 S9 1.509492 1_555
O38 S8 1.489804 1_555
O39 S9 1.489804 1_555
O40 S11 1.491912 1_455
O41 S10 1.491912 1_654
O42 S10 1.504520 1_554
O43 S11 1.504520 1_555
O44 S8 1.506110 1_555
O45 S9 1.506110 1_555
O46 S10 1.461174 1_555
O47 S11 1.461174 1_555
O48 S12 1.454616 1_555
O49 S13 1.454616 1_555
O50 S14 1.484698 1_555
O51 S15 1.484698 1_555
O52 S13 1.478264 1_555
O53 S12 1.478264 1_554
O54 S13 1.509655 1_555
O55 S12 1.509655 1_554
O56 S14 1.503777 1_555
O57 S15 1.503777 1_555
O58 S14 1.505228 1_555
O59 S15 1.505228 1_555
O60 S0 1.478757 1_565
O61 S1 1.478757 1_565
O62 S12 1.510545 1_545
O63 S13 1.510545 1_545
