# generated using pymatgen
data_TiNb2O7
_symmetry_space_group_name_H-M   'P 1'
_cell_length_a   10.56787444
_cell_length_b   10.56787444
_cell_length_c   12.16400428
_cell_angle_alpha   60.43366067
_cell_angle_beta   60.43366067
_cell_angle_gamma   20.86925250
_symmetry_Int_Tables_number   1
_chemical_formula_structural   TiNb2O7
_chemical_formula_sum   'Ti3 Nb6 O21'
_cell_volume   418.61921078
_cell_formula_units_Z   3
loop_
 _symmetry_equiv_pos_site_id
 _symmetry_equiv_pos_as_xyz
  1  'x, y, z'
loop_
 _atom_site_type_symbol
 _atom_site_label
 _atom_site_symmetry_multiplicity
 _atom_site_fract_x
 _atom_site_fract_y
 _atom_site_fract_z
 _atom_site_occupancy
  Ti  Ti0  1  0.92097600  0.92097600  0.64140100  1
  Ti  Ti1  1  0.00012900  0.00012900  0.99802600  1
  Ti  Ti2  1  0.70887900  0.70887900  0.36341200  1
  Nb  Nb0  1  0.10662700  0.10662700  0.63192800  1
  Nb  Nb1  1  0.18087300  0.18087300  0.00008200  1
  Nb  Nb2  1  0.29411100  0.29411100  0.63401600  1
  Nb  Nb3  1  0.07703600  0.07703600  0.36794600  1
  Nb  Nb4  1  0.81819300  0.81819300  0.00352800  1
  Nb  Nb5  1  0.89024500  0.89024500  0.36281700  1
  O  O0  1  0.04972700  0.04972700  0.80290300  1
  O  O1  1  0.70816300  0.70816300  0.99654500  1
  O  O2  1  0.87477400  0.87477400  0.81047300  1
  O  O3  1  0.62780500  0.62780500  0.57993400  1
  O  O4  1  0.09923000  0.09923000  0.98410600  1
  O  O5  1  0.79168000  0.79168000  0.38158500  1
  O  O6  1  0.02415900  0.02415900  0.58338100  1
  O  O7  1  0.24913100  0.24913100  0.80760900  1
  O  O8  1  0.50035800  0.50035800  0.99979500  1
  O  O9  1  0.17331000  0.17331000  0.40202900  1
  O  O10  1  0.40268900  0.40268900  0.62372500  1
  O  O11  1  0.59763800  0.59763800  0.37819400  1
  O  O12  1  0.82734600  0.82734600  0.59622400  1
  O  O13  1  0.75025000  0.75025000  0.19589700  1
  O  O14  1  0.97541800  0.97541800  0.41499400  1
  O  O15  1  0.20958300  0.20958300  0.61652000  1
  O  O16  1  0.90153200  0.90153200  0.01532800  1
  O  O17  1  0.37325800  0.37325800  0.41977400  1
  O  O18  1  0.12459500  0.12459500  0.19055200  1
  O  O19  1  0.29070600  0.29070600  0.00367700  1
  O  O20  1  0.95157700  0.95157700  0.19360400  1
loop_
_geom_bond_atom_site_label_1
_geom_bond_atom_site_label_2
_geom_bond_distance
_geom_bond_site_symmetry_2
Nb0 O0 1.804411 1_555
Nb0 O3 1.994429 1_455
Nb0 O3 1.994429 1_545
Nb0 O15 2.052443 1_555
Nb0 O6 2.074360 1_555
Nb0 O9 2.419096 1_555
Nb1 O4 1.802407 1_554
Nb1 O1 1.990598 1_454
Nb1 O1 1.990598 1_544
Nb1 O18 2.004171 1_555
Nb1 O7 2.039898 1_554
Nb1 O19 2.305263 1_555
Nb2 O7 1.830812 1_555
Nb2 O15 1.872865 1_555
Nb2 O12 2.008292 1_455
Nb2 O12 2.008292 1_545
Nb2 O10 2.196789 1_555
Nb2 O17 2.279436 1_555
Nb3 O18 1.868939 1_555
Nb3 O14 1.891065 1_445
Nb3 O11 1.978846 1_455
Nb3 O11 1.978846 1_545
Nb3 O9 2.238101 1_555
Nb3 O6 2.277082 1_555
Nb4 O16 1.808585 1_555
Nb4 O19 1.997184 1_565
Nb4 O19 1.997184 1_655
Nb4 O2 2.031359 1_554
Nb4 O13 2.038112 1_555
Nb4 O1 2.330883 1_554
Nb5 O20 1.796879 1_555
Nb5 O5 1.944306 1_555
Nb5 O17 2.005628 1_565
Nb5 O17 2.005628 1_655
Nb5 O14 2.159806 1_555
Nb5 O12 2.458736 1_555
O0 Ti1 2.059334 1_555
O2 Ti0 1.780440 1_555
O3 Ti2 2.307142 1_555
O4 Ti1 1.980404 1_555
O5 Ti2 1.841982 1_555
O6 Ti0 1.891894 1_445
O8 Ti1 1.914139 1_565
O8 Ti1 1.914139 1_655
O9 Ti2 2.020427 1_545
O9 Ti2 2.020427 1_455
O10 Ti0 1.983953 1_455
O10 Ti0 1.983953 1_545
O11 Ti2 2.227501 1_555
O12 Ti0 2.272210 1_555
O13 Ti2 1.770087 1_555
O14 Ti0 2.395388 1_555
O16 Ti1 1.952370 1_664
O20 Ti1 2.066151 1_664
