# generated using pymatgen
data_LiLa4MnO8
_symmetry_space_group_name_H-M   'P 1'
_cell_length_a   7.65592882
_cell_length_b   12.91039786
_cell_length_c   7.65590403
_cell_angle_alpha   89.99784201
_cell_angle_beta   90.00081322
_cell_angle_gamma   90.00170767
_symmetry_Int_Tables_number   1
_chemical_formula_structural   LiLa4MnO8
_chemical_formula_sum   'Li4 La16 Mn4 O32'
_cell_volume   756.71787510
_cell_formula_units_Z   4
loop_
 _symmetry_equiv_pos_site_id
 _symmetry_equiv_pos_as_xyz
  1  'x, y, z'
loop_
 _atom_site_type_symbol
 _atom_site_label
 _atom_site_symmetry_multiplicity
 _atom_site_fract_x
 _atom_site_fract_y
 _atom_site_fract_z
 _atom_site_occupancy
  Li  Li0  1  0.25000300  0.49999900  0.24999900  1
  Li  Li1  1  0.75000300  0.49999900  0.75000100  1
  Li  Li2  1  0.49999900  0.99999900  0.00000500  1
  Li  Li3  1  0.99999700  0.99999800  0.50000500  1
  La  La0  1  0.25002500  0.13863700  0.25000300  1
  La  La1  1  0.74999100  0.13863100  0.74997600  1
  La  La2  1  0.50000200  0.63862800  0.00000800  1
  La  La3  1  0.99998800  0.63862500  0.50000200  1
  La  La4  1  0.49998600  0.36136900  0.00001900  1
  La  La5  1  0.99999800  0.36136900  0.50001400  1
  La  La6  1  0.74998900  0.86136200  0.75000100  1
  La  La7  1  0.25001600  0.86136200  0.25002400  1
  La  La8  1  0.25003300  0.13695300  0.74995800  1
  La  La9  1  0.75001300  0.13695700  0.24998000  1
  La  La10  1  0.50001600  0.63694700  0.49997100  1
  La  La11  1  0.00002400  0.63694200  0.99996800  1
  La  La12  1  0.99997300  0.36305900  0.00002700  1
  La  La13  1  0.49997600  0.36305600  0.50003200  1
  La  La14  1  0.25000200  0.86304700  0.75001400  1
  La  La15  1  0.74996500  0.86305100  0.25003100  1
  Mn  Mn0  1  0.49999600  0.99999700  0.50002400  1
  Mn  Mn1  1  0.75001200  0.50000600  0.24998700  1
  Mn  Mn2  1  0.99999100  0.99999900  0.00000200  1
  Mn  Mn3  1  0.25000500  0.50000600  0.74998900  1
  O  O0  1  0.49991600  0.18063800  0.50008000  1
  O  O1  1  0.99991500  0.18063800  0.00007800  1
  O  O2  1  0.74991200  0.68063900  0.25008400  1
  O  O3  1  0.24991500  0.68064000  0.75008300  1
  O  O4  1  0.75008200  0.31936200  0.24991600  1
  O  O5  1  0.25008600  0.31935900  0.74991200  1
  O  O6  1  0.00008500  0.81936200  0.99991100  1
  O  O7  1  0.50008500  0.81936100  0.49991100  1
  O  O8  1  0.49996300  0.18223100  0.00002900  1
  O  O9  1  0.99996200  0.18223200  0.50003000  1
  O  O10  1  0.74995900  0.68223500  0.75003100  1
  O  O11  1  0.24996000  0.68223400  0.25003400  1
  O  O12  1  0.25003400  0.31776600  0.24996800  1
  O  O13  1  0.75003100  0.31776600  0.74996900  1
  O  O14  1  0.50003200  0.81776600  0.99996700  1
  O  O15  1  0.00003200  0.81776600  0.49996800  1
  O  O16  1  0.24699600  0.00001100  0.99923500  1
  O  O17  1  0.74700700  0.00001100  0.49923500  1
  O  O18  1  0.49697200  0.50001200  0.74921900  1
  O  O19  1  0.99697500  0.50001300  0.24922200  1
  O  O20  1  0.50076600  0.00001200  0.25299700  1
  O  O21  1  0.00076700  0.00001200  0.75300300  1
  O  O22  1  0.75078400  0.50001300  0.00302500  1
  O  O23  1  0.25078700  0.50001200  0.50302600  1
  O  O24  1  0.24923700  0.49998900  0.99698900  1
  O  O25  1  0.74923200  0.49998900  0.49699200  1
  O  O26  1  0.49921900  0.99998800  0.74698500  1
  O  O27  1  0.99921900  0.99999200  0.24697300  1
  O  O28  1  0.50300800  0.49998700  0.25076200  1
  O  O29  1  0.00300800  0.49998700  0.75076200  1
  O  O30  1  0.75302800  0.99998800  0.00077900  1
  O  O31  1  0.25301600  0.99998700  0.50077900  1
loop_
_geom_bond_atom_site_label_1
_geom_bond_atom_site_label_2
_geom_bond_distance
_geom_bond_site_symmetry_2
Li0 O28 1.936997 1_555
Li0 O24 1.937029 1_554
Li0 O23 1.937160 1_555
Li0 O19 1.937173 1_455
Li0 O12 2.352701 1_555
Li0 O11 2.352726 1_555
Li1 O29 1.936997 1_655
Li1 O25 1.937022 1_555
Li1 O22 1.937137 1_556
Li1 O18 1.937197 1_555
Li1 O13 2.352701 1_555
Li1 O10 2.352739 1_555
Li2 O20 1.936891 1_565
Li2 O16 1.936982 1_564
Li2 O26 1.937106 1_554
Li2 O30 1.937181 1_555
Li2 O8 2.352688 1_565
Li2 O14 2.352701 1_554
Li3 O17 1.936882 1_565
Li3 O21 1.936937 1_665
Li3 O31 1.937104 1_655
Li3 O27 1.937198 1_555
Li3 O15 2.352688 1_655
Li3 O9 2.352713 1_565
La0 O12 2.312627 1_555
La0 O20 2.624660 1_555
La0 O16 2.624829 1_554
La0 O31 2.624984 1_545
La0 O27 2.625126 1_445
La0 O0 2.760370 1_555
La0 O1 2.760720 1_455
La0 O8 2.764195 1_555
La0 O9 2.765194 1_455
La1 O13 2.312704 1_555
La1 O17 2.624622 1_555
La1 O21 2.624806 1_655
La1 O26 2.624915 1_545
La1 O30 2.625077 1_546
La1 O0 2.760395 1_555
La1 O1 2.760693 1_556
La1 O9 2.764240 1_555
La1 O8 2.765159 1_556
La2 O14 2.312743 1_554
La2 O28 2.624783 1_555
La2 O22 2.624804 1_555
La2 O24 2.624843 1_554
La2 O18 2.624858 1_554
La2 O2 2.760491 1_555
La2 O3 2.760625 1_554
La2 O10 2.764346 1_554
La2 O11 2.765106 1_555
La3 O15 2.312782 1_655
La3 O25 2.624765 1_555
La3 O19 2.624771 1_555
La3 O29 2.624791 1_655
La3 O23 2.624882 1_655
La3 O2 2.760535 1_555
La3 O3 2.760618 1_655
La3 O11 2.764383 1_655
La3 O10 2.765063 1_555
La4 O8 2.312743 1_555
La4 O28 2.624618 1_555
La4 O24 2.624664 1_554
La4 O18 2.625059 1_554
La4 O22 2.625071 1_555
La4 O4 2.760512 1_555
La4 O5 2.760600 1_554
La4 O12 2.764160 1_555
La4 O13 2.765241 1_554
La5 O9 2.312730 1_555
La5 O29 2.624645 1_655
La5 O25 2.624758 1_555
La5 O23 2.625012 1_655
La5 O19 2.625023 1_555
La5 O5 2.760482 1_655
La5 O4 2.760629 1_555
La5 O13 2.764272 1_555
La5 O12 2.765172 1_655
La6 O10 2.312601 1_555
La6 O26 2.624833 1_555
La6 O30 2.624885 1_556
La6 O17 2.624919 1_565
La6 O21 2.625011 1_665
La6 O7 2.760508 1_555
La6 O6 2.760563 1_655
La6 O14 2.764258 1_555
La6 O15 2.765122 1_655
La7 O11 2.312614 1_555
La7 O31 2.624745 1_555
La7 O20 2.624853 1_565
La7 O27 2.625022 1_455
La7 O16 2.625050 1_564
La7 O7 2.760300 1_555
La7 O6 2.760771 1_554
La7 O15 2.764285 1_555
La7 O14 2.765106 1_554
La8 O5 2.354934 1_555
La8 O31 2.601326 1_545
La8 O26 2.601350 1_545
La8 O21 2.601515 1_555
La8 O16 2.601571 1_555
La8 O0 2.763634 1_555
La8 O1 2.766215 1_456
La8 O9 2.769152 1_455
La8 O8 2.769166 1_556
La9 O4 2.354921 1_555
La9 O20 2.601442 1_555
La9 O27 2.601465 1_545
La9 O30 2.601478 1_545
La9 O17 2.601480 1_555
La9 O1 2.763851 1_555
La9 O0 2.765987 1_555
La9 O9 2.769148 1_555
La9 O8 2.769149 1_555
La10 O7 2.355037 1_555
La10 O23 2.601255 1_555
La10 O18 2.601347 1_555
La10 O28 2.601442 1_555
La10 O25 2.601458 1_555
La10 O2 2.763769 1_555
La10 O3 2.766103 1_555
La10 O11 2.769142 1_555
La10 O10 2.769204 1_555
La11 O6 2.355115 1_555
La11 O22 2.601265 1_456
La11 O19 2.601328 1_456
La11 O29 2.601381 1_555
La11 O24 2.601397 1_555
La11 O3 2.763748 1_555
La11 O2 2.766193 1_456
La11 O10 2.769206 1_455
La11 O11 2.769210 1_556
La12 O1 2.355128 1_555
La12 O22 2.601272 1_555
La12 O19 2.601311 1_555
La12 O29 2.601380 1_654
La12 O24 2.601407 1_654
La12 O4 2.763766 1_555
La12 O5 2.766201 1_654
La12 O13 2.769202 1_554
La12 O12 2.769206 1_655
La13 O0 2.355089 1_555
La13 O18 2.601284 1_555
La13 O23 2.601289 1_555
La13 O25 2.601389 1_555
La13 O28 2.601434 1_555
La13 O5 2.763713 1_555
La13 O4 2.766154 1_555
La13 O13 2.769145 1_555
La13 O12 2.769226 1_555
La14 O3 2.354947 1_555
La14 O26 2.601239 1_555
La14 O31 2.601316 1_555
La14 O16 2.601546 1_565
La14 O21 2.601626 1_565
La14 O6 2.763915 1_555
La14 O7 2.765942 1_555
La14 O14 2.769073 1_555
La14 O15 2.769254 1_555
La15 O2 2.355012 1_555
La15 O20 2.601388 1_565
La15 O30 2.601388 1_555
La15 O17 2.601412 1_565
La15 O27 2.601449 1_555
La15 O7 2.763642 1_555
La15 O6 2.766236 1_654
La15 O14 2.769164 1_554
La15 O15 2.769195 1_655
Mn0 O26 1.890719 1_555
Mn0 O31 1.890870 1_555
Mn0 O17 1.891108 1_565
Mn0 O20 1.891224 1_565
Mn0 O7 2.332083 1_555
Mn0 O0 2.332147 1_565
Mn1 O22 1.890727 1_555
Mn1 O19 1.890740 1_555
Mn1 O28 1.891054 1_555
Mn1 O25 1.891056 1_555
Mn1 O2 2.332044 1_555
Mn1 O4 2.332186 1_555
Mn2 O30 1.890741 1_555
Mn2 O27 1.890796 1_555
Mn2 O21 1.891010 1_664
Mn2 O16 1.891062 1_664
Mn2 O6 2.332096 1_654
Mn2 O1 2.332122 1_565
Mn3 O23 1.890735 1_555
Mn3 O18 1.890771 1_555
Mn3 O29 1.891001 1_555
Mn3 O24 1.891018 1_555
Mn3 O3 2.332057 1_555
Mn3 O5 2.332225 1_555
