# generated using pymatgen
data_Li2AlVO4
_symmetry_space_group_name_H-M   'P 1'
_cell_length_a   5.38816287
_cell_length_b   10.77651946
_cell_length_c   6.42432500
_cell_angle_alpha   89.99992596
_cell_angle_beta   90.00018355
_cell_angle_gamma   88.69121309
_symmetry_Int_Tables_number   1
_chemical_formula_structural   Li2AlVO4
_chemical_formula_sum   'Li8 Al4 V4 O16'
_cell_volume   372.93523867
_cell_formula_units_Z   4
loop_
 _symmetry_equiv_pos_site_id
 _symmetry_equiv_pos_as_xyz
  1  'x, y, z'
loop_
 _atom_site_type_symbol
 _atom_site_label
 _atom_site_symmetry_multiplicity
 _atom_site_fract_x
 _atom_site_fract_y
 _atom_site_fract_z
 _atom_site_occupancy
  Li  Li0  1  0.31783400  0.34111400  0.50001500  1
  Li  Li1  1  0.31786100  0.84105600  0.50000400  1
  Li  Li2  1  0.68214700  0.15894900  0.99998800  1
  Li  Li3  1  0.68216000  0.65888300  0.99999900  1
  Li  Li4  1  0.18825800  0.09413500  0.75000900  1
  Li  Li5  1  0.18820600  0.59408900  0.74999900  1
  Li  Li6  1  0.81178100  0.40589500  0.24999600  1
  Li  Li7  1  0.81175000  0.90587700  0.25001300  1
  Al  Al0  1  0.32523000  0.33746800  0.99996900  1
  Al  Al1  1  0.32515500  0.83734800  0.00001000  1
  Al  Al2  1  0.67486600  0.16268200  0.50001900  1
  Al  Al3  1  0.67478600  0.66252300  0.50001600  1
  V  V0  1  0.17613300  0.58805200  0.25002700  1
  V  V1  1  0.82386200  0.41190400  0.75001400  1
  V  V2  1  0.17615500  0.08808600  0.24998400  1
  V  V3  1  0.82387000  0.91196100  0.74998800  1
  O  O0  1  0.19592100  0.40744300  0.22719000  1
  O  O1  1  0.19590200  0.90742200  0.22719700  1
  O  O2  1  0.18518500  0.40205900  0.77282500  1
  O  O3  1  0.18512800  0.90204500  0.77279900  1
  O  O4  1  0.80414100  0.09255400  0.72723800  1
  O  O5  1  0.80404400  0.59260800  0.72714300  1
  O  O6  1  0.81489900  0.09799200  0.27280700  1
  O  O7  1  0.81481400  0.59790600  0.27281700  1
  O  O8  1  0.29723900  0.17238500  0.00856700  1
  O  O9  1  0.29719800  0.67241600  0.00847900  1
  O  O10  1  0.65504200  0.35144900  0.99150500  1
  O  O11  1  0.65523200  0.85136300  0.99144300  1
  O  O12  1  0.34477000  0.14865100  0.49143100  1
  O  O13  1  0.34484100  0.64855000  0.49149200  1
  O  O14  1  0.70278000  0.32754900  0.50844700  1
  O  O15  1  0.70281100  0.82758600  0.50857100  1
loop_
_geom_bond_atom_site_label_1
_geom_bond_atom_site_label_2
_geom_bond_distance
_geom_bond_site_symmetry_2
Li0 O2 1.998110 1_555
Li0 O0 1.998246 1_555
Li0 O12 2.076576 1_555
Li0 O14 2.076670 1_555
Li1 O3 1.998336 1_555
Li1 O1 1.998364 1_555
Li1 O15 2.076666 1_555
Li1 O13 2.077037 1_555
Li2 O4 1.998218 1_555
Li2 O6 1.998391 1_556
Li2 O8 2.076425 1_556
Li2 O10 2.076999 1_555
Li3 O5 1.998173 1_555
Li3 O7 1.998269 1_556
Li3 O9 2.076748 1_556
Li3 O11 2.076752 1_555
Li4 O8 1.958991 1_556
Li4 O12 1.959212 1_555
Li4 O4 2.075306 1_455
Li4 O3 2.075685 1_545
Li5 O13 1.958932 1_555
Li5 O9 1.958947 1_556
Li5 O2 2.075039 1_555
Li5 O5 2.075553 1_455
Li6 O14 1.958895 1_555
Li6 O10 1.959036 1_554
Li6 O7 2.074834 1_555
Li6 O0 2.075435 1_655
Li7 O15 1.959115 1_555
Li7 O11 1.959172 1_554
Li7 O1 2.075504 1_655
Li7 O6 2.075959 1_565
Al0 O2 1.777443 1_555
Al0 O0 1.777905 1_556
Al0 O10 1.787709 1_555
Al0 O8 1.789684 1_556
Al1 O1 1.778053 1_555
Al1 O3 1.778193 1_554
Al1 O9 1.788018 1_555
Al1 O11 1.789191 1_554
Al2 O6 1.778188 1_555
Al2 O4 1.778504 1_555
Al2 O14 1.787288 1_555
Al2 O12 1.789315 1_555
Al3 O5 1.777030 1_555
Al3 O7 1.777808 1_555
Al3 O13 1.788425 1_555
Al3 O15 1.789480 1_555
O0 V0 1.952342 1_555
O1 V2 1.952901 1_565
O2 V1 1.952840 1_455
O3 V3 1.952516 1_455
O4 V3 1.952118 1_545
O5 V1 1.953382 1_555
O6 V2 1.952509 1_655
O7 V0 1.952813 1_655
O8 V2 1.919226 1_555
O9 V0 1.920208 1_555
O10 V1 1.919855 1_555
O11 V3 1.919736 1_555
O12 V2 1.919507 1_555
O13 V0 1.919588 1_555
O14 V1 1.920290 1_555
O15 V3 1.919572 1_555
