# generated using pymatgen
data_LiZn(FeO2)4
_symmetry_space_group_name_H-M   'P 1'
_cell_length_a   5.98680442
_cell_length_b   5.98680442
_cell_length_c   6.01347204
_cell_angle_alpha   60.14658884
_cell_angle_beta   60.14658884
_cell_angle_gamma   60.00000000
_symmetry_Int_Tables_number   1
_chemical_formula_structural   LiZn(FeO2)4
_chemical_formula_sum   'Li1 Zn1 Fe4 O8'
_cell_volume   152.74224012
_cell_formula_units_Z   1
loop_
 _symmetry_equiv_pos_site_id
 _symmetry_equiv_pos_as_xyz
  1  'x, y, z'
loop_
 _atom_site_type_symbol
 _atom_site_label
 _atom_site_symmetry_multiplicity
 _atom_site_fract_x
 _atom_site_fract_y
 _atom_site_fract_z
 _atom_site_occupancy
  Li  Li0  1  0.00155200  0.00155200  0.99534500  1
  Zn  Zn0  1  0.62766400  0.62766400  0.11700600  1
  Fe  Fe0  1  0.24782500  0.24782500  0.25652500  1
  Fe  Fe1  1  0.62759800  0.11595000  0.62885400  1
  Fe  Fe2  1  0.11595000  0.62759800  0.62885400  1
  Fe  Fe3  1  0.62759800  0.62759800  0.62885400  1
  O  O0  1  0.85291300  0.37713800  0.39281100  1
  O  O1  1  0.37713800  0.37713800  0.39281100  1
  O  O2  1  0.37713800  0.85291300  0.39281100  1
  O  O3  1  0.37919000  0.37919000  0.86243000  1
  O  O4  1  0.87192500  0.40594700  0.85020300  1
  O  O5  1  0.86563700  0.86563700  0.40308700  1
  O  O6  1  0.40594700  0.87192500  0.85020300  1
  O  O7  1  0.87192500  0.87192500  0.85020300  1
loop_
_geom_bond_atom_site_label_1
_geom_bond_atom_site_label_2
_geom_bond_distance
_geom_bond_site_symmetry_2
Li0 O6 1.979197 1_545
Li0 O4 1.979197 1_455
Li0 O7 1.979202 1_445
Li0 O5 2.006429 1_446
Fe0 O0 1.932100 1_455
Fe0 O1 1.932100 1_555
Fe0 O2 1.932100 1_545
Fe0 O3 1.939275 1_554
Fe1 O7 1.977655 1_545
Fe1 O6 1.977655 1_545
Fe1 O5 2.020773 1_545
Fe1 O1 2.067084 1_555
Fe1 O0 2.067084 1_555
Fe1 O3 2.109193 1_555
Fe2 O7 1.977655 1_455
Fe2 O4 1.977655 1_455
Fe2 O5 2.020773 1_455
Fe2 O1 2.067084 1_555
Fe2 O2 2.067084 1_555
Fe2 O3 2.109193 1_555
Fe3 O6 1.977655 1_555
Fe3 O4 1.977655 1_555
Fe3 O5 2.020765 1_555
Fe3 O2 2.067084 1_555
Fe3 O0 2.067084 1_555
Fe3 O3 2.109193 1_555
O0 Zn0 2.132225 1_555
O1 Zn0 2.132217 1_555
O2 Zn0 2.132225 1_555
O4 Zn0 2.077944 1_556
O6 Zn0 2.077944 1_556
O7 Zn0 2.077952 1_556
