# generated using pymatgen
data_ZnFe2As2(HO5)2
_symmetry_space_group_name_H-M   'P 1'
_cell_length_a   7.81126900
_cell_length_b   6.75200100
_cell_length_c   9.95443304
_cell_angle_alpha   48.68045577
_cell_angle_beta   90.00000000
_cell_angle_gamma   90.00000000
_symmetry_Int_Tables_number   1
_chemical_formula_structural   ZnFe2As2(HO5)2
_chemical_formula_sum   'Zn2 Fe4 As4 H4 O20'
_cell_volume   394.30572790
_cell_formula_units_Z   2
loop_
 _symmetry_equiv_pos_site_id
 _symmetry_equiv_pos_as_xyz
  1  'x, y, z'
loop_
 _atom_site_type_symbol
 _atom_site_label
 _atom_site_symmetry_multiplicity
 _atom_site_fract_x
 _atom_site_fract_y
 _atom_site_fract_z
 _atom_site_occupancy
  Zn  Zn0  1  0.00000000  0.50000000  0.50000000  1
  Zn  Zn1  1  0.50000000  0.50000000  0.00000000  1
  Fe  Fe0  1  0.36278100  0.96621000  0.26362000  1
  Fe  Fe1  1  0.86278100  0.03379000  0.23638000  1
  Fe  Fe2  1  0.13721900  0.96621000  0.76362000  1
  Fe  Fe3  1  0.63721900  0.03379000  0.73638000  1
  As  As0  1  0.62571000  0.60913000  0.63268800  1
  As  As1  1  0.12571000  0.39087000  0.86731200  1
  As  As2  1  0.87429000  0.60913000  0.13268800  1
  As  As3  1  0.37429000  0.39087000  0.36731200  1
  H  H0  1  0.61874400  0.10701700  0.04753700  1
  H  H1  1  0.11874400  0.89298300  0.45246300  1
  H  H2  1  0.88125600  0.10701700  0.54753700  1
  H  H3  1  0.38125600  0.89298300  0.95246300  1
  O  O0  1  0.11859300  0.29365400  0.74502600  1
  O  O1  1  0.63413200  0.27065700  0.78736200  1
  O  O2  1  0.44532600  0.71748500  0.50574400  1
  O  O3  1  0.80962900  0.72767400  0.50468500  1
  O  O4  1  0.30962900  0.27232600  0.99531500  1
  O  O5  1  0.11516100  0.88602800  0.35682200  1
  O  O6  1  0.94532600  0.28251500  0.99425600  1
  O  O7  1  0.61516100  0.11397200  0.14317800  1
  O  O8  1  0.13413200  0.72934300  0.71263800  1
  O  O9  1  0.61859300  0.70634600  0.75497400  1
  O  O10  1  0.38140700  0.29365400  0.24502600  1
  O  O11  1  0.86586800  0.27065700  0.28736200  1
  O  O12  1  0.38483900  0.88602800  0.85682200  1
  O  O13  1  0.05467400  0.71748500  0.00574400  1
  O  O14  1  0.88483900  0.11397200  0.64317800  1
  O  O15  1  0.69037100  0.72767400  0.00468500  1
  O  O16  1  0.19037100  0.27232600  0.49531500  1
  O  O17  1  0.55467400  0.28251500  0.49425600  1
  O  O18  1  0.36586800  0.72934300  0.21263800  1
  O  O19  1  0.88140700  0.70634600  0.25497400  1
loop_
_geom_bond_atom_site_label_1
_geom_bond_atom_site_label_2
_geom_bond_distance
_geom_bond_site_symmetry_2
Fe0 O2 1.923583 1_555
Fe0 O18 1.971745 1_555
Fe0 O5 2.057139 1_555
Fe0 O4 2.070767 1_564
Fe0 O10 2.098364 1_565
Fe0 O7 2.177090 1_565
Fe1 O6 1.923583 1_554
Fe1 O11 1.971745 1_555
Fe1 O7 2.057139 1_555
Fe1 O3 2.070767 1_545
Fe1 O19 2.098364 1_545
Fe1 O5 2.177090 1_645
Fe2 O13 1.923583 1_556
Fe2 O8 1.971745 1_555
Fe2 O12 2.057139 1_555
Fe2 O16 2.070767 1_565
Fe2 O0 2.098364 1_565
Fe2 O14 2.177090 1_465
Fe3 O17 1.923583 1_555
Fe3 O1 1.971745 1_555
Fe3 O14 2.057139 1_555
Fe3 O15 2.070767 1_546
Fe3 O9 2.098364 1_545
Fe3 O12 2.177090 1_545
As0 O2 1.701945 1_555
As0 O1 1.717938 1_555
As0 O9 1.723623 1_555
As0 O3 1.726674 1_555
As1 O6 1.701945 1_455
As1 O8 1.717938 1_555
As1 O0 1.723623 1_555
As1 O4 1.726674 1_555
As2 O13 1.701945 1_655
As2 O11 1.717938 1_555
As2 O19 1.723623 1_555
As2 O15 1.726674 1_555
As3 O17 1.701945 1_555
As3 O18 1.717938 1_555
As3 O10 1.723623 1_555
As3 O16 1.726674 1_555
H0 O7 0.984088 1_555
H1 O5 0.984088 1_555
H2 O14 0.984088 1_555
H3 O12 0.984088 1_555
O0 Zn0 2.064221 1_555
O3 Zn0 2.161315 1_655
O4 Zn1 2.161315 1_556
O5 Zn0 2.174544 1_555
O7 Zn1 2.174544 1_555
O9 Zn1 2.064221 1_556
O10 Zn1 2.064221 1_555
O12 Zn1 2.174544 1_556
O14 Zn0 2.174544 1_655
O15 Zn1 2.161315 1_555
O16 Zn0 2.161315 1_555
O19 Zn0 2.064221 1_655
