# generated using pymatgen
data_V3(O2F)2
_symmetry_space_group_name_H-M   'P 1'
_cell_length_a   3.08308000
_cell_length_b   4.67009800
_cell_length_c   13.95103000
_cell_angle_alpha   90.00000000
_cell_angle_beta   90.00000000
_cell_angle_gamma   90.00000000
_symmetry_Int_Tables_number   1
_chemical_formula_structural   V3(O2F)2
_chemical_formula_sum   'V6 O8 F4'
_cell_volume   200.87091633
_cell_formula_units_Z   2
loop_
 _symmetry_equiv_pos_site_id
 _symmetry_equiv_pos_as_xyz
  1  'x, y, z'
loop_
 _atom_site_type_symbol
 _atom_site_label
 _atom_site_symmetry_multiplicity
 _atom_site_fract_x
 _atom_site_fract_y
 _atom_site_fract_z
 _atom_site_occupancy
  V  V0  1  0.50000000  0.69637800  0.00777200  1
  V  V1  1  0.50000000  0.74883300  0.33280700  1
  V  V2  1  0.50000000  0.80622300  0.66006500  1
  V  V3  1  0.00000000  0.19377700  0.16006500  1
  V  V4  1  0.00000000  0.30362200  0.50777200  1
  V  V5  1  0.00000000  0.25116700  0.83280700  1
  O  O0  1  0.00000000  0.93357800  0.26819900  1
  O  O1  1  0.00000000  0.99525400  0.59457000  1
  O  O2  1  0.50000000  0.06642200  0.76819900  1
  O  O3  1  0.50000000  0.00474600  0.09457000  1
  O  O4  1  0.50000000  0.47889100  0.56663900  1
  O  O5  1  0.50000000  0.44585100  0.90359000  1
  O  O6  1  0.00000000  0.52110900  0.06663900  1
  O  O7  1  0.00000000  0.55414900  0.40359000  1
  F  F0  1  0.00000000  0.92170700  0.93612800  1
  F  F1  1  0.50000000  0.07829300  0.43612800  1
  F  F2  1  0.50000000  0.42163000  0.23038800  1
  F  F3  1  0.00000000  0.57837000  0.73038800  1
loop_
_geom_bond_atom_site_label_1
_geom_bond_atom_site_label_2
_geom_bond_distance
_geom_bond_site_symmetry_2
O0 V3 1.937116 1_565
O0 V1 1.983219 1_555
O0 V1 1.983219 1_455
O1 V4 1.881554 1_565
O1 V2 1.997638 1_455
O1 V2 1.997638 1_555
O2 V2 1.937116 1_545
O2 V5 1.983219 1_655
O2 V5 1.983219 1_555
O3 V0 1.881554 1_545
O3 V3 1.997638 1_655
O3 V3 1.997638 1_555
O4 V4 1.928934 1_555
O4 V4 1.928934 1_655
O4 V2 2.008896 1_555
O5 V0 1.865844 1_556
O5 V5 2.044046 1_655
O5 V5 2.044046 1_555
O6 V0 1.928934 1_555
O6 V0 1.928934 1_455
O6 V3 2.008896 1_555
O7 V4 1.865844 1_555
O7 V1 2.044046 1_555
O7 V1 2.044046 1_455
F0 V5 2.108330 1_565
F0 V0 2.117242 1_456
F0 V0 2.117242 1_556
F1 V1 2.108330 1_545
F1 V4 2.117242 1_555
F1 V4 2.117242 1_655
F2 V1 2.092035 1_555
F2 V3 2.114512 1_655
F2 V3 2.114512 1_555
F3 V5 2.092035 1_555
F3 V2 2.114512 1_455
F3 V2 2.114512 1_555
