# generated using pymatgen
data_Hf2N2O
_symmetry_space_group_name_H-M   'P 1'
_cell_length_a   8.65493571
_cell_length_b   8.66826430
_cell_length_c   8.67608579
_cell_angle_alpha   109.27070322
_cell_angle_beta   109.52923704
_cell_angle_gamma   109.38542402
_symmetry_Int_Tables_number   1
_chemical_formula_structural   Hf2N2O
_chemical_formula_sum   'Hf16 N16 O8'
_cell_volume   502.47434120
_cell_formula_units_Z   8
loop_
 _symmetry_equiv_pos_site_id
 _symmetry_equiv_pos_as_xyz
  1  'x, y, z'
loop_
 _atom_site_type_symbol
 _atom_site_label
 _atom_site_symmetry_multiplicity
 _atom_site_fract_x
 _atom_site_fract_y
 _atom_site_fract_z
 _atom_site_occupancy
  Hf  Hf0  1  0.97100732  0.74865342  0.72545473  1
  Hf  Hf1  1  0.50118682  0.50836407  0.51059610  1
  Hf  Hf2  1  0.78084789  0.53129692  0.24438811  1
  Hf  Hf3  1  0.71324521  0.96383454  0.74871954  1
  Hf  Hf4  1  0.25878554  0.21826272  0.96172694  1
  Hf  Hf5  1  0.24977811  0.70703775  0.46399135  1
  Hf  Hf6  1  0.99646673  0.00761152  0.49739815  1
  Hf  Hf7  1  0.53472091  0.25112032  0.78369000  1
  Hf  Hf8  1  0.47297974  0.74761713  0.21435910  1
  Hf  Hf9  1  0.00262512  0.48948379  0.99268552  1
  Hf  Hf10  1  0.74230104  0.78869800  0.02866018  1
  Hf  Hf11  1  0.74879005  0.28165386  0.53935440  1
  Hf  Hf12  1  0.29303646  0.03828958  0.25222020  1
  Hf  Hf13  1  0.21486564  0.46343198  0.75019652  1
  Hf  Hf14  1  0.50192618  0.00014983  0.01140910  1
  Hf  Hf15  1  0.03051406  0.25672891  0.28622699  1
  N  N0  1  0.53799143  0.27643672  0.04749870  1
  N  N1  1  0.99036370  0.46238885  0.23043398  1
  N  N2  1  0.50752015  0.74138569  0.46685105  1
  N  N3  1  0.74227173  0.72351901  0.77185430  1
  N  N4  1  0.22480268  0.95964931  0.96746183  1
  N  N5  1  0.26781820  0.22967102  0.72385814  1
  N  N6  1  0.00872357  0.54313002  0.77117632  1
  N  N7  1  0.48902095  0.26491423  0.53355473  1
  N  N8  1  0.73274006  0.76002594  0.27137327  1
  N  N9  1  0.46594993  0.72655895  0.94991981  1
  N  N10  1  0.77396414  0.22590811  0.76469906  1
  N  N11  1  0.23898996  0.46454016  0.01734462  1
  N  N12  1  0.95006043  0.22158337  0.48205114  1
  N  N13  1  0.54228394  0.03051217  0.27210107  1
  N  N14  1  0.27389451  0.51238302  0.54449188  1
  N  N15  1  0.77393822  0.04511064  0.03270451  1
  O  O0  1  0.44945017  0.96607499  0.72400458  1
  O  O1  1  0.05052360  0.77589779  0.52084066  1
  O  O2  1  0.04071618  0.99063669  0.26694037  1
  O  O3  1  0.72936158  0.49203741  0.45172890  1
  O  O4  1  0.25864661  0.26966324  0.22813697  1
  O  O5  1  0.95901944  0.00679850  0.72862987  1
  O  O6  1  0.21885425  0.77564880  0.23612863  1
  O  O7  1  0.76001975  0.53329002  0.98514068  1
loop_
_geom_bond_atom_site_label_1
_geom_bond_atom_site_label_2
_geom_bond_distance
_geom_bond_site_symmetry_2
Hf0 N6 2.050298 1_655
Hf0 N4 2.072056 1_655
Hf0 N3 2.105493 1_555
Hf0 O1 2.160226 1_655
Hf0 O3 2.250806 1_555
Hf0 O5 2.265841 1_565
Hf1 N14 2.093583 1_555
Hf1 N3 2.105748 1_555
Hf1 N7 2.155934 1_555
Hf1 N2 2.161816 1_555
Hf1 O3 2.234509 1_555
Hf1 O4 2.241368 1_555
Hf2 N0 2.059741 1_555
Hf2 O3 2.095185 1_555
Hf2 N8 2.113294 1_555
Hf2 N1 2.116067 1_555
Hf2 O7 2.201946 1_554
Hf2 O1 2.304635 1_655
Hf3 N10 2.099286 1_565
Hf3 O5 2.111569 1_565
Hf3 N2 2.136831 1_555
Hf3 N15 2.141546 1_566
Hf3 O0 2.227982 1_555
Hf3 N3 2.243315 1_555
Hf4 N0 2.094914 1_556
Hf4 N11 2.106582 1_556
Hf4 N5 2.124261 1_555
Hf4 N4 2.181753 1_545
Hf4 O4 2.205339 1_556
Hf4 O5 2.251500 1_455
Hf5 N14 2.071862 1_555
Hf5 N2 2.140720 1_555
Hf5 O0 2.142777 1_555
Hf5 N1 2.146015 1_455
Hf5 O1 2.152041 1_555
Hf5 O6 2.204927 1_555
Hf6 N12 2.059366 1_555
Hf6 N5 2.121025 1_655
Hf6 O2 2.126354 1_645
Hf6 O5 2.138319 1_555
Hf6 N8 2.153829 1_545
Hf6 O1 2.263716 1_645
Hf7 N5 2.118894 1_555
Hf7 N7 2.123504 1_555
Hf7 O7 2.138492 1_555
Hf7 O0 2.146468 1_545
Hf7 N10 2.206168 1_555
Hf7 N0 2.215561 1_556
Hf8 N8 2.090820 1_555
Hf8 N2 2.131240 1_555
Hf8 N13 2.153106 1_565
Hf8 N11 2.159259 1_555
Hf8 N9 2.218940 1_554
Hf8 O6 2.352547 1_555
Hf9 N11 2.075826 1_556
Hf9 N10 2.108888 1_455
Hf9 N6 2.133984 1_555
Hf9 N1 2.184226 1_456
Hf9 O6 2.221241 1_556
Hf9 O7 2.238563 1_455
Hf10 N9 2.070504 1_554
Hf10 N3 2.110006 1_554
Hf10 N15 2.134121 1_565
Hf10 O7 2.186311 1_554
Hf10 N8 2.225155 1_555
Hf10 O2 2.246990 1_655
Hf11 N10 2.124173 1_555
Hf11 N12 2.136143 1_555
Hf11 N13 2.150472 1_555
Hf11 N7 2.186629 1_555
Hf11 N6 2.196484 1_655
Hf11 O3 2.228277 1_555
Hf12 O6 2.091586 1_545
Hf12 N13 2.131512 1_555
Hf12 N7 2.132846 1_555
Hf12 N4 2.136093 1_544
Hf12 O2 2.139731 1_545
Hf12 O4 2.187699 1_555
Hf13 N9 2.123828 1_555
Hf13 N14 2.142850 1_555
Hf13 N6 2.155441 1_555
Hf13 N5 2.179225 1_555
Hf13 N11 2.253065 1_556
Hf13 N12 2.255297 1_455
Hf14 N13 2.079618 1_555
Hf14 N9 2.137633 1_544
Hf14 N4 2.182340 1_544
Hf14 N15 2.186566 1_555
Hf14 N0 2.207843 1_555
Hf14 O0 2.275724 1_544
Hf15 N1 2.097982 1_455
Hf15 N12 2.110926 1_455
Hf15 N15 2.121622 1_455
Hf15 O4 2.172735 1_555
Hf15 N14 2.199281 1_555
Hf15 O2 2.290486 1_545
