# generated using pymatgen
data_Mn(PO3)3
_symmetry_space_group_name_H-M   'P 1'
_cell_length_a   9.52859500
_cell_length_b   9.55035053
_cell_length_c   9.58962215
_cell_angle_alpha   106.76916665
_cell_angle_beta   106.18513485
_cell_angle_gamma   111.67785355
_symmetry_Int_Tables_number   1
_chemical_formula_structural   Mn(PO3)3
_chemical_formula_sum   'Mn4 P12 O36'
_cell_volume   699.87877034
_cell_formula_units_Z   4
loop_
 _symmetry_equiv_pos_site_id
 _symmetry_equiv_pos_as_xyz
  1  'x, y, z'
loop_
 _atom_site_type_symbol
 _atom_site_label
 _atom_site_symmetry_multiplicity
 _atom_site_fract_x
 _atom_site_fract_y
 _atom_site_fract_z
 _atom_site_occupancy
  Mn  Mn0  1  0.11205900  0.29336200  0.20805400  1
  Mn  Mn1  1  0.26529300  0.76835800  0.71764000  1
  Mn  Mn2  1  0.73470700  0.23164200  0.28236000  1
  Mn  Mn3  1  0.88794100  0.70663800  0.79194600  1
  P  P0  1  0.99290500  0.60764800  0.35370600  1
  P  P1  1  0.18197300  0.08774900  0.91957200  1
  P  P2  1  0.81802700  0.91225100  0.08042800  1
  P  P3  1  0.42968700  0.67070900  0.30561300  1
  P  P4  1  0.30674000  0.42986500  0.59190200  1
  P  P5  1  0.05614100  0.79546200  0.16682200  1
  P  P6  1  0.48822800  0.84699600  0.09803100  1
  P  P7  1  0.69326000  0.57013500  0.40809800  1
  P  P8  1  0.57031300  0.32929100  0.69438700  1
  P  P9  1  0.00709500  0.39235200  0.64629400  1
  P  P10  1  0.51177200  0.15300400  0.90196900  1
  P  P11  1  0.94385900  0.20453800  0.83317800  1
  O  O0  1  0.10173100  0.90075400  0.80951100  1
  O  O1  1  0.15053200  0.34987000  0.63311600  1
  O  O2  1  0.73537600  0.48266100  0.74690700  1
  O  O3  1  0.00316100  0.37472600  0.80361500  1
  O  O4  1  0.40022600  0.69903200  0.13876300  1
  O  O5  1  0.84502200  0.26262400  0.49920200  1
  O  O6  1  0.05638900  0.57437700  0.67995000  1
  O  O7  1  0.49543100  0.82323000  0.44976600  1
  O  O8  1  0.81251900  0.86250400  0.91528500  1
  O  O9  1  0.36137400  0.81822700  0.94298300  1
  O  O10  1  0.74768000  0.67795400  0.58420700  1
  O  O11  1  0.90136900  0.82924200  0.17412200  1
  O  O12  1  0.36754700  0.18425100  0.93504500  1
  O  O13  1  0.63862600  0.18177300  0.05701700  1
  O  O14  1  0.09863100  0.17075800  0.82587800  1
  O  O15  1  0.15497800  0.73737600  0.50079800  1
  O  O16  1  0.21962400  0.93068000  0.29287700  1
  O  O17  1  0.56635700  0.01596200  0.23934600  1
  O  O18  1  0.63481600  0.38674100  0.35123100  1
  O  O19  1  0.36518400  0.61325900  0.64876900  1
  O  O20  1  0.43646400  0.39835100  0.70425400  1
  O  O21  1  0.02861600  0.72927400  0.99100100  1
  O  O22  1  0.18748100  0.13749600  0.08471500  1
  O  O23  1  0.26462400  0.51733900  0.25309300  1
  O  O24  1  0.50456900  0.17677000  0.55023400  1
  O  O25  1  0.99683900  0.62527400  0.19638500  1
  O  O26  1  0.25232000  0.32204600  0.41579300  1
  O  O27  1  0.59977400  0.30096800  0.86123700  1
  O  O28  1  0.97138400  0.27072600  0.00899900  1
  O  O29  1  0.43364300  0.98403800  0.76065400  1
  O  O30  1  0.56353600  0.60164900  0.29574600  1
  O  O31  1  0.63245300  0.81574900  0.06495500  1
  O  O32  1  0.84946800  0.65013000  0.36688400  1
  O  O33  1  0.89826900  0.09924600  0.19048900  1
  O  O34  1  0.78037600  0.06932000  0.70712300  1
  O  O35  1  0.94361100  0.42562300  0.32005000  1
loop_
_geom_bond_atom_site_label_1
_geom_bond_atom_site_label_2
_geom_bond_distance
_geom_bond_site_symmetry_2
Mn0 O28 1.899636 1_455
Mn0 O23 1.922240 1_555
Mn0 O26 1.939122 1_555
Mn0 O22 2.092736 1_555
Mn0 O33 2.110347 1_455
Mn0 O35 2.645992 1_455
Mn1 O29 1.919901 1_555
Mn1 O15 1.926952 1_555
Mn1 O9 1.927641 1_555
Mn1 O6 2.003301 1_555
Mn1 O19 2.088968 1_555
Mn1 O0 2.526350 1_555
Mn2 O17 1.919901 1_555
Mn2 O5 1.926952 1_555
Mn2 O13 1.927641 1_555
Mn2 O35 2.003301 1_555
Mn2 O18 2.088968 1_555
Mn2 O33 2.526350 1_555
Mn3 O21 1.899636 1_655
Mn3 O2 1.922240 1_555
Mn3 O10 1.939122 1_555
Mn3 O8 2.092736 1_555
Mn3 O0 2.110347 1_655
Mn3 O6 2.645992 1_655
O0 P1 1.530228 1_565
O1 P9 1.589011 1_555
O1 P4 1.617846 1_555
O2 P8 1.517767 1_555
O3 P9 1.574538 1_555
O3 P11 1.648675 1_455
O4 P6 1.574256 1_555
O4 P3 1.663580 1_555
O5 P9 1.507731 1_655
O6 P9 1.528179 1_555
O7 P3 1.451322 1_555
O8 P2 1.495839 1_556
O9 P6 1.504749 1_556
O10 P7 1.514981 1_555
O11 P2 1.595227 1_555
O11 P5 1.637042 1_655
O12 P1 1.602814 1_555
O12 P10 1.603003 1_555
O13 P10 1.504749 1_554
O14 P1 1.595227 1_555
O14 P11 1.637042 1_455
O15 P0 1.507731 1_455
O16 P5 1.455616 1_555
O17 P6 1.510915 1_545
O18 P7 1.494708 1_555
O19 P4 1.494708 1_555
O20 P4 1.580768 1_555
O20 P8 1.650240 1_555
O21 P5 1.525500 1_556
O22 P1 1.495839 1_554
O23 P3 1.517767 1_555
O24 P8 1.451322 1_555
O25 P0 1.574538 1_555
O25 P5 1.648675 1_655
O26 P4 1.514981 1_555
O27 P10 1.574256 1_555
O27 P8 1.663580 1_555
O28 P11 1.525500 1_554
O29 P10 1.510915 1_565
O30 P7 1.580768 1_555
O30 P3 1.650240 1_555
O31 P2 1.602814 1_555
O31 P6 1.603003 1_555
O32 P0 1.589011 1_555
O32 P7 1.617846 1_555
O33 P2 1.530228 1_545
O34 P11 1.455616 1_555
O35 P0 1.528179 1_555
