# generated using pymatgen
data_Li2MnO2F
_symmetry_space_group_name_H-M   'P 1'
_cell_length_a   5.14322964
_cell_length_b   5.24363273
_cell_length_c   8.66547824
_cell_angle_alpha   75.84693960
_cell_angle_beta   86.33004391
_cell_angle_gamma   79.17198253
_symmetry_Int_Tables_number   1
_chemical_formula_structural   Li2MnO2F
_chemical_formula_sum   'Li8 Mn4 O8 F4'
_cell_volume   222.53260026
_cell_formula_units_Z   4
loop_
 _symmetry_equiv_pos_site_id
 _symmetry_equiv_pos_as_xyz
  1  'x, y, z'
loop_
 _atom_site_type_symbol
 _atom_site_label
 _atom_site_symmetry_multiplicity
 _atom_site_fract_x
 _atom_site_fract_y
 _atom_site_fract_z
 _atom_site_occupancy
  Li  Li0  1  0.87293500  0.20244600  0.28901900  1
  Li  Li1  1  0.37297800  0.70242600  0.78903700  1
  Li  Li2  1  0.41189400  0.36386700  0.12756000  1
  Li  Li3  1  0.91182100  0.86390300  0.62759700  1
  Li  Li4  1  0.61398800  0.79848100  0.19833500  1
  Li  Li5  1  0.11388400  0.29839800  0.69838200  1
  Li  Li6  1  0.13835700  0.61138700  0.37608700  1
  Li  Li7  1  0.63839900  0.11132700  0.87609700  1
  Mn  Mn0  1  0.85030400  0.54557000  0.94516700  1
  Mn  Mn1  1  0.13803700  0.95401200  0.03958500  1
  Mn  Mn2  1  0.35027600  0.04582100  0.44516300  1
  Mn  Mn3  1  0.63809800  0.45410300  0.53959700  1
  O  O0  1  0.79383400  0.19346800  0.06003000  1
  O  O1  1  0.29369600  0.69359000  0.56002200  1
  O  O2  1  0.48005800  0.74612100  0.00385200  1
  O  O3  1  0.97998800  0.24629600  0.50386600  1
  O  O4  1  0.49160000  0.36927400  0.35609100  1
  O  O5  1  0.99154900  0.86924100  0.85607100  1
  O  O6  1  0.26091900  0.00626200  0.23847600  1
  O  O7  1  0.76089100  0.50628600  0.73845400  1
  F  F0  1  0.98071200  0.57680900  0.16391400  1
  F  F1  1  0.48077200  0.07673400  0.66391600  1
  F  F2  1  0.76870500  0.82889200  0.40064100  1
  F  F3  1  0.26870700  0.32888500  0.90064000  1
loop_
_geom_bond_atom_site_label_1
_geom_bond_atom_site_label_2
_geom_bond_distance
_geom_bond_site_symmetry_2
Li0 O3 2.051898 1_555
Li0 O0 2.064316 1_555
Li0 O4 2.099476 1_555
Li0 O6 2.137576 1_655
Li1 O2 2.051370 1_556
Li1 O1 2.064562 1_555
Li1 O5 2.099756 1_455
Li1 O7 2.137282 1_555
Li2 O4 2.055802 1_555
Li2 O0 2.109204 1_555
Li2 O2 2.110647 1_555
Li2 O6 2.147811 1_555
Li3 O5 2.055244 1_555
Li3 O1 2.108908 1_655
Li3 O3 2.111329 1_565
Li3 O7 2.147641 1_555
Li4 O2 1.958575 1_555
Li4 O6 1.991661 1_565
Li4 O0 2.438380 1_565
Li4 O4 2.499557 1_555
Li5 O3 1.958198 1_455
Li5 O7 1.991435 1_455
Li5 O1 2.439276 1_555
Li5 O5 2.499058 1_445
Li6 O1 1.998241 1_555
Li6 O4 2.035495 1_555
Li6 O3 2.233436 1_455
Li6 O6 2.300729 1_565
Li7 O0 1.998311 1_556
Li7 O5 2.035106 1_545
Li7 O2 2.233796 1_546
Li7 O7 2.301022 1_555
Mn0 O0 1.936401 1_556
Mn0 O5 1.937780 1_555
Mn0 O7 1.945261 1_555
Mn0 O2 2.091855 1_556
Mn1 O2 1.937386 1_555
Mn1 O6 1.969855 1_565
Mn1 O5 1.979640 1_454
Mn1 O0 1.993851 1_465
Mn2 O4 1.936986 1_555
Mn2 O1 1.937138 1_545
Mn2 O6 1.945496 1_555
Mn2 O3 2.091920 1_455
Mn3 O3 1.936658 1_555
Mn3 O7 1.969251 1_555
Mn3 O4 1.979753 1_555
Mn3 O1 1.994680 1_555
F0 Li4 2.066737 1_555
F0 Mn0 2.103730 1_554
F0 Li6 2.116543 1_655
F0 Li0 2.151093 1_555
F0 Mn1 2.274916 1_655
F0 Li2 2.327288 1_655
F1 Li5 2.067479 1_555
F1 Mn2 2.103344 1_555
F1 Li7 2.116594 1_555
F1 Li1 2.150923 1_545
F1 Mn3 2.275612 1_555
F1 Li3 2.326451 1_545
F2 Li4 2.023584 1_555
F2 Li6 2.052514 1_655
F2 Li0 2.112204 1_565
F2 Li3 2.203637 1_555
F2 Mn3 2.235755 1_555
F2 Mn2 2.294064 1_565
F3 Li5 2.023604 1_555
F3 Li7 2.052778 1_555
F3 Li1 2.112194 1_555
F3 Li2 2.203438 1_556
F3 Mn1 2.236220 1_546
F3 Mn0 2.293502 1_455
