# generated using pymatgen
data_Li3Fe8(BO3)8
_symmetry_space_group_name_H-M   'P 1'
_cell_length_a   5.28720400
_cell_length_b   9.07107530
_cell_length_c   11.35973081
_cell_angle_alpha   113.32724798
_cell_angle_beta   102.85652251
_cell_angle_gamma   89.80543182
_symmetry_Int_Tables_number   1
_chemical_formula_structural   Li3Fe8(BO3)8
_chemical_formula_sum   'Li3 Fe8 B8 O24'
_cell_volume   485.55460285
_cell_formula_units_Z   1
loop_
 _symmetry_equiv_pos_site_id
 _symmetry_equiv_pos_as_xyz
  1  'x, y, z'
loop_
 _atom_site_type_symbol
 _atom_site_label
 _atom_site_symmetry_multiplicity
 _atom_site_fract_x
 _atom_site_fract_y
 _atom_site_fract_z
 _atom_site_occupancy
  Li  Li0  1  0.60044600  0.94498500  0.90416900  1
  Li  Li1  1  0.93511400  0.56976300  0.16549800  1
  Li  Li2  1  0.67496300  0.33297600  0.65221500  1
  Fe  Fe0  1  0.40625000  0.73489000  0.12670800  1
  Fe  Fe1  1  0.09838500  0.77451400  0.87566100  1
  Fe  Fe2  1  0.84768300  0.85996600  0.38350100  1
  Fe  Fe3  1  0.65130400  0.65338500  0.62837500  1
  Fe  Fe4  1  0.34929000  0.35356600  0.37294400  1
  Fe  Fe5  1  0.15280900  0.15018400  0.62885300  1
  Fe  Fe6  1  0.90191400  0.21489700  0.13188700  1
  Fe  Fe7  1  0.59367500  0.27406500  0.88015000  1
  B  B0  1  0.65189500  0.98553200  0.63321800  1
  B  B1  1  0.88935700  0.88346600  0.12361600  1
  B  B2  1  0.13853400  0.48227800  0.62495900  1
  B  B3  1  0.40498200  0.40605800  0.13009300  1
  B  B4  1  0.84986100  0.51882100  0.37867400  1
  B  B5  1  0.59444300  0.60397100  0.87183500  1
  B  B6  1  0.35356100  0.02058100  0.37501500  1
  B  B7  1  0.10901200  0.10908200  0.88190300  1
  O  O0  1  0.12057700  0.85017300  0.08544100  1
  O  O1  1  0.47366200  0.87785400  0.32562200  1
  O  O2  1  0.23438700  0.98005700  0.88552800  1
  O  O3  1  0.54755400  0.85945100  0.64850300  1
  O  O4  1  0.85644200  0.96993300  0.57235600  1
  O  O5  1  0.79566400  0.77756000  0.17244900  1
  O  O6  1  0.28087500  0.54001900  0.13183400  1
  O  O7  1  0.02797400  0.62889100  0.66270700  1
  O  O8  1  0.69384500  0.71075000  0.82731700  1
  O  O9  1  0.63165900  0.52556200  0.43097700  1
  O  O10  1  0.92734600  0.64564900  0.35495100  1
  O  O11  1  0.39660900  0.65257600  0.93562200  1
  O  O12  1  0.63499400  0.37475100  0.08338500  1
  O  O13  1  0.38059300  0.47428500  0.58731600  1
  O  O14  1  0.30461600  0.30457100  0.17730100  1
  O  O15  1  0.97645200  0.37908200  0.34313500  1
  O  O16  1  0.69039000  0.45767000  0.85022900  1
  O  O17  1  0.22055200  0.21919500  0.84560800  1
  O  O18  1  0.13177000  0.01370700  0.41849000  1
  O  O19  1  0.45966000  0.16274000  0.38544800  1
  O  O20  1  0.02127300  0.35107500  0.62665800  1
  O  O21  1  0.75271900  0.00269500  0.10602000  1
  O  O22  1  0.55723500  0.13850000  0.67934300  1
  O  O23  1  0.86496900  0.13535200  0.91588800  1
loop_
_geom_bond_atom_site_label_1
_geom_bond_atom_site_label_2
_geom_bond_distance
_geom_bond_site_symmetry_2
Li0 O2 1.938743 1_555
Li0 O8 2.058229 1_555
Li0 O21 2.100152 1_566
Li0 O23 2.169610 1_565
Li1 O6 1.946039 1_655
Li1 O10 1.993264 1_555
Li1 O5 2.000362 1_555
Li1 O12 2.137951 1_555
Li2 O20 1.933959 1_655
Li2 O22 2.029248 1_555
Li2 O16 2.061499 1_555
Li2 O13 2.198451 1_555
Fe0 O0 1.912351 1_555
Fe0 O6 1.916817 1_555
Fe0 O11 1.984793 1_554
Fe0 O5 2.007228 1_555
Fe0 O1 2.058801 1_555
Fe1 O2 1.952870 1_555
Fe1 O11 2.068941 1_555
Fe1 O8 2.108337 1_455
Fe1 O0 2.178197 1_556
Fe1 O7 2.192575 1_555
Fe2 O10 1.902090 1_555
Fe2 O18 1.915338 1_665
Fe2 O4 1.964933 1_555
Fe2 O1 1.967975 1_555
Fe2 O5 2.161255 1_555
Fe3 O3 1.886163 1_555
Fe3 O7 1.971709 1_655
Fe3 O13 2.006037 1_555
Fe3 O9 2.054641 1_555
Fe3 O8 2.066855 1_555
Fe4 O19 1.872974 1_555
Fe4 O15 1.953474 1_455
Fe4 O9 1.964924 1_555
Fe4 O14 2.043882 1_555
Fe4 O13 2.206065 1_555
Fe5 O20 1.955687 1_555
Fe5 O4 2.068692 1_445
Fe5 O22 2.100779 1_555
Fe5 O18 2.189796 1_555
Fe5 O17 2.229642 1_555
Fe6 O21 1.968004 1_555
Fe6 O14 2.156799 1_655
Fe6 O12 2.161171 1_555
Fe6 O15 2.210144 1_555
Fe6 O23 2.228206 1_554
Fe7 O16 1.918942 1_555
Fe7 O17 1.949631 1_555
Fe7 O23 1.984614 1_555
Fe7 O12 2.078205 1_556
Fe7 O22 2.082612 1_555
B0 O3 1.358934 1_555
B0 O4 1.386310 1_555
B0 O22 1.409470 1_565
B1 O21 1.353965 1_565
B1 O0 1.379670 1_655
B1 O5 1.422535 1_555
B2 O20 1.352679 1_555
B2 O7 1.396042 1_555
B2 O13 1.429825 1_555
B3 O6 1.374383 1_555
B3 O14 1.391985 1_555
B3 O12 1.416545 1_555
B4 O10 1.364516 1_555
B4 O15 1.388142 1_555
B4 O9 1.401255 1_555
B5 O16 1.368091 1_555
B5 O11 1.376474 1_555
B5 O8 1.407057 1_555
B6 O19 1.358647 1_555
B6 O18 1.380405 1_555
B6 O1 1.404252 1_545
B7 O2 1.353399 1_545
B7 O17 1.397793 1_555
B7 O23 1.420370 1_455
