# generated using pymatgen
data_Li2CoCu(PO4)2
_symmetry_space_group_name_H-M   'P 1'
_cell_length_a   4.75200917
_cell_length_b   10.03050722
_cell_length_c   6.10195180
_cell_angle_alpha   89.77662605
_cell_angle_beta   90.03269074
_cell_angle_gamma   91.68318498
_symmetry_Int_Tables_number   1
_chemical_formula_structural   Li2CoCu(PO4)2
_chemical_formula_sum   'Li4 Co2 Cu2 P4 O16'
_cell_volume   290.72217813
_cell_formula_units_Z   2
loop_
 _symmetry_equiv_pos_site_id
 _symmetry_equiv_pos_as_xyz
  1  'x, y, z'
loop_
 _atom_site_type_symbol
 _atom_site_label
 _atom_site_symmetry_multiplicity
 _atom_site_fract_x
 _atom_site_fract_y
 _atom_site_fract_z
 _atom_site_occupancy
  Li  Li0  1  0.00027200  0.99887100  0.99911000  1
  Li  Li1  1  0.00107900  0.99862800  0.50058600  1
  Li  Li2  1  0.49868100  0.50205200  0.99971700  1
  Li  Li3  1  0.49870000  0.50125800  0.50031300  1
  Co  Co0  1  0.52856500  0.78124200  0.25034500  1
  Co  Co1  1  0.47957500  0.21842500  0.75007900  1
  Cu  Cu0  1  0.94713300  0.28437800  0.24988400  1
  Cu  Cu1  1  0.05153800  0.71557600  0.75028400  1
  P  P0  1  0.41922200  0.09650300  0.24912200  1
  P  P1  1  0.58094700  0.90097800  0.75028400  1
  P  P2  1  0.92819100  0.40716200  0.75063400  1
  P  P3  1  0.07090700  0.59575200  0.24978700  1
  O  O0  1  0.70365900  0.04679000  0.74961600  1
  O  O1  1  0.30446200  0.94911700  0.24899200  1
  O  O2  1  0.74725900  0.10518100  0.25023100  1
  O  O3  1  0.25302200  0.89497100  0.74947700  1
  O  O4  1  0.25078000  0.40453400  0.74880600  1
  O  O5  1  0.74716800  0.59996900  0.25021900  1
  O  O6  1  0.18023200  0.44972000  0.24974400  1
  O  O7  1  0.81466200  0.55224500  0.75295800  1
  O  O8  1  0.28927000  0.16379900  0.04273300  1
  O  O9  1  0.28905600  0.16317700  0.45471600  1
  O  O10  1  0.70870600  0.83284200  0.54474900  1
  O  O11  1  0.70788200  0.83314400  0.95716200  1
  O  O12  1  0.78044900  0.33754100  0.55011600  1
  O  O13  1  0.78636600  0.33378300  0.95135900  1
  O  O14  1  0.21605200  0.66639300  0.04847800  1
  O  O15  1  0.21616400  0.66596600  0.45050000  1
loop_
_geom_bond_atom_site_label_1
_geom_bond_atom_site_label_2
_geom_bond_distance
_geom_bond_site_symmetry_2
Li0 O8 2.136156 1_566
Li0 O0 2.137074 1_465
Li0 O11 2.150957 1_455
Li0 O1 2.167352 1_556
Li0 O3 2.221930 1_555
Li0 O2 2.240726 1_466
Li1 O9 2.130582 1_565
Li1 O0 2.142029 1_465
Li1 O10 2.151614 1_455
Li1 O1 2.175427 1_555
Li1 O3 2.208997 1_555
Li1 O2 2.234217 1_465
Li2 O4 2.151875 1_555
Li2 O5 2.153354 1_556
Li2 O7 2.174290 1_555
Li2 O14 2.178065 1_556
Li2 O6 2.200653 1_556
Li2 O13 2.223651 1_555
Li3 O4 2.133494 1_555
Li3 O5 2.150560 1_555
Li3 O12 2.169435 1_555
Li3 O15 2.179536 1_555
Li3 O7 2.202483 1_555
Li3 O6 2.202905 1_555
Co0 O1 2.018617 1_555
Co0 O11 2.041085 1_554
Co0 O10 2.051179 1_555
Co0 O5 2.120414 1_555
Co0 O15 2.218714 1_555
Co0 O14 2.226717 1_555
Co1 O0 2.050733 1_555
Co1 O8 2.066902 1_556
Co1 O9 2.086015 1_555
Co1 O4 2.187709 1_555
Co1 O12 2.202455 1_555
Co1 O13 2.209681 1_555
Cu0 O6 1.967117 1_655
Cu0 O2 2.008131 1_555
Cu0 O13 2.039855 1_554
Cu0 O12 2.074143 1_555
Cu0 O9 2.404590 1_655
Cu0 O8 2.415307 1_655
Cu1 O7 1.960308 1_455
Cu1 O3 2.013303 1_555
Cu1 O14 2.044357 1_556
Cu1 O15 2.058504 1_555
Cu1 O10 2.389414 1_455
Cu1 O11 2.403786 1_455
O0 P1 1.558530 1_545
O1 P0 1.560635 1_565
O2 P0 1.558721 1_555
O3 P1 1.557703 1_555
O4 P2 1.533994 1_455
O5 P3 1.540238 1_655
O6 P3 1.568492 1_555
O7 P2 1.566944 1_555
O8 P0 1.562046 1_555
O9 P0 1.560584 1_555
O10 P1 1.562219 1_555
O11 P1 1.561057 1_555
O12 P2 1.566695 1_555
O13 P2 1.568724 1_555
O14 P3 1.565942 1_555
O15 P3 1.565142 1_555
