# generated using pymatgen
data_BaTi8O16
_symmetry_space_group_name_H-M   'P 1'
_cell_length_a   5.97462400
_cell_length_b   7.31568779
_cell_length_c   7.44892937
_cell_angle_alpha   89.42081001
_cell_angle_beta   101.61739917
_cell_angle_gamma   101.84255841
_symmetry_Int_Tables_number   1
_chemical_formula_structural   BaTi8O16
_chemical_formula_sum   'Ba1 Ti8 O16'
_cell_volume   311.95809510
_cell_formula_units_Z   1
loop_
 _symmetry_equiv_pos_site_id
 _symmetry_equiv_pos_as_xyz
  1  'x, y, z'
loop_
 _atom_site_type_symbol
 _atom_site_label
 _atom_site_symmetry_multiplicity
 _atom_site_fract_x
 _atom_site_fract_y
 _atom_site_fract_z
 _atom_site_occupancy
  Ba  Ba0  1  0.02124600  0.99983500  0.00070900  1
  Ti  Ti0  1  0.57707600  0.48195500  0.82021900  1
  Ti  Ti1  1  0.07683400  0.49555600  0.81564300  1
  Ti  Ti2  1  0.66296500  0.17900700  0.47034300  1
  Ti  Ti3  1  0.16914800  0.18720600  0.48618900  1
  Ti  Ti4  1  0.83150200  0.81338400  0.51171700  1
  Ti  Ti5  1  0.33837000  0.82089500  0.53157000  1
  Ti  Ti6  1  0.92261600  0.50284900  0.18447600  1
  Ti  Ti7  1  0.42525000  0.51955800  0.17928100  1
  O  O0  1  0.83014300  0.35463300  0.94563900  1
  O  O1  1  0.32255500  0.35649400  0.94458500  1
  O  O2  1  0.97828800  0.30405600  0.61759900  1
  O  O3  1  0.48470100  0.30622200  0.61374100  1
  O  O4  1  0.85280000  0.03666900  0.35463000  1
  O  O5  1  0.34603500  0.03764000  0.35718200  1
  O  O6  1  0.84062000  0.64303300  0.72054400  1
  O  O7  1  0.34024800  0.63474400  0.71533200  1
  O  O8  1  0.66052300  0.36502300  0.28492100  1
  O  O9  1  0.16228200  0.35700900  0.27917400  1
  O  O10  1  0.14940900  0.96314000  0.64593600  1
  O  O11  1  0.65588500  0.96219000  0.64169900  1
  O  O12  1  0.02373600  0.69604900  0.38254100  1
  O  O13  1  0.51636300  0.69359900  0.38629900  1
  O  O14  1  0.67964300  0.64299600  0.05563900  1
  O  O15  1  0.17281300  0.64625600  0.05439400  1
loop_
_geom_bond_atom_site_label_1
_geom_bond_atom_site_label_2
_geom_bond_distance
_geom_bond_site_symmetry_2
Ba0 O15 2.909551 1_555
Ba0 O10 2.925040 1_554
Ba0 O1 2.928588 1_564
Ba0 O5 2.934650 1_565
Ba0 O0 3.035659 1_464
Ba0 O4 3.038085 1_465
Ba0 O14 3.045592 1_455
Ba0 O11 3.067488 1_454
Ba0 O9 3.215923 1_565
Ba0 O6 3.221830 1_454
O0 Ti0 2.004503 1_555
O0 Ti6 2.010802 1_556
O0 Ti1 2.025787 1_655
O1 Ti0 1.997590 1_555
O1 Ti1 2.034241 1_555
O1 Ti7 2.040976 1_556
O2 Ti1 1.959337 1_655
O2 Ti3 1.963623 1_655
O2 Ti2 2.017404 1_555
O3 Ti0 1.931276 1_555
O3 Ti3 1.958765 1_555
O3 Ti2 2.006637 1_555
O4 Ti4 1.997417 1_545
O4 Ti2 2.002564 1_555
O4 Ti3 2.041323 1_655
O5 Ti2 1.984084 1_555
O5 Ti3 2.035309 1_555
O5 Ti5 2.038693 1_545
O6 Ti1 1.965815 1_655
O6 Ti4 1.982501 1_555
O6 Ti0 2.027501 1_555
O7 Ti5 1.921141 1_555
O7 Ti1 1.967866 1_555
O7 Ti0 2.012005 1_555
O8 Ti2 1.929202 1_555
O8 Ti6 1.958852 1_555
O8 Ti7 2.015440 1_555
O9 Ti3 1.969621 1_555
O9 Ti6 1.972642 1_455
O9 Ti7 2.030357 1_555
O10 Ti5 1.992659 1_555
O10 Ti3 2.013599 1_565
O10 Ti4 2.052001 1_455
O11 Ti5 1.981338 1_555
O11 Ti2 2.024902 1_565
O11 Ti4 2.030458 1_555
O12 Ti4 1.961697 1_455
O12 Ti6 1.967761 1_455
O12 Ti5 2.018807 1_555
O13 Ti7 1.926793 1_555
O13 Ti4 1.953631 1_555
O13 Ti5 2.014806 1_555
O14 Ti7 1.989331 1_555
O14 Ti6 2.027179 1_555
O14 Ti0 2.037486 1_554
O15 Ti7 1.997625 1_555
O15 Ti1 2.019046 1_554
O15 Ti6 2.047733 1_455
