# generated using pymatgen
data_Li24Mn11CrO36
_symmetry_space_group_name_H-M   'P 1'
_cell_length_a   8.66211450
_cell_length_b   8.66211450
_cell_length_c   9.72499424
_cell_angle_alpha   81.69483688
_cell_angle_beta   81.69483688
_cell_angle_gamma   59.87892820
_symmetry_Int_Tables_number   1
_chemical_formula_structural   Li24Mn11CrO36
_chemical_formula_sum   'Li24 Mn11 Cr1 O36'
_cell_volume   622.32573224
_cell_formula_units_Z   1
loop_
 _symmetry_equiv_pos_site_id
 _symmetry_equiv_pos_as_xyz
  1  'x, y, z'
loop_
 _atom_site_type_symbol
 _atom_site_label
 _atom_site_symmetry_multiplicity
 _atom_site_fract_x
 _atom_site_fract_y
 _atom_site_fract_z
 _atom_site_occupancy
  Li  Li0  1  0.83556000  0.00381800  0.25061300  1
  Li  Li1  1  0.75131600  0.24868400  0.00000000  1
  Li  Li2  1  0.66940800  0.16256200  0.74882000  1
  Li  Li3  1  0.58512100  0.08287100  0.49877200  1
  Li  Li4  1  0.51048400  0.32444900  0.24923600  1
  Li  Li5  1  0.49731900  0.00405400  0.25029800  1
  Li  Li6  1  0.33955400  0.16492300  0.75050200  1
  Li  Li7  1  0.32773800  0.50282600  0.75378000  1
  Li  Li8  1  0.25143200  0.74856800  0.50000000  1
  Li  Li9  1  0.16236200  0.34292400  0.24985900  1
  Li  Li10  1  0.17196300  0.66529200  0.25116800  1
  Li  Li11  1  0.08506100  0.58526900  0.99865600  1
  Li  Li12  1  0.00891800  0.83143900  0.74815900  1
  Li  Li13  1  0.99594600  0.50268100  0.74970200  1
  Li  Li14  1  0.99618200  0.16444000  0.74938700  1
  Li  Li15  1  0.91712900  0.41487900  0.50122800  1
  Li  Li16  1  0.83507700  0.66044600  0.24949800  1
  Li  Li17  1  0.83743800  0.33059200  0.25118000  1
  Li  Li18  1  0.67555100  0.48951600  0.75076400  1
  Li  Li19  1  0.65707600  0.83763800  0.75014100  1
  Li  Li20  1  0.49717400  0.67226200  0.24622000  1
  Li  Li21  1  0.41473100  0.91493900  0.00134400  1
  Li  Li22  1  0.33470800  0.82803700  0.74883200  1
  Li  Li23  1  0.16856100  0.99108200  0.25184100  1
  Mn  Mn0  1  0.91860500  0.08139500  0.50000000  1
  Mn  Mn1  1  0.41810500  0.58189500  0.00000000  1
  Mn  Mn2  1  0.41819900  0.25057600  0.00045000  1
  Mn  Mn3  1  0.25004400  0.41589300  0.50218500  1
  Mn  Mn4  1  0.25036200  0.08394400  0.50093500  1
  Mn  Mn5  1  0.08373400  0.91626600  0.00000000  1
  Mn  Mn6  1  0.08479900  0.25075900  0.00124300  1
  Mn  Mn7  1  0.91605600  0.74963800  0.49906500  1
  Mn  Mn8  1  0.74924100  0.91520100  0.99875700  1
  Mn  Mn9  1  0.74942400  0.58180100  0.99955000  1
  Mn  Mn10  1  0.58410700  0.74995600  0.49781500  1
  Cr  Cr0  1  0.58104300  0.41895700  0.50000000  1
  O  O0  1  0.88385000  0.02372700  0.88780200  1
  O  O1  1  0.71859000  0.21355000  0.38608700  1
  O  O2  1  0.62024100  0.11815000  0.11387800  1
  O  O3  1  0.55028000  0.04767400  0.88643200  1
  O  O4  1  0.52650200  0.38135500  0.88848100  1
  O  O5  1  0.45014200  0.30930300  0.61434000  1
  O  O6  1  0.31136200  0.45214900  0.11307700  1
  O  O7  1  0.38360100  0.52103400  0.38859100  1
  O  O8  1  0.28664700  0.14369700  0.11276700  1
  O  O9  1  0.35858800  0.21459400  0.38910100  1
  O  O10  1  0.21792200  0.71540300  0.88638500  1
  O  O11  1  0.21560800  0.35923000  0.88905000  1
  O  O12  1  0.19205900  0.04948400  0.88861600  1
  O  O13  1  0.14160800  0.28603300  0.61330800  1
  O  O14  1  0.11934200  0.61921600  0.61528700  1
  O  O15  1  0.97627300  0.11615000  0.11219800  1
  O  O16  1  0.04942800  0.54797900  0.38719600  1
  O  O17  1  0.04926400  0.19000700  0.38855000  1
  O  O18  1  0.95051600  0.80794100  0.11138400  1
  O  O19  1  0.95232600  0.44972000  0.11356800  1
  O  O20  1  0.02846800  0.87873400  0.38915300  1
  O  O21  1  0.88185000  0.37975900  0.88612200  1
  O  O22  1  0.85630300  0.71335300  0.88723300  1
  O  O23  1  0.80999300  0.95073600  0.61145000  1
  O  O24  1  0.78540600  0.64141200  0.61089900  1
  O  O25  1  0.78645000  0.28141000  0.61391300  1
  O  O26  1  0.64077000  0.78439200  0.11095000  1
  O  O27  1  0.71396700  0.85839200  0.38669200  1
  O  O28  1  0.61864500  0.47349800  0.11151900  1
  O  O29  1  0.69069700  0.54985800  0.38566000  1
  O  O30  1  0.54785100  0.68863800  0.88692300  1
  O  O31  1  0.47896600  0.61639900  0.61140900  1
  O  O32  1  0.45202100  0.95057200  0.61280400  1
  O  O33  1  0.38078400  0.88065800  0.38471300  1
  O  O34  1  0.28459700  0.78207800  0.11361500  1
  O  O35  1  0.12126600  0.97153200  0.61084700  1
loop_
_geom_bond_atom_site_label_1
_geom_bond_atom_site_label_2
_geom_bond_distance
_geom_bond_site_symmetry_2
Li0 O20 2.047663 1_645
Li0 O18 2.069339 1_545
Li0 O1 2.126314 1_555
Li0 O15 2.140644 1_555
Li0 O2 2.170219 1_555
Li0 O27 2.212431 1_545
Li1 O4 2.071968 1_554
Li1 O28 2.071968 1_555
Li1 O15 2.076703 1_555
Li1 O0 2.076703 1_554
Li1 O2 2.087471 1_555
Li1 O21 2.087471 1_554
Li2 O25 2.020402 1_555
Li2 O3 2.023153 1_555
Li2 O23 2.151723 1_545
Li2 O0 2.176500 1_555
Li2 O5 2.178934 1_555
Li2 O4 2.207300 1_555
Li3 O9 2.072625 1_555
Li3 O27 2.073005 1_545
Li3 O23 2.078860 1_545
Li3 O1 2.099514 1_555
Li3 O5 2.105412 1_555
Li3 O32 2.112321 1_545
Li4 O6 2.067293 1_555
Li4 O7 2.074189 1_555
Li4 O2 2.107809 1_555
Li4 O1 2.128210 1_555
Li4 O28 2.165733 1_555
Li4 O9 2.202829 1_555
Li5 O2 2.034667 1_555
Li5 O33 2.041630 1_545
Li5 O8 2.145796 1_555
Li5 O9 2.152938 1_555
Li5 O27 2.175382 1_545
Li5 O26 2.210513 1_545
Li6 O11 2.055373 1_555
Li6 O13 2.066836 1_555
Li6 O3 2.135272 1_555
Li6 O5 2.143055 1_555
Li6 O32 2.171569 1_545
Li6 O12 2.198805 1_555
Li7 O4 2.054896 1_555
Li7 O5 2.056838 1_555
Li7 O10 2.128882 1_555
Li7 O14 2.138341 1_555
Li7 O11 2.142848 1_555
Li7 O31 2.230867 1_555
Li8 O20 2.056250 1_555
Li8 O35 2.056250 1_555
Li8 O7 2.088777 1_555
Li8 O31 2.088777 1_555
Li8 O14 2.091599 1_555
Li8 O33 2.091599 1_555
Li9 O9 2.071750 1_555
Li9 O8 2.073638 1_555
Li9 O16 2.111796 1_555
Li9 O19 2.139114 1_455
Li9 O6 2.167118 1_555
Li9 O17 2.222162 1_555
Li10 O34 1.996825 1_555
Li10 O16 2.048841 1_555
Li10 O7 2.152777 1_555
Li10 O6 2.163453 1_555
Li10 O20 2.166185 1_555
Li10 O18 2.223385 1_455
Li11 O18 2.065434 1_456
Li11 O11 2.069081 1_555
Li11 O10 2.090624 1_555
Li11 O22 2.097150 1_455
Li11 O6 2.097913 1_556
Li11 O19 2.134031 1_456
Li12 O0 2.051722 1_465
Li12 O23 2.069375 1_455
Li12 O14 2.127998 1_555
Li12 O35 2.131792 1_555
Li12 O10 2.140388 1_555
Li12 O22 2.250352 1_455
Li13 O21 2.034667 1_555
Li13 O14 2.041630 1_655
Li13 O22 2.145796 1_555
Li13 O24 2.152938 1_555
Li13 O13 2.175382 1_655
Li13 O11 2.210513 1_655
Li14 O35 2.047663 1_645
Li14 O12 2.069339 1_655
Li14 O25 2.126314 1_555
Li14 O0 2.140644 1_555
Li14 O21 2.170219 1_555
Li14 O13 2.212431 1_655
Li15 O24 2.072625 1_555
Li15 O13 2.073005 1_655
Li15 O17 2.078860 1_655
Li15 O25 2.099514 1_555
Li15 O29 2.105412 1_555
Li15 O16 2.112321 1_655
Li16 O26 2.055373 1_555
Li16 O27 2.066836 1_555
Li16 O19 2.135272 1_555
Li16 O29 2.143055 1_555
Li16 O16 2.171569 1_655
Li16 O18 2.198805 1_555
Li17 O1 2.020402 1_555
Li17 O19 2.023153 1_555
Li17 O17 2.151723 1_655
Li17 O15 2.176500 1_555
Li17 O29 2.178934 1_555
Li17 O28 2.207300 1_555
Li18 O30 2.067293 1_555
Li18 O31 2.074189 1_555
Li18 O21 2.107809 1_555
Li18 O25 2.128210 1_555
Li18 O4 2.165733 1_555
Li18 O24 2.202829 1_555
Li19 O24 2.071750 1_555
Li19 O22 2.073638 1_555
Li19 O32 2.111796 1_555
Li19 O3 2.139114 1_565
Li19 O30 2.167118 1_555
Li19 O23 2.222162 1_555
Li20 O28 2.054896 1_555
Li20 O29 2.056838 1_555
Li20 O34 2.128882 1_555
Li20 O33 2.138341 1_555
Li20 O26 2.142848 1_555
Li20 O7 2.230867 1_555
Li21 O12 2.065434 1_564
Li21 O26 2.069081 1_555
Li21 O34 2.090624 1_555
Li21 O8 2.097150 1_565
Li21 O30 2.097913 1_554
Li21 O3 2.134031 1_564
Li22 O10 1.996825 1_555
Li22 O32 2.048841 1_555
Li22 O31 2.152777 1_555
Li22 O30 2.163453 1_555
Li22 O35 2.166185 1_555
Li22 O12 2.223385 1_565
Li23 O15 2.051722 1_465
Li23 O17 2.069375 1_565
Li23 O33 2.127998 1_555
Li23 O20 2.131792 1_555
Li23 O34 2.140388 1_555
Li23 O8 2.250352 1_565
Mn0 O20 1.929507 1_645
Mn0 O35 1.929507 1_645
Mn0 O25 1.933117 1_555
Mn0 O1 1.933117 1_555
Mn0 O17 1.939205 1_655
Mn0 O23 1.939205 1_545
Mn1 O28 1.920516 1_555
Mn1 O4 1.920516 1_554
Mn1 O30 1.928595 1_554
Mn1 O6 1.928595 1_555
Mn1 O10 1.933056 1_554
Mn1 O34 1.933056 1_555
Mn2 O11 1.932882 1_554
Mn2 O6 1.934602 1_555
Mn2 O8 1.937988 1_555
Mn2 O4 1.940165 1_554
Mn2 O2 1.942367 1_555
Mn2 O3 1.950847 1_554
Mn3 O5 1.922340 1_555
Mn3 O13 1.931692 1_555
Mn3 O9 1.934858 1_555
Mn3 O16 1.943102 1_555
Mn3 O7 1.945720 1_555
Mn3 O14 1.947325 1_555
Mn4 O17 1.930446 1_555
Mn4 O32 1.931329 1_545
Mn4 O13 1.935504 1_555
Mn4 O9 1.938333 1_555
Mn4 O35 1.946280 1_545
Mn4 O33 1.965700 1_545
Mn5 O15 1.920836 1_465
Mn5 O0 1.920836 1_464
Mn5 O34 1.937448 1_555
Mn5 O10 1.937448 1_554
Mn5 O18 1.953816 1_455
Mn5 O12 1.953816 1_564
Mn6 O19 1.917570 1_455
Mn6 O8 1.929559 1_555
Mn6 O12 1.932481 1_554
Mn6 O11 1.942258 1_554
Mn6 O21 1.956545 1_454
Mn6 O15 1.962449 1_455
Mn7 O23 1.930446 1_555
Mn7 O16 1.931329 1_655
Mn7 O27 1.935504 1_555
Mn7 O24 1.938333 1_555
Mn7 O20 1.946280 1_655
Mn7 O14 1.965700 1_655
Mn8 O3 1.917570 1_565
Mn8 O22 1.929559 1_555
Mn8 O18 1.932481 1_556
Mn8 O26 1.942258 1_556
Mn8 O2 1.956545 1_566
Mn8 O0 1.962449 1_565
Mn9 O26 1.932882 1_556
Mn9 O30 1.934602 1_555
Mn9 O22 1.937988 1_555
Mn9 O28 1.940165 1_556
Mn9 O21 1.942367 1_555
Mn9 O19 1.950847 1_556
Mn10 O29 1.922340 1_555
Mn10 O27 1.931692 1_555
Mn10 O24 1.934858 1_555
Mn10 O32 1.943102 1_555
Mn10 O31 1.945720 1_555
Mn10 O33 1.947325 1_555
Cr0 O7 1.903022 1_555
Cr0 O31 1.903022 1_555
Cr0 O29 1.958544 1_555
Cr0 O5 1.958544 1_555
Cr0 O1 1.967996 1_555
Cr0 O25 1.967996 1_555
