# generated using pymatgen
data_Li4Mn3Cr2O10
_symmetry_space_group_name_H-M   'P 1'
_cell_length_a   5.12447543
_cell_length_b   5.22687375
_cell_length_c   7.79810556
_cell_angle_alpha   108.78391939
_cell_angle_beta   101.68566071
_cell_angle_gamma   100.74146244
_symmetry_Int_Tables_number   1
_chemical_formula_structural   Li4Mn3Cr2O10
_chemical_formula_sum   'Li4 Mn3 Cr2 O10'
_cell_volume   186.38202133
_cell_formula_units_Z   1
loop_
 _symmetry_equiv_pos_site_id
 _symmetry_equiv_pos_as_xyz
  1  'x, y, z'
loop_
 _atom_site_type_symbol
 _atom_site_label
 _atom_site_symmetry_multiplicity
 _atom_site_fract_x
 _atom_site_fract_y
 _atom_site_fract_z
 _atom_site_occupancy
  Li  Li0  1  0.22032400  0.95371500  0.44174200  1
  Li  Li1  1  0.50314900  0.48924600  0.50952700  1
  Li  Li2  1  0.60945400  0.72324200  0.22835200  1
  Li  Li3  1  0.79318200  0.08235400  0.59120600  1
  Mn  Mn0  1  0.99973500  0.49827100  0.99585400  1
  Mn  Mn1  1  0.69358200  0.88785000  0.89379300  1
  Mn  Mn2  1  0.30438000  0.10905900  0.10210300  1
  Cr  Cr0  1  0.10621600  0.69682700  0.69002800  1
  Cr  Cr1  1  0.89623200  0.30349900  0.30478200  1
  O  O0  1  0.03320400  0.06852100  0.85683300  1
  O  O1  1  0.34462300  0.73862500  0.95368400  1
  O  O2  1  0.11877600  0.31834900  0.54077100  1
  O  O3  1  0.23152400  0.46737600  0.22150800  1
  O  O4  1  0.46954700  0.87040300  0.66477800  1
  O  O5  1  0.53752800  0.11423700  0.33193100  1
  O  O6  1  0.77818700  0.53761300  0.77202300  1
  O  O7  1  0.87394800  0.68611900  0.45026600  1
  O  O8  1  0.67457500  0.27341500  0.04449900  1
  O  O9  1  0.92458600  0.90771000  0.13685000  1
loop_
_geom_bond_atom_site_label_1
_geom_bond_atom_site_label_2
_geom_bond_distance
_geom_bond_site_symmetry_2
Li0 O2 2.020947 1_565
Li0 O7 2.072101 1_455
Li0 O5 2.144222 1_565
Li0 O4 2.154294 1_555
Li0 O9 2.458418 1_455
Li0 O3 2.587955 1_555
Li1 O4 2.030635 1_555
Li1 O5 2.066510 1_555
Li1 O2 2.101367 1_555
Li1 O6 2.146092 1_555
Li1 O7 2.194569 1_555
Li1 O3 2.346063 1_555
Li2 O7 2.057558 1_555
Li2 O5 2.074420 1_565
Li2 O9 2.091914 1_555
Li2 O3 2.118703 1_555
Li2 O1 2.325944 1_554
Li2 O8 2.451607 1_555
Li3 O2 2.066690 1_655
Li3 O4 2.101630 1_545
Li3 O7 2.169438 1_545
Li3 O0 2.215012 1_655
Li3 O5 2.248863 1_555
Li3 O6 2.368068 1_555
Mn0 O6 1.973143 1_555
Mn0 O3 1.985247 1_656
Mn0 O8 2.028511 1_556
Mn0 O1 2.117515 1_655
Mn0 O9 2.213718 1_556
Mn0 O0 2.213822 1_655
Mn1 O4 1.881831 1_555
Mn1 O0 1.941556 1_665
Mn1 O6 1.945266 1_555
Mn1 O9 1.980700 1_556
Mn1 O8 2.011551 1_566
Mn1 O1 2.019223 1_555
Mn2 O5 1.931207 1_555
Mn2 O3 1.947425 1_555
Mn2 O1 1.983266 1_544
Mn2 O0 2.046160 1_554
Mn2 O8 2.127166 1_555
Mn2 O9 2.145380 1_445
Cr0 O2 1.966553 1_555
Cr0 O7 1.980371 1_455
Cr0 O4 1.990573 1_555
Cr0 O6 2.045408 1_455
Cr0 O1 2.088357 1_555
Cr0 O0 2.108807 1_565
Cr1 O2 1.928222 1_655
Cr1 O7 1.994040 1_555
Cr1 O5 2.004246 1_555
Cr1 O8 2.056365 1_555
Cr1 O3 2.090259 1_655
Cr1 O9 2.111911 1_545
