# generated using pymatgen
data_ZrTlCuS3
_symmetry_space_group_name_H-M   'P 1'
_cell_length_a   3.74106200
_cell_length_b   7.43763867
_cell_length_c   9.82592600
_cell_angle_alpha   90.00000000
_cell_angle_beta   90.00000000
_cell_angle_gamma   104.56601264
_symmetry_Int_Tables_number   1
_chemical_formula_structural   ZrTlCuS3
_chemical_formula_sum   'Zr2 Tl2 Cu2 S6'
_cell_volume   264.61554346
_cell_formula_units_Z   2
loop_
 _symmetry_equiv_pos_site_id
 _symmetry_equiv_pos_as_xyz
  1  'x, y, z'
loop_
 _atom_site_type_symbol
 _atom_site_label
 _atom_site_symmetry_multiplicity
 _atom_site_fract_x
 _atom_site_fract_y
 _atom_site_fract_z
 _atom_site_occupancy
  Zr  Zr0  1  0.00000000  0.00000000  0.50000000  1
  Zr  Zr1  1  0.00000000  0.00000000  0.00000000  1
  Tl  Tl0  1  0.25447400  0.50894800  0.25000000  1
  Tl  Tl1  1  0.74552600  0.49105200  0.75000000  1
  Cu  Cu0  1  0.46429800  0.92859600  0.75000000  1
  Cu  Cu1  1  0.53570200  0.07140400  0.25000000  1
  S  S0  1  0.37917200  0.75834400  0.55238300  1
  S  S1  1  0.62082800  0.24165600  0.44761700  1
  S  S2  1  0.62082800  0.24165600  0.05238300  1
  S  S3  1  0.06251300  0.12502600  0.75000000  1
  S  S4  1  0.93748700  0.87497400  0.25000000  1
  S  S5  1  0.37917200  0.75834400  0.94761700  1
loop_
_geom_bond_atom_site_label_1
_geom_bond_atom_site_label_2
_geom_bond_distance
_geom_bond_site_symmetry_2
Cu0 S5 2.296192 1_555
Cu0 S0 2.296192 1_555
Cu0 S3 2.344852 1_665
Cu0 S3 2.344852 1_565
Cu1 S2 2.296192 1_555
Cu1 S1 2.296192 1_555
Cu1 S4 2.344852 1_445
Cu1 S4 2.344852 1_545
S0 Zr0 2.605754 1_665
S0 Zr0 2.605754 1_565
S1 Zr0 2.605754 1_555
S1 Zr0 2.605754 1_655
S2 Zr1 2.605754 1_555
S2 Zr1 2.605754 1_655
S3 Zr0 2.616165 1_555
S3 Zr1 2.616165 1_556
S3 Tl1 3.231318 1_555
S3 Tl1 3.231318 1_455
S4 Zr1 2.616165 1_665
S4 Zr0 2.616165 1_665
S4 Tl0 3.231318 1_655
S4 Tl0 3.231318 1_555
S5 Zr1 2.605754 1_666
S5 Zr1 2.605754 1_566
