# generated using pymatgen
data_Li3V2(O2F)2
_symmetry_space_group_name_H-M   'P 1'
_cell_length_a   5.96284000
_cell_length_b   5.99791518
_cell_length_c   15.17853186
_cell_angle_alpha   84.25262177
_cell_angle_beta   78.84448916
_cell_angle_gamma   60.33342706
_symmetry_Int_Tables_number   1
_chemical_formula_structural   Li3V2(O2F)2
_chemical_formula_sum   'Li12 V8 O16 F8'
_cell_volume   462.77863192
_cell_formula_units_Z   4
loop_
 _symmetry_equiv_pos_site_id
 _symmetry_equiv_pos_as_xyz
  1  'x, y, z'
loop_
 _atom_site_type_symbol
 _atom_site_label
 _atom_site_symmetry_multiplicity
 _atom_site_fract_x
 _atom_site_fract_y
 _atom_site_fract_z
 _atom_site_occupancy
  Li  Li0  1  0.62345700  0.14119600  0.16456200  1
  Li  Li1  1  0.05397100  0.71615900  0.16524100  1
  Li  Li2  1  0.18311700  0.33027500  0.29121500  1
  Li  Li3  1  0.84300700  0.15891400  0.66487800  1
  Li  Li4  1  0.97697800  0.47168000  0.04805200  1
  Li  Li5  1  0.58332400  0.67902000  0.17464200  1
  Li  Li6  1  0.46087700  0.99761800  0.04095200  1
  Li  Li7  1  0.70730700  0.33310800  0.29627700  1
  Li  Li8  1  0.33042100  0.15273100  0.66501300  1
  Li  Li9  1  0.48353200  0.50430900  0.02665200  1
  Li  Li10  1  0.18224900  0.85758700  0.29608800  1
  Li  Li11  1  0.83178300  0.66067100  0.66899100  1
  V  V0  1  0.74889400  0.50198700  0.49951600  1
  V  V1  1  0.25560300  0.99523900  0.49886400  1
  V  V2  1  0.41844100  0.33597200  0.82437400  1
  V  V3  1  0.24766300  0.49915600  0.50793000  1
  V  V4  1  0.92268800  0.82972300  0.83618800  1
  V  V5  1  0.75372100  0.99845400  0.49375900  1
  V  V6  1  0.91735400  0.32982800  0.83877900  1
  V  V7  1  0.41797500  0.83543300  0.82971800  1
  O  O0  1  0.04092400  0.32436400  0.57985900  1
  O  O1  1  0.71323800  0.16346700  0.89673200  1
  O  O2  1  0.95655300  0.17296900  0.42949300  1
  O  O3  1  0.64117100  0.49270600  0.76078100  1
  O  O4  1  0.55031300  0.83229900  0.57260000  1
  O  O5  1  0.45146700  0.66841900  0.43597400  1
  O  O6  1  0.20465600  0.67148800  0.89571400  1
  O  O7  1  0.10544400  0.01481100  0.76083600  1
  O  O8  1  0.56565500  0.32543600  0.57177000  1
  O  O9  1  0.20770100  0.17691300  0.89681300  1
  O  O10  1  0.42849900  0.16946100  0.43720800  1
  O  O11  1  0.10193200  0.50425600  0.75969300  1
  O  O12  1  0.04495000  0.84767900  0.57084300  1
  O  O13  1  0.95065900  0.64661600  0.43721000  1
  O  O14  1  0.71673800  0.66755900  0.90147300  1
  O  O15  1  0.63462800  0.99145400  0.75438700  1
  F  F0  1  0.30380100  0.33473600  0.07539100  1
  F  F1  1  0.87928500  0.50965900  0.24463400  1
  F  F2  1  0.77848900  0.81945900  0.08962100  1
  F  F3  1  0.38579200  0.00340000  0.24685900  1
  F  F4  1  0.75573900  0.34905800  0.08831700  1
  F  F5  1  0.37687000  0.50915500  0.25464800  1
  F  F6  1  0.30693700  0.80494000  0.08896000  1
  F  F7  1  0.87286600  0.00396900  0.25182300  1
loop_
_geom_bond_atom_site_label_1
_geom_bond_atom_site_label_2
_geom_bond_distance
_geom_bond_site_symmetry_2
Li2 O2 2.624594 1_455
Li3 O0 2.087184 1_655
Li3 O7 2.146666 1_655
Li3 O12 2.148358 1_645
Li3 O15 2.169666 1_545
Li3 O8 2.171739 1_555
Li3 O3 2.257491 1_555
Li7 O2 2.565292 1_555
Li8 O0 2.132588 1_555
Li8 O7 2.168395 1_555
Li8 O4 2.171237 1_545
Li8 O15 2.240257 1_545
Li8 O11 2.317883 1_555
Li8 O8 2.328103 1_555
Li9 O14 2.540754 1_554
Li10 O2 2.585012 1_465
Li11 O11 2.115142 1_655
Li11 O3 2.118372 1_555
Li11 O15 2.148257 1_555
Li11 O0 2.204082 1_655
Li11 O4 2.226074 1_555
Li11 O12 2.331745 1_655
O0 V3 2.083288 1_555
O0 V0 2.092711 1_455
O0 V1 2.102999 1_545
O1 V4 1.964919 1_545
O1 V6 1.965426 1_555
O1 V2 2.021328 1_555
O2 V1 2.011182 1_645
O2 V0 2.012267 1_555
O2 V5 2.025370 1_545
O3 V6 1.999560 1_555
O3 V2 2.034069 1_555
O3 V7 2.067742 1_555
O4 V1 2.034148 1_555
O4 V0 2.041426 1_555
O4 V5 2.071810 1_555
O5 V0 1.946422 1_555
O5 V1 1.948046 1_555
O5 V3 2.045977 1_555
O6 V4 1.838594 1_455
O6 V7 2.033756 1_555
O6 V2 2.051873 1_555
O7 V6 2.015956 1_455
O7 V4 2.046719 1_445
O7 V7 2.065781 1_545
O8 V0 1.991737 1_555
O8 V3 2.042780 1_555
O8 V5 2.068858 1_545
O9 V6 1.863048 1_455
O9 V2 2.034741 1_555
O9 V7 2.045917 1_545
O10 V1 1.878263 1_545
O10 V5 2.012035 1_545
O10 V3 2.022856 1_555
O11 V6 2.030750 1_455
O11 V2 2.043845 1_555
O11 V4 2.051741 1_455
O12 V1 1.982553 1_555
O12 V3 2.048091 1_555
O12 V5 2.054773 1_455
O13 V0 1.876928 1_555
O13 V3 2.016382 1_655
O13 V5 2.022059 1_555
O14 V4 1.988608 1_555
O14 V6 1.996695 1_555
O14 V7 2.032043 1_555
O15 V7 2.064676 1_555
O15 V2 2.081610 1_565
O15 V4 2.089872 1_555
F0 Li4 1.817902 1_455
F0 Li9 1.830800 1_555
F0 Li6 1.840252 1_545
F0 Li0 2.303433 1_555
F0 Li1 2.403750 1_555
F1 Li2 1.831253 1_655
F1 Li7 1.839853 1_555
F1 Li5 2.002416 1_555
F1 Li1 2.136278 1_655
F2 Li6 1.911610 1_555
F2 Li4 1.918548 1_555
F2 Li5 1.975028 1_555
F2 Li1 1.994815 1_655
F2 Li0 2.034515 1_565
F3 Li2 1.833493 1_555
F3 Li10 1.834453 1_545
F3 Li5 2.008310 1_545
F3 Li0 2.125904 1_555
F4 Li4 1.792545 1_555
F4 Li9 1.815167 1_555
F4 Li0 1.961405 1_555
F4 Li5 2.162079 1_555
F5 Li2 1.911437 1_555
F5 Li7 1.919654 1_555
F5 Li10 1.920927 1_555
F5 Li5 2.107968 1_555
F5 Li1 2.323250 1_555
F5 Li0 2.348746 1_555
F6 Li9 1.825177 1_555
F6 Li6 1.825307 1_555
F6 Li1 1.973634 1_555
F6 Li5 2.092450 1_555
F7 Li10 1.839478 1_645
F7 Li7 1.845791 1_555
F7 Li1 1.983205 1_645
F7 Li0 1.993891 1_555
