# generated using pymatgen
data_Zr2N2O
_symmetry_space_group_name_H-M   'P 1'
_cell_length_a   8.77309007
_cell_length_b   8.79658624
_cell_length_c   8.79490131
_cell_angle_alpha   109.40113182
_cell_angle_beta   109.56726459
_cell_angle_gamma   109.36110665
_symmetry_Int_Tables_number   1
_chemical_formula_structural   Zr2N2O
_chemical_formula_sum   'Zr16 N16 O8'
_cell_volume   523.02795238
_cell_formula_units_Z   8
loop_
 _symmetry_equiv_pos_site_id
 _symmetry_equiv_pos_as_xyz
  1  'x, y, z'
loop_
 _atom_site_type_symbol
 _atom_site_label
 _atom_site_symmetry_multiplicity
 _atom_site_fract_x
 _atom_site_fract_y
 _atom_site_fract_z
 _atom_site_occupancy
  Zr  Zr0  1  0.96671086  0.70839011  0.74761581  1
  Zr  Zr1  1  0.99804824  0.49790587  0.99988531  1
  Zr  Zr2  1  0.71960469  0.24800116  0.46886145  1
  Zr  Zr3  1  0.77732530  0.74875052  0.02774399  1
  Zr  Zr4  1  0.73766141  0.95672222  0.70524635  1
  Zr  Zr5  1  0.75832269  0.46493990  0.21336343  1
  Zr  Zr6  1  0.49830183  0.50698672  0.51086671  1
  Zr  Zr7  1  0.53465839  0.78485435  0.25227153  1
  Zr  Zr8  1  0.46657321  0.21592706  0.74262050  1
  Zr  Zr9  1  0.50318922  0.99230526  0.99130555  1
  Zr  Zr10  1  0.25032178  0.03541778  0.29329022  1
  Zr  Zr11  1  0.24965198  0.53637374  0.78688412  1
  Zr  Zr12  1  0.21888496  0.25782264  0.96251497  1
  Zr  Zr13  1  0.28383029  0.74994763  0.53513647  1
  Zr  Zr14  1  0.00756119  0.01085822  0.49947467  1
  Zr  Zr15  1  0.03254379  0.28809930  0.25779569  1
  N  N0  1  0.96238253  0.45889297  0.72833759  1
  N  N1  1  0.76955005  0.04197524  0.50745190  1
  N  N2  1  0.73194875  0.73697487  0.77204745  1
  N  N3  1  0.76943176  0.23043708  0.24094277  1
  N  N4  1  0.72742001  0.47043497  0.95920007  1
  N  N5  1  0.48891171  0.72475830  0.45575037  1
  N  N6  1  0.22768687  0.77888189  0.76423164  1
  N  N7  1  0.27077425  0.52974351  0.04656436  1
  N  N8  1  0.50966874  0.26910427  0.53704431  1
  N  N9  1  0.22482155  0.95264043  0.48369938  1
  N  N10  1  0.53567045  0.76442951  0.99420019  1
  N  N11  1  0.55234609  0.01780467  0.77939484  1
  N  N12  1  0.25951327  0.48256826  0.53208421  1
  N  N13  1  0.23762714  0.26792620  0.72836019  1
  N  N14  1  0.03101696  0.54238076  0.26877825  1
  N  N15  1  0.98898913  0.02991998  0.25783768  1
  O  O0  1  0.76028987  0.72583652  0.27913891  1
  O  O1  1  0.74253601  0.52049943  0.46594198  1
  O  O2  1  0.27282805  0.26160166  0.22375974  1
  O  O3  1  0.96045888  0.22849052  0.96629543  1
  O  O4  1  0.46294140  0.23880068  0.01598462  1
  O  O5  1  0.44655651  0.98088164  0.22172453  1
  O  O6  1  0.05281998  0.77159004  0.03465539  1
  O  O7  1  0.01062121  0.97011710  0.74169846  1
loop_
_geom_bond_atom_site_label_1
_geom_bond_atom_site_label_2
_geom_bond_distance
_geom_bond_site_symmetry_2
N0 Zr2 2.120769 1_555
N0 Zr0 2.130777 1_555
N0 Zr1 2.191597 1_555
N0 Zr11 2.199995 1_655
N1 Zr2 2.104109 1_555
N1 Zr4 2.172648 1_545
N1 Zr7 2.199659 1_545
N1 Zr14 2.214570 1_655
N2 Zr3 2.108238 1_556
N2 Zr6 2.140147 1_555
N2 Zr4 2.189578 1_555
N2 Zr0 2.226032 1_555
N3 Zr15 2.133562 1_655
N3 Zr2 2.158479 1_555
N3 Zr5 2.184824 1_555
N3 Zr9 2.220248 1_544
N4 Zr3 2.163539 1_556
N4 Zr8 2.174282 1_555
N4 Zr5 2.178791 1_556
N4 Zr1 2.194666 1_555
N5 Zr6 2.146223 1_555
N5 Zr4 2.146229 1_555
N5 Zr7 2.147567 1_555
N5 Zr13 2.185558 1_555
N6 Zr0 2.102931 1_455
N6 Zr9 2.149907 1_555
N6 Zr13 2.185008 1_555
N6 Zr11 2.270849 1_555
N7 Zr12 2.086414 1_554
N7 Zr7 2.172844 1_555
N7 Zr1 2.189318 1_454
N7 Zr11 2.250765 1_554
N8 Zr8 2.129132 1_555
N8 Zr2 2.163045 1_555
N8 Zr10 2.168472 1_555
N8 Zr6 2.210154 1_555
N9 Zr10 2.082714 1_565
N9 Zr13 2.154711 1_555
N9 Zr14 2.166024 1_565
N9 Zr8 2.247661 1_565
N10 Zr3 2.098255 1_556
N10 Zr9 2.123150 1_555
N10 Zr11 2.193870 1_555
N10 Zr7 2.219816 1_556
N11 Zr4 2.100893 1_545
N11 Zr9 2.112290 1_545
N11 Zr8 2.188426 1_555
N11 Zr13 2.298537 1_545
N12 Zr6 2.111811 1_555
N12 Zr15 2.119686 1_555
N12 Zr11 2.169257 1_555
N12 Zr13 2.280303 1_555
N13 Zr14 2.113690 1_555
N13 Zr12 2.148175 1_555
N13 Zr8 2.176657 1_555
N13 Zr11 2.200756 1_555
N14 Zr5 2.083960 1_455
N14 Zr1 2.163686 1_454
N14 Zr13 2.175741 1_555
N14 Zr15 2.211338 1_555
N15 Zr14 2.143349 1_655
N15 Zr15 2.174660 1_655
N15 Zr3 2.184772 1_545
N15 Zr10 2.189438 1_655
O0 Zr5 2.164947 1_555
O0 Zr7 2.166401 1_555
O0 Zr14 2.257744 1_665
O0 Zr3 2.334288 1_555
O1 Zr0 2.144232 1_555
O1 Zr5 2.173098 1_555
O1 Zr6 2.278323 1_555
O1 Zr2 2.347682 1_555
O2 Zr12 2.171320 1_554
O2 Zr10 2.236146 1_555
O2 Zr6 2.269445 1_555
O2 Zr15 2.299971 1_555
O3 Zr1 2.182666 1_555
O3 Zr12 2.208207 1_655
O3 Zr15 2.246901 1_656
O3 Zr4 2.248604 1_545
O4 Zr12 2.109257 1_554
O4 Zr5 2.227247 1_555
O4 Zr9 2.262676 1_544
O4 Zr8 2.357097 1_554
O5 Zr10 2.159393 1_565
O5 Zr7 2.166896 1_555
O5 Zr9 2.267226 1_554
O5 Zr2 2.317576 1_565
O6 Zr10 2.179220 1_565
O6 Zr0 2.182770 1_454
O6 Zr1 2.183080 1_454
O6 Zr3 2.336059 1_455
O7 Zr12 2.192470 1_565
O7 Zr0 2.226361 1_455
O7 Zr4 2.263809 1_455
O7 Zr14 2.267769 1_565
