# generated using pymatgen
data_LiFeSiO4
_symmetry_space_group_name_H-M   'P 1'
_cell_length_a   12.14822200
_cell_length_b   10.76564600
_cell_length_c   10.85720259
_cell_angle_alpha   60.42762309
_cell_angle_beta   90.00000000
_cell_angle_gamma   90.00000000
_symmetry_Int_Tables_number   1
_chemical_formula_structural   LiFeSiO4
_chemical_formula_sum   'Li12 Fe12 Si12 O48'
_cell_volume   1234.97079574
_cell_formula_units_Z   12
loop_
 _symmetry_equiv_pos_site_id
 _symmetry_equiv_pos_as_xyz
  1  'x, y, z'
loop_
 _atom_site_type_symbol
 _atom_site_label
 _atom_site_symmetry_multiplicity
 _atom_site_fract_x
 _atom_site_fract_y
 _atom_site_fract_z
 _atom_site_occupancy
  Li  Li0  1  0.66395300  0.50000000  0.50000000  1
  Li  Li1  1  0.16452600  0.50000000  0.50000000  1
  Li  Li2  1  0.00013900  0.00000000  0.00000000  1
  Li  Li3  1  0.66636500  0.00000000  0.00000000  1
  Li  Li4  1  0.33314700  0.00000000  0.00000000  1
  Li  Li5  1  0.83259700  0.00000000  0.50000000  1
  Li  Li6  1  0.33765500  0.00000000  0.50000000  1
  Li  Li7  1  0.55743300  0.50000000  0.00000000  1
  Li  Li8  1  0.98396600  0.50000000  0.00000000  1
  Li  Li9  1  0.78820200  0.50000000  0.00000000  1
  Li  Li10  1  0.35205100  0.50000000  0.00000000  1
  Li  Li11  1  0.16832700  0.50000000  0.00000000  1
  Fe  Fe0  1  0.16546300  0.75046500  0.24782600  1
  Fe  Fe1  1  0.83438300  0.50321000  0.25507400  1
  Fe  Fe2  1  0.16546300  0.24953500  0.75217400  1
  Fe  Fe3  1  0.49917900  0.24931100  0.50121100  1
  Fe  Fe4  1  0.83492900  0.00117900  0.75009900  1
  Fe  Fe5  1  0.16472900  0.24429100  0.25059700  1
  Fe  Fe6  1  0.50054100  0.75383100  0.99783700  1
  Fe  Fe7  1  0.16472900  0.75570900  0.74940300  1
  Fe  Fe8  1  0.83492900  0.99882100  0.24990100  1
  Fe  Fe9  1  0.49917900  0.75068900  0.49878900  1
  Fe  Fe10  1  0.83438300  0.49679000  0.74492600  1
  Fe  Fe11  1  0.50054100  0.24616900  0.00216300  1
  Si  Si0  1  0.66492500  0.75292600  0.24909200  1
  Si  Si1  1  0.66492500  0.24707400  0.75090800  1
  Si  Si2  1  0.33048000  0.49454300  0.24499200  1
  Si  Si3  1  0.00088700  0.25285200  0.49590400  1
  Si  Si4  1  0.67050800  0.25322000  0.25312000  1
  Si  Si5  1  0.33408000  0.00165200  0.75164700  1
  Si  Si6  1  0.99733300  0.74519000  0.00036700  1
  Si  Si7  1  0.33408000  0.99834800  0.24835300  1
  Si  Si8  1  0.67050800  0.74678000  0.74688000  1
  Si  Si9  1  0.00088700  0.74714800  0.50409600  1
  Si  Si10  1  0.33048000  0.50545700  0.75500800  1
  Si  Si11  1  0.99733300  0.25481000  0.99963300  1
  O  O0  1  0.06228000  0.79186900  0.10317300  1
  O  O1  1  0.59613000  0.80169100  0.10127500  1
  O  O2  1  0.74401300  0.61230800  0.30289400  1
  O  O3  1  0.24675400  0.58459200  0.29086800  1
  O  O4  1  0.90950100  0.60929300  0.07427300  1
  O  O5  1  0.41644300  0.58332000  0.10663500  1
  O  O6  1  0.58545000  0.30287900  0.61229300  1
  O  O7  1  0.92848900  0.39608100  0.39875600  1
  O  O8  1  0.39815600  0.38660800  0.38403500  1
  O  O9  1  0.08639200  0.29826500  0.58615300  1
  O  O10  1  0.26385200  0.09747200  0.80493100  1
  O  O11  1  0.74374000  0.40224300  0.19062000  1
  O  O12  1  0.25524200  0.41579300  0.17272900  1
  O  O13  1  0.73538600  0.09821100  0.80479000  1
  O  O14  1  0.91589900  0.11733700  0.58515500  1
  O  O15  1  0.59999800  0.21850000  0.39170100  1
  O  O16  1  0.07500600  0.20926200  0.39755500  1
  O  O17  1  0.41269500  0.08505800  0.61281500  1
  O  O18  1  0.58847900  0.29731600  0.11401900  1
  O  O19  1  0.93720800  0.89724100  0.89565900  1
  O  O20  1  0.08106100  0.32151800  0.07416800  1
  O  O21  1  0.40188100  0.90248700  0.90021700  1
  O  O22  1  0.75494600  0.11782400  0.29866600  1
  O  O23  1  0.25588100  0.91197200  0.69979700  1
  O  O24  1  0.25588100  0.08802800  0.30020300  1
  O  O25  1  0.75494600  0.88217600  0.70133400  1
  O  O26  1  0.40188100  0.09751300  0.09978300  1
  O  O27  1  0.08106100  0.67848200  0.92583200  1
  O  O28  1  0.93720800  0.10275900  0.10434100  1
  O  O29  1  0.58847900  0.70268400  0.88598100  1
  O  O30  1  0.41269500  0.91494200  0.38718500  1
  O  O31  1  0.07500600  0.79073800  0.60244500  1
  O  O32  1  0.59999800  0.78150000  0.60829900  1
  O  O33  1  0.91589900  0.88266300  0.41484500  1
  O  O34  1  0.73538600  0.90178900  0.19521000  1
  O  O35  1  0.25524200  0.58420700  0.82727100  1
  O  O36  1  0.74374000  0.59775700  0.80938000  1
  O  O37  1  0.26385200  0.90252800  0.19506900  1
  O  O38  1  0.08639200  0.70173500  0.41384700  1
  O  O39  1  0.39815600  0.61339200  0.61596500  1
  O  O40  1  0.92848900  0.60391900  0.60124400  1
  O  O41  1  0.58545000  0.69712100  0.38770700  1
  O  O42  1  0.41644300  0.41668000  0.89336500  1
  O  O43  1  0.90950100  0.39070700  0.92572700  1
  O  O44  1  0.24675400  0.41540800  0.70913200  1
  O  O45  1  0.74401300  0.38769200  0.69710600  1
  O  O46  1  0.59613000  0.19830900  0.89872500  1
  O  O47  1  0.06228000  0.20813100  0.89682700  1
loop_
_geom_bond_atom_site_label_1
_geom_bond_atom_site_label_2
_geom_bond_distance
_geom_bond_site_symmetry_2
Li0 O6 2.084611 1_555
Li0 O41 2.084611 1_555
Li0 O45 2.105599 1_555
Li0 O2 2.105599 1_555
Li1 O38 2.118371 1_555
Li1 O9 2.118371 1_555
Li1 O44 2.223008 1_555
Li1 O3 2.223008 1_555
Li2 O28 2.080538 1_455
Li2 O19 2.080538 1_444
Li2 O0 2.089935 1_545
Li2 O47 2.089935 1_554
Li3 O13 2.025115 1_554
Li3 O34 2.025115 1_545
Li3 O1 2.043984 1_545
Li3 O46 2.043984 1_554
Li4 O21 2.023741 1_544
Li4 O26 2.023741 1_555
Li4 O37 2.025257 1_545
Li4 O10 2.025257 1_554
Li5 O22 2.130791 1_555
Li5 O25 2.130791 1_545
Li5 O14 2.151123 1_555
Li5 O33 2.151123 1_545
Li6 O17 2.068062 1_555
Li6 O30 2.068062 1_545
Li6 O24 2.135752 1_555
Li6 O23 2.135752 1_545
Li7 O29 1.941583 1_554
Li7 O18 1.941583 1_555
Li7 O5 2.470558 1_555
Li7 O42 2.470558 1_554
Li8 O4 1.946675 1_555
Li8 O43 1.946675 1_554
Li8 O20 2.050502 1_655
Li8 O27 2.050502 1_654
Li9 O11 1.879549 1_555
Li9 O36 1.879549 1_554
Li9 O4 2.267732 1_555
Li9 O43 2.267732 1_554
Li10 O5 1.944726 1_555
Li10 O42 1.944726 1_554
Li10 O12 2.010925 1_555
Li10 O35 2.010925 1_554
Li11 O12 1.943078 1_555
Li11 O35 1.943078 1_554
Li11 O20 1.984221 1_555
Li11 O27 1.984221 1_554
Fe0 O37 1.873799 1_555
Fe0 O38 1.874469 1_555
Fe0 O0 1.882949 1_555
Fe0 O3 1.886469 1_555
Fe1 O7 1.815156 1_555
Fe1 O2 1.859078 1_555
Fe1 O11 1.906451 1_555
Fe1 O4 1.943598 1_555
Fe2 O10 1.873799 1_555
Fe2 O9 1.874469 1_555
Fe2 O47 1.882949 1_555
Fe2 O44 1.886469 1_555
Fe3 O15 1.847436 1_555
Fe3 O8 1.858312 1_555
Fe3 O6 1.889974 1_555
Fe3 O17 1.893148 1_555
Fe4 O13 1.875735 1_555
Fe4 O14 1.878288 1_555
Fe4 O25 1.880232 1_545
Fe4 O19 1.883617 1_545
Fe5 O16 1.811668 1_555
Fe5 O24 1.857955 1_555
Fe5 O12 1.947312 1_555
Fe5 O20 1.954899 1_555
Fe6 O1 1.856429 1_556
Fe6 O21 1.856563 1_555
Fe6 O29 1.891919 1_555
Fe6 O5 1.915324 1_556
Fe7 O31 1.811668 1_555
Fe7 O23 1.857955 1_555
Fe7 O35 1.947312 1_555
Fe7 O27 1.954899 1_555
Fe8 O34 1.875735 1_555
Fe8 O33 1.878288 1_555
Fe8 O22 1.880232 1_565
Fe8 O28 1.883617 1_565
Fe9 O32 1.847436 1_555
Fe9 O39 1.858312 1_555
Fe9 O41 1.889974 1_555
Fe9 O30 1.893148 1_555
Fe10 O40 1.815156 1_555
Fe10 O45 1.859078 1_555
Fe10 O36 1.906451 1_555
Fe10 O43 1.943598 1_555
Fe11 O46 1.856429 1_554
Fe11 O26 1.856563 1_555
Fe11 O18 1.891919 1_555
Fe11 O42 1.915324 1_554
O0 Si6 1.635409 1_455
O1 Si0 1.648660 1_555
O2 Si0 1.638047 1_555
O3 Si2 1.642875 1_555
O4 Si6 1.662543 1_555
O5 Si2 1.686246 1_555
O6 Si1 1.632662 1_555
O7 Si3 1.630444 1_655
O8 Si2 1.604260 1_555
O9 Si3 1.658597 1_555
O10 Si5 1.647940 1_555
O11 Si4 1.658686 1_555
O12 Si2 1.681149 1_555
O13 Si1 1.648601 1_555
O14 Si3 1.654681 1_655
O15 Si4 1.606906 1_555
O16 Si3 1.632712 1_555
O17 Si5 1.629250 1_555
O18 Si4 1.670801 1_555
O19 Si6 1.633591 1_556
O20 Si11 1.666984 1_454
O21 Si5 1.649343 1_565
O22 Si4 1.646193 1_555
O23 Si5 1.639497 1_565
O24 Si7 1.639497 1_545
O25 Si8 1.646193 1_555
O26 Si7 1.649343 1_545
O27 Si6 1.666984 1_456
O28 Si11 1.633591 1_554
O29 Si8 1.670801 1_555
O30 Si7 1.629250 1_555
O31 Si9 1.632712 1_555
O32 Si8 1.606906 1_555
O33 Si9 1.654681 1_655
O34 Si0 1.648601 1_555
O35 Si10 1.681149 1_555
O36 Si8 1.658686 1_555
O37 Si7 1.647940 1_555
O38 Si9 1.658597 1_555
O39 Si10 1.604260 1_555
O40 Si9 1.630444 1_655
O41 Si0 1.632662 1_555
O42 Si10 1.686246 1_555
O43 Si11 1.662543 1_555
O44 Si10 1.642875 1_555
O45 Si1 1.638047 1_555
O46 Si1 1.648660 1_555
O47 Si11 1.635409 1_455
