# generated using pymatgen
data_Bi2O3
_symmetry_space_group_name_H-M   'P 1'
_cell_length_a   10.41362054
_cell_length_b   10.41362054
_cell_length_c   10.41362090
_cell_angle_alpha   90.04988955
_cell_angle_beta   90.04988955
_cell_angle_gamma   90.04989183
_symmetry_Int_Tables_number   1
_chemical_formula_structural   Bi2O3
_chemical_formula_sum   'Bi26 O39'
_cell_volume   1129.28813694
_cell_formula_units_Z   13
loop_
 _symmetry_equiv_pos_site_id
 _symmetry_equiv_pos_as_xyz
  1  'x, y, z'
loop_
 _atom_site_type_symbol
 _atom_site_label
 _atom_site_symmetry_multiplicity
 _atom_site_fract_x
 _atom_site_fract_y
 _atom_site_fract_z
 _atom_site_occupancy
  Bi  Bi0  1  0.98090500  0.18207800  0.33235200  1
  Bi  Bi1  1  0.98505200  0.82309200  0.68451000  1
  Bi  Bi2  1  0.81967500  0.32464000  0.01374100  1
  Bi  Bi3  1  0.82309200  0.68451000  0.98505200  1
  Bi  Bi4  1  0.81861200  0.49010400  0.67907300  1
  Bi  Bi5  1  0.81705800  0.51336300  0.32174200  1
  Bi  Bi6  1  0.68714100  0.01608800  0.17607100  1
  Bi  Bi7  1  0.68451000  0.98505200  0.82309200  1
  Bi  Bi8  1  0.67907300  0.81861200  0.49010400  1
  Bi  Bi9  1  0.67374600  0.17878300  0.51147400  1
  Bi  Bi10  1  0.51336300  0.32174200  0.81705800  1
  Bi  Bi11  1  0.51147400  0.67374600  0.17878300  1
  Bi  Bi12  1  0.50004200  0.50004200  0.50004200  1
  Bi  Bi13  1  0.48851100  0.32037700  0.18213400  1
  Bi  Bi14  1  0.49010400  0.67907300  0.81861200  1
  Bi  Bi15  1  0.32174200  0.81705800  0.51336300  1
  Bi  Bi16  1  0.32037700  0.18213400  0.48851100  1
  Bi  Bi17  1  0.33235200  0.98090500  0.18207800  1
  Bi  Bi18  1  0.32464000  0.01374100  0.81967500  1
  Bi  Bi19  1  0.17878300  0.51147400  0.67374600  1
  Bi  Bi20  1  0.18213400  0.48851100  0.32037700  1
  Bi  Bi21  1  0.18207800  0.33235200  0.98090500  1
  Bi  Bi22  1  0.17607100  0.68714100  0.01608800  1
  Bi  Bi23  1  0.01608800  0.17607100  0.68714100  1
  Bi  Bi24  1  0.01374100  0.81967500  0.32464000  1
  Bi  Bi25  1  0.01360500  0.01360500  0.01360500  1
  O  O0  1  0.00764300  0.36622100  0.25492500  1
  O  O1  1  0.00692400  0.63076700  0.74404400  1
  O  O2  1  0.88616100  0.10495100  0.88336500  1
  O  O3  1  0.88336500  0.88616100  0.10495100  1
  O  O4  1  0.86664900  0.24283400  0.49164500  1
  O  O5  1  0.87070100  0.75712000  0.50654600  1
  O  O6  1  0.81642300  0.18631300  0.18562200  1
  O  O7  1  0.80982200  0.80982200  0.80982200  1
  O  O8  1  0.75712000  0.50654600  0.87070100  1
  O  O9  1  0.75607800  0.49267300  0.12986700  1
  O  O10  1  0.74549800  0.99452900  0.36866800  1
  O  O11  1  0.74404400  0.00692400  0.63076700  1
  O  O12  1  0.68527200  0.31389300  0.68353400  1
  O  O13  1  0.68353400  0.68527200  0.31389300  1
  O  O14  1  0.63068600  0.25563000  0.99326800  1
  O  O15  1  0.63076700  0.74404400  0.00692400  1
  O  O16  1  0.62420200  0.37270200  0.37363700  1
  O  O17  1  0.62672000  0.62672000  0.62672000  1
  O  O18  1  0.49267300  0.12986700  0.75607800  1
  O  O19  1  0.49164500  0.86664900  0.24283400  1
  O  O20  1  0.50654600  0.87070100  0.75712000  1
  O  O21  1  0.50742000  0.12702600  0.24126300  1
  O  O22  1  0.37363700  0.62420200  0.37270200  1
  O  O23  1  0.37270200  0.37363700  0.62420200  1
  O  O24  1  0.36622100  0.25492500  0.00764300  1
  O  O25  1  0.36866800  0.74549800  0.99452900  1
  O  O26  1  0.31337200  0.31337200  0.31337200  1
  O  O27  1  0.31389300  0.68353400  0.68527200  1
  O  O28  1  0.25563000  0.99326800  0.63068600  1
  O  O29  1  0.25492500  0.00764300  0.36622100  1
  O  O30  1  0.24283400  0.49164500  0.86664900  1
  O  O31  1  0.24126300  0.50742000  0.12702600  1
  O  O32  1  0.18631300  0.18562200  0.81642300  1
  O  O33  1  0.18562200  0.81642300  0.18631300  1
  O  O34  1  0.12986700  0.75607800  0.49267300  1
  O  O35  1  0.12702600  0.24126300  0.50742000  1
  O  O36  1  0.10495100  0.88336500  0.88616100  1
  O  O37  1  0.99326800  0.63068600  0.25563000  1
  O  O38  1  0.99452900  0.36866800  0.74549800  1
loop_
_geom_bond_atom_site_label_1
_geom_bond_atom_site_label_2
_geom_bond_distance
_geom_bond_site_symmetry_2
Bi0 O0 2.099278 1_655
Bi0 O4 2.137887 1_555
Bi0 O6 2.294833 1_555
Bi0 O35 2.451636 1_655
Bi1 O1 2.109538 1_655
Bi1 O7 2.248518 1_555
Bi1 O5 2.305873 1_555
Bi1 O36 2.520782 1_655
Bi1 O34 2.599374 1_655
Bi2 O14 2.105161 1_554
Bi2 O9 2.227697 1_555
Bi2 O6 2.298784 1_555
Bi2 O8 2.497379 1_554
Bi2 O2 2.748726 1_554
Bi3 O15 2.109538 1_556
Bi3 O7 2.248518 1_555
Bi3 O8 2.305873 1_555
Bi3 O3 2.520782 1_556
Bi3 O9 2.599374 1_556
Bi4 O8 2.103183 1_555
Bi4 O12 2.300709 1_555
Bi4 O38 2.331737 1_555
Bi4 O17 2.513718 1_555
Bi4 O1 2.537707 1_655
Bi5 O9 2.106878 1_555
Bi5 O13 2.269201 1_555
Bi5 O37 2.309459 1_555
Bi5 O16 2.543460 1_555
Bi5 O0 2.603235 1_655
Bi6 O10 2.107409 1_545
Bi6 O6 2.227110 1_555
Bi6 O21 2.302786 1_555
Bi6 O3 2.561318 1_545
Bi6 O19 2.654906 1_545
Bi7 O11 2.109538 1_565
Bi7 O7 2.248518 1_555
Bi7 O20 2.305873 1_555
Bi7 O2 2.520782 1_565
Bi7 O18 2.599374 1_565
Bi8 O5 2.103182 1_555
Bi8 O13 2.300709 1_555
Bi8 O10 2.331737 1_555
Bi8 O17 2.513718 1_555
Bi8 O11 2.537707 1_565
Bi9 O4 2.126385 1_555
Bi9 O12 2.280216 1_555
Bi9 O11 2.299272 1_555
Bi9 O16 2.531808 1_555
Bi9 O10 2.539867 1_545
Bi10 O18 2.106878 1_555
Bi10 O12 2.269201 1_555
Bi10 O14 2.309459 1_555
Bi10 O23 2.543460 1_555
Bi10 O24 2.603235 1_556
Bi11 O19 2.126385 1_555
Bi11 O13 2.280216 1_555
Bi11 O15 2.299272 1_555
Bi11 O22 2.531808 1_555
Bi11 O25 2.539867 1_554
Bi12 O23 2.272848 1_555
Bi12 O16 2.272849 1_555
Bi12 O22 2.272849 1_555
Bi12 O17 2.282891 1_555
Bi13 O21 2.115343 1_555
Bi13 O26 2.281169 1_555
Bi13 O24 2.319572 1_555
Bi13 O16 2.502484 1_555
Bi13 O14 2.553308 1_554
Bi14 O20 2.103182 1_555
Bi14 O27 2.300709 1_555
Bi14 O25 2.331737 1_555
Bi14 O17 2.513718 1_555
Bi14 O15 2.537707 1_556
Bi15 O34 2.106878 1_555
Bi15 O27 2.269201 1_555
Bi15 O28 2.309459 1_555
Bi15 O22 2.543460 1_555
Bi15 O29 2.603235 1_565
Bi16 O35 2.115343 1_555
Bi16 O26 2.281169 1_555
Bi16 O29 2.319572 1_555
Bi16 O23 2.502484 1_555
Bi16 O28 2.553308 1_545
Bi17 O29 2.099278 1_565
Bi17 O19 2.137887 1_555
Bi17 O33 2.294833 1_555
Bi17 O21 2.451636 1_565
Bi18 O28 2.105161 1_545
Bi18 O18 2.227697 1_555
Bi18 O32 2.298784 1_555
Bi18 O20 2.497379 1_545
Bi18 O36 2.748726 1_545
Bi19 O30 2.126385 1_555
Bi19 O27 2.280216 1_555
Bi19 O1 2.299272 1_555
Bi19 O23 2.531808 1_555
Bi19 O38 2.539867 1_455
Bi20 O31 2.115343 1_555
Bi20 O26 2.281169 1_555
Bi20 O0 2.319572 1_555
Bi20 O22 2.502484 1_555
Bi20 O37 2.553308 1_455
Bi21 O24 2.099278 1_556
Bi21 O30 2.137886 1_555
Bi21 O32 2.294833 1_555
Bi21 O31 2.451636 1_556
Bi22 O25 2.107409 1_554
Bi22 O33 2.227111 1_555
Bi22 O31 2.302786 1_555
Bi22 O36 2.561318 1_554
Bi22 O30 2.654906 1_554
Bi23 O38 2.107409 1_455
Bi23 O32 2.227111 1_555
Bi23 O35 2.302786 1_555
Bi23 O2 2.561318 1_455
Bi23 O4 2.654906 1_455
Bi24 O37 2.105161 1_455
Bi24 O34 2.227697 1_555
Bi24 O33 2.298784 1_555
Bi24 O5 2.497379 1_455
Bi24 O3 2.748726 1_455
Bi25 O3 2.122964 1_445
Bi25 O36 2.122964 1_544
Bi25 O2 2.122964 1_454
