# generated using pymatgen
data_Ca2CrO4
_symmetry_space_group_name_H-M   'P 1'
_cell_length_a   5.64440400
_cell_length_b   9.66316400
_cell_length_c   13.59428300
_cell_angle_alpha   90.00000000
_cell_angle_beta   90.00000000
_cell_angle_gamma   90.00000000
_symmetry_Int_Tables_number   1
_chemical_formula_structural   Ca2CrO4
_chemical_formula_sum   'Ca16 Cr8 O32'
_cell_volume   741.47027967
_cell_formula_units_Z   8
loop_
 _symmetry_equiv_pos_site_id
 _symmetry_equiv_pos_as_xyz
  1  'x, y, z'
loop_
 _atom_site_type_symbol
 _atom_site_label
 _atom_site_symmetry_multiplicity
 _atom_site_fract_x
 _atom_site_fract_y
 _atom_site_fract_z
 _atom_site_occupancy
  Ca  Ca0  1  0.71990700  0.77212100  0.04891000  1
  Ca  Ca1  1  0.68537200  0.41779100  0.12070100  1
  Ca  Ca2  1  0.22669100  0.99552300  0.12827200  1
  Ca  Ca3  1  0.18128900  0.64509800  0.20233800  1
  Ca  Ca4  1  0.68128900  0.14509800  0.29766200  1
  Ca  Ca5  1  0.72669100  0.49552300  0.37172800  1
  Ca  Ca6  1  0.18537200  0.91779100  0.37929900  1
  Ca  Ca7  1  0.21990700  0.27212100  0.45109000  1
  Ca  Ca8  1  0.78009300  0.77212100  0.54891000  1
  Ca  Ca9  1  0.81462800  0.41779100  0.62070100  1
  Ca  Ca10  1  0.27330900  0.99552300  0.62827200  1
  Ca  Ca11  1  0.31871100  0.64509800  0.70233800  1
  Ca  Ca12  1  0.81871100  0.14509800  0.79766200  1
  Ca  Ca13  1  0.77330900  0.49552300  0.87172800  1
  Ca  Ca14  1  0.31462800  0.91779100  0.87929900  1
  Ca  Ca15  1  0.28009300  0.27212100  0.95109000  1
  Cr  Cr0  1  0.77636300  0.12751500  0.02966100  1
  Cr  Cr1  1  0.17658200  0.28387200  0.22640200  1
  Cr  Cr2  1  0.67658200  0.78387200  0.27359800  1
  Cr  Cr3  1  0.27636300  0.62751500  0.47033900  1
  Cr  Cr4  1  0.72363700  0.12751500  0.52966100  1
  Cr  Cr5  1  0.32341800  0.28387200  0.72640200  1
  Cr  Cr6  1  0.82341800  0.78387200  0.77359800  1
  Cr  Cr7  1  0.22363700  0.62751500  0.97033900  1
  O  O0  1  0.55784400  0.99758500  0.01697800  1
  O  O1  1  0.95646700  0.55943900  0.02689200  1
  O  O2  1  0.28572500  0.77264400  0.04834700  1
  O  O3  1  0.35289200  0.24522300  0.11966900  1
  O  O4  1  0.86997100  0.19470500  0.14810200  1
  O  O5  1  0.61368400  0.63971200  0.19126400  1
  O  O6  1  0.94240100  0.84510200  0.19831400  1
  O  O7  1  0.49311900  0.93650800  0.25797700  1
  O  O8  1  0.99311900  0.43650800  0.24202300  1
  O  O9  1  0.44240100  0.34510200  0.30168600  1
  O  O10  1  0.11368400  0.13971200  0.30873600  1
  O  O11  1  0.36997100  0.69470500  0.35189800  1
  O  O12  1  0.85289200  0.74522300  0.38033100  1
  O  O13  1  0.78572500  0.27264400  0.45165300  1
  O  O14  1  0.45646700  0.05943900  0.47310800  1
  O  O15  1  0.05784400  0.49758500  0.48302200  1
  O  O16  1  0.94215600  0.99758500  0.51697800  1
  O  O17  1  0.54353300  0.55943900  0.52689200  1
  O  O18  1  0.21427500  0.77264400  0.54834700  1
  O  O19  1  0.14710800  0.24522300  0.61966900  1
  O  O20  1  0.63002900  0.19470500  0.64810200  1
  O  O21  1  0.88631600  0.63971200  0.69126400  1
  O  O22  1  0.55759900  0.84510200  0.69831400  1
  O  O23  1  0.00688100  0.93650800  0.75797700  1
  O  O24  1  0.50688100  0.43650800  0.74202300  1
  O  O25  1  0.05759900  0.34510200  0.80168600  1
  O  O26  1  0.38631600  0.13971200  0.80873600  1
  O  O27  1  0.13002900  0.69470500  0.85189800  1
  O  O28  1  0.64710800  0.74522300  0.88033100  1
  O  O29  1  0.71427500  0.27264400  0.95165300  1
  O  O30  1  0.04353300  0.05943900  0.97310800  1
  O  O31  1  0.44215600  0.49758500  0.98302200  1
loop_
_geom_bond_atom_site_label_1
_geom_bond_atom_site_label_2
_geom_bond_distance
_geom_bond_site_symmetry_2
Ca0 O28 2.342721 1_554
Ca0 O5 2.396158 1_555
Ca0 O0 2.402481 1_555
Ca0 O2 2.450716 1_555
Ca0 O1 2.469054 1_555
Ca0 O6 2.489903 1_555
Ca1 O5 2.383821 1_555
Ca1 O8 2.402122 1_555
Ca1 O1 2.416867 1_555
Ca1 O4 2.423124 1_555
Ca1 O31 2.445855 1_554
Ca1 O3 2.510528 1_555
Ca1 O29 2.697229 1_554
Ca1 O9 2.903026 1_555
Ca2 O6 2.365229 1_455
Ca2 O7 2.386576 1_555
Ca2 O0 2.404832 1_555
Ca2 O30 2.428904 1_564
Ca2 O2 2.435171 1_555
Ca2 O3 2.518559 1_565
Ca2 O4 2.798449 1_465
Ca2 O10 2.892539 1_565
Ca3 O8 2.341351 1_455
Ca3 O11 2.344728 1_555
Ca3 O6 2.357189 1_455
Ca3 O5 2.445804 1_555
Ca3 O2 2.499770 1_555
Ca3 O1 2.825597 1_455
Ca4 O7 2.341351 1_545
Ca4 O4 2.344728 1_555
Ca4 O9 2.357189 1_555
Ca4 O10 2.445804 1_655
Ca4 O13 2.499770 1_555
Ca4 O14 2.825597 1_555
Ca5 O9 2.365229 1_555
Ca5 O8 2.386576 1_555
Ca5 O15 2.404832 1_655
Ca5 O17 2.428904 1_555
Ca5 O13 2.435171 1_555
Ca5 O12 2.518559 1_555
Ca5 O11 2.798449 1_555
Ca5 O5 2.892539 1_555
Ca6 O10 2.383821 1_565
Ca6 O7 2.402122 1_555
Ca6 O14 2.416867 1_565
Ca6 O11 2.423124 1_555
Ca6 O16 2.445855 1_455
Ca6 O12 2.510528 1_455
Ca6 O18 2.697229 1_555
Ca6 O6 2.903026 1_455
Ca7 O19 2.342721 1_555
Ca7 O10 2.396158 1_555
Ca7 O15 2.402481 1_555
Ca7 O13 2.450716 1_455
Ca7 O14 2.469054 1_555
Ca7 O9 2.489903 1_555
Ca8 O12 2.342721 1_555
Ca8 O21 2.396158 1_555
Ca8 O16 2.402481 1_555
Ca8 O18 2.450716 1_655
Ca8 O17 2.469054 1_555
Ca8 O22 2.489903 1_555
Ca9 O21 2.383821 1_555
Ca9 O24 2.402122 1_555
Ca9 O17 2.416867 1_555
Ca9 O20 2.423124 1_555
Ca9 O15 2.445855 1_655
Ca9 O19 2.510528 1_655
Ca9 O13 2.697229 1_555
Ca9 O25 2.903026 1_655
Ca10 O22 2.365229 1_555
Ca10 O23 2.386576 1_555
Ca10 O16 2.404832 1_455
Ca10 O14 2.428904 1_565
Ca10 O18 2.435171 1_555
Ca10 O19 2.518559 1_565
Ca10 O20 2.798449 1_565
Ca10 O26 2.892539 1_565
Ca11 O24 2.341351 1_555
Ca11 O27 2.344728 1_555
Ca11 O22 2.357189 1_555
Ca11 O21 2.445804 1_455
Ca11 O18 2.499770 1_555
Ca11 O17 2.825597 1_555
Ca12 O23 2.341351 1_645
Ca12 O20 2.344728 1_555
Ca12 O25 2.357189 1_655
Ca12 O26 2.445804 1_555
Ca12 O29 2.499770 1_555
Ca12 O30 2.825597 1_655
Ca13 O25 2.365229 1_655
Ca13 O24 2.386576 1_555
Ca13 O31 2.404832 1_555
Ca13 O1 2.428904 1_556
Ca13 O29 2.435171 1_555
Ca13 O28 2.518559 1_555
Ca13 O27 2.798449 1_655
Ca13 O21 2.892539 1_555
Ca14 O26 2.383821 1_565
Ca14 O23 2.402122 1_555
Ca14 O30 2.416867 1_565
Ca14 O27 2.423124 1_555
Ca14 O0 2.445855 1_556
Ca14 O28 2.510528 1_555
Ca14 O2 2.697229 1_556
Ca14 O22 2.903026 1_555
Ca15 O3 2.342721 1_556
Ca15 O26 2.396158 1_555
Ca15 O31 2.402481 1_555
Ca15 O29 2.450716 1_555
Ca15 O30 2.469054 1_555
Ca15 O25 2.489903 1_555
Cr0 O0 1.768444 1_545
Cr0 O29 1.792801 1_554
Cr0 O4 1.814718 1_555
Cr0 O30 1.816012 1_654
Cr1 O3 1.798643 1_555
Cr1 O8 1.814636 1_455
Cr1 O10 1.821915 1_555
Cr1 O9 1.910147 1_555
Cr1 O4 2.206929 1_455
Cr2 O12 1.798643 1_555
Cr2 O7 1.814636 1_555
Cr2 O5 1.821915 1_555
Cr2 O6 1.910147 1_555
Cr2 O11 2.206929 1_555
Cr3 O15 1.768444 1_555
Cr3 O18 1.792801 1_555
Cr3 O11 1.814718 1_555
Cr3 O17 1.816012 1_555
Cr4 O16 1.768444 1_545
Cr4 O13 1.792801 1_555
Cr4 O20 1.814718 1_555
Cr4 O14 1.816012 1_555
Cr5 O19 1.798643 1_555
Cr5 O24 1.814636 1_555
Cr5 O26 1.821915 1_555
Cr5 O25 1.910147 1_555
Cr5 O20 2.206929 1_555
Cr6 O28 1.798643 1_555
Cr6 O23 1.814636 1_655
Cr6 O21 1.821915 1_555
Cr6 O22 1.910147 1_555
Cr6 O27 2.206929 1_655
Cr7 O31 1.768444 1_555
Cr7 O2 1.792801 1_556
Cr7 O27 1.814718 1_555
Cr7 O1 1.816012 1_456
