# generated using pymatgen
data_ZrAs2O9
_symmetry_space_group_name_H-M   'P 1'
_cell_length_a   5.55927700
_cell_length_b   9.44400700
_cell_length_c   17.03997893
_cell_angle_alpha   68.46605497
_cell_angle_beta   90.00000000
_cell_angle_gamma   90.00000000
_symmetry_Int_Tables_number   1
_chemical_formula_structural   ZrAs2O9
_chemical_formula_sum   'Zr4 As8 O36'
_cell_volume   832.18547041
_cell_formula_units_Z   4
loop_
 _symmetry_equiv_pos_site_id
 _symmetry_equiv_pos_as_xyz
  1  'x, y, z'
loop_
 _atom_site_type_symbol
 _atom_site_label
 _atom_site_symmetry_multiplicity
 _atom_site_fract_x
 _atom_site_fract_y
 _atom_site_fract_z
 _atom_site_occupancy
  Zr  Zr0  1  0.22199200  0.73622500  0.98500700  1
  Zr  Zr1  1  0.72199200  0.26377500  0.51499300  1
  Zr  Zr2  1  0.77800800  0.26377500  0.01499300  1
  Zr  Zr3  1  0.27800800  0.73622500  0.48500700  1
  As  As0  1  0.26830800  0.01674100  0.09471700  1
  As  As1  1  0.76830800  0.98325900  0.40528300  1
  As  As2  1  0.73169200  0.98325900  0.90528300  1
  As  As3  1  0.23169200  0.01674100  0.59471700  1
  As  As4  1  0.77451500  0.54101300  0.61283600  1
  As  As5  1  0.27451500  0.45898700  0.88716400  1
  As  As6  1  0.22548500  0.45898700  0.38716400  1
  As  As7  1  0.72548500  0.54101300  0.11283600  1
  O  O0  1  0.33333300  0.88713900  0.05285000  1
  O  O1  1  0.83333300  0.11286100  0.44715000  1
  O  O2  1  0.66666700  0.11286100  0.94715000  1
  O  O3  1  0.16666700  0.88713900  0.55285000  1
  O  O4  1  0.98026800  0.05991200  0.10482700  1
  O  O5  1  0.48026800  0.94008800  0.39517300  1
  O  O6  1  0.01973200  0.94008800  0.89517300  1
  O  O7  1  0.51973200  0.05991200  0.60482700  1
  O  O8  1  0.48343200  0.13825600  0.09890900  1
  O  O9  1  0.98343200  0.86174400  0.40109100  1
  O  O10  1  0.51656800  0.86174400  0.90109100  1
  O  O11  1  0.01656800  0.13825600  0.59890900  1
  O  O12  1  0.32328500  0.86194200  0.22606600  1
  O  O13  1  0.82328500  0.13805800  0.27393400  1
  O  O14  1  0.67671500  0.13805800  0.77393400  1
  O  O15  1  0.17671500  0.86194200  0.72606600  1
  O  O16  1  0.59234100  0.69185300  0.55130300  1
  O  O17  1  0.09234100  0.30814700  0.94869700  1
  O  O18  1  0.40765900  0.30814700  0.44869700  1
  O  O19  1  0.90765900  0.69185300  0.05130300  1
  O  O20  1  0.05591300  0.58492500  0.56542500  1
  O  O21  1  0.55591300  0.41507500  0.93457500  1
  O  O22  1  0.94408700  0.41507500  0.43457500  1
  O  O23  1  0.44408700  0.58492500  0.06542500  1
  O  O24  1  0.77495000  0.51046400  0.71525400  1
  O  O25  1  0.27495000  0.48953600  0.78474600  1
  O  O26  1  0.22505000  0.48953600  0.28474600  1
  O  O27  1  0.72505000  0.51046400  0.21525400  1
  O  O28  1  0.32651300  0.61296600  0.41158600  1
  O  O29  1  0.82651300  0.38703400  0.08841400  1
  O  O30  1  0.67348700  0.38703400  0.58841400  1
  O  O31  1  0.17348700  0.61296600  0.91158600  1
  O  O32  1  0.98456800  0.78847100  0.73942500  1
  O  O33  1  0.48456800  0.21152900  0.76057500  1
  O  O34  1  0.01543200  0.21152900  0.26057500  1
  O  O35  1  0.51543200  0.78847100  0.23942500  1
loop_
_geom_bond_atom_site_label_1
_geom_bond_atom_site_label_2
_geom_bond_distance
_geom_bond_site_symmetry_2
As0 O0 1.666953 1_545
As0 O4 1.676785 1_455
As0 O8 1.677050 1_555
As0 O12 2.199561 1_545
As1 O1 1.666953 1_565
As1 O5 1.676785 1_555
As1 O9 1.677050 1_555
As1 O13 2.199561 1_565
As2 O2 1.666953 1_565
As2 O6 1.676785 1_655
As2 O10 1.677050 1_555
As2 O14 2.199561 1_565
As3 O3 1.666953 1_545
As3 O7 1.676785 1_555
As3 O11 1.677050 1_555
As3 O15 2.199561 1_545
As4 O24 1.661128 1_555
As4 O20 1.739528 1_655
As4 O30 1.745711 1_555
As4 O16 1.748676 1_555
As5 O25 1.661128 1_555
As5 O21 1.739528 1_555
As5 O31 1.745711 1_555
As5 O17 1.748676 1_555
As6 O26 1.661128 1_555
As6 O22 1.739528 1_455
As6 O28 1.745711 1_555
As6 O18 1.748676 1_555
As7 O27 1.661128 1_555
As7 O23 1.739528 1_555
As7 O29 1.745711 1_555
As7 O19 1.748676 1_555
O0 Zr0 2.227193 1_554
O1 Zr1 2.227193 1_555
O2 Zr2 2.227193 1_556
O3 Zr3 2.227193 1_555
O4 Zr2 2.269529 1_555
O5 Zr3 2.269529 1_555
O6 Zr0 2.269529 1_555
O7 Zr1 2.269529 1_555
O8 Zr2 2.210738 1_555
O9 Zr3 2.210738 1_655
O10 Zr0 2.210738 1_555
O11 Zr1 2.210738 1_455
O12 O35 1.248342 1_555
O13 O34 1.248342 1_655
O14 O33 1.248342 1_555
O15 O32 1.248342 1_455
O16 Zr3 2.039092 1_555
O17 Zr2 2.039092 1_456
O18 Zr1 2.039092 1_555
O19 Zr0 2.039092 1_654
O20 Zr3 2.001633 1_555
O21 Zr2 2.001633 1_556
O22 Zr1 2.001633 1_555
O23 Zr0 2.001633 1_554
O28 Zr3 2.015462 1_555
O29 Zr2 2.015462 1_555
O30 Zr1 2.015462 1_555
O31 Zr0 2.015462 1_555
