# generated using pymatgen
data_Li4Fe5Cu3O16
_symmetry_space_group_name_H-M   'P 1'
_cell_length_a   5.91311938
_cell_length_b   5.85010276
_cell_length_c   9.50225371
_cell_angle_alpha   89.98934863
_cell_angle_beta   89.23733091
_cell_angle_gamma   119.62669938
_symmetry_Int_Tables_number   1
_chemical_formula_structural   Li4Fe5Cu3O16
_chemical_formula_sum   'Li4 Fe5 Cu3 O16'
_cell_volume   285.69796947
_cell_formula_units_Z   1
loop_
 _symmetry_equiv_pos_site_id
 _symmetry_equiv_pos_as_xyz
  1  'x, y, z'
loop_
 _atom_site_type_symbol
 _atom_site_label
 _atom_site_symmetry_multiplicity
 _atom_site_fract_x
 _atom_site_fract_y
 _atom_site_fract_z
 _atom_site_occupancy
  Li  Li0  1  0.32012200  0.66032200  0.89536300  1
  Li  Li1  1  0.00042800  0.00030200  0.99692300  1
  Li  Li2  1  0.01279900  0.00621000  0.49298600  1
  Li  Li3  1  0.67364100  0.33681500  0.39340600  1
  Fe  Fe0  1  0.34206900  0.67096800  0.49114000  1
  Fe  Fe1  1  0.65702400  0.82862400  0.21441300  1
  Fe  Fe2  1  0.65560200  0.32793800  0.99054300  1
  Fe  Fe3  1  0.83109400  0.66158600  0.71555400  1
  Fe  Fe4  1  0.83111600  0.16946600  0.71552100  1
  Cu  Cu0  1  0.16920000  0.82929000  0.21287200  1
  Cu  Cu1  1  0.16937500  0.34016300  0.21281800  1
  Cu  Cu2  1  0.34227200  0.17120300  0.71145000  1
  O  O0  1  0.16698700  0.83388500  0.59637600  1
  O  O1  1  0.04469800  0.52219700  0.34103400  1
  O  O2  1  0.32256900  0.66139600  0.10727800  1
  O  O3  1  0.00856200  0.00409900  0.30264400  1
  O  O4  1  0.01547500  0.00762700  0.80795800  1
  O  O5  1  0.16742800  0.33259000  0.59643000  1
  O  O6  1  0.49313200  0.96586800  0.34260100  1
  O  O7  1  0.49360800  0.52765900  0.34264600  1
  O  O8  1  0.31905000  0.15957700  0.09914200  1
  O  O9  1  0.67916000  0.83949400  0.60023800  1
  O  O10  1  0.51489700  0.48212900  0.84285800  1
  O  O11  1  0.51441700  0.03314800  0.84272000  1
  O  O12  1  0.66303000  0.33151600  0.60382400  1
  O  O13  1  0.81607300  0.66517600  0.09870700  1
  O  O14  1  0.96052700  0.48024700  0.84178700  1
  O  O15  1  0.81564300  0.15080500  0.09860700  1
loop_
_geom_bond_atom_site_label_1
_geom_bond_atom_site_label_2
_geom_bond_distance
_geom_bond_site_symmetry_2
Li0 O14 1.924725 1_455
Li0 O10 1.958067 1_555
Li0 O11 1.958075 1_565
Li0 O2 2.013903 1_556
Li1 O4 1.796067 1_555
Li1 O8 1.916947 1_556
Li1 O13 1.955920 1_446
Li1 O15 1.956034 1_456
Li2 O3 1.809145 1_555
Li2 O0 1.935191 1_545
Li2 O5 1.935565 1_555
Li2 O9 1.981342 1_445
Li3 O7 1.949607 1_555
Li3 O6 1.950794 1_545
Li3 O1 1.963675 1_655
Li3 O12 1.999348 1_555
Fe0 O0 1.982038 1_555
Fe0 O5 1.984099 1_555
Fe0 O9 2.032790 1_555
Fe0 O7 2.050934 1_555
Fe0 O6 2.051420 1_555
Fe0 O1 2.106662 1_555
Fe1 O7 1.950440 1_555
Fe1 O6 1.950834 1_555
Fe1 O15 1.966471 1_565
Fe1 O13 1.967126 1_555
Fe1 O3 2.003649 1_665
Fe1 O2 2.011397 1_555
Fe2 O8 2.000599 1_556
Fe2 O15 2.004700 1_556
Fe2 O13 2.006203 1_556
Fe2 O10 2.061040 1_555
Fe2 O11 2.062221 1_555
Fe2 O14 2.094338 1_555
Fe3 O4 1.975280 1_665
Fe3 O12 1.993723 1_555
Fe3 O14 1.994161 1_555
Fe3 O9 2.010298 1_555
Fe3 O10 2.014921 1_555
Fe3 O0 2.050290 1_655
Fe4 O4 1.975329 1_655
Fe4 O12 1.993086 1_555
Fe4 O14 1.995078 1_555
Fe4 O9 2.011416 1_545
Fe4 O11 2.016593 1_555
Fe4 O5 2.051681 1_655
Cu0 O3 1.901289 1_565
Cu0 O2 1.910693 1_555
Cu0 O1 1.979967 1_555
Cu0 O8 1.991851 1_565
Cu0 O6 2.092134 1_555
Cu0 O13 2.130097 1_455
Cu1 O3 1.904567 1_555
Cu1 O2 1.910476 1_555
Cu1 O1 1.978559 1_555
Cu1 O8 1.991376 1_555
Cu1 O7 2.094062 1_555
Cu1 O15 2.133069 1_455
Cu2 O4 1.901330 1_555
Cu2 O12 1.926699 1_555
Cu2 O11 2.022516 1_555
Cu2 O10 2.027009 1_555
Cu2 O5 2.037054 1_555
Cu2 O0 2.042745 1_545
