# generated using pymatgen
data_Li5Co4(SiO4)4
_symmetry_space_group_name_H-M   'P 1'
_cell_length_a   8.31130302
_cell_length_b   8.31130302
_cell_length_c   10.49274464
_cell_angle_alpha   89.89784278
_cell_angle_beta   89.89784278
_cell_angle_gamma   75.40736182
_symmetry_Int_Tables_number   1
_chemical_formula_structural   Li5Co4(SiO4)4
_chemical_formula_sum   'Li10 Co8 Si8 O32'
_cell_volume   701.43207597
_cell_formula_units_Z   2
loop_
 _symmetry_equiv_pos_site_id
 _symmetry_equiv_pos_as_xyz
  1  'x, y, z'
loop_
 _atom_site_type_symbol
 _atom_site_label
 _atom_site_symmetry_multiplicity
 _atom_site_fract_x
 _atom_site_fract_y
 _atom_site_fract_z
 _atom_site_occupancy
  Li  Li0  1  0.03602400  0.10028000  0.15778400  1
  Li  Li1  1  0.53523200  0.60147700  0.15738700  1
  Li  Li2  1  0.53369400  0.10000200  0.33594800  1
  Li  Li3  1  0.03479100  0.59072900  0.33759600  1
  Li  Li4  1  0.94411000  0.93013000  0.42154300  1
  Li  Li5  1  0.10028000  0.03602400  0.65778400  1
  Li  Li6  1  0.60147700  0.53523200  0.65738700  1
  Li  Li7  1  0.10000200  0.53369400  0.83594800  1
  Li  Li8  1  0.59072900  0.03479100  0.83759600  1
  Li  Li9  1  0.93013000  0.94411000  0.92154300  1
  Co  Co0  1  0.77530700  0.84531900  0.16150200  1
  Co  Co1  1  0.28339200  0.34733400  0.15262200  1
  Co  Co2  1  0.29117300  0.84188300  0.34145600  1
  Co  Co3  1  0.77856000  0.35433000  0.33554100  1
  Co  Co4  1  0.34733400  0.28339200  0.65262200  1
  Co  Co5  1  0.84531900  0.77530700  0.66150200  1
  Co  Co6  1  0.84188300  0.29117300  0.84145600  1
  Co  Co7  1  0.35433000  0.77856000  0.83554100  1
  Si  Si0  1  0.65872800  0.22388700  0.09538700  1
  Si  Si1  1  0.16217300  0.72713200  0.09098700  1
  Si  Si2  1  0.15756200  0.21678900  0.40287400  1
  Si  Si3  1  0.66480000  0.72533300  0.41068200  1
  Si  Si4  1  0.72713200  0.16217300  0.59098700  1
  Si  Si5  1  0.22388700  0.65872800  0.59538700  1
  Si  Si6  1  0.21678900  0.15756200  0.90287400  1
  Si  Si7  1  0.72533300  0.66480000  0.91068200  1
  O  O0  1  0.18796800  0.20868100  0.05409000  1
  O  O1  1  0.68891800  0.69137000  0.06136700  1
  O  O2  1  0.99467800  0.88239400  0.09913600  1
  O  O3  1  0.49152300  0.38136000  0.11095500  1
  O  O4  1  0.61860200  0.06256200  0.16146500  1
  O  O5  1  0.13003700  0.55728300  0.15757500  1
  O  O6  1  0.31519300  0.77410300  0.17067600  1
  O  O7  1  0.81616700  0.27264600  0.16869100  1
  O  O8  1  0.31029900  0.25725900  0.31968000  1
  O  O9  1  0.82524000  0.77815700  0.34497300  1
  O  O10  1  0.11434700  0.04450500  0.34680000  1
  O  O11  1  0.63046400  0.56219100  0.33459500  1
  O  O12  1  0.99161900  0.37085100  0.38180100  1
  O  O13  1  0.49537100  0.87821500  0.38212400  1
  O  O14  1  0.69455800  0.20762200  0.43806200  1
  O  O15  1  0.18553100  0.71310800  0.44303000  1
  O  O16  1  0.20868100  0.18796800  0.55409000  1
  O  O17  1  0.69137000  0.68891800  0.56136700  1
  O  O18  1  0.88239400  0.99467800  0.59913600  1
  O  O19  1  0.38136000  0.49152300  0.61095500  1
  O  O20  1  0.55728300  0.13003700  0.65757500  1
  O  O21  1  0.06256200  0.61860200  0.66146500  1
  O  O22  1  0.27264600  0.81616700  0.66869100  1
  O  O23  1  0.77410300  0.31519300  0.67067600  1
  O  O24  1  0.25725900  0.31029900  0.81968000  1
  O  O25  1  0.77815700  0.82524000  0.84497300  1
  O  O26  1  0.04450500  0.11434700  0.84680000  1
  O  O27  1  0.56219100  0.63046400  0.83459500  1
  O  O28  1  0.37085100  0.99161900  0.88180100  1
  O  O29  1  0.87821500  0.49537100  0.88212400  1
  O  O30  1  0.71310800  0.18553100  0.94303000  1
  O  O31  1  0.20762200  0.69455800  0.93806200  1
loop_
_geom_bond_atom_site_label_1
_geom_bond_atom_site_label_2
_geom_bond_distance
_geom_bond_site_symmetry_2
Li0 O7 2.021186 1_455
Li0 O2 2.023486 1_445
Li0 O0 2.038443 1_555
Li0 O10 2.102708 1_555
Li1 O1 1.917932 1_555
Li1 O3 2.013691 1_555
Li1 O11 2.015765 1_555
Li1 O6 2.024882 1_555
Li2 O4 1.957922 1_555
Li2 O8 1.990550 1_555
Li2 O13 2.006543 1_545
Li2 O14 2.084884 1_555
Li3 O12 2.002584 1_455
Li3 O9 2.024553 1_455
Li3 O5 2.039016 1_555
Li3 O15 2.116393 1_555
Li4 O9 1.962709 1_555
Li4 O18 1.970993 1_555
Li4 O10 2.047376 1_665
Li4 O15 2.346677 1_655
Li5 O22 2.021186 1_545
Li5 O18 2.023486 1_445
Li5 O16 2.038443 1_555
Li5 O26 2.102708 1_555
Li6 O17 1.917932 1_555
Li6 O19 2.013691 1_555
Li6 O27 2.015765 1_555
Li6 O23 2.024882 1_555
Li7 O21 1.957922 1_555
Li7 O24 1.990550 1_555
Li7 O29 2.006543 1_455
Li7 O31 2.084884 1_555
Li8 O28 2.002584 1_545
Li8 O25 2.024553 1_545
Li8 O20 2.039016 1_555
Li8 O30 2.116393 1_555
Li9 O25 1.962709 1_555
Li9 O2 1.970993 1_556
Li9 O26 2.047376 1_665
Li9 O30 2.346677 1_565
Co0 O1 1.930558 1_555
Co0 O4 1.942019 1_565
Co0 O9 2.017963 1_555
Co0 O2 2.031151 1_555
Co1 O0 1.869116 1_555
Co1 O3 1.872654 1_555
Co1 O5 1.884543 1_555
Co1 O8 1.896175 1_555
Co2 O13 1.847937 1_555
Co2 O6 1.874553 1_555
Co2 O15 1.875758 1_555
Co2 O10 1.937005 1_565
Co3 O11 1.851544 1_555
Co3 O12 1.875103 1_555
Co3 O7 1.875890 1_555
Co3 O14 1.884942 1_555
Co4 O16 1.869116 1_555
Co4 O19 1.872654 1_555
Co4 O20 1.884543 1_555
Co4 O24 1.896175 1_555
Co5 O17 1.930558 1_555
Co5 O21 1.942019 1_655
Co5 O25 2.017963 1_555
Co5 O18 2.031151 1_555
Co6 O29 1.847937 1_555
Co6 O23 1.874553 1_555
Co6 O30 1.875758 1_555
Co6 O26 1.937005 1_655
Co7 O27 1.851544 1_555
Co7 O28 1.875103 1_555
Co7 O22 1.875890 1_555
Co7 O31 1.884942 1_555
O0 Si6 1.644743 1_554
O1 Si7 1.614343 1_554
O2 Si1 1.644762 1_655
O3 Si0 1.659626 1_555
O4 Si0 1.615835 1_555
O5 Si1 1.654725 1_555
O6 Si1 1.650503 1_555
O7 Si0 1.655286 1_555
O8 Si2 1.642191 1_555
O9 Si3 1.654354 1_555
O10 Si2 1.669864 1_555
O11 Si3 1.660421 1_555
O12 Si2 1.643430 1_655
O13 Si3 1.669082 1_555
O14 Si4 1.654869 1_555
O15 Si5 1.669791 1_555
O16 Si2 1.644743 1_555
O17 Si3 1.614343 1_555
O18 Si4 1.644762 1_565
O19 Si5 1.659626 1_555
O20 Si4 1.654725 1_555
O21 Si5 1.615835 1_555
O22 Si5 1.655286 1_555
O23 Si4 1.650503 1_555
O24 Si6 1.642191 1_555
O25 Si7 1.654354 1_555
O26 Si6 1.669864 1_555
O27 Si7 1.660421 1_555
O28 Si6 1.643430 1_565
O29 Si7 1.669082 1_555
O30 Si0 1.669791 1_556
O31 Si1 1.654869 1_556
