# generated using pymatgen
data_Li3TiMn3O8
_symmetry_space_group_name_H-M   'P 1'
_cell_length_a   5.87327039
_cell_length_b   5.87327039
_cell_length_c   9.67673647
_cell_angle_alpha   87.65822253
_cell_angle_beta   87.65822253
_cell_angle_gamma   118.06278672
_symmetry_Int_Tables_number   1
_chemical_formula_structural   Li3TiMn3O8
_chemical_formula_sum   'Li6 Ti2 Mn6 O16'
_cell_volume   293.62761391
_cell_formula_units_Z   2
loop_
 _symmetry_equiv_pos_site_id
 _symmetry_equiv_pos_as_xyz
  1  'x, y, z'
loop_
 _atom_site_type_symbol
 _atom_site_label
 _atom_site_symmetry_multiplicity
 _atom_site_fract_x
 _atom_site_fract_y
 _atom_site_fract_z
 _atom_site_occupancy
  Li  Li0  1  0.35215300  0.16740500  0.55158200  1
  Li  Li1  1  0.82892200  0.65159700  0.56229100  1
  Li  Li2  1  0.82823900  0.17599000  0.55841500  1
  Li  Li3  1  0.17599000  0.82823900  0.05841500  1
  Li  Li4  1  0.16740500  0.35215300  0.05158200  1
  Li  Li5  1  0.65159700  0.82892200  0.06229100  1
  Ti  Ti0  1  0.64499300  0.32532500  0.00239800  1
  Ti  Ti1  1  0.32532500  0.64499300  0.50239800  1
  Mn  Mn0  1  0.33957400  0.16951700  0.28122300  1
  Mn  Mn1  1  0.83149700  0.65870700  0.28722500  1
  Mn  Mn2  1  0.83152000  0.16381000  0.28705300  1
  Mn  Mn3  1  0.16381000  0.83152000  0.78705300  1
  Mn  Mn4  1  0.16951700  0.33957400  0.78122300  1
  Mn  Mn5  1  0.65870700  0.83149700  0.78722500  1
  O  O0  1  0.97579000  0.98714200  0.17555200  1
  O  O1  1  0.98714200  0.97579000  0.67555200  1
  O  O2  1  0.33813400  0.19315400  0.90854200  1
  O  O3  1  0.49382500  0.46871500  0.14984000  1
  O  O4  1  0.50068900  0.03593500  0.14836700  1
  O  O5  1  0.69297600  0.33767500  0.40360600  1
  O  O6  1  0.83271100  0.68333400  0.91005700  1
  O  O7  1  0.95402100  0.47943300  0.15802300  1
  O  O8  1  0.19902800  0.85141900  0.41096300  1
  O  O9  1  0.85141900  0.19902800  0.91096300  1
  O  O10  1  0.03593500  0.50068900  0.64836700  1
  O  O11  1  0.33767500  0.69297600  0.90360600  1
  O  O12  1  0.47943300  0.95402100  0.65802300  1
  O  O13  1  0.19315400  0.33813400  0.40854200  1
  O  O14  1  0.46871500  0.49382500  0.64984000  1
  O  O15  1  0.68333400  0.83271100  0.41005700  1
loop_
_geom_bond_atom_site_label_1
_geom_bond_atom_site_label_2
_geom_bond_distance
_geom_bond_site_symmetry_2
Li0 O14 2.003866 1_555
Li0 O12 2.007316 1_545
Li0 O13 2.160253 1_555
Li0 O1 2.170494 1_445
Li0 O5 2.196073 1_555
Li0 O8 2.200151 1_545
Li1 O10 1.998493 1_655
Li1 O14 1.999253 1_555
Li1 O1 2.068630 1_555
Li1 O15 2.205327 1_555
Li1 O5 2.311127 1_555
Li1 O8 2.333660 1_655
Li2 O10 1.978934 1_655
Li2 O12 2.012120 1_545
Li2 O5 2.113731 1_555
Li2 O1 2.132709 1_545
Li2 O13 2.305746 1_655
Li2 O15 2.360551 1_545
Li3 O4 1.978934 1_565
Li3 O7 2.012120 1_455
Li3 O11 2.113731 1_554
Li3 O0 2.132709 1_455
Li3 O2 2.305746 1_564
Li3 O6 2.360551 1_454
Li4 O3 2.003866 1_555
Li4 O7 2.007316 1_455
Li4 O2 2.160253 1_554
Li4 O0 2.170494 1_445
Li4 O11 2.196073 1_554
Li4 O9 2.200151 1_454
Li5 O4 1.998493 1_565
Li5 O3 1.999253 1_555
Li5 O0 2.068630 1_555
Li5 O6 2.205327 1_554
Li5 O11 2.311127 1_554
Li5 O9 2.333660 1_564
Mn0 O3 1.936627 1_555
Mn0 O4 1.960943 1_555
Mn0 O8 2.005153 1_545
Mn0 O13 2.013114 1_555
Mn0 O0 2.207436 1_445
Mn0 O5 2.248073 1_555
Mn1 O5 1.947725 1_555
Mn1 O0 1.955419 1_555
Mn1 O7 1.984085 1_555
Mn1 O15 2.016424 1_555
Mn1 O3 2.280419 1_555
Mn1 O8 2.323273 1_655
Mn2 O5 1.943668 1_555
Mn2 O0 1.950079 1_545
Mn2 O7 1.998885 1_555
Mn2 O15 2.022279 1_545
Mn2 O4 2.250113 1_555
Mn2 O13 2.279905 1_655
Mn3 O11 1.943668 1_555
Mn3 O1 1.950079 1_455
Mn3 O12 1.998885 1_555
Mn3 O6 2.022279 1_455
Mn3 O10 2.250113 1_555
Mn3 O2 2.279905 1_565
Mn4 O14 1.936627 1_555
Mn4 O10 1.960943 1_555
Mn4 O9 2.005153 1_455
Mn4 O2 2.013114 1_555
Mn4 O1 2.207436 1_445
Mn4 O11 2.248073 1_555
Mn5 O11 1.947725 1_555
Mn5 O1 1.955419 1_555
Mn5 O12 1.984085 1_555
Mn5 O6 2.016424 1_555
Mn5 O14 2.280419 1_555
Mn5 O9 2.323273 1_565
O2 Ti0 1.884322 1_556
O3 Ti0 2.057024 1_555
O4 Ti0 1.988205 1_555
O6 Ti0 2.005003 1_556
O7 Ti0 2.273858 1_555
O8 Ti1 1.901347 1_555
O9 Ti0 1.901347 1_556
O10 Ti1 1.988205 1_555
O12 Ti1 2.273858 1_555
O13 Ti1 1.884322 1_555
O14 Ti1 2.057024 1_555
O15 Ti1 2.005003 1_555
