# generated using pymatgen
data_Li2VO2F
_symmetry_space_group_name_H-M   'P 1'
_cell_length_a   3.02528600
_cell_length_b   8.96513100
_cell_length_c   9.07367462
_cell_angle_alpha   70.53758108
_cell_angle_beta   90.00000000
_cell_angle_gamma   90.00000000
_symmetry_Int_Tables_number   1
_chemical_formula_structural   Li2VO2F
_chemical_formula_sum   'Li8 V4 O8 F4'
_cell_volume   232.03505403
_cell_formula_units_Z   4
loop_
 _symmetry_equiv_pos_site_id
 _symmetry_equiv_pos_as_xyz
  1  'x, y, z'
loop_
 _atom_site_type_symbol
 _atom_site_label
 _atom_site_symmetry_multiplicity
 _atom_site_fract_x
 _atom_site_fract_y
 _atom_site_fract_z
 _atom_site_occupancy
  Li  Li0  1  0.00000000  0.25072500  0.91114000  1
  Li  Li1  1  0.00000000  0.73902400  0.38502900  1
  Li  Li2  1  0.00000000  0.25818000  0.59021400  1
  Li  Li3  1  0.00000000  0.74425300  0.11971000  1
  Li  Li4  1  0.50000000  0.49808900  0.65799200  1
  Li  Li5  1  0.50000000  0.00088700  0.84704900  1
  Li  Li6  1  0.50000000  0.53006300  0.32743000  1
  Li  Li7  1  0.50000000  0.97267800  0.14745900  1
  V  V0  1  0.00000000  0.25988400  0.24623500  1
  V  V1  1  0.00000000  0.74749900  0.75184300  1
  V  V2  1  0.50000000  0.99739100  0.51820400  1
  V  V3  1  0.50000000  0.50310500  0.99683900  1
  O  O0  1  0.00000000  0.50412400  0.84008400  1
  O  O1  1  0.00000000  0.99719600  0.66232000  1
  O  O2  1  0.00000000  0.49169000  0.15803800  1
  O  O3  1  0.50000000  0.25821100  0.09357900  1
  O  O4  1  0.50000000  0.23088800  0.40691200  1
  O  O5  1  0.50000000  0.74186800  0.90376500  1
  O  O6  1  0.50000000  0.76212800  0.59461000  1
  O  O7  1  0.50000000  0.75441200  0.25010900  1
  F  F0  1  0.00000000  0.00464800  0.34520700  1
  F  F1  1  0.00000000  0.01319500  0.99074300  1
  F  F2  1  0.00000000  0.49008500  0.50740000  1
  F  F3  1  0.50000000  0.24977600  0.74808900  1
loop_
_geom_bond_atom_site_label_1
_geom_bond_atom_site_label_2
_geom_bond_distance
_geom_bond_site_symmetry_2
Li0 O0 2.144883 1_555
Li0 O3 2.259856 1_456
Li0 O3 2.259856 1_556
Li1 O7 1.921794 1_455
Li1 O7 1.921794 1_555
Li1 O6 2.491951 1_555
Li1 O6 2.491951 1_455
Li2 O1 2.209619 1_545
Li2 O4 2.320657 1_455
Li2 O4 2.320657 1_555
Li3 O7 1.941173 1_455
Li3 O7 1.941173 1_555
Li3 O2 2.173265 1_555
Li3 O5 2.481082 1_454
Li3 O5 2.481082 1_554
Li4 O6 2.242084 1_555
Li4 O0 2.253995 1_555
Li4 O0 2.253995 1_655
Li5 O5 2.204729 1_545
Li5 O1 2.266207 1_545
Li5 O1 2.266207 1_645
Li6 O7 1.896652 1_555
Li6 O2 2.263003 1_555
Li6 O2 2.263003 1_655
Li6 O4 2.534760 1_555
Li7 O7 1.866014 1_555
Li7 O3 2.440869 1_565
O0 V1 2.058536 1_555
O0 V3 2.074265 1_555
O0 V3 2.074265 1_455
O1 V2 1.999137 1_455
O1 V2 1.999137 1_555
O1 V1 2.111701 1_555
O2 V0 1.962391 1_555
O2 V3 2.082837 1_554
O2 V3 2.082837 1_454
O3 V0 2.054459 1_655
O3 V0 2.054459 1_555
O3 V3 2.075217 1_554
O4 V2 1.998282 1_545
O4 V0 2.056374 1_655
O4 V0 2.056374 1_555
O5 V3 2.022499 1_555
O5 V1 2.035805 1_555
O5 V1 2.035805 1_655
O6 V2 1.988669 1_555
O6 V1 2.053295 1_555
O6 V1 2.053295 1_655
F0 V0 2.161735 1_555
F0 V2 2.165244 1_445
F0 V2 2.165244 1_545
F0 Li1 2.286486 1_545
F0 Li7 2.435663 1_445
F0 Li7 2.435663 1_545
F1 Li0 2.007850 1_555
F1 Li5 2.023886 1_455
F1 Li5 2.023886 1_555
F1 Li7 2.024324 1_546
F1 Li7 2.024324 1_446
F1 Li3 2.302740 1_546
F2 Li2 1.961141 1_555
F2 Li4 2.055648 1_555
F2 Li4 2.055648 1_455
F2 Li1 2.135970 1_555
F2 Li6 2.166376 1_455
F2 Li6 2.166376 1_555
F3 Li2 2.067346 1_555
F3 Li2 2.067346 1_655
F3 Li4 2.100324 1_555
F3 Li5 2.109489 1_555
F3 Li0 2.117873 1_555
F3 Li0 2.117873 1_655
