# generated using pymatgen
data_Li6FeS4
_symmetry_space_group_name_H-M   'P 1'
_cell_length_a   8.07712437
_cell_length_b   8.07712437
_cell_length_c   6.28647500
_cell_angle_alpha   90.00000000
_cell_angle_beta   90.00000000
_cell_angle_gamma   120.00000303
_symmetry_Int_Tables_number   1
_chemical_formula_structural   Li6FeS4
_chemical_formula_sum   'Li12 Fe2 S8'
_cell_volume   355.18232961
_cell_formula_units_Z   2
loop_
 _symmetry_equiv_pos_site_id
 _symmetry_equiv_pos_as_xyz
  1  'x, y, z'
loop_
 _atom_site_type_symbol
 _atom_site_label
 _atom_site_symmetry_multiplicity
 _atom_site_fract_x
 _atom_site_fract_y
 _atom_site_fract_z
 _atom_site_occupancy
  Li  Li0  1  0.15236300  0.84763700  0.52627300  1
  Li  Li1  1  0.07940500  0.53970200  0.88669200  1
  Li  Li2  1  0.46029800  0.92059500  0.88669200  1
  Li  Li3  1  0.15236300  0.30472500  0.52627300  1
  Li  Li4  1  0.46029800  0.53970200  0.88669200  1
  Li  Li5  1  0.30472500  0.15236300  0.02627300  1
  Li  Li6  1  0.69527500  0.84763700  0.52627300  1
  Li  Li7  1  0.53970200  0.46029800  0.38669200  1
  Li  Li8  1  0.84763700  0.69527500  0.02627300  1
  Li  Li9  1  0.53970200  0.07940500  0.38669200  1
  Li  Li10  1  0.92059500  0.46029800  0.38669200  1
  Li  Li11  1  0.84763700  0.15236300  0.02627300  1
  Fe  Fe0  1  0.33333300  0.66666700  0.25301500  1
  Fe  Fe1  1  0.66666700  0.33333300  0.75301500  1
  S  S0  1  0.17836000  0.82164000  0.13334300  1
  S  S1  1  0.33333300  0.66666700  0.61934800  1
  S  S2  1  0.17836000  0.35672000  0.13334300  1
  S  S3  1  0.64328000  0.82164000  0.13334300  1
  S  S4  1  0.35672000  0.17836000  0.63334300  1
  S  S5  1  0.82164000  0.64328000  0.63334300  1
  S  S6  1  0.66666700  0.33333300  0.11934800  1
  S  S7  1  0.82164000  0.17836000  0.63334300  1
loop_
_geom_bond_atom_site_label_1
_geom_bond_atom_site_label_2
_geom_bond_distance
_geom_bond_site_symmetry_2
Li0 S5 2.429837 1_455
Li0 S4 2.429837 1_565
Li0 S0 2.496776 1_555
Li0 S1 2.598501 1_555
Li1 S1 2.445315 1_555
Li1 S2 2.531556 1_556
Li1 S0 2.531562 1_556
Li2 S1 2.445315 1_555
Li2 S3 2.531556 1_556
Li2 S0 2.531562 1_556
Li3 S4 2.429831 1_555
Li3 S7 2.429838 1_455
Li3 S2 2.496777 1_555
Li3 S1 2.598515 1_555
Li4 S1 2.445325 1_555
Li4 S2 2.531561 1_556
Li4 S3 2.531561 1_556
Li5 S2 2.429831 1_555
Li5 S0 2.429838 1_545
Li5 S4 2.496777 1_554
Li5 S6 2.598515 1_555
Li6 S5 2.429831 1_555
Li6 S7 2.429838 1_565
Li6 S3 2.496777 1_555
Li6 S1 2.598515 1_555
Li7 S6 2.445325 1_555
Li7 S4 2.531561 1_555
Li7 S5 2.531561 1_555
Li8 S3 2.429831 1_555
Li8 S0 2.429838 1_655
Li8 S5 2.496777 1_554
Li8 S6 2.598515 1_555
Li9 S6 2.445315 1_555
Li9 S4 2.531556 1_555
Li9 S7 2.531562 1_555
Li10 S6 2.445315 1_555
Li10 S5 2.531556 1_555
Li10 S7 2.531562 1_555
Li11 S3 2.429837 1_545
Li11 S2 2.429837 1_655
Li11 S7 2.496776 1_554
Li11 S6 2.598501 1_555
Fe0 S0 2.294887 1_555
Fe0 S2 2.294894 1_555
Fe0 S3 2.294894 1_555
Fe0 S1 2.302943 1_555
Fe1 S7 2.294887 1_555
Fe1 S4 2.294894 1_555
Fe1 S5 2.294894 1_555
Fe1 S6 2.302943 1_556
