# generated using pymatgen
data_Ba2Sb2O5
_symmetry_space_group_name_H-M   'P 1'
_cell_length_a   6.42043683
_cell_length_b   8.12855538
_cell_length_c   14.54756337
_cell_angle_alpha   90.00000000
_cell_angle_beta   90.00000000
_cell_angle_gamma   90.00000000
_symmetry_Int_Tables_number   1
_chemical_formula_structural   Ba2Sb2O5
_chemical_formula_sum   'Ba8 Sb8 O20'
_cell_volume   759.22098571
_cell_formula_units_Z   4
loop_
 _symmetry_equiv_pos_site_id
 _symmetry_equiv_pos_as_xyz
  1  'x, y, z'
loop_
 _atom_site_type_symbol
 _atom_site_label
 _atom_site_symmetry_multiplicity
 _atom_site_fract_x
 _atom_site_fract_y
 _atom_site_fract_z
 _atom_site_occupancy
  Ba  Ba0  1  0.25000000  0.62551939  0.07482986  1
  Ba  Ba1  1  0.75000000  0.62466555  0.42943421  1
  Ba  Ba2  1  0.75000000  0.87533445  0.92943421  1
  Ba  Ba3  1  0.25000000  0.87448061  0.57482986  1
  Ba  Ba4  1  0.25000000  0.12466555  0.07056579  1
  Ba  Ba5  1  0.75000000  0.12551939  0.42517014  1
  Ba  Ba6  1  0.25000000  0.37533445  0.57056579  1
  Ba  Ba7  1  0.75000000  0.37448061  0.92517014  1
  Sb  Sb0  1  0.25000000  0.63337254  0.82073592  1
  Sb  Sb1  1  0.75000000  0.61416005  0.68247743  1
  Sb  Sb2  1  0.25000000  0.86662746  0.32073592  1
  Sb  Sb3  1  0.75000000  0.88583995  0.18247743  1
  Sb  Sb4  1  0.25000000  0.11416005  0.81752257  1
  Sb  Sb5  1  0.75000000  0.13337254  0.67926408  1
  Sb  Sb6  1  0.25000000  0.38583995  0.31752257  1
  Sb  Sb7  1  0.75000000  0.36662746  0.17926408  1
  O  O0  1  0.25000000  0.62692363  0.28395377  1
  O  O1  1  0.02725348  0.62950152  0.90998841  1
  O  O2  1  0.47274652  0.62950152  0.90998841  1
  O  O3  1  0.52758886  0.62102737  0.59317514  1
  O  O4  1  0.97241114  0.62102737  0.59317514  1
  O  O5  1  0.47274652  0.87049848  0.40998841  1
  O  O6  1  0.25000000  0.87307637  0.78395377  1
  O  O7  1  0.52758886  0.87897263  0.09317514  1
  O  O8  1  0.02725348  0.87049848  0.40998841  1
  O  O9  1  0.97241114  0.87897263  0.09317514  1
  O  O10  1  0.75000000  0.12692363  0.21604623  1
  O  O11  1  0.52725348  0.12950152  0.59001159  1
  O  O12  1  0.97274652  0.12950152  0.59001159  1
  O  O13  1  0.02758886  0.12102737  0.90682486  1
  O  O14  1  0.47241114  0.12102737  0.90682486  1
  O  O15  1  0.75000000  0.37307637  0.71604623  1
  O  O16  1  0.02758886  0.37897263  0.40682486  1
  O  O17  1  0.47241114  0.37897263  0.40682486  1
  O  O18  1  0.52725348  0.37049848  0.09001159  1
  O  O19  1  0.97274652  0.37049848  0.09001159  1
loop_
_geom_bond_atom_site_label_1
_geom_bond_atom_site_label_2
_geom_bond_distance
_geom_bond_site_symmetry_2
Ba0 O9 2.737165 1_455
Ba0 O7 2.737165 1_555
Ba0 O19 2.741281 1_455
Ba0 O18 2.741281 1_555
Ba0 O2 2.792297 1_554
Ba0 O1 2.792297 1_554
Ba0 O0 3.042265 1_555
Ba1 O8 2.691061 1_655
Ba1 O5 2.691061 1_555
Ba1 O17 2.696867 1_555
Ba1 O16 2.696867 1_655
Ba1 O3 2.777421 1_555
Ba1 O4 2.777421 1_555
Ba2 O2 2.691061 1_555
Ba2 O1 2.691061 1_655
Ba2 O14 2.696867 1_565
Ba2 O13 2.696867 1_665
Ba2 O9 2.777421 1_556
Ba2 O7 2.777421 1_556
Ba3 O4 2.737165 1_455
Ba3 O3 2.737165 1_555
Ba3 O12 2.741281 1_465
Ba3 O11 2.741281 1_565
Ba3 O8 2.792297 1_555
Ba3 O5 2.792297 1_555
Ba3 O6 3.042265 1_555
Ba4 O18 2.691061 1_555
Ba4 O19 2.691061 1_455
Ba4 O7 2.696867 1_545
Ba4 O9 2.696867 1_445
Ba4 O14 2.777421 1_554
Ba4 O13 2.777421 1_554
Ba5 O17 2.737165 1_555
Ba5 O16 2.737165 1_655
Ba5 O8 2.741281 1_645
Ba5 O5 2.741281 1_545
Ba5 O11 2.792297 1_555
Ba5 O12 2.792297 1_555
Ba5 O10 3.042265 1_555
Ba6 O11 2.691061 1_555
Ba6 O12 2.691061 1_455
Ba6 O4 2.696867 1_455
Ba6 O3 2.696867 1_555
Ba6 O16 2.777421 1_555
Ba6 O17 2.777421 1_555
Ba7 O13 2.737165 1_655
Ba7 O14 2.737165 1_555
Ba7 O1 2.741281 1_655
Ba7 O2 2.741281 1_555
Ba7 O18 2.792297 1_556
Ba7 O19 2.792297 1_556
Ba7 O15 3.042265 1_555
O0 Sb6 2.019593 1_555
O0 Sb2 2.020585 1_555
O1 Sb0 1.931870 1_555
O2 Sb0 1.931870 1_555
O3 Sb1 1.931314 1_555
O4 Sb1 1.931314 1_555
O5 Sb2 1.931870 1_555
O6 Sb4 2.019593 1_565
O6 Sb0 2.020585 1_555
O7 Sb3 1.931314 1_555
O8 Sb2 1.931870 1_555
O9 Sb3 1.931314 1_555
O10 Sb3 2.019593 1_545
O10 Sb7 2.020585 1_555
O11 Sb5 1.931870 1_555
O12 Sb5 1.931870 1_555
O13 Sb4 1.931314 1_555
O14 Sb4 1.931314 1_555
O15 Sb1 2.019593 1_555
O15 Sb5 2.020585 1_555
O16 Sb6 1.931314 1_555
O17 Sb6 1.931314 1_555
O18 Sb7 1.931870 1_555
O19 Sb7 1.931870 1_555
