# generated using pymatgen
data_NaSmO2
_symmetry_space_group_name_H-M   'P 1'
_cell_length_a   5.97379101
_cell_length_b   5.97379101
_cell_length_c   5.97379069
_cell_angle_alpha   34.40254655
_cell_angle_beta   34.40254655
_cell_angle_gamma   34.40254842
_symmetry_Int_Tables_number   1
_chemical_formula_structural   NaSmO2
_chemical_formula_sum   'Na1 Sm1 O2'
_cell_volume   60.70243763
_cell_formula_units_Z   1
loop_
 _symmetry_equiv_pos_site_id
 _symmetry_equiv_pos_as_xyz
  1  'x, y, z'
loop_
 _atom_site_type_symbol
 _atom_site_label
 _atom_site_symmetry_multiplicity
 _atom_site_fract_x
 _atom_site_fract_y
 _atom_site_fract_z
 _atom_site_occupancy
  Na  Na0  1  0.00000000  0.00000000  0.00000000  1
  Sm  Sm0  1  0.50000000  0.50000000  0.50000000  1
  O  O0  1  0.76186900  0.76186900  0.76186900  1
  O  O1  1  0.23813100  0.23813100  0.23813100  1
loop_
_geom_bond_atom_site_label_1
_geom_bond_atom_site_label_2
_geom_bond_distance
_geom_bond_site_symmetry_2
Na0 O1 2.594766 1_554
Na0 O0 2.594766 1_445
Na0 O1 2.594767 1_545
Na0 O1 2.594767 1_455
Na0 O0 2.594767 1_544
Na0 O0 2.594767 1_454
O0 Sm0 2.368608 1_556
O0 Sm0 2.368609 1_655
O0 Sm0 2.368609 1_565
O1 Sm0 2.368608 1_554
O1 Sm0 2.368609 1_545
O1 Sm0 2.368609 1_455
