# generated using pymatgen
data_Li5Nb2Cu5O12
_symmetry_space_group_name_H-M   'P 1'
_cell_length_a   5.19232921
_cell_length_b   5.19232986
_cell_length_c   9.87790936
_cell_angle_alpha   88.84441760
_cell_angle_beta   91.15558606
_cell_angle_gamma   65.74690089
_symmetry_Int_Tables_number   1
_chemical_formula_structural   Li5Nb2Cu5O12
_chemical_formula_sum   'Li5 Nb2 Cu5 O12'
_cell_volume   242.63892547
_cell_formula_units_Z   1
loop_
 _symmetry_equiv_pos_site_id
 _symmetry_equiv_pos_as_xyz
  1  'x, y, z'
loop_
 _atom_site_type_symbol
 _atom_site_label
 _atom_site_symmetry_multiplicity
 _atom_site_fract_x
 _atom_site_fract_y
 _atom_site_fract_z
 _atom_site_occupancy
  Li  Li0  1  0.15917100  0.68362800  0.50276600  1
  Li  Li1  1  0.31592500  0.84824500  0.99078800  1
  Li  Li2  1  0.68362800  0.15917100  0.99723400  1
  Li  Li3  1  0.84824500  0.31592500  0.50921200  1
  Li  Li4  1  0.91122400  0.91122400  0.75000000  1
  Nb  Nb0  1  0.24677800  0.24677800  0.75000000  1
  Nb  Nb1  1  0.74073500  0.74073500  0.25000000  1
  Cu  Cu0  1  0.07758400  0.07758400  0.25000000  1
  Cu  Cu1  1  0.99894900  0.51033300  0.99691100  1
  Cu  Cu2  1  0.51033300  0.99894900  0.50308900  1
  Cu  Cu3  1  0.41098400  0.41098400  0.25000000  1
  Cu  Cu4  1  0.58971600  0.58971600  0.75000000  1
  O  O0  1  0.99148200  0.20190200  0.88400600  1
  O  O1  1  0.20190200  0.99148200  0.61599400  1
  O  O2  1  0.07434200  0.41784700  0.35027500  1
  O  O3  1  0.41784700  0.07434200  0.14972500  1
  O  O4  1  0.30777400  0.53938200  0.86993000  1
  O  O5  1  0.53938200  0.30777400  0.63007000  1
  O  O6  1  0.47294300  0.68819400  0.37845600  1
  O  O7  1  0.68819400  0.47294300  0.12154400  1
  O  O8  1  0.57516500  0.92208500  0.85132700  1
  O  O9  1  0.92208500  0.57516500  0.64867300  1
  O  O10  1  0.80902600  0.00658300  0.38236900  1
  O  O11  1  0.00658300  0.80902600  0.11763100  1
loop_
_geom_bond_atom_site_label_1
_geom_bond_atom_site_label_2
_geom_bond_distance
_geom_bond_site_symmetry_2
Li0 O1 2.051530 1_555
Li0 O6 2.067347 1_555
Li0 O9 2.125606 1_455
Li0 O10 2.204411 1_465
Li0 O2 2.218971 1_555
Li0 O5 2.433720 1_555
Li1 O4 2.032207 1_555
Li1 O8 2.081845 1_555
Li1 O11 2.128574 1_556
Li1 O0 2.152049 1_465
Li1 O3 2.162012 1_566
Li1 O7 2.430058 1_556
Li2 O0 2.051530 1_555
Li2 O7 2.067347 1_556
Li2 O8 2.125606 1_545
Li2 O11 2.204411 1_646
Li2 O3 2.218971 1_556
Li2 O4 2.433720 1_555
Li3 O5 2.032207 1_555
Li3 O9 2.081845 1_555
Li3 O10 2.128574 1_555
Li3 O1 2.152049 1_645
Li3 O2 2.162012 1_655
Li3 O6 2.430058 1_555
Li4 O8 2.010382 1_555
Li4 O9 2.010382 1_555
Li4 O1 2.186061 1_655
Li4 O0 2.186061 1_565
Li4 O4 2.431891 1_655
Li4 O5 2.431892 1_565
Nb0 O0 1.968686 1_455
Nb0 O1 1.968686 1_545
Nb0 O8 2.062262 1_545
Nb0 O9 2.062262 1_455
Nb0 O5 2.065127 1_555
Nb0 O4 2.065127 1_555
Nb1 O6 1.996673 1_555
Nb1 O7 1.996673 1_555
Nb1 O11 2.048658 1_655
Nb1 O10 2.048658 1_565
Nb1 O2 2.066493 1_655
Nb1 O3 2.066493 1_565
Cu0 O3 2.037068 1_555
Cu0 O2 2.037068 1_555
Cu0 O10 2.065536 1_455
Cu0 O11 2.065536 1_545
Cu0 O6 2.508722 1_545
Cu0 O7 2.508722 1_455
Cu1 O0 1.982763 1_555
Cu1 O11 1.987978 1_656
Cu1 O4 2.107014 1_655
Cu1 O7 2.117707 1_556
Cu2 O1 1.982763 1_555
Cu2 O10 1.987978 1_565
Cu2 O5 2.107014 1_565
Cu2 O6 2.117707 1_555
Cu3 O2 2.014401 1_555
Cu3 O3 2.014401 1_555
Cu3 O7 2.054980 1_555
Cu3 O6 2.054980 1_555
Cu3 O11 2.570064 1_555
Cu3 O10 2.570064 1_555
Cu4 O9 1.987810 1_555
Cu4 O8 1.987810 1_555
Cu4 O4 1.996649 1_555
Cu4 O5 1.996650 1_555
Cu4 O0 2.547333 1_555
Cu4 O1 2.547333 1_555
