# generated using pymatgen
data_Li2FeCo3O8
_symmetry_space_group_name_H-M   'P 1'
_cell_length_a   8.17818486
_cell_length_b   8.17448185
_cell_length_c   8.17110205
_cell_angle_alpha   89.91939497
_cell_angle_beta   89.98948377
_cell_angle_gamma   90.05143834
_symmetry_Int_Tables_number   1
_chemical_formula_structural   Li2FeCo3O8
_chemical_formula_sum   'Li8 Fe4 Co12 O32'
_cell_volume   546.25720641
_cell_formula_units_Z   4
loop_
 _symmetry_equiv_pos_site_id
 _symmetry_equiv_pos_as_xyz
  1  'x, y, z'
loop_
 _atom_site_type_symbol
 _atom_site_label
 _atom_site_symmetry_multiplicity
 _atom_site_fract_x
 _atom_site_fract_y
 _atom_site_fract_z
 _atom_site_occupancy
  Li  Li0  1  0.99827200  0.99778900  0.99869800  1
  Li  Li1  1  0.25229100  0.25177200  0.25109200  1
  Li  Li2  1  0.24740800  0.74639300  0.75232600  1
  Li  Li3  1  0.50193200  0.00304800  0.49767700  1
  Li  Li4  1  0.49741100  0.50281100  0.00261900  1
  Li  Li5  1  0.75226800  0.24776100  0.74775800  1
  Li  Li6  1  0.74860100  0.75121900  0.24634200  1
  Li  Li7  1  0.00273100  0.49864900  0.50246900  1
  Fe  Fe0  1  0.12472700  0.87375300  0.37262300  1
  Fe  Fe1  1  0.37613600  0.12702600  0.87605300  1
  Fe  Fe2  1  0.62472300  0.62267600  0.62663700  1
  Fe  Fe3  1  0.87564900  0.37891100  0.12249500  1
  Co  Co0  1  0.12299400  0.12868800  0.62556400  1
  Co  Co1  1  0.12418000  0.37885200  0.87278800  1
  Co  Co2  1  0.12774900  0.62412800  0.12179200  1
  Co  Co3  1  0.37162800  0.37488900  0.62162600  1
  Co  Co4  1  0.37564700  0.62189900  0.37265200  1
  Co  Co5  1  0.37780200  0.87214800  0.12517000  1
  Co  Co6  1  0.62181500  0.37160800  0.37429900  1
  Co  Co7  1  0.62489700  0.12156400  0.12873700  1
  Co  Co8  1  0.62779600  0.87506700  0.87823900  1
  Co  Co9  1  0.87121900  0.12666600  0.37617000  1
  Co  Co10  1  0.87444100  0.87691500  0.62854600  1
  Co  Co11  1  0.87827900  0.62790800  0.87538700  1
  O  O0  1  0.10716700  0.12099300  0.39463600  1
  O  O1  1  0.10591300  0.89420800  0.62169400  1
  O  O2  1  0.11131700  0.60955200  0.88865500  1
  O  O3  1  0.12796700  0.14331400  0.85514400  1
  O  O4  1  0.12081000  0.38912000  0.10473500  1
  O  O5  1  0.13816500  0.36085600  0.63939400  1
  O  O6  1  0.14505000  0.62952500  0.35959200  1
  O  O7  1  0.14571300  0.86049300  0.12830400  1
  O  O8  1  0.35264600  0.13945100  0.62890000  1
  O  O9  1  0.35535000  0.37046500  0.85833300  1
  O  O10  1  0.36278000  0.64035900  0.14121500  1
  O  O11  1  0.37911800  0.61037600  0.60257200  1
  O  O12  1  0.37220400  0.85708100  0.35682200  1
  O  O13  1  0.39042100  0.38849600  0.38741300  1
  O  O14  1  0.38978000  0.10353200  0.12063500  1
  O  O15  1  0.39448000  0.87784000  0.89356900  1
  O  O16  1  0.60861100  0.37941700  0.60521600  1
  O  O17  1  0.60572700  0.60588100  0.37833100  1
  O  O18  1  0.61061100  0.88791300  0.11000200  1
  O  O19  1  0.63063100  0.35770400  0.14552400  1
  O  O20  1  0.62058900  0.10462300  0.89146100  1
  O  O21  1  0.63846500  0.13960500  0.36189200  1
  O  O22  1  0.64452700  0.87236500  0.64412300  1
  O  O23  1  0.64094700  0.64544500  0.86981100  1
  O  O24  1  0.85490300  0.35487800  0.37402500  1
  O  O25  1  0.85975000  0.12878200  0.14903900  1
  O  O26  1  0.86011800  0.86229800  0.86103800  1
  O  O27  1  0.87833900  0.89389500  0.39387400  1
  O  O28  1  0.87101800  0.64805100  0.63886400  1
  O  O29  1  0.88952300  0.11050400  0.60953800  1
  O  O30  1  0.89418000  0.39130700  0.87769900  1
  O  O31  1  0.89258200  0.61967000  0.11033300  1
loop_
_geom_bond_atom_site_label_1
_geom_bond_atom_site_label_2
_geom_bond_distance
_geom_bond_site_symmetry_2
Li0 O26 1.941711 1_555
Li0 O7 1.958226 1_656
Li0 O3 1.977224 1_665
Li0 O25 1.986062 1_566
Li1 O13 1.941058 1_555
Li1 O4 1.961075 1_555
Li1 O14 1.968418 1_555
Li1 O0 1.980124 1_555
Li2 O2 1.929948 1_555
Li2 O11 1.974672 1_555
Li2 O15 1.983661 1_555
Li2 O1 1.984378 1_555
Li3 O21 1.928136 1_555
Li3 O12 1.968764 1_545
Li3 O8 1.972021 1_555
Li3 O22 1.982979 1_545
Li4 O10 1.940202 1_555
Li4 O23 1.977009 1_554
Li4 O9 1.977883 1_554
Li4 O19 1.989072 1_555
Li5 O29 1.949313 1_555
Li5 O30 1.962830 1_555
Li5 O16 1.973413 1_555
Li5 O20 1.975087 1_555
Li6 O18 1.939702 1_555
Li6 O31 1.945025 1_555
Li6 O17 1.983270 1_555
Li6 O27 1.985311 1_555
Li7 O5 1.935577 1_555
Li7 O6 1.963663 1_555
Li7 O28 1.974764 1_455
Li7 O24 1.986382 1_455
Fe0 O6 2.006467 1_555
Fe0 O7 2.006778 1_555
Fe0 O27 2.029301 1_455
Fe0 O12 2.032711 1_555
Fe0 O0 2.034500 1_565
Fe0 O1 2.048047 1_555
Fe1 O9 2.002428 1_555
Fe1 O14 2.010571 1_556
Fe1 O20 2.011666 1_555
Fe1 O8 2.031071 1_555
Fe1 O3 2.041232 1_555
Fe1 O15 2.047428 1_545
Fe2 O23 2.000377 1_555
Fe2 O16 2.000678 1_555
Fe2 O11 2.020668 1_555
Fe2 O28 2.027209 1_555
Fe2 O17 2.039710 1_555
Fe2 O22 2.052531 1_555
Fe3 O31 1.975183 1_555
Fe3 O30 2.008367 1_554
Fe3 O4 2.011839 1_655
Fe3 O19 2.019859 1_555
Fe3 O25 2.059832 1_555
Fe3 O24 2.071285 1_555
Co0 O8 1.880322 1_555
Co0 O3 1.880341 1_555
Co0 O0 1.892524 1_555
Co0 O5 1.905307 1_555
Co0 O29 1.919523 1_455
Co0 O1 1.922016 1_545
Co1 O30 1.884250 1_455
Co1 O2 1.893504 1_555
Co1 O9 1.895523 1_555
Co1 O4 1.897435 1_556
Co1 O5 1.916361 1_555
Co1 O3 1.931269 1_555
Co2 O2 1.913618 1_554
Co2 O31 1.925849 1_455
Co2 O4 1.927099 1_555
Co2 O10 1.933152 1_555
Co2 O7 1.938413 1_555
Co2 O6 1.948817 1_555
Co3 O5 1.918107 1_555
Co3 O13 1.922967 1_555
Co3 O8 1.931526 1_555
Co3 O11 1.931967 1_555
Co3 O9 1.938993 1_555
Co3 O16 1.943015 1_555
Co4 O11 1.881148 1_555
Co4 O17 1.886879 1_555
Co4 O6 1.889981 1_555
Co4 O10 1.899838 1_555
Co4 O13 1.915512 1_555
Co4 O12 1.926887 1_555
Co5 O14 1.894201 1_565
Co5 O12 1.897223 1_555
Co5 O15 1.897822 1_554
Co5 O7 1.900537 1_555
Co5 O10 1.902960 1_555
Co5 O18 1.912182 1_555
Co6 O19 1.874333 1_555
Co6 O16 1.891085 1_555
Co6 O13 1.900550 1_555
Co6 O21 1.904350 1_555
Co6 O24 1.911260 1_555
Co6 O17 1.920021 1_555
Co7 O21 1.914271 1_555
Co7 O18 1.919771 1_545
Co7 O25 1.928709 1_555
Co7 O14 1.929495 1_555
Co7 O19 1.935909 1_555
Co7 O20 1.944264 1_554
Co8 O20 1.880737 1_565
Co8 O23 1.881573 1_555
Co8 O18 1.901997 1_556
Co8 O26 1.908100 1_555
Co8 O15 1.912342 1_555
Co8 O22 1.918007 1_555
Co9 O25 1.858353 1_555
Co9 O24 1.870458 1_555
Co9 O27 1.909012 1_545
Co9 O21 1.910115 1_555
Co9 O29 1.917149 1_555
Co9 O0 1.936136 1_655
Co10 O28 1.872809 1_555
Co10 O22 1.884889 1_555
Co10 O1 1.898974 1_655
Co10 O26 1.906875 1_555
Co10 O29 1.919413 1_565
Co10 O27 1.922608 1_555
Co11 O2 1.914939 1_655
Co11 O31 1.924437 1_556
Co11 O26 1.925308 1_555
Co11 O30 1.938640 1_555
Co11 O28 1.940349 1_555
Co11 O23 1.946897 1_555
