# generated using pymatgen
data_V2O3
_symmetry_space_group_name_H-M   'P 1'
_cell_length_a   5.13475600
_cell_length_b   5.47013400
_cell_length_c   15.06834100
_cell_angle_alpha   90.00000000
_cell_angle_beta   90.00000000
_cell_angle_gamma   90.00000000
_symmetry_Int_Tables_number   1
_chemical_formula_structural   V2O3
_chemical_formula_sum   'V16 O24'
_cell_volume   423.23659923
_cell_formula_units_Z   8
loop_
 _symmetry_equiv_pos_site_id
 _symmetry_equiv_pos_as_xyz
  1  'x, y, z'
loop_
 _atom_site_type_symbol
 _atom_site_label
 _atom_site_symmetry_multiplicity
 _atom_site_fract_x
 _atom_site_fract_y
 _atom_site_fract_z
 _atom_site_occupancy
  V  V0  1  0.00064800  0.18386000  0.07343600  1
  V  V1  1  0.99721500  0.74921400  0.17919500  1
  V  V2  1  0.00064800  0.31614000  0.57343600  1
  V  V3  1  0.99721500  0.75078600  0.67919500  1
  V  V4  1  0.50278500  0.24921400  0.17919500  1
  V  V5  1  0.50278500  0.25078600  0.67919500  1
  V  V6  1  0.49935200  0.81614000  0.57343600  1
  V  V7  1  0.49935200  0.68386000  0.07343600  1
  V  V8  1  0.50064800  0.18386000  0.42656400  1
  V  V9  1  0.50064800  0.31614000  0.92656400  1
  V  V10  1  0.49721500  0.74921400  0.32080500  1
  V  V11  1  0.49721500  0.75078600  0.82080500  1
  V  V12  1  0.99935200  0.68386000  0.42656400  1
  V  V13  1  0.00278500  0.24921400  0.32080500  1
  V  V14  1  0.00278500  0.25078600  0.82080500  1
  V  V15  1  0.99935200  0.81614000  0.92656400  1
  O  O0  1  0.14201300  0.11595100  0.20253000  1
  O  O1  1  0.14201300  0.38404900  0.70253000  1
  O  O2  1  0.15012700  0.83629000  0.05087700  1
  O  O3  1  0.15012700  0.66371000  0.55087700  1
  O  O4  1  0.19921800  0.96690700  0.37536400  1
  O  O5  1  0.19921800  0.53309300  0.87536400  1
  O  O6  1  0.30078200  0.46690700  0.37536400  1
  O  O7  1  0.30078200  0.03309300  0.87536400  1
  O  O8  1  0.34987300  0.16371000  0.55087700  1
  O  O9  1  0.34987300  0.33629000  0.05087700  1
  O  O10  1  0.35798700  0.61595100  0.20253000  1
  O  O11  1  0.35798700  0.88404900  0.70253000  1
  O  O12  1  0.64201300  0.11595100  0.29747000  1
  O  O13  1  0.64201300  0.38404900  0.79747000  1
  O  O14  1  0.65012700  0.83629000  0.44912300  1
  O  O15  1  0.65012700  0.66371000  0.94912300  1
  O  O16  1  0.69921800  0.53309300  0.62463600  1
  O  O17  1  0.69921800  0.96690700  0.12463600  1
  O  O18  1  0.80078200  0.46690700  0.12463600  1
  O  O19  1  0.80078200  0.03309300  0.62463600  1
  O  O20  1  0.84987300  0.33629000  0.44912300  1
  O  O21  1  0.84987300  0.16371000  0.94912300  1
  O  O22  1  0.85798700  0.88404900  0.79747000  1
  O  O23  1  0.85798700  0.61595100  0.29747000  1
loop_
_geom_bond_atom_site_label_1
_geom_bond_atom_site_label_2
_geom_bond_distance
_geom_bond_site_symmetry_2
O0 V4 2.021558 1_555
O0 V13 2.053958 1_555
O0 V0 2.109221 1_555
O0 V1 2.168149 1_445
O1 V5 2.021558 1_555
O1 V14 2.053958 1_555
O1 V2 2.109221 1_555
O1 V3 2.168149 1_455
O2 V7 2.006566 1_555
O2 V15 2.029869 1_454
O2 V0 2.078325 1_565
O2 V1 2.140546 1_455
O3 V6 2.006566 1_555
O3 V12 2.029869 1_455
O3 V2 2.078325 1_555
O3 V3 2.140546 1_455
O4 V12 2.011386 1_455
O4 V13 2.019393 1_565
O4 V8 2.097428 1_565
O4 V10 2.105999 1_555
O5 V15 2.011386 1_455
O5 V14 2.019393 1_555
O5 V9 2.097428 1_555
O5 V11 2.105999 1_555
O6 V8 2.011386 1_555
O6 V10 2.019393 1_555
O6 V12 2.097428 1_455
O6 V13 2.105999 1_555
O7 V9 2.011386 1_555
O7 V11 2.019393 1_545
O7 V15 2.097428 1_445
O7 V14 2.105999 1_555
O8 V2 2.006566 1_555
O8 V8 2.029869 1_555
O8 V6 2.078325 1_545
O8 V5 2.140546 1_555
O9 V0 2.006566 1_555
O9 V9 2.029869 1_554
O9 V7 2.078325 1_555
O9 V4 2.140546 1_555
O10 V1 2.021558 1_455
O10 V10 2.053958 1_555
O10 V7 2.109221 1_555
O10 V4 2.168149 1_555
O11 V3 2.021558 1_455
O11 V11 2.053958 1_555
O11 V6 2.109221 1_555
O11 V5 2.168149 1_565
O12 V13 2.021558 1_655
O12 V4 2.053958 1_555
O12 V8 2.109221 1_555
O12 V10 2.168149 1_545
O13 V14 2.021558 1_655
O13 V5 2.053958 1_555
O13 V9 2.109221 1_555
O13 V11 2.168149 1_555
O14 V12 2.006566 1_555
O14 V6 2.029869 1_555
O14 V8 2.078325 1_565
O14 V10 2.140546 1_555
O15 V15 2.006566 1_555
O15 V7 2.029869 1_556
O15 V9 2.078325 1_555
O15 V11 2.140546 1_555
O16 V6 2.011386 1_555
O16 V5 2.019393 1_555
O16 V2 2.097428 1_655
O16 V3 2.105999 1_555
O17 V7 2.011386 1_555
O17 V4 2.019393 1_565
O17 V0 2.097428 1_665
O17 V1 2.105999 1_555
O18 V0 2.011386 1_655
O18 V1 2.019393 1_555
O18 V7 2.097428 1_555
O18 V4 2.105999 1_555
O19 V2 2.011386 1_655
O19 V3 2.019393 1_545
O19 V6 2.097428 1_545
O19 V5 2.105999 1_555
O20 V8 2.006566 1_555
O20 V2 2.029869 1_655
O20 V12 2.078325 1_555
O20 V13 2.140546 1_655
O21 V9 2.006566 1_555
O21 V0 2.029869 1_656
O21 V15 2.078325 1_545
O21 V14 2.140546 1_655
O22 V11 2.021558 1_555
O22 V3 2.053958 1_555
O22 V15 2.109221 1_555
O22 V14 2.168149 1_665
O23 V10 2.021558 1_555
O23 V1 2.053958 1_555
O23 V12 2.109221 1_555
O23 V13 2.168149 1_655
