# generated using pymatgen
data_Li6Fe3Co5O16
_symmetry_space_group_name_H-M   'P 1'
_cell_length_a   5.24241482
_cell_length_b   2.90854200
_cell_length_c   18.99913942
_cell_angle_alpha   90.00000000
_cell_angle_beta   85.64784337
_cell_angle_gamma   90.00000000
_symmetry_Int_Tables_number   1
_chemical_formula_structural   Li6Fe3Co5O16
_chemical_formula_sum   'Li6 Fe3 Co5 O16'
_cell_volume   288.85942332
_cell_formula_units_Z   1
loop_
 _symmetry_equiv_pos_site_id
 _symmetry_equiv_pos_as_xyz
  1  'x, y, z'
loop_
 _atom_site_type_symbol
 _atom_site_label
 _atom_site_symmetry_multiplicity
 _atom_site_fract_x
 _atom_site_fract_y
 _atom_site_fract_z
 _atom_site_occupancy
  Li  Li0  1  0.01662700  0.00000000  0.00921900  1
  Li  Li1  1  0.23393500  0.00000000  0.23924600  1
  Li  Li2  1  0.37401300  0.50000000  0.37664600  1
  Li  Li3  1  0.51878000  0.00000000  0.51148400  1
  Li  Li4  1  0.73315500  0.00000000  0.73782000  1
  Li  Li5  1  0.87209000  0.50000000  0.87470800  1
  Fe  Fe0  1  0.61647600  0.00000000  0.12209000  1
  Fe  Fe1  1  0.74429500  0.50000000  0.25090100  1
  Fe  Fe2  1  0.88113600  0.00000000  0.37958100  1
  Co  Co0  1  0.00917200  0.50000000  0.50378100  1
  Co  Co1  1  0.12281400  0.00000000  0.62549800  1
  Co  Co2  1  0.24711300  0.50000000  0.75164200  1
  Co  Co3  1  0.37258000  0.00000000  0.87404700  1
  Co  Co4  1  0.50721800  0.50000000  0.99546500  1
  O  O0  1  0.04508900  0.50000000  0.31712900  1
  O  O1  1  0.16776600  0.00000000  0.44625000  1
  O  O2  1  0.07273700  0.00000000  0.81044200  1
  O  O3  1  0.35920200  0.00000000  0.04843800  1
  O  O4  1  0.26903300  0.50000000  0.56903100  1
  O  O5  1  0.21987700  0.50000000  0.93518200  1
  O  O6  1  0.45765900  0.50000000  0.18447200  1
  O  O7  1  0.38175700  0.00000000  0.68913900  1
  O  O8  1  0.58083200  0.00000000  0.31554300  1
  O  O9  1  0.54352000  0.50000000  0.80964100  1
  O  O10  1  0.77592600  0.50000000  0.05704800  1
  O  O11  1  0.71959600  0.50000000  0.44392500  1
  O  O12  1  0.66304700  0.00000000  0.93788300  1
  O  O13  1  0.89844300  0.00000000  0.19201900  1
  O  O14  1  0.87349900  0.00000000  0.56066600  1
  O  O15  1  0.97209300  0.50000000  0.68109100  1
loop_
_geom_bond_atom_site_label_1
_geom_bond_atom_site_label_2
_geom_bond_distance
_geom_bond_site_symmetry_2
Li0 O3 1.995907 1_555
Li0 O10 2.087799 1_445
Li0 O10 2.087799 1_455
Li0 O5 2.236380 1_554
Li0 O5 2.236380 1_544
Li0 O12 2.377829 1_454
Li1 O13 2.034195 1_455
Li1 O6 2.094807 1_555
Li1 O6 2.094807 1_545
Li1 O0 2.249939 1_555
Li1 O0 2.249939 1_545
Li1 O8 2.410104 1_555
Li2 O8 2.108821 1_565
Li2 O8 2.108821 1_555
Li2 O0 2.132600 1_555
Li2 O1 2.194480 1_565
Li2 O1 2.194480 1_555
Li2 O11 2.295125 1_555
Li3 O14 2.143574 1_555
Li3 O11 2.160013 1_555
Li3 O11 2.160013 1_545
Li3 O4 2.192544 1_555
Li3 O4 2.192544 1_545
Li3 O1 2.295305 1_555
Li4 O7 2.123119 1_555
Li4 O15 2.154227 1_545
Li4 O15 2.154227 1_555
Li4 O9 2.181583 1_555
Li4 O9 2.181583 1_545
Li4 O2 2.333611 1_655
Li5 O2 2.125383 1_655
Li5 O2 2.125383 1_665
Li5 O12 2.134688 1_555
Li5 O12 2.134688 1_565
Li5 O9 2.195090 1_555
Li5 O5 2.227611 1_655
Fe0 O6 2.015699 1_545
Fe0 O6 2.015699 1_555
Fe0 O3 2.015848 1_555
Fe0 O10 2.045464 1_545
Fe0 O10 2.045464 1_555
Fe0 O13 2.061131 1_555
Fe1 O13 1.970340 1_555
Fe1 O13 1.970340 1_565
Fe1 O6 2.034384 1_555
Fe1 O8 2.048866 1_565
Fe1 O8 2.048866 1_555
Fe1 O0 2.090686 1_655
Fe2 O0 2.026510 1_655
Fe2 O0 2.026510 1_645
Fe2 O1 2.037447 1_655
Fe2 O11 2.041913 1_555
Fe2 O11 2.041913 1_545
Fe2 O8 2.061423 1_555
Co0 O4 1.910241 1_555
Co0 O14 1.916292 1_455
Co0 O14 1.916292 1_465
Co0 O11 1.964645 1_455
Co0 O1 1.965443 1_555
Co0 O1 1.965443 1_565
Co1 O14 1.862750 1_455
Co1 O7 1.885170 1_555
Co1 O15 1.930845 1_445
Co1 O15 1.930845 1_455
Co1 O4 1.930966 1_545
Co1 O4 1.930966 1_555
Co2 O9 1.971978 1_555
Co2 O7 1.973851 1_555
Co2 O7 1.973851 1_565
Co2 O2 2.010871 1_555
Co2 O2 2.010871 1_565
Co2 O15 2.041740 1_455
Co3 O5 1.990916 1_555
Co3 O5 1.990916 1_545
Co3 O12 2.017428 1_555
Co3 O2 2.054143 1_555
Co3 O9 2.061281 1_555
Co3 O9 2.061281 1_545
Co4 O10 1.898284 1_556
Co4 O3 1.900373 1_556
Co4 O3 1.900373 1_566
Co4 O5 1.960291 1_555
Co4 O12 1.960478 1_555
Co4 O12 1.960478 1_565
