# generated using pymatgen
data_Li4Mn3Fe(BO3)4
_symmetry_space_group_name_H-M   'P 1'
_cell_length_a   5.23196600
_cell_length_b   6.03984728
_cell_length_c   16.25224476
_cell_angle_alpha   82.11345629
_cell_angle_beta   88.93060437
_cell_angle_gamma   89.35619897
_symmetry_Int_Tables_number   1
_chemical_formula_structural   Li4Mn3Fe(BO3)4
_chemical_formula_sum   'Li8 Mn6 Fe2 B8 O24'
_cell_volume   508.60975067
_cell_formula_units_Z   2
loop_
 _symmetry_equiv_pos_site_id
 _symmetry_equiv_pos_as_xyz
  1  'x, y, z'
loop_
 _atom_site_type_symbol
 _atom_site_label
 _atom_site_symmetry_multiplicity
 _atom_site_fract_x
 _atom_site_fract_y
 _atom_site_fract_z
 _atom_site_occupancy
  Li  Li0  1  0.84945200  0.06212600  0.38988400  1
  Li  Li1  1  0.15037400  0.43610400  0.10991800  1
  Li  Li2  1  0.65041400  0.18702200  0.85947800  1
  Li  Li3  1  0.34798200  0.31267800  0.63959000  1
  Li  Li4  1  0.65083200  0.68695700  0.35862200  1
  Li  Li5  1  0.35035800  0.81284400  0.14192000  1
  Li  Li6  1  0.84878900  0.56313200  0.89142600  1
  Li  Li7  1  0.15089100  0.93856500  0.60816900  1
  Mn  Mn0  1  0.66739400  0.27278200  0.04113100  1
  Mn  Mn1  1  0.16706300  0.02474300  0.78991600  1
  Mn  Mn2  1  0.16705500  0.52285300  0.29099600  1
  Mn  Mn3  1  0.83273700  0.47562800  0.71045700  1
  Mn  Mn4  1  0.66574900  0.77335600  0.53986100  1
  Mn  Mn5  1  0.33259000  0.72441400  0.96025400  1
  Fe  Fe0  1  0.33888300  0.22563700  0.46028700  1
  Fe  Fe1  1  0.82922600  0.97546400  0.21117200  1
  B  B0  1  0.32907400  0.03562100  0.29741600  1
  B  B1  1  0.82952500  0.28718300  0.54645700  1
  B  B2  1  0.67036900  0.46424100  0.20248300  1
  B  B3  1  0.16970500  0.21479100  0.95220600  1
  B  B4  1  0.83182000  0.78504000  0.04905800  1
  B  B5  1  0.33014600  0.53525300  0.79795500  1
  B  B6  1  0.17006300  0.71408600  0.45218500  1
  B  B7  1  0.66919000  0.96557100  0.70166400  1
  O  O0  1  0.59113600  0.01587200  0.30835300  1
  O  O1  1  0.18663400  0.16670200  0.34639300  1
  O  O2  1  0.70749500  0.17357600  0.48899600  1
  O  O3  1  0.28694300  0.33305400  0.00860200  1
  O  O4  1  0.78580200  0.08326600  0.75834200  1
  O  O5  1  0.81911800  0.32717700  0.15710200  1
  O  O6  1  0.31943100  0.07942200  0.90613800  1
  O  O7  1  0.08942900  0.26307200  0.55820800  1
  O  O8  1  0.41077100  0.48591900  0.18908500  1
  O  O9  1  0.90995900  0.23615600  0.93869000  1
  O  O10  1  0.68210000  0.41937400  0.59409600  1
  O  O11  1  0.21448000  0.41715200  0.74102700  1
  O  O12  1  0.78808000  0.58246800  0.25875400  1
  O  O13  1  0.32009900  0.57760500  0.40673700  1
  O  O14  1  0.09191900  0.76364600  0.06220300  1
  O  O15  1  0.58967500  0.51459000  0.81201200  1
  O  O16  1  0.91002000  0.73629500  0.43827600  1
  O  O17  1  0.68283000  0.91844600  0.09581200  1
  O  O18  1  0.17922700  0.67011000  0.84367600  1
  O  O19  1  0.20630900  0.92160300  0.24088500  1
  O  O20  1  0.71338900  0.66898300  0.99210100  1
  O  O21  1  0.28632400  0.83249200  0.50862700  1
  O  O22  1  0.81953600  0.83052300  0.65555900  1
  O  O23  1  0.40961200  0.98640700  0.68782000  1
loop_
_geom_bond_atom_site_label_1
_geom_bond_atom_site_label_2
_geom_bond_distance
_geom_bond_site_symmetry_2
Li0 O0 1.958904 1_555
Li0 O2 1.959862 1_555
Li0 O1 1.966384 1_655
Li0 O16 2.040200 1_545
Li1 O8 1.944981 1_555
Li1 O3 1.958725 1_555
Li1 O5 1.965238 1_455
Li1 O14 2.045199 1_555
Li2 O9 1.941268 1_555
Li2 O4 1.955866 1_555
Li2 O6 1.958878 1_555
Li2 O15 2.046114 1_555
Li3 O11 1.958683 1_555
Li3 O7 1.963083 1_555
Li3 O10 1.965735 1_555
Li3 O23 2.042797 1_545
Li4 O12 1.943120 1_555
Li4 O16 1.945265 1_555
Li4 O13 1.968598 1_555
Li4 O0 2.064404 1_565
Li5 O14 1.942984 1_555
Li5 O19 1.954490 1_555
Li5 O17 1.959404 1_555
Li5 O8 2.041101 1_555
Li6 O15 1.941055 1_555
Li6 O20 1.954822 1_555
Li6 O18 1.961132 1_655
Li6 O9 2.042380 1_555
Li7 O21 1.939379 1_555
Li7 O23 1.941231 1_555
Li7 O22 1.965245 1_455
Li7 O7 2.040357 1_565
Mn0 O3 2.084301 1_555
Mn0 O9 2.108863 1_554
Mn0 O5 2.126534 1_555
Mn0 O17 2.203028 1_545
Mn0 O20 2.429360 1_554
Mn1 O4 2.083232 1_455
Mn1 O23 2.106530 1_545
Mn1 O6 2.132065 1_555
Mn1 O18 2.200168 1_545
Mn1 O11 2.408166 1_555
Mn2 O12 2.075240 1_455
Mn2 O8 2.105972 1_555
Mn2 O13 2.126439 1_555
Mn2 O1 2.217052 1_555
Mn2 O19 2.443849 1_555
Mn3 O11 2.081751 1_655
Mn3 O15 2.101959 1_555
Mn3 O10 2.133291 1_555
Mn3 O22 2.206718 1_555
Mn3 O4 2.404531 1_555
Mn4 O21 2.073151 1_555
Mn4 O16 2.103666 1_555
Mn4 O22 2.131484 1_555
Mn4 O10 2.199281 1_555
Mn4 O2 2.455814 1_565
Mn5 O20 2.079735 1_555
Mn5 O14 2.100040 1_556
Mn5 O18 2.138765 1_555
Mn5 O6 2.203920 1_565
Mn5 O3 2.399537 1_556
Fe0 O2 2.003906 1_555
Fe0 O7 2.074067 1_555
Fe0 O1 2.104701 1_555
Fe0 O13 2.185644 1_555
Fe0 O21 2.413695 1_545
Fe1 O0 2.032566 1_565
Fe1 O19 2.051665 1_655
Fe1 O17 2.111178 1_555
Fe1 O5 2.185078 1_565
Fe1 O12 2.404174 1_555
B0 O0 1.387566 1_555
B0 O19 1.391582 1_545
B0 O1 1.397612 1_555
B1 O7 1.379990 1_655
B1 O2 1.399471 1_555
B1 O10 1.401913 1_555
B2 O8 1.381487 1_555
B2 O12 1.391282 1_555
B2 O5 1.402363 1_555
B3 O9 1.382447 1_455
B3 O3 1.391773 1_556
B3 O6 1.405135 1_555
B4 O14 1.383300 1_655
B4 O20 1.393345 1_554
B4 O17 1.402159 1_555
B5 O15 1.382557 1_555
B5 O11 1.393826 1_555
B5 O18 1.403139 1_555
B6 O16 1.385355 1_455
B6 O21 1.390514 1_555
B6 O13 1.404347 1_555
B7 O23 1.382281 1_555
B7 O4 1.391575 1_565
B7 O22 1.406000 1_555
