# generated using pymatgen
data_LiCoOF2
_symmetry_space_group_name_H-M   'P 1'
_cell_length_a   6.62549486
_cell_length_b   6.62549486
_cell_length_c   6.10695160
_cell_angle_alpha   72.27966427
_cell_angle_beta   72.27966427
_cell_angle_gamma   68.87824678
_symmetry_Int_Tables_number   1
_chemical_formula_structural   LiCoOF2
_chemical_formula_sum   'Li4 Co4 O4 F8'
_cell_volume   232.41458092
_cell_formula_units_Z   4
loop_
 _symmetry_equiv_pos_site_id
 _symmetry_equiv_pos_as_xyz
  1  'x, y, z'
loop_
 _atom_site_type_symbol
 _atom_site_label
 _atom_site_symmetry_multiplicity
 _atom_site_fract_x
 _atom_site_fract_y
 _atom_site_fract_z
 _atom_site_occupancy
  Li  Li0  1  0.90799200  0.09200800  0.25000000  1
  Li  Li1  1  0.30777400  0.69222600  0.25000000  1
  Li  Li2  1  0.09200800  0.90799200  0.75000000  1
  Li  Li3  1  0.69222600  0.30777400  0.75000000  1
  Co  Co0  1  0.78793800  0.67434600  0.23307200  1
  Co  Co1  1  0.67434600  0.78793800  0.73307200  1
  Co  Co2  1  0.32565400  0.21206200  0.26692800  1
  Co  Co3  1  0.21206200  0.32565400  0.76692800  1
  O  O0  1  0.60824500  0.68378600  0.06570500  1
  O  O1  1  0.68378600  0.60824500  0.56570500  1
  O  O2  1  0.31621400  0.39175500  0.43429500  1
  O  O3  1  0.39175500  0.31621400  0.93429500  1
  F  F0  1  0.04223000  0.78229600  0.13525300  1
  F  F1  1  0.78229600  0.04223000  0.63525300  1
  F  F2  1  0.98302300  0.35751400  0.24562000  1
  F  F3  1  0.35751400  0.98302300  0.74562000  1
  F  F4  1  0.64248600  0.01697700  0.25438000  1
  F  F5  1  0.01697700  0.64248600  0.75438000  1
  F  F6  1  0.21770400  0.95777000  0.36474700  1
  F  F7  1  0.95777000  0.21770400  0.86474700  1
loop_
_geom_bond_atom_site_label_1
_geom_bond_atom_site_label_2
_geom_bond_distance
_geom_bond_site_symmetry_2
Li1 O0 1.956309 1_555
Li1 O2 1.956309 1_555
Li3 O1 1.956309 1_555
Li3 O3 1.956309 1_555
Co0 O0 1.764711 1_555
Co0 O1 1.901943 1_555
Co0 F0 1.924234 1_655
Co0 F2 2.022364 1_555
Co0 F4 2.150770 1_565
Co1 O1 1.764711 1_555
Co1 O0 1.901943 1_556
Co1 F1 1.924234 1_565
Co1 F3 2.022364 1_555
Co1 F5 2.150770 1_655
Co2 O2 1.764711 1_555
Co2 O3 1.901943 1_554
Co2 F6 1.924234 1_545
Co2 F4 2.022364 1_555
Co2 F2 2.150770 1_455
Co3 O3 1.764711 1_555
Co3 O2 1.901943 1_555
Co3 F7 1.924234 1_455
Co3 F5 2.022364 1_555
Co3 F3 2.150770 1_545
F0 Li1 1.918800 1_555
F0 Li0 2.161805 1_465
F0 Li2 2.206919 1_554
F1 Li3 1.918800 1_555
F1 Li2 2.161805 1_645
F1 Li0 2.206919 1_555
F2 Li0 1.983887 1_555
F3 Li2 1.983887 1_555
F4 Li0 1.983887 1_555
F5 Li2 1.983887 1_555
F6 Li1 1.918800 1_555
F6 Li0 2.161805 1_465
F6 Li2 2.206919 1_555
F7 Li3 1.918800 1_555
F7 Li2 2.161805 1_645
F7 Li0 2.206919 1_556
