# generated using pymatgen
data_NaGa3P2(HO3)4
_symmetry_space_group_name_H-M   'P 1'
_cell_length_a   10.40912200
_cell_length_b   7.35680500
_cell_length_c   12.87759025
_cell_angle_alpha   63.69613499
_cell_angle_beta   90.00000000
_cell_angle_gamma   90.00000000
_symmetry_Int_Tables_number   1
_chemical_formula_structural   NaGa3P2(HO3)4
_chemical_formula_sum   'Na4 Ga12 P8 H16 O48'
_cell_volume   884.03037125
_cell_formula_units_Z   4
loop_
 _symmetry_equiv_pos_site_id
 _symmetry_equiv_pos_as_xyz
  1  'x, y, z'
loop_
 _atom_site_type_symbol
 _atom_site_label
 _atom_site_symmetry_multiplicity
 _atom_site_fract_x
 _atom_site_fract_y
 _atom_site_fract_z
 _atom_site_occupancy
  Na  Na0  1  0.57605900  0.74293100  0.80609900  1
  Na  Na1  1  0.07605900  0.25706900  0.69390100  1
  Na  Na2  1  0.92394100  0.74293100  0.30609900  1
  Na  Na3  1  0.42394100  0.25706900  0.19390100  1
  Ga  Ga0  1  0.22001700  0.48621800  0.96147300  1
  Ga  Ga1  1  0.75399700  0.97576500  0.96027000  1
  Ga  Ga2  1  0.56261100  0.24680900  0.76257100  1
  Ga  Ga3  1  0.06261100  0.75319100  0.73742900  1
  Ga  Ga4  1  0.72001700  0.51378200  0.53852700  1
  Ga  Ga5  1  0.25399700  0.02423500  0.53973000  1
  Ga  Ga6  1  0.74600300  0.97576500  0.46027000  1
  Ga  Ga7  1  0.27998300  0.48621800  0.46147300  1
  Ga  Ga8  1  0.93738900  0.24680900  0.26257100  1
  Ga  Ga9  1  0.43738900  0.75319100  0.23742900  1
  Ga  Ga10  1  0.24600300  0.02423500  0.03973000  1
  Ga  Ga11  1  0.77998300  0.51378200  0.03852700  1
  P  P0  1  0.82457500  0.44217600  0.80816400  1
  P  P1  1  0.30974100  0.94487300  0.81756600  1
  P  P2  1  0.32457500  0.55782400  0.69183600  1
  P  P3  1  0.80974100  0.05512700  0.68243400  1
  P  P4  1  0.19025900  0.94487300  0.31756600  1
  P  P5  1  0.67542500  0.44217600  0.30816400  1
  P  P6  1  0.69025900  0.05512700  0.18243400  1
  P  P7  1  0.17542500  0.55782400  0.19183600  1
  H  H0  1  0.58528600  0.21114100  0.97043800  1
  H  H1  1  0.05253300  0.22872600  0.94264600  1
  H  H2  1  0.39514500  0.31835800  0.92329600  1
  H  H3  1  0.00958800  0.70938900  0.93596500  1
  H  H4  1  0.89514500  0.68164200  0.57670400  1
  H  H5  1  0.55253300  0.77127400  0.55735400  1
  H  H6  1  0.08528600  0.78885900  0.52956200  1
  H  H7  1  0.50958800  0.29061100  0.56403500  1
  H  H8  1  0.49041200  0.70938900  0.43596500  1
  H  H9  1  0.91471400  0.21114100  0.47043800  1
  H  H10  1  0.44746700  0.22872600  0.44264600  1
  H  H11  1  0.10485500  0.31835800  0.42329600  1
  H  H12  1  0.99041200  0.29061100  0.06403500  1
  H  H13  1  0.60485500  0.68164200  0.07670400  1
  H  H14  1  0.94746700  0.77127400  0.05735400  1
  H  H15  1  0.41471400  0.78885900  0.02956200  1
  O  O0  1  0.35412600  0.28286900  0.99898500  1
  O  O1  1  0.89003200  0.77313700  0.99647400  1
  O  O2  1  0.59660800  0.13496800  0.92526900  1
  O  O3  1  0.86767900  0.22164700  0.88850100  1
  O  O4  1  0.07202800  0.65114800  0.89979800  1
  O  O5  1  0.34072200  0.71880200  0.90139900  1
  O  O6  1  0.77483400  0.55223900  0.87840900  1
  O  O7  1  0.23702300  0.05206700  0.87966200  1
  O  O8  1  0.44241900  0.44840200  0.76952600  1
  O  O9  1  0.21333700  0.54567300  0.77641100  1
  O  O10  1  0.71894500  0.03413200  0.78515300  1
  O  O11  1  0.71333700  0.45432700  0.72358900  1
  O  O12  1  0.94241900  0.55159800  0.73047400  1
  O  O13  1  0.44187000  0.03825700  0.76875000  1
  O  O14  1  0.94187000  0.96174300  0.73125000  1
  O  O15  1  0.21894500  0.96586800  0.71484700  1
  O  O16  1  0.27483400  0.44776100  0.62159100  1
  O  O17  1  0.36767900  0.77835300  0.61149900  1
  O  O18  1  0.73702300  0.94793300  0.62033800  1
  O  O19  1  0.09660800  0.86503200  0.57473100  1
  O  O20  1  0.84072200  0.28119800  0.59860100  1
  O  O21  1  0.57202800  0.34885200  0.60020200  1
  O  O22  1  0.85412600  0.71713100  0.50101500  1
  O  O23  1  0.60996800  0.77313700  0.49647400  1
  O  O24  1  0.39003200  0.22686300  0.50352600  1
  O  O25  1  0.14587400  0.28286900  0.49898500  1
  O  O26  1  0.42797200  0.65114800  0.39979800  1
  O  O27  1  0.15927800  0.71880200  0.40139900  1
  O  O28  1  0.90339200  0.13496800  0.42526900  1
  O  O29  1  0.26297700  0.05206700  0.37966200  1
  O  O30  1  0.63232100  0.22164700  0.38850100  1
  O  O31  1  0.72516600  0.55223900  0.37840900  1
  O  O32  1  0.78105500  0.03413200  0.28515300  1
  O  O33  1  0.05813000  0.03825700  0.26875000  1
  O  O34  1  0.55813000  0.96174300  0.23125000  1
  O  O35  1  0.05758100  0.44840200  0.26952600  1
  O  O36  1  0.28666300  0.54567300  0.27641100  1
  O  O37  1  0.28105500  0.96586800  0.21484700  1
  O  O38  1  0.78666300  0.45432700  0.22358900  1
  O  O39  1  0.55758100  0.55159800  0.23047400  1
  O  O40  1  0.76297700  0.94793300  0.12033800  1
  O  O41  1  0.22516600  0.44776100  0.12159100  1
  O  O42  1  0.65927800  0.28119800  0.09860100  1
  O  O43  1  0.92797200  0.34885200  0.10020200  1
  O  O44  1  0.13232100  0.77835300  0.11149900  1
  O  O45  1  0.40339200  0.86503200  0.07473100  1
  O  O46  1  0.10996800  0.22686300  0.00352600  1
  O  O47  1  0.64587400  0.71713100  0.00101500  1
loop_
_geom_bond_atom_site_label_1
_geom_bond_atom_site_label_2
_geom_bond_distance
_geom_bond_site_symmetry_2
Na0 O6 2.441001 1_555
Na0 O13 2.444721 1_565
Na0 O10 2.522346 1_565
Na0 O47 2.538158 1_556
Na0 O5 2.710228 1_555
Na0 O18 2.758045 1_555
Na0 O8 2.785018 1_555
Na1 O16 2.441001 1_555
Na1 O14 2.444721 1_445
Na1 O15 2.522346 1_545
Na1 O25 2.538158 1_555
Na1 O20 2.710228 1_455
Na1 O7 2.758045 1_555
Na1 O12 2.785018 1_455
Na2 O31 2.441001 1_555
Na2 O33 2.444721 1_665
Na2 O32 2.522346 1_565
Na2 O22 2.538158 1_555
Na2 O27 2.710228 1_655
Na2 O40 2.758045 1_555
Na2 O35 2.785018 1_655
Na3 O41 2.441001 1_555
Na3 O34 2.444721 1_545
Na3 O37 2.522346 1_545
Na3 O0 2.538158 1_554
Na3 O42 2.710228 1_555
Na3 O29 2.758045 1_555
Na3 O39 2.785018 1_555
Ga0 O4 1.903129 1_555
Ga0 O0 1.944117 1_555
Ga0 O41 1.953836 1_556
Ga0 O5 1.982857 1_555
Ga0 O46 2.080930 1_556
Ga0 O9 2.225250 1_555
Ga1 O2 1.947056 1_565
Ga1 O1 1.956695 1_555
Ga1 O40 1.981293 1_556
Ga1 O3 2.011197 1_565
Ga1 O47 2.068217 1_556
Ga1 O10 2.131836 1_565
Ga2 O21 1.885200 1_555
Ga2 O2 1.914182 1_555
Ga2 O13 1.957474 1_555
Ga2 O8 1.972436 1_555
Ga2 O11 2.089266 1_555
Ga2 O10 2.185742 1_555
Ga3 O4 1.885200 1_555
Ga3 O19 1.914182 1_555
Ga3 O14 1.957474 1_455
Ga3 O12 1.972436 1_455
Ga3 O9 2.089266 1_555
Ga3 O15 2.185742 1_555
Ga4 O21 1.903129 1_555
Ga4 O22 1.944117 1_555
Ga4 O31 1.953836 1_555
Ga4 O20 1.982857 1_555
Ga4 O23 2.080930 1_555
Ga4 O11 2.225250 1_555
Ga5 O19 1.947056 1_545
Ga5 O24 1.956695 1_555
Ga5 O29 1.981293 1_555
Ga5 O17 2.011197 1_545
Ga5 O25 2.068217 1_555
Ga5 O15 2.131836 1_545
Ga6 O28 1.947056 1_565
Ga6 O23 1.956695 1_555
Ga6 O18 1.981293 1_555
Ga6 O30 2.011197 1_565
Ga6 O22 2.068217 1_555
Ga6 O32 2.131836 1_565
Ga7 O26 1.903129 1_555
Ga7 O25 1.944117 1_555
Ga7 O16 1.953836 1_555
Ga7 O27 1.982857 1_555
Ga7 O24 2.080930 1_555
Ga7 O36 2.225250 1_555
Ga8 O43 1.885200 1_555
Ga8 O28 1.914182 1_555
Ga8 O33 1.957474 1_655
Ga8 O35 1.972436 1_655
Ga8 O38 2.089266 1_555
Ga8 O32 2.185742 1_555
Ga9 O26 1.885200 1_555
Ga9 O45 1.914182 1_555
Ga9 O34 1.957474 1_555
Ga9 O39 1.972436 1_555
Ga9 O36 2.089266 1_555
Ga9 O37 2.185742 1_555
Ga10 O45 1.947056 1_545
Ga10 O46 1.956695 1_555
Ga10 O7 1.981293 1_554
Ga10 O44 2.011197 1_545
Ga10 O0 2.068217 1_554
Ga10 O37 2.131836 1_545
Ga11 O43 1.903129 1_555
Ga11 O47 1.944117 1_555
Ga11 O6 1.953836 1_554
Ga11 O42 1.982857 1_555
Ga11 O1 2.080930 1_554
Ga11 O38 2.225250 1_555
H0 O2 0.977318 1_555
H1 O46 0.981185 1_556
H2 O0 0.987401 1_555
H3 O4 0.999895 1_555
H4 O22 0.987401 1_555
H5 O23 0.981185 1_555
H6 O19 0.977318 1_555
H7 O21 0.999895 1_555
H8 O26 0.999895 1_555
H9 O28 0.977318 1_555
H10 O24 0.981185 1_555
H11 O25 0.987401 1_555
H12 O43 0.999895 1_555
H13 O47 0.987401 1_555
H14 O1 0.981185 1_554
H15 O45 0.977318 1_555
O3 P0 1.554415 1_555
O5 P1 1.563421 1_555
O6 P0 1.546329 1_555
O7 P1 1.546984 1_545
O8 P2 1.562002 1_555
O9 P2 1.564801 1_555
O10 P3 1.576623 1_555
O11 P0 1.564801 1_555
O12 P0 1.562002 1_555
O13 P1 1.541422 1_545
O14 P3 1.541422 1_565
O15 P1 1.576623 1_555
O16 P2 1.546329 1_555
O17 P2 1.554415 1_555
O18 P3 1.546984 1_565
O20 P3 1.563421 1_555
O27 P4 1.563421 1_555
O29 P4 1.546984 1_545
O30 P5 1.554415 1_555
O31 P5 1.546329 1_555
O32 P6 1.576623 1_555
O33 P4 1.541422 1_545
O34 P6 1.541422 1_565
O35 P7 1.562002 1_555
O36 P7 1.564801 1_555
O37 P4 1.576623 1_555
O38 P5 1.564801 1_555
O39 P5 1.562002 1_555
O40 P6 1.546984 1_565
O41 P7 1.546329 1_555
O42 P6 1.563421 1_555
O44 P7 1.554415 1_555
