# generated using pymatgen
data_Li4V2Fe5O12
_symmetry_space_group_name_H-M   'P 1'
_cell_length_a   5.12407362
_cell_length_b   9.06229221
_cell_length_c   9.97310025
_cell_angle_alpha   89.99999634
_cell_angle_beta   101.65823212
_cell_angle_gamma   90.00000950
_symmetry_Int_Tables_number   1
_chemical_formula_structural   Li4V2Fe5O12
_chemical_formula_sum   'Li8 V4 Fe10 O24'
_cell_volume   453.55564035
_cell_formula_units_Z   2
loop_
 _symmetry_equiv_pos_site_id
 _symmetry_equiv_pos_as_xyz
  1  'x, y, z'
loop_
 _atom_site_type_symbol
 _atom_site_label
 _atom_site_symmetry_multiplicity
 _atom_site_fract_x
 _atom_site_fract_y
 _atom_site_fract_z
 _atom_site_occupancy
  Li  Li0  1  0.24287400  0.07952500  0.99562300  1
  Li  Li1  1  0.76298700  0.07785700  0.50756600  1
  Li  Li2  1  0.49189600  0.42092000  0.75301500  1
  Li  Li3  1  0.74829700  0.41641900  0.50098300  1
  Li  Li4  1  0.25712600  0.57952500  0.50437700  1
  Li  Li5  1  0.73701300  0.57785700  0.99243400  1
  Li  Li6  1  0.00810400  0.92092000  0.74698500  1
  Li  Li7  1  0.75170300  0.91641900  0.99901700  1
  V  V0  1  0.00455100  0.25456200  0.75704300  1
  V  V1  1  0.49531900  0.25301200  0.24434400  1
  V  V2  1  0.00468100  0.75301200  0.25565600  1
  V  V3  1  0.49544900  0.75456200  0.74295700  1
  Fe  Fe0  1  0.00157800  0.07709400  0.25799800  1
  Fe  Fe1  1  0.49610000  0.07438400  0.74282200  1
  Fe  Fe2  1  0.25640400  0.24415200  0.50333700  1
  Fe  Fe3  1  0.74159700  0.25361900  0.99799600  1
  Fe  Fe4  1  0.01120000  0.42143000  0.25183100  1
  Fe  Fe5  1  0.00390000  0.57438400  0.75717800  1
  Fe  Fe6  1  0.49842200  0.57709400  0.24200200  1
  Fe  Fe7  1  0.24359600  0.74415200  0.99666300  1
  Fe  Fe8  1  0.75840300  0.75361900  0.50200400  1
  Fe  Fe9  1  0.48880000  0.92143000  0.24816900  1
  O  O0  1  0.12636000  0.10092700  0.63966100  1
  O  O1  1  0.40355300  0.09450900  0.36421500  1
  O  O2  1  0.36473900  0.23598000  0.86522100  1
  O  O3  1  0.61442100  0.09083900  0.12158200  1
  O  O4  1  0.86465600  0.10030500  0.87590500  1
  O  O5  1  0.11213400  0.25044800  0.13513300  1
  O  O6  1  0.11130400  0.40856200  0.64058600  1
  O  O7  1  0.65161100  0.23915200  0.63981500  1
  O  O8  1  0.86653200  0.26045500  0.36554700  1
  O  O9  1  0.37050500  0.41213900  0.37337200  1
  O  O10  1  0.63936200  0.40874700  0.12864200  1
  O  O11  1  0.86592600  0.40637000  0.86767200  1
  O  O12  1  0.09644700  0.59450900  0.13578500  1
  O  O13  1  0.37364000  0.60092700  0.86033900  1
  O  O14  1  0.13526100  0.73598000  0.63477900  1
  O  O15  1  0.63534400  0.60030500  0.62409500  1
  O  O16  1  0.38786600  0.75044800  0.36486700  1
  O  O17  1  0.88557900  0.59083900  0.37841800  1
  O  O18  1  0.84838900  0.73915200  0.86018500  1
  O  O19  1  0.12949500  0.91213900  0.12662800  1
  O  O20  1  0.38869600  0.90856200  0.85941400  1
  O  O21  1  0.63346800  0.76045400  0.13445300  1
  O  O22  1  0.63407400  0.90637000  0.63232800  1
  O  O23  1  0.86063800  0.90874700  0.37135800  1
loop_
_geom_bond_atom_site_label_1
_geom_bond_atom_site_label_2
_geom_bond_distance
_geom_bond_site_symmetry_2
Li0 O3 2.060724 1_556
Li0 O4 2.069239 1_455
Li0 O2 2.102319 1_555
Li0 O19 2.156914 1_546
Li0 O5 2.271696 1_556
Li0 O20 2.283469 1_545
Li1 O0 2.062707 1_655
Li1 O1 2.096338 1_555
Li1 O7 2.122749 1_555
Li1 O23 2.172326 1_545
Li1 O22 2.175275 1_545
Li1 O8 2.308579 1_555
Li2 O11 2.027912 1_555
Li2 O6 2.046766 1_555
Li2 O13 2.106186 1_555
Li2 O2 2.186406 1_555
Li2 O7 2.243009 1_555
Li2 O15 2.284302 1_555
Li3 O6 2.087281 1_655
Li3 O9 2.091165 1_555
Li3 O8 2.126002 1_555
Li3 O17 2.198846 1_555
Li3 O15 2.215103 1_555
Li3 O7 2.240629 1_555
Li4 O17 2.060724 1_455
Li4 O15 2.069239 1_555
Li4 O14 2.102319 1_555
Li4 O9 2.156915 1_555
Li4 O16 2.271696 1_555
Li4 O6 2.283469 1_555
Li5 O13 2.062707 1_555
Li5 O12 2.096338 1_656
Li5 O18 2.122748 1_555
Li5 O10 2.172326 1_556
Li5 O11 2.175276 1_555
Li5 O21 2.308573 1_556
Li6 O22 2.027912 1_455
Li6 O20 2.046766 1_555
Li6 O0 2.106186 1_565
Li6 O14 2.186406 1_555
Li6 O18 2.243009 1_455
Li6 O4 2.284302 1_465
Li7 O20 2.087281 1_555
Li7 O19 2.091165 1_656
Li7 O21 2.126007 1_556
Li7 O3 2.198847 1_566
Li7 O4 2.215103 1_565
Li7 O18 2.240629 1_555
Fe0 O23 2.111198 1_445
Fe0 O1 2.123159 1_555
Fe0 O5 2.137971 1_555
Fe0 O8 2.165739 1_455
Fe0 O3 2.170533 1_455
Fe0 O19 2.174364 1_545
Fe1 O0 1.979397 1_555
Fe1 O20 2.042489 1_545
Fe1 O7 2.061728 1_555
Fe1 O22 2.085022 1_545
Fe1 O4 2.090510 1_555
Fe1 O2 2.102331 1_555
Fe2 O0 2.084052 1_555
Fe2 O9 2.155378 1_555
Fe2 O1 2.180699 1_555
Fe2 O8 2.188991 1_455
Fe2 O7 2.200366 1_555
Fe2 O6 2.248912 1_555
Fe3 O4 2.029997 1_555
Fe3 O10 2.055302 1_556
Fe3 O11 2.084712 1_555
Fe3 O5 2.103999 1_656
Fe3 O3 2.108200 1_556
Fe3 O2 2.115307 1_555
Fe4 O9 1.991009 1_555
Fe4 O12 2.048101 1_555
Fe4 O10 2.051056 1_455
Fe4 O5 2.065478 1_555
Fe4 O8 2.074503 1_455
Fe4 O17 2.166454 1_455
Fe5 O13 1.979396 1_555
Fe5 O6 2.042490 1_555
Fe5 O18 2.061728 1_455
Fe5 O11 2.085021 1_455
Fe5 O15 2.090510 1_455
Fe5 O14 2.102331 1_555
Fe6 O10 2.111198 1_555
Fe6 O12 2.123159 1_555
Fe6 O16 2.137972 1_555
Fe6 O21 2.165732 1_555
Fe6 O17 2.170533 1_555
Fe6 O9 2.174364 1_555
Fe7 O13 2.084052 1_555
Fe7 O19 2.155378 1_556
Fe7 O12 2.180699 1_556
Fe7 O21 2.188990 1_556
Fe7 O18 2.200366 1_455
Fe7 O20 2.248911 1_555
Fe8 O15 2.029997 1_555
Fe8 O23 2.055302 1_555
Fe8 O22 2.084713 1_555
Fe8 O16 2.103999 1_555
Fe8 O17 2.108200 1_555
Fe8 O14 2.115307 1_655
Fe9 O19 1.991009 1_555
Fe9 O1 2.048101 1_565
Fe9 O23 2.051056 1_555
Fe9 O16 2.065478 1_555
Fe9 O21 2.074510 1_555
Fe9 O3 2.166454 1_565
O0 V0 1.998445 1_555
O1 V1 1.985125 1_555
O2 V0 1.947802 1_555
O3 V1 2.081652 1_555
O4 V0 2.053457 1_655
O5 V1 2.043955 1_555
O6 V0 1.962804 1_555
O7 V0 1.949997 1_655
O8 V1 2.038264 1_555
O9 V1 2.115902 1_555
O10 V1 2.052387 1_555
O11 V0 1.982732 1_655
O12 V2 1.985125 1_555
O13 V3 1.998445 1_555
O14 V3 1.947802 1_555
O15 V3 2.053457 1_555
O16 V2 2.043955 1_555
O17 V2 2.081652 1_655
O18 V3 1.949997 1_555
O19 V2 2.115902 1_555
O20 V3 1.962804 1_555
O21 V2 2.038263 1_655
O22 V3 1.982732 1_555
O23 V2 2.052387 1_655
