# generated using pymatgen
data_Li2FeOF3
_symmetry_space_group_name_H-M   'P 1'
_cell_length_a   5.90275275
_cell_length_b   10.40888442
_cell_length_c   5.94934314
_cell_angle_alpha   106.05441129
_cell_angle_beta   119.74172665
_cell_angle_gamma   73.52902009
_symmetry_Int_Tables_number   1
_chemical_formula_structural   Li2FeOF3
_chemical_formula_sum   'Li8 Fe4 O4 F12'
_cell_volume   300.27717750
_cell_formula_units_Z   4
loop_
 _symmetry_equiv_pos_site_id
 _symmetry_equiv_pos_as_xyz
  1  'x, y, z'
loop_
 _atom_site_type_symbol
 _atom_site_label
 _atom_site_symmetry_multiplicity
 _atom_site_fract_x
 _atom_site_fract_y
 _atom_site_fract_z
 _atom_site_occupancy
  Li  Li0  1  0.74509500  0.24513800  0.23538200  1
  Li  Li1  1  0.24509400  0.74513800  0.73538000  1
  Li  Li2  1  0.68069700  0.94695200  0.80835700  1
  Li  Li3  1  0.18068900  0.44695300  0.30834700  1
  Li  Li4  1  0.76603500  0.74473500  0.24640600  1
  Li  Li5  1  0.26603400  0.24473500  0.74640900  1
  Li  Li6  1  0.23578500  0.74470500  0.24644900  1
  Li  Li7  1  0.73578800  0.24470500  0.74645200  1
  Fe  Fe0  1  0.82720600  0.56317800  0.71763500  1
  Fe  Fe1  1  0.98579900  0.00635200  0.47796400  1
  Fe  Fe2  1  0.32721500  0.06317500  0.21764400  1
  Fe  Fe3  1  0.48579300  0.50635000  0.97795100  1
  O  O0  1  0.12128600  0.11952900  0.38862400  1
  O  O1  1  0.62128000  0.61952800  0.88862100  1
  O  O2  1  0.64778000  0.11951200  0.38857900  1
  O  O3  1  0.14777700  0.61950900  0.88857800  1
  F  F0  1  0.12160400  0.63817200  0.38151800  1
  F  F1  1  0.62160400  0.13817200  0.88151800  1
  F  F2  1  0.88339900  0.87487300  0.14153200  1
  F  F3  1  0.38339300  0.37487000  0.64151800  1
  F  F4  1  0.88037100  0.36798200  0.62859700  1
  F  F5  1  0.38037400  0.86797800  0.12859700  1
  F  F6  1  0.12370900  0.12083800  0.86856300  1
  F  F7  1  0.62370600  0.62084100  0.36855900  1
  F  F8  1  0.34282100  0.87903400  0.61019300  1
  F  F9  1  0.84281100  0.37903000  0.11018200  1
  F  F10  1  0.88842900  0.87900900  0.61022700  1
  F  F11  1  0.38842600  0.37900800  0.11022000  1
loop_
_geom_bond_atom_site_label_1
_geom_bond_atom_site_label_2
_geom_bond_distance
_geom_bond_site_symmetry_2
Li0 O2 2.115447 1_555
Li0 O0 2.115614 1_655
Li1 O3 2.115485 1_555
Li1 O1 2.115599 1_555
Li4 O1 2.062041 1_554
Li5 O0 2.062033 1_555
Li6 O3 2.062285 1_554
Li7 O2 2.062280 1_555
Fe0 O3 1.829936 1_655
Fe0 O1 1.829996 1_555
Fe1 O2 1.900579 1_555
Fe1 O0 1.900584 1_655
Fe2 O2 1.829937 1_555
Fe2 O0 1.829981 1_555
Fe3 O1 1.900553 1_555
Fe3 O3 1.900567 1_555
F0 Li3 1.884278 1_555
F0 Li4 1.944398 1_455
F0 Li6 1.945156 1_555
F0 Li1 1.960673 1_555
F1 Li2 1.884286 1_545
F1 Li5 1.944401 1_555
F1 Li7 1.945155 1_555
F1 Li0 1.960682 1_556
F2 Li2 1.970757 1_554
F2 Fe1 1.999532 1_565
F2 Li4 2.032881 1_555
F2 Li6 2.033082 1_655
F3 Li3 1.970758 1_555
F3 Fe3 1.999541 1_555
F3 Li5 2.032902 1_555
F3 Li7 2.033102 1_555
F4 Fe0 1.927505 1_555
F4 Li5 2.139511 1_655
F4 Li7 2.139828 1_555
F4 Li0 2.194623 1_555
F5 Fe2 1.927518 1_565
F5 Li4 2.139487 1_555
F5 Li6 2.139808 1_555
F5 Li1 2.194615 1_554
F6 Fe2 1.980329 1_556
F6 Fe1 2.150435 1_455
F6 Li7 2.150991 1_455
F6 Li5 2.153041 1_555
F7 Fe0 1.980304 1_555
F7 Fe3 2.150494 1_554
F7 Li6 2.150979 1_555
F7 Li4 2.153029 1_555
F8 Li2 1.967980 1_555
F8 Fe1 2.040672 1_465
F8 Li1 2.070309 1_555
F8 Li6 2.123218 1_555
F9 Li3 1.968015 1_655
F9 Fe3 2.040667 1_554
F9 Li0 2.070285 1_555
F9 Li7 2.123143 1_554
F10 Li2 1.968343 1_555
F10 Fe1 2.040607 1_565
F10 Li1 2.069640 1_655
F10 Li4 2.123254 1_555
F11 Li3 1.968353 1_555
F11 Fe3 2.040612 1_554
F11 Li0 2.069652 1_555
F11 Li5 2.123209 1_554
