# generated using pymatgen
data_Li4NiOF4
_symmetry_space_group_name_H-M   'P 1'
_cell_length_a   2.91190745
_cell_length_b   11.64576232
_cell_length_c   11.36684431
_cell_angle_alpha   112.59038656
_cell_angle_beta   97.36303489
_cell_angle_gamma   90.00221595
_symmetry_Int_Tables_number   1
_chemical_formula_structural   Li4NiOF4
_chemical_formula_sum   'Li16 Ni4 O4 F16'
_cell_volume   352.44449285
_cell_formula_units_Z   4
loop_
 _symmetry_equiv_pos_site_id
 _symmetry_equiv_pos_as_xyz
  1  'x, y, z'
loop_
 _atom_site_type_symbol
 _atom_site_label
 _atom_site_symmetry_multiplicity
 _atom_site_fract_x
 _atom_site_fract_y
 _atom_site_fract_z
 _atom_site_occupancy
  Li  Li0  1  0.60074300  0.20055700  0.20147600  1
  Li  Li1  1  0.60087200  0.45065600  0.20174000  1
  Li  Li2  1  0.60073800  0.70055900  0.20147200  1
  Li  Li3  1  0.60087400  0.95066900  0.20175200  1
  Li  Li4  1  0.39913600  0.29932800  0.79824700  1
  Li  Li5  1  0.39928500  0.54943800  0.79852700  1
  Li  Li6  1  0.39913900  0.79934900  0.79825600  1
  Li  Li7  1  0.39928500  0.04944100  0.79852600  1
  Li  Li8  1  0.20166200  0.15121400  0.40323200  1
  Li  Li9  1  0.20165900  0.40119800  0.40322600  1
  Li  Li10  1  0.20166100  0.65121300  0.40322800  1
  Li  Li11  1  0.20166300  0.90121600  0.40323500  1
  Li  Li12  1  0.79835300  0.34878000  0.59676300  1
  Li  Li13  1  0.79836000  0.59879000  0.59677100  1
  Li  Li14  1  0.79836000  0.84879800  0.59677300  1
  Li  Li15  1  0.79835700  0.09879000  0.59677100  1
  Ni  Ni0  1  0.00009700  0.49992600  0.99998000  1
  Ni  Ni1  1  0.99990400  0.75006200  0.99999600  1
  Ni  Ni2  1  0.00010000  0.99987600  0.00001800  1
  Ni  Ni3  1  0.99958600  0.25014300  0.00002700  1
  O  O0  1  0.49998200  0.12499900  0.00000000  1
  O  O1  1  0.50003800  0.37502000  0.00001900  1
  O  O2  1  0.49998900  0.62500300  0.99999400  1
  O  O3  1  0.50002200  0.87498200  0.99999000  1
  F  F0  1  0.10433800  0.07809400  0.20867100  1
  F  F1  1  0.10435700  0.32843700  0.20871100  1
  F  F2  1  0.10432900  0.57814500  0.20869800  1
  F  F3  1  0.10433500  0.82840400  0.20871200  1
  F  F4  1  0.89569100  0.42161800  0.79131000  1
  F  F5  1  0.89566400  0.67183000  0.79127100  1
  F  F6  1  0.89566100  0.92158300  0.79131600  1
  F  F7  1  0.89565800  0.17188900  0.79130300  1
  F  F8  1  0.70097300  0.27564500  0.40172300  1
  F  F9  1  0.70093300  0.52571800  0.40177700  1
  F  F10  1  0.70096100  0.77560200  0.40168200  1
  F  F11  1  0.70092900  0.02567200  0.40175400  1
  F  F12  1  0.29906500  0.22439600  0.59830300  1
  F  F13  1  0.29910400  0.47432900  0.59825700  1
  F  F14  1  0.29905600  0.72434900  0.59828100  1
  F  F15  1  0.29907800  0.97428100  0.59821200  1
loop_
_geom_bond_atom_site_label_1
_geom_bond_atom_site_label_2
_geom_bond_distance
_geom_bond_site_symmetry_2
Li0 O0 2.093961 1_555
Li1 O1 2.096507 1_555
Li2 O2 2.093982 1_554
Li3 O3 2.096933 1_554
Li4 O1 2.097037 1_556
Li5 O2 2.093867 1_555
Li6 O3 2.096642 1_555
Li7 O0 2.093940 1_556
Ni0 O1 2.058089 1_556
Ni0 O1 2.058333 1_456
Ni0 O2 2.059179 1_555
Ni0 O2 2.059732 1_455
Ni1 O3 2.058015 1_555
Ni1 O3 2.058434 1_655
Ni1 O2 2.059127 1_555
Ni1 O2 2.059561 1_655
Ni2 O3 2.057813 1_554
Ni2 O3 2.057997 1_454
Ni2 O0 2.059669 1_565
Ni2 O0 2.060197 1_465
Ni3 O1 2.056977 1_555
Ni3 O1 2.058776 1_655
Ni3 O0 2.059085 1_555
Ni3 O0 2.060850 1_655
F0 Li8 2.022094 1_555
F0 Li3 2.058692 1_445
F0 Li3 2.058763 1_545
F0 Li0 2.061515 1_555
F0 Li0 2.061575 1_455
F0 Ni2 2.168552 1_545
F1 Li9 2.021615 1_555
F1 Li1 2.058729 1_555
F1 Li1 2.058797 1_455
F1 Li0 2.061562 1_455
F1 Li0 2.061666 1_555
F1 Ni3 2.168875 1_455
F2 Li10 2.021771 1_555
F2 Li1 2.059058 1_455
F2 Li1 2.059238 1_555
F2 Li2 2.061239 1_455
F2 Li2 2.061259 1_555
F2 Ni0 2.169228 1_554
F3 Li11 2.021698 1_555
F3 Li3 2.059099 1_455
F3 Li3 2.059107 1_555
F3 Li2 2.061220 1_455
F3 Li2 2.061404 1_555
F3 Ni1 2.169207 1_454
F4 Li12 2.021947 1_555
F4 Li4 2.059216 1_655
F4 Li4 2.059243 1_555
F4 Li5 2.061094 1_655
F4 Li5 2.061243 1_555
F4 Ni0 2.168729 1_655
F5 Li13 2.021459 1_555
F5 Li6 2.059241 1_655
F5 Li6 2.059402 1_555
F5 Li5 2.061151 1_555
F5 Li5 2.061192 1_655
F5 Ni1 2.169301 1_555
F6 Li14 2.021906 1_555
F6 Li6 2.058728 1_555
F6 Li6 2.058831 1_655
F6 Li7 2.061495 1_665
F6 Li7 2.061506 1_565
F6 Ni2 2.169061 1_656
F7 Li15 2.021792 1_555
F7 Li4 2.058743 1_655
F7 Li4 2.058807 1_555
F7 Li7 2.061452 1_555
F7 Li7 2.061585 1_655
F7 Ni3 2.169291 1_556
F8 Li12 2.027071 1_555
F8 Li9 2.058661 1_655
F8 Li8 2.058802 1_655
F8 Li8 2.058994 1_555
F8 Li9 2.059013 1_555
F8 Li0 2.081188 1_555
F9 Li13 2.026593 1_555
F9 Li10 2.058480 1_655
F9 Li10 2.058552 1_555
F9 Li9 2.059399 1_555
F9 Li9 2.059483 1_655
F9 Li1 2.079005 1_555
F10 Li14 2.027601 1_555
F10 Li10 2.058558 1_655
F10 Li10 2.058781 1_555
F10 Li11 2.058995 1_655
F10 Li11 2.059383 1_555
F10 Li2 2.080803 1_555
F11 Li15 2.026832 1_555
F11 Li8 2.058768 1_655
F11 Li8 2.058875 1_555
F11 Li11 2.058990 1_545
F11 Li11 2.059040 1_645
F11 Li3 2.078641 1_545
F12 Li8 2.027393 1_555
F12 Li12 2.058528 1_455
F12 Li12 2.058690 1_555
F12 Li15 2.059026 1_455
F12 Li15 2.059346 1_555
F12 Li4 2.078039 1_555
F13 Li9 2.026977 1_555
F13 Li12 2.058798 1_455
F13 Li12 2.058864 1_555
F13 Li13 2.059031 1_555
F13 Li13 2.059113 1_455
F13 Li5 2.081427 1_555
F14 Li10 2.027206 1_555
F14 Li13 2.058703 1_455
F14 Li14 2.058962 1_455
F14 Li13 2.059028 1_555
F14 Li14 2.059123 1_555
F14 Li6 2.078361 1_555
F15 Li11 2.026416 1_555
F15 Li14 2.058409 1_455
F15 Li14 2.058497 1_555
F15 Li15 2.059285 1_565
F15 Li15 2.059365 1_465
F15 Li7 2.081884 1_565
