# generated using pymatgen
data_La2BiO5
_symmetry_space_group_name_H-M   'P 1'
_cell_length_a   5.72205200
_cell_length_b   5.77438933
_cell_length_c   8.80612154
_cell_angle_alpha   71.71955310
_cell_angle_beta   86.36333480
_cell_angle_gamma   86.52153218
_symmetry_Int_Tables_number   1
_chemical_formula_structural   La2BiO5
_chemical_formula_sum   'La4 Bi2 O10'
_cell_volume   275.47014334
_cell_formula_units_Z   2
loop_
 _symmetry_equiv_pos_site_id
 _symmetry_equiv_pos_as_xyz
  1  'x, y, z'
loop_
 _atom_site_type_symbol
 _atom_site_label
 _atom_site_symmetry_multiplicity
 _atom_site_fract_x
 _atom_site_fract_y
 _atom_site_fract_z
 _atom_site_occupancy
  La  La0  1  0.97442200  0.00129900  0.01684900  1
  La  La1  1  0.98118500  0.67044200  0.66666300  1
  La  La2  1  0.50798200  0.14722100  0.66582900  1
  La  La3  1  0.02131100  0.31685800  0.34291300  1
  Bi  Bi0  1  0.49768300  0.51172200  0.99544100  1
  Bi  Bi1  1  0.48679100  0.78548300  0.36865700  1
  O  O0  1  0.71227000  0.34241000  0.83148700  1
  O  O1  1  0.26868400  0.78488400  0.83232700  1
  O  O2  1  0.76295500  0.50943800  0.47875000  1
  O  O3  1  0.74215300  0.79996500  0.89917300  1
  O  O4  1  0.75976500  0.98950000  0.51474700  1
  O  O5  1  0.25294800  0.99516600  0.49030200  1
  O  O6  1  0.24909800  0.23804000  0.04163000  1
  O  O7  1  0.26408400  0.48755900  0.52407000  1
  O  O8  1  0.73616100  0.26899500  0.15947700  1
  O  O9  1  0.28250800  0.65101900  0.17168400  1
loop_
_geom_bond_atom_site_label_1
_geom_bond_atom_site_label_2
_geom_bond_distance
_geom_bond_site_symmetry_2
La0 O6 2.208633 1_655
La0 O3 2.304307 1_544
La0 O8 2.563336 1_555
La0 O0 2.594115 1_554
La0 O9 2.683305 1_645
La0 O1 2.776439 1_644
La1 O4 2.274817 1_555
La1 O7 2.383056 1_655
La1 O1 2.512455 1_655
La1 O0 2.531404 1_555
La1 O2 2.555407 1_555
La1 O5 2.562549 1_655
La1 O3 2.665279 1_555
La2 O4 2.243425 1_545
La2 O7 2.391107 1_555
La2 O0 2.484467 1_555
La2 O1 2.563349 1_545
La2 O5 2.565697 1_545
La2 O2 2.668539 1_555
La2 O3 2.734419 1_545
La3 O2 2.294258 1_455
La3 O5 2.301944 1_545
La3 O8 2.452996 1_455
La3 O4 2.522754 1_445
La3 O9 2.543520 1_555
La3 O7 2.622988 1_555
La3 O6 3.031827 1_555
Bi0 O6 2.117153 1_556
Bi0 O8 2.158947 1_556
Bi0 O3 2.166274 1_555
Bi0 O1 2.198834 1_555
Bi0 O9 2.234337 1_556
Bi0 O0 2.250121 1_555
Bi1 O5 2.199814 1_555
Bi1 O2 2.212931 1_555
Bi1 O7 2.241489 1_555
Bi1 O9 2.488014 1_555
Bi1 O4 2.629001 1_555
