# generated using pymatgen
data_Li3Cr(CoO2)4
_symmetry_space_group_name_H-M   'P 1'
_cell_length_a   5.85378829
_cell_length_b   5.85378829
_cell_length_c   5.88139878
_cell_angle_alpha   60.40984920
_cell_angle_beta   60.40984920
_cell_angle_gamma   59.71728628
_symmetry_Int_Tables_number   1
_chemical_formula_structural   Li3Cr(CoO2)4
_chemical_formula_sum   'Li3 Cr1 Co4 O8'
_cell_volume   143.07201459
_cell_formula_units_Z   1
loop_
 _symmetry_equiv_pos_site_id
 _symmetry_equiv_pos_as_xyz
  1  'x, y, z'
loop_
 _atom_site_type_symbol
 _atom_site_label
 _atom_site_symmetry_multiplicity
 _atom_site_fract_x
 _atom_site_fract_y
 _atom_site_fract_z
 _atom_site_occupancy
  Li  Li0  1  0.00000000  0.50000000  0.50000000  1
  Li  Li1  1  0.00000000  0.00000000  0.50000000  1
  Li  Li2  1  0.50000000  0.00000000  0.50000000  1
  Cr  Cr0  1  0.50000000  0.50000000  0.00000000  1
  Co  Co0  1  0.50000000  0.50000000  0.50000000  1
  Co  Co1  1  0.00000000  0.00000000  0.00000000  1
  Co  Co2  1  0.00000000  0.50000000  0.00000000  1
  Co  Co3  1  0.50000000  0.00000000  0.00000000  1
  O  O0  1  0.74332300  0.74332300  0.77866400  1
  O  O1  1  0.72890900  0.24367000  0.76975300  1
  O  O2  1  0.24367000  0.72890900  0.76975300  1
  O  O3  1  0.24892400  0.24892400  0.78058500  1
  O  O4  1  0.75107600  0.75107600  0.21941500  1
  O  O5  1  0.75633000  0.27109100  0.23024700  1
  O  O6  1  0.27109100  0.75633000  0.23024700  1
  O  O7  1  0.25667700  0.25667700  0.22133600  1
loop_
_geom_bond_atom_site_label_1
_geom_bond_atom_site_label_2
_geom_bond_distance
_geom_bond_site_symmetry_2
Li0 O0 2.165081 1_455
Li0 O7 2.165081 1_555
Li0 O3 2.196874 1_555
Li0 O4 2.196874 1_455
Li0 O6 2.202473 1_555
Li0 O1 2.202473 1_455
Li1 O2 2.129686 1_545
Li1 O1 2.129686 1_455
Li1 O5 2.129686 1_455
Li1 O6 2.129686 1_545
Li1 O7 2.148075 1_555
Li1 O0 2.148075 1_445
Li2 O0 2.165081 1_545
Li2 O7 2.165081 1_555
Li2 O3 2.196874 1_555
Li2 O4 2.196874 1_545
Li2 O5 2.202473 1_555
Li2 O2 2.202473 1_545
Cr0 O6 2.016857 1_555
Cr0 O5 2.016857 1_555
Cr0 O1 2.016857 1_554
Cr0 O2 2.016857 1_554
Cr0 O0 2.033714 1_554
Cr0 O7 2.033714 1_555
Co0 O1 2.069979 1_555
Co0 O2 2.069979 1_555
Co0 O5 2.069979 1_555
Co0 O6 2.069979 1_555
Co0 O4 2.105122 1_555
Co0 O3 2.105122 1_555
Co1 O5 2.078091 1_455
Co1 O6 2.078091 1_545
Co1 O1 2.078091 1_454
Co1 O2 2.078091 1_544
Co1 O3 2.083064 1_554
Co1 O4 2.083064 1_445
Co2 O4 1.950610 1_455
Co2 O3 1.950610 1_554
Co2 O2 1.972803 1_554
Co2 O5 1.972803 1_455
Co2 O7 1.980678 1_555
Co2 O0 1.980678 1_454
Co3 O4 1.950610 1_545
Co3 O3 1.950610 1_554
Co3 O1 1.972803 1_554
Co3 O6 1.972803 1_545
Co3 O7 1.980678 1_555
Co3 O0 1.980678 1_544
