# generated using pymatgen
data_Fe10O9F11
_symmetry_space_group_name_H-M   'P 1'
_cell_length_a   4.75083100
_cell_length_b   4.76354411
_cell_length_c   15.55150895
_cell_angle_alpha   90.34347707
_cell_angle_beta   90.36452300
_cell_angle_gamma   91.30001066
_symmetry_Int_Tables_number   1
_chemical_formula_structural   Fe10O9F11
_chemical_formula_sum   'Fe10 O9 F11'
_cell_volume   351.83863728
_cell_formula_units_Z   1
loop_
 _symmetry_equiv_pos_site_id
 _symmetry_equiv_pos_as_xyz
  1  'x, y, z'
loop_
 _atom_site_type_symbol
 _atom_site_label
 _atom_site_symmetry_multiplicity
 _atom_site_fract_x
 _atom_site_fract_y
 _atom_site_fract_z
 _atom_site_occupancy
  Fe  Fe0  1  0.99894300  0.00127500  0.00061300  1
  Fe  Fe1  1  0.97472600  0.95677900  0.20627400  1
  Fe  Fe2  1  0.04867100  0.00220400  0.40089000  1
  Fe  Fe3  1  0.04318300  0.99353100  0.59799000  1
  Fe  Fe4  1  0.03272200  0.01374500  0.79398900  1
  Fe  Fe5  1  0.51591100  0.50853900  0.09326900  1
  Fe  Fe6  1  0.46316100  0.49670300  0.49982700  1
  Fe  Fe7  1  0.47250200  0.51920100  0.29783100  1
  Fe  Fe8  1  0.45775400  0.50314300  0.70221800  1
  Fe  Fe9  1  0.49044400  0.48296700  0.90777200  1
  O  O0  1  0.18698300  0.80576900  0.30050600  1
  O  O1  1  0.20202500  0.81023000  0.49923000  1
  O  O2  1  0.19424400  0.81202800  0.69939500  1
  O  O3  1  0.30769400  0.30278900  0.00334600  1
  O  O4  1  0.31432700  0.31559600  0.39704500  1
  O  O5  1  0.30818400  0.31245800  0.60034900  1
  O  O6  1  0.31078200  0.31313100  0.80227100  1
  O  O7  1  0.69700000  0.69111600  0.99756900  1
  O  O8  1  0.67782600  0.67913000  0.20059100  1
  F  F0  1  0.19098700  0.79330000  0.10841900  1
  F  F1  1  0.20114300  0.80398700  0.89242800  1
  F  F2  1  0.28615500  0.28924100  0.20047900  1
  F  F3  1  0.70070100  0.70494300  0.40072800  1
  F  F4  1  0.69932400  0.70292500  0.59927000  1
  F  F5  1  0.70364300  0.70673200  0.79779300  1
  F  F6  1  0.79912400  0.18769000  0.11076900  1
  F  F7  1  0.81010900  0.19919600  0.49914100  1
  F  F8  1  0.79932600  0.19356900  0.30179000  1
  F  F9  1  0.80711200  0.19568200  0.89004700  1
  F  F10  1  0.80529400  0.20239800  0.69816200  1
loop_
_geom_bond_atom_site_label_1
_geom_bond_atom_site_label_2
_geom_bond_distance
_geom_bond_site_symmetry_2
Fe0 O3 2.029568 1_655
Fe0 O7 2.035923 1_544
Fe1 O8 1.912851 1_555
Fe1 O0 1.925776 1_655
Fe2 O1 1.933586 1_545
Fe2 O4 1.934321 1_555
Fe2 O0 1.941109 1_545
Fe3 O1 1.928558 1_555
Fe3 O2 1.944121 1_555
Fe3 O5 1.950989 1_565
Fe4 O6 1.925017 1_555
Fe4 O2 1.925383 1_545
Fe5 O7 1.925979 1_554
Fe5 O3 1.953643 1_555
Fe5 O8 1.994173 1_555
Fe6 O4 1.934057 1_555
Fe6 O5 1.938546 1_555
Fe6 O1 1.963120 1_555
Fe7 O0 1.946585 1_555
Fe7 O8 1.953869 1_555
Fe7 O4 1.971196 1_555
Fe8 O6 1.931292 1_555
Fe8 O5 1.943934 1_555
Fe8 O2 1.953918 1_555
Fe9 O3 1.922888 1_556
Fe9 O7 1.953987 1_555
Fe9 O6 2.002469 1_555
F0 Fe1 2.004961 1_455
F0 Fe5 2.091463 1_555
F0 Fe0 2.160132 1_465
F1 Fe4 2.005297 1_565
F1 Fe9 2.092838 1_555
F1 Fe0 2.163138 1_466
F2 Fe7 2.048141 1_555
F2 Fe1 2.145312 1_445
F2 Fe5 2.248292 1_555
F3 Fe7 2.106248 1_555
F3 Fe6 2.149953 1_555
F3 Fe2 2.152136 1_665
F4 Fe3 2.117441 1_655
F4 Fe6 2.127240 1_555
F4 Fe8 2.185881 1_555
F5 Fe8 2.103229 1_555
F5 Fe4 2.117782 1_665
F5 Fe9 2.254386 1_555
F6 Fe1 2.038946 1_545
F6 Fe5 2.077019 1_555
F6 Fe0 2.159886 1_555
F7 Fe2 2.133733 1_655
F7 Fe3 2.143517 1_645
F7 Fe6 2.198053 1_555
F8 Fe1 2.052182 1_545
F8 Fe2 2.156851 1_655
F8 Fe7 2.220347 1_555
F9 Fe4 2.044142 1_655
F9 Fe9 2.075153 1_555
F9 Fe0 2.163836 1_556
F10 Fe4 2.058030 1_655
F10 Fe3 2.179190 1_645
F10 Fe8 2.211351 1_555
