# generated using pymatgen
data_Ga2CoO4
_symmetry_space_group_name_H-M   'P 1'
_cell_length_a   5.90216697
_cell_length_b   5.90236786
_cell_length_c   10.22791056
_cell_angle_alpha   90.00009062
_cell_angle_beta   106.75809122
_cell_angle_gamma   59.99938115
_symmetry_Int_Tables_number   1
_chemical_formula_structural   Ga2CoO4
_chemical_formula_sum   'Ga8 Co4 O16'
_cell_volume   290.96498913
_cell_formula_units_Z   4
loop_
 _symmetry_equiv_pos_site_id
 _symmetry_equiv_pos_as_xyz
  1  'x, y, z'
loop_
 _atom_site_type_symbol
 _atom_site_label
 _atom_site_symmetry_multiplicity
 _atom_site_fract_x
 _atom_site_fract_y
 _atom_site_fract_z
 _atom_site_occupancy
  Ga  Ga0  1  0.50000845  0.99999557  0.00001604  1
  Ga  Ga1  1  0.49998969  0.50000532  0.49998053  1
  Ga  Ga2  1  0.50009246  0.24994013  0.25008736  1
  Ga  Ga3  1  0.49990379  0.75006320  0.74991337  1
  Ga  Ga4  1  0.50009019  0.74997116  0.25008662  1
  Ga  Ga5  1  0.49990749  0.25002822  0.74991338  1
  Ga  Ga6  1  0.00007697  0.74996302  0.25008593  1
  Ga  Ga7  1  0.99992045  0.25004094  0.74991462  1
  Co  Co0  1  0.87493529  0.81253267  0.56233367  1
  Co  Co1  1  0.12511203  0.68744528  0.93772773  1
  Co  Co2  1  0.87494605  0.31252790  0.06232518  1
  Co  Co3  1  0.12502544  0.18748706  0.43761799  1
  O  O0  1  0.26156865  0.39221460  0.36934188  1
  O  O1  1  0.26146540  0.89227261  0.86920663  1
  O  O2  1  0.73856136  0.65372076  0.13082218  1
  O  O3  1  0.73840699  0.15379939  0.63063066  1
  O  O4  1  0.73850485  0.88074765  0.35771595  1
  O  O5  1  0.73837804  0.38080882  0.85756082  1
  O  O6  1  0.28462234  0.10768612  0.13083576  1
  O  O7  1  0.28448621  0.60774992  0.63065033  1
  O  O8  1  0.71549596  0.39224766  0.36932008  1
  O  O9  1  0.71539164  0.89229768  0.86919006  1
  O  O10  1  0.26163117  0.61918674  0.14245259  1
  O  O11  1  0.26148529  0.11925786  0.64227194  1
  O  O12  1  0.73855048  0.10773049  0.13082089  1
  O  O13  1  0.73839508  0.60780560  0.63062929  1
  O  O14  1  0.26157648  0.84621612  0.36934148  1
  O  O15  1  0.26147375  0.34625952  0.86920606  1
loop_
_geom_bond_atom_site_label_1
_geom_bond_atom_site_label_2
_geom_bond_distance
_geom_bond_site_symmetry_2
Ga0 O6 1.995790 1_565
Ga0 O9 1.995833 1_554
Ga0 O1 1.996362 1_554
Ga0 O15 1.996374 1_564
Ga0 O12 1.996384 1_565
Ga0 O2 1.996399 1_555
Ga1 O8 1.994875 1_555
Ga1 O7 1.994945 1_555
Ga1 O0 1.995332 1_555
Ga1 O14 1.995348 1_555
Ga1 O13 1.995356 1_555
Ga1 O3 1.995381 1_555
Ga2 O4 1.995180 1_545
Ga2 O10 1.995438 1_555
Ga2 O12 1.995511 1_555
Ga2 O0 1.995698 1_555
Ga2 O8 1.995708 1_555
Ga2 O6 1.995821 1_555
Ga3 O11 1.995235 1_565
Ga3 O5 1.995517 1_555
Ga3 O1 1.995656 1_555
Ga3 O13 1.995808 1_555
Ga3 O9 1.995915 1_555
Ga3 O7 1.995921 1_555
Ga4 O4 1.995158 1_555
Ga4 O10 1.995403 1_555
Ga4 O2 1.995549 1_555
Ga4 O14 1.995657 1_555
Ga4 O8 1.995782 1_555
Ga4 O6 1.995796 1_565
Ga5 O11 1.995208 1_555
Ga5 O5 1.995485 1_555
Ga5 O15 1.995629 1_555
Ga5 O3 1.995834 1_555
Ga5 O7 1.995897 1_555
Ga5 O9 1.995970 1_545
Ga6 O10 1.994800 1_555
Ga6 O4 1.994852 1_455
Ga6 O14 1.995971 1_555
Ga6 O0 1.995972 1_555
Ga6 O2 1.996031 1_455
Ga6 O12 1.996097 1_465
Ga7 O5 1.994850 1_555
Ga7 O11 1.994920 1_655
Ga7 O3 1.996099 1_555
Ga7 O13 1.996166 1_555
Ga7 O15 1.996212 1_655
Ga7 O1 1.996215 1_645
Co0 O4 1.973414 1_555
Co0 O13 1.973828 1_555
Co0 O3 1.973840 1_565
Co0 O7 1.973948 1_655
Co1 O10 1.974448 1_556
Co1 O1 1.974500 1_555
Co1 O15 1.974535 1_555
Co1 O9 1.974767 1_455
Co2 O12 1.974436 1_555
Co2 O2 1.974450 1_555
Co2 O6 1.974554 1_655
Co2 O5 1.974829 1_554
Co3 O0 1.973751 1_555
Co3 O14 1.973762 1_545
Co3 O11 1.973764 1_555
Co3 O8 1.973844 1_455
