# generated using pymatgen
data_Li2V2S5
_symmetry_space_group_name_H-M   'P 1'
_cell_length_a   5.89949071
_cell_length_b   5.89949071
_cell_length_c   11.60477859
_cell_angle_alpha   69.15151576
_cell_angle_beta   69.15151576
_cell_angle_gamma   63.75836316
_symmetry_Int_Tables_number   1
_chemical_formula_structural   Li2V2S5
_chemical_formula_sum   'Li4 V4 S10'
_cell_volume   328.91348749
_cell_formula_units_Z   2
loop_
 _symmetry_equiv_pos_site_id
 _symmetry_equiv_pos_as_xyz
  1  'x, y, z'
loop_
 _atom_site_type_symbol
 _atom_site_label
 _atom_site_symmetry_multiplicity
 _atom_site_fract_x
 _atom_site_fract_y
 _atom_site_fract_z
 _atom_site_occupancy
  Li  Li0  1  0.81752300  0.56539400  0.18036300  1
  Li  Li1  1  0.56539400  0.81752300  0.68036300  1
  Li  Li2  1  0.43460600  0.18247700  0.31963700  1
  Li  Li3  1  0.18247700  0.43460600  0.81963700  1
  V  V0  1  0.24003400  0.94203700  0.05254200  1
  V  V1  1  0.05796300  0.75996600  0.44745800  1
  V  V2  1  0.94203700  0.24003400  0.55254200  1
  V  V3  1  0.75996600  0.05796300  0.94745800  1
  S  S0  1  0.70581000  0.70098200  0.46737200  1
  S  S1  1  0.70098200  0.70581000  0.96737200  1
  S  S2  1  0.97706900  0.19225400  0.35789400  1
  S  S3  1  0.33789200  0.66210800  0.25000000  1
  S  S4  1  0.80774600  0.02293100  0.14210600  1
  S  S5  1  0.19225400  0.97706900  0.85789400  1
  S  S6  1  0.66210800  0.33789200  0.75000000  1
  S  S7  1  0.02293100  0.80774600  0.64210600  1
  S  S8  1  0.29901800  0.29419000  0.03262800  1
  S  S9  1  0.29419000  0.29901800  0.53262800  1
loop_
_geom_bond_atom_site_label_1
_geom_bond_atom_site_label_2
_geom_bond_distance
_geom_bond_site_symmetry_2
Li0 S3 2.501601 1_555
Li0 S2 2.509206 1_555
Li0 S4 2.552227 1_565
Li0 S1 2.552808 1_554
Li0 S8 2.834613 1_655
Li1 S6 2.501601 1_555
Li1 S5 2.509206 1_555
Li1 S7 2.552227 1_655
Li1 S0 2.552808 1_555
Li1 S9 2.834613 1_565
Li2 S3 2.501601 1_555
Li2 S4 2.509206 1_555
Li2 S2 2.552227 1_455
Li2 S9 2.552808 1_555
Li2 S0 2.834613 1_545
Li3 S6 2.501601 1_555
Li3 S7 2.509206 1_555
Li3 S5 2.552227 1_545
Li3 S8 2.552808 1_556
Li3 S1 2.834613 1_455
S0 V1 2.175066 1_655
S0 V2 2.455596 1_555
S1 V3 2.175066 1_565
S1 V0 2.455596 1_556
S2 V1 2.280790 1_645
S2 V2 2.300861 1_555
S3 V1 2.390869 1_555
S3 V0 2.390869 1_555
S4 V0 2.280790 1_645
S4 V3 2.300861 1_554
S5 V3 2.280790 1_465
S5 V0 2.300861 1_556
S6 V3 2.390869 1_555
S6 V2 2.390869 1_555
S7 V2 2.280790 1_465
S7 V1 2.300861 1_555
S8 V0 2.175066 1_545
S8 V3 2.455596 1_554
S9 V2 2.175066 1_455
S9 V1 2.455596 1_555
