# generated using pymatgen
data_Na5Ni9O16
_symmetry_space_group_name_H-M   'P 1'
_cell_length_a   5.47303154
_cell_length_b   11.59234544
_cell_length_c   5.17342301
_cell_angle_alpha   90.00000140
_cell_angle_beta   70.94197302
_cell_angle_gamma   90.00000059
_symmetry_Int_Tables_number   1
_chemical_formula_structural   Na5Ni9O16
_chemical_formula_sum   'Na5 Ni9 O16'
_cell_volume   310.23845155
_cell_formula_units_Z   1
loop_
 _symmetry_equiv_pos_site_id
 _symmetry_equiv_pos_as_xyz
  1  'x, y, z'
loop_
 _atom_site_type_symbol
 _atom_site_label
 _atom_site_symmetry_multiplicity
 _atom_site_fract_x
 _atom_site_fract_y
 _atom_site_fract_z
 _atom_site_occupancy
  Na  Na0  1  0.50000000  0.11869000  0.00000000  1
  Na  Na1  1  0.50000000  0.37500000  0.00000000  1
  Na  Na2  1  0.50000000  0.63131000  0.00000000  1
  Na  Na3  1  0.50000000  0.23937300  0.50000000  1
  Na  Na4  1  0.50000000  0.51062700  0.50000000  1
  Ni  Ni0  1  0.00000000  0.24948000  0.00000000  1
  Ni  Ni1  1  0.00000000  0.75393400  0.00000000  1
  Ni  Ni2  1  0.00000000  0.50052000  0.00000000  1
  Ni  Ni3  1  0.00000000  0.99606600  0.00000000  1
  Ni  Ni4  1  0.00000000  0.62708500  0.50000000  1
  Ni  Ni5  1  0.00000000  0.87500000  0.50000000  1
  Ni  Ni6  1  0.00000000  0.12291500  0.50000000  1
  Ni  Ni7  1  0.00000000  0.37500000  0.50000000  1
  Ni  Ni8  1  0.50000000  0.87500000  0.00000000  1
  O  O0  1  0.19942500  0.49605300  0.26763500  1
  O  O1  1  0.19942500  0.25394700  0.26763500  1
  O  O2  1  0.19864400  0.76083300  0.24131500  1
  O  O3  1  0.19864400  0.98916700  0.24131500  1
  O  O4  1  0.19947800  0.37500000  0.78000000  1
  O  O5  1  0.19127200  0.12140300  0.79128600  1
  O  O6  1  0.20811600  0.87500000  0.79885600  1
  O  O7  1  0.19127200  0.62859700  0.79128600  1
  O  O8  1  0.80052200  0.37500000  0.22000000  1
  O  O9  1  0.80872800  0.12140300  0.20871400  1
  O  O10  1  0.79188400  0.87500000  0.20114400  1
  O  O11  1  0.80872800  0.62859700  0.20871400  1
  O  O12  1  0.80135600  0.76083300  0.75868500  1
  O  O13  1  0.80135600  0.98916700  0.75868500  1
  O  O14  1  0.80057500  0.49605300  0.73236500  1
  O  O15  1  0.80057500  0.25394700  0.73236500  1
loop_
_geom_bond_atom_site_label_1
_geom_bond_atom_site_label_2
_geom_bond_distance
_geom_bond_site_symmetry_2
Na0 O13 2.277852 1_544
Na0 O3 2.277852 1_545
Na0 O9 2.283278 1_555
Na0 O5 2.283278 1_554
Na0 O1 2.365223 1_555
Na0 O15 2.365223 1_554
Na1 O15 2.259434 1_554
Na1 O0 2.259434 1_555
Na1 O14 2.259434 1_554
Na1 O1 2.259434 1_555
Na1 O4 2.285423 1_554
Na1 O8 2.285423 1_555
Na2 O2 2.277852 1_555
Na2 O12 2.277852 1_554
Na2 O7 2.283278 1_554
Na2 O11 2.283278 1_555
Na2 O14 2.365223 1_554
Na2 O0 2.365223 1_555
Na3 O9 2.309384 1_555
Na3 O5 2.309384 1_555
Na3 O15 2.339081 1_555
Na3 O1 2.339081 1_555
Na3 O4 2.391564 1_555
Na3 O8 2.391564 1_555
Na4 O7 2.309384 1_555
Na4 O11 2.309384 1_555
Na4 O0 2.339081 1_555
Na4 O14 2.339081 1_555
Na4 O8 2.391564 1_555
Na4 O4 2.391564 1_555
Ni0 O5 1.930794 1_554
Ni0 O9 1.930794 1_455
Ni0 O8 1.947582 1_455
Ni0 O4 1.947582 1_554
Ni0 O1 2.024341 1_555
Ni0 O15 2.024341 1_454
Ni1 O10 1.890987 1_455
Ni1 O6 1.890987 1_554
Ni1 O2 1.906121 1_555
Ni1 O12 1.906121 1_454
Ni1 O7 1.906478 1_554
Ni1 O11 1.906478 1_455
Ni2 O11 1.930794 1_455
Ni2 O7 1.930794 1_554
Ni2 O4 1.947582 1_554
Ni2 O8 1.947582 1_455
Ni2 O14 2.024341 1_454
Ni2 O0 2.024341 1_555
Ni3 O6 1.890987 1_554
Ni3 O10 1.890987 1_455
Ni3 O13 1.906121 1_454
Ni3 O3 1.906121 1_555
Ni3 O9 1.906478 1_465
Ni3 O5 1.906478 1_564
Ni4 O0 2.021583 1_555
Ni4 O14 2.021583 1_455
Ni4 O7 2.096966 1_555
Ni4 O11 2.096966 1_455
Ni4 O12 2.103977 1_455
Ni4 O2 2.103977 1_555
Ni5 O2 1.942774 1_555
Ni5 O13 1.942774 1_455
Ni5 O3 1.942774 1_555
Ni5 O12 1.942774 1_455
Ni5 O10 2.199521 1_455
Ni5 O6 2.199521 1_555
Ni6 O15 2.021583 1_455
Ni6 O1 2.021583 1_555
Ni6 O9 2.096966 1_455
Ni6 O5 2.096966 1_555
Ni6 O3 2.103977 1_545
Ni6 O13 2.103977 1_445
Ni7 O1 1.936169 1_555
Ni7 O14 1.936169 1_455
Ni7 O0 1.936169 1_555
Ni7 O15 1.936169 1_455
Ni7 O8 2.079186 1_455
Ni7 O4 2.079186 1_555
Ni8 O12 2.164656 1_554
Ni8 O3 2.164656 1_555
Ni8 O13 2.164656 1_554
Ni8 O2 2.164656 1_555
Ni8 O6 2.172655 1_554
Ni8 O10 2.172655 1_555
