# generated using pymatgen
data_NaTi2(PO4)3
_symmetry_space_group_name_H-M   'P 1'
_cell_length_a   8.71007000
_cell_length_b   8.79649135
_cell_length_c   12.25892234
_cell_angle_alpha   89.91106639
_cell_angle_beta   89.28073435
_cell_angle_gamma   89.91208751
_symmetry_Int_Tables_number   1
_chemical_formula_structural   NaTi2(PO4)3
_chemical_formula_sum   'Na4 Ti8 P12 O48'
_cell_volume   939.17857436
_cell_formula_units_Z   4
loop_
 _symmetry_equiv_pos_site_id
 _symmetry_equiv_pos_as_xyz
  1  'x, y, z'
loop_
 _atom_site_type_symbol
 _atom_site_label
 _atom_site_symmetry_multiplicity
 _atom_site_fract_x
 _atom_site_fract_y
 _atom_site_fract_z
 _atom_site_occupancy
  Na  Na0  1  0.70595600  0.20238500  0.83271800  1
  Na  Na1  1  0.82087600  0.71468800  0.68085700  1
  Na  Na2  1  0.41898100  0.44834500  0.31412200  1
  Na  Na3  1  0.08163300  0.94868700  0.18655400  1
  Ti  Ti0  1  0.75156900  0.53201800  0.89284900  1
  Ti  Ti1  1  0.24937100  0.03156400  0.88296700  1
  Ti  Ti2  1  0.74520100  0.03295800  0.60631200  1
  Ti  Ti3  1  0.25048000  0.53242900  0.61771500  1
  Ti  Ti4  1  0.26125200  0.97186300  0.39221400  1
  Ti  Ti5  1  0.76143500  0.46988000  0.38528500  1
  Ti  Ti6  1  0.24167000  0.47105600  0.10792100  1
  Ti  Ti7  1  0.73911700  0.96851800  0.11484200  1
  P  P0  1  0.02681000  0.74823500  0.99492100  1
  P  P1  1  0.97142200  0.24696100  0.00127200  1
  P  P2  1  0.38802500  0.39076500  0.85438600  1
  P  P3  1  0.60561400  0.88479800  0.85543800  1
  P  P4  1  0.89264200  0.38749700  0.64443000  1
  P  P5  1  0.11465600  0.89423900  0.64510900  1
  P  P6  1  0.47045400  0.24896900  0.50413400  1
  P  P7  1  0.53183200  0.74794700  0.50022600  1
  P  P8  1  0.88888600  0.11063300  0.35369100  1
  P  P9  1  0.11327100  0.61435100  0.35535400  1
  P  P10  1  0.38736300  0.11497000  0.14483200  1
  P  P11  1  0.60998900  0.61063700  0.14618500  1
  O  O0  1  0.31525100  0.44106700  0.96380900  1
  O  O1  1  0.67379100  0.94876400  0.96135600  1
  O  O2  1  0.13165800  0.85817100  0.93145000  1
  O  O3  1  0.86099200  0.34838500  0.93467800  1
  O  O4  1  0.07163300  0.16053100  0.91762200  1
  O  O5  1  0.93485300  0.65388700  0.91255100  1
  O  O6  1  0.56457600  0.41309800  0.85973400  1
  O  O7  1  0.43061100  0.90443900  0.85684700  1
  O  O8  1  0.36147300  0.21906400  0.83573300  1
  O  O9  1  0.64981000  0.71630800  0.83671500  1
  O  O10  1  0.32127900  0.49242800  0.76398500  1
  O  O11  1  0.67876100  0.97791000  0.75997500  1
  O  O12  1  0.18446900  0.99130700  0.73631700  1
  O  O13  1  0.81939900  0.48079800  0.73939900  1
  O  O14  1  0.84535400  0.21970500  0.66237300  1
  O  O15  1  0.13160800  0.72092400  0.66351700  1
  O  O16  1  0.06799300  0.40683500  0.64563500  1
  O  O17  1  0.94005900  0.92696500  0.63909300  1
  O  O18  1  0.55921500  0.14686600  0.58439900  1
  O  O19  1  0.42445300  0.66480800  0.58128800  1
  O  O20  1  0.36830400  0.35907100  0.56972700  1
  O  O21  1  0.64851300  0.83931300  0.56853800  1
  O  O22  1  0.19113200  0.94164200  0.53659400  1
  O  O23  1  0.82843300  0.45148300  0.53704100  1
  O  O24  1  0.80892800  0.06062300  0.46162700  1
  O  O25  1  0.18270900  0.56000200  0.46340700  1
  O  O26  1  0.36432500  0.15471300  0.43016900  1
  O  O27  1  0.62345100  0.63578900  0.42867100  1
  O  O28  1  0.57988000  0.33490700  0.42652800  1
  O  O29  1  0.44107900  0.85203000  0.42235500  1
  O  O30  1  0.06301100  0.08274400  0.35795400  1
  O  O31  1  0.93635900  0.59230400  0.35491900  1
  O  O32  1  0.85825400  0.28211200  0.33703600  1
  O  O33  1  0.14929400  0.78410600  0.33509500  1
  O  O34  1  0.18307200  0.51440500  0.26293700  1
  O  O35  1  0.82390900  0.01105000  0.26086600  1
  O  O36  1  0.67688200  0.50965200  0.23753300  1
  O  O37  1  0.31752600  0.01494700  0.23715400  1
  O  O38  1  0.35628300  0.28525700  0.16607300  1
  O  O39  1  0.64207700  0.78149000  0.16313300  1
  O  O40  1  0.56359000  0.08946400  0.14353600  1
  O  O41  1  0.43523200  0.58516400  0.14328000  1
  O  O42  1  0.06799700  0.34130700  0.08062900  1
  O  O43  1  0.92086000  0.83452600  0.07498000  1
  O  O44  1  0.13033600  0.64732900  0.06677300  1
  O  O45  1  0.87146300  0.13752800  0.06904700  1
  O  O46  1  0.31517800  0.06307500  0.03721100  1
  O  O47  1  0.68508100  0.56127200  0.03652400  1
loop_
_geom_bond_atom_site_label_1
_geom_bond_atom_site_label_2
_geom_bond_distance
_geom_bond_site_symmetry_2
Na0 O11 2.182326 1_545
Na0 O6 2.246410 1_555
Na0 O3 2.255634 1_555
Na0 O14 2.407095 1_555
Na1 O13 2.177937 1_555
Na1 O17 2.194580 1_555
Na1 O21 2.322438 1_555
Na1 O9 2.408200 1_555
Na1 O15 2.712803 1_655
Na2 O28 2.213255 1_555
Na2 O34 2.231839 1_555
Na2 O38 2.384454 1_555
Na2 O41 2.416614 1_555
Na2 O36 2.483461 1_555
Na3 O43 2.212893 1_455
Na3 O37 2.232231 1_565
Na3 O33 2.403177 1_555
Na3 O30 2.414622 1_565
Na3 O35 2.473128 1_465
O0 P2 1.541618 1_555
O0 Ti6 1.890481 1_556
O1 P3 1.542023 1_555
O1 Ti7 1.980521 1_556
O2 P0 1.535296 1_555
O2 Ti1 1.928092 1_565
O3 P1 1.549974 1_556
O3 Ti0 1.945651 1_555
O4 P1 1.539273 1_456
O4 Ti1 1.960540 1_555
O5 P0 1.541067 1_655
O5 Ti0 1.942123 1_555
O6 P2 1.552782 1_555
O6 Ti0 1.983674 1_555
O7 P3 1.533670 1_555
O7 Ti1 1.956539 1_565
O8 P2 1.546109 1_555
O8 Ti1 1.999196 1_555
O9 P3 1.547461 1_555
O9 Ti0 1.973459 1_555
O10 P2 1.541871 1_555
O10 Ti3 1.935065 1_555
O11 P3 1.557633 1_555
O11 Ti2 2.022008 1_565
O12 P5 1.539685 1_555
O12 Ti1 1.924851 1_565
O13 P4 1.555211 1_555
O13 Ti0 2.016090 1_555
O14 P4 1.547622 1_555
O14 Ti2 1.988659 1_555
O15 P5 1.547933 1_555
O15 Ti3 2.029676 1_555
O16 P4 1.537280 1_455
O16 Ti3 1.963336 1_555
O17 P5 1.549969 1_655
O17 Ti2 1.980526 1_565
O18 P6 1.544922 1_555
O18 Ti2 1.924967 1_555
O19 P7 1.540651 1_555
O19 Ti3 1.959184 1_555
O20 P6 1.535587 1_555
O20 Ti3 1.925499 1_555
O21 P7 1.551146 1_555
O21 Ti2 1.960068 1_565
O22 P5 1.537562 1_555
O22 Ti4 1.883689 1_555
O23 P4 1.542044 1_555
O23 Ti5 1.963089 1_555
O24 P8 1.550920 1_555
O24 Ti2 1.867519 1_555
O25 P9 1.538251 1_555
O25 Ti3 2.002943 1_555
O26 P6 1.545908 1_555
O26 Ti4 1.904417 1_545
O27 P7 1.536992 1_555
O27 Ti5 1.959133 1_555
O28 P6 1.536942 1_555
O28 Ti5 2.037105 1_555
O29 P7 1.545443 1_555
O29 Ti4 1.925940 1_555
O30 P8 1.537506 1_455
O30 Ti4 2.030015 1_545
O31 P9 1.553444 1_655
O31 Ti5 1.899789 1_555
O32 P8 1.545108 1_555
O32 Ti5 1.943026 1_555
O33 P9 1.545396 1_555
O33 Ti4 2.048100 1_555
O34 P9 1.552505 1_555
O34 Ti6 1.998614 1_555
O35 P8 1.550267 1_555
O35 Ti7 1.981411 1_545
O36 P11 1.547350 1_555
O36 Ti5 1.994052 1_555
O37 P10 1.551230 1_555
O37 Ti4 1.993018 1_545
O38 P10 1.543720 1_555
O38 Ti6 2.045780 1_555
O39 P11 1.543932 1_555
O39 Ti7 1.939123 1_555
O40 P10 1.550807 1_555
O40 Ti7 1.890946 1_545
O41 P11 1.539752 1_555
O41 Ti6 2.015610 1_555
O42 P1 1.538807 1_455
O42 Ti6 1.929261 1_555
O43 P0 1.538971 1_654
O43 Ti7 2.027448 1_555
O44 P0 1.546570 1_554
O44 Ti6 1.898518 1_555
O45 P1 1.535226 1_555
O45 Ti7 1.959762 1_545
O46 P10 1.538789 1_555
O46 Ti1 2.002515 1_554
O47 P11 1.549978 1_555
O47 Ti0 1.865239 1_554
