# generated using pymatgen
data_LiCoPO4
_symmetry_space_group_name_H-M   'P 1'
_cell_length_a   5.05391200
_cell_length_b   10.22178200
_cell_length_c   6.83658300
_cell_angle_alpha   89.99946276
_cell_angle_beta   90.00205707
_cell_angle_gamma   89.99985911
_symmetry_Int_Tables_number   1
_chemical_formula_structural   LiCoPO4
_chemical_formula_sum   'Li4 Co4 P4 O16'
_cell_volume   353.17778681
_cell_formula_units_Z   4
loop_
 _symmetry_equiv_pos_site_id
 _symmetry_equiv_pos_as_xyz
  1  'x, y, z'
loop_
 _atom_site_type_symbol
 _atom_site_label
 _atom_site_symmetry_multiplicity
 _atom_site_fract_x
 _atom_site_fract_y
 _atom_site_fract_z
 _atom_site_occupancy
  Li  Li0  1  0.24449900  0.14953400  0.50175300  1
  Li  Li1  1  0.74450100  0.35046800  0.00175500  1
  Li  Li2  1  0.24445600  0.64946900  0.99828200  1
  Li  Li3  1  0.74445600  0.85053000  0.49828200  1
  Co  Co0  1  0.24605000  0.66043100  0.49536500  1
  Co  Co1  1  0.74605200  0.83956900  0.99536500  1
  Co  Co2  1  0.24607200  0.16047100  0.00463100  1
  Co  Co3  1  0.74606500  0.33953100  0.50463100  1
  P  P0  1  0.75017000  0.09704100  0.75658600  1
  P  P1  1  0.25016400  0.40296100  0.25658300  1
  P  P2  1  0.75011800  0.59692100  0.74341200  1
  P  P3  1  0.25011900  0.90307600  0.24340900  1
  O  O0  1  0.19057300  0.05232200  0.24316700  1
  O  O1  1  0.69057300  0.44767600  0.74316300  1
  O  O2  1  0.19069600  0.55227900  0.25685100  1
  O  O3  1  0.69070500  0.94772400  0.75684900  1
  O  O4  1  0.05384100  0.12310800  0.75696900  1
  O  O5  1  0.55383800  0.37689700  0.25696200  1
  O  O6  1  0.05384600  0.62297000  0.74300200  1
  O  O7  1  0.55384600  0.87702200  0.24299900  1
  O  O8  1  0.62974600  0.15715900  0.56749400  1
  O  O9  1  0.12975000  0.34284200  0.06748900  1
  O  O10  1  0.62979000  0.65713600  0.93251600  1
  O  O11  1  0.12979300  0.84286600  0.43251800  1
  O  O12  1  0.63093900  0.16427800  0.94099000  1
  O  O13  1  0.13093500  0.33572100  0.44098900  1
  O  O14  1  0.63090100  0.66423500  0.55899700  1
  O  O15  1  0.13090700  0.83576500  0.05899100  1
loop_
_geom_bond_atom_site_label_1
_geom_bond_atom_site_label_2
_geom_bond_distance
_geom_bond_site_symmetry_2
Li0 O8 1.999710 1_555
Li0 O4 2.011440 1_555
Li0 O13 2.030757 1_555
Li0 O0 2.046204 1_555
Li1 O9 1.999709 1_655
Li1 O5 2.011406 1_555
Li1 O12 2.030794 1_554
Li1 O1 2.046204 1_554
Li2 O10 2.000224 1_555
Li2 O6 2.011748 1_555
Li2 O15 2.031719 1_556
Li2 O2 2.045884 1_556
Li3 O11 2.000235 1_655
Li3 O7 2.011751 1_555
Li3 O14 2.031721 1_555
Li3 O3 2.045901 1_555
Co0 O6 1.989104 1_555
Co0 O2 1.989807 1_555
Co0 O14 1.993423 1_555
Co0 O11 2.001826 1_555
Co1 O7 1.989081 1_556
Co1 O3 1.989813 1_555
Co1 O15 1.993434 1_656
Co1 O10 2.001827 1_555
Co2 O4 1.989070 1_554
Co2 O0 1.990016 1_555
Co2 O12 1.993546 1_554
Co2 O9 2.001345 1_555
Co3 O5 1.989100 1_555
Co3 O1 1.989982 1_555
Co3 O13 1.993563 1_655
Co3 O8 2.001353 1_555
O0 P3 1.554959 1_545
O1 P2 1.554950 1_555
O2 P1 1.555606 1_555
O3 P0 1.555594 1_565
O4 P0 1.557687 1_455
O5 P1 1.557696 1_555
O6 P2 1.557940 1_455
O7 P3 1.557943 1_555
O8 P0 1.555361 1_555
O9 P1 1.555367 1_555
O10 P2 1.555677 1_555
O11 P3 1.555673 1_555
O12 P0 1.557202 1_555
O13 P1 1.557214 1_555
O14 P2 1.557538 1_555
O15 P3 1.557543 1_555
