# generated using pymatgen
data_Li32Mn13Cr3O48
_symmetry_space_group_name_H-M   'P 1'
_cell_length_a   5.00961100
_cell_length_b   8.67749499
_cell_length_c   19.50782200
_cell_angle_alpha   98.36092243
_cell_angle_beta   94.84640412
_cell_angle_gamma   89.90475454
_symmetry_Int_Tables_number   1
_chemical_formula_structural   Li32Mn13Cr3O48
_chemical_formula_sum   'Li32 Mn13 Cr3 O48'
_cell_volume   835.96088628
_cell_formula_units_Z   1
loop_
 _symmetry_equiv_pos_site_id
 _symmetry_equiv_pos_as_xyz
  1  'x, y, z'
loop_
 _atom_site_type_symbol
 _atom_site_label
 _atom_site_symmetry_multiplicity
 _atom_site_fract_x
 _atom_site_fract_y
 _atom_site_fract_z
 _atom_site_occupancy
  Li  Li0  1  0.99361300  0.16841600  0.24988800  1
  Li  Li1  1  0.87524400  0.37510500  0.37493900  1
  Li  Li2  1  0.75020700  0.25012200  0.00005300  1
  Li  Li3  1  0.74264800  0.91940100  0.00051700  1
  Li  Li4  1  0.99111000  0.16837400  0.75017100  1
  Li  Li5  1  0.75794100  0.57960400  0.50016300  1
  Li  Li6  1  0.87557900  0.37557400  0.87524000  1
  Li  Li7  1  0.74952500  0.25029700  0.49980400  1
  Li  Li8  1  0.74631800  0.92032500  0.50052800  1
  Li  Li9  1  0.62487700  0.12506900  0.12501700  1
  Li  Li10  1  0.75600300  0.58066000  0.99957100  1
  Li  Li11  1  0.50772000  0.33209600  0.25025500  1
  Li  Li12  1  0.62757500  0.12416000  0.62485100  1
  Li  Li13  1  0.50014900  0.99996200  0.24993900  1
  Li  Li14  1  0.49423000  0.66786700  0.24947400  1
  Li  Li15  1  0.50886600  0.33427000  0.75050800  1
  Li  Li16  1  0.37520100  0.87625800  0.37500500  1
  Li  Li17  1  0.50071900  0.99876700  0.75037500  1
  Li  Li18  1  0.25157100  0.74894300  0.99994100  1
  Li  Li19  1  0.49246300  0.66714500  0.74952600  1
  Li  Li20  1  0.24373200  0.42020000  0.00009200  1
  Li  Li21  1  0.37775000  0.87496600  0.87476900  1
  Li  Li22  1  0.25424500  0.07931700  0.49939900  1
  Li  Li23  1  0.24851500  0.74984200  0.50018400  1
  Li  Li24  1  0.12483800  0.62505700  0.12495200  1
  Li  Li25  1  0.24229700  0.42066700  0.49992800  1
  Li  Li26  1  0.00647500  0.83190500  0.25015300  1
  Li  Li27  1  0.25544700  0.08074600  0.99989500  1
  Li  Li28  1  0.12539300  0.62486200  0.62523300  1
  Li  Li29  1  0.99773400  0.49952800  0.24993900  1
  Li  Li30  1  0.00618000  0.83227400  0.75019400  1
  Li  Li31  1  0.00002000  0.49959400  0.74973700  1
  Mn  Mn0  1  0.87387700  0.70880700  0.37487200  1
  Mn  Mn1  1  0.87524300  0.04147300  0.37496300  1
  Mn  Mn2  1  0.87378300  0.04224300  0.87435800  1
  Mn  Mn3  1  0.62585300  0.79140700  0.12499700  1
  Mn  Mn4  1  0.62458600  0.45846700  0.12503600  1
  Mn  Mn5  1  0.62493600  0.79162200  0.62503700  1
  Mn  Mn6  1  0.62645300  0.46021600  0.62569800  1
  Mn  Mn7  1  0.37409000  0.20812400  0.37494900  1
  Mn  Mn8  1  0.37726100  0.54051000  0.87574400  1
  Mn  Mn9  1  0.37364100  0.20850500  0.87510000  1
  Mn  Mn10  1  0.12459900  0.95848900  0.12502700  1
  Mn  Mn11  1  0.12580600  0.29146300  0.12505900  1
  Mn  Mn12  1  0.12273900  0.95699000  0.62426500  1
  Cr  Cr0  1  0.87981300  0.70940900  0.87493900  1
  Cr  Cr1  1  0.37543800  0.54446400  0.37503300  1
  Cr  Cr2  1  0.13234300  0.29000900  0.62485900  1
  O  O0  1  0.96396800  0.10648100  0.06904700  1
  O  O1  1  0.92786300  0.78524800  0.06904300  1
  O  O2  1  0.92731900  0.42734600  0.06825600  1
  O  O3  1  0.96199800  0.10248800  0.56822200  1
  O  O4  1  0.82237700  0.96477100  0.18089700  1
  O  O5  1  0.82292500  0.32246100  0.18179700  1
  O  O6  1  0.92758800  0.78409600  0.56909200  1
  O  O7  1  0.92594000  0.42594900  0.56821000  1
  O  O8  1  0.78644500  0.64353800  0.18083700  1
  O  O9  1  0.71286400  0.85692400  0.31907900  1
  O  O10  1  0.82168600  0.96500400  0.68080700  1
  O  O11  1  0.82180800  0.32344000  0.68193500  1
  O  O12  1  0.68358400  0.53619900  0.31842300  1
  O  O13  1  0.67730800  0.17726900  0.31817400  1
  O  O14  1  0.78791200  0.64436200  0.68104600  1
  O  O15  1  0.71215200  0.85974100  0.81834000  1
  O  O16  1  0.46416200  0.60652400  0.06918900  1
  O  O17  1  0.57181400  0.71283900  0.43068100  1
  O  O18  1  0.57257400  0.07193900  0.43177100  1
  O  O19  1  0.67676300  0.53698500  0.81927200  1
  O  O20  1  0.67694700  0.17824400  0.81813700  1
  O  O21  1  0.42718700  0.92734300  0.06811200  1
  O  O22  1  0.42792000  0.28528700  0.06915100  1
  O  O23  1  0.53321000  0.39258000  0.43095400  1
  O  O24  1  0.46379200  0.60712400  0.56904400  1
  O  O25  1  0.56998900  0.71428000  0.93102400  1
  O  O26  1  0.57201900  0.07243000  0.93183400  1
  O  O27  1  0.32291100  0.82257000  0.18187100  1
  O  O28  1  0.32231200  0.46484500  0.18099500  1
  O  O29  1  0.42732000  0.92754800  0.56816600  1
  O  O30  1  0.42555000  0.28728700  0.56924900  1
  O  O31  1  0.53733100  0.39274700  0.93101900  1
  O  O32  1  0.28624500  0.14320200  0.18086200  1
  O  O33  1  0.21616000  0.35600400  0.31902100  1
  O  O34  1  0.32286600  0.82246100  0.68176600  1
  O  O35  1  0.32679400  0.46758100  0.68158600  1
  O  O36  1  0.17684500  0.67539200  0.31811000  1
  O  O37  1  0.17741600  0.03432300  0.31899100  1
  O  O38  1  0.28039700  0.14376700  0.68077900  1
  O  O39  1  0.21355800  0.35625700  0.81909800  1
  O  O40  1  0.06756700  0.57430800  0.43261900  1
  O  O41  1  0.07192700  0.21457500  0.43084000  1
  O  O42  1  0.17560400  0.67592400  0.81834000  1
  O  O43  1  0.17764400  0.03492100  0.81912200  1
  O  O44  1  0.03749200  0.89357200  0.43080200  1
  O  O45  1  0.07653100  0.57085700  0.93250800  1
  O  O46  1  0.07226600  0.21476600  0.93088400  1
  O  O47  1  0.03050400  0.89263000  0.93082300  1
loop_
_geom_bond_atom_site_label_1
_geom_bond_atom_site_label_2
_geom_bond_distance
_geom_bond_site_symmetry_2
Li0 O32 2.063234 1_655
Li0 O37 2.064435 1_655
Li0 O5 2.145471 1_555
Li0 O13 2.148899 1_555
Li0 O4 2.188211 1_545
Li0 O33 2.196593 1_655
Li1 O41 2.087134 1_655
Li1 O12 2.087191 1_555
Li1 O33 2.096531 1_655
Li1 O23 2.102453 1_555
Li1 O13 2.103304 1_555
Li1 O40 2.106911 1_655
Li2 O2 2.032851 1_555
Li2 O26 2.037765 1_554
Li2 O31 2.172613 1_554
Li2 O0 2.179857 1_555
Li2 O22 2.182493 1_555
Li2 O46 2.182585 1_654
Li3 O47 2.054320 1_654
Li3 O1 2.059727 1_555
Li3 O21 2.136896 1_555
Li3 O26 2.146938 1_564
Li3 O0 2.185467 1_565
Li3 O25 2.204400 1_554
Li4 O38 2.055403 1_655
Li4 O43 2.064106 1_655
Li4 O20 2.135728 1_555
Li4 O11 2.151324 1_555
Li4 O10 2.186812 1_545
Li4 O39 2.196181 1_655
Li5 O24 2.067390 1_555
Li5 O17 2.069278 1_555
Li5 O40 2.114639 1_655
Li5 O7 2.137861 1_555
Li5 O6 2.190241 1_555
Li5 O23 2.199116 1_555
Li6 O31 2.083526 1_555
Li6 O46 2.086034 1_655
Li6 O39 2.086458 1_655
Li6 O45 2.097177 1_655
Li6 O19 2.098143 1_555
Li6 O20 2.103992 1_555
Li7 O7 2.024535 1_555
Li7 O18 2.037398 1_555
Li7 O23 2.175896 1_555
Li7 O41 2.181468 1_655
Li7 O3 2.193787 1_555
Li7 O30 2.194473 1_555
Li8 O6 2.064479 1_555
Li8 O44 2.067378 1_655
Li8 O3 2.137172 1_565
Li8 O18 2.144682 1_565
Li8 O29 2.151887 1_555
Li8 O17 2.225527 1_555
Li9 O22 2.085316 1_555
Li9 O32 2.085890 1_555
Li9 O4 2.087154 1_545
Li9 O0 2.089272 1_555
Li9 O5 2.100802 1_555
Li9 O21 2.103077 1_545
Li10 O25 2.058553 1_555
Li10 O16 2.068340 1_556
Li10 O45 2.149241 1_655
Li10 O2 2.149904 1_556
Li10 O31 2.184389 1_555
Li10 O1 2.199521 1_556
Li11 O33 2.055501 1_555
Li11 O28 2.062079 1_555
Li11 O13 2.146153 1_555
Li11 O5 2.146458 1_555
Li11 O12 2.191726 1_555
Li11 O32 2.203912 1_555
Li12 O10 2.073431 1_545
Li12 O3 2.076952 1_555
Li12 O29 2.099898 1_545
Li12 O11 2.107050 1_555
Li12 O30 2.112060 1_555
Li12 O38 2.123646 1_555
Li13 O27 2.032723 1_555
Li13 O13 2.033735 1_565
Li13 O9 2.175991 1_555
Li13 O32 2.178942 1_565
Li13 O4 2.181549 1_555
Li13 O37 2.183341 1_565
Li14 O8 2.056282 1_555
Li14 O12 2.059639 1_555
Li14 O27 2.144222 1_555
Li14 O36 2.158469 1_555
Li14 O28 2.180869 1_555
Li14 O9 2.200361 1_555
Li15 O35 2.054135 1_555
Li15 O39 2.067512 1_555
Li15 O11 2.138538 1_555
Li15 O20 2.147228 1_555
Li15 O19 2.174679 1_555
Li15 O38 2.232100 1_555
Li16 O37 2.074963 1_565
Li16 O44 2.081409 1_555
Li16 O9 2.082654 1_555
Li16 O18 2.088289 1_565
Li16 O17 2.103143 1_555
Li16 O36 2.124660 1_555
Li17 O34 2.033055 1_555
Li17 O20 2.039849 1_565
Li17 O15 2.135133 1_555
Li17 O43 2.181553 1_565
Li17 O10 2.182782 1_555
Li17 O38 2.209888 1_565
Li18 O45 2.026295 1_555
Li18 O21 2.036461 1_556
Li18 O25 2.164627 1_555
Li18 O16 2.173576 1_556
Li18 O1 2.188688 1_456
Li18 O47 2.197981 1_555
Li19 O19 2.051953 1_555
Li19 O14 2.066559 1_555
Li19 O35 2.143751 1_555
Li19 O34 2.147114 1_555
Li19 O42 2.158108 1_555
Li19 O15 2.215943 1_555
Li20 O31 2.067866 1_554
Li20 O22 2.069277 1_555
Li20 O45 2.111855 1_554
Li20 O2 2.148589 1_455
Li20 O16 2.184281 1_555
Li20 O46 2.201742 1_554
Li21 O15 2.074650 1_555
Li21 O25 2.082773 1_555
Li21 O43 2.087963 1_565
Li21 O26 2.095280 1_565
Li21 O42 2.117777 1_555
Li21 O47 2.125346 1_555
Li22 O3 2.058892 1_455
Li22 O41 2.060836 1_555
Li22 O29 2.144585 1_545
Li22 O18 2.149012 1_555
Li22 O44 2.168117 1_545
Li22 O30 2.223154 1_555
Li23 O40 2.024334 1_555
Li23 O29 2.036701 1_555
Li23 O6 2.174280 1_455
Li23 O24 2.176198 1_555
Li23 O44 2.179407 1_555
Li23 O17 2.192546 1_555
Li24 O8 2.085313 1_455
Li24 O1 2.085667 1_455
Li24 O16 2.087934 1_555
Li24 O28 2.088388 1_555
Li24 O2 2.101111 1_455
Li24 O27 2.102633 1_555
Li25 O23 2.056343 1_555
Li25 O30 2.062269 1_555
Li25 O40 2.139812 1_555
Li25 O7 2.150997 1_455
Li25 O24 2.187636 1_555
Li25 O41 2.202927 1_555
Li26 O4 2.060111 1_455
Li26 O9 2.065617 1_455
Li26 O27 2.149136 1_555
Li26 O36 2.158477 1_555
Li26 O37 2.178672 1_565
Li26 O8 2.196947 1_455
Li27 O0 2.060583 1_456
Li27 O46 2.061553 1_555
Li27 O21 2.144997 1_546
Li27 O26 2.147251 1_555
Li27 O22 2.198318 1_556
Li27 O47 2.204540 1_545
Li28 O14 2.080599 1_455
Li28 O35 2.081708 1_555
Li28 O6 2.083932 1_455
Li28 O24 2.088802 1_555
Li28 O34 2.099125 1_555
Li28 O7 2.115332 1_455
Li29 O5 2.026957 1_555
Li29 O36 2.028605 1_655
Li29 O12 2.143081 1_555
Li29 O8 2.177975 1_555
Li29 O28 2.189416 1_655
Li29 O33 2.190655 1_655
Li30 O15 2.056998 1_455
Li30 O10 2.061904 1_455
Li30 O34 2.151834 1_555
Li30 O42 2.158326 1_555
Li30 O43 2.181813 1_565
Li30 O14 2.188862 1_455
Li31 O11 2.024865 1_455
Li31 O42 2.028796 1_555
Li31 O14 2.178835 1_455
Li31 O39 2.182354 1_555
Li31 O35 2.187077 1_555
Li31 O19 2.192980 1_455
Mn0 O12 1.926792 1_555
Mn0 O9 1.934485 1_555
Mn0 O17 1.934803 1_555
Mn0 O40 1.940773 1_655
Mn0 O44 1.943542 1_655
Mn0 O36 1.950103 1_655
Mn1 O37 1.935677 1_655
Mn1 O44 1.935938 1_645
Mn1 O9 1.939463 1_545
Mn1 O41 1.939737 1_655
Mn1 O13 1.946589 1_555
Mn1 O18 1.947925 1_555
Mn2 O15 1.925944 1_545
Mn2 O43 1.933703 1_655
Mn2 O20 1.938492 1_555
Mn2 O47 1.944630 1_645
Mn2 O46 1.945619 1_655
Mn2 O26 1.952113 1_555
Mn3 O8 1.932677 1_555
Mn3 O1 1.935240 1_555
Mn3 O16 1.939738 1_555
Mn3 O4 1.941126 1_555
Mn3 O27 1.950168 1_555
Mn3 O21 1.950261 1_555
Mn4 O16 1.933669 1_555
Mn4 O28 1.936293 1_555
Mn4 O22 1.940228 1_555
Mn4 O8 1.941213 1_555
Mn4 O2 1.948157 1_555
Mn4 O5 1.948439 1_555
Mn5 O14 1.935231 1_555
Mn5 O6 1.937175 1_555
Mn5 O24 1.937700 1_555
Mn5 O10 1.940729 1_555
Mn5 O34 1.944669 1_555
Mn5 O29 1.947613 1_555
Mn6 O35 1.924117 1_555
Mn6 O14 1.930900 1_555
Mn6 O11 1.939939 1_555
Mn6 O24 1.940276 1_555
Mn6 O7 1.944963 1_555
Mn6 O30 1.953083 1_555
Mn7 O33 1.928964 1_555
Mn7 O23 1.933791 1_555
Mn7 O41 1.934967 1_555
Mn7 O37 1.944566 1_555
Mn7 O13 1.949980 1_555
Mn7 O18 1.950571 1_555
Mn8 O31 1.924156 1_555
Mn8 O25 1.929987 1_555
Mn8 O19 1.932631 1_555
Mn8 O45 1.939324 1_555
Mn8 O39 1.946128 1_555
Mn8 O42 1.960329 1_555
Mn9 O46 1.930477 1_555
Mn9 O39 1.932963 1_555
Mn9 O31 1.940222 1_555
Mn9 O43 1.941856 1_555
Mn9 O26 1.948618 1_555
Mn9 O20 1.952331 1_555
Mn10 O4 1.935037 1_455
Mn10 O0 1.935252 1_465
Mn10 O32 1.938768 1_565
Mn10 O1 1.941542 1_455
Mn10 O27 1.948851 1_555
Mn10 O21 1.949187 1_555
Mn11 O32 1.934481 1_555
Mn11 O22 1.935102 1_555
Mn11 O28 1.941479 1_555
Mn11 O0 1.942270 1_455
Mn11 O5 1.948208 1_455
Mn11 O2 1.948550 1_455
Mn12 O3 1.920162 1_465
Mn12 O6 1.929387 1_455
Mn12 O10 1.937638 1_455
Mn12 O29 1.946952 1_555
Mn12 O38 1.950272 1_565
Mn12 O34 1.952702 1_555
Cr0 O47 1.909715 1_655
Cr0 O42 1.918583 1_655
Cr0 O19 1.948975 1_555
Cr0 O45 1.969673 1_655
Cr0 O25 1.970053 1_555
Cr0 O15 1.970993 1_555
Cr1 O17 1.908943 1_555
Cr1 O36 1.920966 1_555
Cr1 O23 1.954681 1_555
Cr1 O33 1.960196 1_555
Cr1 O12 1.967826 1_555
Cr1 O40 1.978535 1_555
Cr2 O30 1.896476 1_555
Cr2 O38 1.900859 1_555
Cr2 O7 1.965673 1_455
Cr2 O35 1.968448 1_555
Cr2 O3 1.979705 1_455
Cr2 O11 1.985245 1_455
