# generated using pymatgen
data_Rb3DyO3
_symmetry_space_group_name_H-M   'P 1'
_cell_length_a   7.36247298
_cell_length_b   7.36247298
_cell_length_c   7.30353945
_cell_angle_alpha   85.26483321
_cell_angle_beta   85.26483321
_cell_angle_gamma   116.34416931
_symmetry_Int_Tables_number   1
_chemical_formula_structural   Rb3DyO3
_chemical_formula_sum   'Rb6 Dy2 O6'
_cell_volume   350.40640678
_cell_formula_units_Z   2
loop_
 _symmetry_equiv_pos_site_id
 _symmetry_equiv_pos_as_xyz
  1  'x, y, z'
loop_
 _atom_site_type_symbol
 _atom_site_label
 _atom_site_symmetry_multiplicity
 _atom_site_fract_x
 _atom_site_fract_y
 _atom_site_fract_z
 _atom_site_occupancy
  Rb  Rb0  1  0.63662300  0.63662300  0.64315800  1
  Rb  Rb1  1  0.20594400  0.79405600  0.50000000  1
  Rb  Rb2  1  0.79405600  0.20594400  0.50000000  1
  Rb  Rb3  1  0.74001300  0.25998700  0.00000000  1
  Rb  Rb4  1  0.25998700  0.74001300  0.00000000  1
  Rb  Rb5  1  0.36337700  0.36337700  0.35684200  1
  Dy  Dy0  1  0.82221900  0.82221900  0.14959600  1
  Dy  Dy1  1  0.17778100  0.17778100  0.85040400  1
  O  O0  1  0.89706500  0.89706500  0.84443000  1
  O  O1  1  0.83109100  0.55323700  0.26907000  1
  O  O2  1  0.55323700  0.83109100  0.26907000  1
  O  O3  1  0.16890900  0.44676300  0.73093000  1
  O  O4  1  0.44676300  0.16890900  0.73093000  1
  O  O5  1  0.10293500  0.10293500  0.15557000  1
loop_
_geom_bond_atom_site_label_1
_geom_bond_atom_site_label_2
_geom_bond_distance
_geom_bond_site_symmetry_2
Dy0 O1 2.127548 1_555
Dy0 O2 2.127548 1_555
Dy0 O5 2.187152 1_665
Dy0 O0 2.213545 1_554
Dy1 O3 2.127548 1_555
Dy1 O4 2.127548 1_555
Dy1 O0 2.187152 1_445
Dy1 O5 2.213545 1_556
O0 Rb0 2.679922 1_555
O1 Rb2 2.837287 1_555
O1 Rb3 2.933620 1_555
O1 Rb5 3.072183 1_555
O1 Rb0 3.209800 1_555
O1 Rb4 3.224835 1_655
O1 Rb1 3.244121 1_655
O2 Rb1 2.837287 1_555
O2 Rb4 2.933620 1_555
O2 Rb5 3.072183 1_555
O2 Rb0 3.209800 1_555
O2 Rb3 3.224835 1_565
O2 Rb2 3.244121 1_565
O3 Rb1 2.837287 1_555
O3 Rb4 2.933620 1_556
O3 Rb0 3.072183 1_555
O3 Rb5 3.209800 1_555
O3 Rb3 3.224835 1_456
O3 Rb2 3.244121 1_455
O4 Rb2 2.837287 1_555
O4 Rb3 2.933620 1_556
O4 Rb0 3.072183 1_555
O4 Rb5 3.209800 1_555
O4 Rb4 3.224835 1_546
O4 Rb1 3.244121 1_545
O5 Rb5 2.679922 1_555
