# generated using pymatgen
data_LiCoSiO4
_symmetry_space_group_name_H-M   'P 1'
_cell_length_a   5.09209800
_cell_length_b   10.21425800
_cell_length_c   13.38401400
_cell_angle_alpha   90.00000000
_cell_angle_beta   90.00000000
_cell_angle_gamma   90.00000000
_symmetry_Int_Tables_number   1
_chemical_formula_structural   LiCoSiO4
_chemical_formula_sum   'Li8 Co8 Si8 O32'
_cell_volume   696.12937275
_cell_formula_units_Z   8
loop_
 _symmetry_equiv_pos_site_id
 _symmetry_equiv_pos_as_xyz
  1  'x, y, z'
loop_
 _atom_site_type_symbol
 _atom_site_label
 _atom_site_symmetry_multiplicity
 _atom_site_fract_x
 _atom_site_fract_y
 _atom_site_fract_z
 _atom_site_occupancy
  Li  Li0  1  0.91389000  0.03365400  0.49711000  1
  Li  Li1  1  0.55746400  0.21515100  0.25025300  1
  Li  Li2  1  0.55746400  0.28484900  0.75025300  1
  Li  Li3  1  0.91389000  0.46634600  0.99711000  1
  Li  Li4  1  0.08611000  0.53365400  0.49711000  1
  Li  Li5  1  0.44253600  0.71515100  0.25025300  1
  Li  Li6  1  0.44253600  0.78484900  0.75025300  1
  Li  Li7  1  0.08611000  0.96634600  0.99711000  1
  Co  Co0  1  0.06657000  0.03931000  0.24716800  1
  Co  Co1  1  0.55597500  0.21382400  0.99982600  1
  Co  Co2  1  0.55597500  0.28617600  0.49982600  1
  Co  Co3  1  0.06657000  0.46069000  0.74716800  1
  Co  Co4  1  0.93343000  0.53931000  0.24716800  1
  Co  Co5  1  0.44402500  0.71382400  0.99982600  1
  Co  Co6  1  0.44402500  0.78617600  0.49982600  1
  Co  Co7  1  0.93343000  0.96069000  0.74716800  1
  Si  Si0  1  0.43164900  0.03389600  0.62493500  1
  Si  Si1  1  0.05357100  0.21416300  0.87130400  1
  Si  Si2  1  0.05357100  0.28583700  0.37130400  1
  Si  Si3  1  0.43164900  0.46610400  0.12493500  1
  Si  Si4  1  0.56835100  0.53389600  0.62493500  1
  Si  Si5  1  0.94642900  0.71416300  0.87130400  1
  Si  Si6  1  0.94642900  0.78583700  0.37130400  1
  Si  Si7  1  0.56835100  0.96610400  0.12493500  1
  O  O0  1  0.88678900  0.99398900  0.13009700  1
  O  O1  1  0.55064300  0.95906000  0.52558700  1
  O  O2  1  0.42862300  0.03171700  0.22400500  1
  O  O3  1  0.99458900  0.05591800  0.86413800  1
  O  O4  1  0.49736400  0.19106000  0.61823800  1
  O  O5  1  0.89685800  0.22854400  0.46991400  1
  O  O6  1  0.94417600  0.28980700  0.77130400  1
  O  O7  1  0.36999500  0.24372800  0.88052200  1
  O  O8  1  0.36999500  0.25627200  0.38052200  1
  O  O9  1  0.94417600  0.21019300  0.27130400  1
  O  O10  1  0.89685800  0.27145600  0.96991400  1
  O  O11  1  0.49736400  0.30894000  0.11823800  1
  O  O12  1  0.99458900  0.44408200  0.36413800  1
  O  O13  1  0.42862300  0.46828300  0.72400500  1
  O  O14  1  0.55064300  0.54094000  0.02558700  1
  O  O15  1  0.88678900  0.50601100  0.63009700  1
  O  O16  1  0.11321100  0.49398900  0.13009700  1
  O  O17  1  0.44935700  0.45906000  0.52558700  1
  O  O18  1  0.57137700  0.53171700  0.22400500  1
  O  O19  1  0.00541100  0.55591800  0.86413800  1
  O  O20  1  0.50263600  0.69106000  0.61823800  1
  O  O21  1  0.10314200  0.72854400  0.46991400  1
  O  O22  1  0.05582400  0.78980700  0.77130400  1
  O  O23  1  0.63000500  0.74372800  0.88052200  1
  O  O24  1  0.63000500  0.75627200  0.38052200  1
  O  O25  1  0.05582400  0.71019300  0.27130400  1
  O  O26  1  0.10314200  0.77145600  0.96991400  1
  O  O27  1  0.50263600  0.80894000  0.11823800  1
  O  O28  1  0.00541100  0.94408200  0.36413800  1
  O  O29  1  0.57137700  0.96828300  0.72400500  1
  O  O30  1  0.44935700  0.04094000  0.02558700  1
  O  O31  1  0.11321100  0.00601100  0.63009700  1
loop_
_geom_bond_atom_site_label_1
_geom_bond_atom_site_label_2
_geom_bond_distance
_geom_bond_site_symmetry_2
Li0 O5 2.025519 1_555
Li0 O1 2.036453 1_545
Li0 O28 2.054648 1_645
Li0 O31 2.068312 1_655
Li1 O9 1.989874 1_555
Li1 O2 2.016030 1_555
Li1 O8 2.031642 1_555
Li1 O11 2.033051 1_555
Li2 O6 1.989874 1_555
Li2 O13 2.016030 1_555
Li2 O7 2.031642 1_555
Li2 O4 2.033051 1_555
Li3 O10 2.025519 1_555
Li3 O14 2.036453 1_556
Li3 O19 2.054648 1_655
Li3 O16 2.068312 1_656
Li4 O21 2.025519 1_555
Li4 O17 2.036453 1_555
Li4 O12 2.054648 1_455
Li4 O15 2.068312 1_455
Li5 O25 1.989874 1_555
Li5 O18 2.016030 1_555
Li5 O24 2.031642 1_555
Li5 O27 2.033051 1_555
Li6 O22 1.989874 1_555
Li6 O29 2.016030 1_555
Li6 O23 2.031642 1_555
Li6 O20 2.033051 1_555
Li7 O26 2.025519 1_555
Li7 O30 2.036453 1_566
Li7 O3 2.054648 1_465
Li7 O0 2.068312 1_456
Co0 O28 1.869219 1_545
Co0 O2 1.871101 1_555
Co0 O0 1.872827 1_445
Co0 O9 1.881317 1_455
Co1 O10 1.876124 1_555
Co1 O30 1.879353 1_556
Co1 O7 1.881442 1_555
Co1 O11 1.882722 1_556
Co2 O5 1.876124 1_555
Co2 O17 1.879353 1_555
Co2 O8 1.881442 1_555
Co2 O4 1.882722 1_555
Co3 O19 1.869219 1_555
Co3 O13 1.871101 1_555
Co3 O15 1.872827 1_455
Co3 O6 1.881317 1_455
Co4 O12 1.869219 1_555
Co4 O18 1.871101 1_555
Co4 O16 1.872827 1_655
Co4 O25 1.881317 1_655
Co5 O26 1.876124 1_555
Co5 O14 1.879353 1_556
Co5 O23 1.881442 1_555
Co5 O27 1.882722 1_556
Co6 O21 1.876124 1_555
Co6 O1 1.879353 1_555
Co6 O24 1.881442 1_555
Co6 O20 1.882722 1_555
Co7 O3 1.869219 1_565
Co7 O29 1.871101 1_555
Co7 O31 1.872827 1_665
Co7 O22 1.881317 1_655
O0 Si7 1.647792 1_555
O1 Si0 1.649086 1_565
O2 Si7 1.647286 1_545
O3 Si1 1.646818 1_655
O4 Si0 1.642267 1_555
O5 Si2 1.649585 1_655
O6 Si1 1.642744 1_655
O7 Si1 1.643953 1_555
O8 Si2 1.643953 1_555
O9 Si2 1.642744 1_655
O10 Si1 1.649585 1_655
O11 Si3 1.642267 1_555
O12 Si2 1.646818 1_655
O13 Si4 1.647286 1_555
O14 Si3 1.649086 1_555
O15 Si4 1.647792 1_555
O16 Si3 1.647792 1_555
O17 Si4 1.649086 1_555
O18 Si3 1.647286 1_555
O19 Si5 1.646818 1_455
O20 Si4 1.642267 1_555
O21 Si6 1.649585 1_455
O22 Si5 1.642744 1_455
O23 Si5 1.643953 1_555
O24 Si6 1.643953 1_555
O25 Si6 1.642744 1_455
O26 Si5 1.649585 1_455
O27 Si7 1.642267 1_555
O28 Si6 1.646818 1_455
O29 Si0 1.647286 1_565
O30 Si7 1.649086 1_545
O31 Si0 1.647792 1_555
