# generated using pymatgen
data_Mn(SO4)2
_symmetry_space_group_name_H-M   'P 1'
_cell_length_a   8.85318530
_cell_length_b   8.85318530
_cell_length_c   8.85318482
_cell_angle_alpha   55.78007191
_cell_angle_beta   55.78007191
_cell_angle_gamma   55.78007735
_symmetry_Int_Tables_number   1
_chemical_formula_structural   Mn(SO4)2
_chemical_formula_sum   'Mn3 S6 O24'
_cell_volume   442.64732633
_cell_formula_units_Z   3
loop_
 _symmetry_equiv_pos_site_id
 _symmetry_equiv_pos_as_xyz
  1  'x, y, z'
loop_
 _atom_site_type_symbol
 _atom_site_label
 _atom_site_symmetry_multiplicity
 _atom_site_fract_x
 _atom_site_fract_y
 _atom_site_fract_z
 _atom_site_occupancy
  Mn  Mn0  1  0.35210800  0.35210800  0.35210800  1
  Mn  Mn1  1  0.64413800  0.64413800  0.64413800  1
  Mn  Mn2  1  0.84814600  0.84814600  0.84814600  1
  S  S0  1  0.03565900  0.46704500  0.74745100  1
  S  S1  1  0.46704500  0.74745100  0.03565900  1
  S  S2  1  0.74745100  0.03565900  0.46704500  1
  S  S3  1  0.25410500  0.95457100  0.53616500  1
  S  S4  1  0.53616500  0.25410500  0.95457100  1
  S  S5  1  0.95457100  0.53616500  0.25410500  1
  O  O0  1  0.10593600  0.52357100  0.29536400  1
  O  O1  1  0.29536400  0.10593600  0.52357100  1
  O  O2  1  0.00502600  0.33923200  0.94769500  1
  O  O3  1  0.52357100  0.29536400  0.10593600  1
  O  O4  1  0.02246800  0.66444900  0.70747600  1
  O  O5  1  0.23592100  0.38490600  0.61331300  1
  O  O6  1  0.38490600  0.61331300  0.23592100  1
  O  O7  1  0.33923200  0.94769500  0.00502600  1
  O  O8  1  0.61331300  0.23592100  0.38490600  1
  O  O9  1  0.04779900  0.97838700  0.68102600  1
  O  O10  1  0.28957100  0.96893700  0.35118000  1
  O  O11  1  0.35118000  0.28957100  0.96893700  1
  O  O12  1  0.66444900  0.70747600  0.02246800  1
  O  O13  1  0.70747600  0.02246800  0.66444900  1
  O  O14  1  0.94769500  0.00502600  0.33923200  1
  O  O15  1  0.37955700  0.75617900  0.64234900  1
  O  O16  1  0.68102600  0.04779900  0.97838700  1
  O  O17  1  0.64234900  0.37955700  0.75617900  1
  O  O18  1  0.75617900  0.64234900  0.37955700  1
  O  O19  1  0.96893700  0.35118000  0.28957100  1
  O  O20  1  0.49867800  0.67926200  0.89468700  1
  O  O21  1  0.97838700  0.68102600  0.04779900  1
  O  O22  1  0.67926200  0.89468700  0.49867800  1
  O  O23  1  0.89468700  0.49867800  0.67926200  1
loop_
_geom_bond_atom_site_label_1
_geom_bond_atom_site_label_2
_geom_bond_distance
_geom_bond_site_symmetry_2
Mn0 O3 1.989772 1_555
Mn0 O1 1.989772 1_555
Mn0 O0 1.989772 1_555
Mn0 O5 2.057645 1_555
Mn0 O6 2.057645 1_555
Mn0 O8 2.057645 1_555
Mn1 O20 1.946244 1_555
Mn1 O22 1.946244 1_555
Mn1 O23 1.946244 1_555
Mn1 O18 1.970200 1_555
Mn1 O17 1.970200 1_555
Mn1 O15 1.970200 1_555
Mn2 O12 1.967462 1_556
Mn2 O13 1.967462 1_565
Mn2 O4 1.967462 1_655
Mn2 O9 2.018655 1_655
Mn2 O21 2.018656 1_556
Mn2 O16 2.018656 1_565
O0 S5 1.509409 1_455
O1 S3 1.509409 1_545
O2 S0 1.430008 1_555
O3 S4 1.509409 1_554
O4 S0 1.521333 1_555
O5 S0 1.495170 1_555
O6 S1 1.495170 1_555
O7 S1 1.430009 1_555
O8 S2 1.495171 1_555
O9 S3 1.503855 1_555
O10 S3 1.424473 1_555
O11 S4 1.424474 1_555
O12 S1 1.521333 1_555
O13 S2 1.521333 1_555
O14 S2 1.430008 1_555
O15 S3 1.524911 1_555
O16 S4 1.503855 1_555
O17 S4 1.524911 1_555
O18 S5 1.524911 1_555
O19 S5 1.424474 1_555
O20 S1 1.504875 1_556
O21 S5 1.503855 1_555
O22 S2 1.504875 1_565
O23 S0 1.504875 1_655
