# generated using pymatgen
data_Li6MnNi7O16
_symmetry_space_group_name_H-M   'P 1'
_cell_length_a   6.41620800
_cell_length_b   7.57615552
_cell_length_c   12.71086746
_cell_angle_alpha   95.33240488
_cell_angle_beta   99.12609389
_cell_angle_gamma   114.14664302
_symmetry_Int_Tables_number   1
_chemical_formula_structural   Li6MnNi7O16
_chemical_formula_sum   'Li12 Mn2 Ni14 O32'
_cell_volume   548.07050398
_cell_formula_units_Z   2
loop_
 _symmetry_equiv_pos_site_id
 _symmetry_equiv_pos_as_xyz
  1  'x, y, z'
loop_
 _atom_site_type_symbol
 _atom_site_label
 _atom_site_symmetry_multiplicity
 _atom_site_fract_x
 _atom_site_fract_y
 _atom_site_fract_z
 _atom_site_occupancy
  Li  Li0  1  0.39943400  0.95199500  0.09667100  1
  Li  Li1  1  0.21225300  0.81351200  0.27823900  1
  Li  Li2  1  0.02933500  0.67574400  0.46906400  1
  Li  Li3  1  0.90096800  0.93569700  0.59651600  1
  Li  Li4  1  0.35184700  0.54681300  0.15203500  1
  Li  Li5  1  0.53397800  0.68450000  0.96688400  1
  Li  Li6  1  0.16092200  0.42640600  0.34280200  1
  Li  Li7  1  0.84352300  0.56919800  0.65508800  1
  Li  Li8  1  0.65488000  0.44447600  0.84714400  1
  Li  Li9  1  0.10006700  0.06986000  0.40621000  1
  Li  Li10  1  0.77938800  0.18531100  0.71551200  1
  Li  Li11  1  0.59969400  0.05892100  0.90573000  1
  Mn  Mn0  1  0.18783300  0.12297500  0.81433700  1
  Mn  Mn1  1  0.68817400  0.12484200  0.31325700  1
  Ni  Ni0  1  0.32083100  0.87724200  0.68939200  1
  Ni  Ni1  1  0.11951900  0.74779800  0.87447000  1
  Ni  Ni2  1  0.81672400  0.87644300  0.18897700  1
  Ni  Ni3  1  0.62547800  0.75049600  0.37449200  1
  Ni  Ni4  1  0.43992500  0.62750900  0.56285000  1
  Ni  Ni5  1  0.24907300  0.49818800  0.74937200  1
  Ni  Ni6  1  0.93783100  0.62364500  0.06300800  1
  Ni  Ni7  1  0.06530800  0.37757500  0.93756300  1
  Ni  Ni8  1  0.74525400  0.49852600  0.24901700  1
  Ni  Ni9  1  0.56725100  0.37719100  0.43905000  1
  Ni  Ni10  1  0.36645400  0.24666700  0.62297800  1
  Ni  Ni11  1  0.87157300  0.24881800  0.12406900  1
  Ni  Ni12  1  0.99907500  0.00112800  0.99958300  1
  Ni  Ni13  1  0.49785300  0.00111000  0.49885000  1
  O  O0  1  0.23073400  0.98487400  0.54702200  1
  O  O1  1  0.08361700  0.88353200  0.13654900  1
  O  O2  1  0.04286700  0.85862200  0.73452300  1
  O  O3  1  0.72957100  0.98603300  0.04887300  1
  O  O4  1  0.53573800  0.86030900  0.23486000  1
  O  O5  1  0.58313000  0.90592700  0.62332600  1
  O  O6  1  0.21386600  0.63653700  0.01324800  1
  O  O7  1  0.35304700  0.73950400  0.42339700  1
  O  O8  1  0.38794300  0.76501100  0.82677200  1
  O  O9  1  0.01357700  0.51060300  0.20093300  1
  O  O10  1  0.17446600  0.61926100  0.61452400  1
  O  O11  1  0.89955400  0.77004500  0.32783100  1
  O  O12  1  0.66987700  0.61769600  0.11630900  1
  O  O13  1  0.71315200  0.64774700  0.51608100  1
  O  O14  1  0.85829500  0.73281500  0.93046000  1
  O  O15  1  0.48464700  0.49020800  0.30199600  1
  O  O16  1  0.51294300  0.50562800  0.69865400  1
  O  O17  1  0.30115500  0.36298600  0.48498400  1
  O  O18  1  0.13144300  0.27706200  0.06106300  1
  O  O19  1  0.33260300  0.39093900  0.88687500  1
  O  O20  1  0.10243900  0.21783800  0.68494100  1
  O  O21  1  0.83180200  0.39215600  0.38615200  1
  O  O22  1  0.98269300  0.47418900  0.80749100  1
  O  O23  1  0.60895600  0.21802800  0.18534400  1
  O  O24  1  0.79998100  0.36353800  0.98298700  1
  O  O25  1  0.63654100  0.26108300  0.57576800  1
  O  O26  1  0.41610800  0.09535200  0.37377000  1
  O  O27  1  0.46410900  0.13903900  0.76726700  1
  O  O28  1  0.26382000  0.01781900  0.94241700  1
  O  O29  1  0.95879900  0.13978200  0.26786600  1
  O  O30  1  0.76222700  0.01692700  0.44448800  1
  O  O31  1  0.91781000  0.12070200  0.86101900  1
loop_
_geom_bond_atom_site_label_1
_geom_bond_atom_site_label_2
_geom_bond_distance
_geom_bond_site_symmetry_2
Li0 O23 2.005048 1_565
Li0 O1 2.036378 1_555
Li0 O4 2.137558 1_555
Li0 O28 2.201303 1_564
Li0 O3 2.216520 1_555
Li0 O6 2.248176 1_555
Li1 O1 2.066518 1_555
Li1 O11 2.104855 1_455
Li1 O26 2.115163 1_565
Li1 O4 2.129539 1_555
Li1 O7 2.147729 1_555
Li1 O9 2.155725 1_555
Li2 O21 2.064140 1_455
Li2 O10 2.096586 1_555
Li2 O7 2.120834 1_555
Li2 O13 2.138658 1_455
Li2 O11 2.162743 1_455
Li2 O0 2.196180 1_555
Li3 O5 2.045540 1_555
Li3 O13 2.073748 1_555
Li3 O20 2.082136 1_665
Li3 O2 2.089451 1_655
Li3 O0 2.198241 1_655
Li3 O30 2.242530 1_565
Li4 O12 2.025134 1_555
Li4 O18 2.047215 1_555
Li4 O15 2.116358 1_555
Li4 O6 2.139567 1_555
Li4 O4 2.233839 1_555
Li4 O9 2.268198 1_555
Li5 O14 2.095794 1_555
Li5 O19 2.112313 1_555
Li5 O6 2.123918 1_556
Li5 O8 2.135868 1_555
Li5 O12 2.153663 1_556
Li5 O3 2.162600 1_556
Li6 O29 2.055298 1_455
Li6 O17 2.075063 1_555
Li6 O15 2.093774 1_555
Li6 O9 2.172300 1_555
Li6 O21 2.185775 1_455
Li6 O7 2.225132 1_555
Li7 O13 2.075970 1_555
Li7 O2 2.085117 1_655
Li7 O16 2.150334 1_555
Li7 O10 2.154823 1_655
Li7 O25 2.197905 1_555
Li7 O22 2.303133 1_555
Li8 O24 2.092399 1_555
Li8 O19 2.092482 1_555
Li8 O14 2.096646 1_555
Li8 O16 2.137499 1_555
Li8 O22 2.167638 1_555
Li8 O27 2.176142 1_555
Li9 O29 2.062715 1_455
Li9 O26 2.068541 1_555
Li9 O17 2.105168 1_555
Li9 O0 2.121515 1_545
Li9 O11 2.142223 1_445
Li9 O30 2.180798 1_455
Li10 O5 2.080678 1_545
Li10 O20 2.088891 1_655
Li10 O25 2.104346 1_555
Li10 O31 2.109976 1_555
Li10 O27 2.128986 1_555
Li10 O22 2.136181 1_555
Li11 O31 2.084210 1_555
Li11 O27 2.089897 1_555
Li11 O3 2.095734 1_546
Li11 O8 2.118570 1_545
Li11 O24 2.166534 1_555
Li11 O28 2.180677 1_555
Mn0 O31 1.912490 1_455
Mn0 O19 1.916242 1_555
Mn0 O27 1.920548 1_555
Mn0 O2 1.924688 1_545
Mn0 O20 1.943681 1_555
Mn0 O28 1.957008 1_555
Mn1 O29 1.878794 1_555
Mn1 O23 1.909204 1_555
Mn1 O21 1.913813 1_555
Mn1 O4 1.918884 1_545
Mn1 O26 1.956413 1_555
Mn1 O30 1.999127 1_555
Ni0 O10 1.864597 1_555
Ni0 O27 1.900927 1_565
Ni0 O2 1.914029 1_555
Ni0 O5 1.941080 1_555
Ni0 O8 2.072360 1_555
Ni0 O0 2.145234 1_555
Ni1 O8 1.874287 1_555
Ni1 O14 1.888470 1_455
Ni1 O28 1.912184 1_565
Ni1 O22 1.933516 1_455
Ni1 O2 2.109282 1_555
Ni1 O6 2.131607 1_556
Ni2 O12 1.860103 1_555
Ni2 O29 1.914976 1_565
Ni2 O1 1.916466 1_655
Ni2 O4 1.942136 1_555
Ni2 O11 2.089179 1_555
Ni2 O3 2.124200 1_555
Ni3 O15 1.869391 1_555
Ni3 O11 1.897425 1_555
Ni3 O30 1.898799 1_565
Ni3 O7 1.919368 1_555
Ni3 O13 2.111615 1_555
Ni3 O4 2.125079 1_555
Ni4 O13 1.891513 1_555
Ni4 O10 1.900467 1_555
Ni4 O17 1.918477 1_555
Ni4 O5 1.942514 1_555
Ni4 O16 2.108440 1_555
Ni4 O7 2.127378 1_555
Ni5 O16 1.886818 1_555
Ni5 O22 1.916047 1_455
Ni5 O8 1.930516 1_555
Ni5 O20 1.965837 1_555
Ni5 O19 2.079734 1_555
Ni5 O10 2.097531 1_555
Ni6 O1 1.870623 1_655
Ni6 O24 1.901644 1_554
Ni6 O12 1.930965 1_555
Ni6 O6 1.942080 1_655
Ni6 O14 2.028458 1_554
Ni6 O9 2.095830 1_655
Ni7 O24 1.848759 1_455
Ni7 O31 1.865140 1_455
Ni7 O18 1.870681 1_556
Ni7 O6 1.873911 1_556
Ni7 O19 1.893997 1_555
Ni7 O22 1.953102 1_455
Ni8 O15 1.879432 1_555
Ni8 O9 1.887111 1_655
Ni8 O11 1.962508 1_555
Ni8 O23 1.967531 1_555
Ni8 O12 2.067843 1_555
Ni8 O21 2.077592 1_555
Ni9 O17 1.856073 1_555
Ni9 O21 1.888100 1_555
Ni9 O13 1.950106 1_555
Ni9 O26 1.977263 1_555
Ni9 O25 2.085764 1_555
Ni9 O15 2.098692 1_555
Ni10 O16 1.873928 1_555
Ni10 O25 1.887403 1_555
Ni10 O0 1.894354 1_545
Ni10 O20 1.920955 1_555
Ni10 O17 2.094039 1_555
Ni10 O27 2.180049 1_555
Ni11 O3 1.895620 1_545
Ni11 O9 1.896653 1_655
Ni11 O23 1.904934 1_555
Ni11 O18 1.905481 1_655
Ni11 O24 2.130084 1_554
Ni11 O29 2.161205 1_555
Ni12 O3 1.894968 1_546
Ni12 O14 1.906332 1_545
Ni12 O28 1.913714 1_655
Ni12 O18 1.932740 1_656
Ni12 O1 2.122035 1_646
Ni12 O31 2.141569 1_555
Ni13 O0 1.871333 1_545
Ni13 O25 1.886587 1_555
Ni13 O26 1.888236 1_555
Ni13 O7 1.889101 1_545
Ni13 O5 1.892883 1_545
Ni13 O30 1.894751 1_555
