# generated using pymatgen
data_Li7V3P8O29
_symmetry_space_group_name_H-M   'P 1'
_cell_length_a   9.85108100
_cell_length_b   9.86801141
_cell_length_c   13.91090140
_cell_angle_alpha   90.37799371
_cell_angle_beta   89.84243220
_cell_angle_gamma   119.89176416
_symmetry_Int_Tables_number   1
_chemical_formula_structural   Li7V3P8O29
_chemical_formula_sum   'Li14 V6 P16 O58'
_cell_volume   1172.36416679
_cell_formula_units_Z   2
loop_
 _symmetry_equiv_pos_site_id
 _symmetry_equiv_pos_as_xyz
  1  'x, y, z'
loop_
 _atom_site_type_symbol
 _atom_site_label
 _atom_site_symmetry_multiplicity
 _atom_site_fract_x
 _atom_site_fract_y
 _atom_site_fract_z
 _atom_site_occupancy
  Li  Li0  1  0.77612600  0.09120000  0.06323900  1
  Li  Li1  1  0.91187200  0.22807500  0.56180500  1
  Li  Li2  1  0.31281200  0.08651400  0.55958600  1
  Li  Li3  1  0.66888100  0.33162000  0.38066900  1
  Li  Li4  1  0.66938400  0.33225800  0.88359800  1
  Li  Li5  1  0.30538600  0.22070400  0.06273800  1
  Li  Li6  1  0.90642800  0.67836800  0.06522900  1
  Li  Li7  1  0.22612600  0.32313700  0.43861000  1
  Li  Li8  1  0.77418800  0.68717400  0.55889900  1
  Li  Li9  1  0.68701100  0.77852200  0.94154000  1
  Li  Li10  1  0.32540000  0.66095700  0.11798300  1
  Li  Li11  1  0.67517300  0.90434800  0.43466800  1
  Li  Li12  1  0.09598600  0.77315500  0.43502900  1
  Li  Li13  1  0.22567300  0.91189700  0.94033700  1
  V  V0  1  0.43019600  0.43198600  0.24967400  1
  V  V1  1  0.56542600  0.56582400  0.74962900  1
  V  V2  1  0.00510700  0.43475600  0.75477000  1
  V  V3  1  0.00027700  0.56722800  0.24943000  1
  V  V4  1  0.56980900  0.00058200  0.24953300  1
  V  V5  1  0.43175300  0.99964200  0.74689300  1
  P  P0  1  0.76941000  0.09278300  0.84266800  1
  P  P1  1  0.91156700  0.23437500  0.34545400  1
  P  P2  1  0.32335700  0.09179500  0.34274500  1
  P  P3  1  0.66507500  0.33537400  0.12280200  1
  P  P4  1  0.66905700  0.33396700  0.62634600  1
  P  P5  1  0.32272200  0.23137300  0.84246300  1
  P  P6  1  0.23221000  0.31865400  0.65892000  1
  P  P7  1  0.90958100  0.68006200  0.84169600  1
  P  P8  1  0.08827800  0.31855800  0.15749200  1
  P  P9  1  0.76637400  0.67739200  0.34319200  1
  P  P10  1  0.67720000  0.76540400  0.15669700  1
  P  P11  1  0.33673600  0.66771100  0.37698000  1
  P  P12  1  0.33445400  0.67008000  0.87369400  1
  P  P13  1  0.68077700  0.91257400  0.65834400  1
  P  P14  1  0.08625200  0.76426100  0.65706200  1
  P  P15  1  0.23357600  0.90936700  0.15653200  1
  O  O0  1  0.75612500  0.00126600  0.56829100  1
  O  O1  1  0.75433800  0.08013800  0.34429100  1
  O  O2  1  0.99003400  0.22672500  0.07454600  1
  O  O3  1  0.91486100  0.25515600  0.84079800  1
  O  O4  1  0.62523800  0.11401300  0.82449500  1
  O  O5  1  0.66725700  0.18742000  0.15837000  1
  O  O6  1  0.49071500  0.12029100  0.32931300  1
  O  O7  1  0.25067100  0.00449400  0.06796500  1
  O  O8  1  0.33780000  0.08055000  0.83650100  1
  O  O9  1  0.81626000  0.33152300  0.66755500  1
  O  O10  1  0.88023600  0.37113000  0.32892500  1
  O  O11  1  0.51424200  0.18584900  0.66287300  1
  O  O12  1  0.65361400  0.33588400  0.01454500  1
  O  O13  1  0.67095400  0.33515200  0.51845400  1
  O  O14  1  0.51403500  0.33494100  0.16696600  1
  O  O15  1  0.88415900  0.51289700  0.82589100  1
  O  O16  1  0.81130100  0.48736400  0.15947200  1
  O  O17  1  0.32852900  0.25082800  0.34346500  1
  O  O18  1  0.21506500  0.21210800  0.75082400  1
  O  O19  1  0.24430500  0.24095400  0.56868200  1
  O  O20  1  0.25029200  0.24033700  0.93367000  1
  O  O21  1  0.48952300  0.37257600  0.82243900  1
  O  O22  1  0.67076700  0.48653800  0.66539000  1
  O  O23  1  0.25098700  0.32927300  0.15787300  1
  O  O24  1  0.62463700  0.51030600  0.32763300  1
  O  O25  1  0.91809000  0.67041700  0.34527800  1
  O  O26  1  0.01048700  0.22550100  0.25675900  1
  O  O27  1  0.00385100  0.25206600  0.43601900  1
  O  O28  1  0.99772200  0.75806200  0.56776100  1
  O  O29  1  0.08424000  0.33327500  0.66100700  1
  O  O30  1  0.38174400  0.47861600  0.67641000  1
  O  O31  1  0.74648300  0.66788200  0.84110900  1
  O  O32  1  0.33615000  0.51569000  0.32967900  1
  O  O33  1  0.50993100  0.62425200  0.17191600  1
  O  O34  1  0.75365900  0.74653900  0.06733000  1
  O  O35  1  0.74831700  0.75524400  0.43210500  1
  O  O36  1  0.78067000  0.77965500  0.24975800  1
  O  O37  1  0.66514100  0.74944100  0.65970600  1
  O  O38  1  0.18595500  0.52220400  0.82934600  1
  O  O39  1  0.11637200  0.48661700  0.16919600  1
  O  O40  1  0.48452000  0.66784700  0.83518200  1
  O  O41  1  0.33260100  0.66944300  0.98108300  1
  O  O42  1  0.33536100  0.65120000  0.48378200  1
  O  O43  1  0.48878700  0.81281400  0.33883400  1
  O  O44  1  0.09674600  0.61675100  0.67329200  1
  O  O45  1  0.18987100  0.67118900  0.33785100  1
  O  O46  1  0.67083200  0.91704500  0.15469300  1
  O  O47  1  0.78703600  0.00130500  0.75024000  1
  O  O48  1  0.75273600  0.99864100  0.93069000  1
  O  O49  1  0.51999700  0.90190600  0.67742600  1
  O  O50  1  0.33107500  0.81660600  0.83472600  1
  O  O51  1  0.37177300  0.88017500  0.17158800  1
  O  O52  1  0.07985400  0.75259300  0.15566300  1
  O  O53  1  0.00051400  0.75718200  0.93139500  1
  O  O54  1  0.99847700  0.78593800  0.75014700  1
  O  O55  1  0.24965900  0.91477000  0.65860700  1
  O  O56  1  0.24267600  0.99814700  0.43138400  1
  O  O57  1  0.22064500  0.00146100  0.24959500  1
loop_
_geom_bond_atom_site_label_1
_geom_bond_atom_site_label_2
_geom_bond_distance
_geom_bond_site_symmetry_2
Li0 O2 1.855755 1_555
Li0 O46 1.972995 1_545
Li0 O48 2.014341 1_544
Li0 O5 2.189437 1_555
Li1 O27 1.929190 1_655
Li1 O0 1.987631 1_555
Li1 O29 2.025419 1_655
Li1 O9 2.241475 1_555
Li2 O56 1.950395 1_545
Li2 O19 1.953512 1_555
Li2 O55 2.032707 1_545
Li2 O11 2.240790 1_555
Li3 O13 1.916780 1_555
Li3 O10 2.047319 1_555
Li3 O6 2.068530 1_555
Li3 O24 2.151364 1_555
Li4 O12 1.829407 1_556
Li4 O4 2.132689 1_555
Li4 O15 2.132790 1_555
Li4 O21 2.176433 1_555
Li5 O20 1.915855 1_554
Li5 O7 1.924448 1_555
Li5 O23 1.932888 1_555
Li5 O14 2.298502 1_555
Li6 O34 1.930496 1_555
Li6 O52 1.946858 1_655
Li6 O53 2.054549 1_654
Li6 O16 2.101149 1_555
Li7 O27 1.938347 1_555
Li7 O17 1.994048 1_555
Li7 O19 2.032157 1_555
Li7 O32 2.248922 1_555
Li8 O35 1.953445 1_555
Li8 O28 1.954117 1_555
Li8 O37 2.033780 1_555
Li8 O22 2.274264 1_555
Li9 O48 1.939635 1_555
Li9 O34 1.952639 1_556
Li9 O31 2.024852 1_555
Li9 O40 2.276914 1_555
Li10 O41 1.906367 1_554
Li10 O39 2.045616 1_555
Li10 O51 2.107126 1_555
Li10 O33 2.160079 1_555
Li11 O35 1.934229 1_555
Li11 O1 1.967985 1_565
Li11 O0 2.056778 1_565
Li11 O43 2.075798 1_555
Li12 O56 1.955349 1_555
Li12 O25 1.970338 1_455
Li12 O28 2.053921 1_455
Li12 O45 2.144298 1_555
Li13 O7 1.950491 1_566
Li13 O53 1.972279 1_555
Li13 O8 2.065665 1_565
Li13 O50 2.251062 1_555
O0 P13 1.499365 1_545
O1 P1 1.538155 1_555
O1 V4 2.058016 1_555
O2 P8 1.485741 1_655
O3 P0 1.527450 1_555
O3 V2 1.953261 1_655
O4 P0 1.556967 1_555
O4 V5 1.980707 1_545
O5 P3 1.554920 1_555
O5 V4 2.046730 1_555
O6 P2 1.539147 1_555
O6 V4 2.032134 1_555
O7 P15 1.511303 1_545
O8 P5 1.569297 1_555
O8 V5 1.940349 1_545
O9 P4 1.572142 1_555
O9 V2 2.019348 1_655
O10 P1 1.545612 1_555
O10 V3 2.026352 1_655
O11 P4 1.582459 1_555
O11 V5 1.984347 1_545
O12 P3 1.510717 1_555
O13 P4 1.500990 1_555
O14 P3 1.606237 1_555
O14 V0 1.921331 1_555
O15 P7 1.554332 1_555
O15 V2 1.972865 1_655
O16 P3 1.557322 1_555
O16 V3 2.046993 1_655
O17 P2 1.544546 1_555
O17 V0 2.034737 1_555
O18 P5 1.609109 1_555
O18 P6 1.614928 1_555
O19 P6 1.501795 1_555
O20 P5 1.477551 1_555
O21 P5 1.561941 1_555
O21 V1 1.954893 1_555
O22 P4 1.589343 1_555
O22 V1 1.962826 1_555
O23 P8 1.552895 1_555
O23 V0 1.996649 1_555
O24 P9 1.554761 1_555
O24 V0 1.991785 1_555
O25 P9 1.530394 1_555
O25 V3 2.065919 1_655
O26 P1 1.598938 1_455
O26 P8 1.626924 1_555
O27 P1 1.513058 1_455
O28 P14 1.503101 1_655
O29 P6 1.534855 1_555
O29 V2 2.016696 1_555
O30 P6 1.549220 1_555
O30 V1 1.870474 1_555
O31 P7 1.550339 1_555
O31 V1 2.005025 1_555
O32 P11 1.631501 1_555
O32 V0 1.877274 1_555
O33 P10 1.553851 1_555
O33 V0 1.980835 1_555
O34 P10 1.509639 1_555
O35 P9 1.508020 1_555
O36 P10 1.611399 1_555
O36 P9 1.613128 1_555
O37 P13 1.539082 1_555
O37 V1 2.015417 1_555
O38 P12 1.585991 1_555
O38 V2 1.860332 1_555
O39 P8 1.546814 1_555
O39 V3 2.018541 1_555
O40 P12 1.581412 1_555
O40 V1 1.960596 1_555
O41 P12 1.493956 1_555
O42 P11 1.494976 1_555
O43 P11 1.563130 1_555
O43 V4 2.040672 1_565
O44 P14 1.528061 1_555
O44 V2 1.931385 1_555
O45 P11 1.563554 1_555
O45 V3 2.034677 1_555
O46 P10 1.529063 1_555
O46 V4 2.051008 1_565
O47 P13 1.604877 1_545
O47 P0 1.624156 1_555
O48 P0 1.500378 1_565
O49 P13 1.556282 1_555
O49 V5 1.854302 1_555
O50 P12 1.563348 1_555
O50 V5 1.993951 1_555
O51 P15 1.540611 1_555
O51 V4 2.019301 1_565
O52 P15 1.533453 1_555
O52 V3 2.063608 1_555
O53 P7 1.500905 1_455
O54 P7 1.606181 1_555
O54 P14 1.626261 1_655
O55 P14 1.553827 1_555
O55 V5 1.982086 1_555
O56 P2 1.511181 1_565
O57 P2 1.609496 1_555
O57 P15 1.617726 1_545
