# generated using pymatgen
data_Li3Mn4P3H12O19
_symmetry_space_group_name_H-M   'P 1'
_cell_length_a   10.82621476
_cell_length_b   10.82621476
_cell_length_c   10.82621488
_cell_angle_alpha   60.26527140
_cell_angle_beta   60.26527140
_cell_angle_gamma   60.26526995
_symmetry_Int_Tables_number   1
_chemical_formula_structural   Li3Mn4P3H12O19
_chemical_formula_sum   'Li6 Mn8 P6 H24 O38'
_cell_volume   902.64030264
_cell_formula_units_Z   2
loop_
 _symmetry_equiv_pos_site_id
 _symmetry_equiv_pos_as_xyz
  1  'x, y, z'
loop_
 _atom_site_type_symbol
 _atom_site_label
 _atom_site_symmetry_multiplicity
 _atom_site_fract_x
 _atom_site_fract_y
 _atom_site_fract_z
 _atom_site_occupancy
  Li  Li0  1  0.67422600  0.06958600  0.93779500  1
  Li  Li1  1  0.56958600  0.17422600  0.43779500  1
  Li  Li2  1  0.93779500  0.67422600  0.06958600  1
  Li  Li3  1  0.43779500  0.56958600  0.17422600  1
  Li  Li4  1  0.17422600  0.43779500  0.56958600  1
  Li  Li5  1  0.06958600  0.93779500  0.67422600  1
  Mn  Mn0  1  0.97881200  0.00675400  0.30536100  1
  Mn  Mn1  1  0.80536100  0.50675400  0.47881200  1
  Mn  Mn2  1  0.50675400  0.47881200  0.80536100  1
  Mn  Mn3  1  0.99880500  0.99880500  0.99880500  1
  Mn  Mn4  1  0.49880500  0.49880500  0.49880500  1
  Mn  Mn5  1  0.00675400  0.30536100  0.97881200  1
  Mn  Mn6  1  0.47881200  0.80536100  0.50675400  1
  Mn  Mn7  1  0.30536100  0.97881200  0.00675400  1
  P  P0  1  0.83872100  0.30078100  0.80634100  1
  P  P1  1  0.80078100  0.33872100  0.30634100  1
  P  P2  1  0.33872100  0.30634100  0.80078100  1
  P  P3  1  0.80634100  0.83872100  0.30078100  1
  P  P4  1  0.30078100  0.80634100  0.83872100  1
  P  P5  1  0.30634100  0.80078100  0.33872100  1
  H  H0  1  0.75815000  0.00383100  0.69049700  1
  H  H1  1  0.80652300  0.14322100  0.62438500  1
  H  H2  1  0.46153900  0.02722900  0.22395900  1
  H  H3  1  0.64322100  0.30652300  0.12438500  1
  H  H4  1  0.96153900  0.72395900  0.52722900  1
  H  H5  1  0.50383100  0.25815000  0.19049700  1
  H  H6  1  0.30652300  0.12438500  0.64322100  1
  H  H7  1  0.88645900  0.61472000  0.67406200  1
  H  H8  1  0.38645900  0.17406200  0.11472000  1
  H  H9  1  0.72395900  0.52722900  0.96153900  1
  H  H10  1  0.25815000  0.19049700  0.50383100  1
  H  H11  1  0.17406200  0.11472000  0.38645900  1
  H  H12  1  0.61472000  0.67406200  0.88645900  1
  H  H13  1  0.69049700  0.75815000  0.00383100  1
  H  H14  1  0.02722900  0.22395900  0.46153900  1
  H  H15  1  0.67406200  0.88645900  0.61472000  1
  H  H16  1  0.11472000  0.38645900  0.17406200  1
  H  H17  1  0.62438500  0.80652300  0.14322100  1
  H  H18  1  0.22395900  0.46153900  0.02722900  1
  H  H19  1  0.19049700  0.50383100  0.25815000  1
  H  H20  1  0.52722900  0.96153900  0.72395900  1
  H  H21  1  0.14322100  0.62438500  0.80652300  1
  H  H22  1  0.12438500  0.64322100  0.30652300  1
  H  H23  1  0.00383100  0.69049700  0.75815000  1
  O  O0  1  0.96309800  0.14753000  0.79859500  1
  O  O1  1  0.81712300  0.04194400  0.70158000  1
  O  O2  1  0.78622800  0.18564700  0.34611300  1
  O  O3  1  0.92783500  0.37857200  0.15466400  1
  O  O4  1  0.84395400  0.32211100  0.43404300  1
  O  O5  1  0.82211100  0.34395400  0.93404300  1
  O  O6  1  0.87857200  0.42783500  0.65466400  1
  O  O7  1  0.68564700  0.28622800  0.84611300  1
  O  O8  1  0.46602300  0.13007400  0.15718600  1
  O  O9  1  0.96602300  0.65718600  0.63007400  1
  O  O10  1  0.37857200  0.15466400  0.92783500  1
  O  O11  1  0.54194400  0.31712300  0.20158000  1
  O  O12  1  0.84611300  0.68564700  0.28622800  1
  O  O13  1  0.64753000  0.46309800  0.29859500  1
  O  O14  1  0.46309800  0.29859500  0.64753000  1
  O  O15  1  0.93404300  0.82211100  0.34395400  1
  O  O16  1  0.31712300  0.20158000  0.54194400  1
  O  O17  1  0.65718600  0.63007400  0.96602300  1
  O  O18  1  0.07578000  0.07578000  0.07578000  1
  O  O19  1  0.57578000  0.57578000  0.57578000  1
  O  O20  1  0.13007400  0.15718600  0.46602300  1
  O  O21  1  0.70158000  0.81712300  0.04194400  1
  O  O22  1  0.32211100  0.43404300  0.84395400  1
  O  O23  1  0.79859500  0.96309800  0.14753000  1
  O  O24  1  0.18564700  0.34611300  0.78622800  1
  O  O25  1  0.42783500  0.65466400  0.87857200  1
  O  O26  1  0.65466400  0.87857200  0.42783500  1
  O  O27  1  0.15718600  0.46602300  0.13007400  1
  O  O28  1  0.63007400  0.96602300  0.65718600  1
  O  O29  1  0.29859500  0.64753000  0.46309800  1
  O  O30  1  0.20158000  0.54194400  0.31712300  1
  O  O31  1  0.43404300  0.84395400  0.32211100  1
  O  O32  1  0.34611300  0.78622800  0.18564700  1
  O  O33  1  0.28622800  0.84611300  0.68564700  1
  O  O34  1  0.34395400  0.93404300  0.82211100  1
  O  O35  1  0.04194400  0.70158000  0.81712300  1
  O  O36  1  0.14753000  0.79859500  0.96309800  1
  O  O37  1  0.15466400  0.92783500  0.37857200  1
loop_
_geom_bond_atom_site_label_1
_geom_bond_atom_site_label_2
_geom_bond_distance
_geom_bond_site_symmetry_2
Li0 O7 2.087602 1_555
Li0 O21 2.302341 1_546
Li0 O1 2.323392 1_555
Li0 O8 2.432887 1_556
Li1 O2 2.087602 1_555
Li1 O16 2.302341 1_555
Li1 O11 2.323392 1_555
Li1 O28 2.432887 1_545
Li2 O12 2.087602 1_555
Li2 O35 2.302341 1_654
Li2 O21 2.323392 1_555
Li2 O27 2.432887 1_655
Li3 O32 2.087602 1_555
Li3 O11 2.302341 1_555
Li3 O30 2.323392 1_555
Li3 O17 2.432887 1_554
Li4 O24 2.087602 1_555
Li4 O30 2.302341 1_555
Li4 O16 2.323392 1_555
Li4 O9 2.432887 1_455
Li5 O33 2.087602 1_555
Li5 O1 2.302341 1_465
Li5 O35 2.323392 1_555
Li5 O20 2.432887 1_565
Mn0 O18 2.045878 1_655
Mn0 O37 2.047985 1_645
Mn0 O2 2.054794 1_555
Mn0 O15 2.082577 1_545
Mn1 O19 2.045877 1_555
Mn1 O6 2.047985 1_555
Mn1 O12 2.054794 1_555
Mn1 O4 2.082577 1_555
Mn2 O19 2.045878 1_555
Mn2 O25 2.047985 1_555
Mn2 O7 2.054794 1_555
Mn2 O22 2.082577 1_555
Mn3 O18 2.037175 1_666
Mn3 O36 2.047404 1_655
Mn3 O23 2.047404 1_556
Mn3 O0 2.047404 1_565
Mn4 O19 2.037175 1_555
Mn4 O29 2.047404 1_555
Mn4 O14 2.047404 1_555
Mn4 O13 2.047404 1_555
Mn5 O18 2.045877 1_556
Mn5 O3 2.047985 1_456
Mn5 O24 2.054794 1_555
Mn5 O5 2.082577 1_455
Mn6 O19 2.045877 1_555
Mn6 O26 2.047985 1_555
Mn6 O33 2.054794 1_555
Mn6 O31 2.082577 1_555
Mn7 O18 2.045877 1_565
Mn7 O10 2.047985 1_564
Mn7 O32 2.054794 1_555
Mn7 O34 2.082577 1_554
H0 O1 0.989293 1_555
H1 O1 0.987499 1_555
H2 O8 0.992484 1_555
H3 O11 0.987499 1_555
H4 O9 0.992484 1_555
H5 O11 0.989293 1_555
H6 O16 0.987499 1_555
H7 O9 0.974096 1_555
H8 O8 0.974096 1_555
H9 O17 0.992484 1_555
H10 O16 0.989293 1_555
H11 O20 0.974096 1_555
H12 O17 0.974096 1_555
H13 O21 0.989293 1_555
H14 O20 0.992484 1_555
H15 O28 0.974096 1_555
H16 O27 0.974096 1_555
H17 O21 0.987499 1_555
H18 O27 0.992484 1_555
H19 O30 0.989293 1_555
H20 O28 0.992484 1_555
H21 O35 0.987499 1_555
H22 O30 0.987499 1_555
H23 O35 0.989293 1_555
O0 P0 1.543619 1_555
O2 P1 1.562194 1_555
O3 P1 1.555623 1_555
O4 P1 1.572642 1_555
O5 P0 1.572642 1_555
O6 P0 1.555623 1_555
O7 P0 1.562194 1_555
O10 P2 1.555623 1_555
O12 P3 1.562194 1_555
O13 P1 1.543619 1_555
O14 P2 1.543620 1_555
O15 P3 1.572642 1_555
O22 P2 1.572642 1_555
O23 P3 1.543620 1_555
O24 P2 1.562194 1_555
O25 P4 1.555623 1_555
O26 P3 1.555623 1_555
O29 P5 1.543620 1_555
O31 P5 1.572642 1_555
O32 P5 1.562194 1_555
O33 P4 1.562194 1_555
O34 P4 1.572642 1_555
O36 P4 1.543620 1_555
O37 P5 1.555623 1_555
