# generated using pymatgen
data_Li7Nb12O24
_symmetry_space_group_name_H-M   'P 1'
_cell_length_a   5.14690700
_cell_length_b   8.92551501
_cell_length_c   11.02052763
_cell_angle_alpha   97.75850775
_cell_angle_beta   103.39464394
_cell_angle_gamma   89.99704069
_symmetry_Int_Tables_number   1
_chemical_formula_structural   Li7Nb12O24
_chemical_formula_sum   'Li7 Nb12 O24'
_cell_volume   487.73352545
_cell_formula_units_Z   1
loop_
 _symmetry_equiv_pos_site_id
 _symmetry_equiv_pos_as_xyz
  1  'x, y, z'
loop_
 _atom_site_type_symbol
 _atom_site_label
 _atom_site_symmetry_multiplicity
 _atom_site_fract_x
 _atom_site_fract_y
 _atom_site_fract_z
 _atom_site_occupancy
  Li  Li0  1  0.74675800  0.58331000  0.99984100  1
  Li  Li1  1  0.25324200  0.41669000  0.00015900  1
  Li  Li2  1  0.00027000  0.33359800  0.50052900  1
  Li  Li3  1  0.00000000  0.00000000  0.50000000  1
  Li  Li4  1  0.25321900  0.08336200  0.00013200  1
  Li  Li5  1  0.74678100  0.91663800  0.99986800  1
  Li  Li6  1  0.99973000  0.66640200  0.49947100  1
  Nb  Nb0  1  0.03979800  0.45424500  0.24744500  1
  Nb  Nb1  1  0.96020200  0.54575500  0.75255500  1
  Nb  Nb2  1  0.54796300  0.29215300  0.25297700  1
  Nb  Nb3  1  0.46205100  0.37191500  0.74653500  1
  Nb  Nb4  1  0.03985100  0.12824700  0.24744000  1
  Nb  Nb5  1  0.95139300  0.20860600  0.75239500  1
  Nb  Nb6  1  0.53808100  0.95641300  0.25348200  1
  Nb  Nb7  1  0.46191900  0.04358700  0.74651800  1
  Nb  Nb8  1  0.04860700  0.79139400  0.24760500  1
  Nb  Nb9  1  0.96014900  0.87175300  0.75256000  1
  Nb  Nb10  1  0.53794900  0.62808500  0.25346500  1
  Nb  Nb11  1  0.45203700  0.70784700  0.74702300  1
  O  O0  1  0.35800000  0.55536900  0.86819000  1
  O  O1  1  0.77747500  0.48003800  0.37060600  1
  O  O2  1  0.22252500  0.51996200  0.62939400  1
  O  O3  1  0.64200000  0.44463100  0.13181000  1
  O  O4  1  0.85573800  0.40023700  0.87123400  1
  O  O5  1  0.74748600  0.35705200  0.63524400  1
  O  O6  1  0.16127500  0.27146000  0.12861400  1
  O  O7  1  0.25802700  0.31086500  0.36521600  1
  O  O8  1  0.34316600  0.22809700  0.86801400  1
  O  O9  1  0.21955600  0.18840800  0.62977700  1
  O  O10  1  0.77747900  0.14356700  0.37059600  1
  O  O11  1  0.64195800  0.09930500  0.13177900  1
  O  O12  1  0.85562100  0.05688200  0.87128000  1
  O  O13  1  0.25253300  0.97872300  0.36476700  1
  O  O14  1  0.14437900  0.94311800  0.12872000  1
  O  O15  1  0.74746700  0.02127700  0.63523300  1
  O  O16  1  0.35804200  0.90069500  0.86822100  1
  O  O17  1  0.65683400  0.77190300  0.13198600  1
  O  O18  1  0.78044400  0.81159200  0.37022300  1
  O  O19  1  0.22252100  0.85643300  0.62940400  1
  O  O20  1  0.83872500  0.72854000  0.87138600  1
  O  O21  1  0.74197300  0.68913500  0.63478400  1
  O  O22  1  0.25251400  0.64294800  0.36475600  1
  O  O23  1  0.14426200  0.59976300  0.12876600  1
loop_
_geom_bond_atom_site_label_1
_geom_bond_atom_site_label_2
_geom_bond_distance
_geom_bond_site_symmetry_2
Li0 O20 2.171254 1_555
Li0 O0 2.174431 1_555
Li0 O4 2.176321 1_555
Li0 O3 2.188020 1_556
Li0 O17 2.195187 1_556
Li0 O23 2.196126 1_656
Li1 O6 2.171254 1_555
Li1 O3 2.174431 1_555
Li1 O23 2.176321 1_555
Li1 O0 2.188020 1_554
Li1 O8 2.195187 1_554
Li1 O4 2.196126 1_454
Li2 O2 2.168412 1_555
Li2 O9 2.176105 1_555
Li2 O5 2.179836 1_455
Li2 O1 2.194962 1_455
Li2 O10 2.196782 1_455
Li2 O7 2.204491 1_555
Li3 O19 2.173473 1_545
Li3 O10 2.173473 1_455
Li3 O18 2.180004 1_445
Li3 O9 2.180004 1_555
Li3 O13 2.183483 1_545
Li3 O15 2.183483 1_455
Li4 O6 2.171630 1_555
Li4 O11 2.174332 1_555
Li4 O14 2.176165 1_545
Li4 O16 2.187682 1_544
Li4 O12 2.196165 1_454
Li4 O8 2.196208 1_554
Li5 O20 2.171630 1_555
Li5 O16 2.174332 1_555
Li5 O12 2.176165 1_565
Li5 O11 2.187682 1_566
Li5 O14 2.196165 1_656
Li5 O17 2.196208 1_556
Li6 O1 2.168412 1_555
Li6 O18 2.176105 1_555
Li6 O22 2.179836 1_655
Li6 O2 2.194962 1_655
Li6 O19 2.196782 1_655
Li6 O21 2.204491 1_555
Nb0 O7 2.087283 1_555
Nb0 O22 2.112658 1_555
Nb0 O23 2.114516 1_555
Nb0 O1 2.117268 1_455
Nb0 O6 2.137743 1_555
Nb0 O3 2.141251 1_455
Nb1 O21 2.087283 1_555
Nb1 O5 2.112658 1_555
Nb1 O4 2.114516 1_555
Nb1 O2 2.117268 1_655
Nb1 O20 2.137743 1_555
Nb1 O0 2.141251 1_655
Nb2 O6 2.131078 1_555
Nb2 O7 2.141070 1_555
Nb2 O10 2.142200 1_555
Nb2 O1 2.142871 1_555
Nb2 O11 2.158559 1_555
Nb2 O3 2.158631 1_555
Nb3 O5 2.114476 1_555
Nb3 O0 2.122565 1_555
Nb3 O9 2.140853 1_555
Nb3 O2 2.157668 1_555
Nb3 O8 2.158253 1_555
Nb3 O4 2.162024 1_555
Nb4 O7 2.087133 1_555
Nb4 O13 2.112160 1_545
Nb4 O14 2.115159 1_545
Nb4 O10 2.117416 1_455
Nb4 O6 2.137886 1_555
Nb4 O11 2.141764 1_455
Nb5 O15 2.086579 1_555
Nb5 O5 2.087518 1_555
Nb5 O8 2.114132 1_655
Nb5 O9 2.135851 1_655
Nb5 O12 2.138169 1_555
Nb5 O4 2.139380 1_555
Nb6 O13 2.114918 1_555
Nb6 O11 2.122619 1_565
Nb6 O18 2.141812 1_555
Nb6 O10 2.157708 1_565
Nb6 O17 2.159208 1_555
Nb6 O14 2.162351 1_555
Nb7 O15 2.114918 1_555
Nb7 O16 2.122619 1_545
Nb7 O9 2.141812 1_555
Nb7 O19 2.157708 1_545
Nb7 O8 2.159208 1_555
Nb7 O12 2.162351 1_555
Nb8 O13 2.086579 1_555
Nb8 O22 2.087518 1_555
Nb8 O17 2.114132 1_455
Nb8 O18 2.135851 1_455
Nb8 O14 2.138169 1_555
Nb8 O23 2.139380 1_555
Nb9 O21 2.087133 1_555
Nb9 O15 2.112160 1_565
Nb9 O12 2.115159 1_565
Nb9 O19 2.117416 1_655
Nb9 O20 2.137886 1_555
Nb9 O16 2.141764 1_655
Nb10 O22 2.114476 1_555
Nb10 O3 2.122565 1_555
Nb10 O18 2.140853 1_555
Nb10 O1 2.157668 1_555
Nb10 O17 2.158253 1_555
Nb10 O23 2.162024 1_555
Nb11 O20 2.131078 1_555
Nb11 O21 2.141070 1_555
Nb11 O19 2.142200 1_555
Nb11 O2 2.142871 1_555
Nb11 O16 2.158559 1_555
Nb11 O0 2.158631 1_555
