# generated using pymatgen
data_Li5Mn2V5O12
_symmetry_space_group_name_H-M   'P 1'
_cell_length_a   5.24706122
_cell_length_b   5.24706122
_cell_length_c   9.97902552
_cell_angle_alpha   85.01258954
_cell_angle_beta   85.01258954
_cell_angle_gamma   119.35009587
_symmetry_Int_Tables_number   1
_chemical_formula_structural   Li5Mn2V5O12
_chemical_formula_sum   'Li5 Mn2 V5 O12'
_cell_volume   235.89720482
_cell_formula_units_Z   1
loop_
 _symmetry_equiv_pos_site_id
 _symmetry_equiv_pos_as_xyz
  1  'x, y, z'
loop_
 _atom_site_type_symbol
 _atom_site_label
 _atom_site_symmetry_multiplicity
 _atom_site_fract_x
 _atom_site_fract_y
 _atom_site_fract_z
 _atom_site_occupancy
  Li  Li0  1  0.82954400  0.66157400  0.76158300  1
  Li  Li1  1  0.68583300  0.84681100  0.23773200  1
  Li  Li2  1  0.33842600  0.17045600  0.23841700  1
  Li  Li3  1  0.15318900  0.31416700  0.76226800  1
  Li  Li4  1  0.08191600  0.91808400  0.00000000  1
  Mn  Mn0  1  0.75389200  0.24610800  0.00000000  1
  Mn  Mn1  1  0.24774800  0.75225200  0.50000000  1
  V  V0  1  0.00060800  0.51351300  0.24105400  1
  V  V1  1  0.48648700  0.99939200  0.75894600  1
  V  V2  1  0.57865100  0.42134900  0.50000000  1
  V  V3  1  0.42287600  0.57712400  0.00000000  1
  V  V4  1  0.91729000  0.08271000  0.50000000  1
  O  O0  1  0.06616900  0.23930000  0.12297000  1
  O  O1  1  0.76070000  0.93383100  0.87703000  1
  O  O2  1  0.84220900  0.34867300  0.62140000  1
  O  O3  1  0.65132700  0.15779100  0.37860000  1
  O  O4  1  0.71574000  0.54298800  0.12792200  1
  O  O5  1  0.45701200  0.28426000  0.87207800  1
  O  O6  1  0.56520900  0.73182400  0.61724100  1
  O  O7  1  0.26817600  0.43479100  0.38275900  1
  O  O8  1  0.36182100  0.84065900  0.13018400  1
  O  O9  1  0.15934100  0.63817900  0.86981600  1
  O  O10  1  0.22059500  0.06476000  0.61885700  1
  O  O11  1  0.93524000  0.77940500  0.38114300  1
loop_
_geom_bond_atom_site_label_1
_geom_bond_atom_site_label_2
_geom_bond_distance
_geom_bond_site_symmetry_2
Li0 O1 2.053804 1_555
Li0 O5 2.099591 1_555
Li0 O9 2.164778 1_655
Li0 O6 2.211457 1_555
Li0 O2 2.268696 1_555
Li0 O10 2.329578 1_665
Li1 O4 2.070235 1_555
Li1 O8 2.076705 1_555
Li1 O11 2.139409 1_555
Li1 O0 2.167716 1_665
Li1 O3 2.305553 1_565
Li1 O7 2.414746 1_555
Li2 O0 2.053804 1_555
Li2 O4 2.099591 1_555
Li2 O8 2.164778 1_545
Li2 O7 2.211457 1_555
Li2 O3 2.268696 1_555
Li2 O11 2.329578 1_445
Li3 O5 2.070235 1_555
Li3 O9 2.076705 1_555
Li3 O10 2.139409 1_555
Li3 O1 2.167716 1_445
Li3 O2 2.305553 1_455
Li3 O6 2.414746 1_555
Li4 O4 2.150460 1_455
Li4 O5 2.150460 1_564
Li4 O1 2.198149 1_454
Li4 O0 2.198149 1_565
Li4 O8 2.198777 1_555
Li4 O9 2.198777 1_554
Mn0 O0 2.142724 1_655
Mn0 O1 2.142724 1_544
Mn0 O4 2.168689 1_555
Mn0 O5 2.168689 1_554
Mn0 O9 2.282589 1_654
Mn0 O8 2.282589 1_545
Mn1 O6 2.155696 1_555
Mn1 O7 2.155696 1_555
Mn1 O11 2.157232 1_455
Mn1 O10 2.157232 1_565
Mn1 O2 2.273388 1_455
Mn1 O3 2.273388 1_565
O0 V3 2.030065 1_555
O0 V0 2.070403 1_555
O1 V3 2.030065 1_556
O1 V1 2.070403 1_555
O2 V2 2.062375 1_555
O2 V4 2.078513 1_555
O2 V1 2.119062 1_545
O3 V2 2.062375 1_555
O3 V4 2.078513 1_555
O3 V0 2.119062 1_655
O4 V0 2.005564 1_655
O4 V3 2.143393 1_555
O5 V1 2.005564 1_545
O5 V3 2.143393 1_556
O6 V4 2.021584 1_565
O6 V2 2.111243 1_555
O6 V1 2.225626 1_555
O7 V4 2.021584 1_455
O7 V2 2.111243 1_555
O7 V0 2.225626 1_555
O8 V0 1.969449 1_555
O8 V3 2.092043 1_555
O9 V1 1.969449 1_555
O9 V3 2.092043 1_556
O10 V2 2.053783 1_555
O10 V4 2.098597 1_455
O10 V1 2.177888 1_545
O11 V2 2.053783 1_555
O11 V4 2.098597 1_565
O11 V0 2.177888 1_655
