# generated using pymatgen
data_CdC2(Br2N)2
_symmetry_space_group_name_H-M   'P 1'
_cell_length_a   15.64640500
_cell_length_b   9.20373400
_cell_length_c   9.50029262
_cell_angle_alpha   84.10711302
_cell_angle_beta   90.00000000
_cell_angle_gamma   90.00000000
_symmetry_Int_Tables_number   1
_chemical_formula_structural   CdC2(Br2N)2
_chemical_formula_sum   'Cd4 C8 Br16 N8'
_cell_volume   1360.86337092
_cell_formula_units_Z   4
loop_
 _symmetry_equiv_pos_site_id
 _symmetry_equiv_pos_as_xyz
  1  'x, y, z'
loop_
 _atom_site_type_symbol
 _atom_site_label
 _atom_site_symmetry_multiplicity
 _atom_site_fract_x
 _atom_site_fract_y
 _atom_site_fract_z
 _atom_site_occupancy
  Cd  Cd0  1  0.00533300  0.02947100  0.32624100  1
  Cd  Cd1  1  0.50533300  0.47052900  0.67375900  1
  Cd  Cd2  1  0.99466700  0.97052900  0.67375900  1
  Cd  Cd3  1  0.49466700  0.52947100  0.32624100  1
  C  C0  1  0.34862200  0.87467700  0.82131100  1
  C  C1  1  0.84862200  0.62532300  0.17868900  1
  C  C2  1  0.65137800  0.12532300  0.17868900  1
  C  C3  1  0.15137800  0.37467700  0.82131100  1
  C  C4  1  0.11501000  0.72942400  0.27027800  1
  C  C5  1  0.61501000  0.77057600  0.72972200  1
  C  C6  1  0.88499000  0.27057600  0.72972200  1
  C  C7  1  0.38499000  0.22942400  0.27027800  1
  Br  Br0  1  0.89984200  0.16671100  0.16989000  1
  Br  Br1  1  0.39984200  0.33328900  0.83011000  1
  Br  Br2  1  0.10015800  0.83328900  0.83011000  1
  Br  Br3  1  0.60015800  0.66671100  0.16989000  1
  Br  Br4  1  0.13341600  0.21900400  0.94746100  1
  Br  Br5  1  0.63341600  0.28099600  0.05253900  1
  Br  Br6  1  0.86658400  0.78099600  0.05253900  1
  Br  Br7  1  0.36658400  0.71900400  0.94746100  1
  Br  Br8  1  0.10983000  0.15070200  0.49161900  1
  Br  Br9  1  0.60983000  0.34929800  0.50838100  1
  Br  Br10  1  0.89017000  0.84929800  0.50838100  1
  Br  Br11  1  0.39017000  0.65070200  0.49161900  1
  Br  Br12  1  0.14613800  0.54640000  0.32206400  1
  Br  Br13  1  0.64613800  0.95360000  0.67793600  1
  Br  Br14  1  0.85386200  0.45360000  0.67793600  1
  Br  Br15  1  0.35386200  0.04640000  0.32206400  1
  N  N0  1  0.33651400  0.96938300  0.73184200  1
  N  N1  1  0.83651400  0.53061700  0.26815800  1
  N  N2  1  0.66348600  0.03061700  0.26815800  1
  N  N3  1  0.16348600  0.46938300  0.73184200  1
  N  N4  1  0.09136500  0.84888300  0.23978500  1
  N  N5  1  0.59136500  0.65111700  0.76021500  1
  N  N6  1  0.90863500  0.15111700  0.76021500  1
  N  N7  1  0.40863500  0.34888300  0.23978500  1
loop_
_geom_bond_atom_site_label_1
_geom_bond_atom_site_label_2
_geom_bond_distance
_geom_bond_site_symmetry_2
Cd0 N4 2.351475 1_545
Cd1 N5 2.351475 1_555
Cd2 N6 2.351475 1_565
Cd3 N7 2.351475 1_555
C0 N0 1.168759 1_555
C1 N1 1.168759 1_555
C2 N2 1.168759 1_555
C3 N3 1.168759 1_555
C4 N4 1.167999 1_555
C5 N5 1.167999 1_555
C6 N6 1.167999 1_555
C7 N7 1.167999 1_555
Br0 Cd0 2.478084 1_655
Br1 Cd1 2.478084 1_555
Br2 Cd2 2.478084 1_455
Br3 Cd3 2.478084 1_555
Br4 C3 1.793193 1_555
Br5 C2 1.793193 1_555
Br6 C1 1.793193 1_555
Br7 C0 1.793193 1_555
Br8 Cd0 2.597429 1_555
Br8 Cd2 2.898562 1_445
Br9 Cd1 2.597429 1_555
Br9 Cd3 2.898562 1_555
Br10 Cd2 2.597429 1_555
Br10 Cd0 2.898562 1_665
Br11 Cd3 2.597429 1_555
Br11 Cd1 2.898562 1_555
Br12 C4 1.773876 1_555
Br13 C5 1.773876 1_555
Br14 C6 1.773876 1_555
Br15 C7 1.773876 1_555
