# generated using pymatgen
data_Co6O5F7
_symmetry_space_group_name_H-M   'P 1'
_cell_length_a   4.61128900
_cell_length_b   5.55733372
_cell_length_c   7.69757387
_cell_angle_alpha   92.47378735
_cell_angle_beta   92.27037840
_cell_angle_gamma   90.11764681
_symmetry_Int_Tables_number   1
_chemical_formula_structural   Co6O5F7
_chemical_formula_sum   'Co6 O5 F7'
_cell_volume   196.92172302
_cell_formula_units_Z   1
loop_
 _symmetry_equiv_pos_site_id
 _symmetry_equiv_pos_as_xyz
  1  'x, y, z'
loop_
 _atom_site_type_symbol
 _atom_site_label
 _atom_site_symmetry_multiplicity
 _atom_site_fract_x
 _atom_site_fract_y
 _atom_site_fract_z
 _atom_site_occupancy
  Co  Co0  1  0.47814300  0.49957500  0.00291400  1
  Co  Co1  1  0.54276900  0.82106900  0.35464600  1
  Co  Co2  1  0.46842100  0.15927800  0.67036800  1
  Co  Co3  1  0.01501500  0.66208400  0.67626200  1
  Co  Co4  1  0.98686400  0.35229200  0.30666200  1
  Co  Co5  1  0.03534600  0.01685700  0.98806200  1
  O  O0  1  0.19075100  0.94637000  0.76762200  1
  O  O1  1  0.20042100  0.30790000  0.09395600  1
  O  O2  1  0.29285800  0.46578500  0.77500400  1
  O  O3  1  0.70717200  0.86030900  0.56688100  1
  O  O4  1  0.68663500  0.52915700  0.22666300  1
  F  F0  1  0.19878600  0.62954100  0.42883000  1
  F  F1  1  0.30268100  0.81280700  0.12080900  1
  F  F2  1  0.29380400  0.13753900  0.42273900  1
  F  F3  1  0.69857000  0.19596400  0.89684900  1
  F  F4  1  0.80849400  0.03476100  0.22634700  1
  F  F5  1  0.78356000  0.69749600  0.91162500  1
  F  F6  1  0.80970900  0.37121700  0.56375900  1
loop_
_geom_bond_atom_site_label_1
_geom_bond_atom_site_label_2
_geom_bond_distance
_geom_bond_site_symmetry_2
Co0 O1 1.842772 1_555
Co0 O2 1.922282 1_554
Co0 O4 1.939449 1_555
Co0 F5 1.955983 1_554
Co0 F1 2.106174 1_555
Co0 F3 2.121439 1_554
Co1 O3 1.778112 1_555
Co1 O4 1.990123 1_555
Co1 F4 2.019461 1_565
Co1 F0 2.022955 1_555
Co1 F1 2.074247 1_555
Co1 F2 2.159230 1_565
Co2 O0 1.935472 1_545
Co2 F3 2.007239 1_555
Co2 O2 2.035799 1_555
Co2 F2 2.038247 1_555
Co2 O3 2.137730 1_545
Co2 F6 2.171546 1_555
Co3 O2 1.846468 1_555
Co3 O0 1.871078 1_555
Co3 O3 1.982262 1_455
Co3 F6 2.016694 1_455
Co3 F0 2.115941 1_555
Co3 F5 2.140912 1_455
Co4 O4 1.803405 1_555
Co4 O1 1.950727 1_655
Co4 F0 2.002303 1_655
Co4 F4 2.008039 1_555
Co4 F2 2.055435 1_655
Co4 F6 2.169197 1_555
Co5 O0 1.893783 1_545
Co5 O1 1.921432 1_556
Co5 F1 1.963591 1_546
Co5 F3 1.968683 1_455
Co5 F4 2.145980 1_456
Co5 F5 2.165967 1_445
