# generated using pymatgen
data_Na6Fe2B4PO16
_symmetry_space_group_name_H-M   'P 1'
_cell_length_a   9.99043594
_cell_length_b   9.99043594
_cell_length_c   9.99043594
_cell_angle_alpha   60.00000000
_cell_angle_beta   60.00000000
_cell_angle_gamma   60.00000000
_symmetry_Int_Tables_number   1
_chemical_formula_structural   Na6Fe2B4PO16
_chemical_formula_sum   'Na12 Fe4 B8 P2 O32'
_cell_volume   705.07987741
_cell_formula_units_Z   2
loop_
 _symmetry_equiv_pos_site_id
 _symmetry_equiv_pos_as_xyz
  1  'x, y, z'
loop_
 _atom_site_type_symbol
 _atom_site_label
 _atom_site_symmetry_multiplicity
 _atom_site_fract_x
 _atom_site_fract_y
 _atom_site_fract_z
 _atom_site_occupancy
  Na  Na0  1  0.53742100  0.96257900  0.96257900  1
  Na  Na1  1  0.53742100  0.53742100  0.96257900  1
  Na  Na2  1  0.96257900  0.53742100  0.96257900  1
  Na  Na3  1  0.53742100  0.96257900  0.53742100  1
  Na  Na4  1  0.28742100  0.71257900  0.71257900  1
  Na  Na5  1  0.28742100  0.28742100  0.71257900  1
  Na  Na6  1  0.96257900  0.96257900  0.53742100  1
  Na  Na7  1  0.96257900  0.53742100  0.53742100  1
  Na  Na8  1  0.71257900  0.28742100  0.71257900  1
  Na  Na9  1  0.28742100  0.71257900  0.28742100  1
  Na  Na10  1  0.71257900  0.28742100  0.28742100  1
  Na  Na11  1  0.71257900  0.71257900  0.28742100  1
  Fe  Fe0  1  0.62500000  0.12500000  0.12500000  1
  Fe  Fe1  1  0.12500000  0.62500000  0.12500000  1
  Fe  Fe2  1  0.12500000  0.12500000  0.12500000  1
  Fe  Fe3  1  0.12500000  0.12500000  0.62500000  1
  B  B0  1  0.33765200  0.33765200  0.98704300  1
  B  B1  1  0.33765200  0.33765200  0.33765200  1
  B  B2  1  0.33765200  0.98704300  0.33765200  1
  B  B3  1  0.98704300  0.33765200  0.33765200  1
  B  B4  1  0.26295700  0.91234800  0.91234800  1
  B  B5  1  0.91234800  0.26295700  0.91234800  1
  B  B6  1  0.91234800  0.91234800  0.91234800  1
  B  B7  1  0.91234800  0.91234800  0.26295700  1
  P  P0  1  0.50000000  0.50000000  0.50000000  1
  P  P1  1  0.75000000  0.75000000  0.75000000  1
  O  O0  1  0.56348300  0.56348300  0.30955100  1
  O  O1  1  0.56348300  0.56348300  0.56348300  1
  O  O2  1  0.56348300  0.30955100  0.56348300  1
  O  O3  1  0.30955100  0.56348300  0.56348300  1
  O  O4  1  0.48881800  0.21677600  0.98313300  1
  O  O5  1  0.31127300  0.48881800  0.98313300  1
  O  O6  1  0.48881800  0.31127300  0.21677600  1
  O  O7  1  0.21677600  0.31127300  0.98313300  1
  O  O8  1  0.48881800  0.98313300  0.31127300  1
  O  O9  1  0.31127300  0.98313300  0.21677600  1
  O  O10  1  0.21677600  0.48881800  0.31127300  1
  O  O11  1  0.31127300  0.21677600  0.48881800  1
  O  O12  1  0.98313300  0.48881800  0.21677600  1
  O  O13  1  0.21677600  0.98313300  0.48881800  1
  O  O14  1  0.98313300  0.21677600  0.31127300  1
  O  O15  1  0.26686700  0.93872700  0.76118200  1
  O  O16  1  0.98313300  0.31127300  0.48881800  1
  O  O17  1  0.26686700  0.03322400  0.93872700  1
  O  O18  1  0.03322400  0.26686700  0.76118200  1
  O  O19  1  0.26686700  0.76118200  0.03322400  1
  O  O20  1  0.93872700  0.03322400  0.76118200  1
  O  O21  1  0.03322400  0.76118200  0.93872700  1
  O  O22  1  0.93872700  0.26686700  0.03322400  1
  O  O23  1  0.76118200  0.26686700  0.93872700  1
  O  O24  1  0.03322400  0.93872700  0.26686700  1
  O  O25  1  0.76118200  0.93872700  0.03322400  1
  O  O26  1  0.93872700  0.76118200  0.26686700  1
  O  O27  1  0.76118200  0.03322400  0.26686700  1
  O  O28  1  0.94044900  0.68651700  0.68651700  1
  O  O29  1  0.68651700  0.94044900  0.68651700  1
  O  O30  1  0.68651700  0.68651700  0.68651700  1
  O  O31  1  0.68651700  0.68651700  0.94044900  1
loop_
_geom_bond_atom_site_label_1
_geom_bond_atom_site_label_2
_geom_bond_distance
_geom_bond_site_symmetry_2
Na0 O9 2.432253 1_556
Na0 O4 2.432253 1_565
Na0 O29 2.458938 1_555
Na0 O31 2.458938 1_555
Na0 O25 2.535565 1_556
Na0 O17 2.535565 1_565
Na1 O5 2.432253 1_555
Na1 O6 2.432253 1_556
Na1 O30 2.458938 1_555
Na1 O31 2.458938 1_555
Na1 O23 2.535565 1_555
Na1 O19 2.535565 1_556
Na2 O7 2.432253 1_655
Na2 O12 2.432253 1_556
Na2 O31 2.458938 1_555
Na2 O28 2.458938 1_555
Na2 O21 2.535565 1_655
Na2 O22 2.535565 1_556
Na3 O8 2.432253 1_555
Na3 O11 2.432253 1_565
Na3 O30 2.458938 1_555
Na3 O29 2.458938 1_555
Na3 O15 2.535565 1_555
Na3 O27 2.535565 1_565
Na4 O21 2.432253 1_555
Na4 O15 2.432253 1_555
Na4 O1 2.458938 1_555
Na4 O3 2.458938 1_555
Na4 O5 2.535565 1_555
Na4 O13 2.535565 1_555
Na5 O18 2.432253 1_555
Na5 O17 2.432253 1_555
Na5 O2 2.458938 1_555
Na5 O3 2.458938 1_555
Na5 O11 2.535565 1_555
Na5 O7 2.535565 1_555
Na6 O14 2.432253 1_565
Na6 O13 2.432253 1_655
Na6 O28 2.458938 1_555
Na6 O29 2.458938 1_555
Na6 O20 2.535565 1_565
Na6 O24 2.535565 1_655
Na7 O16 2.432253 1_555
Na7 O10 2.432253 1_655
Na7 O30 2.458938 1_555
Na7 O28 2.458938 1_555
Na7 O26 2.535565 1_555
Na7 O18 2.535565 1_655
Na8 O23 2.432253 1_555
Na8 O20 2.432253 1_555
Na8 O1 2.458938 1_555
Na8 O2 2.458938 1_555
Na8 O4 2.535565 1_555
Na8 O16 2.535565 1_555
Na9 O19 2.432253 1_555
Na9 O24 2.432253 1_555
Na9 O0 2.458938 1_555
Na9 O3 2.458938 1_555
Na9 O10 2.535565 1_555
Na9 O9 2.535565 1_555
Na10 O27 2.432253 1_555
Na10 O22 2.432253 1_555
Na10 O0 2.458938 1_555
Na10 O2 2.458938 1_555
Na10 O6 2.535565 1_555
Na10 O14 2.535565 1_555
Na11 O25 2.432253 1_555
Na11 O26 2.432253 1_555
Na11 O1 2.458938 1_555
Na11 O0 2.458938 1_555
Na11 O8 2.535565 1_555
Na11 O12 2.535565 1_555
Fe0 O4 2.020345 1_554
Fe0 O8 2.020345 1_545
Fe0 O23 2.020345 1_554
Fe0 O27 2.020345 1_555
Fe0 O25 2.020345 1_545
Fe0 O6 2.020345 1_555
Fe1 O12 2.020345 1_455
Fe1 O10 2.020345 1_555
Fe1 O26 2.020345 1_455
Fe1 O21 2.020345 1_554
Fe1 O5 2.020345 1_554
Fe1 O19 2.020345 1_555
Fe2 O17 2.020345 1_554
Fe2 O7 2.020345 1_554
Fe2 O14 2.020345 1_455
Fe2 O24 2.020345 1_545
Fe2 O22 2.020345 1_455
Fe2 O9 2.020345 1_545
Fe3 O13 2.020345 1_545
Fe3 O16 2.020345 1_455
Fe3 O20 2.020345 1_455
Fe3 O15 2.020345 1_545
Fe3 O18 2.020345 1_555
Fe3 O11 2.020345 1_555
B0 O7 1.380218 1_555
B0 O4 1.380224 1_555
B0 O5 1.380228 1_555
B1 O11 1.380223 1_555
B1 O10 1.380223 1_555
B1 O6 1.380223 1_555
B2 O9 1.380218 1_555
B2 O13 1.380224 1_555
B2 O8 1.380228 1_555
B3 O14 1.380218 1_555
B3 O12 1.380224 1_555
B3 O16 1.380228 1_555
B4 O17 1.380218 1_565
B4 O19 1.380224 1_556
B4 O15 1.380228 1_555
B5 O22 1.380218 1_556
B5 O18 1.380224 1_655
B5 O23 1.380228 1_555
B6 O25 1.380223 1_556
B6 O20 1.380223 1_565
B6 O21 1.380223 1_655
B7 O24 1.380218 1_655
B7 O27 1.380224 1_565
B7 O26 1.380228 1_555
O0 P0 1.553522 1_555
O1 P0 1.553522 1_555
O2 P0 1.553522 1_555
O3 P0 1.553522 1_555
O28 P1 1.553522 1_555
O29 P1 1.553522 1_555
O30 P1 1.553522 1_555
O31 P1 1.553522 1_555
