# generated using pymatgen
data_Li4Ti3Ni3(WO8)2
_symmetry_space_group_name_H-M   'P 1'
_cell_length_a   5.99079456
_cell_length_b   5.94888227
_cell_length_c   9.74888117
_cell_angle_alpha   90.28641866
_cell_angle_beta   90.89786726
_cell_angle_gamma   120.01935857
_symmetry_Int_Tables_number   1
_chemical_formula_structural   Li4Ti3Ni3(WO8)2
_chemical_formula_sum   'Li4 Ti3 Ni3 W2 O16'
_cell_volume   300.75951242
_cell_formula_units_Z   1
loop_
 _symmetry_equiv_pos_site_id
 _symmetry_equiv_pos_as_xyz
  1  'x, y, z'
loop_
 _atom_site_type_symbol
 _atom_site_label
 _atom_site_symmetry_multiplicity
 _atom_site_fract_x
 _atom_site_fract_y
 _atom_site_fract_z
 _atom_site_occupancy
  Li  Li0  1  0.32431200  0.66104100  0.89966500  1
  Li  Li1  1  0.98815100  0.99417100  0.98424500  1
  Li  Li2  1  0.00423200  0.00136300  0.49600000  1
  Li  Li3  1  0.66591100  0.33511200  0.40904200  1
  Ti  Ti0  1  0.18377500  0.84291200  0.21689500  1
  Ti  Ti1  1  0.17534200  0.33861900  0.21404200  1
  Ti  Ti2  1  0.34337900  0.18021300  0.71903000  1
  Ni  Ni0  1  0.65989500  0.83115300  0.20928500  1
  Ni  Ni1  1  0.83841400  0.65865900  0.71046000  1
  Ni  Ni2  1  0.83605000  0.17558300  0.71046900  1
  W  W0  1  0.34393000  0.67274700  0.49113100  1
  W  W1  1  0.68168500  0.34085000  0.98206000  1
  O  O0  1  0.17301600  0.83376200  0.59323600  1
  O  O1  1  0.04246100  0.52117900  0.34021700  1
  O  O2  1  0.31062200  0.65579200  0.10740400  1
  O  O3  1  0.00770700  0.00140600  0.30552400  1
  O  O4  1  0.01163800  0.00844400  0.79922600  1
  O  O5  1  0.18116600  0.34044500  0.59553500  1
  O  O6  1  0.46711700  0.96690600  0.34158500  1
  O  O7  1  0.46726900  0.50576100  0.33886400  1
  O  O8  1  0.33142000  0.16351100  0.10529000  1
  O  O9  1  0.66323400  0.82957900  0.58299900  1
  O  O10  1  0.50689300  0.47466500  0.84792900  1
  O  O11  1  0.50041900  0.03673400  0.85709200  1
  O  O12  1  0.64108300  0.31379900  0.60787000  1
  O  O13  1  0.83995700  0.65922500  0.09512100  1
  O  O14  1  0.96348400  0.48202500  0.85013500  1
  O  O15  1  0.84744000  0.17464400  0.09749100  1
loop_
_geom_bond_atom_site_label_1
_geom_bond_atom_site_label_2
_geom_bond_distance
_geom_bond_site_symmetry_2
Li0 O14 1.923212 1_455
Li0 O10 1.976163 1_555
Li0 O11 1.985960 1_565
Li0 O2 2.027931 1_556
Li1 O4 1.810518 1_665
Li1 O15 2.001244 1_566
Li1 O13 2.051445 1_556
Li1 O8 2.115552 1_666
Li2 O3 1.857371 1_555
Li2 O0 1.975667 1_545
Li2 O9 1.977629 1_445
Li2 O5 1.985667 1_555
Li3 O12 1.946285 1_555
Li3 O6 1.999901 1_545
Li3 O7 2.026082 1_555
Li3 O1 2.078612 1_655
Ni0 O3 2.016274 1_665
Ni0 O2 2.047782 1_555
Ni0 O15 2.095007 1_565
Ni0 O7 2.123564 1_555
Ni0 O13 2.139763 1_555
Ni0 O6 2.149179 1_555
Ni1 O4 1.987171 1_665
Ni1 O12 2.030354 1_555
Ni1 O14 2.071182 1_555
Ni1 O0 2.098484 1_655
Ni1 O9 2.172270 1_555
Ni1 O10 2.204890 1_555
Ni2 O4 1.967342 1_655
Ni2 O12 1.993313 1_555
Ni2 O14 2.076077 1_555
Ni2 O5 2.132290 1_655
Ni2 O9 2.157484 1_545
Ni2 O11 2.282206 1_555
O0 W0 1.990094 1_555
O0 Ti2 2.150369 1_565
O1 Ti1 2.051492 1_555
O1 Ti0 2.063725 1_555
O1 W0 2.124476 1_555
O2 Ti1 1.952858 1_555
O2 Ti0 1.953432 1_555
O3 Ti0 1.940010 1_545
O3 Ti1 1.964261 1_555
O4 Ti2 1.905210 1_555
O5 W0 2.004273 1_555
O5 Ti2 2.050385 1_555
O6 Ti0 1.891195 1_555
O6 W0 2.121174 1_555
O7 Ti1 1.925945 1_555
O7 W0 2.119053 1_555
O8 Ti0 1.991624 1_545
O8 Ti1 2.019425 1_555
O8 W1 2.199095 1_554
O9 W0 1.866527 1_555
O10 Ti2 1.956912 1_555
O10 W1 2.059527 1_555
O11 W1 1.976679 1_555
O11 Ti2 2.049508 1_555
O12 Ti2 1.907291 1_555
O13 W1 1.962286 1_554
O13 Ti0 2.122330 1_655
O14 W1 1.967144 1_555
O15 Ti1 2.025603 1_655
O15 W1 2.046587 1_554
