# generated using pymatgen
data_LiV6O7F5
_symmetry_space_group_name_H-M   'P 1'
_cell_length_a   5.66623200
_cell_length_b   5.68737294
_cell_length_c   7.54303825
_cell_angle_alpha   71.74547606
_cell_angle_beta   71.72902413
_cell_angle_gamma   71.72983722
_symmetry_Int_Tables_number   1
_chemical_formula_structural   LiV6O7F5
_chemical_formula_sum   'Li1 V6 O7 F5'
_cell_volume   212.87141798
_cell_formula_units_Z   1
loop_
 _symmetry_equiv_pos_site_id
 _symmetry_equiv_pos_as_xyz
  1  'x, y, z'
loop_
 _atom_site_type_symbol
 _atom_site_label
 _atom_site_symmetry_multiplicity
 _atom_site_fract_x
 _atom_site_fract_y
 _atom_site_fract_z
 _atom_site_occupancy
  Li  Li0  1  0.57343200  0.06127500  0.43076200  1
  V  V0  1  0.00146800  0.00474000  0.00081800  1
  V  V1  1  0.29669700  0.32215100  0.17295300  1
  V  V2  1  0.64881300  0.63514600  0.30831300  1
  V  V3  1  0.33308600  0.34952400  0.67701800  1
  V  V4  1  0.01672100  0.99628500  0.50316800  1
  V  V5  1  0.69624000  0.69683100  0.82912200  1
  O  O0  1  0.78101700  0.77865400  0.02733900  1
  O  O1  1  0.42357500  0.41397700  0.36858300  1
  O  O2  1  0.36980900  0.95250400  0.33648800  1
  O  O3  1  0.95476400  0.35160500  0.33282000  1
  O  O4  1  0.04496900  0.64741900  0.66837200  1
  O  O5  1  0.64506300  0.04806000  0.65871500  1
  O  O6  1  0.22589400  0.22567700  0.96619000  1
  F  F0  1  0.89469900  0.89192400  0.30088400  1
  F  F1  1  0.10759200  0.10749000  0.70442200  1
  F  F2  1  0.57482700  0.58117400  0.63460200  1
  F  F3  1  0.30754700  0.70040400  0.99433900  1
  F  F4  1  0.69219700  0.30904200  0.99953900  1
loop_
_geom_bond_atom_site_label_1
_geom_bond_atom_site_label_2
_geom_bond_distance
_geom_bond_site_symmetry_2
Li0 O2 1.859336 1_545
Li0 O5 1.861297 1_555
Li0 O1 1.886044 1_555
O0 V5 1.925929 1_554
O0 V0 1.985683 1_665
O0 V2 2.005822 1_555
O1 V2 1.924118 1_555
O1 V1 2.085788 1_555
O1 V3 2.155373 1_555
O2 V4 1.987967 1_555
O2 V2 2.010662 1_555
O2 V1 2.064635 1_565
O3 V1 1.922008 1_655
O3 V2 1.975185 1_555
O3 V4 2.017272 1_645
O4 V3 1.950181 1_555
O4 V5 1.953641 1_455
O4 V4 1.972875 1_555
O5 V5 1.997134 1_545
O5 V4 2.043651 1_645
O5 V3 2.044143 1_555
O6 V0 1.962709 1_556
O6 V1 1.990193 1_556
O6 V3 2.024315 1_555
F0 Li0 1.890714 1_565
F0 V0 2.091814 1_665
F0 V4 2.155149 1_655
F0 V2 2.291842 1_555
F1 V0 2.064079 1_556
F1 V4 2.065295 1_545
F1 V3 2.080626 1_555
F2 V3 2.075330 1_555
F2 V5 2.140129 1_555
F2 V2 2.299556 1_555
F3 V0 2.030724 1_566
F3 V1 2.159198 1_556
F3 V5 2.161246 1_555
F4 V0 2.040787 1_656
F4 V5 2.180428 1_555
F4 V1 2.203851 1_556
