# generated using pymatgen
data_Li2Mn(CO3)2
_symmetry_space_group_name_H-M   'P 1'
_cell_length_a   5.16871128
_cell_length_b   6.80829013
_cell_length_c   7.95884851
_cell_angle_alpha   89.42458018
_cell_angle_beta   91.36343489
_cell_angle_gamma   68.96684052
_symmetry_Int_Tables_number   1
_chemical_formula_structural   Li2Mn(CO3)2
_chemical_formula_sum   'Li4 Mn2 C4 O12'
_cell_volume   261.28629140
_cell_formula_units_Z   2
loop_
 _symmetry_equiv_pos_site_id
 _symmetry_equiv_pos_as_xyz
  1  'x, y, z'
loop_
 _atom_site_type_symbol
 _atom_site_label
 _atom_site_symmetry_multiplicity
 _atom_site_fract_x
 _atom_site_fract_y
 _atom_site_fract_z
 _atom_site_occupancy
  Li  Li0  1  0.26127600  0.07433700  0.41950900  1
  Li  Li1  1  0.35193100  0.27693200  0.93059900  1
  Li  Li2  1  0.64226400  0.72478900  0.07306800  1
  Li  Li3  1  0.86255100  0.74074400  0.58449700  1
  Mn  Mn0  1  0.99408400  0.99292500  0.99075100  1
  Mn  Mn1  1  0.50145100  0.49211900  0.49889800  1
  C  C0  1  0.70204100  0.13638400  0.25882500  1
  C  C1  1  0.80823600  0.36968300  0.77134800  1
  C  C2  1  0.17919800  0.65187700  0.23969600  1
  C  C3  1  0.31079000  0.86338600  0.72981000  1
  O  O0  1  0.96370400  0.10740800  0.25894300  1
  O  O1  1  0.58683600  0.10413600  0.11870700  1
  O  O2  1  0.55689800  0.18978800  0.39263100  1
  O  O3  1  0.55326700  0.37517600  0.76627900  1
  O  O4  1  0.96720000  0.29936100  0.90345900  1
  O  O5  1  0.07929800  0.62389100  0.38162200  1
  O  O6  1  0.89750800  0.43591100  0.63901200  1
  O  O7  1  0.44047000  0.63224400  0.23828500  1
  O  O8  1  0.02946100  0.69374100  0.10162600  1
  O  O9  1  0.44480900  0.83136400  0.58964600  1
  O  O10  1  0.42810600  0.88356400  0.87146300  1
  O  O11  1  0.05172100  0.88148200  0.72968500  1
loop_
_geom_bond_atom_site_label_1
_geom_bond_atom_site_label_2
_geom_bond_distance
_geom_bond_site_symmetry_2
Li0 O0 1.923933 1_455
Li0 O2 1.967900 1_555
Li0 O9 2.058493 1_545
Li1 O4 1.945581 1_455
Li1 O3 1.946154 1_555
Li1 O1 1.988058 1_556
Li1 O10 2.612723 1_545
Li2 O7 1.932431 1_555
Li2 O8 1.943014 1_655
Li2 O10 1.997521 1_554
Li2 O1 2.525281 1_565
Li3 O11 1.962236 1_655
Li3 O5 1.991787 1_655
Li3 O9 2.023092 1_555
Li3 O6 2.058435 1_555
Mn0 O4 2.147753 1_565
Mn0 O8 2.156405 1_656
Mn0 O11 2.209183 1_655
Mn0 O1 2.239342 1_566
Mn0 O0 2.269311 1_566
Mn0 O10 2.324835 1_655
Mn1 O2 2.158088 1_555
Mn1 O6 2.213842 1_555
Mn1 O5 2.217708 1_555
Mn1 O3 2.240534 1_555
Mn1 O7 2.241652 1_555
Mn1 O9 2.345241 1_555
C0 O0 1.294791 1_555
C0 O2 1.295802 1_555
C0 O1 1.309031 1_555
C1 O4 1.294707 1_555
C1 O6 1.299412 1_555
C1 O3 1.304548 1_555
C2 O5 1.293408 1_555
C2 O8 1.297173 1_555
C2 O7 1.308762 1_555
C3 O10 1.299213 1_555
C3 O11 1.299906 1_555
C3 O9 1.305781 1_555
