# generated using pymatgen
data_Li6AlCrO6
_symmetry_space_group_name_H-M   'P 1'
_cell_length_a   5.38495626
_cell_length_b   5.38495626
_cell_length_c   9.73250300
_cell_angle_alpha   90.00000000
_cell_angle_beta   90.00000000
_cell_angle_gamma   120.00000325
_symmetry_Int_Tables_number   1
_chemical_formula_structural   Li6AlCrO6
_chemical_formula_sum   'Li12 Al2 Cr2 O12'
_cell_volume   244.41031151
_cell_formula_units_Z   2
loop_
 _symmetry_equiv_pos_site_id
 _symmetry_equiv_pos_as_xyz
  1  'x, y, z'
loop_
 _atom_site_type_symbol
 _atom_site_label
 _atom_site_symmetry_multiplicity
 _atom_site_fract_x
 _atom_site_fract_y
 _atom_site_fract_z
 _atom_site_occupancy
  Li  Li0  1  0.93739900  0.62117100  0.42296000  1
  Li  Li1  1  0.06260100  0.68377100  0.92296000  1
  Li  Li2  1  0.62117100  0.93739900  0.92296000  1
  Li  Li3  1  0.93739900  0.31622900  0.07704000  1
  Li  Li4  1  0.68377100  0.06260100  0.42296000  1
  Li  Li5  1  0.06260100  0.37882900  0.57704000  1
  Li  Li6  1  0.62117100  0.68377100  0.57704000  1
  Li  Li7  1  0.37882900  0.31622900  0.42296000  1
  Li  Li8  1  0.31622900  0.37882900  0.92296000  1
  Li  Li9  1  0.68377100  0.62117100  0.07704000  1
  Li  Li10  1  0.37882900  0.06260100  0.07704000  1
  Li  Li11  1  0.31622900  0.93739900  0.57704000  1
  Al  Al0  1  0.66666700  0.33333300  0.75000000  1
  Al  Al1  1  0.33333300  0.66666700  0.25000000  1
  Cr  Cr0  1  0.00000000  0.00000000  0.25000000  1
  Cr  Cr1  1  0.00000000  0.00000000  0.75000000  1
  O  O0  1  0.05344900  0.70499800  0.13450600  1
  O  O1  1  0.94655100  0.65154900  0.63450600  1
  O  O2  1  0.65154900  0.94655100  0.13450600  1
  O  O3  1  0.05344900  0.34845100  0.36549400  1
  O  O4  1  0.94655100  0.29500200  0.86549400  1
  O  O5  1  0.70499800  0.05344900  0.63450600  1
  O  O6  1  0.34845100  0.29500200  0.63450600  1
  O  O7  1  0.70499800  0.65154900  0.86549400  1
  O  O8  1  0.29500200  0.34845100  0.13450600  1
  O  O9  1  0.65154900  0.70499800  0.36549400  1
  O  O10  1  0.29500200  0.94655100  0.36549400  1
  O  O11  1  0.34845100  0.05344900  0.86549400  1
loop_
_geom_bond_atom_site_label_1
_geom_bond_atom_site_label_2
_geom_bond_distance
_geom_bond_site_symmetry_2
Li0 O9 1.892307 1_555
Li0 O10 1.927952 1_655
Li0 O3 1.943664 1_655
Li0 O1 2.063996 1_555
Li1 O11 1.892310 1_565
Li1 O7 1.927954 1_455
Li1 O4 1.943659 1_455
Li1 O0 2.063997 1_556
Li2 O7 1.892307 1_555
Li2 O4 1.927952 1_565
Li2 O11 1.943664 1_565
Li2 O2 2.063996 1_556
Li3 O2 1.892310 1_545
Li3 O8 1.927954 1_655
Li3 O0 1.943659 1_655
Li3 O4 2.063997 1_554
Li4 O3 1.892310 1_655
Li4 O9 1.927954 1_545
Li4 O10 1.943659 1_545
Li4 O5 2.063997 1_555
Li5 O6 1.892307 1_555
Li5 O5 1.927952 1_455
Li5 O1 1.943664 1_455
Li5 O3 2.063996 1_555
Li6 O5 1.892312 1_565
Li6 O1 1.927949 1_555
Li6 O6 1.943660 1_555
Li6 O9 2.063996 1_555
Li7 O10 1.892312 1_545
Li7 O3 1.927949 1_555
Li7 O9 1.943660 1_555
Li7 O6 2.063996 1_555
Li8 O4 1.892312 1_455
Li8 O11 1.927949 1_555
Li8 O7 1.943660 1_555
Li8 O8 2.063996 1_556
Li9 O0 1.892312 1_655
Li9 O2 1.927949 1_555
Li9 O8 1.943660 1_555
Li9 O7 2.063996 1_554
Li10 O8 1.892307 1_555
Li10 O0 1.927952 1_545
Li10 O2 1.943664 1_545
Li10 O11 2.063996 1_554
Li11 O1 1.892310 1_455
Li11 O6 1.927954 1_565
Li11 O5 1.943659 1_565
Li11 O10 2.063997 1_555
Al0 O4 1.971984 1_555
Al0 O5 1.971984 1_555
Al0 O1 1.971986 1_555
Al0 O11 1.971986 1_555
Al0 O7 1.971988 1_555
Al0 O6 1.971988 1_555
Al1 O10 1.971984 1_555
Al1 O0 1.971984 1_555
Al1 O2 1.971986 1_555
Al1 O3 1.971986 1_555
Al1 O9 1.971988 1_555
Al1 O8 1.971988 1_555
Cr0 O8 2.080170 1_555
Cr0 O9 2.080170 1_445
Cr0 O3 2.080170 1_555
Cr0 O2 2.080170 1_445
Cr0 O0 2.080170 1_545
Cr0 O10 2.080170 1_545
Cr1 O6 2.080170 1_555
Cr1 O7 2.080170 1_445
Cr1 O11 2.080170 1_555
Cr1 O1 2.080170 1_445
Cr1 O5 2.080170 1_455
Cr1 O4 2.080170 1_455
