# generated using pymatgen
data_Cr3Ni(PO4)6
_symmetry_space_group_name_H-M   'P 1'
_cell_length_a   8.79287082
_cell_length_b   8.79287082
_cell_length_c   8.79287063
_cell_angle_alpha   58.42366430
_cell_angle_beta   58.42366430
_cell_angle_gamma   58.42366526
_symmetry_Int_Tables_number   1
_chemical_formula_structural   Cr3Ni(PO4)6
_chemical_formula_sum   'Cr3 Ni1 P6 O24'
_cell_volume   463.36168731
_cell_formula_units_Z   1
loop_
 _symmetry_equiv_pos_site_id
 _symmetry_equiv_pos_as_xyz
  1  'x, y, z'
loop_
 _atom_site_type_symbol
 _atom_site_label
 _atom_site_symmetry_multiplicity
 _atom_site_fract_x
 _atom_site_fract_y
 _atom_site_fract_z
 _atom_site_occupancy
  Cr  Cr0  1  0.14240200  0.14240200  0.14240200  1
  Cr  Cr1  1  0.35783600  0.35783600  0.35783600  1
  Cr  Cr2  1  0.64266900  0.64266900  0.64266900  1
  Ni  Ni0  1  0.85638200  0.85638200  0.85638200  1
  P  P0  1  0.46575300  0.75125400  0.03306200  1
  P  P1  1  0.75125400  0.03306200  0.46575300  1
  P  P2  1  0.03306200  0.46575300  0.75125400  1
  P  P3  1  0.96571400  0.53219200  0.25193900  1
  P  P4  1  0.25193900  0.96571400  0.53219200  1
  P  P5  1  0.53219200  0.25193900  0.96571400  1
  O  O0  1  0.50146600  0.28921500  0.13411000  1
  O  O1  1  0.13411000  0.50146600  0.28921500  1
  O  O2  1  0.28459500  0.92714100  0.05621300  1
  O  O3  1  0.28921500  0.13411000  0.50146600  1
  O  O4  1  0.42576700  0.58229200  0.21920100  1
  O  O5  1  0.63919700  0.76183200  0.02207500  1
  O  O6  1  0.92714100  0.05621300  0.28459500  1
  O  O7  1  0.58229200  0.21920100  0.42576700  1
  O  O8  1  0.21920100  0.42576700  0.58229200  1
  O  O9  1  0.99081100  0.36274800  0.22056500  1
  O  O10  1  0.94919200  0.71399600  0.07818800  1
  O  O11  1  0.22056500  0.99081100  0.36274800  1
  O  O12  1  0.76183200  0.02207500  0.63919700  1
  O  O13  1  0.05621300  0.28459500  0.92714100  1
  O  O14  1  0.02207500  0.63919700  0.76183200  1
  O  O15  1  0.78042400  0.56180400  0.42333600  1
  O  O16  1  0.42333600  0.78042400  0.56180400  1
  O  O17  1  0.07818800  0.94919200  0.71399600  1
  O  O18  1  0.36274800  0.22056500  0.99081100  1
  O  O19  1  0.56180400  0.42333600  0.78042400  1
  O  O20  1  0.72259100  0.86077300  0.49326600  1
  O  O21  1  0.71399600  0.07818800  0.94919200  1
  O  O22  1  0.86077300  0.49326600  0.72259100  1
  O  O23  1  0.49326600  0.72259100  0.86077300  1
loop_
_geom_bond_atom_site_label_1
_geom_bond_atom_site_label_2
_geom_bond_distance
_geom_bond_site_symmetry_2
Cr0 O11 1.932201 1_545
Cr0 O18 1.932201 1_554
Cr0 O9 1.932201 1_455
Cr0 O13 1.936920 1_554
Cr0 O6 1.936920 1_455
Cr0 O2 1.936920 1_545
Cr1 O0 1.916264 1_555
Cr1 O3 1.916264 1_555
Cr1 O1 1.916264 1_555
Cr1 O8 1.921035 1_555
Cr1 O4 1.921035 1_555
Cr1 O7 1.921035 1_555
Cr2 O23 1.924469 1_555
Cr2 O20 1.924469 1_555
Cr2 O22 1.924469 1_555
Cr2 O15 1.944175 1_555
Cr2 O19 1.944175 1_555
Cr2 O16 1.944175 1_555
Ni0 O12 1.985220 1_565
Ni0 O5 1.985220 1_556
Ni0 O14 1.985220 1_655
Ni0 O10 2.019105 1_556
Ni0 O17 2.019105 1_655
Ni0 O21 2.019105 1_565
O0 P5 1.539291 1_554
O1 P3 1.539291 1_455
O2 P0 1.542972 1_555
O3 P4 1.539291 1_545
O4 P0 1.551598 1_555
O5 P0 1.525998 1_555
O6 P1 1.542971 1_555
O7 P1 1.551598 1_555
O8 P2 1.551598 1_555
O9 P3 1.538494 1_555
O10 P3 1.530414 1_555
O11 P4 1.538494 1_555
O12 P1 1.525998 1_555
O13 P2 1.542971 1_555
O14 P2 1.525998 1_555
O15 P3 1.545547 1_555
O16 P4 1.545547 1_555
O17 P4 1.530414 1_555
O18 P5 1.538494 1_555
O19 P5 1.545547 1_555
O20 P1 1.539221 1_565
O21 P5 1.530414 1_555
O22 P2 1.539221 1_655
O23 P0 1.539221 1_556
