# generated using pymatgen
data_ZrH14C2(N4F3)2
_symmetry_space_group_name_H-M   'P 1'
_cell_length_a   6.46430800
_cell_length_b   6.44958500
_cell_length_c   14.75295458
_cell_angle_alpha   81.45604672
_cell_angle_beta   90.00000000
_cell_angle_gamma   90.00000000
_symmetry_Int_Tables_number   1
_chemical_formula_structural   ZrH14C2(N4F3)2
_chemical_formula_sum   'Zr2 H28 C4 N16 F12'
_cell_volume   608.25565147
_cell_formula_units_Z   2
loop_
 _symmetry_equiv_pos_site_id
 _symmetry_equiv_pos_as_xyz
  1  'x, y, z'
loop_
 _atom_site_type_symbol
 _atom_site_label
 _atom_site_symmetry_multiplicity
 _atom_site_fract_x
 _atom_site_fract_y
 _atom_site_fract_z
 _atom_site_occupancy
  Zr  Zr0  1  0.50000000  0.00000000  0.50000000  1
  Zr  Zr1  1  0.00000000  0.00000000  0.00000000  1
  H  H0  1  0.49360000  0.00164500  0.27031900  1
  H  H1  1  0.99360000  0.99835500  0.22968100  1
  H  H2  1  0.50640000  0.99835500  0.72968100  1
  H  H3  1  0.00640000  0.00164500  0.77031900  1
  H  H4  1  0.49495800  0.03639100  0.15068500  1
  H  H5  1  0.99495800  0.96360900  0.34931500  1
  H  H6  1  0.50504200  0.96360900  0.84931500  1
  H  H7  1  0.00504200  0.03639100  0.65068500  1
  H  H8  1  0.03738500  0.56026900  0.21457800  1
  H  H9  1  0.53738500  0.43973100  0.28542200  1
  H  H10  1  0.96261500  0.43973100  0.78542200  1
  H  H11  1  0.46261500  0.56026900  0.71457800  1
  H  H12  1  0.04268300  0.34833400  0.15154500  1
  H  H13  1  0.54268300  0.65166600  0.34845500  1
  H  H14  1  0.95731700  0.65166600  0.84845500  1
  H  H15  1  0.45731700  0.34833400  0.65154500  1
  H  H16  1  0.97607700  0.23910400  0.42974700  1
  H  H17  1  0.47607700  0.76089600  0.07025300  1
  H  H18  1  0.02392300  0.76089600  0.57025300  1
  H  H19  1  0.52392300  0.23910400  0.92974700  1
  H  H20  1  0.14041000  0.59228300  0.41092800  1
  H  H21  1  0.64041000  0.40771700  0.08907200  1
  H  H22  1  0.85959000  0.40771700  0.58907200  1
  H  H23  1  0.35959000  0.59228300  0.91092800  1
  H  H24  1  0.88285600  0.59658700  0.40682800  1
  H  H25  1  0.38285600  0.40341300  0.09317200  1
  H  H26  1  0.11714400  0.40341300  0.59317200  1
  H  H27  1  0.61714400  0.59658700  0.90682800  1
  C  C0  1  0.51104800  0.73083400  0.20985800  1
  C  C1  1  0.01104800  0.26916600  0.29014200  1
  C  C2  1  0.48895200  0.26916600  0.79014200  1
  C  C3  1  0.98895200  0.73083400  0.70985800  1
  N  N0  1  0.49308800  0.93694400  0.21076100  1
  N  N1  1  0.99308800  0.06305600  0.28923900  1
  N  N2  1  0.50691200  0.06305600  0.78923900  1
  N  N3  1  0.00691200  0.93694400  0.71076100  1
  N  N4  1  0.02592900  0.40294300  0.21247300  1
  N  N5  1  0.52592900  0.59705700  0.28752700  1
  N  N6  1  0.97407100  0.59705700  0.78752700  1
  N  N7  1  0.47407100  0.40294300  0.71247300  1
  N  N8  1  0.01313200  0.33972200  0.37161400  1
  N  N9  1  0.51313200  0.66027800  0.12838600  1
  N  N10  1  0.98686800  0.66027800  0.62838600  1
  N  N11  1  0.48686800  0.33972200  0.87161400  1
  N  N12  1  0.01450500  0.55614100  0.37449600  1
  N  N13  1  0.51450500  0.44385900  0.12550400  1
  N  N14  1  0.98549500  0.44385900  0.62550400  1
  N  N15  1  0.48549500  0.55614100  0.87449600  1
  F  F0  1  0.50516400  0.14529400  0.36712600  1
  F  F1  1  0.00516400  0.85470600  0.13287400  1
  F  F2  1  0.49483600  0.85470600  0.63287400  1
  F  F3  1  0.99483600  0.14529400  0.86712600  1
  F  F4  1  0.21210600  0.87884000  0.47839300  1
  F  F5  1  0.71210600  0.12116000  0.02160700  1
  F  F6  1  0.78789400  0.12116000  0.52160700  1
  F  F7  1  0.28789400  0.87884000  0.97839300  1
  F  F8  1  0.13604500  0.25098700  0.04701400  1
  F  F9  1  0.63604500  0.74901300  0.45298600  1
  F  F10  1  0.86395500  0.74901300  0.95298600  1
  F  F11  1  0.36395500  0.25098700  0.54701400  1
loop_
_geom_bond_atom_site_label_1
_geom_bond_atom_site_label_2
_geom_bond_distance
_geom_bond_site_symmetry_2
H0 N0 1.027195 1_545
H1 N1 1.027195 1_565
H2 N2 1.027195 1_565
H3 N3 1.027195 1_545
H4 N0 1.013974 1_545
H5 N1 1.013974 1_565
H6 N2 1.013974 1_565
H7 N3 1.013974 1_545
H8 N4 1.022449 1_555
H9 N5 1.022449 1_555
H10 N6 1.022449 1_555
H11 N7 1.022449 1_555
H12 N4 1.018730 1_555
H13 N5 1.018730 1_555
H14 N6 1.018730 1_555
H15 N7 1.018730 1_555
H16 N8 1.024045 1_655
H17 N9 1.024045 1_555
H18 N10 1.024045 1_455
H19 N11 1.024045 1_555
H20 N12 1.021206 1_555
H21 N13 1.021206 1_555
H22 N14 1.021206 1_555
H23 N15 1.021206 1_555
H24 N12 1.027996 1_655
H25 N13 1.027996 1_555
H26 N14 1.027996 1_455
H27 N15 1.027996 1_555
C0 N5 1.331500 1_555
C0 N0 1.336421 1_555
C0 N9 1.347022 1_555
C1 N4 1.331500 1_555
C1 N1 1.336421 1_455
C1 N8 1.347022 1_555
C2 N7 1.331500 1_555
C2 N2 1.336421 1_555
C2 N11 1.347022 1_555
C3 N6 1.331500 1_555
C3 N3 1.336421 1_655
C3 N10 1.347022 1_555
N10 N14 1.402788 1_555
N11 N15 1.402788 1_555
N12 N8 1.402788 1_555
N13 N9 1.402788 1_555
F0 Zr0 2.043559 1_555
F1 Zr1 2.043559 1_565
F2 Zr0 2.043559 1_565
F3 Zr1 2.043559 1_656
F4 Zr0 2.061484 1_565
F5 Zr1 2.061484 1_655
F6 Zr0 2.061484 1_555
F7 Zr1 2.061484 1_566
F8 Zr1 2.051460 1_555
F9 Zr0 2.051460 1_565
F10 Zr1 2.051460 1_666
F11 Zr0 2.051460 1_555
