# generated using pymatgen
data_Li4CrCo2Ni3(PO4)6
_symmetry_space_group_name_H-M   'P 1'
_cell_length_a   8.35417600
_cell_length_b   8.47199399
_cell_length_c   8.47245783
_cell_angle_alpha   62.99482266
_cell_angle_beta   63.22503687
_cell_angle_gamma   63.19189109
_symmetry_Int_Tables_number   1
_chemical_formula_structural   Li4CrCo2Ni3(PO4)6
_chemical_formula_sum   'Li4 Cr1 Co2 Ni3 P6 O24'
_cell_volume   453.51420507
_cell_formula_units_Z   1
loop_
 _symmetry_equiv_pos_site_id
 _symmetry_equiv_pos_as_xyz
  1  'x, y, z'
loop_
 _atom_site_type_symbol
 _atom_site_label
 _atom_site_symmetry_multiplicity
 _atom_site_fract_x
 _atom_site_fract_y
 _atom_site_fract_z
 _atom_site_occupancy
  Li  Li0  1  0.25188700  0.64552600  0.85342900  1
  Li  Li1  1  0.72939300  0.35439500  0.14866000  1
  Li  Li2  1  0.35639700  0.14633600  0.73009000  1
  Li  Li3  1  0.14671000  0.72796100  0.35558100  1
  Cr  Cr0  1  0.14405700  0.14415200  0.14725200  1
  Co  Co0  1  0.98650000  0.00346800  0.99745600  1
  Co  Co1  1  0.51051000  0.50207700  0.49586400  1
  Ni  Ni0  1  0.85798400  0.85459200  0.85401200  1
  Ni  Ni1  1  0.64244700  0.64531800  0.64426200  1
  Ni  Ni2  1  0.35425400  0.35062000  0.35374800  1
  P  P0  1  0.94726700  0.55045300  0.25265600  1
  P  P1  1  0.55364600  0.24930700  0.95080000  1
  P  P2  1  0.25091700  0.95027900  0.55092800  1
  P  P3  1  0.75179900  0.04626100  0.45527900  1
  P  P4  1  0.44766600  0.75038300  0.04493100  1
  P  P5  1  0.05328200  0.45570800  0.75298800  1
  O  O0  1  0.88893600  0.49871600  0.69494000  1
  O  O1  1  0.68687400  0.89189900  0.48589600  1
  O  O2  1  0.94647000  0.73810300  0.08804200  1
  O  O3  1  0.45557100  0.69060200  0.89602600  1
  O  O4  1  0.98764600  0.38800700  0.18855900  1
  O  O5  1  0.75032100  0.56657800  0.40227200  1
  O  O6  1  0.74912000  0.09600200  0.92887100  1
  O  O7  1  0.54843600  0.41085500  0.76289500  1
  O  O8  1  0.82125800  0.01346300  0.60695800  1
  O  O9  1  0.39847800  0.75045400  0.56989600  1
  O  O10  1  0.90464300  0.07376600  0.25137900  1
  O  O11  1  0.61037000  0.81342000  0.99643800  1
  O  O12  1  0.39166200  0.17927400  0.99384600  1
  O  O13  1  0.10041400  0.92620800  0.74953400  1
  O  O14  1  0.59903500  0.24681000  0.43196000  1
  O  O15  1  0.18464800  0.98885600  0.39077100  1
  O  O16  1  0.43247900  0.59651900  0.24358100  1
  O  O17  1  0.24472700  0.90704300  0.07744500  1
  O  O18  1  0.25284000  0.42792300  0.59684900  1
  O  O19  1  0.04043900  0.60346800  0.81736500  1
  O  O20  1  0.52716200  0.31428000  0.10568200  1
  O  O21  1  0.07305000  0.25328300  0.90762900  1
  O  O22  1  0.31894400  0.10313900  0.52471000  1
  O  O23  1  0.10176000  0.52149900  0.32352100  1
loop_
_geom_bond_atom_site_label_1
_geom_bond_atom_site_label_2
_geom_bond_distance
_geom_bond_site_symmetry_2
Li0 O13 2.102184 1_555
Li0 O3 2.106222 1_555
Li0 O9 2.110161 1_555
Li0 O19 2.119827 1_555
Li0 O7 2.430771 1_555
Li0 O2 2.473395 1_456
Li1 O20 2.070500 1_555
Li1 O14 2.081204 1_555
Li1 O10 2.163927 1_555
Li1 O16 2.473566 1_555
Li1 O4 2.479681 1_555
Li2 O18 2.070397 1_555
Li2 O22 2.105188 1_555
Li2 O21 2.186759 1_555
Li2 O14 2.490847 1_555
Li2 O12 2.528239 1_555
Li3 O16 2.088193 1_555
Li3 O23 2.095269 1_555
Li3 O17 2.158860 1_555
Li3 O18 2.511423 1_555
Li3 O15 2.527895 1_555
Cr0 O12 1.959168 1_554
Cr0 O15 1.966106 1_545
Cr0 O4 1.976764 1_455
Cr0 O10 2.035334 1_455
Cr0 O17 2.049205 1_545
Cr0 O21 2.052836 1_554
Co0 O6 2.026625 1_555
Co0 O13 2.152191 1_645
Co0 O2 2.152930 1_546
Co0 O10 2.218413 1_556
Co0 O21 2.236755 1_655
Co0 O17 2.237252 1_646
Co1 O5 2.025776 1_555
Co1 O9 2.142546 1_555
Co1 O7 2.157144 1_555
Co1 O14 2.185620 1_555
Co1 O18 2.198362 1_555
Co1 O16 2.205827 1_555
Ni0 O11 1.968892 1_555
Ni0 O8 1.983595 1_565
Ni0 O19 2.048047 1_655
Ni0 O13 2.063723 1_655
Ni0 O2 2.082649 1_556
Ni0 O6 2.095912 1_565
Ni1 O0 1.993156 1_555
Ni1 O1 2.001826 1_555
Ni1 O3 2.082550 1_555
Ni1 O9 2.086690 1_555
Ni1 O7 2.110823 1_555
Ni1 O5 2.120321 1_555
Ni2 O22 1.998996 1_555
Ni2 O23 2.001600 1_555
Ni2 O20 2.012412 1_555
Ni2 O14 2.112764 1_555
Ni2 O18 2.131011 1_555
Ni2 O16 2.133262 1_555
O0 P5 1.501365 1_655
O1 P3 1.508866 1_565
O2 P0 1.567743 1_555
O3 P4 1.525616 1_556
O4 P0 1.548440 1_555
O5 P0 1.551776 1_555
O6 P1 1.555897 1_555
O7 P1 1.561899 1_555
O8 P3 1.505834 1_555
O9 P2 1.568582 1_555
O10 P3 1.607636 1_555
O11 P4 1.501316 1_556
O12 P1 1.548986 1_555
O13 P2 1.570781 1_555
O14 P3 1.587762 1_555
O15 P2 1.537999 1_555
O16 P4 1.585045 1_555
O17 P4 1.610382 1_555
O18 P5 1.589517 1_555
O19 P5 1.523894 1_555
O20 P1 1.535718 1_554
O21 P5 1.607445 1_555
O22 P2 1.529149 1_545
O23 P0 1.537959 1_455
