# generated using pymatgen
data_KCa4Si8H16O29
_symmetry_space_group_name_H-M   'P 1'
_cell_length_a   9.05808000
_cell_length_b   9.05808000
_cell_length_c   16.07193300
_cell_angle_alpha   90.00000000
_cell_angle_beta   90.00000000
_cell_angle_gamma   90.00000000
_symmetry_Int_Tables_number   1
_chemical_formula_structural   KCa4Si8H16O29
_chemical_formula_sum   'K2 Ca8 Si16 H32 O58'
_cell_volume   1318.68302987
_cell_formula_units_Z   2
loop_
 _symmetry_equiv_pos_site_id
 _symmetry_equiv_pos_as_xyz
  1  'x, y, z'
loop_
 _atom_site_type_symbol
 _atom_site_label
 _atom_site_symmetry_multiplicity
 _atom_site_fract_x
 _atom_site_fract_y
 _atom_site_fract_z
 _atom_site_occupancy
  K  K0  1  0.50000000  0.50000000  0.00000000  1
  K  K1  1  0.00000000  0.00000000  0.50000000  1
  Ca  Ca0  1  0.74504200  0.61055600  0.50000000  1
  Ca  Ca1  1  0.25495800  0.38944400  0.50000000  1
  Ca  Ca2  1  0.75495800  0.11055600  0.00000000  1
  Ca  Ca3  1  0.24504200  0.88944400  0.00000000  1
  Ca  Ca4  1  0.61055600  0.25495800  0.50000000  1
  Ca  Ca5  1  0.38944400  0.74504200  0.50000000  1
  Ca  Ca6  1  0.11055600  0.24504200  0.00000000  1
  Ca  Ca7  1  0.88944400  0.75495800  0.00000000  1
  Si  Si0  1  0.58544200  0.72615700  0.30941400  1
  Si  Si1  1  0.41455800  0.27384300  0.30941400  1
  Si  Si2  1  0.91455800  0.22615700  0.80941400  1
  Si  Si3  1  0.08544200  0.77384300  0.80941400  1
  Si  Si4  1  0.72615700  0.41455800  0.30941400  1
  Si  Si5  1  0.27384300  0.58544200  0.30941400  1
  Si  Si6  1  0.22615700  0.08544200  0.80941400  1
  Si  Si7  1  0.77384300  0.91455800  0.80941400  1
  Si  Si8  1  0.41455800  0.27384300  0.69058600  1
  Si  Si9  1  0.58544200  0.72615700  0.69058600  1
  Si  Si10  1  0.08544200  0.77384300  0.19058600  1
  Si  Si11  1  0.91455800  0.22615700  0.19058600  1
  Si  Si12  1  0.27384300  0.58544200  0.69058600  1
  Si  Si13  1  0.72615700  0.41455800  0.69058600  1
  Si  Si14  1  0.77384300  0.91455800  0.19058600  1
  Si  Si15  1  0.22615700  0.08544200  0.19058600  1
  H  H0  1  0.65959400  0.94785500  0.40897700  1
  H  H1  1  0.34040600  0.05214500  0.40897700  1
  H  H2  1  0.84040600  0.44785500  0.90897700  1
  H  H3  1  0.15959400  0.55214500  0.90897700  1
  H  H4  1  0.94785500  0.34040600  0.40897700  1
  H  H5  1  0.05214500  0.65959400  0.40897700  1
  H  H6  1  0.44785500  0.15959400  0.90897700  1
  H  H7  1  0.55214500  0.84040600  0.90897700  1
  H  H8  1  0.34040600  0.05214500  0.59102300  1
  H  H9  1  0.65959400  0.94785500  0.59102300  1
  H  H10  1  0.15959400  0.55214500  0.09102300  1
  H  H11  1  0.84040600  0.44785500  0.09102300  1
  H  H12  1  0.05214500  0.65959400  0.59102300  1
  H  H13  1  0.94785500  0.34040600  0.59102300  1
  H  H14  1  0.55214500  0.84040600  0.09102300  1
  H  H15  1  0.44785500  0.15959400  0.09102300  1
  H  H16  1  0.92424800  0.71986800  0.35270400  1
  H  H17  1  0.07575200  0.28013200  0.35270400  1
  H  H18  1  0.57575200  0.21986800  0.85270400  1
  H  H19  1  0.42424800  0.78013200  0.85270400  1
  H  H20  1  0.71986800  0.07575200  0.35270400  1
  H  H21  1  0.28013200  0.92424800  0.35270400  1
  H  H22  1  0.21986800  0.42424800  0.85270400  1
  H  H23  1  0.78013200  0.57575200  0.85270400  1
  H  H24  1  0.07575200  0.28013200  0.64729600  1
  H  H25  1  0.92424800  0.71986800  0.64729600  1
  H  H26  1  0.42424800  0.78013200  0.14729600  1
  H  H27  1  0.57575200  0.21986800  0.14729600  1
  H  H28  1  0.28013200  0.92424800  0.64729600  1
  H  H29  1  0.71986800  0.07575200  0.64729600  1
  H  H30  1  0.78013200  0.57575200  0.14729600  1
  H  H31  1  0.21986800  0.42424800  0.14729600  1
  O  O0  1  0.86422700  0.36422700  0.25000000  1
  O  O1  1  0.13577300  0.63577300  0.25000000  1
  O  O2  1  0.63577300  0.86422700  0.75000000  1
  O  O3  1  0.36422700  0.13577300  0.75000000  1
  O  O4  1  0.36422700  0.13577300  0.25000000  1
  O  O5  1  0.63577300  0.86422700  0.25000000  1
  O  O6  1  0.86422700  0.36422700  0.75000000  1
  O  O7  1  0.13577300  0.63577300  0.75000000  1
  O  O8  1  0.68965300  0.58525500  0.28067400  1
  O  O9  1  0.31034700  0.41474500  0.28067400  1
  O  O10  1  0.81034700  0.08525500  0.78067400  1
  O  O11  1  0.18965300  0.91474500  0.78067400  1
  O  O12  1  0.58525500  0.31034700  0.28067400  1
  O  O13  1  0.41474500  0.68965300  0.28067400  1
  O  O14  1  0.08525500  0.18965300  0.78067400  1
  O  O15  1  0.91474500  0.81034700  0.78067400  1
  O  O16  1  0.31034700  0.41474500  0.71932600  1
  O  O17  1  0.68965300  0.58525500  0.71932600  1
  O  O18  1  0.18965300  0.91474500  0.21932600  1
  O  O19  1  0.81034700  0.08525500  0.21932600  1
  O  O20  1  0.41474500  0.68965300  0.71932600  1
  O  O21  1  0.58525500  0.31034700  0.71932600  1
  O  O22  1  0.91474500  0.81034700  0.21932600  1
  O  O23  1  0.08525500  0.18965300  0.21932600  1
  O  O24  1  0.59999800  0.76421900  0.40676800  1
  O  O25  1  0.40000200  0.23578100  0.40676800  1
  O  O26  1  0.90000200  0.26421900  0.90676800  1
  O  O27  1  0.09999800  0.73578100  0.90676800  1
  O  O28  1  0.76421900  0.40000200  0.40676800  1
  O  O29  1  0.23578100  0.59999800  0.40676800  1
  O  O30  1  0.26421900  0.09999800  0.90676800  1
  O  O31  1  0.73578100  0.90000200  0.90676800  1
  O  O32  1  0.40000200  0.23578100  0.59323200  1
  O  O33  1  0.59999800  0.76421900  0.59323200  1
  O  O34  1  0.09999800  0.73578100  0.09323200  1
  O  O35  1  0.90000200  0.26421900  0.09323200  1
  O  O36  1  0.23578100  0.59999800  0.59323200  1
  O  O37  1  0.76421900  0.40000200  0.59323200  1
  O  O38  1  0.73578100  0.90000200  0.09323200  1
  O  O39  1  0.26421900  0.09999800  0.09323200  1
  O  O40  1  0.94971900  0.70289700  0.41083400  1
  O  O41  1  0.05028100  0.29710300  0.41083400  1
  O  O42  1  0.55028100  0.20289700  0.91083400  1
  O  O43  1  0.44971900  0.79710300  0.91083400  1
  O  O44  1  0.70289700  0.05028100  0.41083400  1
  O  O45  1  0.29710300  0.94971900  0.41083400  1
  O  O46  1  0.20289700  0.44971900  0.91083400  1
  O  O47  1  0.79710300  0.55028100  0.91083400  1
  O  O48  1  0.05028100  0.29710300  0.58916600  1
  O  O49  1  0.94971900  0.70289700  0.58916600  1
  O  O50  1  0.44971900  0.79710300  0.08916600  1
  O  O51  1  0.55028100  0.20289700  0.08916600  1
  O  O52  1  0.29710300  0.94971900  0.58916600  1
  O  O53  1  0.70289700  0.05028100  0.58916600  1
  O  O54  1  0.79710300  0.55028100  0.08916600  1
  O  O55  1  0.20289700  0.44971900  0.08916600  1
  O  O56  1  0.50000000  0.50000000  0.50000000  1
  O  O57  1  0.00000000  0.00000000  0.00000000  1
loop_
_geom_bond_atom_site_label_1
_geom_bond_atom_site_label_2
_geom_bond_distance
_geom_bond_site_symmetry_2
K0 O42 3.082789 1_554
K0 O43 3.082789 1_554
K0 O51 3.082789 1_555
K0 O55 3.082789 1_555
K0 O50 3.082789 1_555
K0 O54 3.082789 1_555
K0 O47 3.082789 1_554
K0 O46 3.082789 1_554
K1 O49 3.082789 1_445
K1 O48 3.082789 1_555
K1 O45 3.082789 1_545
K1 O44 3.082789 1_455
K1 O52 3.082789 1_545
K1 O53 3.082789 1_455
K1 O40 3.082789 1_445
K1 O41 3.082789 1_555
Ca0 O33 2.430791 1_555
Ca0 O24 2.430791 1_555
Ca0 O37 2.431646 1_555
Ca0 O28 2.431646 1_555
Ca0 O56 2.435061 1_555
Ca0 O49 2.488082 1_555
Ca0 O40 2.488082 1_555
Ca1 O25 2.430791 1_555
Ca1 O32 2.430791 1_555
Ca1 O29 2.431646 1_555
Ca1 O36 2.431646 1_555
Ca1 O56 2.435061 1_555
Ca1 O48 2.488082 1_555
Ca1 O41 2.488082 1_555
Ca2 O26 2.430791 1_554
Ca2 O35 2.430791 1_555
Ca2 O38 2.431646 1_545
Ca2 O31 2.431646 1_544
Ca2 O57 2.435061 1_655
Ca2 O51 2.488082 1_555
Ca2 O42 2.488082 1_554
Ca3 O27 2.430791 1_554
Ca3 O34 2.430791 1_555
Ca3 O39 2.431646 1_565
Ca3 O30 2.431646 1_564
Ca3 O57 2.435061 1_565
Ca3 O43 2.488082 1_554
Ca3 O50 2.488082 1_555
Ca4 O28 2.430791 1_555
Ca4 O37 2.430791 1_555
Ca4 O25 2.431646 1_555
Ca4 O32 2.431646 1_555
Ca4 O56 2.435061 1_555
Ca4 O53 2.488082 1_555
Ca4 O44 2.488082 1_555
Ca5 O36 2.430791 1_555
Ca5 O29 2.430791 1_555
Ca5 O33 2.431646 1_555
Ca5 O24 2.431646 1_555
Ca5 O56 2.435061 1_555
Ca5 O52 2.488082 1_555
Ca5 O45 2.488082 1_555
Ca6 O30 2.430791 1_554
Ca6 O39 2.430791 1_555
Ca6 O26 2.431646 1_454
Ca6 O35 2.431646 1_455
Ca6 O57 2.435061 1_555
Ca6 O46 2.488082 1_554
Ca6 O55 2.488082 1_555
Ca7 O31 2.430791 1_554
Ca7 O38 2.430791 1_555
Ca7 O34 2.431646 1_655
Ca7 O27 2.431646 1_654
Ca7 O57 2.435061 1_665
Ca7 O47 2.488082 1_554
Ca7 O54 2.488082 1_555
H0 O44 1.007733 1_565
H0 O24 1.749153 1_555
H1 O45 1.007733 1_545
H1 O25 1.749153 1_555
H2 O47 1.007733 1_555
H2 O26 1.749153 1_555
H3 O46 1.007733 1_555
H3 O27 1.749153 1_555
H4 O41 1.007733 1_655
H4 O28 1.749153 1_555
H5 O40 1.007733 1_455
H5 O29 1.749153 1_555
H6 O42 1.007733 1_555
H6 O30 1.749153 1_555
H7 O43 1.007733 1_555
H7 O31 1.749153 1_555
H8 O52 1.007733 1_545
H8 O32 1.749153 1_555
H9 O53 1.007733 1_565
H9 O33 1.749153 1_555
H10 O55 1.007733 1_555
H10 O34 1.749153 1_555
H11 O54 1.007733 1_555
H11 O35 1.749153 1_555
H12 O49 1.007733 1_455
H12 O36 1.749153 1_555
H13 O48 1.007733 1_655
H13 O37 1.749153 1_555
H14 O50 1.007733 1_555
H14 O38 1.749153 1_555
H15 O51 1.007733 1_555
H15 O39 1.749153 1_555
H16 O40 0.974529 1_555
H17 O41 0.974529 1_555
H18 O42 0.974529 1_555
H19 O43 0.974529 1_555
H20 O44 0.974529 1_555
H21 O45 0.974529 1_555
H22 O46 0.974529 1_555
H23 O47 0.974529 1_555
H24 O48 0.974529 1_555
H25 O49 0.974529 1_555
H26 O50 0.974529 1_555
H27 O51 0.974529 1_555
H28 O52 0.974529 1_555
H29 O53 0.974529 1_555
H30 O54 0.974529 1_555
H31 O55 0.974529 1_555
O0 Si4 1.638231 1_555
O0 Si11 1.638231 1_555
O1 Si10 1.638231 1_555
O1 Si5 1.638231 1_555
O2 Si7 1.638231 1_555
O2 Si9 1.638231 1_555
O3 Si8 1.638231 1_555
O3 Si6 1.638231 1_555
O4 Si15 1.638231 1_555
O4 Si1 1.638231 1_555
O5 Si14 1.638231 1_555
O5 Si0 1.638231 1_555
O6 Si13 1.638231 1_555
O6 Si2 1.638231 1_555
O7 Si3 1.638231 1_555
O7 Si12 1.638231 1_555
O8 Si4 1.647236 1_555
O8 Si0 1.653284 1_555
O9 Si5 1.647236 1_555
O9 Si1 1.653284 1_555
O10 Si7 1.647236 1_545
O10 Si2 1.653284 1_555
O11 Si6 1.647236 1_565
O11 Si3 1.653284 1_555
O12 Si1 1.647236 1_555
O12 Si4 1.653284 1_555
O13 Si0 1.647236 1_555
O13 Si5 1.653284 1_555
O14 Si2 1.647236 1_455
O14 Si6 1.653284 1_555
O15 Si3 1.647236 1_655
O15 Si7 1.653284 1_555
O16 Si12 1.647236 1_555
O16 Si8 1.653284 1_555
O17 Si13 1.647236 1_555
O17 Si9 1.653284 1_555
O18 Si15 1.647236 1_565
O18 Si10 1.653284 1_555
O19 Si14 1.647236 1_545
O19 Si11 1.653284 1_555
O20 Si9 1.647236 1_555
O20 Si12 1.653284 1_555
O21 Si8 1.647236 1_555
O21 Si13 1.653284 1_555
O22 Si10 1.647236 1_655
O22 Si14 1.653284 1_555
O23 Si11 1.647236 1_455
O23 Si15 1.653284 1_555
O24 Si0 1.607617 1_555
O25 Si1 1.607617 1_555
O26 Si2 1.607617 1_555
O27 Si3 1.607617 1_555
O28 Si4 1.607617 1_555
O29 Si5 1.607617 1_555
O30 Si6 1.607617 1_555
O31 Si7 1.607617 1_555
O32 Si8 1.607617 1_555
O33 Si9 1.607617 1_555
O34 Si10 1.607617 1_555
O35 Si11 1.607617 1_555
O36 Si12 1.607617 1_555
O37 Si13 1.607617 1_555
O38 Si14 1.607617 1_555
O39 Si15 1.607617 1_555
