# generated using pymatgen
data_V2OF5
_symmetry_space_group_name_H-M   'P 1'
_cell_length_a   5.08916028
_cell_length_b   5.08919199
_cell_length_c   13.24489945
_cell_angle_alpha   89.68781744
_cell_angle_beta   90.01966207
_cell_angle_gamma   60.52386653
_symmetry_Int_Tables_number   1
_chemical_formula_structural   V2OF5
_chemical_formula_sum   'V6 O3 F15'
_cell_volume   298.63014144
_cell_formula_units_Z   3
loop_
 _symmetry_equiv_pos_site_id
 _symmetry_equiv_pos_as_xyz
  1  'x, y, z'
loop_
 _atom_site_type_symbol
 _atom_site_label
 _atom_site_symmetry_multiplicity
 _atom_site_fract_x
 _atom_site_fract_y
 _atom_site_fract_z
 _atom_site_occupancy
  V  V0  1  0.01988826  0.00293446  0.49759130  1
  V  V1  1  0.99124182  0.97370865  0.00607958  1
  V  V2  1  0.67444573  0.66241740  0.16431135  1
  V  V3  1  0.33814721  0.31009084  0.33921000  1
  V  V4  1  0.69085174  0.66984465  0.67336493  1
  V  V5  1  0.31442391  0.34229964  0.83114062  1
  O  O0  1  0.91378802  0.75487701  0.08123181  1
  O  O1  1  0.97853185  0.59011226  0.75259221  1
  O  O2  1  0.26098414  0.09310124  0.41665906  1
  F  F0  1  0.40126466  0.59006620  0.25159711  1
  F  F1  1  0.61498442  0.99106328  0.25125392  1
  F  F2  1  0.72944947  0.94458435  0.58304376  1
  F  F3  1  0.28108128  0.65905862  0.91758760  1
  F  F4  1  0.06701333  0.67719770  0.41519925  1
  F  F5  1  0.37962157  0.00642014  0.74792979  1
  F  F6  1  0.58339809  0.39976336  0.74567890  1
  F  F7  1  0.32836150  0.93912579  0.08619802  1
  F  F8  1  0.67825510  0.27477504  0.41572850  1
  F  F9  1  0.00451738  0.39015388  0.24704659  1
  F  F10  1  0.33909470  0.73455086  0.58428553  1
  F  F11  1  0.67879754  0.05661582  0.90851170  1
  F  F12  1  0.93873975  0.33950718  0.58192368  1
  F  F13  1  0.07543802  0.25714819  0.92208966  1
  F  F14  1  0.71768053  0.34058444  0.07974615  1
loop_
_geom_bond_atom_site_label_1
_geom_bond_atom_site_label_2
_geom_bond_distance
_geom_bond_site_symmetry_2
O0 V1 1.675303 1_555
O0 V2 1.864195 1_555
O1 V4 1.678961 1_555
O1 V5 1.859527 1_655
O2 V3 1.685428 1_555
O2 V0 1.847897 1_555
F0 V2 1.976157 1_555
F0 V3 1.978032 1_555
F1 V2 1.933433 1_555
F1 V3 1.936168 1_565
F2 V4 1.917524 1_555
F2 V0 1.995837 1_665
F3 V5 1.920813 1_555
F3 V1 1.952135 1_456
F4 V0 1.903976 1_565
F4 V3 1.972779 1_555
F5 V5 1.925947 1_555
F5 V4 1.941043 1_545
F6 V5 1.905771 1_555
F6 V4 1.957388 1_555
F7 V2 1.922909 1_555
F7 V1 1.949377 1_455
F8 V0 1.930708 1_655
F8 V3 1.935458 1_555
F9 V2 1.906313 1_455
F9 V3 1.962471 1_555
F10 V0 1.902910 1_565
F10 V4 2.029603 1_555
F11 V1 1.925812 1_546
F11 V5 1.982886 1_555
F12 V0 1.917594 1_655
F12 V4 1.954651 1_555
F13 V5 1.905813 1_555
F13 V1 2.023110 1_446
F14 V2 1.910775 1_555
F14 V1 1.959328 1_545
