# generated using pymatgen
data_Na2CrAsCO7
_symmetry_space_group_name_H-M   'P 1'
_cell_length_a   9.12710451
_cell_length_b   6.74195500
_cell_length_c   5.35750483
_cell_angle_alpha   89.99899231
_cell_angle_beta   87.77110582
_cell_angle_gamma   90.00241664
_symmetry_Int_Tables_number   1
_chemical_formula_structural   Na2CrAsCO7
_chemical_formula_sum   'Na4 Cr2 As2 C2 O14'
_cell_volume   329.42211086
_cell_formula_units_Z   2
loop_
 _symmetry_equiv_pos_site_id
 _symmetry_equiv_pos_as_xyz
  1  'x, y, z'
loop_
 _atom_site_type_symbol
 _atom_site_label
 _atom_site_symmetry_multiplicity
 _atom_site_fract_x
 _atom_site_fract_y
 _atom_site_fract_z
 _atom_site_occupancy
  Na  Na0  1  0.22231800  0.00219700  0.23562800  1
  Na  Na1  1  0.22232000  0.49781900  0.23566400  1
  Na  Na2  1  0.77762200  0.50225300  0.76431200  1
  Na  Na3  1  0.77763300  0.99779800  0.76432800  1
  Cr  Cr0  1  0.34445400  0.74984300  0.78898700  1
  Cr  Cr1  1  0.65530200  0.24998500  0.21119200  1
  As  As0  1  0.42454700  0.24999800  0.71483700  1
  As  As1  1  0.57549600  0.75000500  0.28510900  1
  C  C0  1  0.07867600  0.75000800  0.72229700  1
  C  C1  1  0.92132400  0.25001900  0.27774700  1
  O  O0  1  0.05641000  0.25001300  0.31128500  1
  O  O1  1  0.13689100  0.74998200  0.94388700  1
  O  O2  1  0.17983200  0.74999100  0.53747100  1
  O  O3  1  0.32102500  0.04836800  0.80368700  1
  O  O4  1  0.32101600  0.45161900  0.80370600  1
  O  O5  1  0.40850600  0.74999000  0.14623100  1
  O  O6  1  0.45505300  0.25001300  0.39240300  1
  O  O7  1  0.54503400  0.74997700  0.60755200  1
  O  O8  1  0.59149200  0.25001000  0.85367100  1
  O  O9  1  0.67904200  0.54836300  0.19620200  1
  O  O10  1  0.67903800  0.95166900  0.19621800  1
  O  O11  1  0.82012800  0.25002100  0.46251800  1
  O  O12  1  0.86322300  0.25002300  0.05613800  1
  O  O13  1  0.94361500  0.75003400  0.68892900  1
loop_
_geom_bond_atom_site_label_1
_geom_bond_atom_site_label_2
_geom_bond_distance
_geom_bond_site_symmetry_2
Na0 O0 2.280620 1_555
Na0 O2 2.368072 1_545
Na0 O5 2.438323 1_545
Na0 O1 2.457056 1_544
Na0 O3 2.470121 1_554
Na0 O6 2.854411 1_555
Na1 O0 2.280449 1_555
Na1 O2 2.367843 1_555
Na1 O5 2.438062 1_555
Na1 O1 2.456952 1_554
Na1 O4 2.470217 1_554
Na1 O6 2.854383 1_555
Na2 O13 2.280630 1_555
Na2 O11 2.368109 1_555
Na2 O8 2.437981 1_555
Na2 O12 2.457973 1_556
Na2 O9 2.469457 1_556
Na2 O7 2.853096 1_555
Na3 O13 2.280597 1_555
Na3 O11 2.368046 1_565
Na3 O8 2.438002 1_565
Na3 O12 2.457852 1_566
Na3 O10 2.469498 1_556
Na3 O7 2.853495 1_555
Cr0 O5 2.022858 1_556
Cr0 O4 2.023163 1_555
Cr0 O3 2.025189 1_565
Cr0 O1 2.038467 1_555
Cr0 O7 2.039107 1_555
Cr0 O2 2.056893 1_555
Cr1 O8 2.023560 1_554
Cr1 O10 2.024134 1_545
Cr1 O9 2.024535 1_555
Cr1 O6 2.035921 1_555
Cr1 O12 2.041758 1_555
Cr1 O11 2.057606 1_555
As0 O3 1.712350 1_555
As0 O4 1.712449 1_555
As0 O8 1.721376 1_555
As0 O6 1.739013 1_555
As1 O10 1.712687 1_555
As1 O9 1.712688 1_555
As1 O5 1.721857 1_555
As1 O7 1.739012 1_555
C0 O13 1.252473 1_455
C0 O1 1.319376 1_555
C0 O2 1.327331 1_555
C1 O0 1.252864 1_655
C1 O12 1.319014 1_555
C1 O11 1.327363 1_555
