# generated using pymatgen
data_Li3Ni2SnO6
_symmetry_space_group_name_H-M   'P 1'
_cell_length_a   3.01989187
_cell_length_b   13.14391376
_cell_length_c   6.02255385
_cell_angle_alpha   77.10105625
_cell_angle_beta   90.04026623
_cell_angle_gamma   90.00702320
_symmetry_Int_Tables_number   1
_chemical_formula_structural   Li3Ni2SnO6
_chemical_formula_sum   'Li6 Ni4 Sn2 O12'
_cell_volume   233.02190199
_cell_formula_units_Z   2
loop_
 _symmetry_equiv_pos_site_id
 _symmetry_equiv_pos_as_xyz
  1  'x, y, z'
loop_
 _atom_site_type_symbol
 _atom_site_label
 _atom_site_symmetry_multiplicity
 _atom_site_fract_x
 _atom_site_fract_y
 _atom_site_fract_z
 _atom_site_occupancy
  Li  Li0  1  0.00001400  0.66678000  0.16666700  1
  Li  Li1  1  0.50001400  0.16658200  0.16676500  1
  Li  Li2  1  0.00003700  0.99044100  0.48973800  1
  Li  Li3  1  0.50004100  0.49052100  0.48985700  1
  Li  Li4  1  0.99998400  0.34282500  0.84348200  1
  Li  Li5  1  0.49998400  0.84286300  0.84370000  1
  Ni  Ni0  1  0.49979700  0.49645900  0.01107800  1
  Ni  Ni1  1  0.50019600  0.83690000  0.32199300  1
  Ni  Ni2  1  0.99973600  0.99635100  0.01126000  1
  Ni  Ni3  1  0.00008100  0.33692100  0.32204800  1
  Sn  Sn0  1  0.99999400  0.66674200  0.66667400  1
  Sn  Sn1  1  0.49999400  0.16665800  0.66664800  1
  O  O0  1  0.00027600  0.50458800  0.76870500  1
  O  O1  1  0.50026100  0.00454200  0.76864900  1
  O  O2  1  0.99975600  0.82879100  0.56472300  1
  O  O3  1  0.49975400  0.32874900  0.56464600  1
  O  O4  1  0.00027400  0.83523200  0.09850100  1
  O  O5  1  0.50028100  0.33522200  0.09864200  1
  O  O6  1  0.99975400  0.49810100  0.23456900  1
  O  O7  1  0.49976100  0.99806500  0.23471000  1
  O  O8  1  0.99988400  0.16514600  0.42687700  1
  O  O9  1  0.49988700  0.66516600  0.42688300  1
  O  O10  1  0.00011800  0.16816200  0.90659600  1
  O  O11  1  0.50012300  0.66819300  0.90659100  1
loop_
_geom_bond_atom_site_label_1
_geom_bond_atom_site_label_2
_geom_bond_distance
_geom_bond_site_symmetry_2
Li0 O4 2.159870 1_555
Li0 O6 2.162864 1_455
Li0 O11 2.171715 1_454
Li0 O9 2.171883 1_555
Li0 O11 2.173700 1_554
Li0 O9 2.173943 1_455
Li1 O7 2.160761 1_545
Li1 O5 2.162308 1_555
Li1 O8 2.171781 1_555
Li1 O10 2.171795 1_554
Li1 O10 2.173758 1_654
Li1 O8 2.173854 1_455
Li2 O2 2.071222 1_455
Li2 O7 2.140001 1_455
Li2 O7 2.140331 1_555
Li2 O8 2.242370 1_465
Li2 O1 2.296362 1_565
Li2 O1 2.297054 1_465
Li3 O3 2.072802 1_555
Li3 O6 2.141197 1_455
Li3 O6 2.141482 1_555
Li3 O9 2.241551 1_555
Li3 O0 2.295990 1_655
Li3 O0 2.296639 1_555
Li4 O0 2.072687 1_655
Li4 O5 2.140639 1_656
Li4 O5 2.140880 1_556
Li4 O10 2.241735 1_655
Li4 O3 2.295955 1_555
Li4 O3 2.296623 1_655
Li5 O1 2.071590 1_565
Li5 O4 2.139055 1_656
Li5 O4 2.139323 1_556
Li5 O11 2.241905 1_555
Li5 O2 2.296574 1_455
Li5 O2 2.297251 1_555
Ni0 O6 2.025289 1_555
Ni0 O6 2.026896 1_455
Ni0 O5 2.066519 1_555
Ni0 O0 2.084475 1_554
Ni0 O0 2.088035 1_654
Ni0 O11 2.203866 1_554
Ni1 O4 2.025269 1_555
Ni1 O4 2.027034 1_655
Ni1 O7 2.065558 1_555
Ni1 O2 2.086068 1_555
Ni1 O2 2.089457 1_455
Ni1 O9 2.204005 1_555
Ni2 O7 2.025428 1_655
Ni2 O7 2.026729 1_555
Ni2 O4 2.064966 1_655
Ni2 O1 2.085276 1_564
Ni2 O1 2.089037 1_664
Ni2 O10 2.204899 1_664
Ni3 O5 2.024714 1_455
Ni3 O5 2.027028 1_555
Ni3 O6 2.065779 1_455
Ni3 O3 2.085680 1_555
Ni3 O3 2.088576 1_455
Ni3 O8 2.204501 1_455
O0 Sn0 2.082180 1_455
O1 Sn1 2.081689 1_555
O2 Sn0 2.080826 1_555
O3 Sn1 2.081375 1_555
O8 Sn1 2.091963 1_655
O8 Sn1 2.092952 1_555
O9 Sn0 2.092177 1_555
O9 Sn0 2.093179 1_455
O10 Sn1 2.092714 1_455
O10 Sn1 2.093642 1_555
O11 Sn0 2.092482 1_455
O11 Sn0 2.093388 1_555
