# generated using pymatgen
data_Mo12PH24C6N3O40
_symmetry_space_group_name_H-M   'P 1'
_cell_length_a   12.89555338
_cell_length_b   12.89555338
_cell_length_c   12.89555381
_cell_angle_alpha   81.14966669
_cell_angle_beta   81.14966669
_cell_angle_gamma   81.14966505
_symmetry_Int_Tables_number   1
_chemical_formula_structural   Mo12PH24C6N3O40
_chemical_formula_sum   'Mo24 P2 H48 C12 N6 O80'
_cell_volume   2075.01229435
_cell_formula_units_Z   2
loop_
 _symmetry_equiv_pos_site_id
 _symmetry_equiv_pos_as_xyz
  1  'x, y, z'
loop_
 _atom_site_type_symbol
 _atom_site_label
 _atom_site_symmetry_multiplicity
 _atom_site_fract_x
 _atom_site_fract_y
 _atom_site_fract_z
 _atom_site_occupancy
  Mo  Mo0  1  0.69816800  0.92145800  0.92145800  1
  Mo  Mo1  1  0.92145800  0.69816800  0.92145800  1
  Mo  Mo2  1  0.92145800  0.92145800  0.69816800  1
  Mo  Mo3  1  0.30183200  0.07854200  0.07854200  1
  Mo  Mo4  1  0.07854200  0.30183200  0.07854200  1
  Mo  Mo5  1  0.07854200  0.07854200  0.30183200  1
  Mo  Mo6  1  0.51878300  0.95012600  0.74250800  1
  Mo  Mo7  1  0.74250800  0.51878300  0.95012600  1
  Mo  Mo8  1  0.95012600  0.74250800  0.51878300  1
  Mo  Mo9  1  0.74250800  0.95012600  0.51878300  1
  Mo  Mo10  1  0.51878300  0.74250800  0.95012600  1
  Mo  Mo11  1  0.95012600  0.51878300  0.74250800  1
  Mo  Mo12  1  0.48121700  0.04987400  0.25749200  1
  Mo  Mo13  1  0.25749200  0.48121700  0.04987400  1
  Mo  Mo14  1  0.04987400  0.25749200  0.48121700  1
  Mo  Mo15  1  0.25749200  0.04987400  0.48121700  1
  Mo  Mo16  1  0.48121700  0.25749200  0.04987400  1
  Mo  Mo17  1  0.04987400  0.48121700  0.25749200  1
  Mo  Mo18  1  0.54794500  0.75471200  0.54794500  1
  Mo  Mo19  1  0.54794500  0.54794500  0.75471200  1
  Mo  Mo20  1  0.75471200  0.54794500  0.54794500  1
  Mo  Mo21  1  0.45205500  0.24528800  0.45205500  1
  Mo  Mo22  1  0.45205500  0.45205500  0.24528800  1
  Mo  Mo23  1  0.24528800  0.45205500  0.45205500  1
  P  P0  1  0.73456500  0.73456500  0.73456500  1
  P  P1  1  0.26543500  0.26543500  0.26543500  1
  H  H0  1  0.29088700  0.19210800  0.66867400  1
  H  H1  1  0.66867400  0.29088700  0.19210800  1
  H  H2  1  0.19210800  0.66867400  0.29088700  1
  H  H3  1  0.66867400  0.19210800  0.29088700  1
  H  H4  1  0.29088700  0.66867400  0.19210800  1
  H  H5  1  0.19210800  0.29088700  0.66867400  1
  H  H6  1  0.70911300  0.80789200  0.33132600  1
  H  H7  1  0.33132600  0.70911300  0.80789200  1
  H  H8  1  0.80789200  0.33132600  0.70911300  1
  H  H9  1  0.33132600  0.80789200  0.70911300  1
  H  H10  1  0.70911300  0.33132600  0.80789200  1
  H  H11  1  0.80789200  0.70911300  0.33132600  1
  H  H12  1  0.12751100  0.12751100  0.74043100  1
  H  H13  1  0.74043100  0.12751100  0.12751100  1
  H  H14  1  0.12751100  0.74043100  0.12751100  1
  H  H15  1  0.87248900  0.87248900  0.25956900  1
  H  H16  1  0.25956900  0.87248900  0.87248900  1
  H  H17  1  0.87248900  0.25956900  0.87248900  1
  H  H18  1  0.21626000  0.10898700  0.83883600  1
  H  H19  1  0.83883600  0.21626000  0.10898700  1
  H  H20  1  0.10898700  0.83883600  0.21626000  1
  H  H21  1  0.83883600  0.10898700  0.21626000  1
  H  H22  1  0.21626000  0.83883600  0.10898700  1
  H  H23  1  0.10898700  0.21626000  0.83883600  1
  H  H24  1  0.78374000  0.89101300  0.16116400  1
  H  H25  1  0.16116400  0.78374000  0.89101300  1
  H  H26  1  0.89101300  0.16116400  0.78374000  1
  H  H27  1  0.16116400  0.89101300  0.78374000  1
  H  H28  1  0.78374000  0.16116400  0.89101300  1
  H  H29  1  0.89101300  0.78374000  0.16116400  1
  H  H30  1  0.34600700  0.34600700  0.71484700  1
  H  H31  1  0.71484700  0.34600700  0.34600700  1
  H  H32  1  0.34600700  0.71484700  0.34600700  1
  H  H33  1  0.65399300  0.65399300  0.28515300  1
  H  H34  1  0.28515300  0.65399300  0.65399300  1
  H  H35  1  0.65399300  0.28515300  0.65399300  1
  H  H36  1  0.24021000  0.34738900  0.82347600  1
  H  H37  1  0.82347600  0.24021000  0.34738900  1
  H  H38  1  0.34738900  0.82347600  0.24021000  1
  H  H39  1  0.82347600  0.34738900  0.24021000  1
  H  H40  1  0.24021000  0.82347600  0.34738900  1
  H  H41  1  0.34738900  0.24021000  0.82347600  1
  H  H42  1  0.75979000  0.65261100  0.17652400  1
  H  H43  1  0.17652400  0.75979000  0.65261100  1
  H  H44  1  0.65261100  0.17652400  0.75979000  1
  H  H45  1  0.17652400  0.65261100  0.75979000  1
  H  H46  1  0.75979000  0.17652400  0.65261100  1
  H  H47  1  0.65261100  0.75979000  0.17652400  1
  C  C0  1  0.16722300  0.16722300  0.78939300  1
  C  C1  1  0.78939300  0.16722300  0.16722300  1
  C  C2  1  0.16722300  0.78939300  0.16722300  1
  C  C3  1  0.83277700  0.83277700  0.21060700  1
  C  C4  1  0.21060700  0.83277700  0.83277700  1
  C  C5  1  0.83277700  0.21060700  0.83277700  1
  C  C6  1  0.29725900  0.29725900  0.77407900  1
  C  C7  1  0.77407900  0.29725900  0.29725900  1
  C  C8  1  0.29725900  0.77407900  0.29725900  1
  C  C9  1  0.70274100  0.70274100  0.22592100  1
  C  C10  1  0.22592100  0.70274100  0.70274100  1
  C  C11  1  0.70274100  0.22592100  0.70274100  1
  N  N0  1  0.23754400  0.23754400  0.71764100  1
  N  N1  1  0.71764100  0.23754400  0.23754400  1
  N  N2  1  0.23754400  0.71764100  0.23754400  1
  N  N3  1  0.76245600  0.76245600  0.28235900  1
  N  N4  1  0.28235900  0.76245600  0.76245600  1
  N  N5  1  0.76245600  0.28235900  0.76245600  1
  O  O0  1  0.71295500  0.00652200  0.00652200  1
  O  O1  1  0.00652200  0.71295500  0.00652200  1
  O  O2  1  0.00652200  0.00652200  0.71295500  1
  O  O3  1  0.28704500  0.99347800  0.99347800  1
  O  O4  1  0.99347800  0.28704500  0.99347800  1
  O  O5  1  0.99347800  0.99347800  0.28704500  1
  O  O6  1  0.80216900  0.80216900  0.95819600  1
  O  O7  1  0.95819600  0.80216900  0.80216900  1
  O  O8  1  0.80216900  0.95819600  0.80216900  1
  O  O9  1  0.19783100  0.19783100  0.04180400  1
  O  O10  1  0.04180400  0.19783100  0.19783100  1
  O  O11  1  0.19783100  0.04180400  0.19783100  1
  O  O12  1  0.58837600  0.00239800  0.84284200  1
  O  O13  1  0.84284200  0.58837600  0.00239800  1
  O  O14  1  0.00239800  0.84284200  0.58837600  1
  O  O15  1  0.84284200  0.00239800  0.58837600  1
  O  O16  1  0.58837600  0.84284200  0.00239800  1
  O  O17  1  0.00239800  0.58837600  0.84284200  1
  O  O18  1  0.41162400  0.99760200  0.15715800  1
  O  O19  1  0.15715800  0.41162400  0.99760200  1
  O  O20  1  0.99760200  0.15715800  0.41162400  1
  O  O21  1  0.15715800  0.99760200  0.41162400  1
  O  O22  1  0.41162400  0.15715800  0.99760200  1
  O  O23  1  0.99760200  0.41162400  0.15715800  1
  O  O24  1  0.63211900  0.98433400  0.63211900  1
  O  O25  1  0.63211900  0.63211900  0.98433400  1
  O  O26  1  0.98433400  0.63211900  0.63211900  1
  O  O27  1  0.36788100  0.01566600  0.36788100  1
  O  O28  1  0.36788100  0.36788100  0.01566600  1
  O  O29  1  0.01566600  0.36788100  0.36788100  1
  O  O30  1  0.45133800  0.86232900  0.86232900  1
  O  O31  1  0.86232900  0.45133800  0.86232900  1
  O  O32  1  0.86232900  0.86232900  0.45133800  1
  O  O33  1  0.54866200  0.13767100  0.13767100  1
  O  O34  1  0.13767100  0.54866200  0.13767100  1
  O  O35  1  0.13767100  0.13767100  0.54866200  1
  O  O36  1  0.41828600  0.05151400  0.72081700  1
  O  O37  1  0.72081700  0.41828600  0.05151400  1
  O  O38  1  0.05151400  0.72081700  0.41828600  1
  O  O39  1  0.72081700  0.05151400  0.41828600  1
  O  O40  1  0.41828600  0.72081700  0.05151400  1
  O  O41  1  0.05151400  0.41828600  0.72081700  1
  O  O42  1  0.58171400  0.94848600  0.27918300  1
  O  O43  1  0.27918300  0.58171400  0.94848600  1
  O  O44  1  0.94848600  0.27918300  0.58171400  1
  O  O45  1  0.27918300  0.94848600  0.58171400  1
  O  O46  1  0.58171400  0.27918300  0.94848600  1
  O  O47  1  0.94848600  0.58171400  0.27918300  1
  O  O48  1  0.49538000  0.84931600  0.65310800  1
  O  O49  1  0.65310800  0.49538000  0.84931600  1
  O  O50  1  0.84931600  0.65310800  0.49538000  1
  O  O51  1  0.65310800  0.84931600  0.49538000  1
  O  O52  1  0.49538000  0.65310800  0.84931600  1
  O  O53  1  0.84931600  0.49538000  0.65310800  1
  O  O54  1  0.50462000  0.15068400  0.34689200  1
  O  O55  1  0.34689200  0.50462000  0.15068400  1
  O  O56  1  0.15068400  0.34689200  0.50462000  1
  O  O57  1  0.34689200  0.15068400  0.50462000  1
  O  O58  1  0.50462000  0.34689200  0.15068400  1
  O  O59  1  0.15068400  0.50462000  0.34689200  1
  O  O60  1  0.64305900  0.64305900  0.48302400  1
  O  O61  1  0.48302400  0.64305900  0.64305900  1
  O  O62  1  0.64305900  0.48302400  0.64305900  1
  O  O63  1  0.35694100  0.35694100  0.51697600  1
  O  O64  1  0.51697600  0.35694100  0.35694100  1
  O  O65  1  0.35694100  0.51697600  0.35694100  1
  O  O66  1  0.45902900  0.78967900  0.45902900  1
  O  O67  1  0.45902900  0.45902900  0.78967900  1
  O  O68  1  0.78967900  0.45902900  0.45902900  1
  O  O69  1  0.54097100  0.21032100  0.54097100  1
  O  O70  1  0.54097100  0.54097100  0.21032100  1
  O  O71  1  0.21032100  0.54097100  0.54097100  1
  O  O72  1  0.65418400  0.80498200  0.80498200  1
  O  O73  1  0.80498200  0.65418400  0.80498200  1
  O  O74  1  0.80498200  0.80498200  0.65418400  1
  O  O75  1  0.34581600  0.19501800  0.19501800  1
  O  O76  1  0.19501800  0.34581600  0.19501800  1
  O  O77  1  0.19501800  0.19501800  0.34581600  1
  O  O78  1  0.67396800  0.67396800  0.67396800  1
  O  O79  1  0.32603200  0.32603200  0.32603200  1
loop_
_geom_bond_atom_site_label_1
_geom_bond_atom_site_label_2
_geom_bond_distance
_geom_bond_site_symmetry_2
Mo0 O0 1.715208 1_566
Mo0 O6 1.930265 1_555
Mo0 O8 1.930265 1_555
Mo0 O12 1.945029 1_565
Mo0 O16 1.945029 1_556
Mo1 O1 1.715208 1_656
Mo1 O6 1.930265 1_555
Mo1 O7 1.930265 1_555
Mo1 O17 1.945029 1_655
Mo1 O13 1.945029 1_556
Mo2 O2 1.715208 1_665
Mo2 O8 1.930265 1_555
Mo2 O7 1.930265 1_555
Mo2 O14 1.945029 1_655
Mo2 O15 1.945029 1_565
Mo3 O3 1.715208 1_544
Mo3 O9 1.930265 1_555
Mo3 O11 1.930265 1_555
Mo3 O18 1.945029 1_545
Mo3 O22 1.945029 1_554
Mo4 O4 1.715208 1_454
Mo4 O9 1.930265 1_555
Mo4 O10 1.930265 1_555
Mo4 O23 1.945029 1_455
Mo4 O19 1.945029 1_554
Mo5 O5 1.715208 1_445
Mo5 O11 1.930265 1_555
Mo5 O10 1.930265 1_555
Mo5 O20 1.945029 1_455
Mo5 O21 1.945029 1_545
Mo6 O36 1.716050 1_565
Mo6 O24 1.929264 1_555
Mo6 O12 1.935374 1_565
Mo6 O30 1.943448 1_555
Mo6 O48 1.949135 1_555
Mo7 O37 1.716050 1_556
Mo7 O25 1.929264 1_555
Mo7 O13 1.935374 1_556
Mo7 O31 1.943448 1_555
Mo7 O49 1.949135 1_555
Mo8 O38 1.716050 1_655
Mo8 O26 1.929264 1_555
Mo8 O14 1.935374 1_655
Mo8 O32 1.943448 1_555
Mo8 O50 1.949135 1_555
Mo9 O39 1.716050 1_565
Mo9 O24 1.929264 1_555
Mo9 O15 1.935374 1_565
Mo9 O32 1.943448 1_555
Mo9 O51 1.949135 1_555
Mo10 O40 1.716050 1_556
Mo10 O25 1.929264 1_555
Mo10 O16 1.935374 1_556
Mo10 O30 1.943448 1_555
Mo10 O52 1.949135 1_555
Mo11 O41 1.716050 1_655
Mo11 O26 1.929264 1_555
Mo11 O17 1.935374 1_655
Mo11 O31 1.943448 1_555
Mo11 O53 1.949135 1_555
Mo12 O42 1.716050 1_545
Mo12 O27 1.929264 1_555
Mo12 O18 1.935374 1_545
Mo12 O33 1.943448 1_555
Mo12 O54 1.949135 1_555
Mo13 O43 1.716050 1_554
Mo13 O28 1.929264 1_555
Mo13 O19 1.935374 1_554
Mo13 O34 1.943448 1_555
Mo13 O55 1.949135 1_555
Mo14 O44 1.716050 1_455
Mo14 O29 1.929264 1_555
Mo14 O20 1.935374 1_455
Mo14 O35 1.943448 1_555
Mo14 O56 1.949135 1_555
Mo15 O45 1.716050 1_545
Mo15 O27 1.929264 1_555
Mo15 O21 1.935374 1_545
Mo15 O35 1.943448 1_555
Mo15 O57 1.949135 1_555
Mo16 O46 1.716050 1_554
Mo16 O28 1.929264 1_555
Mo16 O22 1.935374 1_554
Mo16 O33 1.943448 1_555
Mo16 O58 1.949135 1_555
Mo17 O47 1.716050 1_455
Mo17 O29 1.929264 1_555
Mo17 O23 1.935374 1_455
Mo17 O34 1.943448 1_555
Mo17 O59 1.949135 1_555
Mo18 O66 1.708559 1_555
Mo18 O48 1.938731 1_555
Mo18 O51 1.938731 1_555
Mo18 O60 1.946776 1_555
Mo18 O61 1.946776 1_555
Mo19 O67 1.708559 1_555
Mo19 O52 1.938731 1_555
Mo19 O49 1.938731 1_555
Mo19 O61 1.946776 1_555
Mo19 O62 1.946776 1_555
Mo20 O68 1.708559 1_555
Mo20 O53 1.938731 1_555
Mo20 O50 1.938731 1_555
Mo20 O60 1.946776 1_555
Mo20 O62 1.946776 1_555
Mo21 O69 1.708559 1_555
Mo21 O54 1.938731 1_555
Mo21 O57 1.938731 1_555
Mo21 O63 1.946776 1_555
Mo21 O64 1.946776 1_555
Mo22 O70 1.708559 1_555
Mo22 O58 1.938731 1_555
Mo22 O55 1.938731 1_555
Mo22 O64 1.946776 1_555
Mo22 O65 1.946776 1_555
Mo23 O71 1.708559 1_555
Mo23 O59 1.938731 1_555
Mo23 O56 1.938731 1_555
Mo23 O63 1.946776 1_555
Mo23 O65 1.946776 1_555
H0 N0 1.035084 1_555
H1 N1 1.035084 1_555
H2 N2 1.035084 1_555
H3 N1 1.035084 1_555
H4 N2 1.035084 1_555
H5 N0 1.035084 1_555
H6 N3 1.035084 1_555
H7 N4 1.035084 1_555
H8 N5 1.035084 1_555
H9 N4 1.035084 1_555
H10 N5 1.035084 1_555
H11 N3 1.035084 1_555
C0 H18 1.095894 1_555
C0 H23 1.095894 1_555
C0 H12 1.096746 1_555
C0 N0 1.495822 1_555
C1 H21 1.095894 1_555
C1 H19 1.095894 1_555
C1 H13 1.096746 1_555
C1 N1 1.495822 1_555
C2 H20 1.095894 1_555
C2 H22 1.095894 1_555
C2 H14 1.096746 1_555
C2 N2 1.495822 1_555
C3 H29 1.095894 1_555
C3 H24 1.095894 1_555
C3 H15 1.096746 1_555
C3 N3 1.495822 1_555
C4 H27 1.095894 1_555
C4 H25 1.095894 1_555
C4 H16 1.096746 1_555
C4 N4 1.495822 1_555
C5 H26 1.095894 1_555
C5 H28 1.095894 1_555
C5 H17 1.096746 1_555
C5 N5 1.495822 1_555
C6 H30 1.095395 1_555
C6 H36 1.095932 1_555
C6 H41 1.095932 1_555
C6 N0 1.497680 1_555
C7 H31 1.095395 1_555
C7 H37 1.095932 1_555
C7 H39 1.095932 1_555
C7 N1 1.497680 1_555
C8 H32 1.095395 1_555
C8 H40 1.095932 1_555
C8 H38 1.095932 1_555
C8 N2 1.497680 1_555
C9 H33 1.095395 1_555
C9 H42 1.095932 1_555
C9 H47 1.095932 1_555
C9 N3 1.497680 1_555
C10 H34 1.095395 1_555
C10 H43 1.095932 1_555
C10 H45 1.095932 1_555
C10 N4 1.497680 1_555
C11 H35 1.095395 1_555
C11 H46 1.095932 1_555
C11 H44 1.095932 1_555
C11 N5 1.497680 1_555
O72 P0 1.548574 1_555
O73 P0 1.548574 1_555
O74 P0 1.548575 1_555
O75 P1 1.548574 1_555
O76 P1 1.548574 1_555
O77 P1 1.548575 1_555
O78 P0 1.547772 1_555
O79 P1 1.547772 1_555
