# generated using pymatgen
data_Ni4P2O9
_symmetry_space_group_name_H-M   'P 1'
_cell_length_a   6.36086100
_cell_length_b   7.65103434
_cell_length_c   8.05260082
_cell_angle_alpha   98.13741455
_cell_angle_beta   112.31435877
_cell_angle_gamma   101.74027052
_symmetry_Int_Tables_number   1
_chemical_formula_structural   Ni4P2O9
_chemical_formula_sum   'Ni8 P4 O18'
_cell_volume   344.45246232
_cell_formula_units_Z   2
loop_
 _symmetry_equiv_pos_site_id
 _symmetry_equiv_pos_as_xyz
  1  'x, y, z'
loop_
 _atom_site_type_symbol
 _atom_site_label
 _atom_site_symmetry_multiplicity
 _atom_site_fract_x
 _atom_site_fract_y
 _atom_site_fract_z
 _atom_site_occupancy
  Ni  Ni0  1  0.07767500  0.88100900  0.73303700  1
  Ni  Ni1  1  0.60275400  0.88937200  0.73735400  1
  Ni  Ni2  1  0.63793700  0.67047200  0.43723500  1
  Ni  Ni3  1  0.83039200  0.60078300  0.90619000  1
  Ni  Ni4  1  0.16960800  0.39921700  0.09381000  1
  Ni  Ni5  1  0.36206300  0.32952800  0.56276500  1
  Ni  Ni6  1  0.39724600  0.11062800  0.26264600  1
  Ni  Ni7  1  0.92232500  0.11899100  0.26696300  1
  P  P0  1  0.48186000  0.77989900  0.07465700  1
  P  P1  1  0.11860800  0.74112300  0.35364000  1
  P  P2  1  0.88139200  0.25887700  0.64636000  1
  P  P3  1  0.51814000  0.22010100  0.92534300  1
  O  O0  1  0.14423700  0.93578900  0.31538800  1
  O  O1  1  0.61104700  0.95835500  0.23796900  1
  O  O2  1  0.23062700  0.78750800  0.95813500  1
  O  O3  1  0.36577100  0.72285700  0.47895500  1
  O  O4  1  0.00942400  0.58969700  0.17263900  1
  O  O5  1  0.63147500  0.77561000  0.96200100  1
  O  O6  1  0.47337000  0.61410300  0.16732700  1
  O  O7  1  0.96927900  0.71940800  0.46746200  1
  O  O8  1  0.77718200  0.71677900  0.69924200  1
  O  O9  1  0.22281800  0.28322100  0.30075800  1
  O  O10  1  0.03072100  0.28059200  0.53253800  1
  O  O11  1  0.52663000  0.38589700  0.83267300  1
  O  O12  1  0.36852500  0.22439000  0.03799900  1
  O  O13  1  0.99057600  0.41030300  0.82736100  1
  O  O14  1  0.63422900  0.27714300  0.52104500  1
  O  O15  1  0.76937300  0.21249200  0.04186500  1
  O  O16  1  0.38895300  0.04164500  0.76203100  1
  O  O17  1  0.85576300  0.06421100  0.68461200  1
loop_
_geom_bond_atom_site_label_1
_geom_bond_atom_site_label_2
_geom_bond_distance
_geom_bond_site_symmetry_2
Ni0 O8 1.958869 1_455
Ni0 O2 2.013723 1_555
Ni0 O16 2.015646 1_565
Ni0 O7 2.088637 1_455
Ni0 O17 2.156660 1_465
Ni1 O8 1.951678 1_555
Ni1 O16 2.007676 1_565
Ni1 O3 2.076343 1_555
Ni1 O5 2.079162 1_555
Ni1 O17 2.088928 1_565
Ni2 O8 1.898172 1_555
Ni2 O6 1.956762 1_555
Ni2 O7 1.976107 1_555
Ni2 O3 1.989096 1_555
Ni3 O8 1.947288 1_555
Ni3 O4 2.035447 1_656
Ni3 O11 2.085655 1_555
Ni3 O13 2.097282 1_555
Ni3 O5 2.131313 1_555
Ni3 O2 2.497864 1_655
Ni4 O9 1.947288 1_555
Ni4 O13 2.035447 1_454
Ni4 O6 2.085655 1_555
Ni4 O4 2.097282 1_555
Ni4 O12 2.131313 1_555
Ni4 O15 2.497864 1_455
Ni5 O9 1.898172 1_555
Ni5 O11 1.956762 1_555
Ni5 O10 1.976107 1_555
Ni5 O14 1.989096 1_555
Ni6 O9 1.951678 1_555
Ni6 O1 2.007676 1_545
Ni6 O14 2.076343 1_555
Ni6 O12 2.079162 1_555
Ni6 O0 2.088928 1_545
Ni7 O9 1.958869 1_655
Ni7 O15 2.013723 1_555
Ni7 O1 2.015646 1_545
Ni7 O10 2.088637 1_655
Ni7 O0 2.156660 1_645
O0 P1 1.552082 1_555
O1 P0 1.575885 1_555
O2 P0 1.533708 1_556
O3 P1 1.560175 1_555
O4 P1 1.541046 1_555
O5 P0 1.545839 1_556
O6 P0 1.561924 1_555
O7 P1 1.552396 1_655
O10 P2 1.552396 1_455
O11 P3 1.561924 1_555
O12 P3 1.545839 1_554
O13 P2 1.541046 1_555
O14 P2 1.560175 1_555
O15 P3 1.533708 1_554
O16 P3 1.575885 1_555
O17 P2 1.552082 1_555
