# generated using pymatgen
data_Li3Cr2NiO6
_symmetry_space_group_name_H-M   'P 1'
_cell_length_a   6.61118722
_cell_length_b   6.61118722
_cell_length_c   5.89687377
_cell_angle_alpha   77.09764493
_cell_angle_beta   77.09764493
_cell_angle_gamma   25.73740650
_symmetry_Int_Tables_number   1
_chemical_formula_structural   Li3Cr2NiO6
_chemical_formula_sum   'Li3 Cr2 Ni1 O6'
_cell_volume   108.94729613
_cell_formula_units_Z   1
loop_
 _symmetry_equiv_pos_site_id
 _symmetry_equiv_pos_as_xyz
  1  'x, y, z'
loop_
 _atom_site_type_symbol
 _atom_site_label
 _atom_site_symmetry_multiplicity
 _atom_site_fract_x
 _atom_site_fract_y
 _atom_site_fract_z
 _atom_site_occupancy
  Li  Li0  1  0.00000000  0.00000000  0.00000000  1
  Li  Li1  1  0.66402300  0.66402300  0.66457400  1
  Li  Li2  1  0.33597700  0.33597700  0.33542600  1
  Cr  Cr0  1  0.66574300  0.66574300  0.17279800  1
  Cr  Cr1  1  0.33425700  0.33425700  0.82720200  1
  Ni  Ni0  1  0.00000000  0.00000000  0.50000000  1
  O  O0  1  0.16689200  0.16689200  0.40006600  1
  O  O1  1  0.82690000  0.82690000  0.06521100  1
  O  O2  1  0.83310800  0.83310800  0.59993400  1
  O  O3  1  0.49174500  0.49174500  0.74414100  1
  O  O4  1  0.50825500  0.50825500  0.25585900  1
  O  O5  1  0.17310000  0.17310000  0.93478900  1
loop_
_geom_bond_atom_site_label_1
_geom_bond_atom_site_label_2
_geom_bond_distance
_geom_bond_site_symmetry_2
Li0 O3 2.128214 1_454
Li0 O3 2.128214 1_544
Li0 O4 2.128214 1_545
Li0 O4 2.128214 1_455
Li0 O5 2.175671 1_554
Li0 O1 2.175671 1_445
Li1 O2 2.124891 1_555
Li1 O0 2.139129 1_655
Li1 O0 2.139129 1_565
Li1 O3 2.162035 1_555
Li1 O5 2.192291 1_655
Li1 O5 2.192291 1_565
Li2 O0 2.124891 1_555
Li2 O2 2.139129 1_545
Li2 O2 2.139129 1_455
Li2 O4 2.162035 1_555
Li2 O1 2.192291 1_545
Li2 O1 2.192291 1_455
Cr0 O4 1.976252 1_555
Cr0 O0 1.993342 1_565
Cr0 O0 1.993342 1_655
Cr0 O5 2.021362 1_654
Cr0 O5 2.021362 1_564
Cr0 O1 2.028345 1_555
Cr1 O3 1.976252 1_555
Cr1 O2 1.993342 1_545
Cr1 O2 1.993342 1_455
Cr1 O1 2.021362 1_546
Cr1 O1 2.021362 1_456
Cr1 O5 2.028345 1_555
Ni0 O3 2.044954 1_545
Ni0 O4 2.044954 1_545
Ni0 O3 2.044954 1_455
Ni0 O4 2.044954 1_455
Ni0 O0 2.096319 1_555
Ni0 O2 2.096319 1_445
