# generated using pymatgen
data_Li2CrSiO5
_symmetry_space_group_name_H-M   'P 1'
_cell_length_a   13.11334387
_cell_length_b   5.03768500
_cell_length_c   12.48266531
_cell_angle_alpha   90.00000000
_cell_angle_beta   61.21846428
_cell_angle_gamma   90.00000000
_symmetry_Int_Tables_number   1
_chemical_formula_structural   Li2CrSiO5
_chemical_formula_sum   'Li16 Cr8 Si8 O40'
_cell_volume   722.74453923
_cell_formula_units_Z   8
loop_
 _symmetry_equiv_pos_site_id
 _symmetry_equiv_pos_as_xyz
  1  'x, y, z'
loop_
 _atom_site_type_symbol
 _atom_site_label
 _atom_site_symmetry_multiplicity
 _atom_site_fract_x
 _atom_site_fract_y
 _atom_site_fract_z
 _atom_site_occupancy
  Li  Li0  1  0.32047700  0.76113600  0.82396700  1
  Li  Li1  1  0.09221000  0.77803300  0.56310400  1
  Li  Li2  1  0.18332300  0.21220700  0.64161300  1
  Li  Li3  1  0.59166500  0.72524600  0.84539600  1
  Li  Li4  1  0.40833500  0.22524600  0.65460400  1
  Li  Li5  1  0.81667700  0.71220700  0.85838700  1
  Li  Li6  1  0.32047700  0.73886400  0.32396700  1
  Li  Li7  1  0.09221000  0.72196700  0.06310400  1
  Li  Li8  1  0.90779000  0.27803300  0.93689600  1
  Li  Li9  1  0.67952300  0.26113600  0.67603300  1
  Li  Li10  1  0.18332300  0.28779300  0.14161300  1
  Li  Li11  1  0.59166500  0.77475400  0.34539600  1
  Li  Li12  1  0.40833500  0.27475400  0.15460400  1
  Li  Li13  1  0.81667700  0.78779300  0.35838700  1
  Li  Li14  1  0.90779000  0.22196700  0.43689600  1
  Li  Li15  1  0.67952300  0.23886400  0.17603300  1
  Cr  Cr0  1  0.06075900  0.72927700  0.80632600  1
  Cr  Cr1  1  0.43749900  0.26986300  0.86779900  1
  Cr  Cr2  1  0.06075900  0.77072300  0.30632600  1
  Cr  Cr3  1  0.56250100  0.76986300  0.63220100  1
  Cr  Cr4  1  0.43749900  0.23013700  0.36779900  1
  Cr  Cr5  1  0.93924100  0.22927700  0.69367400  1
  Cr  Cr6  1  0.56250100  0.73013700  0.13220100  1
  Cr  Cr7  1  0.93924100  0.27072300  0.19367400  1
  Si  Si0  1  0.16007900  0.21201800  0.90468100  1
  Si  Si1  1  0.66231100  0.22025000  0.93203700  1
  Si  Si2  1  0.16007900  0.28798200  0.40468100  1
  Si  Si3  1  0.33768900  0.72025000  0.56796300  1
  Si  Si4  1  0.66231100  0.27975000  0.43203700  1
  Si  Si5  1  0.83992100  0.71201800  0.59531900  1
  Si  Si6  1  0.33768900  0.77975000  0.06796300  1
  Si  Si7  1  0.83992100  0.78798200  0.09531900  1
  O  O0  1  0.99495400  0.04641200  0.79257900  1
  O  O1  1  0.13231200  0.89136100  0.90271700  1
  O  O2  1  0.12425000  0.38223600  0.81508400  1
  O  O3  1  0.38180100  0.61885300  0.93859600  1
  O  O4  1  0.30111300  0.23258200  0.84197400  1
  O  O5  1  0.09551900  0.16466700  0.54348300  1
  O  O6  1  0.20022000  0.80505100  0.64644500  1
  O  O7  1  0.64468600  0.89686500  0.96029100  1
  O  O8  1  0.50028000  0.95301300  0.78896400  1
  O  O9  1  0.99495400  0.45358800  0.29257900  1
  O  O10  1  0.59404800  0.32754000  0.85992700  1
  O  O11  1  0.13231200  0.60863900  0.40271700  1
  O  O12  1  0.40595200  0.82754000  0.64007300  1
  O  O13  1  0.12425000  0.11776400  0.31508400  1
  O  O14  1  0.49972000  0.45301300  0.71103600  1
  O  O15  1  0.35531400  0.39686500  0.53970900  1
  O  O16  1  0.38180100  0.88114700  0.43859600  1
  O  O17  1  0.30111300  0.26741800  0.34197400  1
  O  O18  1  0.79978000  0.30505100  0.85355500  1
  O  O19  1  0.90448100  0.66466700  0.95651700  1
  O  O20  1  0.09551900  0.33533300  0.04348300  1
  O  O21  1  0.20022000  0.69494900  0.14644500  1
  O  O22  1  0.69888700  0.73258200  0.65802600  1
  O  O23  1  0.61819900  0.11885300  0.56140400  1
  O  O24  1  0.64468600  0.60313500  0.46029100  1
  O  O25  1  0.50028000  0.54698700  0.28896400  1
  O  O26  1  0.87575000  0.88223600  0.68491600  1
  O  O27  1  0.59404800  0.17246000  0.35992700  1
  O  O28  1  0.86768800  0.39136100  0.59728300  1
  O  O29  1  0.40595200  0.67246000  0.14007300  1
  O  O30  1  0.00504600  0.54641200  0.70742100  1
  O  O31  1  0.49972000  0.04698700  0.21103600  1
  O  O32  1  0.35531400  0.10313500  0.03970900  1
  O  O33  1  0.79978000  0.19494900  0.35355500  1
  O  O34  1  0.90448100  0.83533300  0.45651700  1
  O  O35  1  0.69888700  0.76741800  0.15802600  1
  O  O36  1  0.61819900  0.38114700  0.06140400  1
  O  O37  1  0.87575000  0.61776400  0.18491600  1
  O  O38  1  0.86768800  0.10863900  0.09728300  1
  O  O39  1  0.00504600  0.95358800  0.20742100  1
loop_
_geom_bond_atom_site_label_1
_geom_bond_atom_site_label_2
_geom_bond_distance
_geom_bond_site_symmetry_2
Li0 O12 2.039588 1_555
Li0 O3 2.077467 1_555
Li0 O1 2.269238 1_555
Li0 O8 2.385904 1_555
Li0 O4 2.387603 1_565
Li1 O5 1.960951 1_565
Li1 O30 1.982537 1_555
Li1 O11 1.999794 1_555
Li1 O6 2.127386 1_555
Li2 O5 2.059525 1_555
Li2 O6 2.067054 1_545
Li2 O2 2.099378 1_555
Li2 O15 2.192614 1_555
Li2 O0 2.422399 1_455
Li3 O10 2.013310 1_555
Li3 O8 2.015372 1_555
Li3 O7 2.061073 1_555
Li3 O22 2.069292 1_555
Li3 O3 2.476152 1_555
Li4 O12 2.013310 1_545
Li4 O14 2.015372 1_555
Li4 O15 2.061073 1_555
Li4 O4 2.069292 1_555
Li4 O23 2.476152 1_555
Li5 O19 2.059525 1_555
Li5 O18 2.067054 1_555
Li5 O26 2.099378 1_555
Li5 O7 2.192614 1_555
Li5 O30 2.422399 1_655
Li6 O29 2.039588 1_555
Li6 O16 2.077467 1_555
Li6 O11 2.269238 1_555
Li6 O25 2.385904 1_555
Li6 O17 2.387603 1_555
Li7 O20 1.960951 1_555
Li7 O39 1.982537 1_555
Li7 O1 1.999794 1_554
Li7 O21 2.127386 1_555
Li8 O19 1.960951 1_555
Li8 O0 1.982537 1_555
Li8 O38 1.999794 1_556
Li8 O18 2.127386 1_555
Li9 O10 2.039588 1_555
Li9 O23 2.077467 1_555
Li9 O28 2.269238 1_555
Li9 O14 2.385904 1_555
Li9 O22 2.387603 1_555
Li10 O20 2.059525 1_555
Li10 O21 2.067054 1_555
Li10 O13 2.099378 1_555
Li10 O32 2.192614 1_555
Li10 O9 2.422399 1_455
Li11 O27 2.013310 1_565
Li11 O25 2.015372 1_555
Li11 O24 2.061073 1_555
Li11 O35 2.069292 1_555
Li11 O16 2.476152 1_555
Li12 O29 2.013310 1_555
Li12 O31 2.015372 1_555
Li12 O32 2.061073 1_555
Li12 O17 2.069292 1_555
Li12 O36 2.476152 1_555
Li13 O34 2.059525 1_555
Li13 O33 2.067054 1_565
Li13 O37 2.099378 1_555
Li13 O24 2.192614 1_555
Li13 O39 2.422399 1_655
Li14 O34 1.960951 1_545
Li14 O9 1.982537 1_555
Li14 O28 1.999794 1_555
Li14 O33 2.127386 1_555
Li15 O27 2.039588 1_555
Li15 O36 2.077467 1_555
Li15 O38 2.269238 1_555
Li15 O31 2.385904 1_555
Li15 O35 2.387603 1_545
Cr0 O0 1.862547 1_465
Cr0 O30 1.942981 1_555
Cr0 O2 1.961959 1_555
Cr0 O6 1.989635 1_555
Cr0 O1 2.020394 1_555
Cr0 O19 2.029982 1_455
Cr1 O8 1.847663 1_545
Cr1 O3 1.945206 1_555
Cr1 O14 1.951592 1_555
Cr1 O4 1.973073 1_555
Cr1 O10 2.028337 1_555
Cr1 O32 2.060302 1_556
Cr2 O9 1.862547 1_455
Cr2 O39 1.942981 1_555
Cr2 O13 1.961959 1_565
Cr2 O21 1.989635 1_555
Cr2 O11 2.020394 1_555
Cr2 O34 2.029982 1_455
Cr3 O14 1.847663 1_555
Cr3 O23 1.945206 1_565
Cr3 O8 1.951592 1_555
Cr3 O22 1.973073 1_555
Cr3 O12 2.028337 1_555
Cr3 O24 2.060302 1_555
Cr4 O25 1.847663 1_555
Cr4 O16 1.945206 1_545
Cr4 O31 1.951592 1_555
Cr4 O17 1.973073 1_555
Cr4 O27 2.028337 1_555
Cr4 O15 2.060302 1_555
Cr5 O30 1.862547 1_655
Cr5 O0 1.942981 1_555
Cr5 O26 1.961959 1_545
Cr5 O18 1.989635 1_555
Cr5 O28 2.020394 1_555
Cr5 O5 2.029982 1_655
Cr6 O31 1.847663 1_565
Cr6 O36 1.945206 1_555
Cr6 O25 1.951592 1_555
Cr6 O35 1.973073 1_555
Cr6 O29 2.028337 1_555
Cr6 O7 2.060302 1_554
Cr7 O39 1.862547 1_645
Cr7 O9 1.942981 1_555
Cr7 O37 1.961959 1_555
Cr7 O33 1.989635 1_555
Cr7 O38 2.020394 1_555
Cr7 O20 2.029982 1_655
O1 Si0 1.658673 1_565
O2 Si0 1.647088 1_555
O3 Si6 1.643114 1_556
O4 Si0 1.627826 1_555
O5 Si2 1.640774 1_555
O6 Si3 1.640523 1_555
O7 Si1 1.659312 1_565
O10 Si1 1.636935 1_555
O11 Si2 1.658673 1_555
O12 Si3 1.636935 1_555
O13 Si2 1.647088 1_555
O15 Si3 1.659312 1_555
O16 Si3 1.643114 1_555
O17 Si2 1.627826 1_555
O18 Si1 1.640523 1_555
O19 Si7 1.640774 1_556
O20 Si0 1.640774 1_554
O21 Si6 1.640523 1_555
O22 Si5 1.627826 1_555
O23 Si4 1.643114 1_555
O24 Si4 1.659312 1_555
O26 Si5 1.647088 1_555
O27 Si4 1.636935 1_555
O28 Si5 1.658673 1_555
O29 Si6 1.636935 1_555
O32 Si6 1.659312 1_545
O33 Si4 1.640523 1_555
O34 Si5 1.640774 1_555
O35 Si7 1.627826 1_555
O36 Si1 1.643114 1_554
O37 Si7 1.647088 1_555
O38 Si7 1.658673 1_545
