# generated using pymatgen
data_Li3FePCO7
_symmetry_space_group_name_H-M   'P 1'
_cell_length_a   8.37597151
_cell_length_b   8.38235880
_cell_length_c   8.39904970
_cell_angle_alpha   77.44161962
_cell_angle_beta   89.91813502
_cell_angle_gamma   90.12819550
_symmetry_Int_Tables_number   1
_chemical_formula_structural   Li3FePCO7
_chemical_formula_sum   'Li12 Fe4 P4 C4 O28'
_cell_volume   575.58946933
_cell_formula_units_Z   4
loop_
 _symmetry_equiv_pos_site_id
 _symmetry_equiv_pos_as_xyz
  1  'x, y, z'
loop_
 _atom_site_type_symbol
 _atom_site_label
 _atom_site_symmetry_multiplicity
 _atom_site_fract_x
 _atom_site_fract_y
 _atom_site_fract_z
 _atom_site_occupancy
  Li  Li0  1  0.22938400  0.72513200  0.77464900  1
  Li  Li1  1  0.22934500  0.22515800  0.27465400  1
  Li  Li2  1  0.40305800  0.22600000  0.77414300  1
  Li  Li3  1  0.40300500  0.72608100  0.27396400  1
  Li  Li4  1  0.02729000  0.34559600  0.92593000  1
  Li  Li5  1  0.02709700  0.84574900  0.42575400  1
  Li  Li6  1  0.02797000  0.57487200  0.15479300  1
  Li  Li7  1  0.02789300  0.07481800  0.65462600  1
  Li  Li8  1  0.60523700  0.84397600  0.92666500  1
  Li  Li9  1  0.60523400  0.34395500  0.42656800  1
  Li  Li10  1  0.60559100  0.57344200  0.65539000  1
  Li  Li11  1  0.60529300  0.07348300  0.15551800  1
  Fe  Fe0  1  0.63550800  0.99263100  0.50755500  1
  Fe  Fe1  1  0.99723200  0.99332700  0.00678800  1
  Fe  Fe2  1  0.63579900  0.49276300  0.00735300  1
  Fe  Fe3  1  0.99750400  0.49299700  0.50693800  1
  P  P0  1  0.73201900  0.26882400  0.73113700  1
  P  P1  1  0.73196500  0.76889900  0.23118800  1
  P  P2  1  0.90097700  0.26956600  0.23056900  1
  P  P3  1  0.90107300  0.76970900  0.73037100  1
  C  C0  1  0.30758400  0.48756600  0.51224900  1
  C  C1  1  0.30741500  0.98757200  0.01221700  1
  C  C2  1  0.32518200  0.48922600  0.01071100  1
  C  C3  1  0.32505300  0.98925200  0.51067300  1
  O  O0  1  0.22504500  0.59367000  0.40625900  1
  O  O1  1  0.22486300  0.09378000  0.90633600  1
  O  O2  1  0.41002700  0.59478500  0.90555800  1
  O  O3  1  0.40991900  0.09481100  0.40554000  1
  O  O4  1  0.23300200  0.37897700  0.62076100  1
  O  O5  1  0.23288100  0.87887300  0.12064200  1
  O  O6  1  0.39734700  0.37968300  0.11950900  1
  O  O7  1  0.39722100  0.87974400  0.61949700  1
  O  O8  1  0.17156500  0.49790700  0.00232600  1
  O  O9  1  0.17144800  0.99792200  0.50223700  1
  O  O10  1  0.46136800  0.49418600  0.50561100  1
  O  O11  1  0.46120800  0.99424100  0.00551800  1
  O  O12  1  0.86420800  0.41522700  0.08507700  1
  O  O13  1  0.86402800  0.91532600  0.58491600  1
  O  O14  1  0.76884700  0.91453900  0.08535100  1
  O  O15  1  0.76900300  0.41436400  0.58524200  1
  O  O16  1  0.74117200  0.69492500  0.80503300  1
  O  O17  1  0.74097200  0.19496100  0.30509900  1
  O  O18  1  0.89204200  0.19508900  0.80521800  1
  O  O19  1  0.89200800  0.69523300  0.30528600  1
  O  O20  1  0.01002400  0.64839400  0.66434900  1
  O  O21  1  0.00985100  0.14810700  0.16467900  1
  O  O22  1  0.01021200  0.83598800  0.85126500  1
  O  O23  1  0.01013900  0.33567400  0.35156900  1
  O  O24  1  0.62288700  0.33483200  0.85232400  1
  O  O25  1  0.62267800  0.83475400  0.35237600  1
  O  O26  1  0.62306800  0.64673500  0.16594000  1
  O  O27  1  0.62296000  0.14670200  0.66603600  1
loop_
_geom_bond_atom_site_label_1
_geom_bond_atom_site_label_2
_geom_bond_distance
_geom_bond_site_symmetry_2
Li0 O2 2.044948 1_555
Li0 O7 2.146215 1_555
Li0 O20 2.215084 1_555
Li0 O22 2.216291 1_555
Li0 O8 2.434840 1_556
Li1 O3 2.044437 1_555
Li1 O6 2.146747 1_555
Li1 O21 2.215696 1_555
Li1 O23 2.216105 1_555
Li1 O9 2.434539 1_545
Li2 O1 2.035086 1_555
Li2 O4 2.151242 1_555
Li2 O24 2.215892 1_555
Li2 O27 2.218563 1_555
Li2 O11 2.480521 1_546
Li3 O0 2.034692 1_555
Li3 O5 2.150659 1_555
Li3 O25 2.214927 1_555
Li3 O26 2.219510 1_555
Li3 O10 2.482977 1_555
Li4 O8 1.963070 1_556
Li4 O12 2.081081 1_456
Li4 O18 2.110925 1_455
Li4 O21 2.310272 1_556
Li5 O9 1.962972 1_555
Li5 O13 2.080907 1_455
Li5 O19 2.109013 1_455
Li5 O20 2.308575 1_555
Li6 O8 1.964953 1_555
Li6 O12 2.085654 1_455
Li6 O19 2.113784 1_455
Li6 O23 2.308877 1_555
Li7 O9 1.964002 1_545
Li7 O13 2.085301 1_445
Li7 O18 2.113407 1_455
Li7 O22 2.305996 1_545
Li8 O11 1.961582 1_556
Li8 O14 2.085337 1_556
Li8 O16 2.111665 1_555
Li8 O26 2.313375 1_556
Li9 O10 1.961298 1_555
Li9 O15 2.085599 1_555
Li9 O17 2.109604 1_555
Li9 O27 2.314526 1_555
Li10 O10 1.961481 1_555
Li10 O15 2.084745 1_555
Li10 O16 2.112292 1_555
Li10 O24 2.306655 1_555
Li11 O11 1.962043 1_545
Li11 O14 2.084805 1_545
Li11 O17 2.112343 1_555
Li11 O25 2.307077 1_545
Fe0 O27 2.049034 1_565
Fe0 O25 2.052186 1_555
Fe0 O13 2.081294 1_555
Fe0 O3 2.175041 1_565
Fe0 O17 2.298502 1_565
Fe0 O7 2.315652 1_555
Fe1 O21 2.049661 1_665
Fe1 O22 2.051081 1_654
Fe1 O14 2.081386 1_555
Fe1 O1 2.176091 1_664
Fe1 O18 2.295344 1_564
Fe1 O5 2.312062 1_655
Fe2 O26 2.049174 1_555
Fe2 O24 2.051599 1_554
Fe2 O12 2.081666 1_555
Fe2 O2 2.175394 1_554
Fe2 O16 2.296738 1_554
Fe2 O6 2.317925 1_555
Fe3 O23 2.049819 1_655
Fe3 O20 2.050464 1_655
Fe3 O15 2.081423 1_555
Fe3 O0 2.176563 1_655
Fe3 O19 2.299028 1_555
Fe3 O4 2.309708 1_655
C0 O10 1.289765 1_555
C0 O4 1.297876 1_555
C0 O0 1.312126 1_555
C1 O11 1.289870 1_555
C1 O5 1.297788 1_555
C1 O1 1.312161 1_564
C2 O8 1.290070 1_555
C2 O6 1.297193 1_555
C2 O2 1.312836 1_554
C3 O9 1.289984 1_555
C3 O7 1.297162 1_555
C3 O3 1.312842 1_565
O12 P2 1.559756 1_555
O13 P3 1.559804 1_555
O14 P1 1.559843 1_555
O15 P0 1.559797 1_555
O16 P3 1.550127 1_555
O17 P2 1.550058 1_555
O18 P0 1.550660 1_555
O19 P1 1.550669 1_555
O20 P3 1.556375 1_455
O21 P2 1.556330 1_455
O22 P3 1.555973 1_455
O23 P2 1.556024 1_455
O24 P0 1.556356 1_555
O25 P1 1.556485 1_555
O26 P1 1.556342 1_555
O27 P0 1.556266 1_555
