# generated using pymatgen
data_LiVFeO4
_symmetry_space_group_name_H-M   'P 1'
_cell_length_a   5.97014759
_cell_length_b   5.96610641
_cell_length_c   5.96581276
_cell_angle_alpha   59.92180125
_cell_angle_beta   90.53846800
_cell_angle_gamma   60.75868049
_symmetry_Int_Tables_number   1
_chemical_formula_structural   LiVFeO4
_chemical_formula_sum   'Li2 V2 Fe2 O8'
_cell_volume   151.08058859
_cell_formula_units_Z   2
loop_
 _symmetry_equiv_pos_site_id
 _symmetry_equiv_pos_as_xyz
  1  'x, y, z'
loop_
 _atom_site_type_symbol
 _atom_site_label
 _atom_site_symmetry_multiplicity
 _atom_site_fract_x
 _atom_site_fract_y
 _atom_site_fract_z
 _atom_site_occupancy
  Li  Li0  1  0.49997300  0.50002000  0.49999200  1
  Li  Li1  1  0.49998000  0.99999800  0.00001800  1
  V  V0  1  0.12489000  0.25002500  0.37490700  1
  V  V1  1  0.87511300  0.74999800  0.62511000  1
  Fe  Fe0  1  0.50013700  0.49992100  0.99998500  1
  Fe  Fe1  1  0.00002800  0.99999500  0.99992400  1
  O  O0  1  0.75267000  0.50480500  0.74917100  1
  O  O1  1  0.24709500  0.00410200  0.74208400  1
  O  O2  1  0.75290400  0.99588600  0.25794100  1
  O  O3  1  0.24730900  0.49519400  0.25084000  1
  O  O4  1  0.22867900  0.51533700  0.74398400  1
  O  O5  1  0.76098600  0.98428500  0.74532000  1
  O  O6  1  0.23895700  0.01573600  0.25468100  1
  O  O7  1  0.77127800  0.48469500  0.25604200  1
loop_
_geom_bond_atom_site_label_1
_geom_bond_atom_site_label_2
_geom_bond_distance
_geom_bond_site_symmetry_2
Li0 O3 2.128093 1_555
Li0 O0 2.128171 1_555
Li0 O7 2.186999 1_555
Li0 O4 2.187124 1_555
Li0 O6 2.190043 1_565
Li0 O5 2.190120 1_545
Li1 O1 2.128448 1_564
Li1 O2 2.128531 1_555
Li1 O7 2.188554 1_555
Li1 O6 2.188603 1_565
Li1 O5 2.188676 1_554
Li1 O4 2.188703 1_564
Fe0 O0 2.134115 1_555
Fe0 O3 2.135547 1_556
Fe0 O2 2.138357 1_546
Fe0 O1 2.138985 1_565
Fe0 O7 2.152417 1_556
Fe0 O4 2.152790 1_555
Fe1 O1 2.140705 1_565
Fe1 O5 2.141308 1_455
Fe1 O3 2.141560 1_556
Fe1 O0 2.141609 1_465
Fe1 O6 2.141645 1_566
Fe1 O2 2.141703 1_456
O0 V1 1.786539 1_555
O1 V0 1.784923 1_555
O2 V1 1.784882 1_555
O3 V0 1.786306 1_555
O4 V1 1.734390 1_455
O5 V1 1.736622 1_555
O6 V0 1.736709 1_555
O7 V0 1.734616 1_655
