# generated using pymatgen
data_Ce5Sm2O13
_symmetry_space_group_name_H-M   'P 1'
_cell_length_a   3.85371923
_cell_length_b   3.85371923
_cell_length_c   22.50018409
_cell_angle_alpha   94.91268666
_cell_angle_beta   94.91268666
_cell_angle_gamma   60.00000000
_symmetry_Int_Tables_number   1
_chemical_formula_structural   Ce5Sm2O13
_chemical_formula_sum   'Ce5 Sm2 O13'
_cell_volume   287.96721398
_cell_formula_units_Z   1
loop_
 _symmetry_equiv_pos_site_id
 _symmetry_equiv_pos_as_xyz
  1  'x, y, z'
loop_
 _atom_site_type_symbol
 _atom_site_label
 _atom_site_symmetry_multiplicity
 _atom_site_fract_x
 _atom_site_fract_y
 _atom_site_fract_z
 _atom_site_occupancy
  Ce  Ce0  1  0.42840800  0.42840800  0.28522200  1
  Ce  Ce1  1  0.85649100  0.85649100  0.56947500  1
  Ce  Ce2  1  0.14228400  0.14228400  0.42685200  1
  Ce  Ce3  1  0.57069800  0.57069800  0.71209500  1
  Ce  Ce4  1  0.28435300  0.28435300  0.85306000  1
  Sm  Sm0  1  0.71653600  0.71653600  0.14960600  1
  Sm  Sm1  1  0.99859700  0.99859700  0.99579200  1
  O  O0  1  0.75111200  0.75111200  0.25333500  1
  O  O1  1  0.39388600  0.39388600  0.18165900  1
  O  O2  1  0.03115900  0.03115900  0.09347900  1
  O  O3  1  0.82178700  0.82178700  0.46536200  1
  O  O4  1  0.10776300  0.10776300  0.32328800  1
  O  O5  1  0.46469400  0.46469400  0.39408100  1
  O  O6  1  0.53603200  0.53603200  0.60809600  1
  O  O7  1  0.89314800  0.89314800  0.67944600  1
  O  O8  1  0.17889300  0.17889300  0.53667900  1
  O  O9  1  0.60694000  0.60694000  0.82082200  1
  O  O10  1  0.25021200  0.25021200  0.75063600  1
  O  O11  1  0.96310400  0.96310400  0.88931200  1
  O  O12  1  0.32532900  0.32532900  0.97598700  1
loop_
_geom_bond_atom_site_label_1
_geom_bond_atom_site_label_2
_geom_bond_distance
_geom_bond_site_symmetry_2
Ce0 O1 2.318766 1_555
Ce0 O0 2.336684 1_555
Ce0 O0 2.336688 1_545
Ce0 O0 2.336688 1_455
Ce0 O4 2.382600 1_565
Ce0 O4 2.382600 1_655
Ce0 O4 2.382603 1_555
Ce0 O5 2.437343 1_555
Ce1 O3 2.331080 1_555
Ce1 O8 2.342983 1_655
Ce1 O8 2.342983 1_565
Ce1 O8 2.342989 1_665
Ce1 O6 2.387071 1_555
Ce1 O6 2.387077 1_655
Ce1 O6 2.387077 1_565
Ce1 O7 2.462240 1_555
Ce2 O4 2.318788 1_555
Ce2 O5 2.342809 1_545
Ce2 O5 2.342809 1_455
Ce2 O5 2.342812 1_555
Ce2 O3 2.386174 1_545
Ce2 O3 2.386174 1_455
Ce2 O3 2.386178 1_445
Ce2 O8 2.459016 1_555
Ce3 O6 2.328528 1_555
Ce3 O7 2.341954 1_555
Ce3 O7 2.341957 1_545
Ce3 O7 2.341957 1_455
Ce3 O10 2.386424 1_555
Ce3 O10 2.386427 1_655
Ce3 O10 2.386427 1_565
Ce3 O9 2.434387 1_555
Ce4 O10 2.293264 1_555
Ce4 O9 2.339098 1_555
Ce4 O9 2.339101 1_455
Ce4 O9 2.339101 1_545
Ce4 O11 2.368374 1_445
Ce4 O11 2.368377 1_455
Ce4 O11 2.368377 1_545
Ce4 O12 2.752324 1_555
O0 Sm0 2.322483 1_555
O1 Sm0 2.337822 1_545
O1 Sm0 2.337822 1_455
O1 Sm0 2.337831 1_555
O2 Sm1 2.187203 1_444
O2 Sm0 2.555305 1_445
O2 Sm0 2.555317 1_455
O2 Sm0 2.555317 1_545
O11 Sm1 2.384077 1_555
O12 Sm1 2.268702 1_455
O12 Sm1 2.268702 1_545
O12 Sm1 2.268706 1_445
