# generated using pymatgen
data_H3N
_symmetry_space_group_name_H-M   'P 1'
_cell_length_a   5.33741100
_cell_length_b   5.33741100
_cell_length_c   5.33741100
_cell_angle_alpha   90.00000000
_cell_angle_beta   90.00000000
_cell_angle_gamma   90.00000000
_symmetry_Int_Tables_number   1
_chemical_formula_structural   H3N
_chemical_formula_sum   'H12 N4'
_cell_volume   152.05193070
_cell_formula_units_Z   4
loop_
 _symmetry_equiv_pos_site_id
 _symmetry_equiv_pos_as_xyz
  1  'x, y, z'
loop_
 _atom_site_type_symbol
 _atom_site_label
 _atom_site_symmetry_multiplicity
 _atom_site_fract_x
 _atom_site_fract_y
 _atom_site_fract_z
 _atom_site_occupancy
  H  H0  1  0.02640300  0.50496600  0.29724100  1
  H  H1  1  0.99503400  0.70275900  0.52640300  1
  H  H2  1  0.20275900  0.97359700  0.00496600  1
  H  H3  1  0.29724100  0.02640300  0.50496600  1
  H  H4  1  0.50496600  0.29724100  0.02640300  1
  H  H5  1  0.47359700  0.49503400  0.79724100  1
  H  H6  1  0.52640300  0.99503400  0.70275900  1
  H  H7  1  0.49503400  0.79724100  0.47359700  1
  H  H8  1  0.70275900  0.52640300  0.99503400  1
  H  H9  1  0.79724100  0.47359700  0.49503400  1
  H  H10  1  0.00496600  0.20275900  0.97359700  1
  H  H11  1  0.97359700  0.00496600  0.20275900  1
  N  N0  1  0.10472500  0.10472500  0.10472500  1
  N  N1  1  0.39527500  0.89527500  0.60472500  1
  N  N2  1  0.60472500  0.39527500  0.89527500  1
  N  N3  1  0.89527500  0.60472500  0.39527500  1
loop_
_geom_bond_atom_site_label_1
_geom_bond_atom_site_label_2
_geom_bond_distance
_geom_bond_site_symmetry_2
H0 N3 1.023296 1_455
H1 N3 1.023296 1_555
H2 N0 1.023296 1_565
H3 N1 1.023296 1_545
H4 N2 1.023296 1_554
H5 N2 1.023296 1_555
H6 N1 1.023296 1_555
H7 N1 1.023296 1_555
H8 N2 1.023296 1_555
H9 N3 1.023296 1_555
H10 N0 1.023296 1_556
H11 N0 1.023296 1_655
