# generated using pymatgen
data_PrAl22O34
_symmetry_space_group_name_H-M   'P 1'
_cell_length_a   5.65509100
_cell_length_b   9.78334200
_cell_length_c   11.87346466
_cell_angle_alpha   74.08284497
_cell_angle_beta   90.00000000
_cell_angle_gamma   90.00000000
_symmetry_Int_Tables_number   1
_chemical_formula_structural   PrAl22O34
_chemical_formula_sum   'Pr1 Al22 O34'
_cell_volume   631.72127929
_cell_formula_units_Z   1
loop_
 _symmetry_equiv_pos_site_id
 _symmetry_equiv_pos_as_xyz
  1  'x, y, z'
loop_
 _atom_site_type_symbol
 _atom_site_label
 _atom_site_symmetry_multiplicity
 _atom_site_fract_x
 _atom_site_fract_y
 _atom_site_fract_z
 _atom_site_occupancy
  Pr  Pr0  1  0.00000000  0.69329700  0.47919900  1
  Al  Al0  1  0.50000000  0.09582800  0.21666500  1
  Al  Al1  1  0.00000000  0.15054000  0.04882700  1
  Al  Al2  1  0.00000000  0.04887300  0.35337300  1
  Al  Al3  1  0.25120300  0.34403000  0.21459900  1
  Al  Al4  1  0.24731700  0.15557900  0.78386200  1
  Al  Al5  1  0.75268300  0.15557900  0.78386200  1
  Al  Al6  1  0.50000000  0.35061600  0.94925800  1
  Al  Al7  1  0.50000000  0.64986600  0.04846000  1
  Al  Al8  1  0.50000000  0.45066400  0.64967500  1
  Al  Al9  1  0.50000000  0.54880500  0.35260600  1
  Al  Al10  1  0.74879700  0.34403000  0.21459900  1
  Al  Al11  1  0.00000000  0.40177500  0.78721600  1
  Al  Al12  1  0.00000000  0.59689700  0.20882700  1
  Al  Al13  1  0.25330800  0.65521400  0.78837100  1
  Al  Al14  1  0.00000000  0.49973300  0.00000900  1
  Al  Al15  1  0.25048400  0.84778200  0.20820000  1
  Al  Al16  1  0.74951600  0.84778200  0.20820000  1
  Al  Al17  1  0.50000000  0.90428100  0.78434000  1
  Al  Al18  1  0.74669200  0.65521400  0.78837100  1
  Al  Al19  1  0.00000000  0.94882800  0.64827300  1
  Al  Al20  1  0.00000000  0.85040900  0.94743700  1
  Al  Al21  1  0.50000000  0.00162500  0.99819500  1
  O  O0  1  0.26231500  0.04350600  0.09981100  1
  O  O1  1  0.73768500  0.04350600  0.09981100  1
  O  O2  1  0.50000000  0.29667000  0.11085400  1
  O  O3  1  0.50000000  0.09433800  0.71769400  1
  O  O4  1  0.24872500  0.15323300  0.29005500  1
  O  O5  1  0.50000000  0.19034500  0.90172000  1
  O  O6  1  0.50000000  0.40567300  0.28790900  1
  O  O7  1  0.75127500  0.15323300  0.29005500  1
  O  O8  1  0.00000000  0.09679400  0.70833500  1
  O  O9  1  0.00000000  0.31057500  0.09837100  1
  O  O10  1  0.50000000  0.52690700  0.50093600  1
  O  O11  1  0.23419500  0.54799600  0.09912400  1
  O  O12  1  0.24749300  0.34663600  0.71051000  1
  O  O13  1  0.00000000  0.40741900  0.28150300  1
  O  O14  1  0.00000000  0.20332800  0.88871300  1
  O  O15  1  0.76580500  0.54799600  0.09912400  1
  O  O16  1  0.75250700  0.34663600  0.71051000  1
  O  O17  1  0.23853100  0.65540500  0.29585300  1
  O  O18  1  0.50000000  0.59679600  0.71345300  1
  O  O19  1  0.23340900  0.45591300  0.89993500  1
  O  O20  1  0.50000000  0.80771200  0.10111000  1
  O  O21  1  0.00000000  0.79591200  0.10996100  1
  O  O22  1  0.00000000  0.59692700  0.71084300  1
  O  O23  1  0.50000000  0.70334300  0.89010700  1
  O  O24  1  0.50000000  0.90474400  0.28156400  1
  O  O25  1  0.76146900  0.65540500  0.29585300  1
  O  O26  1  0.76659100  0.45591300  0.89993500  1
  O  O27  1  0.00000000  0.68853300  0.89966200  1
  O  O28  1  0.00000000  0.89600300  0.29223400  1
  O  O29  1  0.25012700  0.84467600  0.71227600  1
  O  O30  1  0.00000000  0.95269100  0.50023100  1
  O  O31  1  0.74987300  0.84467600  0.71227600  1
  O  O32  1  0.26474000  0.95396200  0.90157700  1
  O  O33  1  0.73526000  0.95396200  0.90157700  1
loop_
_geom_bond_atom_site_label_1
_geom_bond_atom_site_label_2
_geom_bond_distance
_geom_bond_site_symmetry_2
Al0 O24 1.816167 1_545
Al0 O4 1.833672 1_555
Al0 O7 1.833672 1_555
Al0 O2 2.021198 1_555
Al0 O0 2.093636 1_555
Al0 O1 2.093636 1_555
Al1 O9 1.817297 1_555
Al1 O1 1.820937 1_455
Al1 O0 1.820937 1_555
Al1 O14 1.828225 1_554
Al2 O30 1.739543 1_545
Al2 O7 1.779054 1_455
Al2 O4 1.779054 1_555
Al2 O28 1.832820 1_545
Al3 O13 1.817659 1_555
Al3 O4 1.835732 1_555
Al3 O6 1.840886 1_555
Al3 O2 2.006156 1_555
Al3 O9 2.068185 1_555
Al3 O11 2.090543 1_555
Al4 O3 1.810048 1_555
Al4 O12 1.832878 1_555
Al4 O8 1.836821 1_555
Al4 O14 2.010766 1_555
Al4 O32 2.083695 1_545
Al4 O5 2.092107 1_555
Al5 O3 1.810048 1_555
Al5 O16 1.832878 1_555
Al5 O8 1.836821 1_655
Al5 O14 2.010766 1_655
Al5 O33 2.083695 1_545
Al5 O5 2.092107 1_555
Al6 O5 1.806270 1_555
Al6 O19 1.829244 1_555
Al6 O26 1.829244 1_555
Al6 O2 1.845140 1_556
Al7 O23 1.808126 1_554
Al7 O15 1.812668 1_555
Al7 O11 1.812668 1_555
Al7 O20 1.817978 1_555
Al8 O10 1.718362 1_555
Al8 O12 1.787000 1_555
Al8 O16 1.787000 1_555
Al8 O18 1.791981 1_555
Al9 O10 1.714858 1_555
Al9 O6 1.772278 1_555
Al9 O25 1.828282 1_555
Al9 O17 1.828282 1_555
Al10 O13 1.817659 1_655
Al10 O7 1.835732 1_555
Al10 O6 1.840886 1_555
Al10 O2 2.006156 1_555
Al10 O9 2.068185 1_655
Al10 O15 2.090543 1_555
Al11 O16 1.829984 1_455
Al11 O12 1.829984 1_555
Al11 O22 1.875602 1_555
Al11 O14 1.984521 1_555
Al11 O19 2.050079 1_555
Al11 O26 2.050079 1_455
Al12 O13 1.817568 1_555
Al12 O17 1.881314 1_555
Al12 O25 1.881314 1_455
Al12 O21 1.978712 1_555
Al12 O11 2.005330 1_555
Al12 O15 2.005330 1_455
Al13 O29 1.825872 1_555
Al13 O18 1.828379 1_555
Al13 O22 1.874155 1_555
Al13 O23 1.984706 1_555
Al13 O27 2.034856 1_555
Al13 O19 2.037774 1_555
Al14 O9 1.898218 1_555
Al14 O26 1.901930 1_454
Al14 O19 1.901930 1_554
Al14 O27 1.903747 1_554
Al14 O11 1.914863 1_555
Al14 O15 1.914863 1_455
Al15 O24 1.823905 1_555
Al15 O28 1.866226 1_555
Al15 O17 1.885631 1_555
Al15 O21 1.987274 1_555
Al15 O0 1.993906 1_565
Al15 O20 2.008704 1_555
Al16 O24 1.823905 1_555
Al16 O28 1.866226 1_655
Al16 O25 1.885631 1_555
Al16 O21 1.987274 1_655
Al16 O1 1.993906 1_565
Al16 O20 2.008704 1_555
Al17 O3 1.810107 1_565
Al17 O31 1.828273 1_555
Al17 O29 1.828273 1_555
Al17 O23 2.021766 1_555
Al17 O33 2.077268 1_555
Al17 O32 2.077268 1_555
Al18 O31 1.825872 1_555
Al18 O18 1.828379 1_555
Al18 O22 1.874155 1_655
Al18 O23 1.984706 1_555
Al18 O27 2.034856 1_655
Al18 O26 2.037774 1_555
Al19 O30 1.747785 1_555
Al19 O8 1.780551 1_565
Al19 O31 1.786571 1_455
Al19 O29 1.786571 1_555
Al20 O32 1.806012 1_555
Al20 O33 1.806012 1_455
Al20 O27 1.822797 1_555
Al20 O21 1.855740 1_556
Al21 O5 1.887059 1_555
Al21 O33 1.896551 1_545
Al21 O32 1.896551 1_545
Al21 O0 1.923915 1_556
Al21 O1 1.923915 1_556
Al21 O20 1.954665 1_546
O10 Pr0 3.237449 1_555
O10 Pr0 3.237449 1_655
O17 Pr0 2.671846 1_555
O22 Pr0 2.651674 1_555
O25 Pr0 2.671846 1_655
O28 Pr0 2.538938 1_555
O30 Pr0 2.617267 1_555
