# generated using pymatgen
data_Na3Ni2P2(CO7)2
_symmetry_space_group_name_H-M   'P 1'
_cell_length_a   8.91187872
_cell_length_b   10.26454790
_cell_length_c   6.48676000
_cell_angle_alpha   90.00000000
_cell_angle_beta   90.00000000
_cell_angle_gamma   88.39276517
_symmetry_Int_Tables_number   1
_chemical_formula_structural   Na3Ni2P2(CO7)2
_chemical_formula_sum   'Na6 Ni4 P4 C4 O28'
_cell_volume   593.15204226
_cell_formula_units_Z   2
loop_
 _symmetry_equiv_pos_site_id
 _symmetry_equiv_pos_as_xyz
  1  'x, y, z'
loop_
 _atom_site_type_symbol
 _atom_site_label
 _atom_site_symmetry_multiplicity
 _atom_site_fract_x
 _atom_site_fract_y
 _atom_site_fract_z
 _atom_site_occupancy
  Na  Na0  1  0.25349300  0.12296700  0.03394300  1
  Na  Na1  1  0.25349300  0.62296800  0.46605700  1
  Na  Na2  1  0.74950700  0.37990400  0.51362200  1
  Na  Na3  1  0.75134100  0.37795200  0.98598500  1
  Na  Na4  1  0.75134100  0.87795200  0.51401500  1
  Na  Na5  1  0.74950700  0.87990400  0.98637800  1
  Ni  Ni0  1  0.34399400  0.39230400  0.75048200  1
  Ni  Ni1  1  0.34399400  0.89230400  0.74951800  1
  Ni  Ni2  1  0.65127500  0.10902400  0.25190400  1
  Ni  Ni3  1  0.65127500  0.60902400  0.24809600  1
  P  P0  1  0.42352700  0.35817000  0.24864700  1
  P  P1  1  0.42352700  0.85817000  0.25135300  1
  P  P2  1  0.57181600  0.14101800  0.75136800  1
  P  P3  1  0.57181600  0.64101800  0.74863200  1
  C  C0  1  0.07435100  0.35564400  0.74655500  1
  C  C1  1  0.07435100  0.85564400  0.75344500  1
  C  C2  1  0.92236900  0.14163400  0.25228000  1
  C  C3  1  0.92236900  0.64163400  0.24772000  1
  O  O0  1  0.06001000  0.16047500  0.25096900  1
  O  O1  1  0.06001000  0.66047500  0.24903100  1
  O  O2  1  0.13198400  0.47026700  0.73987600  1
  O  O3  1  0.13198400  0.97026700  0.76012400  1
  O  O4  1  0.17604300  0.26209200  0.75295600  1
  O  O5  1  0.17604300  0.76209200  0.74704400  1
  O  O6  1  0.32253200  0.38900300  0.06091400  1
  O  O7  1  0.32717800  0.39886300  0.43624300  1
  O  O8  1  0.32717800  0.89886300  0.06375700  1
  O  O9  1  0.32253200  0.88900300  0.43908600  1
  O  O10  1  0.42297800  0.06976500  0.75856100  1
  O  O11  1  0.42297800  0.56976500  0.74143900  1
  O  O12  1  0.46349600  0.20937400  0.24676100  1
  O  O13  1  0.46349600  0.70937400  0.25323900  1
  O  O14  1  0.53973000  0.29197400  0.75071300  1
  O  O15  1  0.53973000  0.79197400  0.74928700  1
  O  O16  1  0.57472000  0.42969900  0.24595800  1
  O  O17  1  0.57472000  0.92969900  0.25404200  1
  O  O18  1  0.67106700  0.10304100  0.56354200  1
  O  O19  1  0.67431200  0.10524200  0.93813000  1
  O  O20  1  0.67431200  0.60524200  0.56187000  1
  O  O21  1  0.67106700  0.60304100  0.93645800  1
  O  O22  1  0.82127500  0.23725100  0.25318400  1
  O  O23  1  0.82127500  0.73725100  0.24681600  1
  O  O24  1  0.86321700  0.02685200  0.25206500  1
  O  O25  1  0.86321700  0.52685200  0.24793500  1
  O  O26  1  0.93507100  0.33697700  0.74806200  1
  O  O27  1  0.93507100  0.83697700  0.75193800  1
loop_
_geom_bond_atom_site_label_1
_geom_bond_atom_site_label_2
_geom_bond_distance
_geom_bond_site_symmetry_2
Na0 O0 2.250795 1_555
Na0 O8 2.382307 1_545
Na0 O10 2.392561 1_554
Na0 O4 2.404720 1_554
Na0 O12 2.507614 1_555
Na0 O3 2.622868 1_544
Na0 O6 2.821409 1_555
Na1 O1 2.250793 1_555
Na1 O7 2.382316 1_555
Na1 O11 2.392563 1_555
Na1 O5 2.404714 1_555
Na1 O13 2.507610 1_555
Na1 O2 2.622874 1_555
Na1 O9 2.821399 1_555
Na2 O26 2.280521 1_555
Na2 O22 2.314020 1_555
Na2 O16 2.378570 1_555
Na2 O20 2.410397 1_555
Na2 O25 2.521521 1_555
Na2 O14 2.601850 1_555
Na3 O26 2.280615 1_555
Na3 O22 2.329790 1_556
Na3 O16 2.357259 1_556
Na3 O21 2.420826 1_555
Na3 O25 2.510543 1_556
Na3 O14 2.599575 1_555
Na4 O27 2.280615 1_555
Na4 O23 2.329790 1_555
Na4 O17 2.357259 1_555
Na4 O18 2.420826 1_565
Na4 O24 2.510543 1_565
Na4 O15 2.599575 1_555
Na5 O27 2.280521 1_555
Na5 O23 2.314020 1_556
Na5 O17 2.378570 1_556
Na5 O19 2.410397 1_565
Na5 O24 2.521521 1_566
Na5 O15 2.601850 1_555
Ni0 O11 1.972031 1_555
Ni0 O14 2.000663 1_555
Ni0 O6 2.023135 1_556
Ni0 O2 2.032286 1_555
Ni0 O4 2.034497 1_555
Ni0 O7 2.044865 1_555
Ni1 O10 1.972031 1_565
Ni1 O15 2.000663 1_555
Ni1 O9 2.023135 1_555
Ni1 O3 2.032286 1_555
Ni1 O5 2.034497 1_555
Ni1 O8 2.044865 1_556
Ni2 O12 1.940592 1_555
Ni2 O17 1.980970 1_545
Ni2 O18 2.029981 1_555
Ni2 O22 2.034594 1_555
Ni2 O19 2.045964 1_554
Ni2 O24 2.046858 1_555
Ni3 O13 1.940592 1_555
Ni3 O16 1.980970 1_555
Ni3 O21 2.029981 1_554
Ni3 O23 2.034594 1_555
Ni3 O20 2.045964 1_555
Ni3 O25 2.046858 1_555
C0 O26 1.261286 1_455
C0 O2 1.297635 1_555
C0 O4 1.302437 1_555
C1 O27 1.261286 1_455
C1 O3 1.297635 1_555
C1 O5 1.302437 1_555
C2 O0 1.247167 1_655
C2 O24 1.304169 1_555
C2 O22 1.313543 1_555
C3 O1 1.247167 1_655
C3 O25 1.304169 1_555
C3 O23 1.313543 1_555
O6 P0 1.541840 1_555
O7 P0 1.540277 1_555
O8 P1 1.540277 1_555
O9 P1 1.541840 1_555
O10 P2 1.533271 1_555
O11 P3 1.533271 1_555
O12 P0 1.558598 1_555
O13 P1 1.558598 1_555
O14 P2 1.567758 1_555
O15 P3 1.567758 1_555
O16 P0 1.552543 1_555
O17 P1 1.552543 1_555
O18 P2 1.549011 1_555
O19 P2 1.555018 1_555
O20 P3 1.555018 1_555
O21 P3 1.549011 1_555
