# generated using pymatgen
data_Li2Ti3BiO8
_symmetry_space_group_name_H-M   'P 1'
_cell_length_a   6.68617087
_cell_length_b   6.68617087
_cell_length_c   6.68617054
_cell_angle_alpha   53.40991175
_cell_angle_beta   53.40991175
_cell_angle_gamma   53.40990695
_symmetry_Int_Tables_number   1
_chemical_formula_structural   Li2Ti3BiO8
_chemical_formula_sum   'Li2 Ti3 Bi1 O8'
_cell_volume   178.75516750
_cell_formula_units_Z   1
loop_
 _symmetry_equiv_pos_site_id
 _symmetry_equiv_pos_as_xyz
  1  'x, y, z'
loop_
 _atom_site_type_symbol
 _atom_site_label
 _atom_site_symmetry_multiplicity
 _atom_site_fract_x
 _atom_site_fract_y
 _atom_site_fract_z
 _atom_site_occupancy
  Li  Li0  1  0.09414300  0.09414300  0.09414300  1
  Li  Li1  1  0.90585700  0.90585700  0.90585700  1
  Ti  Ti0  1  0.50000000  0.50000000  0.00000000  1
  Ti  Ti1  1  0.00000000  0.50000000  0.50000000  1
  Ti  Ti2  1  0.50000000  0.00000000  0.50000000  1
  Bi  Bi0  1  0.50000000  0.50000000  0.50000000  1
  O  O0  1  0.70999000  0.24413000  0.24413000  1
  O  O1  1  0.24413000  0.24413000  0.70999000  1
  O  O2  1  0.72654500  0.72654500  0.72654500  1
  O  O3  1  0.24413000  0.70999000  0.24413000  1
  O  O4  1  0.75587000  0.29001000  0.75587000  1
  O  O5  1  0.27345500  0.27345500  0.27345500  1
  O  O6  1  0.75587000  0.75587000  0.29001000  1
  O  O7  1  0.29001000  0.75587000  0.75587000  1
loop_
_geom_bond_atom_site_label_1
_geom_bond_atom_site_label_2
_geom_bond_distance
_geom_bond_site_symmetry_2
Li0 O0 1.914674 1_455
Li0 O3 1.914674 1_545
Li0 O1 1.914674 1_554
Li1 O4 1.914674 1_565
Li1 O7 1.914674 1_655
Li1 O6 1.914674 1_556
Bi0 O0 2.363676 1_555
Bi0 O3 2.363676 1_555
Bi0 O7 2.363676 1_555
Bi0 O4 2.363676 1_555
Bi0 O1 2.363677 1_555
Bi0 O6 2.363677 1_555
O0 Ti0 2.025325 1_555
O0 Ti2 2.025325 1_555
O1 Ti1 2.025325 1_555
O1 Ti2 2.025325 1_555
O2 Ti1 2.015839 1_655
O2 Ti2 2.015839 1_565
O2 Ti0 2.015839 1_556
O3 Ti0 2.025325 1_555
O3 Ti1 2.025325 1_555
O4 Ti0 2.025325 1_556
O4 Ti1 2.025325 1_655
O5 Ti2 2.015839 1_555
O5 Ti1 2.015839 1_555
O5 Ti0 2.015839 1_555
O6 Ti2 2.025325 1_565
O6 Ti1 2.025325 1_655
O7 Ti0 2.025325 1_556
O7 Ti2 2.025325 1_565
