# generated using pymatgen
data_Li3CoPCO7
_symmetry_space_group_name_H-M   'P 1'
_cell_length_a   6.39067300
_cell_length_b   9.44849500
_cell_length_c   9.84752637
_cell_angle_alpha   63.68658569
_cell_angle_beta   90.00000000
_cell_angle_gamma   90.00000000
_symmetry_Int_Tables_number   1
_chemical_formula_structural   Li3CoPCO7
_chemical_formula_sum   'Li12 Co4 P4 C4 O28'
_cell_volume   533.00322724
_cell_formula_units_Z   4
loop_
 _symmetry_equiv_pos_site_id
 _symmetry_equiv_pos_as_xyz
  1  'x, y, z'
loop_
 _atom_site_type_symbol
 _atom_site_label
 _atom_site_symmetry_multiplicity
 _atom_site_fract_x
 _atom_site_fract_y
 _atom_site_fract_z
 _atom_site_occupancy
  Li  Li0  1  0.25092200  0.09825500  0.31862700  1
  Li  Li1  1  0.24907800  0.09825500  0.81862700  1
  Li  Li2  1  0.01298800  0.27922600  0.49156400  1
  Li  Li3  1  0.48701200  0.27922600  0.99156400  1
  Li  Li4  1  0.75313300  0.34652400  0.68684000  1
  Li  Li5  1  0.74686700  0.34652400  0.18684000  1
  Li  Li6  1  0.24686700  0.65347600  0.31316000  1
  Li  Li7  1  0.25313300  0.65347600  0.81316000  1
  Li  Li8  1  0.98701200  0.72077400  0.50843600  1
  Li  Li9  1  0.51298800  0.72077400  0.00843600  1
  Li  Li10  1  0.74907800  0.90174500  0.68137300  1
  Li  Li11  1  0.75092200  0.90174500  0.18137300  1
  Co  Co0  1  0.49377800  0.27576600  0.48856200  1
  Co  Co1  1  0.00622200  0.27576600  0.98856200  1
  Co  Co2  1  0.50622200  0.72423400  0.51143800  1
  Co  Co3  1  0.99377800  0.72423400  0.01143800  1
  P  P0  1  0.24757600  0.40867900  0.68571700  1
  P  P1  1  0.25242400  0.40867900  0.18571700  1
  P  P2  1  0.75242400  0.59132100  0.31428300  1
  P  P3  1  0.74757600  0.59132100  0.81428300  1
  C  C0  1  0.74142900  0.03834600  0.37836100  1
  C  C1  1  0.75857100  0.03834600  0.87836100  1
  C  C2  1  0.25857100  0.96165400  0.62163900  1
  C  C3  1  0.24142900  0.96165400  0.12163900  1
  O  O0  1  0.74757900  0.06893900  0.73923200  1
  O  O1  1  0.75242100  0.06893900  0.23923200  1
  O  O2  1  0.26258400  0.11071800  0.51505500  1
  O  O3  1  0.73847900  0.14851000  0.42298500  1
  O  O4  1  0.23741600  0.11071800  0.01505500  1
  O  O5  1  0.76152100  0.14851000  0.92298500  1
  O  O6  1  0.05665300  0.31413300  0.67836200  1
  O  O7  1  0.44095900  0.30993100  0.67927100  1
  O  O8  1  0.05904100  0.30993100  0.17927100  1
  O  O9  1  0.44334700  0.31413300  0.17836200  1
  O  O10  1  0.74466500  0.42062400  0.44563500  1
  O  O11  1  0.25208200  0.42094700  0.33893400  1
  O  O12  1  0.75533500  0.42062400  0.94563500  1
  O  O13  1  0.24791800  0.42094700  0.83893400  1
  O  O14  1  0.74791800  0.57905300  0.66106600  1
  O  O15  1  0.25533500  0.57937600  0.55436500  1
  O  O16  1  0.75208200  0.57905300  0.16106600  1
  O  O17  1  0.24466500  0.57937600  0.05436500  1
  O  O18  1  0.94334700  0.68586700  0.32163800  1
  O  O19  1  0.55904100  0.69006900  0.32072900  1
  O  O20  1  0.94095900  0.69006900  0.82072900  1
  O  O21  1  0.55665300  0.68586700  0.82163800  1
  O  O22  1  0.26152100  0.85149000  0.57701500  1
  O  O23  1  0.73741600  0.88928200  0.48494500  1
  O  O24  1  0.23847900  0.85149000  0.07701500  1
  O  O25  1  0.76258400  0.88928200  0.98494500  1
  O  O26  1  0.25242100  0.93106100  0.26076800  1
  O  O27  1  0.24757900  0.93106100  0.76076800  1
loop_
_geom_bond_atom_site_label_1
_geom_bond_atom_site_label_2
_geom_bond_distance
_geom_bond_site_symmetry_2
Li0 O26 1.902172 1_545
Li0 O2 1.990727 1_555
Li0 O8 2.225691 1_555
Li0 O9 2.254503 1_555
Li1 O27 1.902172 1_545
Li1 O4 1.990727 1_556
Li1 O7 2.225691 1_555
Li1 O6 2.254503 1_555
Li2 O6 2.026889 1_555
Li2 O10 2.096226 1_455
Li2 O11 2.145349 1_555
Li2 O2 2.192309 1_555
Li2 O3 2.408007 1_455
Li3 O9 2.026889 1_556
Li3 O12 2.096226 1_555
Li3 O13 2.145349 1_555
Li3 O4 2.192309 1_556
Li3 O5 2.408007 1_555
Li4 O6 1.971221 1_655
Li4 O7 2.031743 1_555
Li4 O14 2.097183 1_555
Li4 O10 2.158860 1_555
Li4 O5 2.248054 1_555
Li4 O0 2.438576 1_555
Li5 O9 1.971221 1_555
Li5 O8 2.031743 1_655
Li5 O16 2.097183 1_555
Li5 O12 2.158860 1_554
Li5 O3 2.248054 1_555
Li5 O1 2.438576 1_555
Li6 O18 1.971221 1_455
Li6 O19 2.031743 1_555
Li6 O11 2.097183 1_555
Li6 O15 2.158860 1_555
Li6 O24 2.248054 1_555
Li6 O26 2.438576 1_555
Li7 O21 1.971221 1_555
Li7 O20 2.031743 1_455
Li7 O13 2.097183 1_555
Li7 O17 2.158860 1_556
Li7 O22 2.248054 1_555
Li7 O27 2.438576 1_555
Li8 O18 2.026889 1_555
Li8 O15 2.096226 1_655
Li8 O14 2.145349 1_555
Li8 O23 2.192309 1_555
Li8 O22 2.408007 1_655
Li9 O21 2.026889 1_554
Li9 O17 2.096226 1_555
Li9 O16 2.145349 1_555
Li9 O25 2.192309 1_554
Li9 O24 2.408007 1_555
Li10 O0 1.902172 1_565
Li10 O23 1.990727 1_555
Li10 O20 2.225691 1_555
Li10 O21 2.254503 1_555
Li11 O1 1.902172 1_565
Li11 O25 1.990727 1_554
Li11 O19 2.225691 1_555
Li11 O18 2.254503 1_555
Co0 O10 2.027252 1_555
Co0 O7 2.069430 1_555
Co0 O2 2.078998 1_555
Co0 O11 2.155605 1_555
Co0 O3 2.235307 1_555
Co1 O12 2.027252 1_455
Co1 O8 2.069430 1_556
Co1 O4 2.078998 1_556
Co1 O13 2.155605 1_555
Co1 O5 2.235307 1_455
Co2 O15 2.027252 1_555
Co2 O19 2.069430 1_555
Co2 O23 2.078998 1_555
Co2 O14 2.155605 1_555
Co2 O22 2.235307 1_555
Co3 O17 2.027252 1_655
Co3 O20 2.069430 1_554
Co3 O25 2.078998 1_554
Co3 O16 2.155605 1_555
Co3 O24 2.235307 1_655
C0 O1 1.270627 1_555
C0 O3 1.297079 1_555
C0 O23 1.332438 1_545
C1 O0 1.270627 1_555
C1 O5 1.297079 1_555
C1 O25 1.332438 1_545
C2 O27 1.270627 1_555
C2 O22 1.297079 1_555
C2 O2 1.332438 1_565
C3 O26 1.270627 1_555
C3 O24 1.297079 1_555
C3 O4 1.332438 1_565
O6 P0 1.532753 1_555
O7 P0 1.566647 1_555
O8 P1 1.566647 1_555
O9 P1 1.532753 1_555
O10 P2 1.557970 1_555
O11 P1 1.563648 1_555
O12 P3 1.557970 1_555
O13 P0 1.563648 1_555
O14 P3 1.563648 1_555
O15 P0 1.557970 1_555
O16 P2 1.563648 1_555
O17 P1 1.557970 1_555
O18 P2 1.532753 1_555
O19 P2 1.566647 1_555
O20 P3 1.566647 1_555
O21 P3 1.532753 1_555
