# generated using pymatgen
data_Li2Fe(PO4)2
_symmetry_space_group_name_H-M   'P 1'
_cell_length_a   9.15078700
_cell_length_b   9.23851000
_cell_length_c   13.74193800
_cell_angle_alpha   90.00000000
_cell_angle_beta   90.00000000
_cell_angle_gamma   90.00000000
_symmetry_Int_Tables_number   1
_chemical_formula_structural   Li2Fe(PO4)2
_chemical_formula_sum   'Li16 Fe8 P16 O64'
_cell_volume   1161.73845305
_cell_formula_units_Z   8
loop_
 _symmetry_equiv_pos_site_id
 _symmetry_equiv_pos_as_xyz
  1  'x, y, z'
loop_
 _atom_site_type_symbol
 _atom_site_label
 _atom_site_symmetry_multiplicity
 _atom_site_fract_x
 _atom_site_fract_y
 _atom_site_fract_z
 _atom_site_occupancy
  Li  Li0  1  0.78349000  0.96040100  0.37316700  1
  Li  Li1  1  0.71651000  0.96040100  0.87316700  1
  Li  Li2  1  0.04560500  0.77405000  0.37416400  1
  Li  Li3  1  0.45439500  0.77405000  0.87416400  1
  Li  Li4  1  0.95439500  0.72595000  0.87416400  1
  Li  Li5  1  0.54560500  0.72595000  0.37416400  1
  Li  Li6  1  0.28349000  0.53959900  0.37316700  1
  Li  Li7  1  0.21651000  0.53959900  0.87316700  1
  Li  Li8  1  0.78349000  0.46040100  0.12683300  1
  Li  Li9  1  0.71651000  0.46040100  0.62683300  1
  Li  Li10  1  0.45439500  0.27405000  0.62583600  1
  Li  Li11  1  0.04560500  0.27405000  0.12583600  1
  Li  Li12  1  0.95439500  0.22595000  0.62583600  1
  Li  Li13  1  0.54560500  0.22595000  0.12583600  1
  Li  Li14  1  0.21651000  0.03959900  0.62683300  1
  Li  Li15  1  0.28349000  0.03959900  0.12683300  1
  Fe  Fe0  1  0.89515900  0.85981900  0.12531200  1
  Fe  Fe1  1  0.60484100  0.85981900  0.62531200  1
  Fe  Fe2  1  0.39515900  0.64018100  0.12531200  1
  Fe  Fe3  1  0.10484100  0.64018100  0.62531200  1
  Fe  Fe4  1  0.89515900  0.35981900  0.37468800  1
  Fe  Fe5  1  0.60484100  0.35981900  0.87468800  1
  Fe  Fe6  1  0.39515900  0.14018100  0.37468800  1
  Fe  Fe7  1  0.10484100  0.14018100  0.87468800  1
  P  P0  1  0.93339900  0.92588800  0.72263200  1
  P  P1  1  0.56660100  0.92588800  0.22263200  1
  P  P2  1  0.31331700  0.83881900  0.49033600  1
  P  P3  1  0.18668300  0.83881900  0.99033600  1
  P  P4  1  0.81331700  0.66118100  0.49033600  1
  P  P5  1  0.68668300  0.66118100  0.99033600  1
  P  P6  1  0.43339900  0.57411200  0.72263200  1
  P  P7  1  0.06660100  0.57411200  0.22263200  1
  P  P8  1  0.56660100  0.42588800  0.27736800  1
  P  P9  1  0.93339900  0.42588800  0.77736800  1
  P  P10  1  0.31331700  0.33881900  0.00966400  1
  P  P11  1  0.18668300  0.33881900  0.50966400  1
  P  P12  1  0.81331700  0.16118100  0.00966400  1
  P  P13  1  0.68668300  0.16118100  0.50966400  1
  P  P14  1  0.43339900  0.07411200  0.77736800  1
  P  P15  1  0.06660100  0.07411200  0.27736800  1
  O  O0  1  0.30050600  0.00547800  0.47447600  1
  O  O1  1  0.19949400  0.00547800  0.97447600  1
  O  O2  1  0.99933300  0.97707300  0.35448500  1
  O  O3  1  0.50066700  0.97707300  0.85448500  1
  O  O4  1  0.53354000  0.97951200  0.32905800  1
  O  O5  1  0.96646000  0.97951200  0.82905800  1
  O  O6  1  0.76271700  0.92141700  0.71984600  1
  O  O7  1  0.73728300  0.92141700  0.21984600  1
  O  O8  1  0.27583400  0.81186400  0.08475400  1
  O  O9  1  0.22416600  0.81186400  0.58475400  1
  O  O10  1  0.47597300  0.79805100  0.51054300  1
  O  O11  1  0.02402700  0.79805100  0.01054300  1
  O  O12  1  0.99544100  0.76883400  0.72009900  1
  O  O13  1  0.50455900  0.76883400  0.22009900  1
  O  O14  1  0.26087700  0.75323500  0.40242300  1
  O  O15  1  0.23912300  0.75323500  0.90242300  1
  O  O16  1  0.76087700  0.74676500  0.40242300  1
  O  O17  1  0.73912300  0.74676500  0.90242300  1
  O  O18  1  0.00455900  0.73116600  0.22009900  1
  O  O19  1  0.49544100  0.73116600  0.72009900  1
  O  O20  1  0.97597300  0.70194900  0.51054300  1
  O  O21  1  0.52402700  0.70194900  0.01054300  1
  O  O22  1  0.77583400  0.68813600  0.08475400  1
  O  O23  1  0.72416600  0.68813600  0.58475400  1
  O  O24  1  0.26271700  0.57858300  0.71984600  1
  O  O25  1  0.23728300  0.57858300  0.21984600  1
  O  O26  1  0.46646000  0.52048800  0.82905800  1
  O  O27  1  0.03354000  0.52048800  0.32905800  1
  O  O28  1  0.49933300  0.52292700  0.35448500  1
  O  O29  1  0.00066700  0.52292700  0.85448500  1
  O  O30  1  0.80050600  0.49452200  0.47447600  1
  O  O31  1  0.69949400  0.49452200  0.97447600  1
  O  O32  1  0.30050600  0.50547800  0.02552400  1
  O  O33  1  0.19949400  0.50547800  0.52552400  1
  O  O34  1  0.50066700  0.47707300  0.64551500  1
  O  O35  1  0.99933300  0.47707300  0.14551500  1
  O  O36  1  0.53354000  0.47951200  0.17094200  1
  O  O37  1  0.96646000  0.47951200  0.67094200  1
  O  O38  1  0.76271700  0.42141700  0.78015400  1
  O  O39  1  0.73728300  0.42141700  0.28015400  1
  O  O40  1  0.27583400  0.31186400  0.41524600  1
  O  O41  1  0.22416600  0.31186400  0.91524600  1
  O  O42  1  0.47597300  0.29805100  0.98945700  1
  O  O43  1  0.02402700  0.29805100  0.48945700  1
  O  O44  1  0.50455900  0.26883400  0.27990100  1
  O  O45  1  0.99544100  0.26883400  0.77990100  1
  O  O46  1  0.26087700  0.25323500  0.09757700  1
  O  O47  1  0.23912300  0.25323500  0.59757700  1
  O  O48  1  0.76087700  0.24676500  0.09757700  1
  O  O49  1  0.73912300  0.24676500  0.59757700  1
  O  O50  1  0.49544100  0.23116600  0.77990100  1
  O  O51  1  0.00455900  0.23116600  0.27990100  1
  O  O52  1  0.97597300  0.20194900  0.98945700  1
  O  O53  1  0.52402700  0.20194900  0.48945700  1
  O  O54  1  0.77583400  0.18813600  0.41524600  1
  O  O55  1  0.72416600  0.18813600  0.91524600  1
  O  O56  1  0.26271700  0.07858300  0.78015400  1
  O  O57  1  0.23728300  0.07858300  0.28015400  1
  O  O58  1  0.46646000  0.02048800  0.67094200  1
  O  O59  1  0.03354000  0.02048800  0.17094200  1
  O  O60  1  0.00066700  0.02292700  0.64551500  1
  O  O61  1  0.49933300  0.02292700  0.14551500  1
  O  O62  1  0.80050600  0.99452200  0.02552400  1
  O  O63  1  0.69949400  0.99452200  0.52552400  1
loop_
_geom_bond_atom_site_label_1
_geom_bond_atom_site_label_2
_geom_bond_distance
_geom_bond_site_symmetry_2
Li0 O2 1.997695 1_555
Li0 O16 2.024810 1_555
Li0 O7 2.178908 1_555
Li0 O54 2.183073 1_565
Li0 O63 2.252478 1_555
Li0 O4 2.372772 1_555
Li1 O3 1.997695 1_555
Li1 O17 2.024810 1_555
Li1 O6 2.178908 1_555
Li1 O55 2.183073 1_565
Li1 O62 2.252478 1_556
Li1 O5 2.372772 1_555
Li2 O2 1.941754 1_455
Li2 O14 2.017008 1_555
Li2 O20 2.088540 1_455
Li2 O18 2.186406 1_555
Li2 O27 2.425668 1_555
Li3 O3 1.941754 1_555
Li3 O15 2.017008 1_555
Li3 O21 2.088540 1_556
Li3 O19 2.186406 1_555
Li3 O26 2.425668 1_555
Li4 O29 1.941754 1_655
Li4 O17 2.017008 1_555
Li4 O11 2.088540 1_656
Li4 O12 2.186406 1_555
Li4 O5 2.425668 1_555
Li5 O28 1.941754 1_555
Li5 O16 2.017008 1_555
Li5 O10 2.088540 1_555
Li5 O13 2.186406 1_555
Li5 O4 2.425668 1_555
Li6 O28 1.997695 1_555
Li6 O14 2.024810 1_555
Li6 O25 2.178908 1_555
Li6 O40 2.183073 1_555
Li6 O33 2.252478 1_555
Li6 O27 2.372772 1_555
Li7 O29 1.997695 1_555
Li7 O15 2.024810 1_555
Li7 O24 2.178908 1_555
Li7 O41 2.183073 1_555
Li7 O32 2.252478 1_556
Li7 O26 2.372772 1_555
Li8 O35 1.997695 1_555
Li8 O48 2.024810 1_555
Li8 O39 2.178908 1_555
Li8 O22 2.183073 1_555
Li8 O31 2.252478 1_554
Li8 O36 2.372772 1_555
Li9 O34 1.997695 1_555
Li9 O49 2.024810 1_555
Li9 O38 2.178908 1_555
Li9 O23 2.183073 1_555
Li9 O30 2.252478 1_555
Li9 O37 2.372772 1_555
Li10 O34 1.941754 1_555
Li10 O47 2.017008 1_555
Li10 O53 2.088540 1_555
Li10 O50 2.186406 1_555
Li10 O58 2.425668 1_555
Li11 O35 1.941754 1_455
Li11 O46 2.017008 1_555
Li11 O52 2.088540 1_454
Li11 O51 2.186406 1_555
Li11 O59 2.425668 1_555
Li12 O60 1.941754 1_655
Li12 O49 2.017008 1_555
Li12 O43 2.088540 1_655
Li12 O45 2.186406 1_555
Li12 O37 2.425668 1_555
Li13 O61 1.941754 1_555
Li13 O48 2.017008 1_555
Li13 O42 2.088540 1_554
Li13 O44 2.186406 1_555
Li13 O36 2.425668 1_555
Li14 O60 1.997695 1_555
Li14 O47 2.024810 1_555
Li14 O56 2.178908 1_555
Li14 O9 2.183073 1_545
Li14 O0 2.252478 1_555
Li14 O58 2.372772 1_555
Li15 O61 1.997695 1_555
Li15 O46 2.024810 1_555
Li15 O57 2.178908 1_555
Li15 O8 2.183073 1_545
Li15 O1 2.252478 1_554
Li15 O59 2.372772 1_555
Fe0 O22 2.004649 1_555
Fe0 O7 2.024496 1_555
Fe0 O18 2.027690 1_655
Fe0 O62 2.044332 1_555
Fe0 O59 2.049380 1_665
Fe0 O11 2.050280 1_655
Fe1 O23 2.004649 1_555
Fe1 O6 2.024496 1_555
Fe1 O19 2.027690 1_555
Fe1 O63 2.044332 1_555
Fe1 O58 2.049380 1_565
Fe1 O10 2.050280 1_555
Fe2 O8 2.004649 1_555
Fe2 O25 2.024496 1_555
Fe2 O13 2.027690 1_555
Fe2 O32 2.044332 1_555
Fe2 O36 2.049380 1_555
Fe2 O21 2.050280 1_555
Fe3 O9 2.004649 1_555
Fe3 O24 2.024496 1_555
Fe3 O12 2.027690 1_455
Fe3 O33 2.044332 1_555
Fe3 O37 2.049380 1_455
Fe3 O20 2.050280 1_455
Fe4 O54 2.004649 1_555
Fe4 O39 2.024496 1_555
Fe4 O51 2.027690 1_655
Fe4 O30 2.044332 1_555
Fe4 O27 2.049380 1_655
Fe4 O43 2.050280 1_655
Fe5 O55 2.004649 1_555
Fe5 O38 2.024496 1_555
Fe5 O50 2.027690 1_555
Fe5 O31 2.044332 1_555
Fe5 O26 2.049380 1_555
Fe5 O42 2.050280 1_555
Fe6 O40 2.004649 1_555
Fe6 O57 2.024496 1_555
Fe6 O44 2.027690 1_555
Fe6 O0 2.044332 1_555
Fe6 O4 2.049380 1_545
Fe6 O53 2.050280 1_555
Fe7 O41 2.004649 1_555
Fe7 O56 2.024496 1_555
Fe7 O45 2.027690 1_455
Fe7 O1 2.044332 1_555
Fe7 O5 2.049380 1_445
Fe7 O52 2.050280 1_455
O0 P2 1.559443 1_545
O1 P3 1.559443 1_545
O2 P15 1.518438 1_665
O3 P14 1.518438 1_565
O4 P1 1.573486 1_555
O5 P0 1.573486 1_555
O6 P0 1.562890 1_555
O7 P1 1.562890 1_555
O8 P3 1.552745 1_554
O9 P2 1.552745 1_555
O10 P2 1.560252 1_555
O11 P3 1.560252 1_554
O12 P0 1.558452 1_555
O13 P1 1.558452 1_555
O14 P2 1.521487 1_555
O15 P3 1.521487 1_555
O16 P4 1.521487 1_555
O17 P5 1.521487 1_555
O18 P7 1.558452 1_555
O19 P6 1.558452 1_555
O20 P4 1.560252 1_555
O21 P5 1.560252 1_554
O22 P5 1.552745 1_554
O23 P4 1.552745 1_555
O24 P6 1.562890 1_555
O25 P7 1.562890 1_555
O26 P6 1.573486 1_555
O27 P7 1.573486 1_555
O28 P8 1.518438 1_555
O29 P9 1.518438 1_455
O30 P4 1.559443 1_555
O31 P5 1.559443 1_555
O32 P10 1.559443 1_555
O33 P11 1.559443 1_555
O34 P6 1.518438 1_555
O35 P7 1.518438 1_655
O36 P8 1.573486 1_555
O37 P9 1.573486 1_555
O38 P9 1.562890 1_555
O39 P8 1.562890 1_555
O40 P11 1.552745 1_555
O41 P10 1.552745 1_556
O42 P10 1.560252 1_556
O43 P11 1.560252 1_555
O44 P8 1.558452 1_555
O45 P9 1.558452 1_555
O46 P10 1.521487 1_555
O47 P11 1.521487 1_555
O48 P12 1.521487 1_555
O49 P13 1.521487 1_555
O50 P14 1.558452 1_555
O51 P15 1.558452 1_555
O52 P12 1.560252 1_556
O53 P13 1.560252 1_555
O54 P13 1.552745 1_555
O55 P12 1.552745 1_556
O56 P14 1.562890 1_555
O57 P15 1.562890 1_555
O58 P14 1.573486 1_555
O59 P15 1.573486 1_555
O60 P0 1.518438 1_445
O61 P1 1.518438 1_545
O62 P12 1.559443 1_565
O63 P13 1.559443 1_565
