# generated using pymatgen
data_Sm2TiO5
_symmetry_space_group_name_H-M   'P 1'
_cell_length_a   3.69659900
_cell_length_b   7.63032100
_cell_length_c   15.89703900
_cell_angle_alpha   90.00000000
_cell_angle_beta   90.00000000
_cell_angle_gamma   90.00000000
_symmetry_Int_Tables_number   1
_chemical_formula_structural   Sm2TiO5
_chemical_formula_sum   'Sm8 Ti4 O20'
_cell_volume   448.39564929
_cell_formula_units_Z   4
loop_
 _symmetry_equiv_pos_site_id
 _symmetry_equiv_pos_as_xyz
  1  'x, y, z'
loop_
 _atom_site_type_symbol
 _atom_site_label
 _atom_site_symmetry_multiplicity
 _atom_site_fract_x
 _atom_site_fract_y
 _atom_site_fract_z
 _atom_site_occupancy
  Sm  Sm0  1  0.25000000  0.12247500  0.07913400  1
  Sm  Sm1  1  0.25000000  0.14097600  0.73870300  1
  Sm  Sm2  1  0.75000000  0.35902400  0.23870300  1
  Sm  Sm3  1  0.75000000  0.37752500  0.57913400  1
  Sm  Sm4  1  0.25000000  0.62247500  0.42086600  1
  Sm  Sm5  1  0.25000000  0.64097600  0.76129700  1
  Sm  Sm6  1  0.75000000  0.85902400  0.26129700  1
  Sm  Sm7  1  0.75000000  0.87752500  0.92086600  1
  Ti  Ti0  1  0.25000000  0.12405000  0.42211300  1
  Ti  Ti1  1  0.75000000  0.37595000  0.92211300  1
  Ti  Ti2  1  0.25000000  0.62405000  0.07788700  1
  Ti  Ti3  1  0.75000000  0.87595000  0.57788700  1
  O  O0  1  0.75000000  0.09013400  0.17148500  1
  O  O1  1  0.75000000  0.08807800  0.45351100  1
  O  O2  1  0.75000000  0.10164200  0.64813900  1
  O  O3  1  0.75000000  0.15639600  0.99065200  1
  O  O4  1  0.25000000  0.25503200  0.32409100  1
  O  O5  1  0.75000000  0.24496800  0.82409100  1
  O  O6  1  0.25000000  0.34360400  0.49065200  1
  O  O7  1  0.25000000  0.39835800  0.14813900  1
  O  O8  1  0.25000000  0.41192200  0.95351100  1
  O  O9  1  0.25000000  0.40986600  0.67148500  1
  O  O10  1  0.75000000  0.59013400  0.32851500  1
  O  O11  1  0.75000000  0.58807800  0.04648900  1
  O  O12  1  0.75000000  0.60164200  0.85186100  1
  O  O13  1  0.75000000  0.65639600  0.50934800  1
  O  O14  1  0.25000000  0.75503200  0.17590900  1
  O  O15  1  0.75000000  0.74496800  0.67590900  1
  O  O16  1  0.25000000  0.84360400  0.00934800  1
  O  O17  1  0.25000000  0.89835800  0.35186100  1
  O  O18  1  0.25000000  0.91192200  0.54648900  1
  O  O19  1  0.25000000  0.90986600  0.82851500  1
loop_
_geom_bond_atom_site_label_1
_geom_bond_atom_site_label_2
_geom_bond_distance
_geom_bond_site_symmetry_2
O0 Sm6 2.268962 1_545
O0 Sm2 2.313305 1_555
O0 Sm0 2.373278 1_555
O0 Sm0 2.373278 1_655
O1 Ti0 1.934085 1_655
O1 Ti0 1.934085 1_555
O1 Ti3 2.555238 1_545
O2 Ti3 2.052529 1_545
O2 Sm1 2.361996 1_555
O2 Sm1 2.361996 1_655
O2 Sm3 2.373752 1_555
O3 Ti1 1.998419 1_555
O3 Sm0 2.337035 1_556
O3 Sm0 2.337035 1_656
O3 Sm7 2.399709 1_545
O4 Ti0 1.851227 1_555
O4 Sm2 2.426607 1_555
O4 Sm2 2.426607 1_455
O5 Ti1 1.851227 1_555
O5 Sm1 2.426607 1_555
O5 Sm1 2.426607 1_655
O6 Ti0 1.998419 1_555
O6 Sm3 2.337035 1_455
O6 Sm3 2.337035 1_555
O6 Sm4 2.399709 1_555
O7 Ti2 2.052529 1_555
O7 Sm2 2.361996 1_555
O7 Sm2 2.361996 1_455
O7 Sm0 2.373752 1_555
O8 Ti1 1.934085 1_555
O8 Ti1 1.934085 1_455
O8 Ti2 2.555238 1_556
O9 Sm5 2.268962 1_555
O9 Sm1 2.313305 1_555
O9 Sm3 2.373278 1_455
O9 Sm3 2.373278 1_555
O10 Sm2 2.268962 1_555
O10 Sm6 2.313305 1_555
O10 Sm4 2.373278 1_655
O10 Sm4 2.373278 1_555
O11 Ti2 1.934085 1_555
O11 Ti2 1.934085 1_655
O11 Ti1 2.555238 1_554
O12 Ti1 2.052529 1_555
O12 Sm5 2.361996 1_655
O12 Sm5 2.361996 1_555
O12 Sm7 2.373752 1_555
O13 Ti3 1.998419 1_555
O13 Sm4 2.337035 1_555
O13 Sm4 2.337035 1_655
O13 Sm3 2.399709 1_555
O14 Ti2 1.851227 1_555
O14 Sm6 2.426607 1_555
O14 Sm6 2.426607 1_455
O15 Ti3 1.851227 1_555
O15 Sm5 2.426607 1_655
O15 Sm5 2.426607 1_555
O16 Ti2 1.998419 1_555
O16 Sm7 2.337035 1_554
O16 Sm7 2.337035 1_454
O16 Sm0 2.399709 1_565
O17 Ti0 2.052529 1_565
O17 Sm6 2.361996 1_555
O17 Sm6 2.361996 1_455
O17 Sm4 2.373752 1_555
O18 Ti3 1.934085 1_555
O18 Ti3 1.934085 1_455
O18 Ti0 2.555238 1_565
O19 Sm1 2.268962 1_565
O19 Sm5 2.313305 1_555
O19 Sm7 2.373278 1_555
O19 Sm7 2.373278 1_455
