# generated using pymatgen
data_Li3Fe4WO8
_symmetry_space_group_name_H-M   'P 1'
_cell_length_a   10.63272410
_cell_length_b   10.63272432
_cell_length_c   14.96304094
_cell_angle_alpha   19.44845167
_cell_angle_beta   19.44845162
_cell_angle_gamma   33.69175336
_symmetry_Int_Tables_number   1
_chemical_formula_structural   Li3Fe4WO8
_chemical_formula_sum   'Li3 Fe4 W1 O8'
_cell_volume   160.74472767
_cell_formula_units_Z   1
loop_
 _symmetry_equiv_pos_site_id
 _symmetry_equiv_pos_as_xyz
  1  'x, y, z'
loop_
 _atom_site_type_symbol
 _atom_site_label
 _atom_site_symmetry_multiplicity
 _atom_site_fract_x
 _atom_site_fract_y
 _atom_site_fract_z
 _atom_site_occupancy
  Li  Li0  1  0.00000000  0.50000000  0.50000000  1
  Li  Li1  1  0.50000000  0.00000000  0.50000000  1
  Li  Li2  1  0.50000000  0.50000000  0.50000000  1
  Fe  Fe0  1  0.00000000  0.00000000  0.00000000  1
  Fe  Fe1  1  0.00000000  0.50000000  0.00000000  1
  Fe  Fe2  1  0.50000000  0.00000000  0.00000000  1
  Fe  Fe3  1  0.00000000  0.00000000  0.50000000  1
  W  W0  1  0.50000000  0.50000000  0.00000000  1
  O  O0  1  0.99741300  0.99741300  0.25963600  1
  O  O1  1  0.02985800  0.49314900  0.23164600  1
  O  O2  1  0.49314900  0.02985800  0.23164600  1
  O  O3  1  0.00258700  0.00258700  0.74036400  1
  O  O4  1  0.51080800  0.51080800  0.23546900  1
  O  O5  1  0.97014200  0.50685100  0.76835400  1
  O  O6  1  0.50685100  0.97014200  0.76835400  1
  O  O7  1  0.48919200  0.48919200  0.76453100  1
loop_
_geom_bond_atom_site_label_1
_geom_bond_atom_site_label_2
_geom_bond_distance
_geom_bond_site_symmetry_2
Li0 O2 2.059386 1_456
Li0 O6 2.059386 1_554
Li0 O4 2.194836 1_555
Li0 O7 2.194836 1_455
Li0 O0 2.231537 1_455
Li0 O3 2.231537 1_555
Li1 O1 2.059386 1_546
Li1 O5 2.059386 1_554
Li1 O4 2.194837 1_555
Li1 O7 2.194837 1_545
Li1 O0 2.231537 1_545
Li1 O3 2.231537 1_555
Li2 O0 2.175002 1_446
Li2 O3 2.175002 1_664
Li2 O1 2.252758 1_655
Li2 O5 2.252758 1_455
Li2 O2 2.252758 1_565
Li2 O6 2.252758 1_545
Fe0 O7 2.145744 1_445
Fe0 O4 2.145744 1_554
Fe0 O6 2.271304 1_544
Fe0 O2 2.271304 1_455
Fe0 O5 2.271304 1_454
Fe0 O1 2.271304 1_545
Fe1 O3 2.131065 1_564
Fe1 O0 2.131065 1_445
Fe1 O7 2.165531 1_554
Fe1 O4 2.165531 1_455
Fe1 O6 2.175104 1_445
Fe1 O2 2.175104 1_564
Fe2 O3 2.131065 1_654
Fe2 O0 2.131065 1_445
Fe2 O7 2.165531 1_554
Fe2 O4 2.165531 1_545
Fe2 O5 2.175104 1_445
Fe2 O1 2.175104 1_654
Fe3 O4 2.082811 1_446
Fe3 O7 2.082811 1_554
Fe3 O2 2.092329 1_555
Fe3 O6 2.092329 1_445
Fe3 O1 2.092329 1_555
Fe3 O5 2.092329 1_445
O0 W0 2.055735 1_556
O1 W0 2.112284 1_555
O2 W0 2.112284 1_555
O3 W0 2.055735 1_555
O5 W0 2.112284 1_556
O6 W0 2.112284 1_556
