# generated using pymatgen
data_Li3YbPCO7
_symmetry_space_group_name_H-M   'P 1'
_cell_length_a   6.61229400
_cell_length_b   5.03366100
_cell_length_c   8.61319274
_cell_angle_alpha   89.76615159
_cell_angle_beta   90.00000000
_cell_angle_gamma   90.00000000
_symmetry_Int_Tables_number   1
_chemical_formula_structural   Li3YbPCO7
_chemical_formula_sum   'Li6 Yb2 P2 C2 O14'
_cell_volume   286.67951926
_cell_formula_units_Z   2
loop_
 _symmetry_equiv_pos_site_id
 _symmetry_equiv_pos_as_xyz
  1  'x, y, z'
loop_
 _atom_site_type_symbol
 _atom_site_label
 _atom_site_symmetry_multiplicity
 _atom_site_fract_x
 _atom_site_fract_y
 _atom_site_fract_z
 _atom_site_occupancy
  Li  Li0  1  0.51133600  0.98409800  0.01044400  1
  Li  Li1  1  0.81123900  0.50284300  0.14951000  1
  Li  Li2  1  0.49028300  0.53136600  0.47796200  1
  Li  Li3  1  0.99028300  0.46863400  0.52203800  1
  Li  Li4  1  0.31123900  0.49715700  0.85049000  1
  Li  Li5  1  0.01133600  0.01590200  0.98955600  1
  Yb  Yb0  1  0.22969200  0.02900600  0.30462100  1
  Yb  Yb1  1  0.72969200  0.97099400  0.69537900  1
  P  P0  1  0.76574600  0.98461600  0.31517500  1
  P  P1  1  0.26574600  0.01538400  0.68482500  1
  C  C0  1  0.26058500  0.52183600  0.14237300  1
  C  C1  1  0.76058500  0.47816400  0.85762700  1
  O  O0  1  0.28672300  0.72019100  0.04799800  1
  O  O1  1  0.20560100  0.29313800  0.08541600  1
  O  O2  1  0.91919800  0.86022000  0.19813300  1
  O  O3  1  0.56137100  0.04404700  0.23578400  1
  O  O4  1  0.28506800  0.54729900  0.29086600  1
  O  O5  1  0.86074600  0.24604300  0.37422800  1
  O  O6  1  0.73780900  0.78521000  0.45165200  1
  O  O7  1  0.23780900  0.21479000  0.54834800  1
  O  O8  1  0.36074600  0.75395700  0.62577200  1
  O  O9  1  0.78506800  0.45270100  0.70913400  1
  O  O10  1  0.06137100  0.95595300  0.76421600  1
  O  O11  1  0.41919800  0.13978000  0.80186700  1
  O  O12  1  0.70560100  0.70686200  0.91458400  1
  O  O13  1  0.78672300  0.27980900  0.95200200  1
loop_
_geom_bond_atom_site_label_1
_geom_bond_atom_site_label_2
_geom_bond_distance
_geom_bond_site_symmetry_2
Li0 O3 1.993083 1_565
Li0 O0 2.017834 1_555
Li0 O11 2.049697 1_564
Li0 O12 2.070896 1_554
Li0 O13 2.403903 1_564
Li0 O1 2.632868 1_565
Li1 O2 1.981723 1_555
Li1 O13 2.048479 1_554
Li1 O5 2.346056 1_555
Li1 O12 2.370655 1_554
Li2 O8 1.903031 1_555
Li2 O6 2.088183 1_555
Li2 O4 2.107980 1_555
Li2 O7 2.384536 1_555
Li3 O5 1.903031 1_555
Li3 O7 2.088183 1_655
Li3 O9 2.107980 1_555
Li3 O6 2.384536 1_555
Li4 O11 1.981723 1_555
Li4 O0 2.048479 1_556
Li4 O8 2.346056 1_555
Li4 O1 2.370655 1_556
Li5 O10 1.993083 1_545
Li5 O13 2.017834 1_455
Li5 O2 2.049697 1_446
Li5 O1 2.070896 1_556
Li5 O0 2.403903 1_546
Li5 O12 2.632868 1_445
C0 O4 1.296076 1_555
C0 O0 1.296499 1_555
C0 O1 1.304875 1_555
C1 O9 1.296076 1_555
C1 O13 1.296499 1_555
C1 O12 1.304875 1_555
O0 Yb0 2.733542 1_565
O1 Yb0 2.310269 1_555
O2 P0 1.563032 1_555
O2 Yb0 2.405117 1_665
O3 P0 1.543266 1_545
O3 Yb0 2.273071 1_555
O4 Yb0 2.455579 1_565
O4 Yb0 2.636666 1_555
O5 P0 1.546109 1_545
O5 Yb0 2.740415 1_655
O6 P0 1.553640 1_555
O6 Yb1 2.302255 1_555
O7 P1 1.553640 1_555
O7 Yb0 2.302255 1_555
O8 P1 1.546109 1_565
O8 Yb1 2.740415 1_555
O9 Yb1 2.455579 1_545
O9 Yb1 2.636666 1_555
O10 P1 1.543266 1_565
O10 Yb1 2.273071 1_455
O11 P1 1.563032 1_555
O11 Yb1 2.405117 1_545
O12 Yb1 2.310269 1_555
O13 Yb1 2.733542 1_545
