# generated using pymatgen
data_K6Cr2O9
_symmetry_space_group_name_H-M   'P 1'
_cell_length_a   6.41423896
_cell_length_b   6.41423896
_cell_length_c   7.86959679
_cell_angle_alpha   89.11606678
_cell_angle_beta   89.11606678
_cell_angle_gamma   83.81035518
_symmetry_Int_Tables_number   1
_chemical_formula_structural   K6Cr2O9
_chemical_formula_sum   'K6 Cr2 O9'
_cell_volume   321.81796951
_cell_formula_units_Z   1
loop_
 _symmetry_equiv_pos_site_id
 _symmetry_equiv_pos_as_xyz
  1  'x, y, z'
loop_
 _atom_site_type_symbol
 _atom_site_label
 _atom_site_symmetry_multiplicity
 _atom_site_fract_x
 _atom_site_fract_y
 _atom_site_fract_z
 _atom_site_occupancy
  K  K0  1  0.50029800  0.50029800  0.98258400  1
  K  K1  1  0.99862300  0.50482900  0.26620800  1
  K  K2  1  0.00302900  0.49339600  0.77959700  1
  K  K3  1  0.99587300  0.99587300  0.53551400  1
  K  K4  1  0.49339600  0.00302900  0.77959700  1
  K  K5  1  0.50482900  0.99862300  0.26620800  1
  Cr  Cr0  1  0.51109500  0.51109500  0.50921500  1
  Cr  Cr1  1  0.97016100  0.97016100  0.98604300  1
  O  O0  1  0.79716000  0.79716000  0.05964300  1
  O  O1  1  0.16339700  0.82765700  0.87286400  1
  O  O2  1  0.67595000  0.67595000  0.60226700  1
  O  O3  1  0.32849800  0.67101200  0.39195400  1
  O  O4  1  0.67101200  0.32849800  0.39195400  1
  O  O5  1  0.37001200  0.37001200  0.65243100  1
  O  O6  1  0.82765700  0.16339700  0.87286400  1
  O  O7  1  0.23189400  0.23189400  0.07434000  1
  O  O8  1  0.09261600  0.09261600  0.15921900  1
loop_
_geom_bond_atom_site_label_1
_geom_bond_atom_site_label_2
_geom_bond_distance
_geom_bond_site_symmetry_2
K0 O7 2.647961 1_556
K0 O5 2.903758 1_555
K0 O0 2.910737 1_556
K0 O6 2.974469 1_555
K0 O1 2.974469 1_555
K1 O7 2.651508 1_655
K1 O4 2.662344 1_555
K1 O3 2.678805 1_655
K1 O0 2.697513 1_555
K1 O8 2.787932 1_655
K2 O5 2.592062 1_555
K2 O6 2.593162 1_455
K2 O1 2.596364 1_555
K2 O2 2.688903 1_455
K2 O7 3.130915 1_556
K2 O0 3.144019 1_456
K3 O1 3.019347 1_655
K3 O6 3.019347 1_565
K3 O3 3.034778 1_655
K3 O4 3.034778 1_565
K3 O8 3.083667 1_665
K3 O2 3.088594 1_555
K4 O5 2.592062 1_555
K4 O1 2.593162 1_545
K4 O6 2.596364 1_555
K4 O2 2.688903 1_545
K4 O7 3.130915 1_556
K4 O0 3.144019 1_546
K5 O7 2.651508 1_565
K5 O3 2.662344 1_555
K5 O4 2.678805 1_565
K5 O0 2.697513 1_555
K5 O8 2.787932 1_565
Cr0 O4 1.737971 1_555
Cr0 O3 1.737971 1_555
Cr0 O5 1.738313 1_555
Cr0 O2 1.749687 1_555
Cr1 O6 1.706403 1_565
Cr1 O1 1.706403 1_655
Cr1 O0 1.738988 1_556
Cr1 O8 1.813909 1_666
O7 O8 1.475685 1_555
