# generated using pymatgen
data_Ta3(OF)5
_symmetry_space_group_name_H-M   'P 1'
_cell_length_a   12.81991983
_cell_length_b   12.81991983
_cell_length_c   12.81991983
_cell_angle_alpha   162.31726189
_cell_angle_beta   161.98439134
_cell_angle_gamma   25.34784957
_symmetry_Int_Tables_number   1
_chemical_formula_structural   Ta3(OF)5
_chemical_formula_sum   'Ta3 O5 F5'
_cell_volume   197.87038215
_cell_formula_units_Z   1
loop_
 _symmetry_equiv_pos_site_id
 _symmetry_equiv_pos_as_xyz
  1  'x, y, z'
loop_
 _atom_site_type_symbol
 _atom_site_label
 _atom_site_symmetry_multiplicity
 _atom_site_fract_x
 _atom_site_fract_y
 _atom_site_fract_z
 _atom_site_occupancy
  Ta  Ta0  1  0.00000000  0.00000000  0.00000000  1
  Ta  Ta1  1  0.15514700  0.15514700  0.00000000  1
  Ta  Ta2  1  0.84485300  0.84485300  0.00000000  1
  O  O0  1  0.84583700  0.34583700  0.50000000  1
  O  O1  1  0.50000000  0.00000000  0.50000000  1
  O  O2  1  0.07766200  0.07766200  0.00000000  1
  O  O3  1  0.92233800  0.92233800  0.00000000  1
  O  O4  1  0.15416300  0.65416300  0.50000000  1
  F  F0  1  0.65638500  0.15638500  0.50000000  1
  F  F1  1  0.23141000  0.23141000  0.00000000  1
  F  F2  1  0.76859000  0.76859000  0.00000000  1
  F  F3  1  0.00000000  0.50000000  0.50000000  1
  F  F4  1  0.34361500  0.84361500  0.50000000  1
loop_
_geom_bond_atom_site_label_1
_geom_bond_atom_site_label_2
_geom_bond_distance
_geom_bond_site_symmetry_2
O0 Ta2 1.970567 1_556
O0 Ta2 1.970567 1_545
O1 Ta0 2.007202 1_656
O1 Ta0 2.007202 1_555
O2 Ta1 1.938296 1_555
O2 Ta0 1.942724 1_555
O3 Ta2 1.938296 1_555
O3 Ta0 1.942724 1_665
O4 Ta1 1.970567 1_566
O4 Ta1 1.970567 1_555
F0 Ta1 2.007441 1_656
F0 Ta1 2.007441 1_555
F1 Ta1 1.907727 1_555
F2 Ta2 1.907727 1_555
F3 Ta0 1.970413 1_566
F3 Ta0 1.970413 1_555
F4 Ta2 2.007441 1_455
F4 Ta2 2.007441 1_556
