# generated using pymatgen
data_Li2Cr2O7
_symmetry_space_group_name_H-M   'P 1'
_cell_length_a   6.87500900
_cell_length_b   6.71074900
_cell_length_c   12.98584337
_cell_angle_alpha   72.43380148
_cell_angle_beta   90.00000000
_cell_angle_gamma   90.00000000
_symmetry_Int_Tables_number   1
_chemical_formula_structural   Li2Cr2O7
_chemical_formula_sum   'Li8 Cr8 O28'
_cell_volume   571.18316678
_cell_formula_units_Z   4
loop_
 _symmetry_equiv_pos_site_id
 _symmetry_equiv_pos_as_xyz
  1  'x, y, z'
loop_
 _atom_site_type_symbol
 _atom_site_label
 _atom_site_symmetry_multiplicity
 _atom_site_fract_x
 _atom_site_fract_y
 _atom_site_fract_z
 _atom_site_occupancy
  Li  Li0  1  0.89082100  0.45289700  0.38609900  1
  Li  Li1  1  0.39082100  0.54710300  0.11390100  1
  Li  Li2  1  0.67441700  0.20042700  0.65578700  1
  Li  Li3  1  0.17441700  0.79957300  0.84421300  1
  Li  Li4  1  0.82558300  0.20042700  0.15578700  1
  Li  Li5  1  0.32558300  0.79957300  0.34421300  1
  Li  Li6  1  0.60917900  0.45289700  0.88609900  1
  Li  Li7  1  0.10917900  0.54710300  0.61390100  1
  Cr  Cr0  1  0.92833000  0.69665100  0.11635900  1
  Cr  Cr1  1  0.42833000  0.30334900  0.38364100  1
  Cr  Cr2  1  0.17295100  0.10887800  0.59079500  1
  Cr  Cr3  1  0.67295100  0.89112200  0.90920500  1
  Cr  Cr4  1  0.32704900  0.10887800  0.09079500  1
  Cr  Cr5  1  0.82704900  0.89112200  0.40920500  1
  Cr  Cr6  1  0.57167000  0.69665100  0.61635900  1
  Cr  Cr7  1  0.07167000  0.30334900  0.88364100  1
  O  O0  1  0.78756300  0.90613900  0.02978800  1
  O  O1  1  0.99294300  0.77346900  0.21794600  1
  O  O2  1  0.29209100  0.51272200  0.34040200  1
  O  O3  1  0.12073800  0.64546300  0.05404300  1
  O  O4  1  0.59766100  0.12379700  0.83962000  1
  O  O5  1  0.62073800  0.35453700  0.44595700  1
  O  O6  1  0.99151700  0.27914400  0.55709000  1
  O  O7  1  0.79209100  0.48727800  0.15959800  1
  O  O8  1  0.33691700  0.19737400  0.65625000  1
  O  O9  1  0.49294300  0.22653100  0.28205400  1
  O  O10  1  0.28756300  0.09386100  0.47021200  1
  O  O11  1  0.90233900  0.12379700  0.33962000  1
  O  O12  1  0.83691700  0.80262600  0.84375000  1
  O  O13  1  0.50848300  0.27914400  0.05709000  1
  O  O14  1  0.49151700  0.72085600  0.94291000  1
  O  O15  1  0.16308300  0.19737400  0.15625000  1
  O  O16  1  0.09766100  0.87620300  0.66038000  1
  O  O17  1  0.71243700  0.90613900  0.52978800  1
  O  O18  1  0.50705700  0.77346900  0.71794600  1
  O  O19  1  0.66308300  0.80262600  0.34375000  1
  O  O20  1  0.20790900  0.51272200  0.84040200  1
  O  O21  1  0.00848300  0.72085600  0.44291000  1
  O  O22  1  0.37926200  0.64546300  0.55404300  1
  O  O23  1  0.40233900  0.87620300  0.16038000  1
  O  O24  1  0.87926200  0.35453700  0.94595700  1
  O  O25  1  0.70790900  0.48727800  0.65959800  1
  O  O26  1  0.00705700  0.22653100  0.78205400  1
  O  O27  1  0.21243700  0.09386100  0.97021200  1
loop_
_geom_bond_atom_site_label_1
_geom_bond_atom_site_label_2
_geom_bond_distance
_geom_bond_site_symmetry_2
Li0 O5 2.044013 1_555
Li0 O6 2.281773 1_555
Li0 O21 2.287559 1_655
Li0 O11 2.460220 1_555
Li1 O3 2.044013 1_555
Li1 O14 2.281773 1_554
Li1 O13 2.287559 1_555
Li1 O23 2.460220 1_555
Li2 O25 1.954108 1_555
Li2 O8 2.320398 1_555
Li2 O4 2.345369 1_555
Li2 O6 2.503143 1_555
Li2 O5 2.632377 1_555
Li3 O20 1.954108 1_555
Li3 O12 2.320398 1_455
Li3 O16 2.345369 1_555
Li3 O14 2.503143 1_555
Li3 O3 2.632377 1_556
Li4 O7 1.954108 1_555
Li4 O15 2.320398 1_655
Li4 O11 2.345369 1_555
Li4 O13 2.503143 1_555
Li4 O24 2.632377 1_554
Li5 O2 1.954108 1_555
Li5 O19 2.320398 1_555
Li5 O23 2.345369 1_555
Li5 O21 2.503143 1_555
Li5 O22 2.632377 1_555
Li6 O24 2.044013 1_555
Li6 O13 2.281773 1_556
Li6 O14 2.287559 1_555
Li6 O4 2.460220 1_555
Li7 O22 2.044013 1_555
Li7 O21 2.281773 1_555
Li7 O6 2.287559 1_455
Li7 O16 2.460220 1_555
Cr0 O1 1.616735 1_555
Cr0 O3 1.640260 1_655
Cr0 O7 1.640285 1_555
Cr0 O0 1.795209 1_555
Cr1 O9 1.616735 1_555
Cr1 O5 1.640260 1_555
Cr1 O2 1.640285 1_555
Cr1 O10 1.795209 1_555
Cr2 O8 1.628065 1_555
Cr2 O16 1.634271 1_545
Cr2 O6 1.658665 1_455
Cr2 O10 1.782762 1_555
Cr3 O12 1.628065 1_555
Cr3 O4 1.634271 1_565
Cr3 O14 1.658665 1_555
Cr3 O0 1.782762 1_556
Cr4 O15 1.628065 1_555
Cr4 O23 1.634271 1_545
Cr4 O13 1.658665 1_555
Cr4 O27 1.782762 1_554
Cr5 O19 1.628065 1_555
Cr5 O11 1.634271 1_565
Cr5 O21 1.658665 1_655
Cr5 O17 1.782762 1_555
Cr6 O18 1.616735 1_555
Cr6 O22 1.640260 1_555
Cr6 O25 1.640285 1_555
Cr6 O17 1.795209 1_555
Cr7 O26 1.616735 1_555
Cr7 O24 1.640260 1_455
Cr7 O20 1.640285 1_555
Cr7 O27 1.795209 1_555
