# generated using pymatgen
data_LiMn(SO4)2
_symmetry_space_group_name_H-M   'P 1'
_cell_length_a   8.31279100
_cell_length_b   8.36795402
_cell_length_c   8.95800150
_cell_angle_alpha   90.12488968
_cell_angle_beta   117.46079640
_cell_angle_gamma   118.36934765
_symmetry_Int_Tables_number   1
_chemical_formula_structural   LiMn(SO4)2
_chemical_formula_sum   'Li3 Mn3 S6 O24'
_cell_volume   466.56336528
_cell_formula_units_Z   3
loop_
 _symmetry_equiv_pos_site_id
 _symmetry_equiv_pos_as_xyz
  1  'x, y, z'
loop_
 _atom_site_type_symbol
 _atom_site_label
 _atom_site_symmetry_multiplicity
 _atom_site_fract_x
 _atom_site_fract_y
 _atom_site_fract_z
 _atom_site_occupancy
  Li  Li0  1  0.69917500  0.82663600  0.53526700  1
  Li  Li1  1  0.40802500  0.81602800  0.62815000  1
  Li  Li2  1  0.04082000  0.21589700  0.63537800  1
  Mn  Mn0  1  0.30164300  0.65871200  0.94999100  1
  Mn  Mn1  1  0.71313800  0.35749200  0.06664100  1
  Mn  Mn2  1  0.30175800  0.15303800  0.44828900  1
  S  S0  1  0.21835600  0.95907800  0.75631200  1
  S  S1  1  0.49059800  0.53355900  0.74946600  1
  S  S2  1  0.77021600  0.24256100  0.74535800  1
  S  S3  1  0.20683700  0.75239400  0.25415900  1
  S  S4  1  0.50382700  0.46561300  0.24229400  1
  S  S5  1  0.81082700  0.05581000  0.25743400  1
  O  O0  1  0.62125000  0.90408200  0.09781600  1
  O  O1  1  0.18703700  0.69532000  0.08442200  1
  O  O2  1  0.04187700  0.98882300  0.70180900  1
  O  O3  1  0.37093700  0.48284600  0.06498800  1
  O  O4  1  0.26910200  0.96253700  0.61412200  1
  O  O5  1  0.14918900  0.76370900  0.78028400  1
  O  O6  1  0.38009300  0.62754300  0.77068800  1
  O  O7  1  0.62743200  0.65193400  0.68845500  1
  O  O8  1  0.97555200  0.35478200  0.75147900  1
  O  O9  1  0.27706000  0.95610200  0.28490900  1
  O  O10  1  0.36366300  0.72569800  0.40037100  1
  O  O11  1  0.67042200  0.64776600  0.37101000  1
  O  O12  1  0.30659800  0.34208800  0.61707700  1
  O  O13  1  0.61427100  0.28317500  0.60471400  1
  O  O14  1  0.69103400  0.04074500  0.70795400  1
  O  O15  1  0.99186100  0.63404700  0.22868800  1
  O  O16  1  0.34988300  0.33469700  0.28858000  1
  O  O17  1  0.60243100  0.36478800  0.21431300  1
  O  O18  1  0.87314300  0.24677200  0.22832500  1
  O  O19  1  0.78202900  0.04858200  0.40773800  1
  O  O20  1  0.60974300  0.50949300  0.92049500  1
  O  O21  1  0.99135900  0.02776500  0.29366600  1
  O  O22  1  0.81375600  0.31704100  0.91985700  1
  O  O23  1  0.41145000  0.09944200  0.92069300  1
loop_
_geom_bond_atom_site_label_1
_geom_bond_atom_site_label_2
_geom_bond_distance
_geom_bond_site_symmetry_2
Li0 O11 1.946429 1_555
Li0 O7 2.076276 1_555
Li0 O2 2.140219 1_655
Li0 O10 2.144976 1_555
Li0 O19 2.179016 1_565
Li0 O14 2.409832 1_565
Li1 O14 1.954667 1_565
Li1 O10 1.976148 1_555
Li1 O4 2.016123 1_555
Li1 O6 2.026359 1_555
Li2 O19 1.955983 1_455
Li2 O8 1.959868 1_455
Li2 O2 1.995177 1_545
Li2 O12 2.034929 1_555
Mn0 O1 1.945632 1_556
Mn0 O3 1.955412 1_556
Mn0 O5 1.994053 1_555
Mn0 O6 2.049158 1_555
Mn0 O0 2.141825 1_556
Mn0 O8 2.441618 1_455
Mn1 O17 1.943295 1_555
Mn1 O22 1.955644 1_554
Mn1 O20 2.019625 1_554
Mn1 O18 2.031133 1_555
Mn1 O23 2.116355 1_554
Mn1 O15 2.149178 1_555
Mn2 O21 1.949945 1_455
Mn2 O13 1.961075 1_555
Mn2 O9 2.071407 1_545
Mn2 O16 2.115905 1_555
Mn2 O12 2.159480 1_555
Mn2 O4 2.189219 1_545
O0 S5 1.467125 1_565
O1 S3 1.502809 1_555
O2 S0 1.462688 1_555
O3 S4 1.515919 1_555
O4 S0 1.511724 1_555
O5 S0 1.507161 1_555
O6 S1 1.531481 1_555
O7 S1 1.441778 1_555
O8 S2 1.479396 1_555
O9 S3 1.492111 1_555
O10 S3 1.472469 1_555
O11 S4 1.443722 1_555
O12 S1 1.517541 1_555
O13 S2 1.515766 1_555
O14 S2 1.461264 1_555
O15 S3 1.472240 1_655
O16 S4 1.472677 1_555
O17 S4 1.514028 1_555
O18 S5 1.493176 1_555
O19 S5 1.468908 1_555
O20 S1 1.469752 1_555
O21 S5 1.516042 1_555
O22 S2 1.490804 1_555
O23 S0 1.464685 1_545
