# generated using pymatgen
data_Li2VCrP2(HO5)2
_symmetry_space_group_name_H-M   'P 1'
_cell_length_a   5.17448550
_cell_length_b   10.66045989
_cell_length_c   7.36525261
_cell_angle_alpha   75.33946424
_cell_angle_beta   108.66300075
_cell_angle_gamma   82.92311724
_symmetry_Int_Tables_number   1
_chemical_formula_structural   Li2VCrP2(HO5)2
_chemical_formula_sum   'Li4 V2 Cr2 P4 H4 O20'
_cell_volume   363.03086424
_cell_formula_units_Z   2
loop_
 _symmetry_equiv_pos_site_id
 _symmetry_equiv_pos_as_xyz
  1  'x, y, z'
loop_
 _atom_site_type_symbol
 _atom_site_label
 _atom_site_symmetry_multiplicity
 _atom_site_fract_x
 _atom_site_fract_y
 _atom_site_fract_z
 _atom_site_occupancy
  Li  Li0  1  0.54589200  0.19776700  0.62604700  1
  Li  Li1  1  0.04690500  0.69722600  0.12418200  1
  Li  Li2  1  0.95315000  0.30284100  0.87575000  1
  Li  Li3  1  0.45411600  0.80230100  0.37390500  1
  V  V0  1  0.50006600  0.50003000  0.49999500  1
  V  V1  1  0.00012300  0.00000000  0.00006600  1
  Cr  Cr0  1  0.50014100  0.49983800  0.00011100  1
  Cr  Cr1  1  0.99982500  0.99995200  0.49995200  1
  P  P0  1  0.49685300  0.18114100  0.05235500  1
  P  P1  1  0.99757500  0.68091600  0.55207900  1
  P  P2  1  0.00259500  0.31898100  0.44800600  1
  P  P3  1  0.50320800  0.81882700  0.94755800  1
  H  H0  1  0.32997000  0.02961700  0.31329600  1
  H  H1  1  0.82909000  0.53058800  0.81357700  1
  H  H2  1  0.17088400  0.46948000  0.18645700  1
  H  H3  1  0.66974000  0.97043200  0.68678700  1
  O  O0  1  0.81465400  0.02397600  0.69768300  1
  O  O1  1  0.31507700  0.52339500  0.19769200  1
  O  O2  1  0.68510200  0.47656600  0.80233500  1
  O  O3  1  0.18513400  0.97604700  0.30231100  1
  O  O4  1  0.62598800  0.10194200  0.27954400  1
  O  O5  1  0.12662300  0.60173400  0.77936200  1
  O  O6  1  0.87358400  0.39824100  0.22072500  1
  O  O7  1  0.37374500  0.89811700  0.72039100  1
  O  O8  1  0.13197400  0.17104900  0.48761100  1
  O  O9  1  0.63374600  0.67101700  0.98707300  1
  O  O10  1  0.36626200  0.32890200  0.01295900  1
  O  O11  1  0.86775000  0.82882500  0.51237000  1
  O  O12  1  0.24425500  0.12707900  0.94721300  1
  O  O13  1  0.74440200  0.62723000  0.44681400  1
  O  O14  1  0.25563500  0.37281700  0.55314500  1
  O  O15  1  0.75571900  0.87298200  0.05269000  1
  O  O16  1  0.71556700  0.17039800  0.94824700  1
  O  O17  1  0.21611800  0.66985300  0.44782500  1
  O  O18  1  0.78397300  0.33022200  0.55214900  1
  O  O19  1  0.28456000  0.82967200  0.05173700  1
loop_
_geom_bond_atom_site_label_1
_geom_bond_atom_site_label_2
_geom_bond_distance
_geom_bond_site_symmetry_2
Li0 O0 2.011376 1_555
Li0 O18 2.067971 1_555
Li0 O14 2.076668 1_555
Li0 O8 2.146571 1_555
Li0 O16 2.177258 1_555
Li1 O1 2.007597 1_555
Li1 O19 2.063241 1_555
Li1 O15 2.086930 1_455
Li1 O9 2.139318 1_454
Li1 O17 2.187021 1_555
Li2 O2 2.006542 1_555
Li2 O16 2.063040 1_555
Li2 O12 2.086799 1_655
Li2 O10 2.138656 1_656
Li2 O18 2.186711 1_555
Li3 O3 2.011629 1_555
Li3 O17 2.067637 1_555
Li3 O13 2.076904 1_555
Li3 O11 2.144568 1_555
Li3 O19 2.177012 1_555
Cr0 O10 2.018714 1_555
Cr0 O9 2.020366 1_554
Cr0 O1 2.028643 1_555
Cr0 O2 2.028821 1_554
Cr0 O6 2.032563 1_555
Cr0 O5 2.033848 1_554
Cr1 O8 2.016409 1_665
Cr1 O11 2.016488 1_555
Cr1 O3 2.030831 1_655
Cr1 O0 2.031253 1_565
Cr1 O7 2.034196 1_655
Cr1 O4 2.034199 1_565
H0 O3 0.992168 1_545
H1 O2 0.991976 1_555
H2 O1 0.992030 1_555
H3 O0 0.992310 1_565
O0 V1 2.056683 1_656
O1 V0 2.057251 1_555
O2 V0 2.057301 1_555
O3 V1 2.055569 1_565
O4 P0 1.545820 1_555
O5 P1 1.546330 1_455
O6 P2 1.546497 1_655
O7 P3 1.545935 1_555
O8 P2 1.549936 1_555
O9 P3 1.550372 1_555
O10 P0 1.550146 1_555
O11 P1 1.550122 1_555
O12 P0 1.550479 1_556
O12 V1 2.012980 1_556
O13 P1 1.550534 1_555
O13 V0 2.015242 1_555
O14 P2 1.550692 1_555
O14 V0 2.015668 1_555
O15 P3 1.550724 1_554
O15 V1 2.013234 1_665
O16 P0 1.565181 1_556
O16 V1 2.060053 1_656
O17 P1 1.565580 1_455
O17 V0 2.053069 1_555
O18 P2 1.565540 1_655
O18 V0 2.052865 1_555
O19 P3 1.565389 1_554
O19 V1 2.059450 1_565
