# generated using pymatgen
data_NbV2O7
_symmetry_space_group_name_H-M   'P 1'
_cell_length_a   8.91529900
_cell_length_b   8.91529900
_cell_length_c   8.91529900
_cell_angle_alpha   90.00000000
_cell_angle_beta   90.00000000
_cell_angle_gamma   90.00000000
_symmetry_Int_Tables_number   1
_chemical_formula_structural   NbV2O7
_chemical_formula_sum   'Nb4 V8 O28'
_cell_volume   708.61075434
_cell_formula_units_Z   4
loop_
 _symmetry_equiv_pos_site_id
 _symmetry_equiv_pos_as_xyz
  1  'x, y, z'
loop_
 _atom_site_type_symbol
 _atom_site_label
 _atom_site_symmetry_multiplicity
 _atom_site_fract_x
 _atom_site_fract_y
 _atom_site_fract_z
 _atom_site_occupancy
  Nb  Nb0  1  0.00000000  0.00000000  0.00000000  1
  Nb  Nb1  1  0.00000000  0.50000000  0.50000000  1
  Nb  Nb2  1  0.50000000  0.00000000  0.50000000  1
  Nb  Nb3  1  0.50000000  0.50000000  0.00000000  1
  V  V0  1  0.11558800  0.88441200  0.38441200  1
  V  V1  1  0.11558800  0.61558800  0.88441200  1
  V  V2  1  0.38441200  0.38441200  0.38441200  1
  V  V3  1  0.38441200  0.11558800  0.88441200  1
  V  V4  1  0.61558800  0.61558800  0.61558800  1
  V  V5  1  0.61558800  0.88441200  0.11558800  1
  V  V6  1  0.88441200  0.11558800  0.61558800  1
  V  V7  1  0.88441200  0.38441200  0.11558800  1
  O  O0  1  0.00000000  0.00000000  0.50000000  1
  O  O1  1  0.00000000  0.50000000  0.00000000  1
  O  O2  1  0.06149000  0.69822100  0.41037400  1
  O  O3  1  0.06149000  0.80177900  0.91037400  1
  O  O4  1  0.08962600  0.56149000  0.69822100  1
  O  O5  1  0.08962600  0.93851000  0.19822100  1
  O  O6  1  0.19822100  0.08962600  0.93851000  1
  O  O7  1  0.19822100  0.41037400  0.43851000  1
  O  O8  1  0.30177900  0.58962600  0.93851000  1
  O  O9  1  0.30177900  0.91037400  0.43851000  1
  O  O10  1  0.41037400  0.06149000  0.69822100  1
  O  O11  1  0.41037400  0.43851000  0.19822100  1
  O  O12  1  0.43851000  0.30177900  0.91037400  1
  O  O13  1  0.43851000  0.19822100  0.41037400  1
  O  O14  1  0.50000000  0.50000000  0.50000000  1
  O  O15  1  0.50000000  0.00000000  0.00000000  1
  O  O16  1  0.56149000  0.69822100  0.08962600  1
  O  O17  1  0.56149000  0.80177900  0.58962600  1
  O  O18  1  0.58962600  0.56149000  0.80177900  1
  O  O19  1  0.58962600  0.93851000  0.30177900  1
  O  O20  1  0.69822100  0.08962600  0.56149000  1
  O  O21  1  0.69822100  0.41037400  0.06149000  1
  O  O22  1  0.80177900  0.58962600  0.56149000  1
  O  O23  1  0.80177900  0.91037400  0.06149000  1
  O  O24  1  0.91037400  0.06149000  0.80177900  1
  O  O25  1  0.91037400  0.43851000  0.30177900  1
  O  O26  1  0.93851000  0.19822100  0.08962600  1
  O  O27  1  0.93851000  0.30177900  0.58962600  1
loop_
_geom_bond_atom_site_label_1
_geom_bond_atom_site_label_2
_geom_bond_distance
_geom_bond_site_symmetry_2
Nb0 O3 2.015437 1_544
Nb0 O23 2.015437 1_445
Nb0 O24 2.015437 1_454
Nb0 O6 2.015437 1_554
Nb0 O26 2.015437 1_455
Nb0 O5 2.015437 1_545
Nb1 O4 2.015437 1_555
Nb1 O7 2.015437 1_555
Nb1 O27 2.015437 1_455
Nb1 O2 2.015437 1_555
Nb1 O25 2.015437 1_455
Nb1 O22 2.015437 1_455
Nb2 O17 2.015437 1_545
Nb2 O10 2.015437 1_555
Nb2 O9 2.015437 1_545
Nb2 O13 2.015437 1_555
Nb2 O20 2.015437 1_555
Nb2 O19 2.015437 1_545
Nb3 O16 2.015437 1_555
Nb3 O8 2.015437 1_554
Nb3 O12 2.015437 1_554
Nb3 O21 2.015437 1_555
Nb3 O18 2.015437 1_554
Nb3 O11 2.015437 1_555
O0 V6 1.784881 1_455
O0 V0 1.784881 1_545
O1 V7 1.784881 1_455
O1 V1 1.784881 1_554
O2 V0 1.744023 1_555
O3 V1 1.744023 1_555
O4 V1 1.744023 1_555
O5 V0 1.744023 1_555
O6 V3 1.744023 1_555
O7 V2 1.744023 1_555
O8 V1 1.744023 1_555
O9 V0 1.744023 1_555
O10 V3 1.744023 1_555
O11 V2 1.744023 1_555
O12 V3 1.744023 1_555
O13 V2 1.744023 1_555
O14 V2 1.784881 1_555
O14 V4 1.784881 1_555
O15 V5 1.784881 1_545
O15 V3 1.784881 1_554
O16 V5 1.744023 1_555
O17 V4 1.744023 1_555
O18 V4 1.744023 1_555
O19 V5 1.744023 1_555
O20 V6 1.744023 1_555
O21 V7 1.744023 1_555
O22 V4 1.744023 1_555
O23 V5 1.744023 1_555
O24 V6 1.744023 1_555
O25 V7 1.744023 1_555
O26 V7 1.744023 1_555
O27 V6 1.744023 1_555
