# generated using pymatgen
data_LiMnSbO4
_symmetry_space_group_name_H-M   'P 1'
_cell_length_a   6.25919500
_cell_length_b   8.71823900
_cell_length_c   6.25906100
_cell_angle_alpha   89.99926581
_cell_angle_beta   89.99763828
_cell_angle_gamma   90.00037366
_symmetry_Int_Tables_number   1
_chemical_formula_structural   LiMnSbO4
_chemical_formula_sum   'Li4 Mn4 Sb4 O16'
_cell_volume   341.55168821
_cell_formula_units_Z   4
loop_
 _symmetry_equiv_pos_site_id
 _symmetry_equiv_pos_as_xyz
  1  'x, y, z'
loop_
 _atom_site_type_symbol
 _atom_site_label
 _atom_site_symmetry_multiplicity
 _atom_site_fract_x
 _atom_site_fract_y
 _atom_site_fract_z
 _atom_site_occupancy
  Li  Li0  1  0.21126200  0.00000000  0.99999600  1
  Li  Li1  1  0.78873900  0.50000700  0.00000200  1
  Li  Li2  1  0.99999500  0.24999900  0.21127200  1
  Li  Li3  1  0.00000100  0.74999300  0.78872900  1
  Mn  Mn0  1  0.75254300  0.87499800  0.24749600  1
  Mn  Mn1  1  0.24746100  0.37501600  0.75251000  1
  Mn  Mn2  1  0.24732900  0.62500000  0.24735800  1
  Mn  Mn3  1  0.75267900  0.12499500  0.75265200  1
  Sb  Sb0  1  0.49999600  0.24999600  0.23454400  1
  Sb  Sb1  1  0.23459000  0.00000400  0.49999700  1
  Sb  Sb2  1  0.76541200  0.50000300  0.50000000  1
  Sb  Sb3  1  0.50000000  0.74999600  0.76545600  1
  O  O0  1  0.26499700  0.25271900  0.03054600  1
  O  O1  1  0.73498200  0.24725000  0.03048500  1
  O  O2  1  0.03057400  0.99727400  0.26501500  1
  O  O3  1  0.96950100  0.50277300  0.26503800  1
  O  O4  1  0.03050900  0.00275600  0.73496400  1
  O  O5  1  0.96942700  0.49727200  0.73497900  1
  O  O6  1  0.26502000  0.74723500  0.96952700  1
  O  O7  1  0.73499900  0.75271700  0.96944900  1
  O  O8  1  0.47943600  0.01757200  0.27284000  1
  O  O9  1  0.52056000  0.48243600  0.27283900  1
  O  O10  1  0.27286100  0.23241300  0.47941400  1
  O  O11  1  0.72713100  0.26757400  0.47942800  1
  O  O12  1  0.27286200  0.76757700  0.52058300  1
  O  O13  1  0.72712500  0.73241100  0.52057900  1
  O  O14  1  0.52055900  0.51757500  0.72715000  1
  O  O15  1  0.47944900  0.98243900  0.72715400  1
loop_
_geom_bond_atom_site_label_1
_geom_bond_atom_site_label_2
_geom_bond_distance
_geom_bond_site_symmetry_2
Li0 O2 2.007735 1_546
Li0 O4 2.008112 1_555
Li0 O0 2.236977 1_556
Li0 O6 2.237353 1_545
Li0 O15 2.399455 1_545
Li0 O8 2.399511 1_556
Li1 O5 2.007758 1_554
Li1 O3 2.008166 1_555
Li1 O7 2.236906 1_554
Li1 O1 2.237281 1_555
Li1 O9 2.399399 1_555
Li1 O14 2.399569 1_554
Li2 O0 2.007796 1_655
Li2 O1 2.008149 1_555
Li2 O2 2.237048 1_645
Li2 O3 2.237451 1_555
Li2 O11 2.399426 1_555
Li2 O10 2.399476 1_655
Li3 O7 2.007776 1_455
Li3 O6 2.008219 1_555
Li3 O5 2.237023 1_455
Li3 O4 2.237352 1_565
Li3 O12 2.399370 1_555
Li3 O13 2.399554 1_455
Mn0 O2 2.043750 1_655
Mn0 O7 2.043851 1_554
Mn0 O13 2.119448 1_555
Mn0 O8 2.119519 1_565
Mn1 O5 2.043689 1_455
Mn1 O0 2.043840 1_556
Mn1 O14 2.119389 1_555
Mn1 O10 2.119614 1_555
Mn2 O3 2.042490 1_455
Mn2 O6 2.042509 1_554
Mn2 O9 2.120166 1_555
Mn2 O12 2.120204 1_555
Mn3 O4 2.042571 1_655
Mn3 O1 2.042637 1_556
Mn3 O15 2.120117 1_545
Mn3 O11 2.120192 1_555
O0 Sb0 1.947970 1_555
O1 Sb0 1.948083 1_555
O2 Sb1 1.947959 1_565
O3 Sb2 1.948088 1_555
O4 Sb1 1.948078 1_555
O5 Sb2 1.947940 1_555
O6 Sb3 1.948104 1_555
O7 Sb3 1.947950 1_555
O8 Sb0 2.044505 1_555
O8 Sb1 2.096051 1_555
O9 Sb0 2.044652 1_555
O9 Sb2 2.096183 1_555
O10 Sb1 2.044368 1_555
O10 Sb0 2.096074 1_555
O11 Sb2 2.044548 1_555
O11 Sb0 2.096223 1_555
O12 Sb1 2.044529 1_565
O12 Sb3 2.096186 1_555
O13 Sb2 2.044375 1_555
O13 Sb3 2.096069 1_555
O14 Sb3 2.044494 1_555
O14 Sb2 2.096060 1_555
O15 Sb3 2.044673 1_555
O15 Sb1 2.096196 1_565
