# generated using pymatgen
data_LiFe4(PO4)3
_symmetry_space_group_name_H-M   'P 1'
_cell_length_a   6.42471900
_cell_length_b   10.11167700
_cell_length_c   15.81783600
_cell_angle_alpha   90.00000000
_cell_angle_beta   90.00000000
_cell_angle_gamma   90.00000000
_symmetry_Int_Tables_number   1
_chemical_formula_structural   LiFe4(PO4)3
_chemical_formula_sum   'Li4 Fe16 P12 O48'
_cell_volume   1027.60070692
_cell_formula_units_Z   4
loop_
 _symmetry_equiv_pos_site_id
 _symmetry_equiv_pos_as_xyz
  1  'x, y, z'
loop_
 _atom_site_type_symbol
 _atom_site_label
 _atom_site_symmetry_multiplicity
 _atom_site_fract_x
 _atom_site_fract_y
 _atom_site_fract_z
 _atom_site_occupancy
  Li  Li0  1  0.75000000  0.25592400  0.71380200  1
  Li  Li1  1  0.25000000  0.24407600  0.21380200  1
  Li  Li2  1  0.75000000  0.75592400  0.78619800  1
  Li  Li3  1  0.25000000  0.74407600  0.28619800  1
  Fe  Fe0  1  0.25000000  0.05484900  0.62382600  1
  Fe  Fe1  1  0.75000000  0.06553900  0.12673000  1
  Fe  Fe2  1  0.49821700  0.24754200  0.94038400  1
  Fe  Fe3  1  0.00178300  0.24754200  0.94038400  1
  Fe  Fe4  1  0.50178300  0.25245800  0.44038400  1
  Fe  Fe5  1  0.99821700  0.25245800  0.44038400  1
  Fe  Fe6  1  0.25000000  0.43446100  0.62673000  1
  Fe  Fe7  1  0.75000000  0.44515100  0.12382600  1
  Fe  Fe8  1  0.25000000  0.55484900  0.87617400  1
  Fe  Fe9  1  0.75000000  0.56553900  0.37327000  1
  Fe  Fe10  1  0.00178300  0.74754200  0.55961600  1
  Fe  Fe11  1  0.49821700  0.74754200  0.55961600  1
  Fe  Fe12  1  0.50178300  0.75245800  0.05961600  1
  Fe  Fe13  1  0.99821700  0.75245800  0.05961600  1
  Fe  Fe14  1  0.25000000  0.93446100  0.87327000  1
  Fe  Fe15  1  0.75000000  0.94515100  0.37617400  1
  P  P0  1  0.75000000  0.03194100  0.56451500  1
  P  P1  1  0.25000000  0.04499500  0.06012800  1
  P  P2  1  0.25000000  0.20265700  0.77140000  1
  P  P3  1  0.75000000  0.29734300  0.27140000  1
  P  P4  1  0.75000000  0.45500500  0.56012800  1
  P  P5  1  0.25000000  0.46805900  0.06451500  1
  P  P6  1  0.75000000  0.53194100  0.93548500  1
  P  P7  1  0.25000000  0.54499500  0.43987200  1
  P  P8  1  0.25000000  0.70265700  0.72860000  1
  P  P9  1  0.75000000  0.79734300  0.22860000  1
  P  P10  1  0.75000000  0.95500500  0.93987200  1
  P  P11  1  0.25000000  0.96805900  0.43548500  1
  O  O0  1  0.25000000  0.04893100  0.76547500  1
  O  O1  1  0.94186000  0.06392800  0.61736800  1
  O  O2  1  0.55814000  0.06392800  0.61736800  1
  O  O3  1  0.05796400  0.09740900  0.10678900  1
  O  O4  1  0.44203600  0.09740900  0.10678900  1
  O  O5  1  0.25000000  0.10481000  0.96693400  1
  O  O6  1  0.75000000  0.10932300  0.95069300  1
  O  O7  1  0.75000000  0.11734300  0.47996800  1
  O  O8  1  0.25000000  0.11724900  0.46602400  1
  O  O9  1  0.54628900  0.24685500  0.31493300  1
  O  O10  1  0.95371100  0.24685500  0.31493300  1
  O  O11  1  0.25000000  0.24752800  0.67819000  1
  O  O12  1  0.75000000  0.25247200  0.17819000  1
  O  O13  1  0.04628900  0.25314500  0.81493300  1
  O  O14  1  0.45371100  0.25314500  0.81493300  1
  O  O15  1  0.75000000  0.38275100  0.96602400  1
  O  O16  1  0.25000000  0.38265700  0.97996800  1
  O  O17  1  0.25000000  0.39067700  0.45069300  1
  O  O18  1  0.75000000  0.39519000  0.46693400  1
  O  O19  1  0.94203600  0.40259100  0.60678900  1
  O  O20  1  0.55796400  0.40259100  0.60678900  1
  O  O21  1  0.05814000  0.43607200  0.11736800  1
  O  O22  1  0.44186000  0.43607200  0.11736800  1
  O  O23  1  0.75000000  0.45106900  0.26547500  1
  O  O24  1  0.25000000  0.54893100  0.73452500  1
  O  O25  1  0.55814000  0.56392800  0.88263200  1
  O  O26  1  0.94186000  0.56392800  0.88263200  1
  O  O27  1  0.05796400  0.59740900  0.39321100  1
  O  O28  1  0.44203600  0.59740900  0.39321100  1
  O  O29  1  0.25000000  0.60481000  0.53306600  1
  O  O30  1  0.75000000  0.60932300  0.54930700  1
  O  O31  1  0.75000000  0.61734300  0.02003200  1
  O  O32  1  0.25000000  0.61724900  0.03397600  1
  O  O33  1  0.54628900  0.74685500  0.18506700  1
  O  O34  1  0.95371100  0.74685500  0.18506700  1
  O  O35  1  0.25000000  0.74752800  0.82181000  1
  O  O36  1  0.75000000  0.75247200  0.32181000  1
  O  O37  1  0.04628900  0.75314500  0.68506700  1
  O  O38  1  0.45371100  0.75314500  0.68506700  1
  O  O39  1  0.75000000  0.88275100  0.53397600  1
  O  O40  1  0.25000000  0.88265700  0.52003200  1
  O  O41  1  0.25000000  0.89067700  0.04930700  1
  O  O42  1  0.75000000  0.89519000  0.03306600  1
  O  O43  1  0.55796400  0.90259100  0.89321100  1
  O  O44  1  0.94203600  0.90259100  0.89321100  1
  O  O45  1  0.05814000  0.93607200  0.38263200  1
  O  O46  1  0.44186000  0.93607200  0.38263200  1
  O  O47  1  0.75000000  0.95106900  0.23452500  1
loop_
_geom_bond_atom_site_label_1
_geom_bond_atom_site_label_2
_geom_bond_distance
_geom_bond_site_symmetry_2
Li0 O14 2.486632 1_555
Li0 O13 2.486632 1_655
Li0 O19 2.566500 1_555
Li0 O20 2.566500 1_555
Li1 O9 2.486632 1_555
Li1 O10 2.486632 1_455
Li1 O4 2.566500 1_555
Li1 O3 2.566500 1_555
Li2 O38 2.486632 1_555
Li2 O37 2.486632 1_655
Li2 O43 2.566500 1_555
Li2 O44 2.566500 1_555
Li3 O34 2.486632 1_455
Li3 O33 2.486632 1_555
Li3 O28 2.566500 1_555
Li3 O27 2.566500 1_555
Fe0 O1 1.984471 1_455
Fe0 O2 1.984471 1_555
Fe0 O11 2.129640 1_555
Fe0 O0 2.241380 1_555
Fe0 O40 2.393136 1_545
Fe0 O8 2.574600 1_555
Fe1 O3 2.029318 1_655
Fe1 O4 2.029318 1_555
Fe1 O12 2.058021 1_555
Fe1 O47 2.060844 1_545
Fe1 O42 2.272021 1_545
Fe2 O14 2.005659 1_555
Fe2 O6 2.143990 1_555
Fe2 O15 2.156487 1_555
Fe2 O16 2.191301 1_555
Fe2 O5 2.191464 1_555
Fe3 O13 2.005659 1_555
Fe3 O6 2.143990 1_455
Fe3 O15 2.156487 1_455
Fe3 O16 2.191301 1_555
Fe3 O5 2.191464 1_555
Fe4 O9 2.005659 1_555
Fe4 O17 2.143990 1_555
Fe4 O8 2.156487 1_555
Fe4 O7 2.191301 1_555
Fe4 O18 2.191464 1_555
Fe5 O10 2.005659 1_555
Fe5 O17 2.143990 1_655
Fe5 O8 2.156487 1_655
Fe5 O7 2.191301 1_555
Fe5 O18 2.191464 1_555
Fe6 O20 2.029318 1_555
Fe6 O19 2.029318 1_455
Fe6 O11 2.058021 1_555
Fe6 O24 2.060844 1_555
Fe6 O29 2.272021 1_555
Fe7 O22 1.984471 1_555
Fe7 O21 1.984471 1_655
Fe7 O12 2.129640 1_555
Fe7 O23 2.241380 1_555
Fe7 O31 2.393136 1_555
Fe7 O15 2.574600 1_554
Fe8 O26 1.984471 1_455
Fe8 O25 1.984471 1_555
Fe8 O35 2.129640 1_555
Fe8 O24 2.241380 1_555
Fe8 O16 2.393136 1_555
Fe8 O32 2.574600 1_556
Fe9 O27 2.029318 1_655
Fe9 O28 2.029318 1_555
Fe9 O36 2.058021 1_555
Fe9 O23 2.060844 1_555
Fe9 O18 2.272021 1_555
Fe10 O37 2.005659 1_555
Fe10 O30 2.143990 1_455
Fe10 O39 2.156487 1_455
Fe10 O40 2.191301 1_555
Fe10 O29 2.191464 1_555
Fe11 O38 2.005659 1_555
Fe11 O30 2.143990 1_555
Fe11 O39 2.156487 1_555
Fe11 O40 2.191301 1_555
Fe11 O29 2.191464 1_555
Fe12 O33 2.005659 1_555
Fe12 O41 2.143990 1_555
Fe12 O32 2.156487 1_555
Fe12 O31 2.191301 1_555
Fe12 O42 2.191464 1_555
Fe13 O34 2.005659 1_555
Fe13 O41 2.143990 1_655
Fe13 O32 2.156487 1_655
Fe13 O31 2.191301 1_555
Fe13 O42 2.191464 1_555
Fe14 O43 2.029318 1_555
Fe14 O44 2.029318 1_455
Fe14 O35 2.058021 1_555
Fe14 O0 2.060844 1_565
Fe14 O5 2.272021 1_565
Fe15 O46 1.984471 1_555
Fe15 O45 1.984471 1_655
Fe15 O36 2.129640 1_555
Fe15 O47 2.241380 1_555
Fe15 O7 2.393136 1_565
Fe15 O39 2.574600 1_555
O0 P2 1.557250 1_555
O1 P0 1.524127 1_555
O2 P0 1.524127 1_555
O3 P1 1.532271 1_555
O4 P1 1.532271 1_555
O5 P1 1.593383 1_556
O6 P10 1.569773 1_545
O7 P0 1.591929 1_555
O8 P11 1.584015 1_545
O9 P3 1.564518 1_555
O10 P3 1.564518 1_555
O11 P2 1.542615 1_555
O12 P3 1.542615 1_555
O13 P2 1.564518 1_555
O14 P2 1.564518 1_555
O15 P6 1.584015 1_555
O16 P5 1.591929 1_556
O17 P7 1.569773 1_555
O18 P4 1.593383 1_555
O19 P4 1.532271 1_555
O20 P4 1.532271 1_555
O21 P5 1.524127 1_555
O22 P5 1.524127 1_555
O23 P3 1.557250 1_555
O24 P8 1.557250 1_555
O25 P6 1.524127 1_555
O26 P6 1.524127 1_555
O27 P7 1.532271 1_555
O28 P7 1.532271 1_555
O29 P7 1.593383 1_555
O30 P4 1.569773 1_555
O31 P6 1.591929 1_554
O32 P5 1.584015 1_555
O33 P9 1.564518 1_555
O34 P9 1.564518 1_555
O35 P8 1.542615 1_555
O36 P9 1.542615 1_555
O37 P8 1.564518 1_555
O38 P8 1.564518 1_555
O39 P0 1.584015 1_565
O40 P11 1.591929 1_555
O41 P1 1.569773 1_565
O42 P10 1.593383 1_554
O43 P10 1.532271 1_555
O44 P10 1.532271 1_555
O45 P11 1.524127 1_555
O46 P11 1.524127 1_555
O47 P9 1.557250 1_555
