# generated using pymatgen
data_Fe5O7F3
_symmetry_space_group_name_H-M   'P 1'
_cell_length_a   4.65767100
_cell_length_b   4.66366700
_cell_length_c   15.20911410
_cell_angle_alpha   89.86679544
_cell_angle_beta   90.00000000
_cell_angle_gamma   90.00000000
_symmetry_Int_Tables_number   1
_chemical_formula_structural   Fe5O7F3
_chemical_formula_sum   'Fe10 O14 F6'
_cell_volume   330.36884553
_cell_formula_units_Z   2
loop_
 _symmetry_equiv_pos_site_id
 _symmetry_equiv_pos_as_xyz
  1  'x, y, z'
loop_
 _atom_site_type_symbol
 _atom_site_label
 _atom_site_symmetry_multiplicity
 _atom_site_fract_x
 _atom_site_fract_y
 _atom_site_fract_z
 _atom_site_occupancy
  Fe  Fe0  1  0.00005400  0.25362100  0.85028400  1
  Fe  Fe1  1  0.97930100  0.21515200  0.05677200  1
  Fe  Fe2  1  0.01873500  0.27092200  0.25082100  1
  Fe  Fe3  1  0.01291000  0.27828900  0.44409900  1
  Fe  Fe4  1  0.98118800  0.26209600  0.64947400  1
  Fe  Fe5  1  0.47930100  0.78484800  0.94322800  1
  Fe  Fe6  1  0.48118800  0.73790400  0.35052600  1
  Fe  Fe7  1  0.50005400  0.74637900  0.14971600  1
  Fe  Fe8  1  0.51291000  0.72171100  0.55590100  1
  Fe  Fe9  1  0.51873500  0.72907800  0.74917900  1
  O  O0  1  0.80290000  0.44367900  0.15247400  1
  O  O1  1  0.80942200  0.45825500  0.34705300  1
  O  O2  1  0.81890800  0.43649000  0.54713900  1
  O  O3  1  0.81610400  0.43289000  0.75267000  1
  O  O4  1  0.30290000  0.55632100  0.84752600  1
  O  O5  1  0.31610400  0.56711000  0.24733000  1
  O  O6  1  0.31890800  0.56351000  0.45286100  1
  O  O7  1  0.30942200  0.54174500  0.65294700  1
  O  O8  1  0.69652000  0.94712100  0.84593500  1
  O  O9  1  0.67093900  0.93205500  0.05045700  1
  O  O10  1  0.70204800  0.93641200  0.65097900  1
  O  O11  1  0.17093900  0.06794500  0.94954300  1
  O  O12  1  0.20204800  0.06358800  0.34902100  1
  O  O13  1  0.19652000  0.05287900  0.15406500  1
  F  F0  1  0.78494400  0.44963500  0.95328600  1
  F  F1  1  0.28494400  0.55036500  0.04671400  1
  F  F2  1  0.70129400  0.95214900  0.25250000  1
  F  F3  1  0.70473200  0.95100600  0.45119900  1
  F  F4  1  0.20129400  0.04785100  0.74750000  1
  F  F5  1  0.20473200  0.04899400  0.54880100  1
loop_
_geom_bond_atom_site_label_1
_geom_bond_atom_site_label_2
_geom_bond_distance
_geom_bond_site_symmetry_2
Fe0 O3 1.905619 1_455
Fe0 O11 1.912139 1_555
Fe0 O4 1.996003 1_555
Fe0 O8 2.011656 1_445
Fe1 O13 1.944417 1_655
Fe1 O9 1.953391 1_545
Fe1 O11 1.983162 1_654
Fe1 O0 1.984124 1_555
Fe2 O5 1.956753 1_555
Fe2 O1 1.965149 1_455
Fe2 O12 1.971774 1_555
Fe2 O0 1.972677 1_455
Fe2 O13 1.972871 1_555
Fe3 O1 1.943060 1_455
Fe3 O6 1.954291 1_555
Fe3 O2 1.955034 1_455
Fe3 O12 1.968870 1_555
Fe4 O2 1.910329 1_555
Fe4 O3 1.922206 1_555
Fe4 O10 1.999433 1_545
Fe4 O7 2.010291 1_655
Fe5 O8 1.944417 1_555
Fe5 O11 1.953391 1_565
Fe5 O9 1.983162 1_556
Fe5 O4 1.984124 1_555
Fe6 O6 1.910329 1_555
Fe6 O5 1.922206 1_555
Fe6 O12 1.999433 1_565
Fe6 O1 2.010291 1_555
Fe7 O5 1.905619 1_555
Fe7 O9 1.912139 1_555
Fe7 O0 1.996003 1_555
Fe7 O13 2.011656 1_565
Fe8 O7 1.943060 1_555
Fe8 O2 1.954291 1_555
Fe8 O6 1.955034 1_555
Fe8 O10 1.968870 1_555
Fe9 O3 1.956753 1_555
Fe9 O7 1.965149 1_555
Fe9 O10 1.971774 1_555
Fe9 O4 1.972677 1_555
Fe9 O8 1.972871 1_555
F0 Fe0 2.073713 1_655
F0 Fe1 2.117684 1_556
F0 Fe5 2.119636 1_555
F1 Fe7 2.073713 1_555
F1 Fe5 2.117684 1_554
F1 Fe1 2.119636 1_455
F2 Fe7 2.061602 1_555
F2 Fe6 2.065225 1_555
F2 Fe2 2.096825 1_665
F3 Fe3 2.097845 1_665
F3 Fe6 2.103161 1_555
F3 Fe8 2.114157 1_555
F4 Fe0 2.061602 1_555
F4 Fe4 2.065225 1_455
F4 Fe9 2.096825 1_545
F5 Fe8 2.097845 1_545
F5 Fe4 2.103161 1_455
F5 Fe3 2.114157 1_555
