# generated using pymatgen
data_Li3CrCo3O8
_symmetry_space_group_name_H-M   'P 1'
_cell_length_a   5.83164402
_cell_length_b   10.13864827
_cell_length_c   5.92102289
_cell_angle_alpha   106.92245947
_cell_angle_beta   119.50130469
_cell_angle_gamma   90.00048174
_symmetry_Int_Tables_number   1
_chemical_formula_structural   Li3CrCo3O8
_chemical_formula_sum   'Li6 Cr2 Co6 O16'
_cell_volume   287.14514834
_cell_formula_units_Z   2
loop_
 _symmetry_equiv_pos_site_id
 _symmetry_equiv_pos_as_xyz
  1  'x, y, z'
loop_
 _atom_site_type_symbol
 _atom_site_label
 _atom_site_symmetry_multiplicity
 _atom_site_fract_x
 _atom_site_fract_y
 _atom_site_fract_z
 _atom_site_occupancy
  Li  Li0  1  0.24966300  0.75001000  0.50008500  1
  Li  Li1  1  0.74957200  0.24999100  0.49991700  1
  Li  Li2  1  0.99945300  0.50032000  0.49940800  1
  Li  Li3  1  0.50032500  0.00010100  0.50049000  1
  Li  Li4  1  0.50004200  0.49968200  0.50059200  1
  Li  Li5  1  0.99983700  0.99989400  0.49950700  1
  Cr  Cr0  1  0.00269900  0.99999700  0.00000700  1
  Cr  Cr1  1  0.49829300  0.50000100  0.99999200  1
  Co  Co0  1  0.50115100  0.99999800  0.00000200  1
  Co  Co1  1  0.24927200  0.75021900  0.99985800  1
  Co  Co2  1  0.24941100  0.24978200  0.00015200  1
  Co  Co3  1  0.99942300  0.50000300  0.99999900  1
  Co  Co4  1  0.74933000  0.24998300  0.99976000  1
  Co  Co5  1  0.74957500  0.75001500  0.00022800  1
  O  O0  1  0.10795500  0.38200100  0.21460700  1
  O  O1  1  0.60770300  0.88228100  0.21466200  1
  O  O2  1  0.39304200  0.11771400  0.78533700  1
  O  O3  1  0.89336500  0.61799900  0.78538600  1
  O  O4  1  0.39080000  0.63196400  0.77682200  1
  O  O5  1  0.88564400  0.13193800  0.77653400  1
  O  O6  1  0.10912800  0.86806400  0.22348900  1
  O  O7  1  0.61396500  0.36803600  0.22315600  1
  O  O8  1  0.86978200  0.61391800  0.21412400  1
  O  O9  1  0.37199900  0.11481300  0.21541100  1
  O  O10  1  0.15659600  0.88519500  0.78459600  1
  O  O11  1  0.65565800  0.38609000  0.78586700  1
  O  O12  1  0.34355800  0.61501200  0.21513300  1
  O  O13  1  0.84399900  0.11381200  0.21368500  1
  O  O14  1  0.63032500  0.88618300  0.78632000  1
  O  O15  1  0.12843600  0.38498400  0.78487400  1
loop_
_geom_bond_atom_site_label_1
_geom_bond_atom_site_label_2
_geom_bond_distance
_geom_bond_site_symmetry_2
Li0 O10 2.137124 1_555
Li0 O12 2.141348 1_555
Li0 O6 2.146080 1_555
Li0 O4 2.146656 1_555
Li0 O8 2.150350 1_455
Li0 O14 2.153767 1_555
Li1 O9 2.137078 1_555
Li1 O15 2.141399 1_655
Li1 O5 2.146164 1_555
Li1 O7 2.146753 1_555
Li1 O11 2.150304 1_555
Li1 O13 2.153774 1_555
Li2 O3 2.128170 1_555
Li2 O0 2.134550 1_655
Li2 O8 2.150851 1_555
Li2 O7 2.151563 1_555
Li2 O15 2.165314 1_655
Li2 O4 2.172447 1_655
Li3 O2 2.127523 1_555
Li3 O1 2.133093 1_545
Li3 O5 2.149003 1_555
Li3 O14 2.155746 1_545
Li3 O9 2.158849 1_555
Li3 O6 2.173284 1_545
Li4 O0 2.128272 1_555
Li4 O3 2.134626 1_555
Li4 O11 2.150768 1_555
Li4 O4 2.151479 1_555
Li4 O12 2.165240 1_555
Li4 O7 2.172505 1_555
Li5 O1 2.127545 1_555
Li5 O2 2.133097 1_665
Li5 O6 2.148921 1_655
Li5 O13 2.155714 1_565
Li5 O10 2.158795 1_655
Li5 O5 2.173407 1_565
Cr0 O10 2.012499 1_554
Cr0 O9 2.012525 1_565
Cr0 O14 2.022872 1_454
Cr0 O13 2.022895 1_465
Cr0 O6 2.036413 1_555
Cr0 O5 2.036446 1_464
Cr1 O15 2.015898 1_555
Cr1 O12 2.015947 1_556
Cr1 O11 2.019134 1_555
Cr1 O8 2.019153 1_556
Cr1 O7 2.035305 1_556
Cr1 O4 2.035312 1_555
Co0 O1 1.879163 1_555
Co0 O2 1.879175 1_564
Co0 O13 1.894310 1_565
Co0 O14 1.894346 1_554
Co0 O10 1.905410 1_554
Co0 O9 1.905483 1_565
Co1 O6 1.998396 1_556
Co1 O4 2.003595 1_555
Co1 O10 2.031336 1_555
Co1 O3 2.032369 1_455
Co1 O12 2.033014 1_556
Co1 O1 2.041994 1_556
Co2 O5 1.998363 1_454
Co2 O7 2.003558 1_555
Co2 O9 2.031266 1_555
Co2 O0 2.032388 1_555
Co2 O15 2.032980 1_554
Co2 O2 2.042081 1_554
Co3 O3 1.881332 1_555
Co3 O0 1.881362 1_656
Co3 O11 1.898535 1_555
Co3 O8 1.898547 1_556
Co3 O12 1.904550 1_656
Co3 O15 1.904604 1_655
Co4 O7 1.977900 1_556
Co4 O5 1.981208 1_555
Co4 O2 2.034213 1_555
Co4 O11 2.035343 1_555
Co4 O13 2.035818 1_556
Co4 O0 2.042576 1_656
Co5 O4 1.977952 1_554
Co5 O6 1.981277 1_655
Co5 O1 2.034268 1_555
Co5 O8 2.035266 1_555
Co5 O14 2.035726 1_554
Co5 O3 2.042597 1_554
