# generated using pymatgen
data_Li5GaO4
_symmetry_space_group_name_H-M   'P 1'
_cell_length_a   9.09880200
_cell_length_b   9.11079700
_cell_length_c   9.61796800
_cell_angle_alpha   90.00000000
_cell_angle_beta   90.00000000
_cell_angle_gamma   90.00000000
_symmetry_Int_Tables_number   1
_chemical_formula_structural   Li5GaO4
_chemical_formula_sum   'Li40 Ga8 O32'
_cell_volume   797.30394383
_cell_formula_units_Z   8
loop_
 _symmetry_equiv_pos_site_id
 _symmetry_equiv_pos_as_xyz
  1  'x, y, z'
loop_
 _atom_site_type_symbol
 _atom_site_label
 _atom_site_symmetry_multiplicity
 _atom_site_fract_x
 _atom_site_fract_y
 _atom_site_fract_z
 _atom_site_occupancy
  Li  Li0  1  0.39322800  0.16777100  0.12900500  1
  Li  Li1  1  0.89322800  0.16777100  0.37099500  1
  Li  Li2  1  0.10571100  0.11763200  0.86759900  1
  Li  Li3  1  0.60571100  0.11763200  0.63240100  1
  Li  Li4  1  0.37451000  0.15121100  0.86682500  1
  Li  Li5  1  0.87451000  0.15121100  0.63317500  1
  Li  Li6  1  0.16791900  0.11705600  0.39400400  1
  Li  Li7  1  0.66791900  0.11705600  0.10599600  1
  Li  Li8  1  0.14391100  0.09660600  0.62870400  1
  Li  Li9  1  0.64391100  0.09660600  0.87129600  1
  Li  Li10  1  0.14391100  0.40339400  0.12870400  1
  Li  Li11  1  0.64391100  0.40339400  0.37129600  1
  Li  Li12  1  0.16791900  0.38294400  0.89400400  1
  Li  Li13  1  0.66791900  0.38294400  0.60599600  1
  Li  Li14  1  0.37451000  0.34878900  0.36682500  1
  Li  Li15  1  0.87451000  0.34878900  0.13317500  1
  Li  Li16  1  0.10571100  0.38236800  0.36759900  1
  Li  Li17  1  0.60571100  0.38236800  0.13240100  1
  Li  Li18  1  0.39322800  0.33222900  0.62900500  1
  Li  Li19  1  0.89322800  0.33222900  0.87099500  1
  Li  Li20  1  0.10677200  0.66777100  0.12900500  1
  Li  Li21  1  0.60677200  0.66777100  0.37099500  1
  Li  Li22  1  0.89428900  0.61763200  0.63240100  1
  Li  Li23  1  0.39428900  0.61763200  0.86759900  1
  Li  Li24  1  0.62549000  0.65121100  0.63317500  1
  Li  Li25  1  0.12549000  0.65121100  0.86682500  1
  Li  Li26  1  0.33208100  0.61705600  0.39400400  1
  Li  Li27  1  0.83208100  0.61705600  0.10599600  1
  Li  Li28  1  0.35608900  0.59660600  0.62870400  1
  Li  Li29  1  0.85608900  0.59660600  0.87129600  1
  Li  Li30  1  0.35608900  0.90339400  0.12870400  1
  Li  Li31  1  0.85608900  0.90339400  0.37129600  1
  Li  Li32  1  0.83208100  0.88294400  0.60599600  1
  Li  Li33  1  0.33208100  0.88294400  0.89400400  1
  Li  Li34  1  0.62549000  0.84878900  0.13317500  1
  Li  Li35  1  0.12549000  0.84878900  0.36682500  1
  Li  Li36  1  0.89428900  0.88236800  0.13240100  1
  Li  Li37  1  0.39428900  0.88236800  0.36759900  1
  Li  Li38  1  0.10677200  0.83222900  0.62900500  1
  Li  Li39  1  0.60677200  0.83222900  0.87099500  1
  Ga  Ga0  1  0.11424600  0.12176400  0.13102700  1
  Ga  Ga1  1  0.61424600  0.12176400  0.36897300  1
  Ga  Ga2  1  0.11424600  0.37823600  0.63102700  1
  Ga  Ga3  1  0.61424600  0.37823600  0.86897300  1
  Ga  Ga4  1  0.38575400  0.62176400  0.13102700  1
  Ga  Ga5  1  0.88575400  0.62176400  0.36897300  1
  Ga  Ga6  1  0.38575400  0.87823600  0.63102700  1
  Ga  Ga7  1  0.88575400  0.87823600  0.86897300  1
  O  O0  1  0.01124300  0.00883200  0.26015900  1
  O  O1  1  0.51124300  0.00883200  0.23984100  1
  O  O2  1  0.25242300  0.03706300  0.00938000  1
  O  O3  1  0.75242300  0.03706300  0.49062000  1
  O  O4  1  0.22942400  0.24975500  0.24704800  1
  O  O5  1  0.72942400  0.24975500  0.25295200  1
  O  O6  1  0.52628300  0.24106800  0.98835800  1
  O  O7  1  0.02628300  0.24106800  0.51164200  1
  O  O8  1  0.02628300  0.25893200  0.01164200  1
  O  O9  1  0.52628300  0.25893200  0.48835800  1
  O  O10  1  0.22942400  0.25024500  0.74704800  1
  O  O11  1  0.72942400  0.25024500  0.75295200  1
  O  O12  1  0.25242300  0.46293700  0.50938000  1
  O  O13  1  0.75242300  0.46293700  0.99062000  1
  O  O14  1  0.01124300  0.49116800  0.76015900  1
  O  O15  1  0.51124300  0.49116800  0.73984100  1
  O  O16  1  0.48875700  0.50883200  0.26015900  1
  O  O17  1  0.98875700  0.50883200  0.23984100  1
  O  O18  1  0.24757700  0.53706300  0.00938000  1
  O  O19  1  0.74757700  0.53706300  0.49062000  1
  O  O20  1  0.27057600  0.74975500  0.24704800  1
  O  O21  1  0.77057600  0.74975500  0.25295200  1
  O  O22  1  0.47371700  0.74106800  0.51164200  1
  O  O23  1  0.97371700  0.74106800  0.98835800  1
  O  O24  1  0.97371700  0.75893200  0.48835800  1
  O  O25  1  0.47371700  0.75893200  0.01164200  1
  O  O26  1  0.27057600  0.75024500  0.74704800  1
  O  O27  1  0.77057600  0.75024500  0.75295200  1
  O  O28  1  0.24757700  0.96293700  0.50938000  1
  O  O29  1  0.74757700  0.96293700  0.99062000  1
  O  O30  1  0.48875700  0.99116800  0.76015900  1
  O  O31  1  0.98875700  0.99116800  0.73984100  1
loop_
_geom_bond_atom_site_label_1
_geom_bond_atom_site_label_2
_geom_bond_distance
_geom_bond_site_symmetry_2
Li0 O6 1.934296 1_554
Li0 O4 2.016991 1_555
Li0 O2 2.093624 1_555
Li0 O1 2.094352 1_555
Li1 O7 1.934296 1_655
Li1 O5 2.016991 1_555
Li1 O3 2.093624 1_555
Li1 O0 2.094352 1_655
Li2 O31 1.992439 1_445
Li2 O10 2.017715 1_555
Li2 O8 2.024578 1_556
Li2 O2 2.044583 1_556
Li3 O30 1.992439 1_545
Li3 O11 2.017715 1_555
Li3 O9 2.024578 1_555
Li3 O3 2.044583 1_555
Li4 O10 1.970767 1_555
Li4 O6 1.985844 1_555
Li4 O2 2.048273 1_556
Li4 O30 2.063780 1_545
Li5 O11 1.970767 1_555
Li5 O7 1.985844 1_655
Li5 O3 2.048273 1_555
Li5 O31 2.063780 1_545
Li6 O28 1.930893 1_545
Li6 O4 1.942316 1_555
Li6 O7 2.053656 1_555
Li6 O0 2.159080 1_555
Li7 O29 1.930893 1_544
Li7 O5 1.942316 1_555
Li7 O6 2.053656 1_554
Li7 O1 2.159080 1_555
Li8 O28 1.920916 1_545
Li8 O10 1.964769 1_555
Li8 O31 2.014525 1_445
Li8 O7 2.036031 1_555
Li9 O29 1.920916 1_545
Li9 O11 1.964769 1_555
Li9 O30 2.014525 1_545
Li9 O6 2.036031 1_555
Li10 O18 1.920916 1_555
Li10 O4 1.964769 1_555
Li10 O17 2.014525 1_455
Li10 O8 2.036031 1_555
Li11 O19 1.920916 1_555
Li11 O5 1.964769 1_555
Li11 O16 2.014525 1_555
Li11 O9 2.036031 1_555
Li12 O18 1.930893 1_556
Li12 O10 1.942316 1_555
Li12 O8 2.053656 1_556
Li12 O14 2.159080 1_555
Li13 O19 1.930893 1_555
Li13 O11 1.942316 1_555
Li13 O9 2.053656 1_555
Li13 O15 2.159080 1_555
Li14 O4 1.970767 1_555
Li14 O9 1.985844 1_555
Li14 O12 2.048273 1_555
Li14 O16 2.063780 1_555
Li15 O5 1.970767 1_555
Li15 O8 1.985844 1_655
Li15 O13 2.048273 1_554
Li15 O17 2.063780 1_555
Li16 O17 1.992439 1_455
Li16 O4 2.017715 1_555
Li16 O7 2.024578 1_555
Li16 O12 2.044583 1_555
Li17 O16 1.992439 1_555
Li17 O5 2.017715 1_555
Li17 O6 2.024578 1_554
Li17 O13 2.044583 1_554
Li18 O9 1.934296 1_555
Li18 O10 2.016991 1_555
Li18 O12 2.093624 1_555
Li18 O15 2.094352 1_555
Li19 O8 1.934296 1_656
Li19 O11 2.016991 1_555
Li19 O13 2.093624 1_555
Li19 O14 2.094352 1_655
Li20 O23 1.934296 1_454
Li20 O20 2.016991 1_555
Li20 O18 2.093624 1_555
Li20 O17 2.094352 1_455
Li21 O22 1.934296 1_555
Li21 O21 2.016991 1_555
Li21 O19 2.093624 1_555
Li21 O16 2.094352 1_555
Li22 O14 1.992439 1_655
Li22 O27 2.017715 1_555
Li22 O24 2.024578 1_555
Li22 O19 2.044583 1_555
Li23 O15 1.992439 1_555
Li23 O26 2.017715 1_555
Li23 O25 2.024578 1_556
Li23 O18 2.044583 1_556
Li24 O27 1.970767 1_555
Li24 O22 1.985844 1_555
Li24 O19 2.048273 1_555
Li24 O15 2.063780 1_555
Li25 O26 1.970767 1_555
Li25 O23 1.985844 1_455
Li25 O18 2.048273 1_556
Li25 O14 2.063780 1_555
Li26 O12 1.930893 1_555
Li26 O20 1.942316 1_555
Li26 O22 2.053656 1_555
Li26 O16 2.159080 1_555
Li27 O13 1.930893 1_554
Li27 O21 1.942316 1_555
Li27 O23 2.053656 1_554
Li27 O17 2.159080 1_555
Li28 O12 1.920916 1_555
Li28 O26 1.964769 1_555
Li28 O15 2.014525 1_555
Li28 O22 2.036031 1_555
Li29 O13 1.920916 1_555
Li29 O27 1.964769 1_555
Li29 O14 2.014525 1_655
Li29 O23 2.036031 1_555
Li30 O2 1.920916 1_565
Li30 O20 1.964769 1_555
Li30 O1 2.014525 1_565
Li30 O25 2.036031 1_555
Li31 O3 1.920916 1_565
Li31 O21 1.964769 1_555
Li31 O0 2.014525 1_665
Li31 O24 2.036031 1_555
Li32 O3 1.930893 1_565
Li32 O27 1.942316 1_555
Li32 O24 2.053656 1_555
Li32 O31 2.159080 1_555
Li33 O2 1.930893 1_566
Li33 O26 1.942316 1_555
Li33 O25 2.053656 1_556
Li33 O30 2.159080 1_555
Li34 O21 1.970767 1_555
Li34 O25 1.985844 1_555
Li34 O29 2.048273 1_554
Li34 O1 2.063780 1_565
Li35 O20 1.970767 1_555
Li35 O24 1.985844 1_455
Li35 O28 2.048273 1_555
Li35 O0 2.063780 1_565
Li36 O0 1.992439 1_665
Li36 O21 2.017715 1_555
Li36 O23 2.024578 1_554
Li36 O29 2.044583 1_554
Li37 O1 1.992439 1_565
Li37 O20 2.017715 1_555
Li37 O22 2.024578 1_555
Li37 O28 2.044583 1_555
Li38 O24 1.934296 1_455
Li38 O26 2.016991 1_555
Li38 O28 2.093624 1_555
Li38 O31 2.094352 1_455
Li39 O25 1.934296 1_556
Li39 O27 2.016991 1_555
Li39 O29 2.093624 1_555
Li39 O30 2.094352 1_555
Ga0 O0 1.865347 1_555
Ga0 O8 1.876381 1_555
Ga0 O2 1.882835 1_555
Ga0 O4 1.924385 1_555
Ga1 O1 1.865347 1_555
Ga1 O9 1.876381 1_555
Ga1 O3 1.882835 1_555
Ga1 O5 1.924385 1_555
Ga2 O14 1.865347 1_555
Ga2 O7 1.876381 1_555
Ga2 O12 1.882835 1_555
Ga2 O10 1.924385 1_555
Ga3 O15 1.865347 1_555
Ga3 O6 1.876381 1_555
Ga3 O13 1.882835 1_555
Ga3 O11 1.924385 1_555
Ga4 O16 1.865347 1_555
Ga4 O25 1.876381 1_555
Ga4 O18 1.882835 1_555
Ga4 O20 1.924385 1_555
Ga5 O17 1.865347 1_555
Ga5 O24 1.876381 1_555
Ga5 O19 1.882835 1_555
Ga5 O21 1.924385 1_555
Ga6 O30 1.865347 1_555
Ga6 O22 1.876381 1_555
Ga6 O28 1.882835 1_555
Ga6 O26 1.924385 1_555
Ga7 O31 1.865347 1_555
Ga7 O23 1.876381 1_555
Ga7 O29 1.882835 1_555
Ga7 O27 1.924385 1_555
