# generated using pymatgen
data_Fe3(OF2)2
_symmetry_space_group_name_H-M   'P 1'
_cell_length_a   4.83463456
_cell_length_b   4.83463456
_cell_length_c   9.27975987
_cell_angle_alpha   89.63166276
_cell_angle_beta   89.63166276
_cell_angle_gamma   93.42276656
_symmetry_Int_Tables_number   1
_chemical_formula_structural   Fe3(OF2)2
_chemical_formula_sum   'Fe6 O4 F8'
_cell_volume   216.50581237
_cell_formula_units_Z   2
loop_
 _symmetry_equiv_pos_site_id
 _symmetry_equiv_pos_as_xyz
  1  'x, y, z'
loop_
 _atom_site_type_symbol
 _atom_site_label
 _atom_site_symmetry_multiplicity
 _atom_site_fract_x
 _atom_site_fract_y
 _atom_site_fract_z
 _atom_site_occupancy
  Fe  Fe0  1  0.00000000  0.00000000  0.00000000  1
  Fe  Fe1  1  0.02599700  0.02599700  0.33539800  1
  Fe  Fe2  1  0.97400300  0.97400300  0.66460200  1
  Fe  Fe3  1  0.48718000  0.48718000  0.15728400  1
  Fe  Fe4  1  0.51282000  0.51282000  0.84271600  1
  Fe  Fe5  1  0.50000000  0.50000000  0.50000000  1
  O  O0  1  0.70241400  0.70241400  0.00388400  1
  O  O1  1  0.66896200  0.66896200  0.66799400  1
  O  O2  1  0.29758600  0.29758600  0.99611600  1
  O  O3  1  0.33103800  0.33103800  0.33200600  1
  F  F0  1  0.20224500  0.80553900  0.16025000  1
  F  F1  1  0.20775900  0.79224100  0.50000000  1
  F  F2  1  0.19446100  0.79775500  0.83975000  1
  F  F3  1  0.71030900  0.71030900  0.33360400  1
  F  F4  1  0.28969100  0.28969100  0.66639600  1
  F  F5  1  0.80553900  0.20224500  0.16025000  1
  F  F6  1  0.79775500  0.19446100  0.83975000  1
  F  F7  1  0.79224100  0.20775900  0.50000000  1
loop_
_geom_bond_atom_site_label_1
_geom_bond_atom_site_label_2
_geom_bond_distance
_geom_bond_site_symmetry_2
Fe0 O2 1.972976 1_554
Fe0 O0 1.972976 1_445
Fe1 O3 2.022361 1_555
Fe2 O1 2.022361 1_555
Fe3 O3 1.915480 1_555
Fe3 O2 1.962683 1_554
Fe3 O0 2.006145 1_555
Fe4 O1 1.915480 1_555
Fe4 O0 1.962683 1_556
Fe4 O2 2.006145 1_555
Fe5 O3 1.928193 1_555
Fe5 O1 1.928193 1_555
F0 Fe0 2.040056 1_565
F0 Fe3 2.126177 1_555
F0 Fe1 2.148646 1_565
F1 Fe5 2.056894 1_555
F1 Fe2 2.120422 1_455
F1 Fe1 2.120422 1_565
F2 Fe0 2.040056 1_566
F2 Fe4 2.126177 1_555
F2 Fe2 2.148646 1_455
F3 Fe5 2.070774 1_555
F3 Fe1 2.093222 1_665
F3 Fe3 2.216078 1_555
F4 Fe5 2.070774 1_555
F4 Fe2 2.093222 1_445
F4 Fe4 2.216078 1_555
F5 Fe0 2.040056 1_655
F5 Fe3 2.126177 1_555
F5 Fe1 2.148646 1_655
F6 Fe0 2.040056 1_656
F6 Fe4 2.126177 1_555
F6 Fe2 2.148646 1_545
F7 Fe5 2.056894 1_555
F7 Fe1 2.120422 1_655
F7 Fe2 2.120422 1_545
