# generated using pymatgen
data_Ba4OF6
_symmetry_space_group_name_H-M   'P 1'
_cell_length_a   8.74787468
_cell_length_b   8.74787468
_cell_length_c   6.28849135
_cell_angle_alpha   90.00000000
_cell_angle_beta   90.00000000
_cell_angle_gamma   90.00000000
_symmetry_Int_Tables_number   1
_chemical_formula_structural   Ba4OF6
_chemical_formula_sum   'Ba8 O2 F12'
_cell_volume   481.22875890
_cell_formula_units_Z   2
loop_
 _symmetry_equiv_pos_site_id
 _symmetry_equiv_pos_as_xyz
  1  'x, y, z'
loop_
 _atom_site_type_symbol
 _atom_site_label
 _atom_site_symmetry_multiplicity
 _atom_site_fract_x
 _atom_site_fract_y
 _atom_site_fract_z
 _atom_site_occupancy
  Ba  Ba0  1  -0.00000000  0.25392172  0.29305831  1
  Ba  Ba1  1  0.75392172  0.50000000  0.79305831  1
  Ba  Ba2  1  0.24607828  0.50000000  0.79305831  1
  Ba  Ba3  1  -0.00000000  0.74607828  0.29305831  1
  Ba  Ba4  1  0.50000000  0.75392172  0.20694169  1
  Ba  Ba5  1  0.25392172  -0.00000000  0.70694169  1
  Ba  Ba6  1  0.74607828  -0.00000000  0.70694169  1
  Ba  Ba7  1  0.50000000  0.24607828  0.20694169  1
  O  O0  1  0.50000000  0.50000000  -0.00000000  1
  O  O1  1  -0.00000000  -0.00000000  0.50000000  1
  F  F0  1  0.72216075  0.27783925  0.50000000  1
  F  F1  1  0.27783925  0.27783925  0.50000000  1
  F  F2  1  -0.00000000  0.50000000  0.53276620  1
  F  F3  1  -0.00000000  0.50000000  0.03276620  1
  F  F4  1  0.27783925  0.72216075  0.50000000  1
  F  F5  1  0.72216075  0.72216075  0.50000000  1
  F  F6  1  0.77783925  0.77783925  -0.00000000  1
  F  F7  1  0.22216075  0.77783925  -0.00000000  1
  F  F8  1  0.50000000  -0.00000000  0.96723380  1
  F  F9  1  0.50000000  -0.00000000  0.46723380  1
  F  F10  1  0.77783925  0.22216075  -0.00000000  1
  F  F11  1  0.22216075  0.22216075  -0.00000000  1
loop_
_geom_bond_atom_site_label_1
_geom_bond_atom_site_label_2
_geom_bond_distance
_geom_bond_site_symmetry_2
Ba0 O1 2.574408 1_555
Ba0 F2 2.627967 1_555
Ba0 F10 2.692655 1_455
Ba0 F11 2.692655 1_555
Ba0 F3 2.704295 1_555
Ba0 F1 2.764893 1_555
Ba0 F0 2.764893 1_455
Ba1 O0 2.574408 1_556
Ba1 F3 2.627967 1_656
Ba1 F5 2.692655 1_555
Ba1 F0 2.692655 1_555
Ba1 F2 2.704295 1_655
Ba1 F6 2.764893 1_556
Ba1 F10 2.764893 1_556
Ba2 O0 2.574408 1_556
Ba2 F3 2.627967 1_556
Ba2 F4 2.692655 1_555
Ba2 F1 2.692655 1_555
Ba2 F2 2.704295 1_555
Ba2 F11 2.764893 1_556
Ba2 F7 2.764893 1_556
Ba3 O1 2.574408 1_565
Ba3 F2 2.627967 1_555
Ba3 F6 2.692655 1_455
Ba3 F7 2.692655 1_555
Ba3 F3 2.704295 1_555
Ba3 F4 2.764893 1_555
Ba3 F5 2.764893 1_455
Ba4 O0 2.574408 1_555
Ba4 F8 2.627967 1_564
Ba4 F5 2.692655 1_555
Ba4 F4 2.692655 1_555
Ba4 F9 2.704295 1_565
Ba4 F6 2.764893 1_555
Ba4 F7 2.764893 1_555
Ba5 O1 2.574408 1_555
Ba5 F9 2.627967 1_555
Ba5 F7 2.692655 1_546
Ba5 F11 2.692655 1_556
Ba5 F8 2.704295 1_555
Ba5 F4 2.764893 1_545
Ba5 F1 2.764893 1_555
Ba6 O1 2.574408 1_655
Ba6 F9 2.627967 1_555
Ba6 F10 2.692655 1_556
Ba6 F6 2.692655 1_546
Ba6 F8 2.704295 1_555
Ba6 F0 2.764893 1_555
Ba6 F5 2.764893 1_545
Ba7 O0 2.574408 1_555
Ba7 F8 2.627967 1_554
Ba7 F0 2.692655 1_555
Ba7 F1 2.692655 1_555
Ba7 F9 2.704295 1_555
Ba7 F11 2.764893 1_555
Ba7 F10 2.764893 1_555
