# generated using pymatgen
data_LiNb(PO3)4
_symmetry_space_group_name_H-M   'P 1'
_cell_length_a   7.78614844
_cell_length_b   7.78614908
_cell_length_c   17.11503300
_cell_angle_alpha   90.00000000
_cell_angle_beta   90.00000000
_cell_angle_gamma   100.28855871
_symmetry_Int_Tables_number   1
_chemical_formula_structural   LiNb(PO3)4
_chemical_formula_sum   'Li4 Nb4 P16 O48'
_cell_volume   1020.90008957
_cell_formula_units_Z   4
loop_
 _symmetry_equiv_pos_site_id
 _symmetry_equiv_pos_as_xyz
  1  'x, y, z'
loop_
 _atom_site_type_symbol
 _atom_site_label
 _atom_site_symmetry_multiplicity
 _atom_site_fract_x
 _atom_site_fract_y
 _atom_site_fract_z
 _atom_site_occupancy
  Li  Li0  1  0.20574100  0.08698800  0.63976000  1
  Li  Li1  1  0.91301200  0.79425900  0.86024000  1
  Li  Li2  1  0.79425900  0.91301200  0.13976000  1
  Li  Li3  1  0.08698800  0.20574100  0.36024000  1
  Nb  Nb0  1  0.58600000  0.98110200  0.86657500  1
  Nb  Nb1  1  0.01889800  0.41400000  0.63342500  1
  Nb  Nb2  1  0.41400000  0.01889800  0.36657500  1
  Nb  Nb3  1  0.98110200  0.58600000  0.13342500  1
  P  P0  1  0.03732400  0.74875700  0.34035400  1
  P  P1  1  0.25124300  0.96267600  0.15964600  1
  P  P2  1  0.31627900  0.78145300  0.01448700  1
  P  P3  1  0.21854700  0.68372100  0.48551300  1
  P  P4  1  0.36776000  0.63224000  0.75000000  1
  P  P5  1  0.67075000  0.73077400  0.30934700  1
  P  P6  1  0.26922600  0.32925000  0.19065300  1
  P  P7  1  0.34833700  0.34833700  0.50000000  1
  P  P8  1  0.65166300  0.65166300  0.00000000  1
  P  P9  1  0.32925000  0.26922600  0.80934700  1
  P  P10  1  0.73077400  0.67075000  0.69065300  1
  P  P11  1  0.63224000  0.36776000  0.25000000  1
  P  P12  1  0.78145300  0.31627900  0.98551300  1
  P  P13  1  0.68372100  0.21854700  0.51448700  1
  P  P14  1  0.74875700  0.03732400  0.65964600  1
  P  P15  1  0.96267600  0.25124300  0.84035400  1
  O  O0  1  0.12895400  0.93746100  0.35207500  1
  O  O1  1  0.06253900  0.87104600  0.14792500  1
  O  O2  1  0.34941500  0.95201900  0.23374800  1
  O  O3  1  0.04798100  0.65058500  0.26625200  1
  O  O4  1  0.31667900  0.86727700  0.47821100  1
  O  O5  1  0.13272300  0.68332100  0.02178900  1
  O  O6  1  0.36972900  0.89904100  0.09143600  1
  O  O7  1  0.10095900  0.63027100  0.40856400  1
  O  O8  1  0.10510200  0.63683700  0.55604000  1
  O  O9  1  0.36316300  0.89489800  0.94396000  1
  O  O10  1  0.40230400  0.79926600  0.79532900  1
  O  O11  1  0.20073400  0.59769600  0.70467100  1
  O  O12  1  0.52919500  0.79222800  0.35483000  1
  O  O13  1  0.20777200  0.47080500  0.14517000  1
  O  O14  1  0.35478200  0.54953900  0.47969000  1
  O  O15  1  0.45046100  0.64521800  0.02031000  1
  O  O16  1  0.75388200  0.83998200  0.63360400  1
  O  O17  1  0.16001800  0.24611800  0.86639600  1
  O  O18  1  0.52091800  0.61772300  0.68923500  1
  O  O19  1  0.38227700  0.47908200  0.81076500  1
  O  O20  1  0.23934600  0.29674100  0.57220500  1
  O  O21  1  0.70325900  0.76065400  0.92779500  1
  O  O22  1  0.19593500  0.28112500  0.26906300  1
  O  O23  1  0.71887500  0.80406500  0.23093700  1
  O  O24  1  0.28112500  0.19593500  0.73093700  1
  O  O25  1  0.80406500  0.71887500  0.76906300  1
  O  O26  1  0.29674100  0.23934600  0.42779500  1
  O  O27  1  0.76065400  0.70325900  0.07220500  1
  O  O28  1  0.61772300  0.52091800  0.31076500  1
  O  O29  1  0.47908200  0.38227700  0.18923500  1
  O  O30  1  0.24611800  0.16001800  0.13360400  1
  O  O31  1  0.83998200  0.75388200  0.36639600  1
  O  O32  1  0.64521800  0.45046100  0.97969000  1
  O  O33  1  0.54953900  0.35478200  0.52031000  1
  O  O34  1  0.79222800  0.52919500  0.64517000  1
  O  O35  1  0.47080500  0.20777200  0.85483000  1
  O  O36  1  0.79926600  0.40230400  0.20467100  1
  O  O37  1  0.59769600  0.20073400  0.29532900  1
  O  O38  1  0.63683700  0.10510200  0.44396000  1
  O  O39  1  0.89489800  0.36316300  0.05604000  1
  O  O40  1  0.63027100  0.10095900  0.59143600  1
  O  O41  1  0.89904100  0.36972900  0.90856400  1
  O  O42  1  0.86727700  0.31667900  0.52178900  1
  O  O43  1  0.68332100  0.13272300  0.97821100  1
  O  O44  1  0.65058500  0.04798100  0.73374800  1
  O  O45  1  0.95201900  0.34941500  0.76625200  1
  O  O46  1  0.93746100  0.12895300  0.64792500  1
  O  O47  1  0.87104700  0.06253900  0.85207500  1
loop_
_geom_bond_atom_site_label_1
_geom_bond_atom_site_label_2
_geom_bond_distance
_geom_bond_site_symmetry_2
Li0 O24 1.822466 1_555
Li0 O20 1.979866 1_555
Li0 O46 2.175653 1_455
Li1 O25 1.822466 1_555
Li1 O21 1.979866 1_555
Li1 O47 2.175653 1_565
Li2 O23 1.822466 1_555
Li2 O27 1.979866 1_555
Li2 O1 2.175656 1_655
Li3 O22 1.822466 1_555
Li3 O26 1.979866 1_555
Li3 O0 2.175656 1_545
Nb0 O35 2.127243 1_565
Nb0 O9 2.190672 1_555
Nb0 O10 2.194023 1_555
Nb0 O47 2.210602 1_565
Nb0 O43 2.301940 1_565
Nb0 O21 2.331816 1_555
Nb0 O44 2.366129 1_565
Nb1 O34 2.127243 1_455
Nb1 O8 2.190672 1_555
Nb1 O11 2.194023 1_555
Nb1 O46 2.210603 1_455
Nb1 O42 2.301940 1_455
Nb1 O20 2.331816 1_555
Nb1 O45 2.366129 1_455
Nb2 O12 2.127243 1_545
Nb2 O38 2.190672 1_555
Nb2 O37 2.194023 1_555
Nb2 O0 2.210595 1_545
Nb2 O4 2.301940 1_545
Nb2 O26 2.331816 1_555
Nb2 O2 2.366129 1_545
Nb3 O13 2.127243 1_655
Nb3 O39 2.190672 1_555
Nb3 O36 2.194023 1_555
Nb3 O1 2.210595 1_655
Nb3 O5 2.301940 1_655
Nb3 O27 2.331816 1_555
Nb3 O3 2.366129 1_655
O0 P0 1.527605 1_555
O1 P1 1.527605 1_555
O2 P1 1.490738 1_555
O3 P0 1.490738 1_555
O4 P3 1.500647 1_555
O5 P2 1.500647 1_555
O6 P2 1.615483 1_555
O6 P1 1.619485 1_555
O7 P3 1.615483 1_555
O7 P0 1.619485 1_555
O8 P3 1.501772 1_555
O9 P2 1.501772 1_556
O10 P4 1.496845 1_555
O11 P4 1.496845 1_555
O12 P5 1.496023 1_555
O13 P6 1.496023 1_555
O14 P7 1.596705 1_555
O14 P3 1.619417 1_555
O15 P8 1.596705 1_555
O15 P2 1.619417 1_555
O16 P14 1.607199 1_565
O16 P10 1.623969 1_555
O17 P15 1.607199 1_455
O17 P9 1.623969 1_555
O18 P4 1.601436 1_555
O18 P10 1.612430 1_555
O19 P4 1.601436 1_555
O19 P9 1.612430 1_555
O20 P7 1.512265 1_555
O21 P8 1.512265 1_556
O22 P6 1.480070 1_555
O23 P5 1.480070 1_555
O24 P9 1.480070 1_555
O25 P10 1.480070 1_555
O26 P7 1.512265 1_555
O27 P8 1.512265 1_555
O28 P11 1.601436 1_555
O28 P5 1.612430 1_555
O29 P11 1.601436 1_555
O29 P6 1.612430 1_555
O30 P1 1.607199 1_545
O30 P6 1.623969 1_555
O31 P0 1.607199 1_655
O31 P5 1.623969 1_555
O32 P8 1.596705 1_556
O32 P12 1.619417 1_555
O33 P7 1.596705 1_555
O33 P13 1.619417 1_555
O34 P10 1.496023 1_555
O35 P9 1.496023 1_555
O36 P11 1.496845 1_555
O37 P11 1.496845 1_555
O38 P13 1.501772 1_555
O39 P12 1.501772 1_554
O40 P13 1.615483 1_555
O40 P14 1.619485 1_555
O41 P12 1.615483 1_555
O41 P15 1.619485 1_555
O42 P13 1.500647 1_555
O43 P12 1.500647 1_555
O44 P14 1.490738 1_555
O45 P15 1.490738 1_555
O46 P14 1.527602 1_555
O47 P15 1.527602 1_555
