# generated using pymatgen
data_Ca8MgAl6Si5O28
_symmetry_space_group_name_H-M   'P 1'
_cell_length_a   8.51200400
_cell_length_b   9.05354728
_cell_length_c   9.38348577
_cell_angle_alpha   96.35256885
_cell_angle_beta   113.34386817
_cell_angle_gamma   102.42704484
_symmetry_Int_Tables_number   1
_chemical_formula_structural   Ca8MgAl6Si5O28
_chemical_formula_sum   'Ca8 Mg1 Al6 Si5 O28'
_cell_volume   632.71170066
_cell_formula_units_Z   1
loop_
 _symmetry_equiv_pos_site_id
 _symmetry_equiv_pos_as_xyz
  1  'x, y, z'
loop_
 _atom_site_type_symbol
 _atom_site_label
 _atom_site_symmetry_multiplicity
 _atom_site_fract_x
 _atom_site_fract_y
 _atom_site_fract_z
 _atom_site_occupancy
  Ca  Ca0  1  0.48583200  0.17687100  0.22631400  1
  Ca  Ca1  1  0.68292900  0.54251900  0.89071300  1
  Ca  Ca2  1  0.36397200  0.17628300  0.82132500  1
  Ca  Ca3  1  0.18711500  0.34044900  0.37470500  1
  Ca  Ca4  1  0.92021800  0.23966300  0.89294400  1
  Ca  Ca5  1  0.82952600  0.91200400  0.20821000  1
  Ca  Ca6  1  0.18867600  0.65513600  0.16023600  1
  Ca  Ca7  1  0.98344100  0.66628500  0.70248800  1
  Mg  Mg0  1  0.92283500  0.25098900  0.52295600  1
  Al  Al0  1  0.69283800  0.87428300  0.82474600  1
  Al  Al1  1  0.52144800  0.50304800  0.12311400  1
  Al  Al2  1  0.09958700  0.94087800  0.01443800  1
  Al  Al3  1  0.22521000  0.45844100  0.74920000  1
  Al  Al4  1  0.32562000  0.97154200  0.41645800  1
  Al  Al5  1  0.53330700  0.58340300  0.44530900  1
  Si  Si0  1  0.72270500  0.92420700  0.52060700  1
  Si  Si1  1  0.44339500  0.81147600  0.03157300  1
  Si  Si2  1  0.36716100  0.74365000  0.60711700  1
  Si  Si3  1  0.57296300  0.29257800  0.58538800  1
  Si  Si4  1  0.82704300  0.43592600  0.19780800  1
  O  O0  1  0.26816000  0.88456600  0.55580700  1
  O  O1  1  0.72884800  0.73734000  0.50513000  1
  O  O2  1  0.02406800  0.43280900  0.77003400  1
  O  O3  1  0.57463600  0.47943900  0.60234400  1
  O  O4  1  0.88164700  0.78602000  0.89519100  1
  O  O5  1  0.41493600  0.44726100  0.90932200  1
  O  O6  1  0.94579100  0.44597300  0.09289200  1
  O  O7  1  0.22067400  0.10595700  0.97705500  1
  O  O8  1  0.18694800  0.29035900  0.61114400  1
  O  O9  1  0.32848900  0.62374400  0.43063100  1
  O  O10  1  0.69362700  0.26071100  0.49912900  1
  O  O11  1  0.62023400  0.26908300  0.76582800  1
  O  O12  1  0.98400800  0.08587100  0.09495800  1
  O  O13  1  0.78527200  0.05060200  0.99645600  1
  O  O14  1  0.36998600  0.17778000  0.45107000  1
  O  O15  1  0.76749900  0.60319800  0.19322400  1
  O  O16  1  0.56016900  0.97861000  0.14410700  1
  O  O17  1  0.86062300  0.01657000  0.45730200  1
  O  O18  1  0.93342900  0.38768100  0.36267400  1
  O  O19  1  0.22419500  0.79960200  0.94817900  1
  O  O20  1  0.51519300  0.92203500  0.42274400  1
  O  O21  1  0.16513900  0.89973400  0.21614600  1
  O  O22  1  0.78669600  0.99485100  0.71092100  1
  O  O23  1  0.44922900  0.43844900  0.26933700  1
  O  O24  1  0.57102000  0.77392600  0.94137600  1
  O  O25  1  0.23763300  0.62939300  0.66971900  1
  O  O26  1  0.44409700  0.67443200  0.13577500  1
  O  O27  1  0.61980200  0.32371200  0.10283900  1
loop_
_geom_bond_atom_site_label_1
_geom_bond_atom_site_label_2
_geom_bond_distance
_geom_bond_site_symmetry_2
Ca0 O16 2.187822 1_545
Ca0 O27 2.268406 1_555
Ca0 O10 2.379456 1_555
Ca0 O7 2.416059 1_554
Ca0 O23 2.464577 1_555
Ca0 O14 2.658579 1_555
Ca1 O5 2.340988 1_555
Ca1 O3 2.439780 1_555
Ca1 O4 2.457882 1_555
Ca1 O11 2.465825 1_555
Ca1 O24 2.553439 1_555
Ca1 O15 2.596730 1_556
Ca1 O6 2.685925 1_556
Ca2 O7 2.304941 1_555
Ca2 O5 2.387160 1_555
Ca2 O11 2.437914 1_555
Ca2 O8 2.447913 1_555
Ca2 O27 2.628995 1_556
Ca3 O18 2.252424 1_455
Ca3 O8 2.313614 1_555
Ca3 O14 2.332732 1_555
Ca3 O9 2.484980 1_555
Ca3 O23 2.798749 1_555
Ca3 O12 2.922572 1_455
Ca3 O3 3.010254 1_555
Ca3 O6 3.037091 1_455
Ca4 O13 2.366129 1_555
Ca4 O22 2.379327 1_545
Ca4 O2 2.399652 1_655
Ca4 O6 2.404620 1_556
Ca4 O12 2.433218 1_556
Ca4 O11 2.441958 1_555
Ca4 O7 2.928000 1_655
Ca5 O17 2.311206 1_565
Ca5 O16 2.358941 1_555
Ca5 O13 2.413829 1_564
Ca5 O12 2.433723 1_565
Ca5 O24 2.535929 1_554
Ca5 O15 2.708104 1_555
Ca5 O21 2.854587 1_655
Ca6 O26 2.247441 1_555
Ca6 O21 2.288329 1_555
Ca6 O6 2.296611 1_455
Ca6 O9 2.418031 1_555
Ca6 O19 2.577602 1_554
Ca7 O2 2.329547 1_655
Ca7 O19 2.355201 1_655
Ca7 O25 2.388136 1_655
Ca7 O1 2.494562 1_555
Ca7 O4 2.531347 1_555
Mg0 O10 1.896518 1_555
Mg0 O8 1.995354 1_655
Mg0 O17 2.032887 1_555
Mg0 O18 2.067129 1_555
Mg0 O2 2.406065 1_655
Al0 O4 1.867115 1_555
Al0 O22 1.878693 1_555
Al0 O13 1.910223 1_565
Al0 O24 1.952513 1_555
Al1 O5 1.799686 1_554
Al1 O23 1.814891 1_555
Al1 O26 1.821010 1_555
Al1 O15 1.897400 1_555
Al1 O27 2.004031 1_555
Al2 O7 1.777249 1_564
Al2 O21 1.854999 1_555
Al2 O4 1.883483 1_454
Al2 O19 2.019421 1_554
Al2 O12 2.046304 1_465
Al3 O5 1.748388 1_555
Al3 O8 1.765229 1_555
Al3 O2 1.768538 1_555
Al3 O25 1.791747 1_555
Al4 O20 1.746406 1_555
Al4 O21 1.770365 1_555
Al4 O0 1.771431 1_555
Al4 O14 1.788742 1_565
Al5 O1 1.765183 1_555
Al5 O23 1.772206 1_555
Al5 O3 1.794331 1_555
Al5 O9 1.812935 1_555
O0 Si2 1.687215 1_555
O1 Si0 1.695808 1_555
O3 Si3 1.678041 1_555
O6 Si4 1.663733 1_555
O9 Si2 1.745192 1_555
O10 Si3 1.589967 1_555
O11 Si3 1.628052 1_555
O12 O13 1.510301 1_554
O14 Si3 1.692737 1_555
O15 Si4 1.696952 1_555
O16 Si1 1.599988 1_555
O17 Si0 1.634124 1_545
O18 Si4 1.616673 1_555
O19 Si1 1.686177 1_556
O20 Si0 1.630713 1_555
O22 Si0 1.649636 1_555
O24 Si1 1.684036 1_556
O25 Si2 1.669608 1_555
O26 Si1 1.662087 1_555
O27 Si4 1.649424 1_555
