# generated using pymatgen
data_Mn12O7F17
_symmetry_space_group_name_H-M   'P 1'
_cell_length_a   4.80039800
_cell_length_b   5.82536722
_cell_length_c   15.79508309
_cell_angle_alpha   88.57421061
_cell_angle_beta   89.62108532
_cell_angle_gamma   88.85892031
_symmetry_Int_Tables_number   1
_chemical_formula_structural   Mn12O7F17
_chemical_formula_sum   'Mn12 O7 F17'
_cell_volume   441.46239797
_cell_formula_units_Z   1
loop_
 _symmetry_equiv_pos_site_id
 _symmetry_equiv_pos_as_xyz
  1  'x, y, z'
loop_
 _atom_site_type_symbol
 _atom_site_label
 _atom_site_symmetry_multiplicity
 _atom_site_fract_x
 _atom_site_fract_y
 _atom_site_fract_z
 _atom_site_occupancy
  Mn  Mn0  1  0.95986200  0.17429400  0.58641300  1
  Mn  Mn1  1  0.00863200  0.84525600  0.75289300  1
  Mn  Mn2  1  0.01527300  0.16702700  0.92643800  1
  Mn  Mn3  1  0.99560000  0.15082500  0.24806800  1
  Mn  Mn4  1  0.96549500  0.81640200  0.41213900  1
  Mn  Mn5  1  0.97069400  0.85442600  0.08826000  1
  Mn  Mn6  1  0.50950600  0.35449000  0.41992100  1
  Mn  Mn7  1  0.50815200  0.33467900  0.07315000  1
  Mn  Mn8  1  0.51338700  0.34159800  0.75039400  1
  Mn  Mn9  1  0.47513900  0.63991300  0.91006500  1
  Mn  Mn10  1  0.50298400  0.65355200  0.58248100  1
  Mn  Mn11  1  0.52647400  0.66365400  0.24920300  1
  O  O0  1  0.77384000  0.12250900  0.69705700  1
  O  O1  1  0.79051800  0.12287000  0.03068500  1
  O  O2  1  0.78884600  0.88307800  0.19643900  1
  O  O3  1  0.70693300  0.39623800  0.52894700  1
  O  O4  1  0.71470900  0.59224900  0.35809600  1
  O  O5  1  0.29917900  0.38112900  0.96933300  1
  O  O6  1  0.29481800  0.60082200  0.80326700  1
  F  F0  1  0.75704700  0.10465900  0.35865900  1
  F  F1  1  0.75929300  0.87496900  0.86589600  1
  F  F2  1  0.75253300  0.89820400  0.52534200  1
  F  F3  1  0.75472000  0.37364300  0.85325800  1
  F  F4  1  0.74756000  0.61904400  0.69054700  1
  F  F5  1  0.72933400  0.38429400  0.18109000  1
  F  F6  1  0.72048100  0.62778400  0.01597100  1
  F  F7  1  0.27007700  0.38517100  0.64630000  1
  F  F8  1  0.24910000  0.62358800  0.47862000  1
  F  F9  1  0.27487700  0.61904400  0.13754400  1
  F  F10  1  0.27375500  0.38211000  0.30460200  1
  F  F11  1  0.24006200  0.10153900  0.81574000  1
  F  F12  1  0.21231900  0.14163500  0.47542800  1
  F  F13  1  0.22732000  0.89253000  0.63319400  1
  F  F14  1  0.21964500  0.87054600  0.98228400  1
  F  F15  1  0.25072700  0.11811900  0.14227800  1
  F  F16  1  0.24111300  0.88811000  0.31000000  1
loop_
_geom_bond_atom_site_label_1
_geom_bond_atom_site_label_2
_geom_bond_distance
_geom_bond_site_symmetry_2
Mn0 O3 1.965534 1_555
Mn0 O0 1.976482 1_555
Mn1 O6 2.104312 1_555
Mn1 O0 2.127548 1_465
Mn2 O1 1.976856 1_456
Mn2 O5 1.998492 1_555
Mn3 O2 2.053892 1_545
Mn4 O4 2.003667 1_555
Mn5 O2 1.923068 1_555
Mn5 O1 1.976431 1_565
Mn6 O4 1.953606 1_555
Mn6 O3 1.993611 1_555
Mn7 O5 1.938385 1_554
Mn7 O1 1.942204 1_555
Mn8 O0 1.969222 1_555
Mn8 O6 2.016605 1_555
Mn9 O6 1.921717 1_555
Mn9 O5 1.957668 1_555
Mn10 O3 1.978391 1_555
Mn11 O2 1.977871 1_555
Mn11 O4 1.979347 1_555
F0 Mn3 2.097001 1_555
F0 Mn4 2.099574 1_545
F0 Mn6 2.110078 1_555
F1 Mn9 2.058293 1_555
F1 Mn1 2.151115 1_655
F1 Mn2 2.344943 1_665
F2 Mn10 2.066502 1_555
F2 Mn4 2.113795 1_555
F2 Mn0 2.159030 1_565
F3 Mn8 2.016273 1_555
F3 Mn2 2.058903 1_655
F3 Mn9 2.232201 1_555
F4 Mn10 2.081444 1_555
F4 Mn1 2.103230 1_655
F4 Mn8 2.179836 1_555
F5 Mn7 2.044093 1_555
F5 Mn3 2.116534 1_555
F5 Mn11 2.182718 1_555
F6 Mn9 2.051137 1_554
F6 Mn5 2.155427 1_555
F6 Mn7 2.179527 1_555
F7 Mn8 2.030947 1_555
F7 Mn10 2.164880 1_555
F7 Mn0 2.184198 1_455
F8 Mn4 2.029045 1_455
F8 Mn10 2.063054 1_555
F8 Mn6 2.204213 1_555
F9 Mn5 2.121434 1_455
F9 Mn11 2.167999 1_555
F9 Mn7 2.242205 1_555
F10 Mn3 2.131395 1_455
F10 Mn6 2.151702 1_555
F10 Mn11 2.218361 1_555
F11 Mn2 2.087818 1_555
F11 Mn1 2.145437 1_545
F11 Mn8 2.173890 1_555
F12 Mn6 2.083557 1_555
F12 Mn0 2.134776 1_455
F12 Mn4 2.488379 1_445
F13 Mn10 2.073374 1_555
F13 Mn1 2.170674 1_555
F13 Mn0 2.181005 1_465
F14 Mn5 2.051615 1_456
F14 Mn2 2.142810 1_565
F14 Mn9 2.145374 1_555
F15 Mn7 2.070374 1_555
F15 Mn3 2.075527 1_455
F15 Mn5 2.248846 1_445
F16 Mn11 2.117085 1_555
F16 Mn4 2.118487 1_455
F16 Mn3 2.134710 1_465
