# generated using pymatgen
data_Li2Sn(PO3)5
_symmetry_space_group_name_H-M   'P 1'
_cell_length_a   13.76055800
_cell_length_b   5.41733200
_cell_length_c   8.98490562
_cell_angle_alpha   77.55170975
_cell_angle_beta   90.00000000
_cell_angle_gamma   90.00000000
_symmetry_Int_Tables_number   1
_chemical_formula_structural   Li2Sn(PO3)5
_chemical_formula_sum   'Li4 Sn2 P10 O30'
_cell_volume   654.03838608
_cell_formula_units_Z   2
loop_
 _symmetry_equiv_pos_site_id
 _symmetry_equiv_pos_as_xyz
  1  'x, y, z'
loop_
 _atom_site_type_symbol
 _atom_site_label
 _atom_site_symmetry_multiplicity
 _atom_site_fract_x
 _atom_site_fract_y
 _atom_site_fract_z
 _atom_site_occupancy
  Li  Li0  1  0.87187100  0.94245300  0.07873600  1
  Li  Li1  1  0.62812900  0.94245300  0.07873600  1
  Li  Li2  1  0.37187100  0.05754700  0.92126400  1
  Li  Li3  1  0.12812900  0.05754700  0.92126400  1
  Sn  Sn0  1  0.00000000  0.50000000  0.50000000  1
  Sn  Sn1  1  0.50000000  0.50000000  0.50000000  1
  P  P0  1  0.35584500  0.00702300  0.48399000  1
  P  P1  1  0.14415500  0.00702300  0.48399000  1
  P  P2  1  0.92108900  0.66590800  0.82105800  1
  P  P3  1  0.57891100  0.66590800  0.82105800  1
  P  P4  1  0.25000000  0.54130300  0.98581600  1
  P  P5  1  0.75000000  0.45869700  0.01418400  1
  P  P6  1  0.42108900  0.33409200  0.17894200  1
  P  P7  1  0.07891100  0.33409200  0.17894200  1
  P  P8  1  0.64415500  0.99297700  0.51601000  1
  P  P9  1  0.85584500  0.99297700  0.51601000  1
  O  O0  1  0.75000000  0.92533900  0.46251100  1
  O  O1  1  0.95659200  0.81991000  0.92913700  1
  O  O2  1  0.54340800  0.81991000  0.92913700  1
  O  O3  1  0.25000000  0.80256700  0.88691200  1
  O  O4  1  0.85591500  0.84505000  0.68997200  1
  O  O5  1  0.64408500  0.84505000  0.68997200  1
  O  O6  1  0.92538400  0.87657400  0.41943200  1
  O  O7  1  0.57461600  0.87657400  0.41943200  1
  O  O8  1  0.36249400  0.72755200  0.49034100  1
  O  O9  1  0.13750600  0.72755200  0.49034100  1
  O  O10  1  0.84141500  0.46022400  0.89776800  1
  O  O11  1  0.65858500  0.46022400  0.89776800  1
  O  O12  1  0.99424000  0.52444400  0.74487900  1
  O  O13  1  0.50576000  0.52444400  0.74487900  1
  O  O14  1  0.75000000  0.69663800  0.07475800  1
  O  O15  1  0.25000000  0.30336200  0.92524200  1
  O  O16  1  0.00576000  0.47555600  0.25512100  1
  O  O17  1  0.49424000  0.47555600  0.25512100  1
  O  O18  1  0.34141500  0.53977600  0.10223200  1
  O  O19  1  0.15858500  0.53977600  0.10223200  1
  O  O20  1  0.86249400  0.27244800  0.50965900  1
  O  O21  1  0.63750600  0.27244800  0.50965900  1
  O  O22  1  0.42538400  0.12342600  0.58056800  1
  O  O23  1  0.07461600  0.12342600  0.58056800  1
  O  O24  1  0.35591500  0.15495000  0.31002800  1
  O  O25  1  0.14408500  0.15495000  0.31002800  1
  O  O26  1  0.75000000  0.19743300  0.11308800  1
  O  O27  1  0.45659200  0.18009000  0.07086300  1
  O  O28  1  0.04340800  0.18009000  0.07086300  1
  O  O29  1  0.25000000  0.07466100  0.53748900  1
loop_
_geom_bond_atom_site_label_1
_geom_bond_atom_site_label_2
_geom_bond_distance
_geom_bond_site_symmetry_2
Li0 O1 1.997798 1_554
Li0 O14 2.146507 1_555
Li0 O26 2.235947 1_565
Li1 O2 1.997798 1_554
Li1 O14 2.146507 1_555
Li1 O26 2.235947 1_565
Li2 O27 1.997798 1_556
Li2 O15 2.146507 1_555
Li2 O3 2.235947 1_545
Li3 O28 1.997798 1_556
Li3 O15 2.146507 1_555
Li3 O3 2.235947 1_545
O0 P9 1.600813 1_555
O0 P8 1.600813 1_555
O1 P2 1.492301 1_555
O2 P3 1.492301 1_555
O3 P4 1.500226 1_555
O4 P9 1.595387 1_555
O4 P2 1.624976 1_555
O5 P8 1.595387 1_555
O5 P3 1.624976 1_555
O6 P9 1.517294 1_555
O6 Sn0 2.259050 1_655
O7 P8 1.517294 1_555
O7 Sn1 2.259050 1_555
O8 P0 1.505503 1_565
O8 Sn1 2.249730 1_555
O9 P1 1.505503 1_565
O9 Sn0 2.249730 1_555
O10 P2 1.608579 1_555
O10 P5 1.634868 1_556
O11 P3 1.608579 1_555
O11 P5 1.634868 1_556
O12 P2 1.514982 1_555
O12 Sn0 2.233914 1_655
O13 P3 1.514982 1_555
O13 Sn1 2.233914 1_555
O14 P5 1.503393 1_555
O15 P4 1.503393 1_555
O16 P7 1.514982 1_555
O16 Sn0 2.233914 1_555
O17 P6 1.514982 1_555
O17 Sn1 2.233914 1_555
O18 P6 1.608579 1_555
O18 P4 1.634868 1_554
O19 P7 1.608579 1_555
O19 P4 1.634868 1_554
O20 P9 1.505503 1_545
O20 Sn0 2.249730 1_655
O21 P8 1.505503 1_545
O21 Sn1 2.249730 1_555
O22 P0 1.517294 1_555
O22 Sn1 2.259050 1_555
O23 P1 1.517294 1_555
O23 Sn0 2.259050 1_555
O24 P0 1.595387 1_555
O24 P6 1.624976 1_555
O25 P1 1.595387 1_555
O25 P7 1.624976 1_555
O26 P5 1.500226 1_555
O27 P6 1.492301 1_555
O28 P7 1.492301 1_555
O29 P0 1.600813 1_555
O29 P1 1.600813 1_555
