# generated using pymatgen
data_FeOF
_symmetry_space_group_name_H-M   'P 1'
_cell_length_a   3.14268700
_cell_length_b   9.63839200
_cell_length_c   14.39802151
_cell_angle_alpha   89.84379562
_cell_angle_beta   90.00000000
_cell_angle_gamma   90.00000000
_symmetry_Int_Tables_number   1
_chemical_formula_structural   FeOF
_chemical_formula_sum   'Fe12 O12 F12'
_cell_volume   436.12091885
_cell_formula_units_Z   12
loop_
 _symmetry_equiv_pos_site_id
 _symmetry_equiv_pos_as_xyz
  1  'x, y, z'
loop_
 _atom_site_type_symbol
 _atom_site_label
 _atom_site_symmetry_multiplicity
 _atom_site_fract_x
 _atom_site_fract_y
 _atom_site_fract_z
 _atom_site_occupancy
  Fe  Fe0  1  0.00000000  0.99992600  0.99918400  1
  Fe  Fe1  1  0.00000000  0.98674800  0.32626200  1
  Fe  Fe2  1  0.00000000  0.99367900  0.67166200  1
  Fe  Fe3  1  0.50000000  0.77385800  0.15832900  1
  Fe  Fe4  1  0.50000000  0.72340000  0.50342400  1
  Fe  Fe5  1  0.50000000  0.77540800  0.83523900  1
  Fe  Fe6  1  0.00000000  0.50204300  0.34100500  1
  Fe  Fe7  1  0.00000000  0.48291300  0.99793000  1
  Fe  Fe8  1  0.00000000  0.49346600  0.65999600  1
  Fe  Fe9  1  0.50000000  0.24947700  0.14808300  1
  Fe  Fe10  1  0.50000000  0.27047700  0.49821700  1
  Fe  Fe11  1  0.50000000  0.24266500  0.85258200  1
  O  O0  1  0.50000000  0.90090800  0.27091000  1
  O  O1  1  0.50000000  0.90555200  0.93709200  1
  O  O2  1  0.00000000  0.85207000  0.09986400  1
  O  O3  1  0.00000000  0.84910400  0.76880100  1
  O  O4  1  0.00000000  0.65391400  0.57023100  1
  O  O5  1  0.50000000  0.59980500  0.39438000  1
  O  O6  1  0.50000000  0.40769900  0.93400200  1
  O  O7  1  0.50000000  0.39870700  0.60482200  1
  O  O8  1  0.00000000  0.34838400  0.10233600  1
  O  O9  1  0.00000000  0.34277100  0.43192800  1
  O  O10  1  0.00000000  0.14827700  0.89961000  1
  O  O11  1  0.50000000  0.09469400  0.06308400  1
  F  F0  1  0.50000000  0.90546400  0.59418900  1
  F  F1  1  0.00000000  0.85102600  0.43867600  1
  F  F2  1  0.00000000  0.65113300  0.22552200  1
  F  F3  1  0.00000000  0.65616400  0.90128500  1
  F  F4  1  0.50000000  0.60202500  0.06462700  1
  F  F5  1  0.50000000  0.59274000  0.73707600  1
  F  F6  1  0.50000000  0.40108700  0.26647600  1
  F  F7  1  0.00000000  0.34375300  0.77120600  1
  F  F8  1  0.00000000  0.15311500  0.23571100  1
  F  F9  1  0.00000000  0.14655300  0.56535500  1
  F  F10  1  0.50000000  0.09221500  0.40100300  1
  F  F11  1  0.50000000  0.10877700  0.72990200  1
loop_
_geom_bond_atom_site_label_1
_geom_bond_atom_site_label_2
_geom_bond_distance
_geom_bond_site_symmetry_2
Fe0 O10 2.022064 1_565
Fe0 O1 2.024893 1_455
Fe0 O1 2.024893 1_555
Fe0 O2 2.030012 1_556
Fe0 O11 2.038255 1_466
Fe0 O11 2.038255 1_566
Fe1 O0 1.947404 1_455
Fe1 O0 1.947404 1_555
Fe2 O3 1.971609 1_555
Fe3 O2 1.934561 1_555
Fe3 O2 1.934561 1_655
Fe3 O0 2.034164 1_555
Fe4 O4 1.959434 1_655
Fe4 O4 1.959434 1_555
Fe4 O5 1.973385 1_555
Fe5 O1 1.932373 1_555
Fe5 O3 1.971039 1_555
Fe5 O3 1.971039 1_655
Fe6 O5 1.987844 1_455
Fe6 O5 1.987844 1_555
Fe6 O9 2.014802 1_555
Fe7 O6 1.960996 1_555
Fe7 O6 1.960996 1_455
Fe7 O8 1.982520 1_556
Fe8 O7 1.984516 1_455
Fe8 O7 1.984516 1_555
Fe8 O4 2.012719 1_555
Fe9 O11 1.932182 1_555
Fe9 O8 1.951494 1_555
Fe9 O8 1.951494 1_655
Fe10 O9 1.965187 1_555
Fe10 O9 1.965187 1_655
Fe10 O7 1.973269 1_555
Fe11 O10 1.936978 1_555
Fe11 O10 1.936978 1_655
Fe11 O6 1.978543 1_555
F0 Fe2 2.107478 1_555
F0 Fe2 2.107478 1_655
F0 Fe4 2.190813 1_555
F1 Fe1 2.078307 1_555
F1 Fe4 2.201162 1_455
F1 Fe4 2.201162 1_555
F2 Fe3 2.190438 1_555
F2 Fe3 2.190438 1_455
F2 Fe6 2.194668 1_555
F3 Fe5 2.165264 1_555
F3 Fe5 2.165264 1_455
F3 Fe7 2.170721 1_555
F4 Fe3 2.138994 1_555
F4 Fe7 2.171481 1_654
F4 Fe7 2.171481 1_554
F5 Fe8 2.149910 1_655
F5 Fe8 2.149910 1_555
F5 Fe5 2.260738 1_555
F6 Fe6 2.138487 1_555
F6 Fe6 2.138487 1_655
F6 Fe9 2.248257 1_555
F7 Fe8 2.152553 1_555
F7 Fe11 2.187459 1_455
F7 Fe11 2.187459 1_555
F8 Fe1 2.063886 1_545
F8 Fe9 2.217468 1_455
F8 Fe9 2.217468 1_555
F9 Fe2 2.121687 1_545
F9 Fe10 2.196339 1_555
F9 Fe10 2.196339 1_455
F10 Fe1 2.160200 1_545
F10 Fe1 2.160200 1_645
F10 Fe10 2.219079 1_555
F11 Fe2 2.099529 1_645
F11 Fe2 2.099529 1_545
F11 Fe11 2.190369 1_555
