# generated using pymatgen
data_Cs2HfO3
_symmetry_space_group_name_H-M   'P 1'
_cell_length_a   15.19509500
_cell_length_b   7.20583500
_cell_length_c   18.68186553
_cell_angle_alpha   73.46488366
_cell_angle_beta   90.00000000
_cell_angle_gamma   90.00000000
_symmetry_Int_Tables_number   1
_chemical_formula_structural   Cs2HfO3
_chemical_formula_sum   'Cs24 Hf12 O36'
_cell_volume   1960.94767331
_cell_formula_units_Z   12
loop_
 _symmetry_equiv_pos_site_id
 _symmetry_equiv_pos_as_xyz
  1  'x, y, z'
loop_
 _atom_site_type_symbol
 _atom_site_label
 _atom_site_symmetry_multiplicity
 _atom_site_fract_x
 _atom_site_fract_y
 _atom_site_fract_z
 _atom_site_occupancy
  Cs  Cs0  1  0.98972900  0.65382600  0.78323900  1
  Cs  Cs1  1  0.15024300  0.45353900  0.00670500  1
  Cs  Cs2  1  0.91306100  0.72918100  0.53011300  1
  Cs  Cs3  1  0.38986200  0.00380600  0.41613500  1
  Cs  Cs4  1  0.30923600  0.13395100  0.19238700  1
  Cs  Cs5  1  0.41306100  0.27081900  0.96988700  1
  Cs  Cs6  1  0.62392900  0.11654400  0.13307600  1
  Cs  Cs7  1  0.12392900  0.88345600  0.36692400  1
  Cs  Cs8  1  0.48972900  0.34617400  0.71676100  1
  Cs  Cs9  1  0.80923600  0.86604900  0.30761300  1
  Cs  Cs10  1  0.34975700  0.45353900  0.50670500  1
  Cs  Cs11  1  0.88986200  0.99619400  0.08386500  1
  Cs  Cs12  1  0.11013800  0.00380600  0.91613500  1
  Cs  Cs13  1  0.65024300  0.54646100  0.49329500  1
  Cs  Cs14  1  0.19076400  0.13395100  0.69238700  1
  Cs  Cs15  1  0.51027100  0.65382600  0.28323900  1
  Cs  Cs16  1  0.87607100  0.11654400  0.63307600  1
  Cs  Cs17  1  0.37607100  0.88345600  0.86692400  1
  Cs  Cs18  1  0.58693900  0.72918100  0.03011300  1
  Cs  Cs19  1  0.69076400  0.86604900  0.80761300  1
  Cs  Cs20  1  0.61013800  0.99619400  0.58386500  1
  Cs  Cs21  1  0.08693900  0.27081900  0.46988700  1
  Cs  Cs22  1  0.84975700  0.54646100  0.99329500  1
  Cs  Cs23  1  0.01027100  0.34617400  0.21676100  1
  Hf  Hf0  1  0.37416900  0.84112300  0.63328500  1
  Hf  Hf1  1  0.14778200  0.72381000  0.60246700  1
  Hf  Hf2  1  0.24616300  0.53276300  0.78679200  1
  Hf  Hf3  1  0.74616300  0.46723700  0.71320800  1
  Hf  Hf4  1  0.64778200  0.27619000  0.89753300  1
  Hf  Hf5  1  0.87416900  0.15887700  0.86671500  1
  Hf  Hf6  1  0.12583100  0.84112300  0.13328500  1
  Hf  Hf7  1  0.35221800  0.72381000  0.10246700  1
  Hf  Hf8  1  0.25383700  0.53276300  0.28679200  1
  Hf  Hf9  1  0.75383700  0.46723700  0.21320800  1
  Hf  Hf10  1  0.85221800  0.27619000  0.39753300  1
  Hf  Hf11  1  0.62583100  0.15887700  0.36671500  1
  O  O0  1  0.05484100  0.90180700  0.60709200  1
  O  O1  1  0.25961000  0.87689700  0.57742300  1
  O  O2  1  0.35576100  0.66712000  0.73789600  1
  O  O3  1  0.80315000  0.31469000  0.15292300  1
  O  O4  1  0.77115200  0.73250400  0.66026800  1
  O  O5  1  0.45678600  0.72304100  0.58142600  1
  O  O6  1  0.62632800  0.41481900  0.96965600  1
  O  O7  1  0.16153700  0.53274200  0.70415100  1
  O  O8  1  0.66153700  0.46725800  0.79584900  1
  O  O9  1  0.12632800  0.58518100  0.53034400  1
  O  O10  1  0.58820000  0.90784800  0.36292600  1
  O  O11  1  0.95678600  0.27695900  0.91857400  1
  O  O12  1  0.27115200  0.26749600  0.83973200  1
  O  O13  1  0.08820000  0.09215200  0.13707400  1
  O  O14  1  0.85576100  0.33288000  0.76210400  1
  O  O15  1  0.75961000  0.12310300  0.92257700  1
  O  O16  1  0.69685000  0.31469000  0.65292300  1
  O  O17  1  0.55484100  0.09819300  0.89290800  1
  O  O18  1  0.44515900  0.90180700  0.10709200  1
  O  O19  1  0.30315000  0.68531000  0.34707700  1
  O  O20  1  0.24039000  0.87689700  0.07742300  1
  O  O21  1  0.14423900  0.66712000  0.23789600  1
  O  O22  1  0.91180000  0.90784800  0.86292600  1
  O  O23  1  0.72884800  0.73250400  0.16026800  1
  O  O24  1  0.04321400  0.72304100  0.08142600  1
  O  O25  1  0.41180000  0.09215200  0.63707400  1
  O  O26  1  0.87367200  0.41481900  0.46965600  1
  O  O27  1  0.33846300  0.53274200  0.20415100  1
  O  O28  1  0.83846300  0.46725800  0.29584900  1
  O  O29  1  0.37367200  0.58518100  0.03034400  1
  O  O30  1  0.54321400  0.27695900  0.41857400  1
  O  O31  1  0.22884800  0.26749600  0.33973200  1
  O  O32  1  0.19685000  0.68531000  0.84707700  1
  O  O33  1  0.64423900  0.33288000  0.26210400  1
  O  O34  1  0.74039000  0.12310300  0.42257700  1
  O  O35  1  0.94515900  0.09819300  0.39290800  1
loop_
_geom_bond_atom_site_label_1
_geom_bond_atom_site_label_2
_geom_bond_distance
_geom_bond_site_symmetry_2
Cs0 O22 2.918905 1_555
Cs0 O11 3.179540 1_555
Cs0 O14 3.188741 1_555
Cs0 O7 3.239373 1_655
Cs0 O32 3.396000 1_655
Cs0 O0 3.413781 1_655
Cs1 O32 3.057625 1_554
Cs1 O24 3.147678 1_555
Cs1 O13 3.160983 1_555
Cs1 O29 3.586014 1_555
Cs1 O11 3.763445 1_454
Cs2 O26 2.867315 1_555
Cs2 O0 3.045489 1_655
Cs2 O35 3.162123 1_565
Cs2 O4 3.255121 1_555
Cs2 O9 3.402313 1_655
Cs3 O30 3.058944 1_555
Cs3 O31 3.176467 1_555
Cs3 O19 3.217611 1_545
Cs3 O10 3.307605 1_545
Cs3 O5 3.332657 1_545
Cs3 O1 3.502025 1_545
Cs4 O27 2.977031 1_555
Cs4 O18 3.334718 1_545
Cs4 O20 3.376770 1_545
Cs4 O31 3.391625 1_555
Cs4 O13 3.551944 1_555
Cs4 O19 3.673341 1_545
Cs5 O29 2.867315 1_556
Cs5 O17 3.045489 1_555
Cs5 O18 3.162123 1_546
Cs5 O12 3.255121 1_555
Cs5 O6 3.402313 1_555
Cs6 O23 3.107673 1_545
Cs6 O3 3.145426 1_555
Cs6 O6 3.194779 1_554
Cs6 O18 3.230556 1_545
Cs6 O33 3.236459 1_555
Cs7 O31 3.107673 1_565
Cs7 O19 3.145426 1_555
Cs7 O9 3.194779 1_555
Cs7 O35 3.230556 1_465
Cs7 O21 3.236459 1_555
Cs8 O25 2.918905 1_555
Cs8 O5 3.179540 1_555
Cs8 O2 3.188741 1_555
Cs8 O8 3.239373 1_555
Cs8 O16 3.396000 1_555
Cs8 O17 3.413781 1_555
Cs9 O28 2.977031 1_555
Cs9 O35 3.334718 1_565
Cs9 O34 3.376770 1_565
Cs9 O23 3.391625 1_555
Cs9 O10 3.551944 1_555
Cs9 O3 3.673341 1_565
Cs10 O19 3.057625 1_555
Cs10 O5 3.147678 1_555
Cs10 O25 3.160983 1_555
Cs10 O9 3.586014 1_555
Cs10 O30 3.763445 1_555
Cs11 O24 3.058944 1_655
Cs11 O23 3.176467 1_555
Cs11 O3 3.217611 1_565
Cs11 O13 3.307605 1_665
Cs11 O11 3.332657 1_564
Cs11 O15 3.502025 1_564
Cs12 O11 3.058944 1_455
Cs12 O12 3.176467 1_555
Cs12 O32 3.217611 1_545
Cs12 O22 3.307605 1_445
Cs12 O24 3.332657 1_546
Cs12 O20 3.502025 1_546
Cs13 O16 3.057625 1_555
Cs13 O30 3.147678 1_555
Cs13 O10 3.160983 1_555
Cs13 O26 3.586014 1_555
Cs13 O5 3.763445 1_555
Cs14 O7 2.977031 1_555
Cs14 O0 3.334718 1_545
Cs14 O1 3.376770 1_545
Cs14 O12 3.391625 1_555
Cs14 O25 3.551944 1_555
Cs14 O32 3.673341 1_545
Cs15 O10 2.918905 1_555
Cs15 O30 3.179540 1_555
Cs15 O33 3.188741 1_555
Cs15 O27 3.239373 1_555
Cs15 O19 3.396000 1_555
Cs15 O18 3.413781 1_555
Cs16 O4 3.107673 1_545
Cs16 O16 3.145426 1_555
Cs16 O26 3.194779 1_555
Cs16 O0 3.230556 1_645
Cs16 O14 3.236459 1_555
Cs17 O12 3.107673 1_565
Cs17 O32 3.145426 1_555
Cs17 O29 3.194779 1_556
Cs17 O17 3.230556 1_565
Cs17 O2 3.236459 1_555
Cs18 O6 2.867315 1_554
Cs18 O18 3.045489 1_555
Cs18 O17 3.162123 1_564
Cs18 O23 3.255121 1_555
Cs18 O29 3.402313 1_555
Cs19 O8 2.977031 1_555
Cs19 O17 3.334718 1_565
Cs19 O15 3.376770 1_565
Cs19 O4 3.391625 1_555
Cs19 O22 3.551944 1_555
Cs19 O16 3.673341 1_565
Cs20 O5 3.058944 1_555
Cs20 O4 3.176467 1_555
Cs20 O16 3.217611 1_565
Cs20 O25 3.307605 1_565
Cs20 O30 3.332657 1_565
Cs20 O34 3.502025 1_565
Cs21 O9 2.867315 1_555
Cs21 O35 3.045489 1_455
Cs21 O0 3.162123 1_545
Cs21 O31 3.255121 1_555
Cs21 O26 3.402313 1_455
Cs22 O3 3.057625 1_556
Cs22 O11 3.147678 1_555
Cs22 O22 3.160983 1_555
Cs22 O6 3.586014 1_555
Cs22 O24 3.763445 1_656
Cs23 O13 2.918905 1_555
Cs23 O24 3.179540 1_555
Cs23 O21 3.188741 1_555
Cs23 O28 3.239373 1_455
Cs23 O3 3.396000 1_455
Cs23 O35 3.413781 1_455
Hf0 O25 1.917519 1_565
Hf0 O5 1.925565 1_555
Hf0 O1 2.008132 1_555
Hf0 O2 2.018653 1_555
Hf1 O9 1.919829 1_555
Hf1 O0 1.926161 1_555
Hf1 O1 2.007338 1_555
Hf1 O7 2.014748 1_555
Hf2 O12 1.923534 1_555
Hf2 O32 1.934647 1_555
Hf2 O7 2.009294 1_555
Hf2 O2 2.010411 1_555
Hf3 O4 1.923534 1_555
Hf3 O16 1.934647 1_555
Hf3 O8 2.009294 1_555
Hf3 O14 2.010411 1_555
Hf4 O6 1.919829 1_555
Hf4 O17 1.926161 1_555
Hf4 O15 2.007338 1_555
Hf4 O8 2.014748 1_555
Hf5 O22 1.917519 1_545
Hf5 O11 1.925565 1_555
Hf5 O15 2.008132 1_555
Hf5 O14 2.018653 1_555
Hf6 O13 1.917519 1_565
Hf6 O24 1.925565 1_555
Hf6 O20 2.008132 1_555
Hf6 O21 2.018653 1_555
Hf7 O29 1.919829 1_555
Hf7 O18 1.926161 1_555
Hf7 O20 2.007338 1_555
Hf7 O27 2.014748 1_555
Hf8 O31 1.923534 1_555
Hf8 O19 1.934647 1_555
Hf8 O27 2.009294 1_555
Hf8 O21 2.010411 1_555
Hf9 O23 1.923534 1_555
Hf9 O3 1.934647 1_555
Hf9 O28 2.009294 1_555
Hf9 O33 2.010411 1_555
Hf10 O26 1.919829 1_555
Hf10 O35 1.926161 1_555
Hf10 O34 2.007338 1_555
Hf10 O28 2.014748 1_555
Hf11 O10 1.917519 1_545
Hf11 O30 1.925565 1_555
Hf11 O34 2.008132 1_555
Hf11 O33 2.018653 1_555
