# generated using pymatgen
data_Na4FeO5
_symmetry_space_group_name_H-M   'P 1'
_cell_length_a   5.71227569
_cell_length_b   8.50031288
_cell_length_c   5.68275700
_cell_angle_alpha   101.34020555
_cell_angle_beta   102.20838258
_cell_angle_gamma   109.38688560
_symmetry_Int_Tables_number   1
_chemical_formula_structural   Na4FeO5
_chemical_formula_sum   'Na8 Fe2 O10'
_cell_volume   243.51321228
_cell_formula_units_Z   2
loop_
 _symmetry_equiv_pos_site_id
 _symmetry_equiv_pos_as_xyz
  1  'x, y, z'
loop_
 _atom_site_type_symbol
 _atom_site_label
 _atom_site_symmetry_multiplicity
 _atom_site_fract_x
 _atom_site_fract_y
 _atom_site_fract_z
 _atom_site_occupancy
  Na  Na0  1  0.19752300  0.70720100  0.59182400  1
  Na  Na1  1  0.00000000  0.50000000  0.00000000  1
  Na  Na2  1  0.00000000  0.00000000  0.50000000  1
  Na  Na3  1  0.41728800  0.90328000  0.19937700  1
  Na  Na4  1  0.40546200  0.40542100  0.70109400  1
  Na  Na5  1  0.59453800  0.59457900  0.29890600  1
  Na  Na6  1  0.58271200  0.09672000  0.80062300  1
  Na  Na7  1  0.80247700  0.29279900  0.40817600  1
  Fe  Fe0  1  0.18487500  0.19316900  0.09815800  1
  Fe  Fe1  1  0.81512500  0.80683100  0.90184200  1
  O  O0  1  0.15058000  0.96275800  0.88604700  1
  O  O1  1  0.02283200  0.24170600  0.80737200  1
  O  O2  1  0.17672300  0.39347500  0.29976500  1
  O  O3  1  0.48985700  0.69046500  0.93960100  1
  O  O4  1  0.62694900  0.84283200  0.60824900  1
  O  O5  1  0.37305100  0.15716800  0.39175100  1
  O  O6  1  0.51014300  0.30953500  0.06039900  1
  O  O7  1  0.82327700  0.60652500  0.70023500  1
  O  O8  1  0.97716800  0.75829400  0.19262800  1
  O  O9  1  0.84942000  0.03724200  0.11395300  1
loop_
_geom_bond_atom_site_label_1
_geom_bond_atom_site_label_2
_geom_bond_distance
_geom_bond_site_symmetry_2
Na0 O7 2.287327 1_455
Na0 O4 2.310503 1_555
Na0 O3 2.363716 1_555
Na0 O8 2.542043 1_455
Na0 O0 2.595069 1_555
Na0 O2 2.801071 1_555
Na1 O7 2.286273 1_454
Na1 O2 2.286273 1_555
Na1 O8 2.311095 1_455
Na1 O1 2.311095 1_554
Na1 O6 2.861124 1_455
Na1 O3 2.861124 1_554
Na2 O0 2.304062 1_545
Na2 O9 2.304062 1_455
Na2 O8 2.367220 1_445
Na2 O1 2.367220 1_555
Na2 O4 2.385759 1_445
Na2 O5 2.385759 1_555
Na3 O3 2.308685 1_554
Na3 O0 2.337786 1_554
Na3 O5 2.338276 1_565
Na3 O8 2.392612 1_455
Na3 O9 2.546310 1_565
Na3 O4 2.607346 1_555
Na4 O2 2.340826 1_555
Na4 O3 2.365771 1_555
Na4 O6 2.377537 1_556
Na4 O5 2.392013 1_555
Na4 O7 2.432705 1_555
Na4 O1 2.438876 1_555
Na5 O7 2.340826 1_555
Na5 O6 2.365771 1_555
Na5 O3 2.377537 1_554
Na5 O4 2.392013 1_555
Na5 O2 2.432705 1_555
Na5 O8 2.438876 1_555
Na6 O6 2.308685 1_556
Na6 O9 2.337786 1_556
Na6 O4 2.338276 1_545
Na6 O1 2.392612 1_655
Na6 O0 2.546310 1_545
Na6 O5 2.607346 1_555
Na7 O2 2.287327 1_655
Na7 O5 2.310503 1_555
Na7 O6 2.363716 1_555
Na7 O1 2.542043 1_655
Na7 O9 2.595069 1_555
Na7 O7 2.801071 1_555
Fe0 O6 1.873139 1_555
Fe0 O2 1.876665 1_555
Fe0 O1 1.905888 1_554
Fe0 O5 1.921818 1_555
Fe0 O9 1.967248 1_455
Fe0 O0 2.011034 1_544
Fe1 O3 1.873139 1_555
Fe1 O7 1.876665 1_555
Fe1 O8 1.905888 1_556
Fe1 O4 1.921818 1_555
Fe1 O0 1.967248 1_655
Fe1 O9 2.011034 1_566
