# generated using pymatgen
data_LiCrPO4F
_symmetry_space_group_name_H-M   'P 1'
_cell_length_a   6.20612200
_cell_length_b   10.76743544
_cell_length_c   11.01661428
_cell_angle_alpha   90.18747774
_cell_angle_beta   90.23547443
_cell_angle_gamma   90.10313574
_symmetry_Int_Tables_number   1
_chemical_formula_structural   LiCrPO4F
_chemical_formula_sum   'Li8 Cr8 P8 O32 F8'
_cell_volume   736.16306226
_cell_formula_units_Z   8
loop_
 _symmetry_equiv_pos_site_id
 _symmetry_equiv_pos_as_xyz
  1  'x, y, z'
loop_
 _atom_site_type_symbol
 _atom_site_label
 _atom_site_symmetry_multiplicity
 _atom_site_fract_x
 _atom_site_fract_y
 _atom_site_fract_z
 _atom_site_occupancy
  Li  Li0  1  0.24625600  0.22626600  0.90646600  1
  Li  Li1  1  0.51606600  0.23846300  0.66841400  1
  Li  Li2  1  0.24901300  0.43188400  0.22825600  1
  Li  Li3  1  0.25495500  0.72440500  0.59499700  1
  Li  Li4  1  0.99087800  0.72801300  0.81640600  1
  Li  Li5  1  0.50555300  0.76660900  0.32742600  1
  Li  Li6  1  0.75492800  0.77698700  0.09447600  1
  Li  Li7  1  0.24148200  0.96268100  0.26676400  1
  Cr  Cr0  1  0.99776200  0.00107800  0.99736200  1
  Cr  Cr1  1  0.50454000  0.99985900  0.99674500  1
  Cr  Cr2  1  0.99350900  0.00508200  0.50283600  1
  Cr  Cr3  1  0.50090400  0.00061700  0.50200900  1
  Cr  Cr4  1  0.99695300  0.49513500  0.50172200  1
  Cr  Cr5  1  0.50370600  0.49586100  0.50263600  1
  Cr  Cr6  1  0.99969800  0.49944800  0.99972600  1
  Cr  Cr7  1  0.50657300  0.50112600  0.99665800  1
  P  P0  1  0.74546900  0.04064800  0.25907900  1
  P  P1  1  0.74717700  0.24160100  0.91719900  1
  P  P2  1  0.25023500  0.26214300  0.42948100  1
  P  P3  1  0.25893300  0.46526700  0.76261100  1
  P  P4  1  0.74415400  0.53946000  0.24108100  1
  P  P5  1  0.75341600  0.74116000  0.57846500  1
  P  P6  1  0.25623400  0.76090600  0.07691600  1
  P  P7  1  0.24057100  0.96491800  0.73744200  1
  O  O0  1  0.24849600  0.01549800  0.87583900  1
  O  O1  1  0.04025000  0.02363200  0.67834500  1
  O  O2  1  0.44729600  0.01980900  0.67823100  1
  O  O3  1  0.25061500  0.11777800  0.46747500  1
  O  O4  1  0.72795000  0.17639600  0.25189100  1
  O  O5  1  0.54327700  0.17974100  0.97534500  1
  O  O6  1  0.95516500  0.17991900  0.97124700  1
  O  O7  1  0.74041100  0.24387000  0.78253500  1
  O  O8  1  0.26364700  0.27470900  0.29505700  1
  O  O9  1  0.04447800  0.31796000  0.48716500  1
  O  O10  1  0.45073900  0.31594000  0.50121100  1
  O  O11  1  0.26697700  0.32492200  0.76141700  1
  O  O12  1  0.75277400  0.37995300  0.97307300  1
  O  O13  1  0.54538700  0.48094600  0.17605300  1
  O  O14  1  0.95524600  0.49378100  0.17949000  1
  O  O15  1  0.74713100  0.48982100  0.37638400  1
  O  O16  1  0.25299900  0.51766800  0.62573600  1
  O  O17  1  0.05414800  0.52271700  0.82382800  1
  O  O18  1  0.45988000  0.52410000  0.82314000  1
  O  O19  1  0.25359400  0.61991500  0.03508600  1
  O  O20  1  0.72623800  0.68048300  0.24058200  1
  O  O21  1  0.54544300  0.68332400  0.51489600  1
  O  O22  1  0.95882400  0.67946800  0.52305300  1
  O  O23  1  0.74808100  0.73849100  0.71346800  1
  O  O24  1  0.25719100  0.77836400  0.21309300  1
  O  O25  1  0.04751100  0.81603600  0.01560500  1
  O  O26  1  0.46089200  0.81801600  0.01806300  1
  O  O27  1  0.22946600  0.82394900  0.74054100  1
  O  O28  1  0.75031000  0.87965400  0.52642200  1
  O  O29  1  0.54748300  0.96938100  0.32119100  1
  O  O30  1  0.95099300  0.98572900  0.32244200  1
  O  O31  1  0.75211000  0.97777000  0.12224500  1
  F  F0  1  0.25127700  0.03263000  0.10531500  1
  F  F1  1  0.74220200  0.11466000  0.51361600  1
  F  F2  1  0.25156800  0.38669500  0.01466100  1
  F  F3  1  0.75001200  0.46645800  0.60794700  1
  F  F4  1  0.25227800  0.52972300  0.39356200  1
  F  F5  1  0.75694900  0.61766900  0.98727600  1
  F  F6  1  0.24793800  0.88554500  0.48635200  1
  F  F7  1  0.75201100  0.96246600  0.89294600  1
loop_
_geom_bond_atom_site_label_1
_geom_bond_atom_site_label_2
_geom_bond_distance
_geom_bond_site_symmetry_2
Li0 O11 1.926319 1_555
Li0 O6 2.007897 1_455
Li0 O5 2.054021 1_555
Li0 O0 2.293359 1_555
Li1 O7 1.872801 1_555
Li1 O10 2.063601 1_555
Li1 O11 2.078005 1_555
Li1 O2 2.394830 1_555
Li2 O8 1.849893 1_555
Li2 O13 2.000036 1_555
Li2 O14 2.013794 1_455
Li3 O27 1.932925 1_555
Li3 O22 2.054803 1_455
Li3 O21 2.058606 1_555
Li3 O16 2.252752 1_555
Li4 O23 1.885917 1_555
Li4 O27 1.992080 1_655
Li4 O17 2.247504 1_655
Li4 O25 2.411741 1_656
Li5 O20 1.913283 1_555
Li5 O24 1.991008 1_555
Li5 O29 2.199651 1_555
Li5 O21 2.267067 1_555
Li6 O20 1.927397 1_555
Li6 O26 2.055847 1_555
Li6 O25 2.059495 1_655
Li6 O31 2.182575 1_555
Li7 O30 1.922929 1_455
Li7 O29 1.990250 1_555
Li7 O24 2.071550 1_555
Cr0 F7 1.949961 1_545
Cr0 O6 1.966126 1_555
Cr0 F0 1.996313 1_656
Cr0 O25 2.027267 1_646
Cr0 O0 2.062871 1_655
Cr0 O31 2.073196 1_546
Cr1 F7 1.960145 1_555
Cr1 O5 1.966370 1_565
Cr1 O26 1.990943 1_556
Cr1 F0 2.010046 1_566
Cr1 O0 2.076679 1_565
Cr1 O31 2.077208 1_556
Cr2 F1 1.961102 1_555
Cr2 O1 1.963460 1_655
Cr2 O30 2.013780 1_545
Cr2 O28 2.041496 1_545
Cr2 O3 2.042420 1_655
Cr2 F6 2.047208 1_645
Cr3 F1 1.938446 1_555
Cr3 O2 1.981222 1_555
Cr3 F6 2.004751 1_545
Cr3 O3 2.038219 1_555
Cr3 O29 2.040945 1_545
Cr3 O28 2.042226 1_545
Cr4 O9 1.937142 1_655
Cr4 F3 1.956759 1_555
Cr4 O22 2.012392 1_555
Cr4 F4 2.021310 1_655
Cr4 O15 2.072503 1_555
Cr4 O16 2.104541 1_655
Cr5 F3 1.942275 1_555
Cr5 O10 1.964396 1_555
Cr5 F4 2.000293 1_555
Cr5 O21 2.038555 1_555
Cr5 O15 2.058658 1_555
Cr5 O16 2.081278 1_555
Cr6 F5 1.978677 1_555
Cr6 O17 1.985017 1_655
Cr6 F2 1.987570 1_656
Cr6 O14 2.001749 1_556
Cr6 O12 2.019109 1_555
Cr6 O19 2.073986 1_656
Cr7 O18 1.948873 1_555
Cr7 F5 1.998755 1_555
Cr7 O13 2.002545 1_556
Cr7 F2 2.014754 1_556
Cr7 O12 2.027973 1_555
Cr7 O19 2.071064 1_556
O0 P7 1.617865 1_545
O1 P7 1.538830 1_545
O2 P7 1.558039 1_545
O3 P2 1.611134 1_555
O4 P0 1.468262 1_555
O5 P1 1.568986 1_555
O6 P1 1.568807 1_555
O7 P1 1.484245 1_555
O8 P2 1.490160 1_555
O9 P2 1.550029 1_555
O10 P2 1.579471 1_555
O11 P3 1.512086 1_555
O12 P1 1.610258 1_555
O13 P4 1.555267 1_555
O14 P4 1.557567 1_555
O15 P4 1.585203 1_555
O16 P3 1.612033 1_555
O17 P3 1.568394 1_555
O18 P3 1.545565 1_555
O19 P6 1.585106 1_555
O20 P4 1.522747 1_555
O21 P5 1.590911 1_555
O22 P5 1.563897 1_555
O23 P5 1.488151 1_555
O24 P6 1.511316 1_555
O25 P6 1.576309 1_555
O26 P6 1.555092 1_555
O27 P7 1.519816 1_555
O28 P5 1.599515 1_555
O29 P0 1.604301 1_565
O30 P0 1.569065 1_565
O31 P0 1.651183 1_565
F0 Li7 1.934928 1_545
F2 Li0 2.095651 1_554
F2 Li2 2.401436 1_555
F4 Li2 2.100889 1_555
F5 Li6 2.079560 1_556
F6 Li3 2.111480 1_555
