# generated using pymatgen
data_LiCuPO4
_symmetry_space_group_name_H-M   'P 1'
_cell_length_a   9.90619206
_cell_length_b   9.90619206
_cell_length_c   23.69266500
_cell_angle_alpha   90.00000000
_cell_angle_beta   90.00000000
_cell_angle_gamma   120.00000042
_symmetry_Int_Tables_number   1
_chemical_formula_structural   LiCuPO4
_chemical_formula_sum   'Li24 Cu24 P24 O96'
_cell_volume   2013.52966094
_cell_formula_units_Z   24
loop_
 _symmetry_equiv_pos_site_id
 _symmetry_equiv_pos_as_xyz
  1  'x, y, z'
loop_
 _atom_site_type_symbol
 _atom_site_label
 _atom_site_symmetry_multiplicity
 _atom_site_fract_x
 _atom_site_fract_y
 _atom_site_fract_z
 _atom_site_occupancy
  Li  Li0  1  0.02361300  0.98252900  0.69553700  1
  Li  Li1  1  0.03268400  0.58176600  0.03597200  1
  Li  Li2  1  0.03984700  0.46140400  0.19233900  1
  Li  Li3  1  0.04081200  0.48288200  0.85037800  1
  Li  Li4  1  0.42155700  0.96015300  0.85900600  1
  Li  Li5  1  0.44207000  0.95918800  0.51704500  1
  Li  Li6  1  0.01747100  0.04108300  0.02887100  1
  Li  Li7  1  0.04108300  0.02361300  0.86220400  1
  Li  Li8  1  0.54908200  0.96731600  0.70263900  1
  Li  Li9  1  0.41823400  0.45091800  0.36930600  1
  Li  Li10  1  0.51711800  0.55793000  0.18371200  1
  Li  Li11  1  0.53859600  0.57844300  0.52567300  1
  Li  Li12  1  0.46140400  0.42155700  0.02567300  1
  Li  Li13  1  0.48288200  0.44207000  0.68371200  1
  Li  Li14  1  0.58176600  0.54908200  0.86930600  1
  Li  Li15  1  0.45091800  0.03268400  0.20263900  1
  Li  Li16  1  0.95891700  0.97638700  0.36220400  1
  Li  Li17  1  0.98252900  0.95891700  0.52887100  1
  Li  Li18  1  0.55793000  0.04081200  0.01704500  1
  Li  Li19  1  0.57844300  0.03984700  0.35900600  1
  Li  Li20  1  0.95918800  0.51711800  0.35037800  1
  Li  Li21  1  0.96015300  0.53859600  0.69233900  1
  Li  Li22  1  0.96731600  0.41823400  0.53597200  1
  Li  Li23  1  0.97638700  0.01747100  0.19553700  1
  Cu  Cu0  1  0.11421200  0.81927600  0.26913000  1
  Cu  Cu1  1  0.09624000  0.77310000  0.92251100  1
  Cu  Cu2  1  0.12324500  0.76010100  0.59388300  1
  Cu  Cu3  1  0.31548800  0.65729700  0.75588000  1
  Cu  Cu4  1  0.34270300  0.65819100  0.08921300  1
  Cu  Cu5  1  0.34180900  0.68451200  0.42254600  1
  Cu  Cu6  1  0.18072400  0.29493600  0.60246400  1
  Cu  Cu7  1  0.23989900  0.36314500  0.92721600  1
  Cu  Cu8  1  0.22690000  0.32314000  0.25584400  1
  Cu  Cu9  1  0.63685500  0.87675500  0.26054900  1
  Cu  Cu10  1  0.67686000  0.90376000  0.58917700  1
  Cu  Cu11  1  0.29493600  0.11421200  0.43579700  1
  Cu  Cu12  1  0.70506400  0.88578800  0.93579700  1
  Cu  Cu13  1  0.32314000  0.09624000  0.08917700  1
  Cu  Cu14  1  0.36314500  0.12324500  0.76054900  1
  Cu  Cu15  1  0.77310000  0.67686000  0.75584400  1
  Cu  Cu16  1  0.76010100  0.63685500  0.42721600  1
  Cu  Cu17  1  0.81927600  0.70506400  0.10246400  1
  Cu  Cu18  1  0.65819100  0.31548800  0.92254600  1
  Cu  Cu19  1  0.65729700  0.34180900  0.58921300  1
  Cu  Cu20  1  0.68451200  0.34270300  0.25588000  1
  Cu  Cu21  1  0.87675500  0.23989900  0.09388300  1
  Cu  Cu22  1  0.90376000  0.22690000  0.42251100  1
  Cu  Cu23  1  0.88578800  0.18072400  0.76913000  1
  P  P0  1  0.09552600  0.79035700  0.79059400  1
  P  P1  1  0.08012100  0.75997200  0.46523100  1
  P  P2  1  0.13518100  0.77395200  0.13812300  1
  P  P3  1  0.29122400  0.65035600  0.29633300  1
  P  P4  1  0.35913200  0.70877600  0.96300000  1
  P  P5  1  0.34964400  0.64086800  0.62966700  1
  P  P6  1  0.22604800  0.36122900  0.47145600  1
  P  P7  1  0.20964300  0.30517000  0.12392800  1
  P  P8  1  0.24002800  0.32015000  0.79856400  1
  P  P9  1  0.63877100  0.86481900  0.80479000  1
  P  P10  1  0.67985000  0.91987900  0.13189800  1
  P  P11  1  0.69483000  0.90447400  0.45726100  1
  P  P12  1  0.30517000  0.09552600  0.95726100  1
  P  P13  1  0.32015000  0.08012100  0.63189800  1
  P  P14  1  0.36122900  0.13518100  0.30479000  1
  P  P15  1  0.75997200  0.67985000  0.29856400  1
  P  P16  1  0.79035700  0.69483000  0.62392800  1
  P  P17  1  0.77395200  0.63877100  0.97145600  1
  P  P18  1  0.65035600  0.35913200  0.12966700  1
  P  P19  1  0.64086800  0.29122400  0.46300000  1
  P  P20  1  0.70877600  0.34964400  0.79633300  1
  P  P21  1  0.86481900  0.22604800  0.63812300  1
  P  P22  1  0.91987900  0.24002800  0.96523100  1
  P  P23  1  0.90447400  0.20964300  0.29059400  1
  O  O0  1  0.03821100  0.77363700  0.08634000  1
  O  O1  1  0.09034000  0.92178400  0.46722200  1
  O  O2  1  0.01590200  0.70116100  0.84586100  1
  O  O3  1  0.14203000  0.99074200  0.92876400  1
  O  O4  1  0.03694000  0.74873200  0.19205800  1
  O  O5  1  0.01291700  0.67371400  0.52205600  1
  O  O6  1  0.24947900  0.93893500  0.80828100  1
  O  O7  1  0.13771000  0.65563800  0.30445700  1
  O  O8  1  0.11611700  0.67921000  0.75126800  1
  O  O9  1  0.31162200  0.96821000  0.58369200  1
  O  O10  1  0.29518000  0.92647200  0.14068400  1
  O  O11  1  0.16226700  0.63297900  0.13207700  1
  O  O12  1  0.24833100  0.79028600  0.45698800  1
  O  O13  1  0.18078400  0.60421100  0.61851000  1
  O  O14  1  0.07352800  0.36870800  0.47401800  1
  O  O15  1  0.26900900  0.72875500  0.91321700  1
  O  O16  1  0.03179000  0.34341100  0.91702500  1
  O  O17  1  0.06106500  0.31054400  0.14161400  1
  O  O18  1  0.00925800  0.15128900  0.26209700  1
  O  O19  1  0.07821600  0.16855600  0.80055500  1
  O  O20  1  0.25996300  0.67688200  0.01756200  1
  O  O21  1  0.27124500  0.54025400  0.24655000  1
  O  O22  1  0.32311800  0.58308100  0.35089600  1
  O  O23  1  0.20971400  0.45804400  0.79032100  1
  O  O24  1  0.41691900  0.74003700  0.68422900  1
  O  O25  1  0.42342700  0.81921600  0.28517600  1
  O  O26  1  0.47071200  0.83773300  0.79874300  1
  O  O27  1  0.32079000  0.43690700  0.08460100  1
  O  O28  1  0.34436200  0.48207100  0.63779000  1
  O  O29  1  0.36702100  0.52928800  0.46541000  1
  O  O30  1  0.25126800  0.28820800  0.52539100  1
  O  O31  1  0.39578900  0.57657300  0.95184300  1
  O  O32  1  0.45974600  0.73099100  0.57988300  1
  O  O33  1  0.51792900  0.86229000  0.97112400  1
  O  O34  1  0.56309300  0.88388300  0.41793500  1
  O  O35  1  0.15128900  0.14203000  0.09543000  1
  O  O36  1  0.22636300  0.26457500  0.41967400  1
  O  O37  1  0.29883900  0.31474100  0.17919400  1
  O  O38  1  0.16855600  0.09034000  0.63388900  1
  O  O39  1  0.32628600  0.33920300  0.85538900  1
  O  O40  1  0.54195600  0.75166900  0.12365500  1
  O  O41  1  0.31054400  0.24947900  0.97494700  1
  O  O42  1  0.66079700  0.98708300  0.18872300  1
  O  O43  1  0.34341100  0.31162200  0.75035800  1
  O  O44  1  0.36870800  0.29518000  0.30735100  1
  O  O45  1  0.68525900  0.98409800  0.51252700  1
  O  O46  1  0.71179200  0.96306000  0.85872400  1
  O  O47  1  0.26457500  0.03821100  0.25300700  1
  O  O48  1  0.73542500  0.96178900  0.75300700  1
  O  O49  1  0.28820800  0.03694000  0.35872400  1
  O  O50  1  0.31474100  0.01590200  0.01252700  1
  O  O51  1  0.63129200  0.70482000  0.80735100  1
  O  O52  1  0.65658900  0.68837800  0.25035800  1
  O  O53  1  0.33920300  0.01291700  0.68872300  1
  O  O54  1  0.68945600  0.75052100  0.47494700  1
  O  O55  1  0.45804400  0.24833100  0.62365500  1
  O  O56  1  0.67371400  0.66079700  0.35538900  1
  O  O57  1  0.83144400  0.90966000  0.13388900  1
  O  O58  1  0.70116100  0.68525900  0.67919400  1
  O  O59  1  0.77363700  0.73542500  0.91967400  1
  O  O60  1  0.84871100  0.85797000  0.59543000  1
  O  O61  1  0.43690700  0.11611700  0.91793500  1
  O  O62  1  0.48207100  0.13771000  0.47112400  1
  O  O63  1  0.54025400  0.26900900  0.07988300  1
  O  O64  1  0.60421100  0.42342700  0.45184300  1
  O  O65  1  0.74873200  0.71179200  0.02539100  1
  O  O66  1  0.63297900  0.47071200  0.96541000  1
  O  O67  1  0.65563800  0.51792900  0.13779000  1
  O  O68  1  0.67921000  0.56309300  0.58460100  1
  O  O69  1  0.52928800  0.16226700  0.29874300  1
  O  O70  1  0.57657300  0.18078400  0.78517600  1
  O  O71  1  0.58308100  0.25996300  0.18422900  1
  O  O72  1  0.79028600  0.54195600  0.29032100  1
  O  O73  1  0.67688200  0.41691900  0.85089600  1
  O  O74  1  0.72875500  0.45974600  0.74655000  1
  O  O75  1  0.74003700  0.32311800  0.51756200  1
  O  O76  1  0.92178400  0.83144400  0.30055500  1
  O  O77  1  0.99074200  0.84871100  0.76209700  1
  O  O78  1  0.93893500  0.68945600  0.64161400  1
  O  O79  1  0.96821000  0.65658900  0.41702500  1
  O  O80  1  0.73099100  0.27124500  0.41321700  1
  O  O81  1  0.92647200  0.63129200  0.97401800  1
  O  O82  1  0.81921600  0.39578900  0.11851000  1
  O  O83  1  0.75166900  0.20971400  0.95698800  1
  O  O84  1  0.83773300  0.36702100  0.63207700  1
  O  O85  1  0.70482000  0.07352800  0.64068400  1
  O  O86  1  0.68837800  0.03179000  0.08369200  1
  O  O87  1  0.88388300  0.32079000  0.25126800  1
  O  O88  1  0.86229000  0.34436200  0.80445700  1
  O  O89  1  0.75052100  0.06106500  0.30828100  1
  O  O90  1  0.98708300  0.32628600  0.02205600  1
  O  O91  1  0.96306000  0.25126800  0.69205800  1
  O  O92  1  0.85797000  0.00925800  0.42876400  1
  O  O93  1  0.98409800  0.29883900  0.34586100  1
  O  O94  1  0.90966000  0.07821600  0.96722200  1
  O  O95  1  0.96178900  0.22636300  0.58634000  1
loop_
_geom_bond_atom_site_label_1
_geom_bond_atom_site_label_2
_geom_bond_distance
_geom_bond_site_symmetry_2
Li0 O38 1.949907 1_565
Li0 O77 1.979530 1_455
Li1 O81 2.004629 1_454
Li1 O20 2.006430 1_555
Li1 O0 2.221649 1_555
Li1 O90 2.361065 1_455
Li1 O11 2.537442 1_555
Li2 O17 2.008985 1_555
Li2 O87 2.030905 1_455
Li2 O11 2.082505 1_555
Li2 O21 2.392452 1_555
Li2 O82 2.615049 1_455
Li3 O88 1.940995 1_455
Li3 O16 2.070454 1_555
Li3 O2 2.298157 1_555
Li3 O23 2.301394 1_555
Li4 O6 2.008985 1_555
Li4 O61 2.030905 1_565
Li4 O26 2.082521 1_555
Li4 O15 2.392452 1_555
Li4 O70 2.615065 1_565
Li5 O62 1.940997 1_565
Li5 O9 2.070448 1_555
Li5 O45 2.298158 1_555
Li5 O12 2.301390 1_555
Li6 O94 1.949929 1_454
Li6 O35 1.979511 1_555
Li7 O19 1.949923 1_555
Li7 O3 1.979530 1_545
Li8 O85 2.004646 1_565
Li8 O24 2.006430 1_555
Li8 O48 2.221640 1_555
Li8 O53 2.361065 1_565
Li8 O26 2.537421 1_555
Li9 O44 2.004646 1_555
Li9 O22 2.006430 1_555
Li9 O36 2.221645 1_555
Li9 O56 2.361069 1_555
Li9 O29 2.537421 1_555
Li10 O67 1.941003 1_555
Li10 O52 2.070434 1_555
Li10 O37 2.298158 1_555
Li10 O40 2.301387 1_555
Li11 O54 2.008999 1_555
Li11 O68 2.030889 1_555
Li11 O29 2.082521 1_555
Li11 O32 2.392439 1_555
Li11 O64 2.615065 1_555
Li12 O41 2.008999 1_554
Li12 O27 2.030889 1_555
Li12 O66 2.082521 1_554
Li12 O63 2.392439 1_555
Li12 O31 2.615065 1_554
Li13 O28 1.941003 1_555
Li13 O43 2.070434 1_555
Li13 O58 2.298158 1_555
Li13 O55 2.301387 1_555
Li14 O51 2.004646 1_555
Li14 O73 2.006430 1_555
Li14 O59 2.221645 1_555
Li14 O39 2.361069 1_555
Li14 O66 2.537421 1_555
Li15 O10 2.004646 1_545
Li15 O71 2.006430 1_555
Li15 O47 2.221640 1_555
Li15 O42 2.361065 1_545
Li15 O69 2.537421 1_555
Li16 O76 1.949923 1_555
Li16 O92 1.979530 1_565
Li17 O1 1.949929 1_655
Li17 O60 1.979511 1_555
Li18 O33 1.940997 1_544
Li18 O86 2.070448 1_555
Li18 O50 2.298158 1_555
Li18 O83 2.301390 1_554
Li19 O89 2.008985 1_555
Li19 O34 2.030905 1_545
Li19 O69 2.082521 1_555
Li19 O80 2.392452 1_555
Li19 O25 2.615065 1_545
Li20 O7 1.940995 1_655
Li20 O79 2.070454 1_555
Li20 O93 2.298157 1_555
Li20 O72 2.301394 1_555
Li21 O78 2.008985 1_555
Li21 O8 2.030905 1_655
Li21 O84 2.082505 1_555
Li21 O74 2.392452 1_555
Li21 O13 2.615049 1_655
Li22 O14 2.004629 1_655
Li22 O75 2.006430 1_555
Li22 O95 2.221649 1_555
Li22 O5 2.361065 1_655
Li22 O84 2.537442 1_555
Li23 O57 1.949907 1_545
Li23 O18 1.979530 1_655
Cu0 O7 1.939023 1_555
Cu0 O47 1.959044 1_565
Cu0 O4 1.968196 1_555
Cu0 O76 2.105316 1_455
Cu1 O2 1.967761 1_555
Cu1 O3 1.974356 1_555
Cu1 O15 1.980524 1_555
Cu1 O81 1.982027 1_455
Cu2 O78 1.955625 1_455
Cu2 O5 1.971692 1_555
Cu2 O13 1.982512 1_555
Cu2 O9 1.985849 1_555
Cu3 O23 1.895150 1_555
Cu3 O24 1.933832 1_555
Cu3 O26 1.960152 1_555
Cu3 O8 2.094860 1_555
Cu4 O40 1.895160 1_555
Cu4 O20 1.933832 1_555
Cu4 O11 1.960164 1_555
Cu4 O27 2.094860 1_555
Cu5 O12 1.895152 1_555
Cu5 O22 1.933812 1_555
Cu5 O29 1.960164 1_555
Cu5 O34 2.094859 1_555
Cu6 O28 1.939008 1_555
Cu6 O95 1.959046 1_455
Cu6 O30 1.968218 1_555
Cu6 O38 2.105316 1_555
Cu7 O41 1.955632 1_555
Cu7 O39 1.971696 1_555
Cu7 O31 1.982505 1_555
Cu7 O16 1.985841 1_555
Cu8 O37 1.967761 1_555
Cu8 O18 1.974353 1_555
Cu8 O21 1.980524 1_555
Cu8 O44 1.982027 1_555
Cu9 O89 1.955640 1_565
Cu9 O42 1.971670 1_555
Cu9 O25 1.982503 1_555
Cu9 O52 1.985860 1_555
Cu10 O45 1.967761 1_555
Cu10 O60 1.974347 1_555
Cu10 O32 1.980524 1_555
Cu10 O85 1.982027 1_565
Cu11 O62 1.939014 1_555
Cu11 O36 1.959051 1_555
Cu11 O49 1.968218 1_555
Cu11 O1 2.105316 1_545
Cu12 O33 1.939014 1_555
Cu12 O59 1.959051 1_555
Cu12 O46 1.968218 1_555
Cu12 O94 2.105316 1_565
Cu13 O50 1.967761 1_555
Cu13 O35 1.974347 1_555
Cu13 O63 1.980524 1_555
Cu13 O10 1.982027 1_545
Cu14 O6 1.955640 1_545
Cu14 O53 1.971670 1_555
Cu14 O70 1.982503 1_555
Cu14 O43 1.985860 1_555
Cu15 O58 1.967761 1_555
Cu15 O77 1.974353 1_555
Cu15 O74 1.980524 1_555
Cu15 O51 1.982027 1_555
Cu16 O54 1.955632 1_555
Cu16 O56 1.971696 1_555
Cu16 O64 1.982505 1_555
Cu16 O79 1.985841 1_555
Cu17 O67 1.939008 1_555
Cu17 O0 1.959046 1_655
Cu17 O65 1.968218 1_555
Cu17 O57 2.105316 1_555
Cu18 O83 1.895152 1_555
Cu18 O73 1.933812 1_555
Cu18 O66 1.960164 1_555
Cu18 O61 2.094859 1_555
Cu19 O55 1.895160 1_555
Cu19 O75 1.933832 1_555
Cu19 O84 1.960164 1_555
Cu19 O68 2.094860 1_555
Cu20 O72 1.895150 1_555
Cu20 O71 1.933832 1_555
Cu20 O69 1.960152 1_555
Cu20 O87 2.094860 1_555
Cu21 O17 1.955625 1_655
Cu21 O90 1.971692 1_555
Cu21 O82 1.982512 1_555
Cu21 O86 1.985849 1_555
Cu22 O93 1.967761 1_555
Cu22 O92 1.974356 1_555
Cu22 O80 1.980524 1_555
Cu22 O14 1.982027 1_655
Cu23 O88 1.939023 1_555
Cu23 O48 1.959044 1_545
Cu23 O91 1.968196 1_555
Cu23 O19 2.105316 1_655
O0 P2 1.557241 1_555
O1 P1 1.555514 1_555
O2 P0 1.555805 1_555
O3 P12 1.570848 1_565
O4 P2 1.548975 1_555
O5 P1 1.554706 1_555
O6 P0 1.556640 1_555
O7 P3 1.559489 1_555
O8 P0 1.531871 1_555
O9 P13 1.564276 1_565
O10 P2 1.550454 1_555
O11 P2 1.554816 1_555
O12 P1 1.550662 1_555
O13 P5 1.546749 1_555
O14 P6 1.550455 1_555
O15 P4 1.550521 1_555
O16 P22 1.564276 1_455
O17 P7 1.556629 1_555
O18 P23 1.570834 1_455
O19 P8 1.555519 1_555
O20 P4 1.557449 1_554
O21 P3 1.550521 1_555
O22 P3 1.557469 1_555
O23 P8 1.550643 1_555
O24 P5 1.557449 1_555
O25 P3 1.546749 1_555
O26 P9 1.554818 1_555
O27 P7 1.531880 1_555
O28 P5 1.559496 1_555
O29 P6 1.554816 1_555
O30 P6 1.548975 1_555
O31 P4 1.546749 1_555
O32 P5 1.550539 1_555
O33 P4 1.559494 1_555
O34 P11 1.531863 1_555
O35 P7 1.570861 1_555
O36 P6 1.557216 1_555
O37 P7 1.555788 1_555
O38 P13 1.555524 1_555
O39 P8 1.554708 1_555
O40 P10 1.550656 1_555
O41 P12 1.556638 1_555
O42 P10 1.554703 1_555
O43 P8 1.564276 1_555
O44 P14 1.550454 1_555
O45 P11 1.555782 1_555
O46 P9 1.548955 1_555
O47 P14 1.557238 1_555
O48 P9 1.557238 1_555
O49 P14 1.548955 1_555
O50 P12 1.555782 1_554
O51 P9 1.550454 1_555
O52 P15 1.564276 1_555
O53 P13 1.554703 1_555
O54 P11 1.556638 1_555
O55 P13 1.550656 1_555
O56 P15 1.554708 1_555
O57 P10 1.555524 1_555
O58 P16 1.555788 1_555
O59 P17 1.557216 1_555
O60 P16 1.570861 1_555
O61 P12 1.531863 1_555
O62 P19 1.559494 1_555
O63 P18 1.550539 1_555
O64 P19 1.546749 1_555
O65 P17 1.548975 1_554
O66 P17 1.554816 1_555
O67 P18 1.559496 1_555
O68 P16 1.531880 1_555
O69 P14 1.554818 1_555
O70 P20 1.546749 1_555
O71 P18 1.557449 1_555
O72 P15 1.550643 1_555
O73 P20 1.557469 1_555
O74 P20 1.550521 1_555
O75 P19 1.557449 1_555
O76 P15 1.555519 1_555
O77 P0 1.570834 1_655
O78 P16 1.556629 1_555
O79 P1 1.564276 1_655
O80 P19 1.550521 1_555
O81 P17 1.550455 1_555
O82 P18 1.546749 1_555
O83 P22 1.550662 1_555
O84 P21 1.554816 1_555
O85 P21 1.550454 1_555
O86 P10 1.564276 1_545
O87 P23 1.531871 1_555
O88 P20 1.559489 1_555
O89 P23 1.556640 1_555
O90 P22 1.554706 1_554
O91 P21 1.548975 1_555
O92 P11 1.570848 1_545
O93 P23 1.555805 1_555
O94 P22 1.555514 1_555
O95 P21 1.557241 1_555
