# generated using pymatgen
data_YH2(CO3)2
_symmetry_space_group_name_H-M   'P 1'
_cell_length_a   8.53852374
_cell_length_b   8.53852374
_cell_length_c   9.62255300
_cell_angle_alpha   90.00000000
_cell_angle_beta   90.00000000
_cell_angle_gamma   125.29702254
_symmetry_Int_Tables_number   1
_chemical_formula_structural   YH2(CO3)2
_chemical_formula_sum   'Y4 H8 C8 O24'
_cell_volume   572.57878480
_cell_formula_units_Z   4
loop_
 _symmetry_equiv_pos_site_id
 _symmetry_equiv_pos_as_xyz
  1  'x, y, z'
loop_
 _atom_site_type_symbol
 _atom_site_label
 _atom_site_symmetry_multiplicity
 _atom_site_fract_x
 _atom_site_fract_y
 _atom_site_fract_z
 _atom_site_occupancy
  Y  Y0  1  0.70659000  0.29341000  0.25000000  1
  Y  Y1  1  0.70696500  0.29303500  0.75000000  1
  Y  Y2  1  0.29341000  0.70659000  0.75000000  1
  Y  Y3  1  0.29303500  0.70696500  0.25000000  1
  H  H0  1  0.20605800  0.00284100  0.25851100  1
  H  H1  1  0.79394200  0.99715900  0.75851100  1
  H  H2  1  0.79617500  0.99955600  0.23177100  1
  H  H3  1  0.00044400  0.20382500  0.26822900  1
  H  H4  1  0.00284100  0.20605800  0.74148900  1
  H  H5  1  0.99715900  0.79394200  0.24148900  1
  H  H6  1  0.99955600  0.79617500  0.76822900  1
  H  H7  1  0.20382500  0.00044400  0.73177100  1
  C  C0  1  0.40124500  0.40186300  0.74028200  1
  C  C1  1  0.59813700  0.59875500  0.75971800  1
  C  C2  1  0.40186300  0.40124500  0.25971800  1
  C  C3  1  0.59875500  0.59813700  0.24028200  1
  C  C4  1  0.53351400  0.08293200  0.00039600  1
  C  C5  1  0.91706800  0.46648600  0.49960400  1
  C  C6  1  0.08293200  0.53351400  0.99960400  1
  C  C7  1  0.46648600  0.91706800  0.50039600  1
  O  O0  1  0.50393100  0.00154800  0.38182900  1
  O  O1  1  0.50543200  0.00011100  0.61955700  1
  O  O2  1  0.40290900  0.25368300  0.25934500  1
  O  O3  1  0.40434500  0.25599100  0.72548500  1
  O  O4  1  0.62766300  0.26962400  0.99953500  1
  O  O5  1  0.86219000  0.13781000  0.25000000  1
  O  O6  1  0.86242400  0.13757600  0.75000000  1
  O  O7  1  0.73037600  0.37233700  0.50046500  1
  O  O8  1  0.74400900  0.59565500  0.77451500  1
  O  O9  1  0.74631700  0.59709100  0.24065500  1
  O  O10  1  0.99845200  0.49606900  0.11817100  1
  O  O11  1  0.99988900  0.49456800  0.88044300  1
  O  O12  1  0.00154800  0.50393100  0.61817100  1
  O  O13  1  0.00011100  0.50543200  0.38044300  1
  O  O14  1  0.25368300  0.40290900  0.74065500  1
  O  O15  1  0.25599100  0.40434500  0.27451500  1
  O  O16  1  0.26962400  0.62766300  0.00046500  1
  O  O17  1  0.13757600  0.86242400  0.25000000  1
  O  O18  1  0.13781000  0.86219000  0.75000000  1
  O  O19  1  0.37233700  0.73037600  0.49953500  1
  O  O20  1  0.59565500  0.74400900  0.22548500  1
  O  O21  1  0.59709100  0.74631700  0.75934500  1
  O  O22  1  0.49456800  0.99988900  0.11955700  1
  O  O23  1  0.49606900  0.99845200  0.88182900  1
loop_
_geom_bond_atom_site_label_1
_geom_bond_atom_site_label_2
_geom_bond_distance
_geom_bond_site_symmetry_2
H0 O17 0.987894 1_545
H1 O6 0.987894 1_565
H2 O5 0.986446 1_565
H3 O5 0.986446 1_455
H4 O6 0.987894 1_455
H5 O17 0.987894 1_655
H6 O18 0.986446 1_655
H7 O18 0.986446 1_545
C0 O14 1.265148 1_555
C0 O3 1.269024 1_555
C1 O21 1.265148 1_555
C1 O8 1.269024 1_555
C2 O2 1.265148 1_555
C2 O15 1.269024 1_555
C3 O9 1.265148 1_555
C3 O20 1.269024 1_555
C4 O22 1.286714 1_545
C4 O23 1.287524 1_544
C4 O4 1.306325 1_554
C5 O13 1.286714 1_655
C5 O12 1.287524 1_655
C5 O7 1.306325 1_555
C6 O11 1.286714 1_455
C6 O10 1.287524 1_456
C6 O16 1.306325 1_556
C7 O1 1.286714 1_565
C7 O0 1.287524 1_565
C7 O19 1.306325 1_555
O0 Y0 2.414638 1_555
O0 Y3 2.438087 1_545
O1 Y1 2.412171 1_555
O1 Y2 2.427101 1_545
O2 Y0 2.414597 1_555
O3 Y1 2.426496 1_555
O4 Y1 2.471360 1_555
O4 Y0 2.479090 1_556
O5 Y0 2.360127 1_555
O6 Y1 2.357989 1_555
O7 Y1 2.471360 1_555
O7 Y0 2.479090 1_555
O8 Y1 2.426496 1_555
O9 Y0 2.414597 1_555
O10 Y0 2.414638 1_555
O10 Y3 2.438087 1_655
O11 Y1 2.412171 1_555
O11 Y2 2.427101 1_655
O12 Y2 2.414638 1_555
O12 Y1 2.438087 1_455
O13 Y3 2.412171 1_555
O13 Y0 2.427101 1_455
O14 Y2 2.414597 1_555
O15 Y3 2.426496 1_555
O16 Y3 2.471360 1_555
O16 Y2 2.479090 1_554
O17 Y3 2.357989 1_555
O18 Y2 2.360127 1_555
O19 Y3 2.471360 1_555
O19 Y2 2.479090 1_555
O20 Y3 2.426496 1_555
O21 Y2 2.414597 1_555
O22 Y3 2.412171 1_555
O22 Y0 2.427101 1_565
O23 Y2 2.414638 1_555
O23 Y1 2.438087 1_565
