# generated using pymatgen
data_Li2Fe2NiO6
_symmetry_space_group_name_H-M   'P 1'
_cell_length_a   7.69739581
_cell_length_b   7.69739607
_cell_length_c   5.92010462
_cell_angle_alpha   101.91027711
_cell_angle_beta   101.91028764
_cell_angle_gamma   68.54973604
_symmetry_Int_Tables_number   1
_chemical_formula_structural   Li2Fe2NiO6
_chemical_formula_sum   'Li6 Fe6 Ni3 O18'
_cell_volume   316.12425645
_cell_formula_units_Z   3
loop_
 _symmetry_equiv_pos_site_id
 _symmetry_equiv_pos_as_xyz
  1  'x, y, z'
loop_
 _atom_site_type_symbol
 _atom_site_label
 _atom_site_symmetry_multiplicity
 _atom_site_fract_x
 _atom_site_fract_y
 _atom_site_fract_z
 _atom_site_occupancy
  Li  Li0  1  0.66919800  0.32416400  0.50145900  1
  Li  Li1  1  0.32416400  0.66919800  0.50145900  1
  Li  Li2  1  0.66558800  0.00107900  0.16666700  1
  Li  Li3  1  0.00107900  0.66558800  0.16666700  1
  Li  Li4  1  0.34250300  0.99746900  0.83187400  1
  Li  Li5  1  0.99746900  0.34250300  0.83187400  1
  Fe  Fe0  1  0.00118600  0.00118600  0.99852500  1
  Fe  Fe1  1  0.66548100  0.66548100  0.33480800  1
  Fe  Fe2  1  0.66329100  0.33327900  0.99760500  1
  Fe  Fe3  1  0.33327900  0.66329100  0.99760500  1
  Fe  Fe4  1  0.33338800  0.00337600  0.33572900  1
  Fe  Fe5  1  0.00337600  0.33338800  0.33572900  1
  Ni  Ni0  1  0.67123600  0.99543100  0.66666700  1
  Ni  Ni1  1  0.33333300  0.33333300  0.66666700  1
  Ni  Ni2  1  0.99543100  0.67123600  0.66666700  1
  O  O0  1  0.81199000  0.81199000  0.41101100  1
  O  O1  1  0.82656100  0.48840900  0.11076400  1
  O  O2  1  0.48840900  0.82656100  0.11076400  1
  O  O3  1  0.85467700  0.85467700  0.92232200  1
  O  O4  1  0.83330800  0.49042200  0.54545800  1
  O  O5  1  0.49042200  0.83330800  0.54545800  1
  O  O6  1  0.84010500  0.17825800  0.22256900  1
  O  O7  1  0.51046700  0.51046700  0.23055500  1
  O  O8  1  0.17825800  0.84010500  0.22256900  1
  O  O9  1  0.83335900  0.17624500  0.78787500  1
  O  O10  1  0.49800100  0.49800100  0.78007600  1
  O  O11  1  0.17624500  0.83335900  0.78787500  1
  O  O12  1  0.48971500  0.14464400  0.41935400  1
  O  O13  1  0.14464400  0.48971500  0.41935400  1
  O  O14  1  0.15620000  0.15620000  0.10277900  1
  O  O15  1  0.52202200  0.17695200  0.91397900  1
  O  O16  1  0.17695200  0.52202200  0.91397900  1
  O  O17  1  0.16866600  0.16866600  0.55325700  1
loop_
_geom_bond_atom_site_label_1
_geom_bond_atom_site_label_2
_geom_bond_distance
_geom_bond_site_symmetry_2
Li0 O4 2.051902 1_555
Li0 O9 2.151379 1_555
Li0 O6 2.183694 1_555
Li0 O12 2.212753 1_555
Li0 O10 2.223552 1_555
Li0 O7 2.231689 1_555
Li1 O5 2.051902 1_555
Li1 O11 2.151380 1_555
Li1 O8 2.183694 1_555
Li1 O13 2.212753 1_555
Li1 O10 2.223551 1_555
Li1 O7 2.231689 1_555
Li2 O12 2.085924 1_555
Li2 O15 2.085929 1_554
Li2 O0 2.115994 1_545
Li2 O3 2.115999 1_544
Li2 O6 2.178116 1_555
Li2 O2 2.178121 1_545
Li3 O13 2.085924 1_555
Li3 O16 2.085930 1_554
Li3 O0 2.115995 1_455
Li3 O3 2.115999 1_454
Li3 O8 2.178116 1_555
Li3 O1 2.178121 1_455
Li4 O11 2.051902 1_555
Li4 O5 2.151380 1_555
Li4 O2 2.183699 1_556
Li4 O15 2.212747 1_565
Li4 O17 2.223551 1_565
Li4 O14 2.231694 1_566
Li5 O9 2.051902 1_555
Li5 O4 2.151379 1_555
Li5 O1 2.183699 1_556
Li5 O16 2.212747 1_655
Li5 O17 2.223552 1_655
Li5 O14 2.231693 1_656
Fe0 O3 1.804796 1_445
Fe0 O14 1.913572 1_556
Fe0 O9 1.948143 1_455
Fe0 O11 1.948144 1_545
Fe0 O8 1.962380 1_546
Fe0 O6 1.962381 1_456
Fe1 O0 1.804796 1_555
Fe1 O7 1.913572 1_555
Fe1 O4 1.948143 1_555
Fe1 O5 1.948144 1_555
Fe1 O2 1.962376 1_555
Fe1 O1 1.962377 1_555
Fe2 O15 1.834233 1_555
Fe2 O9 1.900134 1_555
Fe2 O10 1.924221 1_555
Fe2 O6 1.941626 1_556
Fe2 O7 1.966131 1_556
Fe2 O1 1.968241 1_556
Fe3 O16 1.834233 1_555
Fe3 O11 1.900134 1_555
Fe3 O10 1.924221 1_555
Fe3 O8 1.941627 1_556
Fe3 O7 1.966130 1_556
Fe3 O2 1.968241 1_556
Fe4 O12 1.834227 1_555
Fe4 O5 1.900130 1_545
Fe4 O17 1.924217 1_555
Fe4 O2 1.941633 1_545
Fe4 O14 1.966130 1_555
Fe4 O8 1.968247 1_545
Fe5 O13 1.834227 1_555
Fe5 O4 1.900130 1_455
Fe5 O17 1.924217 1_555
Fe5 O1 1.941633 1_455
Fe5 O14 1.966131 1_555
Fe5 O6 1.968247 1_455
Ni0 O15 2.022639 1_565
Ni0 O12 2.022640 1_565
Ni0 O3 2.033264 1_555
Ni0 O0 2.033268 1_555
Ni0 O9 2.120800 1_565
Ni0 O5 2.120800 1_555
Ni1 O17 2.033822 1_555
Ni1 O10 2.033834 1_555
Ni1 O15 2.067150 1_555
Ni1 O16 2.067151 1_555
Ni1 O13 2.067158 1_555
Ni1 O12 2.067158 1_555
Ni2 O16 2.022639 1_655
Ni2 O13 2.022640 1_655
Ni2 O3 2.033264 1_555
Ni2 O0 2.033268 1_555
Ni2 O11 2.120800 1_655
Ni2 O4 2.120800 1_555
