# generated using pymatgen
data_Ba2LiTi11O24
_symmetry_space_group_name_H-M   'P 1'
_cell_length_a   7.33649300
_cell_length_b   7.39610733
_cell_length_c   8.96521818
_cell_angle_alpha   101.86263955
_cell_angle_beta   101.91066242
_cell_angle_gamma   87.68192800
_symmetry_Int_Tables_number   1
_chemical_formula_structural   Ba2LiTi11O24
_chemical_formula_sum   'Ba2 Li1 Ti11 O24'
_cell_volume   465.82610715
_cell_formula_units_Z   1
loop_
 _symmetry_equiv_pos_site_id
 _symmetry_equiv_pos_as_xyz
  1  'x, y, z'
loop_
 _atom_site_type_symbol
 _atom_site_label
 _atom_site_symmetry_multiplicity
 _atom_site_fract_x
 _atom_site_fract_y
 _atom_site_fract_z
 _atom_site_occupancy
  Ba  Ba0  1  0.00457200  0.00043200  0.22469100  1
  Ba  Ba1  1  0.00923800  0.00393300  0.78129200  1
  Li  Li0  1  0.49329600  0.19370500  0.94632700  1
  Ti  Ti0  1  0.47398800  0.18193400  0.61763100  1
  Ti  Ti1  1  0.48056700  0.18400600  0.26914700  1
  Ti  Ti2  1  0.18911900  0.50889400  0.11160500  1
  Ti  Ti3  1  0.17937600  0.53173900  0.45269800  1
  Ti  Ti4  1  0.18468100  0.51061000  0.78716700  1
  Ti  Ti5  1  0.80980300  0.47815800  0.21140300  1
  Ti  Ti6  1  0.81128500  0.47229500  0.54711300  1
  Ti  Ti7  1  0.80347600  0.48726100  0.88323800  1
  Ti  Ti8  1  0.51976800  0.82915600  0.72986500  1
  Ti  Ti9  1  0.50749900  0.83228300  0.05171700  1
  Ti  Ti10  1  0.52287700  0.81681200  0.38962500  1
  O  O0  1  0.33948200  0.03573200  0.07848600  1
  O  O1  1  0.35928400  0.04402400  0.40068500  1
  O  O2  1  0.35070000  0.03817000  0.71884200  1
  O  O3  1  0.28732400  0.37178100  0.27815700  1
  O  O4  1  0.28585600  0.37769100  0.94223400  1
  O  O5  1  0.29289600  0.37880800  0.61121900  1
  O  O6  1  0.04773200  0.64403700  0.28218200  1
  O  O7  1  0.04803900  0.64535100  0.61530800  1
  O  O8  1  0.04755600  0.64760800  0.95011700  1
  O  O9  1  0.62267800  0.29269300  0.48481300  1
  O  O10  1  0.63458600  0.29479900  0.80626100  1
  O  O11  1  0.63490300  0.28881700  0.16644400  1
  O  O12  1  0.37549800  0.70358700  0.18397300  1
  O  O13  1  0.38016500  0.70397900  0.51168500  1
  O  O14  1  0.37021900  0.71068500  0.84420700  1
  O  O15  1  0.95280400  0.35380500  0.05030800  1
  O  O16  1  0.95585000  0.35718400  0.38656100  1
  O  O17  1  0.95565600  0.35670800  0.71692000  1
  O  O18  1  0.71087700  0.62852100  0.71790300  1
  O  O19  1  0.70331200  0.62478000  0.05899200  1
  O  O20  1  0.70870000  0.62525100  0.38976500  1
  O  O21  1  0.65305000  0.93745900  0.93421000  1
  O  O22  1  0.64547000  0.95328600  0.26546200  1
  O  O23  1  0.64781900  0.95402400  0.60174900  1
loop_
_geom_bond_atom_site_label_1
_geom_bond_atom_site_label_2
_geom_bond_distance
_geom_bond_site_symmetry_2
Ba0 O1 2.743999 1_555
Ba0 O22 2.778534 1_445
Ba0 O6 2.781683 1_545
Ba0 O16 2.785568 1_455
Ba0 O0 3.057024 1_555
Ba0 O21 3.236680 1_444
Ba0 O8 3.252922 1_544
Ba0 O15 3.282338 1_455
Ba1 O2 2.709580 1_555
Ba1 O17 2.781684 1_455
Ba1 O7 2.796487 1_545
Ba1 O23 2.798406 1_445
Li0 O4 1.999786 1_555
Li0 O11 2.027460 1_556
Li0 O10 2.048506 1_555
Li0 O21 2.183016 1_545
Li0 O2 2.197552 1_555
Li0 O0 2.295662 1_556
O0 Ti9 1.914379 1_545
O0 Ti1 1.945924 1_555
O1 Ti10 2.022819 1_545
O1 Ti0 2.027231 1_555
O1 Ti1 2.064920 1_555
O2 Ti0 1.893486 1_555
O2 Ti8 1.948115 1_545
O3 Ti1 1.946053 1_555
O3 Ti2 1.973943 1_555
O3 Ti3 2.037171 1_555
O4 Ti4 1.878035 1_555
O4 Ti2 1.879987 1_556
O5 Ti0 1.932629 1_555
O5 Ti4 1.972547 1_555
O5 Ti3 2.022092 1_555
O6 Ti3 1.951225 1_555
O6 Ti5 2.085856 1_455
O6 Ti2 2.087134 1_555
O7 Ti3 1.941774 1_555
O7 Ti4 2.070002 1_555
O7 Ti6 2.109216 1_455
O8 Ti4 2.022012 1_555
O8 Ti2 2.032504 1_556
O8 Ti7 2.099715 1_455
O9 Ti6 1.875046 1_555
O9 Ti1 2.017002 1_555
O9 Ti0 2.070846 1_555
O10 Ti7 1.850307 1_555
O10 Ti0 1.903055 1_555
O11 Ti5 1.862750 1_555
O11 Ti1 1.877652 1_555
O12 Ti2 1.942456 1_555
O12 Ti10 1.971106 1_555
O12 Ti9 2.064535 1_555
O13 Ti3 1.904143 1_555
O13 Ti10 1.977168 1_555
O13 Ti8 2.058500 1_555
O14 Ti4 1.966878 1_555
O14 Ti9 1.973872 1_556
O14 Ti8 1.983349 1_555
O15 Ti5 2.008405 1_555
O15 Ti2 2.032725 1_655
O15 Ti7 2.064214 1_554
O16 Ti6 1.993693 1_555
O16 Ti3 2.040287 1_655
O16 Ti5 2.054295 1_555
O17 Ti4 1.984617 1_655
O17 Ti6 1.991612 1_555
O17 Ti7 2.100044 1_555
O18 Ti6 1.972704 1_555
O18 Ti7 1.978333 1_555
O18 Ti8 2.001911 1_555
O19 Ti5 1.937380 1_555
O19 Ti7 1.953420 1_554
O19 Ti9 2.060945 1_555
O20 Ti10 1.926051 1_555
O20 Ti6 1.996291 1_555
O20 Ti5 1.999950 1_555
O21 Ti8 1.916923 1_555
O21 Ti9 1.929678 1_556
O22 Ti10 2.003871 1_555
O22 Ti9 2.016228 1_555
O22 Ti1 2.050110 1_565
O23 Ti8 2.001606 1_555
O23 Ti10 2.012202 1_555
O23 Ti0 2.071345 1_565
