# generated using pymatgen
data_Na4Al4H10O13
_symmetry_space_group_name_H-M   'P 1'
_cell_length_a   10.58886700
_cell_length_b   10.58886700
_cell_length_c   5.37252800
_cell_angle_alpha   90.00000000
_cell_angle_beta   90.00000000
_cell_angle_gamma   90.00000000
_symmetry_Int_Tables_number   1
_chemical_formula_structural   Na4Al4H10O13
_chemical_formula_sum   'Na8 Al8 H20 O26'
_cell_volume   602.38989006
_cell_formula_units_Z   2
loop_
 _symmetry_equiv_pos_site_id
 _symmetry_equiv_pos_as_xyz
  1  'x, y, z'
loop_
 _atom_site_type_symbol
 _atom_site_label
 _atom_site_symmetry_multiplicity
 _atom_site_fract_x
 _atom_site_fract_y
 _atom_site_fract_z
 _atom_site_occupancy
  Na  Na0  1  0.60033700  0.10033700  0.90680100  1
  Na  Na1  1  0.30236800  0.19763200  0.17392900  1
  Na  Na2  1  0.80236800  0.30236800  0.82607100  1
  Na  Na3  1  0.10033700  0.39966300  0.09319900  1
  Na  Na4  1  0.89966300  0.60033700  0.09319900  1
  Na  Na5  1  0.19763200  0.69763200  0.82607100  1
  Na  Na6  1  0.69763200  0.80236800  0.17392900  1
  Na  Na7  1  0.39966300  0.89966300  0.90680100  1
  Al  Al0  1  0.81074600  0.09493800  0.39775900  1
  Al  Al1  1  0.09493800  0.18925400  0.60224100  1
  Al  Al2  1  0.59493800  0.31074600  0.39775900  1
  Al  Al3  1  0.31074600  0.40506200  0.60224100  1
  Al  Al4  1  0.68925400  0.59493800  0.60224100  1
  Al  Al5  1  0.40506200  0.68925400  0.39775900  1
  Al  Al6  1  0.90506200  0.81074600  0.60224100  1
  Al  Al7  1  0.18925400  0.90506200  0.39775900  1
  H  H0  1  0.83854100  0.01604500  0.98570700  1
  H  H1  1  0.55398400  0.05398400  0.38705200  1
  H  H2  1  0.31089900  0.08548800  0.68019400  1
  H  H3  1  0.01604500  0.16145900  0.01429300  1
  H  H4  1  0.41451200  0.18910100  0.68019400  1
  H  H5  1  0.91451200  0.31089900  0.31980600  1
  H  H6  1  0.51604500  0.33854100  0.98570700  1
  H  H7  1  0.81089900  0.41451200  0.31980600  1
  H  H8  1  0.05398400  0.44601600  0.61294800  1
  H  H9  1  0.33854100  0.48395500  0.01429300  1
  H  H10  1  0.66145900  0.51604500  0.01429300  1
  H  H11  1  0.94601600  0.55398400  0.61294800  1
  H  H12  1  0.18910100  0.58548800  0.31980600  1
  H  H13  1  0.48395500  0.66145900  0.98570700  1
  H  H14  1  0.08548800  0.68910100  0.31980600  1
  H  H15  1  0.58548800  0.81089900  0.68019400  1
  H  H16  1  0.98395500  0.83854100  0.01429300  1
  H  H17  1  0.68910100  0.91451200  0.68019400  1
  H  H18  1  0.44601600  0.94601600  0.38705200  1
  H  H19  1  0.16145900  0.98395500  0.98570700  1
  O  O0  1  0.50000000  0.00000000  0.27737600  1
  O  O1  1  0.18979800  0.06284200  0.49902000  1
  O  O2  1  0.81020700  0.09562200  0.06069900  1
  O  O3  1  0.38470800  0.11529200  0.78640200  1
  O  O4  1  0.66848800  0.16848800  0.49831200  1
  O  O5  1  0.93715800  0.18979800  0.50098000  1
  O  O6  1  0.09562200  0.18979300  0.93930100  1
  O  O7  1  0.59562200  0.31020700  0.06069900  1
  O  O8  1  0.43715800  0.31020200  0.49902000  1
  O  O9  1  0.16848800  0.33151200  0.50168800  1
  O  O10  1  0.88470800  0.38470800  0.21359800  1
  O  O11  1  0.31020700  0.40437800  0.93930100  1
  O  O12  1  0.68979800  0.43715800  0.50098000  1
  O  O13  1  0.00000000  0.50000000  0.72262400  1
  O  O14  1  0.31020200  0.56284200  0.50098000  1
  O  O15  1  0.68979300  0.59562200  0.93930100  1
  O  O16  1  0.11529200  0.61529200  0.21359800  1
  O  O17  1  0.83151200  0.66848800  0.50168800  1
  O  O18  1  0.56284200  0.68979800  0.49902000  1
  O  O19  1  0.40437800  0.68979300  0.06069900  1
  O  O20  1  0.90437800  0.81020700  0.93930100  1
  O  O21  1  0.06284200  0.81020200  0.50098000  1
  O  O22  1  0.33151200  0.83151200  0.49831200  1
  O  O23  1  0.61529200  0.88470800  0.78640200  1
  O  O24  1  0.18979300  0.90437800  0.06069900  1
  O  O25  1  0.81020200  0.93715800  0.49902000  1
loop_
_geom_bond_atom_site_label_1
_geom_bond_atom_site_label_2
_geom_bond_distance
_geom_bond_site_symmetry_2
Na0 O2 2.371641 1_556
Na0 O7 2.371641 1_556
Na0 O23 2.378402 1_545
Na0 O3 2.378402 1_555
Na0 O4 2.420307 1_555
Na0 O0 2.494274 1_556
Na1 O3 2.419731 1_554
Na1 O11 2.527546 1_554
Na1 O6 2.527546 1_554
Na1 O8 2.551161 1_555
Na1 O1 2.551161 1_555
Na1 O9 2.668359 1_555
Na2 O10 2.419731 1_556
Na2 O7 2.527546 1_556
Na2 O2 2.527546 1_556
Na2 O12 2.551161 1_555
Na2 O5 2.551161 1_555
Na2 O4 2.668359 1_555
Na3 O6 2.371641 1_554
Na3 O11 2.371641 1_554
Na3 O10 2.378402 1_455
Na3 O16 2.378402 1_555
Na3 O9 2.420307 1_555
Na3 O13 2.494274 1_554
Na4 O15 2.371641 1_554
Na4 O20 2.371641 1_554
Na4 O16 2.378402 1_655
Na4 O10 2.378402 1_555
Na4 O17 2.420307 1_555
Na4 O13 2.494274 1_654
Na5 O16 2.419731 1_556
Na5 O24 2.527546 1_556
Na5 O19 2.527546 1_556
Na5 O21 2.551161 1_555
Na5 O14 2.551161 1_555
Na5 O22 2.668359 1_555
Na6 O23 2.419731 1_554
Na6 O15 2.527546 1_554
Na6 O20 2.527546 1_554
Na6 O18 2.551161 1_555
Na6 O25 2.551161 1_555
Na6 O17 2.668359 1_555
Na7 O24 2.371641 1_556
Na7 O19 2.371641 1_556
Na7 O3 2.378402 1_565
Na7 O23 2.378402 1_555
Na7 O22 2.420307 1_555
Na7 O0 2.494274 1_566
Al0 O25 1.757065 1_545
Al0 O5 1.763013 1_555
Al0 O4 1.779742 1_555
Al0 O2 1.810888 1_555
Al1 O5 1.757065 1_455
Al1 O1 1.763013 1_555
Al1 O9 1.779742 1_555
Al1 O6 1.810888 1_555
Al2 O8 1.757065 1_555
Al2 O12 1.763013 1_555
Al2 O4 1.779742 1_555
Al2 O7 1.810888 1_555
Al3 O14 1.757065 1_555
Al3 O8 1.763013 1_555
Al3 O9 1.779742 1_555
Al3 O11 1.810888 1_555
Al4 O12 1.757065 1_555
Al4 O18 1.763013 1_555
Al4 O17 1.779742 1_555
Al4 O15 1.810888 1_555
Al5 O18 1.757065 1_555
Al5 O14 1.763013 1_555
Al5 O22 1.779742 1_555
Al5 O19 1.810888 1_555
Al6 O21 1.757065 1_655
Al6 O25 1.763013 1_555
Al6 O17 1.779742 1_555
Al6 O20 1.810888 1_555
Al7 O1 1.757065 1_565
Al7 O21 1.763013 1_555
Al7 O22 1.779742 1_555
Al7 O24 1.810888 1_555
H0 O2 0.981003 1_556
H1 O0 1.000360 1_555
H2 O3 1.017848 1_555
H2 O1 1.627663 1_555
H3 O6 0.981003 1_554
H4 O3 1.017848 1_555
H4 O8 1.627663 1_555
H5 O10 1.017848 1_555
H5 O5 1.627663 1_555
H6 O7 0.981003 1_556
H7 O10 1.017848 1_555
H7 O12 1.627663 1_555
H8 O13 1.000360 1_555
H9 O11 0.981003 1_554
H10 O15 0.981003 1_554
H11 O13 1.000360 1_655
H12 O16 1.017848 1_555
H12 O14 1.627663 1_555
H13 O19 0.981003 1_556
H14 O16 1.017848 1_555
H14 O21 1.627663 1_555
H15 O23 1.017848 1_555
H15 O18 1.627663 1_555
H16 O20 0.981003 1_554
H17 O23 1.017848 1_555
H17 O25 1.627663 1_555
H18 O0 1.000360 1_565
H19 O24 0.981003 1_556
