# generated using pymatgen
data_Li2Ti3VO8
_symmetry_space_group_name_H-M   'P 1'
_cell_length_a   8.48979000
_cell_length_b   8.48979000
_cell_length_c   8.48979000
_cell_angle_alpha   90.00000000
_cell_angle_beta   90.00000000
_cell_angle_gamma   90.00000000
_symmetry_Int_Tables_number   1
_chemical_formula_structural   Li2Ti3VO8
_chemical_formula_sum   'Li8 Ti12 V4 O32'
_cell_volume   611.91463966
_cell_formula_units_Z   4
loop_
 _symmetry_equiv_pos_site_id
 _symmetry_equiv_pos_as_xyz
  1  'x, y, z'
loop_
 _atom_site_type_symbol
 _atom_site_label
 _atom_site_symmetry_multiplicity
 _atom_site_fract_x
 _atom_site_fract_y
 _atom_site_fract_z
 _atom_site_occupancy
  Li  Li0  1  0.49907300  0.49907300  0.49907300  1
  Li  Li1  1  0.75092700  0.75092700  0.75092700  1
  Li  Li2  1  0.74907300  0.24907300  0.25092700  1
  Li  Li3  1  0.00092700  0.50092700  0.99907300  1
  Li  Li4  1  0.99907300  0.00092700  0.50092700  1
  Li  Li5  1  0.25092700  0.74907300  0.24907300  1
  Li  Li6  1  0.24907300  0.25092700  0.74907300  1
  Li  Li7  1  0.50092700  0.99907300  0.00092700  1
  Ti  Ti0  1  0.62804400  0.62195600  0.12500000  1
  Ti  Ti1  1  0.62500000  0.87195600  0.37804400  1
  Ti  Ti2  1  0.62195600  0.12500000  0.62804400  1
  Ti  Ti3  1  0.87804400  0.87500000  0.12804400  1
  Ti  Ti4  1  0.87500000  0.12804400  0.87804400  1
  Ti  Ti5  1  0.87195600  0.37804400  0.62500000  1
  Ti  Ti6  1  0.12804400  0.87804400  0.87500000  1
  Ti  Ti7  1  0.12500000  0.62804400  0.62195600  1
  Ti  Ti8  1  0.12195600  0.37500000  0.37195600  1
  Ti  Ti9  1  0.37804400  0.62500000  0.87195600  1
  Ti  Ti10  1  0.37500000  0.37195600  0.12195600  1
  Ti  Ti11  1  0.37195600  0.12195600  0.37500000  1
  V  V0  1  0.62500000  0.37500000  0.87500000  1
  V  V1  1  0.87500000  0.62500000  0.37500000  1
  V  V2  1  0.12500000  0.12500000  0.12500000  1
  V  V3  1  0.37500000  0.87500000  0.62500000  1
  O  O0  1  0.60750100  0.62416700  0.89044400  1
  O  O1  1  0.60955600  0.39249900  0.12416700  1
  O  O2  1  0.61057100  0.11057100  0.38942900  1
  O  O3  1  0.62583300  0.64249900  0.35955600  1
  O  O4  1  0.62416700  0.89044400  0.60750100  1
  O  O5  1  0.63942900  0.86057100  0.13942900  1
  O  O6  1  0.64044400  0.12583300  0.85750100  1
  O  O7  1  0.64249900  0.35955600  0.62583300  1
  O  O8  1  0.85750100  0.64044400  0.12583300  1
  O  O9  1  0.85955600  0.87416700  0.35750100  1
  O  O10  1  0.86057100  0.13942900  0.63942900  1
  O  O11  1  0.87583300  0.10955600  0.10750100  1
  O  O12  1  0.87416700  0.35750100  0.85955600  1
  O  O13  1  0.88942900  0.88942900  0.88942900  1
  O  O14  1  0.89044400  0.60750100  0.62416700  1
  O  O15  1  0.89249900  0.37583300  0.39044400  1
  O  O16  1  0.10750100  0.87583300  0.10955600  1
  O  O17  1  0.10955600  0.10750100  0.87583300  1
  O  O18  1  0.11057100  0.38942900  0.61057100  1
  O  O19  1  0.12583300  0.85750100  0.64044400  1
  O  O20  1  0.12416700  0.60955600  0.39249900  1
  O  O21  1  0.13942900  0.63942900  0.86057100  1
  O  O22  1  0.14044400  0.37416700  0.14249900  1
  O  O23  1  0.14249900  0.14044400  0.37416700  1
  O  O24  1  0.35750100  0.85955600  0.87416700  1
  O  O25  1  0.35955600  0.62583300  0.64249900  1
  O  O26  1  0.36057100  0.36057100  0.36057100  1
  O  O27  1  0.37583300  0.39044400  0.89249900  1
  O  O28  1  0.37416700  0.14249900  0.14044400  1
  O  O29  1  0.38942900  0.61057100  0.11057100  1
  O  O30  1  0.39044400  0.89249900  0.37583300  1
  O  O31  1  0.39249900  0.12416700  0.60955600  1
loop_
_geom_bond_atom_site_label_1
_geom_bond_atom_site_label_2
_geom_bond_distance
_geom_bond_site_symmetry_2
Li0 O7 2.010918 1_555
Li0 O25 2.010918 1_555
Li0 O3 2.010918 1_555
Li0 O26 2.036637 1_555
Li1 O0 2.010918 1_555
Li1 O14 2.010918 1_555
Li1 O4 2.010918 1_555
Li1 O13 2.036637 1_555
Li2 O1 2.010918 1_555
Li2 O11 2.010918 1_555
Li2 O15 2.010918 1_555
Li2 O2 2.036637 1_555
Li3 O12 2.010918 1_455
Li3 O22 2.010918 1_556
Li3 O8 2.010918 1_456
Li3 O21 2.036637 1_555
Li4 O23 2.010918 1_655
Li4 O9 2.010918 1_545
Li4 O19 2.010918 1_645
Li4 O10 2.036637 1_555
Li5 O20 2.010918 1_555
Li5 O16 2.010918 1_555
Li5 O30 2.010918 1_555
Li5 O29 2.036637 1_555
Li6 O17 2.010918 1_555
Li6 O31 2.010918 1_555
Li6 O27 2.010918 1_555
Li6 O18 2.036637 1_555
Li7 O24 2.010918 1_554
Li7 O28 2.010918 1_565
Li7 O6 2.010918 1_564
Li7 O5 2.036637 1_555
O0 Ti9 1.954368 1_555
O0 Ti0 1.999042 1_556
O0 V0 2.124635 1_555
O1 Ti0 1.954368 1_555
O1 Ti10 1.999042 1_555
O1 V0 2.124635 1_554
O2 Ti11 2.031792 1_555
O2 Ti2 2.031792 1_555
O2 Ti1 2.031792 1_545
O3 Ti1 1.954368 1_555
O3 Ti0 1.999042 1_555
O3 V1 2.124635 1_555
O4 Ti1 1.954368 1_555
O4 Ti2 1.999042 1_565
O4 V3 2.124635 1_555
O5 Ti3 2.031792 1_555
O5 Ti0 2.031792 1_555
O5 Ti1 2.031792 1_555
O6 Ti2 1.954368 1_555
O6 Ti4 1.999042 1_555
O6 V0 2.124635 1_555
O7 Ti5 1.954368 1_555
O7 Ti2 1.999042 1_555
O7 V0 2.124635 1_555
O8 Ti0 1.954368 1_555
O8 Ti3 1.999042 1_555
O8 V1 2.124635 1_555
O9 Ti3 1.954368 1_555
O9 Ti1 1.999042 1_555
O9 V1 2.124635 1_555
O10 Ti5 2.031792 1_555
O10 Ti2 2.031792 1_555
O10 Ti4 2.031792 1_555
O11 Ti4 1.954368 1_554
O11 Ti3 1.999042 1_545
O11 V2 2.124635 1_655
O12 Ti4 1.954368 1_555
O12 Ti5 1.999042 1_555
O12 V0 2.124635 1_555
O13 Ti3 2.031792 1_556
O13 Ti4 2.031792 1_565
O13 Ti6 2.031792 1_655
O14 Ti5 1.954368 1_555
O14 Ti7 1.999042 1_655
O14 V1 2.124635 1_555
O15 Ti8 1.954368 1_655
O15 Ti5 1.999042 1_555
O15 V1 2.124635 1_555
O16 Ti3 1.954368 1_455
O16 Ti6 1.999042 1_554
O16 V2 2.124635 1_565
O17 Ti6 1.954368 1_545
O17 Ti4 1.999042 1_455
O17 V2 2.124635 1_556
O18 Ti8 2.031792 1_555
O18 Ti7 2.031792 1_555
O18 Ti5 2.031792 1_455
O19 Ti7 1.954368 1_555
O19 Ti6 1.999042 1_555
O19 V3 2.124635 1_555
O20 Ti7 1.954368 1_555
O20 Ti8 1.999042 1_555
O20 V1 2.124635 1_455
O21 Ti9 2.031792 1_555
O21 Ti7 2.031792 1_555
O21 Ti6 2.031792 1_555
O22 Ti8 1.954368 1_555
O22 Ti10 1.999042 1_555
O22 V2 2.124635 1_555
O23 Ti11 1.954368 1_555
O23 Ti8 1.999042 1_555
O23 V2 2.124635 1_555
O24 Ti6 1.954368 1_555
O24 Ti9 1.999042 1_555
O24 V3 2.124635 1_555
O25 Ti9 1.954368 1_555
O25 Ti7 1.999042 1_555
O25 V3 2.124635 1_555
O26 Ti8 2.031792 1_555
O26 Ti11 2.031792 1_555
O26 Ti10 2.031792 1_555
O27 Ti10 1.954368 1_556
O27 Ti9 1.999042 1_555
O27 V0 2.124635 1_555
O28 Ti10 1.954368 1_555
O28 Ti11 1.999042 1_555
O28 V2 2.124635 1_555
O29 Ti10 2.031792 1_555
O29 Ti0 2.031792 1_555
O29 Ti9 2.031792 1_554
O30 Ti11 1.954368 1_565
O30 Ti1 1.999042 1_555
O30 V3 2.124635 1_555
O31 Ti2 1.954368 1_555
O31 Ti11 1.999042 1_555
O31 V3 2.124635 1_545
