# generated using pymatgen
data_Nd3SbO7
_symmetry_space_group_name_H-M   'P 1'
_cell_length_a   6.65191887
_cell_length_b   6.65191887
_cell_length_c   7.70275964
_cell_angle_alpha   90.00000000
_cell_angle_beta   90.00000000
_cell_angle_gamma   109.74196855
_symmetry_Int_Tables_number   1
_chemical_formula_structural   Nd3SbO7
_chemical_formula_sum   'Nd6 Sb2 O14'
_cell_volume   320.79894969
_cell_formula_units_Z   2
loop_
 _symmetry_equiv_pos_site_id
 _symmetry_equiv_pos_as_xyz
  1  'x, y, z'
loop_
 _atom_site_type_symbol
 _atom_site_label
 _atom_site_symmetry_multiplicity
 _atom_site_fract_x
 _atom_site_fract_y
 _atom_site_fract_z
 _atom_site_occupancy
  Nd  Nd0  1  0.50000000  0.50000000  0.50000000  1
  Nd  Nd1  1  0.50000000  0.50000000  -0.00000000  1
  Nd  Nd2  1  0.53271458  0.99934614  0.75000000  1
  Nd  Nd3  1  0.99934614  0.53271458  0.25000000  1
  Nd  Nd4  1  0.46728542  0.00065386  0.25000000  1
  Nd  Nd5  1  0.00065386  0.46728542  0.75000000  1
  Sb  Sb0  1  0.00000000  0.00000000  0.50000000  1
  Sb  Sb1  1  0.00000000  0.00000000  -0.00000000  1
  O  O0  1  0.68783072  0.93149055  0.47188555  1
  O  O1  1  0.93149055  0.68783072  0.52811445  1
  O  O2  1  0.68783072  0.93149055  0.02811445  1
  O  O3  1  0.93149055  0.68783072  0.97188555  1
  O  O4  1  0.31216928  0.06850945  0.52811445  1
  O  O5  1  0.06850945  0.31216928  0.47188555  1
  O  O6  1  0.31216928  0.06850945  0.97188555  1
  O  O7  1  0.06850945  0.31216928  0.02811445  1
  O  O8  1  0.93920318  0.06079682  0.75000000  1
  O  O9  1  0.06079682  0.93920318  0.25000000  1
  O  O10  1  0.37025652  0.62974348  0.75000000  1
  O  O11  1  0.62974348  0.37025652  0.25000000  1
  O  O12  1  0.63436967  0.36563033  0.75000000  1
  O  O13  1  0.36563033  0.63436967  0.25000000  1
loop_
_geom_bond_atom_site_label_1
_geom_bond_atom_site_label_2
_geom_bond_distance
_geom_bond_site_symmetry_2
Nd0 O11 2.387711 1_555
Nd0 O10 2.387711 1_555
Nd0 O13 2.417812 1_555
Nd0 O12 2.417812 1_555
Nd0 O5 2.724619 1_555
Nd0 O0 2.724619 1_555
Nd0 O4 2.724619 1_555
Nd0 O1 2.724619 1_555
Nd1 O10 2.387711 1_554
Nd1 O11 2.387711 1_555
Nd1 O13 2.417812 1_555
Nd1 O12 2.417812 1_554
Nd1 O2 2.724619 1_555
Nd1 O6 2.724619 1_554
Nd1 O3 2.724619 1_554
Nd1 O7 2.724619 1_555
Nd2 O12 2.297978 1_565
Nd2 O10 2.327546 1_555
Nd2 O6 2.396038 1_565
Nd2 O4 2.396038 1_565
Nd2 O2 2.484402 1_556
Nd2 O0 2.484402 1_555
Nd2 O8 2.594539 1_565
Nd3 O13 2.297978 1_655
Nd3 O11 2.327546 1_555
Nd3 O7 2.396038 1_655
Nd3 O5 2.396038 1_655
Nd3 O3 2.484402 1_554
Nd3 O1 2.484402 1_555
Nd3 O9 2.594539 1_655
Nd4 O13 2.297978 1_545
Nd4 O11 2.327546 1_555
Nd4 O0 2.396038 1_545
Nd4 O2 2.396038 1_545
Nd4 O4 2.484402 1_555
Nd4 O6 2.484402 1_554
Nd4 O9 2.594539 1_545
Nd5 O12 2.297978 1_455
Nd5 O10 2.327546 1_555
Nd5 O1 2.396038 1_455
Nd5 O3 2.396038 1_455
Nd5 O7 2.484402 1_556
Nd5 O5 2.484402 1_555
Nd5 O8 2.594539 1_455
O0 Sb0 1.981725 1_665
O1 Sb0 1.981725 1_665
O2 Sb1 1.981725 1_665
O3 Sb1 1.981725 1_666
O4 Sb0 1.981725 1_555
O5 Sb0 1.981725 1_555
O6 Sb1 1.981725 1_556
O7 Sb1 1.981725 1_555
O8 Sb0 2.036142 1_655
O8 Sb1 2.036142 1_656
O9 Sb1 2.036142 1_565
O9 Sb0 2.036142 1_565
