# generated using pymatgen
data_Lu2TiO5
_symmetry_space_group_name_H-M   'P 1'
_cell_length_a   3.58545420
_cell_length_b   10.11205207
_cell_length_c   11.06387213
_cell_angle_alpha   90.00000000
_cell_angle_beta   90.00000000
_cell_angle_gamma   90.00000000
_symmetry_Int_Tables_number   1
_chemical_formula_structural   Lu2TiO5
_chemical_formula_sum   'Lu8 Ti4 O20'
_cell_volume   401.13506229
_cell_formula_units_Z   4
loop_
 _symmetry_equiv_pos_site_id
 _symmetry_equiv_pos_as_xyz
  1  'x, y, z'
loop_
 _atom_site_type_symbol
 _atom_site_label
 _atom_site_symmetry_multiplicity
 _atom_site_fract_x
 _atom_site_fract_y
 _atom_site_fract_z
 _atom_site_occupancy
  Lu  Lu0  1  0.25000000  0.12186458  0.27480259  1
  Lu  Lu1  1  0.25000000  0.13458372  0.94311992  1
  Lu  Lu2  1  0.75000000  0.36541628  0.44311992  1
  Lu  Lu3  1  0.75000000  0.37813542  0.77480259  1
  Lu  Lu4  1  0.25000000  0.62186458  0.22519741  1
  Lu  Lu5  1  0.25000000  0.63458372  0.55688008  1
  Lu  Lu6  1  0.75000000  0.86541628  0.05688008  1
  Lu  Lu7  1  0.75000000  0.87813542  0.72519741  1
  Ti  Ti0  1  0.25000000  0.16851356  0.61583275  1
  Ti  Ti1  1  0.75000000  0.33148644  0.11583275  1
  Ti  Ti2  1  0.25000000  0.66851356  0.88416725  1
  Ti  Ti3  1  0.75000000  0.83148644  0.38416725  1
  O  O0  1  0.75000000  0.00464087  0.89413392  1
  O  O1  1  0.25000000  0.99688913  0.65252315  1
  O  O2  1  0.25000000  0.22613233  0.45225383  1
  O  O3  1  0.75000000  0.23803313  0.61330666  1
  O  O4  1  0.75000000  0.25013790  0.27061263  1
  O  O5  1  0.25000000  0.24986210  0.77061263  1
  O  O6  1  0.25000000  0.26196687  0.11330666  1
  O  O7  1  0.75000000  0.27386767  0.95225383  1
  O  O8  1  0.75000000  0.50311087  0.15252315  1
  O  O9  1  0.25000000  0.49535913  0.39413392  1
  O  O10  1  0.75000000  0.50464087  0.60586608  1
  O  O11  1  0.25000000  0.49688913  0.84747685  1
  O  O12  1  0.25000000  0.72613233  0.04774617  1
  O  O13  1  0.75000000  0.73803313  0.88669334  1
  O  O14  1  0.75000000  0.75013790  0.22938737  1
  O  O15  1  0.25000000  0.74986210  0.72938737  1
  O  O16  1  0.25000000  0.76196687  0.38669334  1
  O  O17  1  0.75000000  0.77386767  0.54774617  1
  O  O18  1  0.75000000  0.00311087  0.34747685  1
  O  O19  1  0.25000000  0.99535913  0.10586608  1
loop_
_geom_bond_atom_site_label_1
_geom_bond_atom_site_label_2
_geom_bond_distance
_geom_bond_site_symmetry_2
Lu0 O4 2.213257 1_455
Lu0 O4 2.213257 1_555
Lu0 O2 2.228501 1_555
Lu0 O19 2.264936 1_545
Lu0 O6 2.280274 1_555
Lu0 O18 2.302695 1_555
Lu0 O18 2.302695 1_455
Lu1 O5 2.236427 1_555
Lu1 O6 2.281363 1_556
Lu1 O7 2.282061 1_555
Lu1 O7 2.282061 1_455
Lu1 O19 2.285651 1_546
Lu1 O0 2.287832 1_555
Lu1 O0 2.287832 1_455
Lu2 O4 2.236427 1_555
Lu2 O3 2.281363 1_555
Lu2 O2 2.282061 1_555
Lu2 O2 2.282061 1_655
Lu2 O10 2.285651 1_555
Lu2 O9 2.287832 1_555
Lu2 O9 2.287832 1_655
Lu3 O5 2.213257 1_555
Lu3 O5 2.213257 1_655
Lu3 O7 2.228501 1_555
Lu3 O10 2.264936 1_555
Lu3 O3 2.280274 1_555
Lu3 O11 2.302695 1_655
Lu3 O11 2.302695 1_555
Lu4 O14 2.213257 1_455
Lu4 O14 2.213257 1_555
Lu4 O12 2.228501 1_555
Lu4 O9 2.264936 1_555
Lu4 O16 2.280274 1_555
Lu4 O8 2.302695 1_555
Lu4 O8 2.302695 1_455
Lu5 O15 2.236427 1_555
Lu5 O16 2.281363 1_555
Lu5 O17 2.282061 1_455
Lu5 O17 2.282061 1_555
Lu5 O9 2.285651 1_555
Lu5 O10 2.287832 1_555
Lu5 O10 2.287832 1_455
Lu6 O14 2.236427 1_555
Lu6 O13 2.281363 1_554
Lu6 O12 2.282061 1_555
Lu6 O12 2.282061 1_655
Lu6 O0 2.285651 1_564
Lu6 O19 2.287832 1_555
Lu6 O19 2.287832 1_655
Lu7 O15 2.213257 1_655
Lu7 O15 2.213257 1_555
Lu7 O17 2.228501 1_555
Lu7 O0 2.264936 1_565
Lu7 O13 2.280274 1_555
Lu7 O1 2.302695 1_555
Lu7 O1 2.302695 1_655
O1 Ti0 1.782319 1_565
O2 Ti0 1.901291 1_555
O3 Ti0 1.925835 1_655
O3 Ti0 1.925835 1_555
O4 Ti1 1.899791 1_555
O5 Ti0 1.899791 1_555
O6 Ti1 1.925835 1_455
O6 Ti1 1.925835 1_555
O7 Ti1 1.901291 1_556
O8 Ti1 1.782319 1_555
O11 Ti2 1.782319 1_555
O12 Ti2 1.901291 1_554
O13 Ti2 1.925835 1_555
O13 Ti2 1.925835 1_655
O14 Ti3 1.899791 1_555
O15 Ti2 1.899791 1_555
O16 Ti3 1.925835 1_455
O16 Ti3 1.925835 1_555
O17 Ti3 1.901291 1_555
O18 Ti3 1.782319 1_545
