# generated using pymatgen
data_Li4Fe3Co3(CuO8)2
_symmetry_space_group_name_H-M   'P 1'
_cell_length_a   5.80192766
_cell_length_b   5.80192766
_cell_length_c   9.55011412
_cell_angle_alpha   89.56438198
_cell_angle_beta   89.56438198
_cell_angle_gamma   59.75280342
_symmetry_Int_Tables_number   1
_chemical_formula_structural   Li4Fe3Co3(CuO8)2
_chemical_formula_sum   'Li4 Fe3 Co3 Cu2 O16'
_cell_volume   277.70258816
_cell_formula_units_Z   1
loop_
 _symmetry_equiv_pos_site_id
 _symmetry_equiv_pos_as_xyz
  1  'x, y, z'
loop_
 _atom_site_type_symbol
 _atom_site_label
 _atom_site_symmetry_multiplicity
 _atom_site_fract_x
 _atom_site_fract_y
 _atom_site_fract_z
 _atom_site_occupancy
  Li  Li0  1  0.65865400  0.65865400  0.10097100  1
  Li  Li1  1  0.00459900  0.00459900  0.00306600  1
  Li  Li2  1  0.00698500  0.00698500  0.50506200  1
  Li  Li3  1  0.32367000  0.32367000  0.60378300  1
  Fe  Fe0  1  0.82681400  0.82681400  0.78629900  1
  Fe  Fe1  1  0.16505700  0.65515400  0.28664100  1
  Fe  Fe2  1  0.65515400  0.16505700  0.28664100  1
  Co  Co0  1  0.33786200  0.82248400  0.78785800  1
  Co  Co1  1  0.82248400  0.33786200  0.78785800  1
  Co  Co2  1  0.16622900  0.16622900  0.28788600  1
  Cu  Cu0  1  0.66552900  0.66552900  0.51304600  1
  Cu  Cu1  1  0.33424200  0.33424200  0.01062800  1
  O  O0  1  0.32743100  0.83942200  0.39390900  1
  O  O1  1  0.51349000  0.51349000  0.67511300  1
  O  O2  1  0.65751600  0.65751600  0.89290700  1
  O  O3  1  0.00126400  0.00126400  0.69109300  1
  O  O4  1  0.00275000  0.00275000  0.19029600  1
  O  O5  1  0.83942200  0.32743100  0.39390900  1
  O  O6  1  0.50351400  0.95259900  0.66468100  1
  O  O7  1  0.95259900  0.50351400  0.66468100  1
  O  O8  1  0.15779300  0.15779300  0.88717200  1
  O  O9  1  0.83534800  0.83534800  0.40217500  1
  O  O10  1  0.03569900  0.46242500  0.16238500  1
  O  O11  1  0.46242500  0.03569900  0.16238500  1
  O  O12  1  0.32515000  0.32515000  0.39778700  1
  O  O13  1  0.17302600  0.67080000  0.89711300  1
  O  O14  1  0.47489300  0.47489300  0.15960400  1
  O  O15  1  0.67080000  0.17302600  0.89711300  1
loop_
_geom_bond_atom_site_label_1
_geom_bond_atom_site_label_2
_geom_bond_distance
_geom_bond_site_symmetry_2
Li0 O14 1.927178 1_555
Li0 O10 1.981393 1_655
Li0 O11 1.981393 1_565
Li0 O2 1.987168 1_554
Li1 O4 1.788002 1_555
Li1 O8 1.889707 1_554
Li1 O15 1.958985 1_454
Li1 O13 1.958985 1_544
Li2 O3 1.777045 1_555
Li2 O5 1.921801 1_455
Li2 O0 1.921801 1_545
Li2 O9 1.994400 1_445
Li3 O6 1.946554 1_545
Li3 O7 1.946554 1_455
Li3 O12 1.967211 1_555
Li3 O1 2.033383 1_555
Fe0 O3 1.969689 1_665
Fe0 O2 1.976822 1_555
Fe0 O6 2.010271 1_555
Fe0 O7 2.010271 1_555
Fe0 O15 2.039642 1_565
Fe0 O13 2.039642 1_655
Fe1 O12 1.961570 1_555
Fe1 O4 1.967794 1_565
Fe1 O14 1.972122 1_555
Fe1 O9 1.985038 1_455
Fe1 O10 2.025102 1_555
Fe1 O0 2.031253 1_555
Fe2 O12 1.961570 1_555
Fe2 O4 1.967794 1_655
Fe2 O14 1.972122 1_555
Fe2 O9 1.985038 1_545
Fe2 O11 2.025102 1_555
Fe2 O5 2.031253 1_555
Co0 O6 1.891480 1_555
Co0 O1 1.893119 1_555
Co0 O2 1.894066 1_555
Co0 O13 1.896477 1_555
Co0 O3 1.927655 1_565
Co0 O8 1.934201 1_565
Co1 O7 1.891480 1_555
Co1 O1 1.893119 1_555
Co1 O2 1.894066 1_555
Co1 O15 1.896477 1_555
Co1 O3 1.927655 1_655
Co1 O8 1.934201 1_655
Co2 O4 1.897665 1_555
Co2 O10 1.906470 1_555
Co2 O11 1.906470 1_555
Co2 O12 1.920387 1_555
Co2 O0 1.921921 1_545
Co2 O5 1.921921 1_455
Cu0 O9 2.002238 1_555
Cu0 O0 2.045236 1_555
Cu0 O5 2.045236 1_555
Cu0 O6 2.047789 1_555
Cu0 O7 2.047789 1_555
Cu0 O1 2.166621 1_555
Cu1 O15 2.001560 1_554
Cu1 O13 2.001560 1_554
Cu1 O14 2.015505 1_555
Cu1 O11 2.081881 1_555
Cu1 O10 2.081881 1_555
Cu1 O8 2.139807 1_554
