# generated using pymatgen
data_Ba2GeO4
_symmetry_space_group_name_H-M   'P 1'
_cell_length_a   6.03894903
_cell_length_b   10.47970203
_cell_length_c   15.26717564
_cell_angle_alpha   90.00000000
_cell_angle_beta   90.00000000
_cell_angle_gamma   90.00000000
_symmetry_Int_Tables_number   1
_chemical_formula_structural   Ba2GeO4
_chemical_formula_sum   'Ba16 Ge8 O32'
_cell_volume   966.20437692
_cell_formula_units_Z   8
loop_
 _symmetry_equiv_pos_site_id
 _symmetry_equiv_pos_as_xyz
  1  'x, y, z'
loop_
 _atom_site_type_symbol
 _atom_site_label
 _atom_site_symmetry_multiplicity
 _atom_site_fract_x
 _atom_site_fract_y
 _atom_site_fract_z
 _atom_site_occupancy
  Ba  Ba0  1  0.73580188  0.78650347  0.04621899  1
  Ba  Ba1  1  0.72765970  0.40547246  0.12552524  1
  Ba  Ba2  1  0.23468432  0.01237565  0.12509073  1
  Ba  Ba3  1  0.23036383  0.62634183  0.20324834  1
  Ba  Ba4  1  0.73036383  0.12634183  0.29675166  1
  Ba  Ba5  1  0.73468432  0.51237565  0.37490927  1
  Ba  Ba6  1  0.22765970  0.90547246  0.37447476  1
  Ba  Ba7  1  0.23580188  0.28650347  0.45378101  1
  Ba  Ba8  1  0.76419812  0.78650347  0.54621899  1
  Ba  Ba9  1  0.77234030  0.40547246  0.62552524  1
  Ba  Ba10  1  0.26531568  0.01237565  0.62509073  1
  Ba  Ba11  1  0.26963617  0.62634183  0.70324834  1
  Ba  Ba12  1  0.76963617  0.12634183  0.79675166  1
  Ba  Ba13  1  0.76531568  0.51237565  0.87490927  1
  Ba  Ba14  1  0.27234030  0.90547246  0.87447476  1
  Ba  Ba15  1  0.26419812  0.28650347  0.95378101  1
  Ge  Ge0  1  0.76065968  0.12792571  0.01509176  1
  Ge  Ge1  1  0.23978897  0.29165372  0.23582261  1
  Ge  Ge2  1  0.73978897  0.79165372  0.26417739  1
  Ge  Ge3  1  0.26065968  0.62792571  0.48490824  1
  Ge  Ge4  1  0.73934032  0.12792571  0.51509176  1
  Ge  Ge5  1  0.26021103  0.29165372  0.73582261  1
  Ge  Ge6  1  0.76021103  0.79165372  0.76417739  1
  Ge  Ge7  1  0.23934032  0.62792571  0.98490824  1
  O  O0  1  0.52377780  0.04075982  0.98538662  1
  O  O1  1  -0.00002956  0.55806236  0.03158004  1
  O  O2  1  0.26564684  0.78025213  0.03563468  1
  O  O3  1  0.28253469  0.27989894  0.12254185  1
  O  O4  1  0.79297540  0.13907936  0.12887963  1
  O  O5  1  0.69064729  0.64157221  0.21288749  1
  O  O6  1  0.98865490  0.84754771  0.21636122  1
  O  O7  1  0.52161179  0.89539164  0.23666449  1
  O  O8  1  0.02161179  0.39539164  0.26333551  1
  O  O9  1  0.48865490  0.34754771  0.28363878  1
  O  O10  1  0.19064729  0.14157221  0.28711251  1
  O  O11  1  0.29297540  0.63907936  0.37112037  1
  O  O12  1  0.78253469  0.77989894  0.37745815  1
  O  O13  1  0.76564684  0.28025213  0.46436532  1
  O  O14  1  0.49997044  0.05806236  0.46841996  1
  O  O15  1  0.02377780  0.54075982  0.51461338  1
  O  O16  1  0.97622220  0.04075982  0.48538662  1
  O  O17  1  0.50002956  0.55806236  0.53158004  1
  O  O18  1  0.23435316  0.78025213  0.53563468  1
  O  O19  1  0.21746531  0.27989894  0.62254185  1
  O  O20  1  0.70702460  0.13907936  0.62887963  1
  O  O21  1  0.80935271  0.64157221  0.71288749  1
  O  O22  1  0.51134510  0.84754771  0.71636122  1
  O  O23  1  0.97838821  0.89539164  0.73666449  1
  O  O24  1  0.47838821  0.39539164  0.76333551  1
  O  O25  1  0.01134510  0.34754771  0.78363878  1
  O  O26  1  0.30935271  0.14157221  0.78711251  1
  O  O27  1  0.20702460  0.63907936  0.87112037  1
  O  O28  1  0.71746531  0.77989894  0.87745815  1
  O  O29  1  0.73435316  0.28025213  0.96436532  1
  O  O30  1  0.00002956  0.05806236  0.96841996  1
  O  O31  1  0.47622220  0.54075982  0.01461338  1
loop_
_geom_bond_atom_site_label_1
_geom_bond_atom_site_label_2
_geom_bond_distance
_geom_bond_site_symmetry_2
Ba0 O28 2.579808 1_554
Ba0 O2 2.844592 1_555
Ba0 O1 2.885506 1_655
Ba0 O5 2.975902 1_555
Ba0 O31 3.053267 1_555
Ba0 O6 3.080318 1_555
Ba0 O0 3.098663 1_564
Ba0 O2 3.204454 1_655
Ba0 O7 3.380707 1_555
Ba0 O30 3.472149 1_664
Ba1 O31 2.680106 1_555
Ba1 O1 2.705281 1_655
Ba1 O8 2.754826 1_655
Ba1 O29 2.788824 1_554
Ba1 O5 2.819726 1_555
Ba1 O4 2.819912 1_555
Ba1 O9 2.877300 1_555
Ba1 O3 2.993271 1_555
Ba2 O6 2.670748 1_445
Ba2 O7 2.721578 1_545
Ba2 O0 2.772288 1_554
Ba2 O2 2.796012 1_545
Ba2 O3 2.818686 1_555
Ba2 O30 2.821099 1_554
Ba2 O10 2.832428 1_555
Ba2 O4 2.980231 1_455
Ba3 O11 2.594109 1_555
Ba3 O6 2.746749 1_455
Ba3 O5 2.788094 1_555
Ba3 O8 2.878988 1_555
Ba3 O2 3.032387 1_555
Ba3 O1 3.052357 1_555
Ba3 O5 3.266543 1_455
Ba3 O31 3.361957 1_555
Ba3 O7 3.362096 1_555
Ba4 O4 2.594109 1_555
Ba4 O9 2.746749 1_555
Ba4 O10 2.788094 1_655
Ba4 O7 2.878988 1_545
Ba4 O13 3.032387 1_555
Ba4 O14 3.052357 1_555
Ba4 O10 3.266543 1_555
Ba4 O16 3.361957 1_555
Ba4 O8 3.362096 1_655
Ba5 O9 2.670748 1_555
Ba5 O8 2.721578 1_655
Ba5 O15 2.772288 1_655
Ba5 O13 2.796012 1_555
Ba5 O12 2.818686 1_555
Ba5 O17 2.821099 1_555
Ba5 O5 2.832428 1_555
Ba5 O11 2.980231 1_555
Ba6 O16 2.680106 1_465
Ba6 O14 2.705281 1_565
Ba6 O7 2.754826 1_555
Ba6 O18 2.788824 1_555
Ba6 O10 2.819726 1_565
Ba6 O11 2.819912 1_555
Ba6 O6 2.877300 1_455
Ba6 O12 2.993271 1_455
Ba7 O19 2.579808 1_555
Ba7 O13 2.844592 1_455
Ba7 O14 2.885506 1_555
Ba7 O10 2.975902 1_555
Ba7 O16 3.053267 1_455
Ba7 O9 3.080318 1_555
Ba7 O15 3.098663 1_555
Ba7 O13 3.204454 1_555
Ba7 O8 3.380707 1_555
Ba7 O17 3.472149 1_555
Ba8 O12 2.579808 1_555
Ba8 O18 2.844592 1_655
Ba8 O17 2.885506 1_555
Ba8 O21 2.975902 1_555
Ba8 O15 3.053267 1_655
Ba8 O22 3.080318 1_555
Ba8 O16 3.098663 1_565
Ba8 O18 3.204454 1_555
Ba8 O23 3.380707 1_555
Ba8 O14 3.472149 1_565
Ba9 O15 2.680106 1_655
Ba9 O17 2.705281 1_555
Ba9 O24 2.754826 1_555
Ba9 O13 2.788824 1_555
Ba9 O21 2.819726 1_555
Ba9 O20 2.819912 1_555
Ba9 O25 2.877300 1_655
Ba9 O19 2.993271 1_655
Ba10 O22 2.670748 1_545
Ba10 O23 2.721578 1_445
Ba10 O16 2.772288 1_455
Ba10 O18 2.796012 1_545
Ba10 O19 2.818686 1_555
Ba10 O14 2.821099 1_555
Ba10 O26 2.832428 1_555
Ba10 O20 2.980231 1_555
Ba11 O27 2.594109 1_555
Ba11 O22 2.746749 1_555
Ba11 O21 2.788094 1_455
Ba11 O24 2.878988 1_555
Ba11 O18 3.032387 1_555
Ba11 O17 3.052357 1_555
Ba11 O21 3.266543 1_555
Ba11 O15 3.361957 1_555
Ba11 O23 3.362096 1_455
Ba12 O20 2.594109 1_555
Ba12 O25 2.746749 1_655
Ba12 O26 2.788094 1_555
Ba12 O23 2.878988 1_545
Ba12 O29 3.032387 1_555
Ba12 O30 3.052357 1_655
Ba12 O26 3.266543 1_655
Ba12 O0 3.361957 1_555
Ba12 O24 3.362096 1_555
Ba13 O25 2.670748 1_655
Ba13 O24 2.721578 1_555
Ba13 O31 2.772288 1_556
Ba13 O29 2.796012 1_555
Ba13 O28 2.818686 1_555
Ba13 O1 2.821099 1_656
Ba13 O21 2.832428 1_555
Ba13 O27 2.980231 1_655
Ba14 O0 2.680106 1_565
Ba14 O30 2.705281 1_565
Ba14 O23 2.754826 1_455
Ba14 O2 2.788824 1_556
Ba14 O26 2.819726 1_565
Ba14 O27 2.819912 1_555
Ba14 O22 2.877300 1_555
Ba14 O28 2.993271 1_555
Ba15 O3 2.579808 1_556
Ba15 O29 2.844592 1_555
Ba15 O30 2.885506 1_555
Ba15 O26 2.975902 1_555
Ba15 O0 3.053267 1_555
Ba15 O25 3.080318 1_555
Ba15 O31 3.098663 1_556
Ba15 O29 3.204454 1_455
Ba15 O24 3.380707 1_555
Ba15 O1 3.472149 1_556
Ge0 O4 1.752050 1_555
Ge0 O0 1.756840 1_554
Ge0 O30 1.770129 1_654
Ge0 O29 1.781375 1_554
Ge1 O3 1.752970 1_555
Ge1 O8 1.759057 1_555
Ge1 O9 1.770510 1_555
Ge1 O10 1.781844 1_555
Ge2 O12 1.752970 1_555
Ge2 O7 1.759057 1_555
Ge2 O6 1.770510 1_555
Ge2 O5 1.781844 1_555
Ge3 O11 1.752050 1_555
Ge3 O15 1.756840 1_555
Ge3 O17 1.770129 1_555
Ge3 O18 1.781375 1_555
Ge4 O20 1.752050 1_555
Ge4 O16 1.756840 1_555
Ge4 O14 1.770129 1_555
Ge4 O13 1.781375 1_555
Ge5 O19 1.752970 1_555
Ge5 O24 1.759057 1_555
Ge5 O25 1.770510 1_555
Ge5 O26 1.781844 1_555
Ge6 O28 1.752970 1_555
Ge6 O23 1.759057 1_555
Ge6 O22 1.770510 1_555
Ge6 O21 1.781844 1_555
Ge7 O27 1.752050 1_555
Ge7 O31 1.756840 1_556
Ge7 O1 1.770129 1_556
Ge7 O2 1.781375 1_556
