# generated using pymatgen
data_Ni7(P2O7)4
_symmetry_space_group_name_H-M   'P 1'
_cell_length_a   6.43546984
_cell_length_b   6.43546984
_cell_length_c   23.74702500
_cell_angle_alpha   90.00000000
_cell_angle_beta   90.00000000
_cell_angle_gamma   81.80881660
_symmetry_Int_Tables_number   1
_chemical_formula_structural   Ni7(P2O7)4
_chemical_formula_sum   'Ni14 P16 O56'
_cell_volume   973.45610467
_cell_formula_units_Z   2
loop_
 _symmetry_equiv_pos_site_id
 _symmetry_equiv_pos_as_xyz
  1  'x, y, z'
loop_
 _atom_site_type_symbol
 _atom_site_label
 _atom_site_symmetry_multiplicity
 _atom_site_fract_x
 _atom_site_fract_y
 _atom_site_fract_z
 _atom_site_occupancy
  Ni  Ni0  1  0.06902500  0.93097500  0.00000000  1
  Ni  Ni1  1  0.32945200  0.96062600  0.13723200  1
  Ni  Ni2  1  0.03937400  0.67054800  0.86276800  1
  Ni  Ni3  1  0.30115900  0.69884100  0.50000000  1
  Ni  Ni4  1  0.29303400  0.41917900  0.62089300  1
  Ni  Ni5  1  0.58082100  0.70696600  0.37910700  1
  Ni  Ni6  1  0.27423200  0.27423200  0.25000000  1
  Ni  Ni7  1  0.72576800  0.72576800  0.75000000  1
  Ni  Ni8  1  0.70696600  0.58082100  0.12089300  1
  Ni  Ni9  1  0.41917900  0.29303400  0.87910700  1
  Ni  Ni10  1  0.69884100  0.30115900  0.00000000  1
  Ni  Ni11  1  0.67054800  0.03937400  0.63723200  1
  Ni  Ni12  1  0.96062600  0.32945200  0.36276800  1
  Ni  Ni13  1  0.93097500  0.06902500  0.50000000  1
  P  P0  1  0.07037700  0.81950200  0.37653600  1
  P  P1  1  0.18049800  0.92962300  0.62346400  1
  P  P2  1  0.30126600  0.77631500  0.26739500  1
  P  P3  1  0.22368500  0.69873400  0.73260500  1
  P  P4  1  0.23805000  0.47509000  0.12103100  1
  P  P5  1  0.52491000  0.76195000  0.87896900  1
  P  P6  1  0.59598500  0.81034000  0.00335700  1
  P  P7  1  0.18966000  0.40401500  0.99664300  1
  P  P8  1  0.81034000  0.59598500  0.49664300  1
  P  P9  1  0.40401500  0.18966000  0.50335700  1
  P  P10  1  0.47509000  0.23805000  0.37896900  1
  P  P11  1  0.76195000  0.52491000  0.62103100  1
  P  P12  1  0.77631500  0.30126600  0.23260500  1
  P  P13  1  0.69873400  0.22368500  0.76739500  1
  P  P14  1  0.81950200  0.07037700  0.12346400  1
  P  P15  1  0.92962300  0.18049800  0.87653600  1
  O  O0  1  0.01852200  0.96508100  0.90179200  1
  O  O1  1  0.03491900  0.98147800  0.09820800  1
  O  O2  1  0.12963200  0.87709200  0.31328700  1
  O  O3  1  0.12290800  0.87036800  0.68671300  1
  O  O4  1  0.29513100  0.95673900  0.22444500  1
  O  O5  1  0.04326100  0.70486900  0.77555500  1
  O  O6  1  0.01403900  0.58096700  0.12329200  1
  O  O7  1  0.41903200  0.98596100  0.87670800  1
  O  O8  1  0.37611600  0.90704100  0.02057200  1
  O  O9  1  0.09295900  0.62388400  0.97942800  1
  O  O10  1  0.27172500  0.71864100  0.40639700  1
  O  O11  1  0.28135900  0.72827500  0.59360300  1
  O  O12  1  0.41479300  0.77250800  0.75773400  1
  O  O13  1  0.22749200  0.58520700  0.24226600  1
  O  O14  1  0.66007600  0.91296700  0.12811800  1
  O  O15  1  0.08703300  0.33992400  0.87188200  1
  O  O16  1  0.38706900  0.64052700  0.13039700  1
  O  O17  1  0.35947300  0.61293100  0.86960300  1
  O  O18  1  0.74696700  0.97654800  0.00330000  1
  O  O19  1  0.02345200  0.25303300  0.99670000  1
  O  O20  1  0.51477100  0.72935200  0.29690000  1
  O  O21  1  0.27064800  0.48522900  0.70310000  1
  O  O22  1  0.29025500  0.39176800  0.05853500  1
  O  O23  1  0.60823200  0.70974500  0.94146500  1
  O  O24  1  0.60939800  0.68265500  0.46431600  1
  O  O25  1  0.31734500  0.39060200  0.53568400  1
  O  O26  1  0.70664800  0.72219200  0.65772600  1
  O  O27  1  0.27780800  0.29335200  0.34227400  1
  O  O28  1  0.29335200  0.27780800  0.15772600  1
  O  O29  1  0.72219200  0.70664800  0.84227400  1
  O  O30  1  0.39060200  0.31734500  0.96431600  1
  O  O31  1  0.68265500  0.60939800  0.03568400  1
  O  O32  1  0.39176800  0.29025500  0.44146500  1
  O  O33  1  0.70974500  0.60823200  0.55853500  1
  O  O34  1  0.72935200  0.51477100  0.20310000  1
  O  O35  1  0.48522900  0.27064800  0.79690000  1
  O  O36  1  0.25303300  0.02345200  0.50330000  1
  O  O37  1  0.97654800  0.74696700  0.49670000  1
  O  O38  1  0.64052700  0.38706900  0.36960300  1
  O  O39  1  0.61293100  0.35947300  0.63039700  1
  O  O40  1  0.33992400  0.08703300  0.62811800  1
  O  O41  1  0.91296700  0.66007600  0.37188200  1
  O  O42  1  0.58520700  0.22749200  0.25773400  1
  O  O43  1  0.77250800  0.41479300  0.74226600  1
  O  O44  1  0.71864100  0.27172500  0.09360300  1
  O  O45  1  0.72827500  0.28135900  0.90639700  1
  O  O46  1  0.62388400  0.09295900  0.52057200  1
  O  O47  1  0.90704100  0.37611600  0.47942800  1
  O  O48  1  0.58096700  0.01403900  0.37670800  1
  O  O49  1  0.98596100  0.41903200  0.62329200  1
  O  O50  1  0.70486900  0.04326100  0.72444500  1
  O  O51  1  0.95673900  0.29513100  0.27555500  1
  O  O52  1  0.87709200  0.12963200  0.18671300  1
  O  O53  1  0.87036800  0.12290800  0.81328700  1
  O  O54  1  0.96508100  0.01852200  0.59820800  1
  O  O55  1  0.98147800  0.03491900  0.40179200  1
loop_
_geom_bond_atom_site_label_1
_geom_bond_atom_site_label_2
_geom_bond_distance
_geom_bond_site_symmetry_2
Ni0 O9 2.020223 1_554
Ni0 O8 2.020223 1_555
Ni0 O19 2.052947 1_564
Ni0 O18 2.052947 1_455
Ni0 O1 2.360592 1_555
Ni0 O0 2.360592 1_554
Ni1 O16 2.046882 1_555
Ni1 O28 2.079003 1_565
Ni1 O4 2.083322 1_555
Ni1 O1 2.096919 1_555
Ni1 O14 2.117109 1_555
Ni2 O17 2.046882 1_555
Ni2 O29 2.079003 1_455
Ni2 O5 2.083322 1_555
Ni2 O0 2.096919 1_555
Ni2 O15 2.117109 1_555
Ni3 O37 2.069232 1_455
Ni3 O36 2.069232 1_565
Ni3 O25 2.145916 1_555
Ni3 O24 2.145916 1_555
Ni3 O10 2.232946 1_555
Ni3 O11 2.232946 1_555
Ni4 O49 1.977115 1_455
Ni4 O21 1.998739 1_555
Ni4 O25 2.035802 1_555
Ni4 O39 2.052161 1_555
Ni4 O11 2.083234 1_555
Ni4 O40 2.122656 1_555
Ni5 O48 1.977114 1_565
Ni5 O20 1.998739 1_555
Ni5 O24 2.035802 1_555
Ni5 O38 2.052161 1_555
Ni5 O10 2.083234 1_555
Ni5 O41 2.122656 1_555
Ni6 O42 1.989411 1_555
Ni6 O13 1.989411 1_555
Ni6 O51 2.117260 1_455
Ni6 O4 2.117260 1_545
Ni6 O27 2.194989 1_555
Ni6 O28 2.194989 1_555
Ni7 O43 1.989411 1_555
Ni7 O12 1.989411 1_555
Ni7 O5 2.117260 1_655
Ni7 O50 2.117260 1_565
Ni7 O29 2.194989 1_555
Ni7 O26 2.194989 1_555
Ni8 O6 1.977114 1_655
Ni8 O34 1.998739 1_555
Ni8 O31 2.035802 1_555
Ni8 O16 2.052161 1_555
Ni8 O44 2.083234 1_555
Ni8 O14 2.122656 1_555
Ni9 O7 1.977115 1_545
Ni9 O35 1.998739 1_555
Ni9 O30 2.035802 1_555
Ni9 O17 2.052161 1_555
Ni9 O45 2.083234 1_555
Ni9 O15 2.122656 1_555
Ni10 O18 2.069232 1_545
Ni10 O19 2.069232 1_654
Ni10 O30 2.145916 1_554
Ni10 O31 2.145916 1_555
Ni10 O44 2.232946 1_555
Ni10 O45 2.232946 1_554
Ni11 O39 2.046882 1_555
Ni11 O26 2.079003 1_545
Ni11 O50 2.083322 1_555
Ni11 O54 2.096919 1_555
Ni11 O40 2.117109 1_555
Ni12 O38 2.046882 1_555
Ni12 O27 2.079003 1_655
Ni12 O51 2.083322 1_555
Ni12 O55 2.096919 1_555
Ni12 O41 2.117109 1_555
Ni13 O46 2.020223 1_555
Ni13 O47 2.020223 1_555
Ni13 O36 2.052947 1_655
Ni13 O37 2.052947 1_545
Ni13 O54 2.360592 1_555
Ni13 O55 2.360592 1_555
O0 P15 1.543653 1_465
O1 P14 1.543653 1_465
O2 P0 1.605919 1_555
O2 P2 1.619929 1_555
O3 P1 1.605919 1_555
O3 P3 1.619929 1_555
O4 P2 1.541735 1_555
O5 P3 1.541735 1_555
O6 P4 1.505158 1_555
O7 P5 1.505160 1_555
O8 P6 1.518419 1_555
O9 P7 1.518419 1_555
O10 P0 1.537369 1_555
O11 P1 1.537369 1_555
O12 P3 1.503486 1_555
O13 P2 1.503486 1_555
O14 P14 1.545055 1_565
O15 P15 1.545055 1_455
O16 P4 1.547132 1_555
O17 P5 1.547132 1_555
O18 P6 1.544130 1_555
O19 P7 1.544130 1_555
O20 P2 1.533564 1_555
O21 P3 1.533564 1_555
O22 P4 1.597373 1_555
O22 P7 1.603414 1_554
O23 P5 1.597373 1_555
O23 P6 1.603414 1_556
O24 P8 1.538551 1_555
O25 P9 1.538551 1_555
O26 P11 1.539198 1_555
O27 P10 1.539198 1_555
O28 P4 1.539198 1_555
O29 P5 1.539198 1_555
O30 P7 1.538551 1_555
O31 P6 1.538551 1_555
O32 P10 1.597373 1_555
O32 P9 1.603414 1_555
O33 P11 1.597373 1_555
O33 P8 1.603414 1_555
O34 P12 1.533564 1_555
O35 P13 1.533564 1_555
O36 P9 1.544130 1_555
O37 P8 1.544130 1_555
O38 P10 1.547132 1_555
O39 P11 1.547132 1_555
O40 P1 1.545055 1_545
O41 P0 1.545055 1_655
O42 P12 1.503486 1_555
O43 P13 1.503486 1_555
O44 P14 1.537369 1_555
O45 P15 1.537369 1_555
O46 P9 1.518419 1_555
O47 P8 1.518419 1_555
O48 P10 1.505158 1_555
O49 P11 1.505160 1_555
O50 P13 1.541735 1_555
O51 P12 1.541735 1_555
O52 P14 1.605919 1_555
O52 P12 1.619929 1_555
O53 P15 1.605919 1_555
O53 P13 1.619929 1_555
O54 P1 1.543653 1_645
O55 P0 1.543653 1_645
