# generated using pymatgen
data_Dy3Y5O12
_symmetry_space_group_name_H-M   'P 1'
_cell_length_a   9.18012227
_cell_length_b   9.18152181
_cell_length_c   9.18149489
_cell_angle_alpha   109.46799547
_cell_angle_beta   109.45582098
_cell_angle_gamma   109.47745088
_symmetry_Int_Tables_number   1
_chemical_formula_structural   Dy3Y5O12
_chemical_formula_sum   'Dy6 Y10 O24'
_cell_volume   595.82818696
_cell_formula_units_Z   2
loop_
 _symmetry_equiv_pos_site_id
 _symmetry_equiv_pos_as_xyz
  1  'x, y, z'
loop_
 _atom_site_type_symbol
 _atom_site_label
 _atom_site_symmetry_multiplicity
 _atom_site_fract_x
 _atom_site_fract_y
 _atom_site_fract_z
 _atom_site_occupancy
  Dy  Dy0  1  0.46740540  0.24997519  0.71733480  1
  Dy  Dy1  1  0.53239905  0.75003825  0.28245956  1
  Dy  Dy2  1  0.03265347  0.75007401  0.78267671  1
  Dy  Dy3  1  0.25009693  0.28251116  0.03250438  1
  Dy  Dy4  1  0.74995450  0.21749493  0.46754074  1
  Dy  Dy5  1  0.28254374  0.03250486  0.24998187  1
  Y  Y0  1  0.71761986  0.96759456  0.74998362  1
  Y  Y1  1  0.49988187  -0.00001853  0.99996713  1
  Y  Y2  1  0.74997769  0.71741997  0.96747914  1
  Y  Y3  1  0.25002550  0.78260392  0.53250009  1
  Y  Y4  1  0.96763565  0.24993531  0.21759494  1
  Y  Y5  1  0.50014150  0.49993702  0.50000942  1
  Y  Y6  1  0.00004277  0.00001684  0.50005081  1
  Y  Y7  1  0.21752896  0.46754839  0.75003784  1
  Y  Y8  1  0.78240146  0.53241653  0.25002590  1
  Y  Y9  1  0.00008890  0.50013994  0.00004899  1
  O  O0  1  0.72919881  0.45732025  0.96841035  1
  O  O1  1  0.51106135  0.04266397  0.77187629  1
  O  O2  1  0.26040988  0.03111940  0.98867501  1
  O  O3  1  0.45783793  0.72835968  0.48885276  1
  O  O4  1  0.23948308  0.22816635  0.77064328  1
  O  O5  1  0.04250600  0.53152209  0.27072693  1
  O  O6  1  0.77076178  0.73911858  0.72808937  1
  O  O7  1  0.98894341  0.76086054  0.53163104  1
  O  O8  1  0.72826493  0.27056028  0.23958930  1
  O  O9  1  0.46847872  0.51095998  0.73911900  1
  O  O10  1  0.96907373  0.22940612  0.95771848  1
  O  O11  1  0.22811286  0.98894865  0.45733503  1
  O  O12  1  0.77158927  0.01132847  0.54222996  1
  O  O13  1  0.03158996  0.77081419  0.04269725  1
  O  O14  1  0.53094786  0.48870736  0.26033856  1
  O  O15  1  0.27183804  0.72932925  0.76082625  1
  O  O16  1  0.01099530  0.23923431  0.46853880  1
  O  O17  1  0.22947767  0.26040891  0.27163344  1
  O  O18  1  0.76043718  0.77163686  0.22944390  1
  O  O19  1  0.95750743  0.46885597  0.72933874  1
  O  O20  1  0.54242675  0.27173181  0.51129630  1
  O  O21  1  0.73914442  0.96845134  0.01093171  1
  O  O22  1  0.27083409  0.54264002  0.03154055  1
  O  O23  1  0.48868230  0.95765929  0.22832576  1
loop_
_geom_bond_atom_site_label_1
_geom_bond_atom_site_label_2
_geom_bond_distance
_geom_bond_site_symmetry_2
Dy0 O1 2.246067 1_555
Dy0 O0 2.246599 1_555
Dy0 O20 2.262953 1_555
Dy0 O4 2.264013 1_555
Dy0 O9 2.333566 1_555
Dy0 O11 2.334593 1_545
Dy1 O22 2.245181 1_555
Dy1 O23 2.247408 1_555
Dy1 O3 2.263577 1_555
Dy1 O18 2.263841 1_555
Dy1 O12 2.334481 1_565
Dy1 O14 2.334667 1_555
Dy2 O6 2.245864 1_455
Dy2 O7 2.246388 1_455
Dy2 O2 2.263182 1_565
Dy2 O19 2.264236 1_455
Dy2 O15 2.333387 1_555
Dy2 O13 2.334451 1_556
Dy3 O2 2.247326 1_554
Dy3 O4 2.247417 1_554
Dy3 O14 2.262683 1_555
Dy3 O10 2.263331 1_454
Dy3 O17 2.333608 1_555
Dy3 O22 2.335096 1_555
Dy4 O20 2.246792 1_555
Dy4 O19 2.247964 1_555
Dy4 O12 2.262322 1_555
Dy4 O8 2.263669 1_555
Dy4 O16 2.334045 1_655
Dy4 O23 2.334620 1_545
Dy5 O11 2.245453 1_545
Dy5 O13 2.245523 1_545
Dy5 O23 2.262668 1_545
Dy5 O17 2.263282 1_555
Dy5 O2 2.334681 1_554
Dy5 O20 2.335026 1_555
O0 Y8 2.268340 1_556
O0 Y9 2.283375 1_656
O0 Y2 2.334619 1_555
O1 Y0 2.268109 1_545
O1 Y1 2.283254 1_555
O1 Y3 2.334949 1_545
O2 Y1 2.283073 1_555
O3 Y3 2.249002 1_555
O3 Y5 2.284665 1_555
O3 Y0 2.334076 1_555
O4 Y6 2.283545 1_555
O4 Y7 2.335446 1_555
O5 Y3 2.246824 1_555
O5 Y4 2.268387 1_455
O5 Y9 2.283464 1_555
O5 Y8 2.334423 1_455
O6 Y0 2.268415 1_555
O6 Y5 2.282660 1_555
O6 Y2 2.335167 1_555
O7 Y8 2.268662 1_555
O7 Y6 2.282749 1_665
O7 Y3 2.334848 1_655
O8 Y8 2.248206 1_555
O8 Y1 2.284391 1_554
O8 Y4 2.335180 1_555
O9 Y7 2.245957 1_555
O9 Y2 2.267616 1_555
O9 Y5 2.282772 1_555
O10 Y0 2.248413 1_545
O10 Y9 2.285039 1_656
O10 Y4 2.334913 1_556
O11 Y3 2.266999 1_555
O11 Y6 2.282566 1_565
O12 Y0 2.247811 1_545
O12 Y6 2.284433 1_655
O13 Y2 2.267268 1_454
O13 Y9 2.282504 1_555
O14 Y8 2.247613 1_555
O14 Y5 2.283802 1_555
O15 Y7 2.246040 1_555
O15 Y3 2.267892 1_555
O15 Y1 2.282673 1_565
O16 Y4 2.245600 1_455
O16 Y7 2.267794 1_555
O16 Y6 2.283330 1_555
O17 Y4 2.247879 1_455
O17 Y5 2.284417 1_555
O18 Y2 2.249075 1_554
O18 Y6 2.284549 1_665
O18 Y8 2.333922 1_555
O19 Y9 2.283670 1_656
O19 Y7 2.335080 1_655
O20 Y5 2.282963 1_555
O21 Y2 2.246721 1_554
O21 Y4 2.268108 1_565
O21 Y1 2.283537 1_564
O21 Y0 2.334617 1_554
O22 Y7 2.267095 1_554
O22 Y9 2.283141 1_555
O23 Y1 2.284214 1_564
