# generated using pymatgen
data_Li4Ti2Fe3O10
_symmetry_space_group_name_H-M   'P 1'
_cell_length_a   6.68051100
_cell_length_b   7.93492204
_cell_length_c   7.95775885
_cell_angle_alpha   95.87133773
_cell_angle_beta   114.24667089
_cell_angle_gamma   90.31119252
_symmetry_Int_Tables_number   1
_chemical_formula_structural   Li4Ti2Fe3O10
_chemical_formula_sum   'Li8 Ti4 Fe6 O20'
_cell_volume   382.08225088
_cell_formula_units_Z   2
loop_
 _symmetry_equiv_pos_site_id
 _symmetry_equiv_pos_as_xyz
  1  'x, y, z'
loop_
 _atom_site_type_symbol
 _atom_site_label
 _atom_site_symmetry_multiplicity
 _atom_site_fract_x
 _atom_site_fract_y
 _atom_site_fract_z
 _atom_site_occupancy
  Li  Li0  1  0.40386300  0.90543000  0.59545300  1
  Li  Li1  1  0.31028700  0.79617600  0.20887900  1
  Li  Li2  1  0.75886900  0.74546500  0.50936400  1
  Li  Li3  1  0.24113100  0.25453500  0.49063600  1
  Li  Li4  1  0.68971300  0.20382400  0.79112100  1
  Li  Li5  1  0.59613700  0.09457000  0.40454700  1
  Li  Li6  1  0.91299900  0.41468900  0.59659300  1
  Li  Li7  1  0.08700100  0.58531100  0.40340700  1
  Ti  Ti0  1  0.04264800  0.04224000  0.69132300  1
  Ti  Ti1  1  0.95735200  0.95776000  0.30867700  1
  Ti  Ti2  1  0.52337700  0.56058700  0.68782500  1
  Ti  Ti3  1  0.47662300  0.43941300  0.31217500  1
  Fe  Fe0  1  0.85959100  0.84359700  0.89318600  1
  Fe  Fe1  1  0.14040900  0.15640300  0.10681400  1
  Fe  Fe2  1  0.50000000  0.00000000  0.00000000  1
  Fe  Fe3  1  0.00000000  0.50000000  0.00000000  1
  Fe  Fe4  1  0.34743700  0.35434600  0.89187700  1
  Fe  Fe5  1  0.65256300  0.64565400  0.10812300  1
  O  O0  1  0.84204500  0.05712100  0.06018100  1
  O  O1  1  0.24778200  0.02631100  0.33412400  1
  O  O2  1  0.75221800  0.97368900  0.66587600  1
  O  O3  1  0.63891800  0.87746400  0.23918400  1
  O  O4  1  0.15795500  0.94287900  0.93981900  1
  O  O5  1  0.06531600  0.84937600  0.53280000  1
  O  O6  1  0.15087400  0.38247700  0.24177000  1
  O  O7  1  0.54735400  0.76762000  0.85193000  1
  O  O8  1  0.56998800  0.34349900  0.53792500  1
  O  O9  1  0.45264600  0.23238000  0.14807000  1
  O  O10  1  0.03865100  0.26574900  0.85114800  1
  O  O11  1  0.93468400  0.15062400  0.46720000  1
  O  O12  1  0.96134900  0.73425100  0.14885200  1
  O  O13  1  0.36108200  0.12253600  0.76081600  1
  O  O14  1  0.43001200  0.65650100  0.46207500  1
  O  O15  1  0.35029600  0.56243100  0.07154600  1
  O  O16  1  0.84912600  0.61752300  0.75823000  1
  O  O17  1  0.75280500  0.53486100  0.34189900  1
  O  O18  1  0.24719500  0.46513900  0.65810100  1
  O  O19  1  0.64970400  0.43756900  0.92845400  1
loop_
_geom_bond_atom_site_label_1
_geom_bond_atom_site_label_2
_geom_bond_distance
_geom_bond_site_symmetry_2
Li0 O5 2.139885 1_555
Li0 O13 2.152099 1_565
Li0 O14 2.187629 1_555
Li0 O2 2.208229 1_555
Li0 O1 2.229339 1_565
Li0 O7 2.267457 1_555
Li1 O1 2.116626 1_565
Li1 O15 2.129900 1_555
Li1 O3 2.193633 1_555
Li1 O12 2.220034 1_455
Li1 O14 2.251815 1_555
Li1 O4 2.389194 1_554
Li2 O17 2.017312 1_555
Li2 O2 2.101805 1_555
Li2 O5 2.131282 1_655
Li2 O14 2.171689 1_555
Li2 O16 2.180248 1_555
Li2 O3 2.327355 1_555
Li3 O18 2.017312 1_555
Li3 O1 2.101805 1_555
Li3 O11 2.131282 1_455
Li3 O8 2.171689 1_555
Li3 O6 2.180248 1_555
Li3 O13 2.327355 1_555
Li4 O2 2.116626 1_545
Li4 O19 2.129900 1_555
Li4 O13 2.193633 1_555
Li4 O10 2.220034 1_655
Li4 O8 2.251815 1_555
Li4 O0 2.389194 1_556
Li5 O11 2.139885 1_555
Li5 O3 2.152099 1_545
Li5 O8 2.187629 1_555
Li5 O1 2.208229 1_555
Li5 O2 2.229339 1_545
Li5 O9 2.267457 1_555
Li6 O18 2.106419 1_655
Li6 O16 2.112267 1_555
Li6 O17 2.188021 1_555
Li6 O8 2.200293 1_555
Li6 O11 2.270696 1_555
Li6 O10 2.304067 1_655
Li7 O17 2.106419 1_455
Li7 O6 2.112267 1_555
Li7 O18 2.188021 1_555
Li7 O14 2.200293 1_555
Li7 O5 2.270696 1_555
Li7 O12 2.304067 1_455
Fe0 O16 1.979666 1_555
Fe0 O4 2.011688 1_655
Fe0 O2 2.043653 1_555
Fe0 O7 2.050760 1_555
Fe0 O0 2.078418 1_566
Fe0 O12 2.141461 1_556
Fe1 O6 1.979666 1_555
Fe1 O0 2.011688 1_455
Fe1 O1 2.043653 1_555
Fe1 O9 2.050760 1_555
Fe1 O4 2.078418 1_544
Fe1 O10 2.141461 1_554
Fe2 O13 2.089759 1_554
Fe2 O3 2.089759 1_545
Fe2 O4 2.168344 1_544
Fe2 O0 2.168344 1_555
Fe2 O9 2.180938 1_555
Fe2 O7 2.180938 1_544
Fe3 O16 2.090851 1_454
Fe3 O6 2.090851 1_555
Fe3 O10 2.175028 1_554
Fe3 O12 2.175028 1_455
Fe3 O19 2.209364 1_454
Fe3 O15 2.209364 1_555
Fe4 O18 1.999987 1_555
Fe4 O19 2.015395 1_555
Fe4 O13 2.041286 1_555
Fe4 O10 2.059881 1_555
Fe4 O15 2.065209 1_556
Fe4 O9 2.195714 1_556
Fe5 O17 1.999987 1_555
Fe5 O15 2.015395 1_555
Fe5 O3 2.041286 1_555
Fe5 O12 2.059881 1_555
Fe5 O19 2.065209 1_554
Fe5 O7 2.195714 1_554
O0 Ti1 2.049352 1_545
O1 Ti1 1.935108 1_445
O2 Ti0 1.935108 1_665
O3 Ti1 2.045518 1_555
O4 Ti0 2.049352 1_565
O5 Ti1 1.924782 1_455
O5 Ti0 1.928922 1_565
O6 Ti3 2.046915 1_555
O7 Ti2 1.953519 1_555
O8 Ti3 1.886828 1_555
O8 Ti2 2.092289 1_555
O9 Ti3 1.953519 1_555
O10 Ti0 2.081017 1_555
O11 Ti0 1.924782 1_655
O11 Ti1 1.928922 1_545
O12 Ti1 2.081017 1_555
O13 Ti0 2.045518 1_555
O14 Ti2 1.886828 1_555
O14 Ti3 2.092289 1_555
O15 Ti3 2.096631 1_555
O16 Ti2 2.046915 1_555
O17 Ti3 1.903536 1_555
O18 Ti2 1.903536 1_555
O19 Ti2 2.096631 1_555
