# generated using pymatgen
data_Na5Mn2P2(CO7)2
_symmetry_space_group_name_H-M   'P 1'
_cell_length_a   6.73205000
_cell_length_b   9.01376683
_cell_length_c   15.71985713
_cell_angle_alpha   90.76537941
_cell_angle_beta   90.17173608
_cell_angle_gamma   90.17662764
_symmetry_Int_Tables_number   1
_chemical_formula_structural   Na5Mn2P2(CO7)2
_chemical_formula_sum   'Na15 Mn6 P6 C6 O42'
_cell_volume   953.80463348
_cell_formula_units_Z   3
loop_
 _symmetry_equiv_pos_site_id
 _symmetry_equiv_pos_as_xyz
  1  'x, y, z'
loop_
 _atom_site_type_symbol
 _atom_site_label
 _atom_site_symmetry_multiplicity
 _atom_site_fract_x
 _atom_site_fract_y
 _atom_site_fract_z
 _atom_site_occupancy
  Na  Na0  1  0.24091100  0.91508500  0.58316100  1
  Na  Na1  1  0.24038200  0.91349600  0.26028100  1
  Na  Na2  1  0.00741900  0.74369000  0.75178500  1
  Na  Na3  1  0.49348300  0.74337600  0.75042400  1
  Na  Na4  1  0.48963200  0.73660500  0.41803500  1
  Na  Na5  1  0.00302200  0.75762700  0.07796200  1
  Na  Na6  1  0.49865400  0.75814200  0.07714700  1
  Na  Na7  1  0.50142400  0.24133500  0.92236100  1
  Na  Na8  1  0.99854500  0.24167600  0.92233700  1
  Na  Na9  1  0.50274500  0.26026500  0.58323100  1
  Na  Na10  1  0.99657300  0.26097700  0.58408900  1
  Na  Na11  1  0.50794000  0.25697500  0.24778000  1
  Na  Na12  1  0.99134000  0.25675300  0.24653500  1
  Na  Na13  1  0.75057800  0.08343400  0.74698800  1
  Na  Na14  1  0.75931100  0.07068100  0.41442000  1
  Mn  Mn0  1  0.75037200  0.64297400  0.92622900  1
  Mn  Mn1  1  0.75564700  0.64674400  0.58888900  1
  Mn  Mn2  1  0.75766900  0.64668200  0.26438900  1
  Mn  Mn3  1  0.25004600  0.35672700  0.74068500  1
  Mn  Mn4  1  0.24775700  0.35758400  0.40594500  1
  Mn  Mn5  1  0.25210400  0.35666700  0.07312800  1
  P  P0  1  0.25026700  0.58069800  0.90222000  1
  P  P1  1  0.25178700  0.58376500  0.56884500  1
  P  P2  1  0.25167700  0.58220800  0.23013300  1
  P  P3  1  0.74998900  0.41808000  0.76685500  1
  P  P4  1  0.74739600  0.41253000  0.43057400  1
  P  P5  1  0.75115500  0.42330900  0.10017500  1
  C  C0  1  0.75013900  0.92961900  0.90659800  1
  C  C1  1  0.74544300  0.94273400  0.57905500  1
  C  C2  1  0.74659800  0.93257000  0.24381300  1
  C  C3  1  0.25000500  0.06447800  0.75351200  1
  C  C4  1  0.25377600  0.06447700  0.42292700  1
  C  C5  1  0.25022300  0.07071100  0.09422200  1
  O  O0  1  0.25105300  0.92290700  0.75440500  1
  O  O1  1  0.26720500  0.92366400  0.42556600  1
  O  O2  1  0.25079400  0.93027900  0.09640600  1
  O  O3  1  0.75093000  0.85612900  0.97828500  1
  O  O4  1  0.75438900  0.87966000  0.65337500  1
  O  O5  1  0.74238900  0.85868900  0.31625800  1
  O  O6  1  0.75005900  0.84800100  0.83747500  1
  O  O7  1  0.73416600  0.86014000  0.51118400  1
  O  O8  1  0.75062900  0.85199200  0.17537600  1
  O  O9  1  0.06206200  0.66914800  0.92919200  1
  O  O10  1  0.43910200  0.66940100  0.92938000  1
  O  O11  1  0.06882100  0.67697000  0.59589300  1
  O  O12  1  0.43619200  0.67900800  0.59418000  1
  O  O13  1  0.06594600  0.67860500  0.24768600  1
  O  O14  1  0.43502700  0.67774400  0.25583200  1
  O  O15  1  0.24998500  0.56254000  0.80295700  1
  O  O16  1  0.75012100  0.57014900  0.72323300  1
  O  O17  1  0.25685500  0.55437400  0.47084500  1
  O  O18  1  0.73960700  0.56525700  0.38776600  1
  O  O19  1  0.25886000  0.55297900  0.13043400  1
  O  O20  1  0.75068200  0.57662800  0.05732100  1
  O  O21  1  0.25018600  0.42394000  0.94272000  1
  O  O22  1  0.75002800  0.44490000  0.86694500  1
  O  O23  1  0.25145900  0.43026200  0.61276800  1
  O  O24  1  0.75034500  0.43399300  0.52937200  1
  O  O25  1  0.24798900  0.43082100  0.27475900  1
  O  O26  1  0.75114900  0.44759900  0.20024400  1
  O  O27  1  0.56661100  0.32140000  0.74318500  1
  O  O28  1  0.93306700  0.32200300  0.74342600  1
  O  O29  1  0.56388400  0.31443600  0.40532100  1
  O  O30  1  0.93274000  0.32009100  0.40325700  1
  O  O31  1  0.56353700  0.33104300  0.07554900  1
  O  O32  1  0.93913100  0.33259800  0.07580300  1
  O  O33  1  0.24971200  0.14844500  0.82127700  1
  O  O34  1  0.24563200  0.14705000  0.49187000  1
  O  O35  1  0.24997900  0.15252100  0.16321800  1
  O  O36  1  0.24908600  0.13273300  0.67955100  1
  O  O37  1  0.24654400  0.13248500  0.34927700  1
  O  O38  1  0.24983600  0.14499900  0.02245600  1
  O  O39  1  0.74957500  0.07052100  0.90417600  1
  O  O40  1  0.74978000  0.08640200  0.57380100  1
  O  O41  1  0.74874900  0.07396600  0.24704600  1
loop_
_geom_bond_atom_site_label_1
_geom_bond_atom_site_label_2
_geom_bond_distance
_geom_bond_site_symmetry_2
Na0 O11 2.446716 1_555
Na0 O36 2.463161 1_565
Na0 O1 2.486432 1_555
Na0 O12 2.512401 1_555
Na0 O34 2.551915 1_565
Na0 O0 2.692568 1_555
Na1 O37 2.404298 1_565
Na1 O13 2.423437 1_555
Na1 O14 2.500273 1_555
Na1 O2 2.583694 1_555
Na1 O1 2.604356 1_555
Na1 O35 2.657402 1_565
Na2 O0 2.298450 1_555
Na2 O16 2.368238 1_455
Na2 O6 2.385478 1_455
Na2 O15 2.454282 1_555
Na2 O11 2.550729 1_555
Na2 O4 2.616222 1_455
Na2 O9 2.899946 1_555
Na3 O0 2.302267 1_555
Na3 O16 2.368319 1_555
Na3 O6 2.384698 1_555
Na3 O15 2.460411 1_555
Na3 O12 2.544179 1_555
Na3 O4 2.640904 1_555
Na3 O10 2.923578 1_555
Na4 O1 2.260629 1_555
Na4 O18 2.333456 1_555
Na4 O17 2.423082 1_555
Na4 O7 2.454541 1_555
Na4 O5 2.591885 1_555
Na4 O14 2.622057 1_555
Na4 O12 2.847702 1_555
Na5 O2 2.292874 1_555
Na5 O20 2.370293 1_455
Na5 O8 2.438279 1_455
Na5 O3 2.480761 1_454
Na5 O9 2.494189 1_554
Na5 O19 2.664808 1_555
Na5 O13 2.801977 1_555
Na6 O2 2.299960 1_555
Na6 O20 2.378944 1_555
Na6 O8 2.432698 1_555
Na6 O3 2.474450 1_554
Na6 O10 2.477722 1_554
Na6 O19 2.599736 1_555
Na7 O39 2.291304 1_555
Na7 O21 2.382981 1_555
Na7 O33 2.457047 1_555
Na7 O38 2.478288 1_556
Na7 O31 2.562707 1_556
Na7 O22 2.638025 1_555
Na8 O39 2.289158 1_555
Na8 O21 2.374258 1_655
Na8 O33 2.465410 1_655
Na8 O38 2.475487 1_656
Na8 O32 2.570333 1_556
Na8 O22 2.639234 1_555
Na9 O40 2.292389 1_555
Na9 O23 2.329593 1_555
Na9 O24 2.444422 1_555
Na9 O34 2.456641 1_555
Na9 O36 2.565153 1_555
Na9 O27 2.601161 1_555
Na9 O29 2.876042 1_555
Na10 O40 2.288690 1_555
Na10 O23 2.331690 1_655
Na10 O34 2.439826 1_655
Na10 O24 2.441904 1_555
Na10 O36 2.553649 1_655
Na10 O28 2.594266 1_555
Na11 O41 2.316354 1_555
Na11 O35 2.368957 1_555
Na11 O25 2.387779 1_555
Na11 O26 2.493145 1_555
Na11 O29 2.549942 1_555
Na11 O37 2.637040 1_555
Na11 O31 2.822926 1_555
Na12 O41 2.316381 1_555
Na12 O25 2.367263 1_655
Na12 O35 2.370792 1_655
Na12 O26 2.479298 1_555
Na12 O30 2.553580 1_555
Na12 O37 2.618861 1_655
Na12 O32 2.799818 1_555
Na13 O4 2.338429 1_545
Na13 O28 2.474670 1_555
Na13 O39 2.475294 1_555
Na13 O27 2.481462 1_555
Na13 O6 2.570497 1_545
Na13 O40 2.722953 1_555
Na14 O5 2.442187 1_545
Na14 O7 2.453702 1_545
Na14 O40 2.508584 1_555
Na14 O30 2.538419 1_555
Na14 O29 2.569803 1_555
Na14 O41 2.632407 1_555
Mn0 O22 2.002910 1_555
Mn0 O3 2.078242 1_555
Mn0 O10 2.110365 1_555
Mn0 O9 2.111117 1_655
Mn0 O20 2.153422 1_556
Mn0 O6 2.330413 1_555
Mn1 O24 2.122638 1_555
Mn1 O11 2.127336 1_655
Mn1 O12 2.172740 1_555
Mn1 O16 2.230987 1_555
Mn1 O7 2.297017 1_555
Mn1 O4 2.319197 1_555
Mn2 O26 2.046898 1_555
Mn2 O5 2.070592 1_555
Mn2 O18 2.086599 1_555
Mn2 O13 2.111957 1_655
Mn2 O14 2.194825 1_555
Mn2 O8 2.335447 1_555
Mn3 O15 2.085985 1_555
Mn3 O23 2.125695 1_555
Mn3 O27 2.156080 1_555
Mn3 O28 2.156438 1_455
Mn3 O36 2.224438 1_555
Mn3 O33 2.278862 1_555
Mn4 O17 2.035102 1_555
Mn4 O30 2.146642 1_455
Mn4 O29 2.164636 1_555
Mn4 O25 2.173694 1_555
Mn4 O37 2.204990 1_555
Mn4 O34 2.344010 1_555
Mn5 O19 1.975202 1_555
Mn5 O38 2.057684 1_555
Mn5 O31 2.110260 1_555
Mn5 O32 2.118025 1_455
Mn5 O21 2.145565 1_554
Mn5 O35 2.336979 1_555
C0 O39 1.271154 1_565
C0 O6 1.304062 1_555
C0 O3 1.314795 1_555
C1 O7 1.294715 1_555
C1 O40 1.298966 1_565
C1 O4 1.307409 1_555
C2 O41 1.274881 1_565
C2 O8 1.290377 1_555
C2 O5 1.327233 1_555
C3 O0 1.276394 1_545
C3 O33 1.298496 1_555
C3 O36 1.322653 1_555
C4 O1 1.273968 1_545
C4 O34 1.307900 1_555
C4 O37 1.318098 1_555
C5 O2 1.266763 1_545
C5 O35 1.303384 1_555
C5 O38 1.319580 1_555
O9 P0 1.555998 1_555
O10 P0 1.555311 1_555
O11 P1 1.550404 1_555
O12 P1 1.555023 1_555
O13 P2 1.548180 1_555
O14 P2 1.552249 1_555
O15 P0 1.566780 1_555
O16 P3 1.540842 1_555
O17 P1 1.560160 1_555
O18 P4 1.541340 1_555
O19 P2 1.586675 1_555
O20 P5 1.545505 1_555
O21 P0 1.557521 1_555
O22 P3 1.588668 1_555
O23 P1 1.554580 1_555
O24 P4 1.562586 1_555
O25 P2 1.542807 1_555
O26 P5 1.585335 1_555
O27 P3 1.550433 1_555
O28 P3 1.550949 1_555
O29 P4 1.564155 1_555
O30 P4 1.560639 1_555
O31 P5 1.555256 1_555
O32 P5 1.554879 1_555
