# generated using pymatgen
data_Li2AlVO4
_symmetry_space_group_name_H-M   'P 1'
_cell_length_a   11.03472000
_cell_length_b   5.12523500
_cell_length_c   8.23192529
_cell_angle_alpha   51.81975428
_cell_angle_beta   90.00000000
_cell_angle_gamma   90.00000000
_symmetry_Int_Tables_number   1
_chemical_formula_structural   Li2AlVO4
_chemical_formula_sum   'Li8 Al4 V4 O16'
_cell_volume   365.96350285
_cell_formula_units_Z   4
loop_
 _symmetry_equiv_pos_site_id
 _symmetry_equiv_pos_as_xyz
  1  'x, y, z'
loop_
 _atom_site_type_symbol
 _atom_site_label
 _atom_site_symmetry_multiplicity
 _atom_site_fract_x
 _atom_site_fract_y
 _atom_site_fract_z
 _atom_site_occupancy
  Li  Li0  1  0.66415000  0.68393100  0.50592200  1
  Li  Li1  1  0.42275600  0.46547100  0.73822100  1
  Li  Li2  1  0.92275600  0.53452900  0.76177900  1
  Li  Li3  1  0.16415000  0.31606900  0.99407800  1
  Li  Li4  1  0.83585000  0.68393100  0.00592200  1
  Li  Li5  1  0.07724400  0.46547100  0.23822100  1
  Li  Li6  1  0.57724400  0.53452900  0.26177900  1
  Li  Li7  1  0.33585000  0.31606900  0.49407800  1
  Al  Al0  1  0.08572100  0.06738100  0.74606300  1
  Al  Al1  1  0.58572100  0.93261900  0.75393700  1
  Al  Al2  1  0.41427900  0.06738100  0.24606300  1
  Al  Al3  1  0.91427900  0.93261900  0.25393700  1
  V  V0  1  0.83368400  0.18440300  0.50372500  1
  V  V1  1  0.33368400  0.81559700  0.99627500  1
  V  V2  1  0.66631600  0.18440300  0.00372500  1
  V  V3  1  0.16631600  0.81559700  0.49627500  1
  O  O0  1  0.16214300  0.17519500  0.52043300  1
  O  O1  1  0.66626200  0.26176900  0.53018300  1
  O  O2  1  0.43310600  0.04425400  0.74948100  1
  O  O3  1  0.09040200  0.42425400  0.73803100  1
  O  O4  1  0.59040200  0.57574600  0.76196900  1
  O  O5  1  0.93310600  0.95574600  0.75051900  1
  O  O6  1  0.16626200  0.73823100  0.96981700  1
  O  O7  1  0.66214300  0.82480500  0.97956700  1
  O  O8  1  0.33785700  0.17519500  0.02043300  1
  O  O9  1  0.83373800  0.26176900  0.03018300  1
  O  O10  1  0.06689400  0.04425400  0.24948100  1
  O  O11  1  0.40959800  0.42425400  0.23803100  1
  O  O12  1  0.90959800  0.57574600  0.26196900  1
  O  O13  1  0.56689400  0.95574600  0.25051900  1
  O  O14  1  0.33373800  0.73823100  0.46981700  1
  O  O15  1  0.83785700  0.82480500  0.47956700  1
loop_
_geom_bond_atom_site_label_1
_geom_bond_atom_site_label_2
_geom_bond_distance
_geom_bond_site_symmetry_2
Li0 O13 1.972774 1_555
Li0 O4 1.991862 1_555
Li0 O15 2.012181 1_555
Li0 O1 2.046392 1_555
Li1 O4 1.979009 1_555
Li1 O14 1.995602 1_555
Li1 O8 2.053092 1_556
Li1 O2 2.105902 1_555
Li2 O3 1.979009 1_655
Li2 O9 1.995602 1_556
Li2 O15 2.053092 1_555
Li2 O5 2.105902 1_555
Li3 O10 1.972774 1_556
Li3 O3 1.991862 1_555
Li3 O8 2.012181 1_556
Li3 O6 2.046392 1_555
Li4 O5 1.972774 1_554
Li4 O12 1.991862 1_555
Li4 O7 2.012181 1_554
Li4 O9 2.046392 1_555
Li5 O12 1.979009 1_455
Li5 O6 1.995602 1_554
Li5 O0 2.053092 1_555
Li5 O10 2.105902 1_555
Li6 O11 1.979009 1_555
Li6 O1 1.995602 1_555
Li6 O7 2.053092 1_554
Li6 O13 2.105902 1_555
Li7 O2 1.972774 1_555
Li7 O11 1.991862 1_555
Li7 O0 2.012181 1_555
Li7 O14 2.046392 1_555
Al0 O5 1.771675 1_445
Al0 O6 1.785214 1_545
Al0 O0 1.788149 1_555
Al0 O3 1.789688 1_555
Al1 O2 1.771675 1_565
Al1 O1 1.785214 1_565
Al1 O7 1.788149 1_555
Al1 O4 1.789688 1_555
Al2 O13 1.771675 1_545
Al2 O14 1.785214 1_545
Al2 O8 1.788149 1_555
Al2 O11 1.789688 1_555
Al3 O10 1.771675 1_665
Al3 O9 1.785214 1_565
Al3 O15 1.788149 1_555
Al3 O12 1.789688 1_555
O0 V3 1.972694 1_545
O1 V0 1.929902 1_555
O2 V1 1.939322 1_545
O3 V3 1.936614 1_555
O4 V2 1.936614 1_556
O5 V0 1.939322 1_565
O6 V1 1.929902 1_555
O7 V2 1.972694 1_566
O8 V1 1.972694 1_544
O9 V2 1.929902 1_555
O10 V3 1.939322 1_545
O11 V1 1.936614 1_554
O12 V0 1.936614 1_555
O13 V2 1.939322 1_565
O14 V3 1.929902 1_555
O15 V0 1.972694 1_565
