# generated using pymatgen
data_Li4CrNi5(PO4)6
_symmetry_space_group_name_H-M   'P 1'
_cell_length_a   8.30995200
_cell_length_b   8.38708228
_cell_length_c   8.39397324
_cell_angle_alpha   63.20949318
_cell_angle_beta   63.54433971
_cell_angle_gamma   63.61548774
_symmetry_Int_Tables_number   1
_chemical_formula_structural   Li4CrNi5(PO4)6
_chemical_formula_sum   'Li4 Cr1 Ni5 P6 O24'
_cell_volume   445.29588892
_cell_formula_units_Z   1
loop_
 _symmetry_equiv_pos_site_id
 _symmetry_equiv_pos_as_xyz
  1  'x, y, z'
loop_
 _atom_site_type_symbol
 _atom_site_label
 _atom_site_symmetry_multiplicity
 _atom_site_fract_x
 _atom_site_fract_y
 _atom_site_fract_z
 _atom_site_occupancy
  Li  Li0  1  0.74763900  0.14578900  0.35629700  1
  Li  Li1  1  0.26827400  0.85201600  0.64427900  1
  Li  Li2  1  0.64252100  0.26837600  0.85453100  1
  Li  Li3  1  0.85355200  0.64263300  0.26928700  1
  Cr  Cr0  1  0.85552400  0.85333000  0.85445100  1
  Ni  Ni0  1  0.00944700  0.00313500  0.99813400  1
  Ni  Ni1  1  0.35821300  0.35529000  0.35620200  1
  Ni  Ni2  1  0.49363800  0.50228600  0.49887200  1
  Ni  Ni3  1  0.14139700  0.14446500  0.14627300  1
  Ni  Ni4  1  0.64473100  0.64757000  0.64811700  1
  P  P0  1  0.05591000  0.74571300  0.44753300  1
  P  P1  1  0.44321900  0.05077600  0.75162600  1
  P  P2  1  0.74899500  0.44678800  0.05098900  1
  P  P3  1  0.24857400  0.54695900  0.95258100  1
  P  P4  1  0.55319000  0.95366700  0.24955100  1
  P  P5  1  0.94607700  0.24801600  0.54554800  1
  O  O0  1  0.47178400  0.89591600  0.68376800  1
  O  O1  1  0.67852400  0.47579500  0.89782800  1
  O  O2  1  0.89883700  0.67694800  0.47629200  1
  O  O3  1  0.05431800  0.91089200  0.25872600  1
  O  O4  1  0.01446300  0.81335500  0.60954900  1
  O  O5  1  0.25142300  0.59739400  0.43186100  1
  O  O6  1  0.24918900  0.07325500  0.90300900  1
  O  O7  1  0.45220700  0.23985100  0.58988100  1
  O  O8  1  0.17486700  0.39422600  0.98931200  1
  O  O9  1  0.60349600  0.43014100  0.25129900  1
  O  O10  1  0.09589500  0.75043500  0.92724700  1
  O  O11  1  0.39059800  0.00354900  0.18470200  1
  O  O12  1  0.60667700  0.00757300  0.82209200  1
  O  O13  1  0.89829600  0.24785200  0.07335200  1
  O  O14  1  0.39948600  0.56812600  0.75243300  1
  O  O15  1  0.81855600  0.60733000  0.01123700  1
  O  O16  1  0.56852000  0.75384300  0.40211500  1
  O  O17  1  0.75556100  0.92253600  0.09372200  1
  O  O18  1  0.74764800  0.40242200  0.57342200  1
  O  O19  1  0.95940800  0.18176000  0.39722700  1
  O  O20  1  0.92714700  0.09347300  0.74901800  1
  O  O21  1  0.11149200  0.30616100  0.50191300  1
  O  O22  1  0.31642800  0.51394700  0.10728500  1
  O  O23  1  0.54427800  0.10340900  0.31143700  1
loop_
_geom_bond_atom_site_label_1
_geom_bond_atom_site_label_2
_geom_bond_distance
_geom_bond_site_symmetry_2
Li0 O23 2.084581 1_555
Li0 O9 2.099073 1_555
Li0 O19 2.099983 1_555
Li0 O13 2.100321 1_555
Li0 O7 2.424442 1_555
Li0 O3 2.485809 1_645
Li1 O0 2.066003 1_555
Li1 O14 2.075633 1_555
Li1 O10 2.156010 1_555
Li1 O4 2.424784 1_555
Li1 O16 2.489786 1_555
Li2 O18 2.059067 1_555
Li2 O1 2.092213 1_555
Li2 O20 2.179801 1_555
Li2 O12 2.477042 1_555
Li2 O14 2.494170 1_555
Li3 O16 2.084284 1_555
Li3 O2 2.091259 1_555
Li3 O17 2.144168 1_555
Li3 O15 2.465771 1_555
Li3 O18 2.507643 1_555
Cr0 O12 1.956942 1_565
Cr0 O15 1.959240 1_556
Cr0 O4 1.972637 1_655
Cr0 O20 2.045322 1_565
Cr0 O10 2.046483 1_655
Cr0 O17 2.048552 1_556
Ni0 O6 2.037918 1_555
Ni0 O13 2.104283 1_456
Ni0 O3 2.113555 1_546
Ni0 O10 2.182841 1_545
Ni0 O20 2.190855 1_455
Ni0 O17 2.195962 1_446
Ni1 O21 1.982783 1_555
Ni1 O22 1.996570 1_555
Ni1 O23 2.071119 1_555
Ni1 O9 2.088989 1_555
Ni1 O5 2.091110 1_555
Ni1 O7 2.091880 1_555
Ni2 O5 2.044831 1_555
Ni2 O7 2.114290 1_555
Ni2 O9 2.114315 1_555
Ni2 O14 2.153797 1_555
Ni2 O16 2.161038 1_555
Ni2 O18 2.163735 1_555
Ni3 O11 1.966094 1_555
Ni3 O8 1.976019 1_554
Ni3 O19 2.038957 1_455
Ni3 O3 2.058319 1_545
Ni3 O13 2.067365 1_455
Ni3 O6 2.079133 1_554
Ni4 O1 1.997653 1_555
Ni4 O0 2.002901 1_555
Ni4 O2 2.007053 1_555
Ni4 O14 2.110677 1_555
Ni4 O16 2.112781 1_555
Ni4 O18 2.115053 1_555
O0 P1 1.529754 1_565
O1 P2 1.522240 1_556
O2 P0 1.535398 1_655
O3 P0 1.566621 1_555
O4 P0 1.547401 1_555
O5 P0 1.537919 1_555
O6 P1 1.539556 1_555
O7 P1 1.561308 1_555
O8 P3 1.511353 1_555
O9 P2 1.560613 1_555
O10 P3 1.598805 1_555
O11 P4 1.498171 1_545
O12 P1 1.552877 1_555
O13 P2 1.563242 1_555
O14 P3 1.574321 1_555
O15 P2 1.540578 1_555
O16 P4 1.576656 1_555
O17 P4 1.601517 1_555
O18 P5 1.575522 1_555
O19 P5 1.522223 1_555
O20 P5 1.602503 1_555
O21 P5 1.499216 1_455
O22 P3 1.506805 1_554
O23 P4 1.524396 1_545
