# generated using pymatgen
data_Li4Mn5FeO12
_symmetry_space_group_name_H-M   'P 1'
_cell_length_a   5.16074628
_cell_length_b   5.16074628
_cell_length_c   10.28459180
_cell_angle_alpha   89.97210997
_cell_angle_beta   89.97210997
_cell_angle_gamma   119.52345849
_symmetry_Int_Tables_number   1
_chemical_formula_structural   Li4Mn5FeO12
_chemical_formula_sum   'Li4 Mn5 Fe1 O12'
_cell_volume   238.34607182
_cell_formula_units_Z   1
loop_
 _symmetry_equiv_pos_site_id
 _symmetry_equiv_pos_as_xyz
  1  'x, y, z'
loop_
 _atom_site_type_symbol
 _atom_site_label
 _atom_site_symmetry_multiplicity
 _atom_site_fract_x
 _atom_site_fract_y
 _atom_site_fract_z
 _atom_site_occupancy
  Li  Li0  1  0.84556500  0.34708400  0.24890100  1
  Li  Li1  1  0.65291600  0.15443500  0.75109900  1
  Li  Li2  1  0.34708400  0.84556500  0.24890100  1
  Li  Li3  1  0.15443500  0.65291600  0.75109900  1
  Mn  Mn0  1  0.83604500  0.16395500  0.50000000  1
  Mn  Mn1  1  0.33692400  0.66307600  0.00000000  1
  Mn  Mn2  1  0.66307600  0.33692400  0.00000000  1
  Mn  Mn3  1  0.16395500  0.83604500  0.50000000  1
  Mn  Mn4  1  0.50000000  0.50000000  0.50000000  1
  Fe  Fe0  1  0.00000000  0.00000000  0.00000000  1
  O  O0  1  0.97876700  0.33300600  0.89359700  1
  O  O1  1  0.66699400  0.02123300  0.10640300  1
  O  O2  1  0.84247700  0.47861200  0.60728900  1
  O  O3  1  0.47861200  0.84247700  0.60728900  1
  O  O4  1  0.52138800  0.15752300  0.39271100  1
  O  O5  1  0.82612100  0.82612100  0.40849600  1
  O  O6  1  0.15752300  0.52138800  0.39271100  1
  O  O7  1  0.33300600  0.97876700  0.89359700  1
  O  O8  1  0.66228400  0.66228400  0.90432200  1
  O  O9  1  0.02123300  0.66699400  0.10640300  1
  O  O10  1  0.33771600  0.33771600  0.09567800  1
  O  O11  1  0.17387900  0.17387900  0.59150400  1
loop_
_geom_bond_atom_site_label_1
_geom_bond_atom_site_label_2
_geom_bond_distance
_geom_bond_site_symmetry_2
Li0 O6 2.040811 1_655
Li0 O9 2.053440 1_655
Li0 O1 2.073963 1_555
Li0 O4 2.080054 1_555
Li1 O3 2.040811 1_545
Li1 O7 2.053440 1_545
Li1 O0 2.073963 1_555
Li1 O2 2.080054 1_555
Li2 O4 2.040811 1_565
Li2 O1 2.053440 1_565
Li2 O9 2.073963 1_555
Li2 O6 2.080054 1_555
Li3 O2 2.040811 1_455
Li3 O0 2.053440 1_455
Li3 O7 2.073963 1_555
Li3 O3 2.080054 1_555
Mn0 O2 1.950446 1_555
Mn0 O4 1.950446 1_555
Mn0 O11 1.960001 1_655
Mn0 O5 1.960001 1_545
Mn0 O3 2.086325 1_545
Mn0 O6 2.086325 1_655
Mn1 O10 1.947518 1_555
Mn1 O8 1.947518 1_554
Mn1 O9 1.970527 1_555
Mn1 O7 1.970527 1_554
Mn1 O0 2.101495 1_454
Mn1 O1 2.101495 1_565
Mn2 O10 1.947518 1_555
Mn2 O8 1.947518 1_554
Mn2 O1 1.970527 1_555
Mn2 O0 1.970527 1_554
Mn2 O7 2.101495 1_544
Mn2 O9 2.101495 1_655
Mn3 O3 1.950446 1_555
Mn3 O6 1.950446 1_555
Mn3 O5 1.960001 1_455
Mn3 O11 1.960001 1_565
Mn3 O2 2.086325 1_455
Mn3 O4 2.086325 1_565
Mn4 O5 1.938049 1_555
Mn4 O11 1.938049 1_555
Mn4 O2 2.132512 1_555
Mn4 O6 2.132512 1_555
Mn4 O3 2.132512 1_555
Mn4 O4 2.132512 1_555
Fe0 O10 2.013221 1_555
Fe0 O8 2.013221 1_444
Fe0 O7 2.084911 1_544
Fe0 O0 2.084911 1_454
Fe0 O1 2.084911 1_455
Fe0 O9 2.084911 1_545
