# generated using pymatgen
data_Na6Mn2B4PO16
_symmetry_space_group_name_H-M   'P 1'
_cell_length_a   9.86549300
_cell_length_b   9.86549300
_cell_length_c   9.86549300
_cell_angle_alpha   60.00000000
_cell_angle_beta   60.00000000
_cell_angle_gamma   60.00000000
_symmetry_Int_Tables_number   1
_chemical_formula_structural   Na6Mn2B4PO16
_chemical_formula_sum   'Na12 Mn4 B8 P2 O32'
_cell_volume   678.95560897
_cell_formula_units_Z   2
loop_
 _symmetry_equiv_pos_site_id
 _symmetry_equiv_pos_as_xyz
  1  'x, y, z'
loop_
 _atom_site_type_symbol
 _atom_site_label
 _atom_site_symmetry_multiplicity
 _atom_site_fract_x
 _atom_site_fract_y
 _atom_site_fract_z
 _atom_site_occupancy
  Na  Na0  1  0.78545700  0.21454300  0.78545700  1
  Na  Na1  1  0.21454300  0.21454300  0.78545700  1
  Na  Na2  1  0.21454300  0.78545700  0.78545700  1
  Na  Na3  1  0.03545700  0.46454300  0.03545700  1
  Na  Na4  1  0.78545700  0.21454300  0.21454300  1
  Na  Na5  1  0.78545700  0.78545700  0.21454300  1
  Na  Na6  1  0.46454300  0.46454300  0.03545700  1
  Na  Na7  1  0.46454300  0.03545700  0.03545700  1
  Na  Na8  1  0.21454300  0.78545700  0.21454300  1
  Na  Na9  1  0.03545700  0.03545700  0.46454300  1
  Na  Na10  1  0.03545700  0.46454300  0.46454300  1
  Na  Na11  1  0.46454300  0.03545700  0.46454300  1
  Mn  Mn0  1  0.62500000  0.62500000  0.62500000  1
  Mn  Mn1  1  0.62500000  0.12500000  0.62500000  1
  Mn  Mn2  1  0.12500000  0.62500000  0.62500000  1
  Mn  Mn3  1  0.62500000  0.62500000  0.12500000  1
  B  B0  1  0.41462100  0.41462100  0.75613600  1
  B  B1  1  0.83537900  0.83537900  0.83537900  1
  B  B2  1  0.83537900  0.49386400  0.83537900  1
  B  B3  1  0.49386400  0.83537900  0.83537900  1
  B  B4  1  0.75613600  0.41462100  0.41462100  1
  B  B5  1  0.41462100  0.75613600  0.41462100  1
  B  B6  1  0.41462100  0.41462100  0.41462100  1
  B  B7  1  0.83537900  0.83537900  0.49386400  1
  P  P0  1  0.25000000  0.25000000  0.25000000  1
  P  P1  1  0.00000000  0.00000000  0.00000000  1
  O  O0  1  0.53436500  0.44337900  0.76298300  1
  O  O1  1  0.44337900  0.25927300  0.76298300  1
  O  O2  1  0.25927300  0.53436500  0.76298300  1
  O  O3  1  0.99072700  0.80662100  0.71563500  1
  O  O4  1  0.44264300  0.18578600  0.18578600  1
  O  O5  1  0.99072700  0.48701700  0.80662100  1
  O  O6  1  0.80662100  0.48701700  0.71563500  1
  O  O7  1  0.18578600  0.44264300  0.18578600  1
  O  O8  1  0.18578600  0.18578600  0.18578600  1
  O  O9  1  0.71563500  0.99072700  0.80662100  1
  O  O10  1  0.80662100  0.71563500  0.99072700  1
  O  O11  1  0.18578600  0.18578600  0.44264300  1
  O  O12  1  0.48701700  0.99072700  0.71563500  1
  O  O13  1  0.71563500  0.48701700  0.99072700  1
  O  O14  1  0.48701700  0.71563500  0.80662100  1
  O  O15  1  0.76298300  0.44337900  0.25927300  1
  O  O16  1  0.48701700  0.80662100  0.99072700  1
  O  O17  1  0.76298300  0.53436500  0.44337900  1
  O  O18  1  0.53436500  0.76298300  0.25927300  1
  O  O19  1  0.76298300  0.25927300  0.53436500  1
  O  O20  1  0.06421400  0.06421400  0.80735700  1
  O  O21  1  0.44337900  0.53436500  0.25927300  1
  O  O22  1  0.53436500  0.25927300  0.44337900  1
  O  O23  1  0.06421400  0.06421400  0.06421400  1
  O  O24  1  0.06421400  0.80735700  0.06421400  1
  O  O25  1  0.44337900  0.76298300  0.53436500  1
  O  O26  1  0.25927300  0.76298300  0.44337900  1
  O  O27  1  0.80735700  0.06421400  0.06421400  1
  O  O28  1  0.25927300  0.44337900  0.53436500  1
  O  O29  1  0.99072700  0.71563500  0.48701700  1
  O  O30  1  0.80662100  0.99072700  0.48701700  1
  O  O31  1  0.71563500  0.80662100  0.48701700  1
loop_
_geom_bond_atom_site_label_1
_geom_bond_atom_site_label_2
_geom_bond_distance
_geom_bond_site_symmetry_2
Na0 O19 2.395497 1_555
Na0 O0 2.395497 1_555
Na0 O27 2.450363 1_556
Na0 O20 2.450363 1_655
Na0 O9 2.511913 1_545
Na0 O6 2.511913 1_555
Na1 O28 2.395497 1_555
Na1 O1 2.395497 1_555
Na1 O23 2.450366 1_556
Na1 O20 2.450371 1_555
Na1 O5 2.511913 1_455
Na1 O12 2.511913 1_545
Na2 O2 2.395497 1_555
Na2 O25 2.395497 1_555
Na2 O24 2.450363 1_556
Na2 O20 2.450363 1_565
Na2 O3 2.511913 1_455
Na2 O14 2.511913 1_555
Na3 O10 2.395497 1_454
Na3 O5 2.395497 1_454
Na3 O8 2.450366 1_555
Na3 O7 2.450371 1_555
Na3 O15 2.511913 1_455
Na3 O2 2.511913 1_554
Na4 O22 2.395497 1_555
Na4 O15 2.395497 1_555
Na4 O23 2.450366 1_655
Na4 O27 2.450371 1_555
Na4 O13 2.511913 1_554
Na4 O30 2.511913 1_545
Na5 O18 2.395497 1_555
Na5 O17 2.395497 1_555
Na5 O27 2.450363 1_565
Na5 O24 2.450363 1_655
Na5 O10 2.511913 1_554
Na5 O31 2.511913 1_555
Na6 O14 2.395497 1_554
Na6 O13 2.395497 1_554
Na6 O7 2.450363 1_555
Na6 O4 2.450363 1_555
Na6 O0 2.511913 1_554
Na6 O21 2.511913 1_555
Na7 O16 2.395497 1_544
Na7 O9 2.395497 1_544
Na7 O8 2.450366 1_555
Na7 O4 2.450371 1_555
Na7 O1 2.511913 1_554
Na7 O18 2.511913 1_545
Na8 O21 2.395497 1_555
Na8 O26 2.395497 1_555
Na8 O23 2.450366 1_565
Na8 O24 2.450371 1_555
Na8 O16 2.511913 1_554
Na8 O29 2.511913 1_455
Na9 O30 2.395497 1_445
Na9 O3 2.395497 1_445
Na9 O8 2.450366 1_555
Na9 O11 2.450371 1_555
Na9 O26 2.511913 1_545
Na9 O19 2.511913 1_455
Na10 O6 2.395497 1_455
Na10 O29 2.395497 1_455
Na10 O7 2.450363 1_555
Na10 O11 2.450363 1_555
Na10 O17 2.511913 1_455
Na10 O28 2.511913 1_555
Na11 O31 2.395497 1_545
Na11 O12 2.395497 1_545
Na11 O11 2.450363 1_555
Na11 O4 2.450363 1_555
Na11 O25 2.511913 1_545
Na11 O22 2.511913 1_555
Mn0 O6 1.951641 1_555
Mn0 O14 1.951641 1_555
Mn0 O31 1.951641 1_555
Mn0 O17 1.951641 1_555
Mn0 O0 1.951641 1_555
Mn0 O25 1.951641 1_555
Mn1 O9 1.951641 1_545
Mn1 O19 1.951641 1_555
Mn1 O1 1.951641 1_555
Mn1 O30 1.951641 1_545
Mn1 O22 1.951641 1_555
Mn1 O12 1.951641 1_545
Mn2 O3 1.951641 1_455
Mn2 O2 1.951641 1_555
Mn2 O26 1.951641 1_555
Mn2 O5 1.951641 1_455
Mn2 O29 1.951641 1_455
Mn2 O28 1.951641 1_555
Mn3 O10 1.951641 1_554
Mn3 O18 1.951641 1_555
Mn3 O15 1.951641 1_555
Mn3 O16 1.951641 1_554
Mn3 O21 1.951641 1_555
Mn3 O13 1.951641 1_554
B0 O1 1.383726 1_555
B0 O2 1.383729 1_555
B0 O0 1.383736 1_555
B1 O3 1.383730 1_555
B1 O10 1.383730 1_555
B1 O9 1.383730 1_555
B2 O5 1.383726 1_555
B2 O13 1.383729 1_555
B2 O6 1.383736 1_555
B3 O16 1.383726 1_555
B3 O12 1.383729 1_555
B3 O14 1.383736 1_555
B4 O15 1.383726 1_555
B4 O19 1.383729 1_555
B4 O17 1.383736 1_555
B5 O26 1.383726 1_555
B5 O18 1.383729 1_555
B5 O25 1.383736 1_555
B6 O28 1.383730 1_555
B6 O22 1.383730 1_555
B6 O21 1.383730 1_555
B7 O30 1.383726 1_555
B7 O29 1.383729 1_555
B7 O31 1.383736 1_555
O4 P0 1.551767 1_555
O7 P0 1.551767 1_555
O8 P0 1.551759 1_555
O11 P0 1.551767 1_555
O20 P1 1.551767 1_556
O23 P1 1.551759 1_555
O24 P1 1.551767 1_565
O27 P1 1.551767 1_655
