# generated using pymatgen
data_LiV2OF5
_symmetry_space_group_name_H-M   'P 1'
_cell_length_a   10.39453694
_cell_length_b   10.44604690
_cell_length_c   11.05273641
_cell_angle_alpha   118.44633143
_cell_angle_beta   117.81700522
_cell_angle_gamma   60.42895136
_symmetry_Int_Tables_number   1
_chemical_formula_structural   LiV2OF5
_chemical_formula_sum   'Li8 V16 O8 F40'
_cell_volume   874.68658172
_cell_formula_units_Z   8
loop_
 _symmetry_equiv_pos_site_id
 _symmetry_equiv_pos_as_xyz
  1  'x, y, z'
loop_
 _atom_site_type_symbol
 _atom_site_label
 _atom_site_symmetry_multiplicity
 _atom_site_fract_x
 _atom_site_fract_y
 _atom_site_fract_z
 _atom_site_occupancy
  Li  Li0  1  0.11124600  0.11698100  0.83144500  1
  Li  Li1  1  0.14978800  0.13499600  0.42729500  1
  Li  Li2  1  0.14544200  0.62752200  0.41450100  1
  Li  Li3  1  0.60970400  0.11641400  0.83094000  1
  Li  Li4  1  0.64757600  0.13089400  0.41828200  1
  Li  Li5  1  0.61205700  0.61935100  0.83493400  1
  Li  Li6  1  0.35224300  0.85775100  0.07430200  1
  Li  Li7  1  0.65348600  0.63234900  0.42567300  1
  V  V0  1  0.00989100  0.49235200  0.99534500  1
  V  V1  1  0.23982900  0.26147600  0.76259500  1
  V  V2  1  0.00790500  0.99160500  0.99737000  1
  V  V3  1  0.23735500  0.75227600  0.75503000  1
  V  V4  1  0.25636200  0.26013500  0.25470500  1
  V  V5  1  0.51113400  0.48586100  0.99482000  1
  V  V6  1  0.74193600  0.25598500  0.76062400  1
  V  V7  1  0.48735200  0.49464200  0.48912200  1
  V  V8  1  0.25315200  0.75704700  0.25254200  1
  V  V9  1  0.51192700  0.99285100  0.99428100  1
  V  V10  1  0.74644100  0.75321700  0.76198900  1
  V  V11  1  0.48672000  0.99306400  0.49035200  1
  V  V12  1  0.75584500  0.25892900  0.25360600  1
  V  V13  1  0.98692300  0.49378300  0.49047900  1
  V  V14  1  0.75533000  0.75690000  0.25320200  1
  V  V15  1  0.98547400  0.99415900  0.48785300  1
  O  O0  1  0.12281100  0.31609100  0.87585900  1
  O  O1  1  0.13487400  0.83267900  0.88683100  1
  O  O2  1  0.31722500  0.43193200  0.37388900  1
  O  O3  1  0.62564800  0.31467600  0.87557200  1
  O  O4  1  0.31676800  0.93061100  0.37264000  1
  O  O5  1  0.62345700  0.81800900  0.87529800  1
  O  O6  1  0.81641400  0.43146400  0.37415600  1
  O  O7  1  0.81355100  0.93219500  0.37277200  1
  F  F0  1  0.16810200  0.07352000  0.62290600  1
  F  F1  1  0.07307200  0.36547200  0.61491900  1
  F  F2  1  0.44347000  0.12900300  0.87233300  1
  F  F3  1  0.13157200  0.29856800  0.37229900  1
  F  F4  1  0.31796500  0.44058800  0.87628500  1
  F  F5  1  0.16986400  0.57263300  0.61135000  1
  F  F6  1  0.36517700  0.17850400  0.62344700  1
  F  F7  1  0.19774800  0.06156800  0.13207400  1
  F  F8  1  0.06628600  0.37748000  0.12436800  1
  F  F9  1  0.06766000  0.88277100  0.62733600  1
  F  F10  1  0.45018400  0.11979300  0.37632300  1
  F  F11  1  0.44257700  0.63425700  0.87971400  1
  F  F12  1  0.13165100  0.79916800  0.37699400  1
  F  F13  1  0.31055800  0.94438300  0.87456300  1
  F  F14  1  0.66900600  0.07121600  0.62251900  1
  F  F15  1  0.36640600  0.67903400  0.62553400  1
  F  F16  1  0.18581500  0.57376400  0.13219200  1
  F  F17  1  0.37307300  0.17330400  0.11813900  1
  F  F18  1  0.06520400  0.87914100  0.12738900  1
  F  F19  1  0.57240600  0.37632700  0.62555600  1
  F  F20  1  0.44876200  0.62208700  0.37563400  1
  F  F21  1  0.94282900  0.13155200  0.87788000  1
  F  F22  1  0.63255900  0.29977700  0.37616000  1
  F  F23  1  0.80397900  0.44843500  0.87315200  1
  F  F24  1  0.66858800  0.57114500  0.62331500  1
  F  F25  1  0.86458200  0.17886000  0.62406100  1
  F  F26  1  0.37589400  0.68882000  0.11982200  1
  F  F27  1  0.68065100  0.07305600  0.13192700  1
  F  F28  1  0.56500800  0.37576800  0.12795200  1
  F  F29  1  0.57334000  0.87708200  0.62819900  1
  F  F30  1  0.94994900  0.11919600  0.37515500  1
  F  F31  1  0.93487700  0.62799000  0.87728900  1
  F  F32  1  0.62896900  0.79994900  0.37281000  1
  F  F33  1  0.80507200  0.94849400  0.87164800  1
  F  F34  1  0.85293000  0.68046600  0.61362800  1
  F  F35  1  0.67847100  0.57418800  0.13025300  1
  F  F36  1  0.87466300  0.17674600  0.11984700  1
  F  F37  1  0.55315400  0.87323500  0.12154700  1
  F  F38  1  0.94749700  0.62184200  0.37618700  1
  F  F39  1  0.87226400  0.67622000  0.11999400  1
loop_
_geom_bond_atom_site_label_1
_geom_bond_atom_site_label_2
_geom_bond_distance
_geom_bond_site_symmetry_2
Li0 O0 1.949481 1_555
Li1 O4 2.007018 1_545
Li2 O2 1.959033 1_555
Li3 O3 1.961950 1_555
Li4 O7 1.954107 1_545
Li5 O5 1.957261 1_555
Li6 O1 2.272617 1_554
Li7 O6 1.962112 1_555
O0 V1 1.851487 1_555
O0 V0 1.873247 1_555
O1 V3 1.833558 1_555
O1 V2 1.844086 1_555
O2 V7 1.850663 1_555
O2 V4 1.856546 1_555
O3 V6 1.846863 1_555
O3 V5 1.862717 1_555
O4 V11 1.850113 1_555
O4 V8 1.886214 1_555
O5 V9 1.858506 1_555
O5 V10 1.869076 1_555
O6 V13 1.852774 1_555
O6 V12 1.862607 1_555
O7 V15 1.861809 1_555
O7 V14 1.872899 1_555
F0 V15 2.061271 1_445
F0 V1 2.068128 1_555
F0 Li0 2.424393 1_555
F0 Li1 2.437409 1_555
F1 V13 1.977941 1_455
F1 V1 2.009728 1_555
F1 Li1 2.371662 1_555
F2 Li3 1.915344 1_555
F2 V1 2.044122 1_555
F2 V9 2.068357 1_545
F3 Li1 1.971715 1_555
F3 V4 2.023714 1_555
F3 V13 2.096293 1_455
F4 V5 1.965605 1_555
F4 V1 2.011688 1_555
F5 V3 1.988999 1_555
F5 V13 2.050824 1_455
F5 Li2 2.378292 1_555
F6 V11 2.029006 1_545
F6 V1 2.073615 1_555
F6 Li1 2.335564 1_555
F6 Li3 2.547598 1_555
F7 Li6 1.951117 1_545
F7 V2 2.071144 1_544
F7 V4 2.075825 1_555
F8 V0 1.993218 1_554
F8 V4 2.029024 1_555
F9 V15 1.989744 1_455
F9 V3 2.024272 1_555
F10 Li4 1.932337 1_555
F10 V11 2.032660 1_545
F10 V4 2.109441 1_555
F11 Li5 1.960174 1_555
F11 V3 2.061245 1_555
F11 V5 2.114649 1_555
F11 Li6 2.428047 1_556
F12 Li2 1.950976 1_555
F12 V8 2.043776 1_555
F12 V15 2.064985 1_455
F13 Li0 1.995071 1_565
F13 V9 2.052140 1_555
F13 V3 2.096343 1_555
F13 Li6 2.550290 1_556
F14 V6 2.046321 1_555
F14 V11 2.048893 1_545
F14 Li3 2.431343 1_555
F14 Li4 2.503654 1_555
F15 V3 2.041826 1_555
F15 V7 2.043564 1_555
F15 Li2 2.455528 1_555
F15 Li5 2.559914 1_555
F16 V8 1.988077 1_555
F16 V0 2.020657 1_554
F17 V4 1.972683 1_555
F17 V9 2.052047 1_544
F18 V2 1.979643 1_554
F18 V8 2.013972 1_555
F19 V7 2.008953 1_555
F19 V6 2.015050 1_555
F20 Li7 1.978900 1_555
F20 V7 2.025059 1_555
F20 V8 2.094981 1_555
F21 Li0 1.962744 1_655
F21 V6 2.032183 1_555
F21 V2 2.090085 1_645
F22 Li4 1.948386 1_555
F22 V12 2.046675 1_555
F22 V7 2.070187 1_555
F23 Li5 1.939687 1_555
F23 V6 2.037967 1_555
F23 V0 2.072833 1_655
F24 V7 2.033821 1_555
F24 V10 2.050809 1_555
F24 Li5 2.436852 1_555
F24 Li7 2.473216 1_555
F25 V15 2.042922 1_545
F25 V6 2.043589 1_555
F25 Li4 2.398714 1_555
F25 Li0 2.556644 1_655
F26 Li6 1.931266 1_555
F26 V8 2.034903 1_555
F26 V5 2.111963 1_554
F27 V9 1.959111 1_544
F27 V12 2.053951 1_555
F28 V12 2.001852 1_555
F28 V5 2.002215 1_554
F29 V11 2.000355 1_555
F29 V10 2.034711 1_555
F29 Li7 2.535149 1_555
F30 Li1 1.950586 1_655
F30 V15 2.009617 1_545
F30 V12 2.106627 1_555
F31 V10 1.975181 1_555
F31 V0 2.009839 1_655
F32 Li7 1.966383 1_555
F32 V14 2.036253 1_555
F32 V11 2.072588 1_555
F33 Li3 1.945904 1_565
F33 V10 2.045430 1_555
F33 V2 2.045864 1_655
F34 V13 2.038447 1_555
F34 V10 2.041631 1_555
F34 Li7 2.209163 1_555
F35 V5 1.988903 1_554
F35 V14 2.036813 1_555
F36 V12 1.973966 1_555
F36 V2 2.025575 1_644
F37 Li6 1.973654 1_555
F37 V9 2.075306 1_554
F37 V14 2.078608 1_555
F38 Li2 1.923462 1_655
F38 V13 2.034406 1_555
F38 V14 2.083153 1_555
F39 V14 1.957645 1_555
F39 V0 2.059182 1_654
