# generated using pymatgen
data_NaLiO
_symmetry_space_group_name_H-M   'P 1'
_cell_length_a   3.35270774
_cell_length_b   3.35270774
_cell_length_c   6.73476300
_cell_angle_alpha   90.00000000
_cell_angle_beta   90.00000000
_cell_angle_gamma   119.99999488
_symmetry_Int_Tables_number   1
_chemical_formula_structural   NaLiO
_chemical_formula_sum   'Na2 Li2 O2'
_cell_volume   65.56081830
_cell_formula_units_Z   2
loop_
 _symmetry_equiv_pos_site_id
 _symmetry_equiv_pos_as_xyz
  1  'x, y, z'
loop_
 _atom_site_type_symbol
 _atom_site_label
 _atom_site_symmetry_multiplicity
 _atom_site_fract_x
 _atom_site_fract_y
 _atom_site_fract_z
 _atom_site_occupancy
  Na  Na0  1  0.00000000  0.00000000  0.00000000  1
  Na  Na1  1  0.00000000  0.00000000  0.50000000  1
  Li  Li0  1  0.66666700  0.33333300  0.25000000  1
  Li  Li1  1  0.33333300  0.66666700  0.75000000  1
  O  O0  1  0.66666700  0.33333300  0.75000000  1
  O  O1  1  0.33333300  0.66666700  0.25000000  1
loop_
_geom_bond_atom_site_label_1
_geom_bond_atom_site_label_2
_geom_bond_distance
_geom_bond_site_symmetry_2
Na0 O0 2.565480 1_454
Na0 O1 2.565480 1_545
Na0 O1 2.565483 1_445
Na0 O0 2.565483 1_554
Na0 O0 2.565483 1_444
Na0 O1 2.565483 1_555
Na1 O1 2.565480 1_545
Na1 O0 2.565480 1_455
Na1 O1 2.565483 1_445
Na1 O0 2.565483 1_555
Na1 O0 2.565483 1_445
Na1 O1 2.565483 1_555
Li0 O1 1.935685 1_545
Li0 O1 1.935685 1_655
Li0 O1 1.935691 1_555
Li1 O0 1.935685 1_455
Li1 O0 1.935685 1_565
Li1 O0 1.935691 1_555
