# generated using pymatgen
data_LiFeSi3O8
_symmetry_space_group_name_H-M   'P 1'
_cell_length_a   8.02381820
_cell_length_b   7.10999065
_cell_length_c   7.11511837
_cell_angle_alpha   81.61616228
_cell_angle_beta   109.02919898
_cell_angle_gamma   61.75694210
_symmetry_Int_Tables_number   1
_chemical_formula_structural   LiFeSi3O8
_chemical_formula_sum   'Li2 Fe2 Si6 O16'
_cell_volume   315.33657644
_cell_formula_units_Z   2
loop_
 _symmetry_equiv_pos_site_id
 _symmetry_equiv_pos_as_xyz
  1  'x, y, z'
loop_
 _atom_site_type_symbol
 _atom_site_label
 _atom_site_symmetry_multiplicity
 _atom_site_fract_x
 _atom_site_fract_y
 _atom_site_fract_z
 _atom_site_occupancy
  Li  Li0  1  0.81765900  0.83001600  0.80212300  1
  Li  Li1  1  0.18234100  0.16998400  0.19787700  1
  Fe  Fe0  1  0.20401000  0.72886600  0.14545300  1
  Fe  Fe1  1  0.79599000  0.27113400  0.85454700  1
  Si  Si0  1  0.21143700  0.55678600  0.73167100  1
  Si  Si1  1  0.44883800  0.73558800  0.62095300  1
  Si  Si2  1  0.17609800  0.14878200  0.74378800  1
  Si  Si3  1  0.82390200  0.85121800  0.25621200  1
  Si  Si4  1  0.55116200  0.26441200  0.37904700  1
  Si  Si5  1  0.78856300  0.44321400  0.26832900  1
  O  O0  1  0.12193700  0.69674700  0.87182000  1
  O  O1  1  0.36103800  0.93530500  0.72015400  1
  O  O2  1  0.03384400  0.69904200  0.48430300  1
  O  O3  1  0.30816200  0.83987400  0.36390600  1
  O  O4  1  0.10759800  0.08538400  0.92552000  1
  O  O5  1  0.43168300  0.52945000  0.74349600  1
  O  O6  1  0.27293400  0.29737900  0.81356400  1
  O  O7  1  0.70507500  0.59525200  0.70943200  1
  O  O8  1  0.29492500  0.40474800  0.29056800  1
  O  O9  1  0.72706600  0.70262100  0.18643600  1
  O  O10  1  0.56831700  0.47055000  0.25650400  1
  O  O11  1  0.89240200  0.91461600  0.07448000  1
  O  O12  1  0.69183800  0.16012600  0.63609400  1
  O  O13  1  0.96615600  0.30095800  0.51569700  1
  O  O14  1  0.63896300  0.06469500  0.27984600  1
  O  O15  1  0.87806300  0.30325300  0.12818000  1
loop_
_geom_bond_atom_site_label_1
_geom_bond_atom_site_label_2
_geom_bond_distance
_geom_bond_site_symmetry_2
Li0 O0 1.997133 1_655
Li0 O12 2.023536 1_565
Li0 O11 2.097668 1_556
Li0 O7 2.323081 1_555
Li1 O15 1.997133 1_455
Li1 O3 2.023536 1_545
Li1 O4 2.097668 1_554
Li1 O8 2.323081 1_555
Fe0 O0 1.926726 1_554
Fe0 O3 1.967787 1_555
Fe0 O11 2.026732 1_455
Fe0 O8 2.032930 1_555
Fe0 O10 2.351982 1_555
Fe0 O4 2.381308 1_564
Fe1 O15 1.926726 1_556
Fe1 O12 1.967787 1_555
Fe1 O4 2.026732 1_655
Fe1 O7 2.032930 1_555
Fe1 O5 2.351982 1_555
Fe1 O11 2.381308 1_546
O0 Si0 1.606342 1_555
O1 Si2 1.624676 1_565
O1 Si1 1.637257 1_555
O2 Si3 1.619373 1_455
O2 Si0 1.622555 1_555
O3 Si1 1.623290 1_555
O4 Si2 1.644750 1_555
O5 Si0 1.655627 1_555
O5 Si1 1.680423 1_555
O6 Si0 1.619423 1_555
O6 Si2 1.626278 1_555
O7 Si1 1.627968 1_555
O8 Si4 1.627968 1_555
O9 Si5 1.619423 1_555
O9 Si3 1.626278 1_555
O10 Si5 1.655627 1_555
O10 Si4 1.680423 1_555
O11 Si3 1.644750 1_555
O12 Si4 1.623290 1_555
O13 Si2 1.619373 1_655
O13 Si5 1.622555 1_555
O14 Si3 1.624672 1_545
O14 Si4 1.637258 1_555
O15 Si5 1.606342 1_555
