# generated using pymatgen
data_Fe3Ni(PO4)4
_symmetry_space_group_name_H-M   'P 1'
_cell_length_a   5.89884000
_cell_length_b   4.87037500
_cell_length_c   9.94453690
_cell_angle_alpha   89.81134978
_cell_angle_beta   90.00000000
_cell_angle_gamma   90.00000000
_symmetry_Int_Tables_number   1
_chemical_formula_structural   Fe3Ni(PO4)4
_chemical_formula_sum   'Fe3 Ni1 P4 O16'
_cell_volume   285.70064951
_cell_formula_units_Z   1
loop_
 _symmetry_equiv_pos_site_id
 _symmetry_equiv_pos_as_xyz
  1  'x, y, z'
loop_
 _atom_site_type_symbol
 _atom_site_label
 _atom_site_symmetry_multiplicity
 _atom_site_fract_x
 _atom_site_fract_y
 _atom_site_fract_z
 _atom_site_occupancy
  Fe  Fe0  1  0.00000000  0.46804300  0.77331100  1
  Fe  Fe1  1  0.50000000  0.53381000  0.22662900  1
  Fe  Fe2  1  0.50000000  0.96731300  0.72542300  1
  Ni  Ni0  1  0.00000000  0.04846600  0.27734200  1
  P  P0  1  0.50000000  0.08295100  0.40318800  1
  P  P1  1  0.50000000  0.41621400  0.90433900  1
  P  P2  1  0.00000000  0.58244400  0.10195900  1
  P  P3  1  0.00000000  0.91838800  0.59298100  1
  O  O0  1  0.50000000  0.15268100  0.55302500  1
  O  O1  1  0.29914800  0.23366400  0.32850900  1
  O  O2  1  0.70085200  0.23366400  0.32850900  1
  O  O3  1  0.00000000  0.22778300  0.61700300  1
  O  O4  1  0.00000000  0.26763600  0.11497600  1
  O  O5  1  0.29707300  0.27115800  0.82858600  1
  O  O6  1  0.70292700  0.27115800  0.82858600  1
  O  O7  1  0.50000000  0.34639700  0.05328800  1
  O  O8  1  0.00000000  0.64394400  0.95002800  1
  O  O9  1  0.79487700  0.72327100  0.17318400  1
  O  O10  1  0.20512300  0.72327100  0.17318400  1
  O  O11  1  0.50000000  0.72629200  0.88082700  1
  O  O12  1  0.50000000  0.77450200  0.38222600  1
  O  O13  1  0.79762000  0.77161200  0.66919200  1
  O  O14  1  0.20238000  0.77161200  0.66919200  1
  O  O15  1  0.00000000  0.84372300  0.44451100  1
loop_
_geom_bond_atom_site_label_1
_geom_bond_atom_site_label_2
_geom_bond_distance
_geom_bond_site_symmetry_2
Fe0 O3 1.948701 1_555
Fe0 O8 1.957601 1_555
Fe0 O5 2.070999 1_555
Fe0 O6 2.070999 1_455
Fe0 O13 2.161742 1_455
Fe0 O14 2.161742 1_555
Fe1 O12 1.944325 1_555
Fe1 O7 1.953199 1_555
Fe1 O10 2.038709 1_555
Fe1 O9 2.038709 1_555
Fe1 O2 2.134803 1_555
Fe1 O1 2.134803 1_555
Fe2 O0 1.934969 1_565
Fe2 O11 1.937610 1_555
Fe2 O14 2.075296 1_555
Fe2 O13 2.075296 1_555
Fe2 O6 2.164555 1_565
Fe2 O5 2.164555 1_565
Ni0 O4 1.932664 1_555
Ni0 O15 1.935737 1_545
Ni0 O1 2.046805 1_555
Ni0 O2 2.046805 1_455
Ni0 O10 2.248611 1_545
Ni0 O9 2.248611 1_445
O0 P0 1.529361 1_555
O1 P0 1.578123 1_555
O2 P0 1.578123 1_555
O3 P3 1.526465 1_545
O4 P2 1.538263 1_555
O5 P1 1.582090 1_555
O6 P1 1.582090 1_555
O7 P1 1.518666 1_554
O8 P2 1.539320 1_556
O9 P2 1.561855 1_655
O10 P2 1.561855 1_555
O11 P1 1.527428 1_555
O12 P0 1.517336 1_565
O13 P3 1.583354 1_655
O14 P3 1.583354 1_555
O15 P3 1.521750 1_555
