# generated using pymatgen
data_Na3As3(HO5)2
_symmetry_space_group_name_H-M   'P 1'
_cell_length_a   7.49827490
_cell_length_b   7.49827490
_cell_length_c   18.86222999
_cell_angle_alpha   80.96513126
_cell_angle_beta   80.96513126
_cell_angle_gamma   86.56530354
_symmetry_Int_Tables_number   1
_chemical_formula_structural   Na3As3(HO5)2
_chemical_formula_sum   'Na12 As12 H8 O40'
_cell_volume   1033.68422133
_cell_formula_units_Z   4
loop_
 _symmetry_equiv_pos_site_id
 _symmetry_equiv_pos_as_xyz
  1  'x, y, z'
loop_
 _atom_site_type_symbol
 _atom_site_label
 _atom_site_symmetry_multiplicity
 _atom_site_fract_x
 _atom_site_fract_y
 _atom_site_fract_z
 _atom_site_occupancy
  Na  Na0  1  0.21835400  0.49345300  0.91836100  1
  Na  Na1  1  0.50654700  0.78164600  0.58163900  1
  Na  Na2  1  0.78164600  0.50654700  0.08163900  1
  Na  Na3  1  0.49345300  0.21835400  0.41836100  1
  Na  Na4  1  0.08953600  0.17465500  0.10933500  1
  Na  Na5  1  0.82534500  0.91046400  0.39066500  1
  Na  Na6  1  0.91046400  0.82534500  0.89066500  1
  Na  Na7  1  0.17465500  0.08953600  0.60933500  1
  Na  Na8  1  0.23658000  0.76342000  0.75000000  1
  Na  Na9  1  0.76342000  0.23658000  0.25000000  1
  Na  Na10  1  0.82385200  0.17614800  0.75000000  1
  Na  Na11  1  0.17614800  0.82385200  0.25000000  1
  As  As0  1  0.00650400  0.68985600  0.59987000  1
  As  As1  1  0.31014400  0.99349600  0.90013000  1
  As  As2  1  0.99349600  0.31014400  0.40013000  1
  As  As3  1  0.68985600  0.00650400  0.09987000  1
  As  As4  1  0.73775300  0.70461800  0.74438900  1
  As  As5  1  0.29538200  0.26224700  0.75561100  1
  As  As6  1  0.26224700  0.29538200  0.25561100  1
  As  As7  1  0.70461800  0.73775300  0.24438900  1
  As  As8  1  0.73833500  0.41032000  0.89558300  1
  As  As9  1  0.58968000  0.26166500  0.60441700  1
  As  As10  1  0.26166500  0.58968000  0.10441700  1
  As  As11  1  0.41032000  0.73833500  0.39558300  1
  H  H0  1  0.93680100  0.30627200  0.58891000  1
  H  H1  1  0.69372800  0.06319900  0.91109000  1
  H  H2  1  0.06319900  0.69372800  0.41109000  1
  H  H3  1  0.30627200  0.93680100  0.08891000  1
  H  H4  1  0.52338500  0.29352100  0.99317200  1
  H  H5  1  0.70647900  0.47661500  0.50682800  1
  H  H6  1  0.47661500  0.70647900  0.00682800  1
  H  H7  1  0.29352100  0.52338500  0.49317200  1
  O  O0  1  0.95615000  0.65222700  0.45003600  1
  O  O1  1  0.34777300  0.04385000  0.04996400  1
  O  O2  1  0.04385000  0.34777300  0.54996400  1
  O  O3  1  0.65222700  0.95615000  0.95003600  1
  O  O4  1  0.19038300  0.78297900  0.62174800  1
  O  O5  1  0.21702100  0.80961800  0.87825200  1
  O  O6  1  0.80961800  0.21702100  0.37825200  1
  O  O7  1  0.78297900  0.19038200  0.12174800  1
  O  O8  1  0.14385800  0.47638300  0.57915400  1
  O  O9  1  0.52361700  0.85614200  0.92084600  1
  O  O10  1  0.85614200  0.52361700  0.42084600  1
  O  O11  1  0.47638300  0.14385800  0.07915400  1
  O  O12  1  0.89344900  0.57026900  0.69196300  1
  O  O13  1  0.42973100  0.10655100  0.80803700  1
  O  O14  1  0.10655100  0.42973100  0.30803700  1
  O  O15  1  0.57026900  0.89344900  0.19196300  1
  O  O16  1  0.55858500  0.77428700  0.70336900  1
  O  O17  1  0.22571300  0.44141500  0.79663100  1
  O  O18  1  0.44141500  0.22571300  0.29663100  1
  O  O19  1  0.77428700  0.55858500  0.20336900  1
  O  O20  1  0.85688100  0.85207300  0.77518700  1
  O  O21  1  0.14792700  0.14311900  0.72481300  1
  O  O22  1  0.14311900  0.14792700  0.22481300  1
  O  O23  1  0.85207300  0.85688100  0.27518700  1
  O  O24  1  0.65401500  0.53079300  0.81825600  1
  O  O25  1  0.46920700  0.34598500  0.68174400  1
  O  O26  1  0.34598500  0.46920700  0.18174400  1
  O  O27  1  0.53079300  0.65401500  0.31825600  1
  O  O28  1  0.51774900  0.36979400  0.94506600  1
  O  O29  1  0.63020600  0.48225100  0.55493400  1
  O  O30  1  0.48225100  0.63020600  0.05493400  1
  O  O31  1  0.36979400  0.51774900  0.44506600  1
  O  O32  1  0.86072700  0.52630500  0.93948100  1
  O  O33  1  0.47369500  0.13927300  0.56051900  1
  O  O34  1  0.13927300  0.47369500  0.06051900  1
  O  O35  1  0.52630500  0.86072700  0.43948100  1
  O  O36  1  0.83089300  0.21216300  0.87259600  1
  O  O37  1  0.78783700  0.16910700  0.62740400  1
  O  O38  1  0.16910700  0.78783700  0.12740400  1
  O  O39  1  0.21216300  0.83089300  0.37259600  1
loop_
_geom_bond_atom_site_label_1
_geom_bond_atom_site_label_2
_geom_bond_distance
_geom_bond_site_symmetry_2
Na0 O5 2.372526 1_555
Na0 O17 2.380416 1_555
Na0 O28 2.472309 1_555
Na0 O34 2.636275 1_556
Na0 O32 2.650743 1_455
Na1 O4 2.372519 1_555
Na1 O16 2.380416 1_555
Na1 O29 2.472309 1_555
Na1 O35 2.636275 1_555
Na1 O33 2.650743 1_565
Na2 O7 2.372526 1_555
Na2 O19 2.380416 1_555
Na2 O30 2.472309 1_555
Na2 O32 2.636275 1_554
Na2 O34 2.650743 1_655
Na3 O6 2.372526 1_555
Na3 O18 2.380416 1_555
Na3 O31 2.472309 1_555
Na3 O33 2.636275 1_555
Na3 O35 2.650743 1_545
Na4 O22 2.252584 1_555
Na4 O7 2.271491 1_455
Na4 O34 2.314878 1_555
Na5 O23 2.252584 1_555
Na5 O6 2.271491 1_565
Na5 O35 2.314878 1_555
Na6 O20 2.252584 1_555
Na6 O5 2.271491 1_655
Na6 O32 2.314878 1_555
Na7 O21 2.252584 1_555
Na7 O4 2.271491 1_545
Na7 O33 2.314878 1_555
Na8 O16 2.438047 1_555
Na8 O17 2.438047 1_555
Na8 O4 2.477762 1_555
Na8 O5 2.477764 1_555
Na8 O20 2.867245 1_455
Na8 O21 2.867245 1_565
Na9 O19 2.438047 1_555
Na9 O18 2.438047 1_555
Na9 O6 2.477764 1_555
Na9 O7 2.477764 1_555
Na9 O23 2.867245 1_545
Na9 O22 2.867245 1_655
Na10 O36 2.378917 1_555
Na10 O37 2.378917 1_555
Na10 O20 2.407118 1_545
Na10 O21 2.407118 1_655
Na11 O38 2.378917 1_555
Na11 O39 2.378917 1_555
Na11 O23 2.407118 1_455
Na11 O22 2.407118 1_565
As0 O4 1.715646 1_555
As0 O8 1.910001 1_555
As0 O12 1.918208 1_455
As1 O5 1.715640 1_555
As1 O9 1.910001 1_555
As1 O13 1.918208 1_565
As2 O6 1.715640 1_555
As2 O10 1.910001 1_555
As2 O14 1.918208 1_655
As3 O7 1.715640 1_555
As3 O11 1.910001 1_555
As3 O15 1.918208 1_545
As4 O16 1.670881 1_555
As4 O20 1.685494 1_555
As4 O12 1.779046 1_555
As4 O24 1.813087 1_555
As5 O17 1.670881 1_555
As5 O21 1.685494 1_555
As5 O13 1.779046 1_555
As5 O25 1.813087 1_555
As6 O18 1.670881 1_555
As6 O22 1.685494 1_555
As6 O14 1.779046 1_555
As6 O26 1.813087 1_555
As7 O19 1.670881 1_555
As7 O23 1.685494 1_555
As7 O15 1.779046 1_555
As7 O27 1.813087 1_555
As8 O32 1.686609 1_555
As8 O36 1.691638 1_555
As8 O24 1.774978 1_555
As8 O28 1.784811 1_555
As9 O33 1.686609 1_555
As9 O37 1.691638 1_555
As9 O25 1.774978 1_555
As9 O29 1.784811 1_555
As10 O34 1.686609 1_555
As10 O38 1.691638 1_555
As10 O26 1.774978 1_555
As10 O30 1.784811 1_555
As11 O35 1.686609 1_555
As11 O39 1.691638 1_555
As11 O27 1.774978 1_555
As11 O31 1.784811 1_555
H0 O2 1.026511 1_655
H0 O37 1.575130 1_555
H1 O3 1.026511 1_545
H1 O36 1.575130 1_555
H2 O0 1.026511 1_455
H2 O39 1.575130 1_555
H3 O1 1.026511 1_565
H3 O38 1.575130 1_555
H4 O28 0.999192 1_555
H5 O29 0.999192 1_555
H6 O30 0.999192 1_555
H7 O31 0.999192 1_555
O0 O10 1.475987 1_555
O1 O11 1.475987 1_555
O2 O8 1.475987 1_555
O3 O9 1.475987 1_555
