# generated using pymatgen
data_InFe17O24
_symmetry_space_group_name_H-M   'P 1'
_cell_length_a   10.47684495
_cell_length_b   10.47684495
_cell_length_c   10.47684495
_cell_angle_alpha   146.71558646
_cell_angle_beta   131.53044118
_cell_angle_gamma   60.06781955
_symmetry_Int_Tables_number   1
_chemical_formula_structural   InFe17O24
_chemical_formula_sum   'In1 Fe17 O24'
_cell_volume   468.15146010
_cell_formula_units_Z   1
loop_
 _symmetry_equiv_pos_site_id
 _symmetry_equiv_pos_as_xyz
  1  'x, y, z'
loop_
 _atom_site_type_symbol
 _atom_site_label
 _atom_site_symmetry_multiplicity
 _atom_site_fract_x
 _atom_site_fract_y
 _atom_site_fract_z
 _atom_site_occupancy
  In  In0  1  0.87025500  0.00000000  0.87025500  1
  Fe  Fe0  1  0.75489600  0.25176800  0.50312900  1
  Fe  Fe1  1  0.92129900  0.41752800  0.50377000  1
  Fe  Fe2  1  0.96497200  0.83518600  0.12978600  1
  Fe  Fe3  1  0.91577900  0.91540400  0.49483500  1
  Fe  Fe4  1  0.91577900  0.42094400  0.00037500  1
  Fe  Fe5  1  0.19993200  0.33440000  0.86553100  1
  Fe  Fe6  1  0.08624200  0.58247200  0.50377000  1
  Fe  Fe7  1  0.25136100  0.74823200  0.50312900  1
  Fe  Fe8  1  0.40711500  0.91552500  0.49158900  1
  Fe  Fe9  1  0.29460000  0.16481400  0.12978600  1
  Fe  Fe10  1  0.25224000  0.25483200  0.50707200  1
  Fe  Fe11  1  0.25224000  0.74516800  0.99740800  1
  Fe  Fe12  1  0.57943100  0.57905600  0.49483500  1
  Fe  Fe13  1  0.57943100  0.08459600  0.00037500  1
  Fe  Fe14  1  0.53113100  0.66560000  0.86553100  1
  Fe  Fe15  1  0.57606400  0.08447500  0.49158900  1
  Fe  Fe16  1  0.63570900  0.50000000  0.13570900  1
  O  O0  1  0.83723100  0.10535900  0.27067700  1
  O  O1  1  0.83723100  0.56655500  0.73187200  1
  O  O2  1  0.98690600  0.25071700  0.73618900  1
  O  O3  1  0.81952900  0.09164900  0.72788000  1
  O  O4  1  0.15133100  0.41907600  0.73225500  1
  O  O5  1  0.18053900  0.92150900  0.25903100  1
  O  O6  1  0.00772800  0.74872100  0.25900600  1
  O  O7  1  0.85696500  0.58326300  0.27370200  1
  O  O8  1  0.16531800  0.89464100  0.73187200  1
  O  O9  1  0.16531800  0.43344500  0.27067700  1
  O  O10  1  0.32645200  0.59798300  0.25936100  1
  O  O11  1  0.01040400  0.71446900  0.72487400  1
  O  O12  1  0.01040400  0.28553100  0.29593500  1
  O  O13  1  0.32645200  0.06709100  0.72846900  1
  O  O14  1  0.31317900  0.58092400  0.73225500  1
  O  O15  1  0.48547200  0.74928300  0.73618900  1
  O  O16  1  0.63623100  0.90835100  0.72788000  1
  O  O17  1  0.33752200  0.07849100  0.25903100  1
  O  O18  1  0.51028500  0.25127900  0.25900600  1
  O  O19  1  0.69043900  0.41673700  0.27370200  1
  O  O20  1  0.49754900  0.23759500  0.73514400  1
  O  O21  1  0.49754900  0.76240500  0.25995300  1
  O  O22  1  0.66137800  0.93290900  0.25936100  1
  O  O23  1  0.66137800  0.40201700  0.72846900  1
loop_
_geom_bond_atom_site_label_1
_geom_bond_atom_site_label_2
_geom_bond_distance
_geom_bond_site_symmetry_2
In0 O3 2.064844 1_555
In0 O16 2.064844 1_545
In0 O12 2.095004 1_656
In0 O11 2.095004 1_645
Fe0 O2 2.004644 1_555
Fe0 O0 2.060966 1_555
Fe0 O1 2.060971 1_555
Fe0 O23 2.079969 1_555
Fe0 O22 2.079973 1_545
Fe0 O18 2.099716 1_555
Fe1 O4 1.965396 1_655
Fe1 O11 1.974301 1_655
Fe1 O12 1.974302 1_655
Fe1 O19 1.978871 1_555
Fe1 O1 2.026085 1_555
Fe1 O0 2.026085 1_555
Fe2 O5 1.920364 1_655
Fe2 O6 1.922346 1_655
Fe2 O0 1.958476 1_565
Fe2 O1 1.958476 1_554
Fe3 O3 2.063188 1_565
Fe3 O6 2.084645 1_655
Fe3 O2 2.133684 1_565
Fe3 O7 2.150368 1_555
Fe3 O22 2.184762 1_555
Fe3 O8 2.185378 1_655
Fe4 O3 2.063188 1_554
Fe4 O6 2.084641 1_655
Fe4 O2 2.133684 1_554
Fe4 O7 2.150368 1_555
Fe4 O23 2.184762 1_554
Fe4 O9 2.185383 1_655
Fe5 O2 1.882030 1_455
Fe5 O4 1.916618 1_555
Fe5 O13 1.938537 1_555
Fe5 O10 1.938542 1_556
Fe6 O14 1.965400 1_555
Fe6 O12 1.974311 1_555
Fe6 O11 1.974320 1_555
Fe6 O7 1.978867 1_455
Fe6 O9 2.026076 1_555
Fe6 O8 2.026081 1_555
Fe7 O15 2.004640 1_555
Fe7 O8 2.060957 1_555
Fe7 O9 2.060966 1_555
Fe7 O10 2.079977 1_555
Fe7 O13 2.079977 1_565
Fe7 O6 2.099716 1_555
Fe8 O5 2.003182 1_555
Fe8 O16 2.036498 1_555
Fe8 O10 2.061054 1_555
Fe8 O13 2.061058 1_565
Fe8 O20 2.093748 1_565
Fe8 O21 2.093753 1_555
Fe9 O17 1.920374 1_555
Fe9 O18 1.922351 1_555
Fe9 O9 1.958471 1_555
Fe9 O8 1.958476 1_544
Fe10 O14 2.085451 1_555
Fe10 O4 2.085451 1_555
Fe10 O12 2.088174 1_555
Fe10 O17 2.090300 1_555
Fe10 O5 2.090304 1_545
Fe10 O20 2.112437 1_555
Fe11 O4 2.085451 1_555
Fe11 O14 2.085451 1_555
Fe11 O11 2.088169 1_555
Fe11 O17 2.090300 1_566
Fe11 O5 2.090308 1_556
Fe11 O21 2.112432 1_556
Fe12 O16 2.063188 1_555
Fe12 O18 2.084636 1_555
Fe12 O15 2.133684 1_555
Fe12 O19 2.150368 1_555
Fe12 O10 2.184762 1_555
Fe12 O1 2.185374 1_555
Fe13 O16 2.063188 1_544
Fe13 O18 2.084636 1_555
Fe13 O15 2.133684 1_544
Fe13 O19 2.150368 1_555
Fe13 O13 2.184762 1_554
Fe13 O0 2.185378 1_555
Fe14 O15 1.882020 1_555
Fe14 O14 1.916623 1_555
Fe14 O22 1.938542 1_556
Fe14 O23 1.938542 1_555
Fe15 O17 2.003175 1_555
Fe15 O3 2.036501 1_555
Fe15 O23 2.061049 1_555
Fe15 O22 2.061049 1_545
Fe15 O21 2.093748 1_545
Fe15 O20 2.093753 1_555
Fe16 O7 1.920941 1_555
Fe16 O19 1.920941 1_555
Fe16 O20 1.972754 1_554
Fe16 O21 1.972755 1_555
