# generated using pymatgen
data_Na3(WO3)4
_symmetry_space_group_name_H-M   'P 1'
_cell_length_a   6.83206675
_cell_length_b   6.83206675
_cell_length_c   11.15127096
_cell_angle_alpha   89.90082117
_cell_angle_beta   89.90082117
_cell_angle_gamma   70.19829304
_symmetry_Int_Tables_number   1
_chemical_formula_structural   Na3(WO3)4
_chemical_formula_sum   'Na6 W8 O24'
_cell_volume   489.73092796
_cell_formula_units_Z   2
loop_
 _symmetry_equiv_pos_site_id
 _symmetry_equiv_pos_as_xyz
  1  'x, y, z'
loop_
 _atom_site_type_symbol
 _atom_site_label
 _atom_site_symmetry_multiplicity
 _atom_site_fract_x
 _atom_site_fract_y
 _atom_site_fract_z
 _atom_site_occupancy
  Na  Na0  1  0.99939600  0.99939600  0.99807700  1
  Na  Na1  1  0.24942300  0.24942300  0.74820300  1
  Na  Na2  1  0.50058400  0.50058400  0.99824500  1
  Na  Na3  1  0.24940000  0.24940000  0.25209400  1
  Na  Na4  1  0.50050000  0.50050000  0.50192600  1
  Na  Na5  1  0.75063300  0.75063300  0.25168700  1
  W  W0  1  0.99884200  0.50105000  0.99805700  1
  W  W1  1  0.24881300  0.75123900  0.74803900  1
  W  W2  1  0.75123900  0.24881300  0.74803900  1
  W  W3  1  0.99873500  0.50139500  0.50218300  1
  W  W4  1  0.50105000  0.99884200  0.99805700  1
  W  W5  1  0.50139500  0.99873500  0.50218300  1
  W  W6  1  0.75083000  0.24883200  0.25205000  1
  W  W7  1  0.24883200  0.75083000  0.25205000  1
  O  O0  1  0.61594300  0.15189700  0.88342100  1
  O  O1  1  0.15189700  0.61594300  0.88342100  1
  O  O2  1  0.13671600  0.59754900  0.62685600  1
  O  O3  1  0.59754900  0.13671600  0.62685600  1
  O  O4  1  0.01110200  0.01110200  0.25012100  1
  O  O5  1  0.50673100  0.50673100  0.75097000  1
  O  O6  1  0.74939200  0.74939200  0.98897800  1
  O  O7  1  0.25244900  0.25244900  0.48743100  1
  O  O8  1  0.36457000  0.90066900  0.87321000  1
  O  O9  1  0.90066900  0.36457000  0.87321000  1
  O  O10  1  0.11709700  0.64122800  0.37995000  1
  O  O11  1  0.35799400  0.88350100  0.61749700  1
  O  O12  1  0.64122800  0.11709700  0.37995000  1
  O  O13  1  0.88350100  0.35799400  0.61749700  1
  O  O14  1  0.09933900  0.62995400  0.12958500  1
  O  O15  1  0.62995400  0.09933900  0.12958500  1
  O  O16  1  0.48705600  0.48705600  0.24817600  1
  O  O17  1  0.74800000  0.74800000  0.51007800  1
  O  O18  1  0.99512600  0.99512600  0.74979000  1
  O  O19  1  0.25024800  0.25024800  0.01453700  1
  O  O20  1  0.40233700  0.86897200  0.37011200  1
  O  O21  1  0.86897200  0.40233700  0.37011200  1
  O  O22  1  0.84907600  0.38338500  0.11888600  1
  O  O23  1  0.38338500  0.84907600  0.11888600  1
loop_
_geom_bond_atom_site_label_1
_geom_bond_atom_site_label_2
_geom_bond_distance
_geom_bond_site_symmetry_2
Na0 O9 2.733013 1_565
Na0 O8 2.733013 1_655
Na0 O18 2.769228 1_555
Na0 O0 2.782289 1_565
Na0 O1 2.782289 1_655
Na0 O15 2.794744 1_566
Na0 O14 2.794744 1_656
Na0 O6 2.796956 1_555
Na0 O19 2.810769 1_666
Na0 O4 2.813933 1_666
Na0 O22 2.816740 1_566
Na0 O23 2.816740 1_656
Na1 O2 2.613906 1_555
Na1 O3 2.613906 1_555
Na1 O8 2.638501 1_545
Na1 O9 2.638501 1_455
Na1 O13 2.770757 1_455
Na1 O11 2.770757 1_545
Na1 O0 2.804850 1_555
Na1 O1 2.804850 1_555
Na1 O18 2.842912 1_445
Na1 O5 2.876786 1_555
Na1 O7 2.908064 1_555
Na1 O19 2.969996 1_556
Na2 O0 2.582784 1_555
Na2 O1 2.582784 1_555
Na2 O23 2.614469 1_556
Na2 O22 2.614469 1_556
Na2 O5 2.758141 1_555
Na2 O6 2.783231 1_555
Na2 O16 2.790829 1_556
Na2 O19 2.804119 1_556
Na2 O8 2.923942 1_555
Na2 O9 2.923942 1_555
Na2 O14 2.964817 1_556
Na2 O15 2.964817 1_556
Na3 O7 2.624600 1_555
Na3 O19 2.649059 1_555
Na3 O16 2.657124 1_555
Na3 O4 2.664172 1_555
Na3 O21 2.780654 1_455
Na3 O20 2.780654 1_545
Na3 O14 2.804247 1_555
Na3 O15 2.804247 1_555
Na3 O10 2.895760 1_555
Na3 O12 2.895760 1_555
Na3 O23 2.972874 1_545
Na3 O22 2.972874 1_455
Na4 O2 2.726228 1_555
Na4 O3 2.726228 1_555
Na4 O17 2.768593 1_555
Na4 O7 2.778115 1_555
Na4 O5 2.778178 1_555
Na4 O13 2.781567 1_555
Na4 O11 2.781567 1_555
Na4 O20 2.791864 1_555
Na4 O21 2.791864 1_555
Na4 O10 2.817341 1_555
Na4 O12 2.817341 1_555
Na4 O16 2.833941 1_555
Na5 O20 2.597952 1_555
Na5 O21 2.597952 1_555
Na5 O15 2.621312 1_565
Na5 O14 2.621312 1_655
Na5 O12 2.759300 1_565
Na5 O10 2.759300 1_655
Na5 O22 2.794079 1_555
Na5 O23 2.794079 1_555
Na5 O17 2.881476 1_555
Na5 O4 2.911909 1_665
Na5 O6 2.929601 1_554
Na5 O16 2.946982 1_555
O0 W4 1.972760 1_545
O0 W2 1.994587 1_555
O1 W0 1.972760 1_455
O1 W1 1.994587 1_555
O2 W3 1.918423 1_455
O2 W1 2.017064 1_555
O3 W5 1.918423 1_545
O3 W2 2.017064 1_555
O4 W7 1.960515 1_545
O4 W6 1.960515 1_455
O5 W2 1.975422 1_555
O5 W1 1.975422 1_555
O6 W0 1.958151 1_555
O6 W4 1.958151 1_555
O7 W5 1.981660 1_545
O7 W3 1.981660 1_455
O8 W4 1.920679 1_555
O8 W1 2.042504 1_555
O9 W0 1.920679 1_555
O9 W2 2.042504 1_555
O10 W7 1.963011 1_555
O10 W3 1.984851 1_455
O11 W5 1.935961 1_555
O11 W1 1.985046 1_555
O12 W6 1.963011 1_555
O12 W5 1.984851 1_545
O13 W3 1.935961 1_555
O13 W2 1.985046 1_555
O14 W0 1.953430 1_454
O14 W7 2.042138 1_555
O15 W4 1.953430 1_544
O15 W6 2.042138 1_555
O16 W7 1.977688 1_555
O16 W6 1.977688 1_555
O17 W5 1.955863 1_555
O17 W3 1.955863 1_555
O18 W2 1.955529 1_565
O18 W1 1.955529 1_655
O19 W0 1.981414 1_454
O19 W4 1.981414 1_544
O20 W5 1.956398 1_555
O20 W7 2.016597 1_555
O21 W3 1.956398 1_555
O21 W6 2.016597 1_555
O22 W6 1.977515 1_555
O22 W0 2.014317 1_554
O23 W7 1.977515 1_555
O23 W4 2.014317 1_554
