# generated using pymatgen
data_Li3V4(OF3)3
_symmetry_space_group_name_H-M   'P 1'
_cell_length_a   5.23375100
_cell_length_b   5.54304875
_cell_length_c   17.25089738
_cell_angle_alpha   87.55550781
_cell_angle_beta   98.10060489
_cell_angle_gamma   117.83985523
_symmetry_Int_Tables_number   1
_chemical_formula_structural   Li3V4(OF3)3
_chemical_formula_sum   'Li6 V8 O6 F18'
_cell_volume   437.97022701
_cell_formula_units_Z   2
loop_
 _symmetry_equiv_pos_site_id
 _symmetry_equiv_pos_as_xyz
  1  'x, y, z'
loop_
 _atom_site_type_symbol
 _atom_site_label
 _atom_site_symmetry_multiplicity
 _atom_site_fract_x
 _atom_site_fract_y
 _atom_site_fract_z
 _atom_site_occupancy
  Li  Li0  1  0.32107500  0.10619200  0.55346200  1
  Li  Li1  1  0.17513000  0.16364400  0.19727500  1
  Li  Li2  1  0.20151300  0.67695200  0.70277800  1
  Li  Li3  1  0.95197400  0.56120200  0.32380700  1
  Li  Li4  1  0.91217000  0.04015100  0.82494900  1
  Li  Li5  1  0.41684700  0.77791900  0.07048500  1
  V  V0  1  0.49980300  0.21963600  0.74948200  1
  V  V1  1  0.22246800  0.10003200  0.37497100  1
  V  V2  1  0.25954000  0.62917600  0.87582800  1
  V  V3  1  0.00843400  0.03648200  0.99485100  1
  V  V4  1  0.99358900  0.51502400  0.49813600  1
  V  V5  1  0.74189100  0.40419400  0.12668300  1
  V  V6  1  0.54171300  0.75989500  0.25067500  1
  V  V7  1  0.72593900  0.88109400  0.62714500  1
  O  O0  1  0.53965100  0.07656600  0.65315700  1
  O  O1  1  0.48429600  0.92400600  0.80896900  1
  O  O2  1  0.03686700  0.81647500  0.44101900  1
  O  O3  1  0.04476300  0.32237200  0.93393300  1
  O  O4  1  0.94504700  0.96226300  0.28143300  1
  O  O5  1  0.53770800  0.57739500  0.15620300  1
  F  F0  1  0.47802800  0.54662300  0.68543600  1
  F  F1  1  0.43171300  0.70784700  0.53358900  1
  F  F2  1  0.43396900  0.40585300  0.83590500  1
  F  F3  1  0.92817400  0.15574400  0.09706600  1
  F  F4  1  0.06758100  0.52332800  0.22232100  1
  F  F5  1  0.56271500  0.79691700  0.97314700  1
  F  F6  1  0.03947100  0.34082900  0.40340300  1
  F  F7  1  0.03993500  0.00302900  0.72355800  1
  F  F8  1  0.00949200  0.70203500  0.06435300  1
  F  F9  1  0.00083700  0.18730500  0.56245400  1
  F  F10  1  0.49343500  0.06346800  0.18328800  1
  F  F11  1  0.44127300  0.19598400  0.03510500  1
  F  F12  1  0.94930900  0.45154600  0.77743500  1
  F  F13  1  0.95251300  0.67287700  0.59916000  1
  F  F14  1  0.04498000  0.84129100  0.90449600  1
  F  F15  1  0.55236900  0.28936100  0.47153100  1
  F  F16  1  0.51486700  0.42099000  0.31310700  1
  F  F17  1  0.40664000  0.87445700  0.33820600  1
loop_
_geom_bond_atom_site_label_1
_geom_bond_atom_site_label_2
_geom_bond_distance
_geom_bond_site_symmetry_2
Li0 O0 1.972397 1_555
Li0 O2 2.403250 1_545
Li1 O4 1.975558 1_445
Li1 O5 2.353367 1_555
Li2 O1 2.231255 1_555
Li2 O0 2.318422 1_565
Li3 O4 2.325301 1_555
Li3 O2 2.385752 1_655
Li4 O1 1.999979 1_545
Li4 O3 2.309268 1_655
Li5 O5 2.018678 1_555
O0 V7 1.864782 1_545
O0 V0 1.948895 1_555
O1 V0 1.871042 1_565
O1 V2 1.952136 1_555
O2 V4 1.839350 1_455
O2 V1 1.856173 1_565
O3 V3 1.812355 1_555
O3 V2 1.883371 1_555
O4 V6 1.876005 1_555
O4 V1 1.924657 1_665
O5 V5 1.864504 1_555
O5 V6 1.947049 1_555
F0 Li2 1.955187 1_555
F0 V7 2.023324 1_555
F0 V0 2.122611 1_555
F1 V7 1.987175 1_555
F1 V4 2.036138 1_455
F2 V0 2.003775 1_555
F2 V2 2.036059 1_555
F2 Li4 2.513894 1_455
F3 Li1 1.996191 1_655
F3 V3 2.071291 1_654
F3 V5 2.136038 1_555
F3 Li5 2.501894 1_545
F4 Li3 1.980841 1_455
F4 V5 2.076696 1_455
F4 V6 2.188598 1_555
F4 Li1 2.380914 1_555
F5 Li5 1.919541 1_556
F5 V2 2.050660 1_555
F5 V3 2.061160 1_665
F6 Li3 1.946652 1_455
F6 V4 2.030386 1_455
F6 V1 2.078862 1_555
F7 Li4 2.009384 1_455
F7 V7 2.052301 1_445
F7 V0 2.116086 1_555
F7 Li2 2.383040 1_545
F8 Li5 1.958612 1_555
F8 V5 1.989141 1_455
F8 V3 2.166208 1_564
F9 Li0 1.954074 1_555
F9 V7 2.050953 1_445
F9 V4 2.100712 1_455
F10 V5 2.029329 1_555
F10 Li1 2.032387 1_555
F10 V6 2.096245 1_545
F10 Li5 2.429615 1_545
F11 V5 2.015503 1_555
F11 V3 2.033259 1_554
F11 Li5 2.320265 1_545
F12 Li2 1.939990 1_655
F12 V0 2.080446 1_555
F12 V2 2.087945 1_655
F12 Li4 2.319747 1_555
F13 Li2 2.052673 1_655
F13 V4 2.064066 1_555
F13 V7 2.111520 1_555
F13 Li0 2.459894 1_665
F14 Li4 1.974607 1_465
F14 V3 2.014433 1_565
F14 V2 2.080223 1_555
F15 Li0 1.925026 1_555
F15 V4 2.039669 1_555
F15 V1 2.122128 1_555
F16 Li3 2.025904 1_555
F16 V6 2.081401 1_555
F16 V1 2.097955 1_555
F16 Li1 2.462135 1_555
F17 V6 1.996248 1_555
F17 V1 2.064085 1_565
F17 Li3 2.179509 1_455
