# generated using pymatgen
data_Dy2Bi2O7
_symmetry_space_group_name_H-M   'P 1'
_cell_length_a   7.72306410
_cell_length_b   7.72306410
_cell_length_c   7.72306410
_cell_angle_alpha   60.00000000
_cell_angle_beta   60.00000000
_cell_angle_gamma   60.00000000
_symmetry_Int_Tables_number   1
_chemical_formula_structural   Dy2Bi2O7
_chemical_formula_sum   'Dy4 Bi4 O14'
_cell_volume   325.72712138
_cell_formula_units_Z   2
loop_
 _symmetry_equiv_pos_site_id
 _symmetry_equiv_pos_as_xyz
  1  'x, y, z'
loop_
 _atom_site_type_symbol
 _atom_site_label
 _atom_site_symmetry_multiplicity
 _atom_site_fract_x
 _atom_site_fract_y
 _atom_site_fract_z
 _atom_site_occupancy
  Dy  Dy0  1  0.12500000  0.62500000  0.12500000  1
  Dy  Dy1  1  0.12500000  0.12500000  0.62500000  1
  Dy  Dy2  1  0.62500000  0.12500000  0.12500000  1
  Dy  Dy3  1  0.12500000  0.12500000  0.12500000  1
  Bi  Bi0  1  0.62500000  0.62500000  0.62500000  1
  Bi  Bi1  1  0.12500000  0.62500000  0.62500000  1
  Bi  Bi2  1  0.62500000  0.12500000  0.62500000  1
  Bi  Bi3  1  0.62500000  0.62500000  0.12500000  1
  O  O0  1  0.27189100  0.72810900  0.72810900  1
  O  O1  1  0.52189100  0.97810900  0.97810900  1
  O  O2  1  0.72810900  0.27189100  0.72810900  1
  O  O3  1  0.27189100  0.27189100  0.72810900  1
  O  O4  1  0.72810900  0.72810900  0.27189100  1
  O  O5  1  0.00000000  0.00000000  0.00000000  1
  O  O6  1  0.27189100  0.72810900  0.27189100  1
  O  O7  1  0.97810900  0.52189100  0.97810900  1
  O  O8  1  0.97810900  0.97810900  0.52189100  1
  O  O9  1  0.52189100  0.52189100  0.97810900  1
  O  O10  1  0.25000000  0.25000000  0.25000000  1
  O  O11  1  0.52189100  0.97810900  0.52189100  1
  O  O12  1  0.72810900  0.27189100  0.27189100  1
  O  O13  1  0.97810900  0.52189100  0.52189100  1
loop_
_geom_bond_atom_site_label_1
_geom_bond_atom_site_label_2
_geom_bond_distance
_geom_bond_site_symmetry_2
Dy0 O10 2.364696 1_555
Dy0 O5 2.364696 1_565
Dy0 O7 2.510340 1_454
Dy0 O0 2.510340 1_554
Dy0 O6 2.510340 1_555
Dy0 O13 2.510340 1_455
Dy0 O4 2.510340 1_455
Dy0 O9 2.510340 1_554
Dy1 O5 2.364696 1_556
Dy1 O10 2.364696 1_555
Dy1 O8 2.510340 1_445
Dy1 O3 2.510340 1_555
Dy1 O11 2.510340 1_545
Dy1 O13 2.510340 1_455
Dy1 O2 2.510340 1_455
Dy1 O0 2.510340 1_545
Dy2 O10 2.364696 1_555
Dy2 O5 2.364696 1_655
Dy2 O1 2.510340 1_544
Dy2 O11 2.510340 1_545
Dy2 O12 2.510340 1_555
Dy2 O2 2.510340 1_554
Dy2 O9 2.510340 1_554
Dy2 O4 2.510340 1_545
Dy3 O5 2.364696 1_555
Dy3 O10 2.364696 1_555
Dy3 O8 2.510340 1_445
Dy3 O7 2.510340 1_454
Dy3 O3 2.510340 1_554
Dy3 O6 2.510340 1_545
Dy3 O12 2.510340 1_455
Dy3 O1 2.510340 1_544
Bi0 O11 2.235196 1_555
Bi0 O9 2.235196 1_555
Bi0 O0 2.235196 1_555
Bi0 O4 2.235196 1_555
Bi0 O13 2.235196 1_555
Bi0 O2 2.235196 1_555
Bi1 O3 2.235196 1_555
Bi1 O6 2.235196 1_555
Bi1 O13 2.235196 1_455
Bi1 O0 2.235196 1_555
Bi1 O7 2.235196 1_455
Bi1 O8 2.235196 1_455
Bi2 O1 2.235196 1_545
Bi2 O12 2.235196 1_555
Bi2 O3 2.235196 1_555
Bi2 O11 2.235196 1_545
Bi2 O8 2.235196 1_545
Bi2 O2 2.235196 1_555
Bi3 O12 2.235196 1_555
Bi3 O6 2.235196 1_555
Bi3 O4 2.235196 1_555
Bi3 O7 2.235196 1_554
Bi3 O1 2.235196 1_554
Bi3 O9 2.235196 1_554
