# generated using pymatgen
data_Mg3Mn4O7
_symmetry_space_group_name_H-M   'P 1'
_cell_length_a   11.27392219
_cell_length_b   11.27392219
_cell_length_c   11.27392219
_cell_angle_alpha   164.09260560
_cell_angle_beta   157.43200264
_cell_angle_gamma   27.73239447
_symmetry_Int_Tables_number   1
_chemical_formula_structural   Mg3Mn4O7
_chemical_formula_sum   'Mg3 Mn4 O7'
_cell_volume   150.66792067
_cell_formula_units_Z   1
loop_
 _symmetry_equiv_pos_site_id
 _symmetry_equiv_pos_as_xyz
  1  'x, y, z'
loop_
 _atom_site_type_symbol
 _atom_site_label
 _atom_site_symmetry_multiplicity
 _atom_site_fract_x
 _atom_site_fract_y
 _atom_site_fract_z
 _atom_site_occupancy
  Mg  Mg0  1  0.00000000  0.00000000  0.00000000  1
  Mg  Mg1  1  0.14112000  0.14112000  0.00000000  1
  Mg  Mg2  1  0.85888000  0.85888000  0.00000000  1
  Mn  Mn0  1  0.71419100  0.71419100  0.00000000  1
  Mn  Mn1  1  0.57112300  0.57112300  0.00000000  1
  Mn  Mn2  1  0.42887700  0.42887700  0.00000000  1
  Mn  Mn3  1  0.28580900  0.28580900  0.00000000  1
  O  O0  1  0.07015500  0.57015500  0.50000000  1
  O  O1  1  0.92984500  0.42984500  0.50000000  1
  O  O2  1  0.79095300  0.29095300  0.50000000  1
  O  O3  1  0.20904700  0.70904700  0.50000000  1
  O  O4  1  0.50000000  0.00000000  0.50000000  1
  O  O5  1  0.64282300  0.14282300  0.50000000  1
  O  O6  1  0.35717700  0.85717700  0.50000000  1
loop_
_geom_bond_atom_site_label_1
_geom_bond_atom_site_label_2
_geom_bond_distance
_geom_bond_site_symmetry_2
Mg0 O0 2.189093 1_544
Mg0 O0 2.189093 1_555
Mg0 O1 2.189093 1_444
Mg0 O1 2.189093 1_455
Mg0 O4 2.205994 1_454
Mg0 O4 2.205994 1_555
Mg1 O3 2.155157 1_544
Mg1 O3 2.155157 1_555
Mg1 O0 2.201569 1_555
Mg1 O0 2.201569 1_544
Mg1 O5 2.206309 1_555
Mg1 O5 2.206309 1_454
Mg2 O2 2.155157 1_565
Mg2 O2 2.155157 1_554
Mg2 O1 2.201569 1_554
Mg2 O1 2.201569 1_565
Mg2 O6 2.206309 1_655
Mg2 O6 2.206309 1_554
Mn0 O5 2.207803 1_554
Mn0 O5 2.207803 1_565
Mn0 O3 2.208866 1_655
Mn0 O3 2.208866 1_554
Mn0 O2 2.292877 1_565
Mn0 O2 2.292877 1_554
Mn1 O4 2.204011 1_554
Mn1 O4 2.204011 1_565
Mn1 O0 2.206096 1_554
Mn1 O0 2.206096 1_655
Mn1 O5 2.212951 1_554
Mn1 O5 2.212951 1_565
Mn2 O4 2.204011 1_554
Mn2 O4 2.204011 1_565
Mn2 O1 2.206096 1_555
Mn2 O1 2.206096 1_454
Mn2 O6 2.212951 1_544
Mn2 O6 2.212951 1_555
Mn3 O6 2.207803 1_544
Mn3 O6 2.207803 1_555
Mn3 O2 2.208866 1_454
Mn3 O2 2.208866 1_555
Mn3 O3 2.292877 1_544
Mn3 O3 2.292877 1_555
