# generated using pymatgen
data_Li4Ti2Fe4(CoO6)3
_symmetry_space_group_name_H-M   'P 1'
_cell_length_a   8.79639320
_cell_length_b   25.32644894
_cell_length_c   2.91219070
_cell_angle_alpha   90.07742668
_cell_angle_beta   89.98882977
_cell_angle_gamma   90.09502462
_symmetry_Int_Tables_number   1
_chemical_formula_structural   Li4Ti2Fe4(CoO6)3
_chemical_formula_sum   'Li8 Ti4 Fe8 Co6 O36'
_cell_volume   648.78043354
_cell_formula_units_Z   2
loop_
 _symmetry_equiv_pos_site_id
 _symmetry_equiv_pos_as_xyz
  1  'x, y, z'
loop_
 _atom_site_type_symbol
 _atom_site_label
 _atom_site_symmetry_multiplicity
 _atom_site_fract_x
 _atom_site_fract_y
 _atom_site_fract_z
 _atom_site_occupancy
  Li  Li0  1  0.19442800  0.98701200  0.99995300  1
  Li  Li1  1  0.18813700  0.20547600  0.00006500  1
  Li  Li2  1  0.31134500  0.70609300  0.00006500  1
  Li  Li3  1  0.30395100  0.48607300  0.99988600  1
  Li  Li4  1  0.69593900  0.51333400  0.00010900  1
  Li  Li5  1  0.68942200  0.29370100  0.99997900  1
  Li  Li6  1  0.81091100  0.79346100  0.99986600  1
  Li  Li7  1  0.80554000  0.01428900  0.00004600  1
  Ti  Ti0  1  0.99880900  0.10487900  0.00028900  1
  Ti  Ti1  1  0.50074800  0.60443800  0.00138000  1
  Ti  Ti2  1  0.49982300  0.39557100  0.99985800  1
  Ti  Ti3  1  0.00100600  0.89520700  0.99943800  1
  Fe  Fe0  1  0.02275000  0.30421700  0.99991400  1
  Fe  Fe1  1  0.13664700  0.58815700  0.50030300  1
  Fe  Fe2  1  0.36228000  0.08800700  0.50017000  1
  Fe  Fe3  1  0.47470900  0.80484000  0.99875000  1
  Fe  Fe4  1  0.52557900  0.19549200  0.00007500  1
  Fe  Fe5  1  0.63739000  0.91193500  0.49974900  1
  Fe  Fe6  1  0.86352800  0.41190400  0.49979400  1
  Fe  Fe7  1  0.97608200  0.69584700  0.99987900  1
  Co  Co0  1  0.00005100  0.50012300  0.00001600  1
  Co  Co1  1  0.14751200  0.80455200  0.49738400  1
  Co  Co2  1  0.35266900  0.30436800  0.49977300  1
  Co  Co3  1  0.49983500  0.99989800  0.99997200  1
  Co  Co4  1  0.64643400  0.69580100  0.50184800  1
  Co  Co5  1  0.85288500  0.19540900  0.50094300  1
  O  O0  1  0.00879800  0.42759400  0.99982900  1
  O  O1  1  0.99117500  0.57248500  0.00020900  1
  O  O2  1  0.06605500  0.93889400  0.50018600  1
  O  O3  1  0.04443000  0.16097700  0.49986100  1
  O  O4  1  0.09780100  0.66462100  0.50004700  1
  O  O5  1  0.09696100  0.76056500  0.00275300  1
  O  O6  1  0.14298200  0.50588100  0.49997200  1
  O  O7  1  0.15864100  0.27642000  0.49977900  1
  O  O8  1  0.19938000  0.84980600  0.99686500  1
  O  O9  1  0.20281600  0.08605600  0.99996800  1
  O  O10  1  0.29661900  0.58629900  0.00026900  1
  O  O11  1  0.30212300  0.34929700  0.00000300  1
  O  O12  1  0.34175100  0.77572700  0.50012500  1
  O  O13  1  0.35680500  0.00564800  0.49989900  1
  O  O14  1  0.40268700  0.25995900  0.99993200  1
  O  O15  1  0.40462600  0.16446800  0.49976700  1
  O  O16  1  0.45731500  0.66043900  0.50014100  1
  O  O17  1  0.43355800  0.43897500  0.50052400  1
  O  O18  1  0.50715200  0.07224300  0.00018700  1
  O  O19  1  0.49208700  0.92749500  0.99973900  1
  O  O20  1  0.56654400  0.56093000  0.50041900  1
  O  O21  1  0.54229400  0.33937400  0.50004300  1
  O  O22  1  0.59662800  0.83546000  0.49925800  1
  O  O23  1  0.59595800  0.74024400  0.99796800  1
  O  O24  1  0.64321700  0.99427400  0.50007500  1
  O  O25  1  0.65854000  0.22448000  0.49986700  1
  O  O26  1  0.69776900  0.65080700  0.00318200  1
  O  O27  1  0.70307000  0.41375400  0.00003100  1
  O  O28  1  0.79691900  0.91361200  0.99995200  1
  O  O29  1  0.80137500  0.15006000  0.00095200  1
  O  O30  1  0.84201200  0.72396900  0.49953200  1
  O  O31  1  0.85711400  0.49418100  0.50004600  1
  O  O32  1  0.90361700  0.23941900  0.99900800  1
  O  O33  1  0.90241300  0.33528600  0.50009900  1
  O  O34  1  0.95643800  0.83909100  0.50044600  1
  O  O35  1  0.93392100  0.06113000  0.49956100  1
loop_
_geom_bond_atom_site_label_1
_geom_bond_atom_site_label_2
_geom_bond_distance
_geom_bond_site_symmetry_2
Li0 O13 2.092695 1_566
Li0 O13 2.093414 1_565
Li0 O2 2.206759 1_555
Li0 O2 2.209535 1_556
Li0 O9 2.509395 1_565
Li1 O3 2.231947 1_554
Li1 O3 2.232838 1_555
Li1 O7 2.325464 1_555
Li1 O7 2.329608 1_554
Li1 O14 2.336055 1_554
Li2 O16 2.259384 1_554
Li2 O16 2.262005 1_555
Li2 O12 2.300897 1_555
Li2 O12 2.303624 1_554
Li2 O5 2.338411 1_555
Li3 O6 2.092151 1_556
Li3 O6 2.093130 1_555
Li3 O17 2.199223 1_555
Li3 O17 2.204107 1_556
Li3 O10 2.539294 1_556
Li4 O31 2.089415 1_554
Li4 O31 2.090458 1_555
Li4 O20 2.206944 1_555
Li4 O20 2.208195 1_554
Li4 O27 2.522891 1_555
Li5 O21 2.265704 1_556
Li5 O21 2.267797 1_555
Li5 O25 2.293484 1_555
Li5 O25 2.296009 1_556
Li5 O32 2.334219 1_555
Li5 O33 2.594424 1_556
Li5 O33 2.595219 1_555
Li6 O34 2.255751 1_555
Li6 O34 2.256238 1_556
Li6 O30 2.299989 1_555
Li6 O30 2.301836 1_556
Li6 O23 2.320191 1_555
Li7 O24 2.100503 1_544
Li7 O24 2.101184 1_545
Li7 O35 2.188670 1_555
Li7 O35 2.192386 1_554
Li7 O28 2.550792 1_544
Fe0 O32 1.945685 1_455
Fe0 O33 1.964815 1_456
Fe0 O33 1.965898 1_455
Fe0 O7 2.011263 1_555
Fe0 O7 2.012408 1_556
Fe1 O4 1.967036 1_555
Fe1 O1 1.978253 1_455
Fe1 O1 1.978272 1_456
Fe1 O10 2.025364 1_555
Fe1 O10 2.025707 1_556
Fe1 O6 2.084595 1_555
Fe2 O15 1.971381 1_555
Fe2 O18 1.975558 1_555
Fe2 O18 1.976792 1_556
Fe2 O9 2.021806 1_555
Fe2 O9 2.022951 1_554
Fe2 O13 2.086336 1_555
Fe3 O23 1.954424 1_555
Fe3 O22 1.966501 1_555
Fe3 O22 1.967449 1_556
Fe3 O12 2.003741 1_555
Fe3 O12 2.010666 1_556
Fe4 O14 1.959644 1_554
Fe4 O15 1.966386 1_555
Fe4 O15 1.966449 1_554
Fe4 O25 2.005065 1_555
Fe4 O25 2.007053 1_554
Fe5 O22 1.969164 1_555
Fe5 O19 1.976985 1_555
Fe5 O19 1.978179 1_554
Fe5 O28 2.022044 1_554
Fe5 O28 2.023207 1_555
Fe5 O24 2.085898 1_555
Fe6 O33 1.970938 1_555
Fe6 O0 1.977068 1_655
Fe6 O0 1.977342 1_654
Fe6 O27 2.028250 1_555
Fe6 O27 2.028755 1_556
Fe6 O31 2.084641 1_555
Fe7 O5 1.952290 1_656
Fe7 O4 1.972229 1_655
Fe7 O4 1.974836 1_656
Fe7 O30 2.003668 1_556
Fe7 O30 2.006867 1_555
Co0 O1 1.834464 1_455
Co0 O0 1.838640 1_554
Co0 O6 1.929089 1_555
Co0 O6 1.929210 1_554
Co0 O31 1.929502 1_454
Co0 O31 1.929571 1_455
Co1 O12 1.859165 1_555
Co1 O5 1.872964 1_555
Co1 O34 1.896069 1_455
Co1 O5 1.899296 1_556
Co1 O8 1.905675 1_555
Co1 O8 1.910210 1_554
Co2 O7 1.846616 1_555
Co2 O21 1.887695 1_555
Co2 O14 1.890612 1_554
Co2 O14 1.893796 1_555
Co2 O11 1.900420 1_556
Co2 O11 1.901883 1_555
Co3 O18 1.833265 1_566
Co3 O19 1.834863 1_555
Co3 O13 1.929523 1_566
Co3 O13 1.930511 1_565
Co3 O24 1.931239 1_555
Co3 O24 1.932352 1_556
Co4 O30 1.861351 1_555
Co4 O23 1.883754 1_555
Co4 O16 1.888018 1_555
Co4 O26 1.899566 1_555
Co4 O23 1.903603 1_554
Co4 O26 1.907999 1_556
Co5 O25 1.862469 1_555
Co5 O32 1.881379 1_555
Co5 O32 1.892267 1_554
Co5 O3 1.898482 1_655
Co5 O29 1.907503 1_555
Co5 O29 1.909777 1_556
O2 Ti3 1.915048 1_555
O2 Ti3 1.916256 1_554
O3 Ti0 2.070977 1_455
O3 Ti0 2.075315 1_456
O8 Ti3 2.091356 1_555
O9 Ti0 1.857531 1_456
O10 Ti1 1.852699 1_555
O11 Ti2 2.095473 1_554
O16 Ti1 2.064774 1_555
O16 Ti1 2.072656 1_556
O17 Ti2 1.915595 1_555
O17 Ti2 1.916112 1_554
O20 Ti1 1.915204 1_555
O20 Ti1 1.917023 1_556
O21 Ti2 2.068784 1_555
O21 Ti2 2.072349 1_554
O26 Ti1 2.091874 1_555
O27 Ti2 1.845457 1_554
O28 Ti3 1.855506 1_655
O29 Ti0 2.081371 1_555
O34 Ti3 2.068338 1_655
O34 Ti3 2.075057 1_654
O35 Ti0 1.915580 1_555
O35 Ti0 1.916695 1_556
