# generated using pymatgen
data_Li3Sb3(PO4)4
_symmetry_space_group_name_H-M   'P 1'
_cell_length_a   8.97708600
_cell_length_b   9.10816248
_cell_length_c   13.37540625
_cell_angle_alpha   89.14518273
_cell_angle_beta   89.70399733
_cell_angle_gamma   88.62216356
_symmetry_Int_Tables_number   1
_chemical_formula_structural   Li3Sb3(PO4)4
_chemical_formula_sum   'Li9 Sb9 P12 O48'
_cell_volume   1093.18632489
_cell_formula_units_Z   3
loop_
 _symmetry_equiv_pos_site_id
 _symmetry_equiv_pos_as_xyz
  1  'x, y, z'
loop_
 _atom_site_type_symbol
 _atom_site_label
 _atom_site_symmetry_multiplicity
 _atom_site_fract_x
 _atom_site_fract_y
 _atom_site_fract_z
 _atom_site_occupancy
  Li  Li0  1  0.64788300  0.46859200  0.16439000  1
  Li  Li1  1  0.01320400  0.53018000  0.50699300  1
  Li  Li2  1  0.56012000  0.16033300  0.17350300  1
  Li  Li3  1  0.93855700  0.66942200  0.82538600  1
  Li  Li4  1  0.18534100  0.00290700  0.16528600  1
  Li  Li5  1  0.47423100  0.99304900  0.50351500  1
  Li  Li6  1  0.84221700  0.96799000  0.83396300  1
  Li  Li7  1  0.10557400  0.82932300  0.49322700  1
  Li  Li8  1  0.30540400  0.50595100  0.83109800  1
  Sb  Sb0  1  0.79011500  0.84314600  0.13503600  1
  Sb  Sb1  1  0.87243900  0.14594400  0.52978500  1
  Sb  Sb2  1  0.29910000  0.66036900  0.13736200  1
  Sb  Sb3  1  0.63464800  0.66987800  0.47180800  1
  Sb  Sb4  1  0.04083300  0.33610600  0.19890300  1
  Sb  Sb5  1  0.37163200  0.34180000  0.52590400  1
  Sb  Sb6  1  0.71625900  0.35297800  0.86424200  1
  Sb  Sb7  1  0.46311600  0.82940800  0.79782400  1
  Sb  Sb8  1  0.20289900  0.16151100  0.86734500  1
  P  P0  1  0.85312300  0.20245700  0.05696700  1
  P  P1  1  0.99422600  0.72330900  0.28092300  1
  P  P2  1  0.35305800  0.29485400  0.05990900  1
  P  P3  1  0.67811000  0.27623600  0.38401900  1
  P  P4  1  0.48989400  0.80384100  0.27792100  1
  P  P5  1  0.81820700  0.79845500  0.61526900  1
  P  P6  1  0.17793400  0.19559500  0.38975500  1
  P  P7  1  0.50889900  0.21350600  0.72308800  1
  P  P8  1  0.31627100  0.70198700  0.60528800  1
  P  P9  1  0.65198500  0.69489600  0.94840600  1
  P  P10  1  0.01428400  0.30316200  0.71937700  1
  P  P11  1  0.15001900  0.79433400  0.93638700  1
  O  O0  1  0.00052600  0.88276600  0.23972600  1
  O  O1  1  0.83352800  0.36487300  0.08931900  1
  O  O2  1  0.73464100  0.09981400  0.09785400  1
  O  O3  1  0.64182800  0.67420400  0.06407300  1
  O  O4  1  0.83870900  0.66878900  0.24151500  1
  O  O5  1  0.49504800  0.36874300  0.08989100  1
  O  O6  1  0.83229200  0.33099700  0.42222500  1
  O  O7  1  0.65261200  0.29371400  0.27314300  1
  O  O8  1  0.61044900  0.90079800  0.22316500  1
  O  O9  1  0.01773200  0.33732500  0.60702500  1
  O  O10  1  0.92844100  0.90192000  0.56053400  1
  O  O11  1  0.50859700  0.63810000  0.26145600  1
  O  O12  1  0.34653600  0.13441300  0.09112700  1
  O  O13  1  0.83253100  0.63758800  0.57528600  1
  O  O14  1  0.67561900  0.11514900  0.42651800  1
  O  O15  1  0.21575500  0.38874200  0.11019300  1
  O  O16  1  0.17604300  0.81575800  0.05274400  1
  O  O17  1  0.55644700  0.37704300  0.44235100  1
  O  O18  1  0.49202600  0.84136700  0.39027600  1
  O  O19  1  0.88618900  0.40058900  0.77009600  1
  O  O20  1  0.33613000  0.84828000  0.22728900  1
  O  O21  1  0.82624600  0.80720700  0.72799900  1
  O  O22  1  0.65571000  0.84374500  0.57140600  1
  O  O23  1  0.00501700  0.87091200  0.90698000  1
  O  O24  1  0.01117000  0.15639000  0.10185600  1
  O  O25  1  0.33201000  0.14934900  0.43799400  1
  O  O26  1  0.17390800  0.16283600  0.27614600  1
  O  O27  1  0.66388500  0.16262100  0.76521000  1
  O  O28  1  0.11505600  0.62035000  0.22296500  1
  O  O29  1  0.49798700  0.17453900  0.60974800  1
  O  O30  1  0.45429400  0.60922200  0.55537800  1
  O  O31  1  0.86110500  0.19598700  0.93947900  1
  O  O32  1  0.77538700  0.59250800  0.90426500  1
  O  O33  1  0.32350300  0.86349400  0.57746900  1
  O  O34  1  0.16284700  0.36195000  0.40690600  1
  O  O35  1  0.67014000  0.85822200  0.92002600  1
  O  O36  1  0.48544000  0.37767800  0.73974600  1
  O  O37  1  0.05672200  0.09932700  0.44270700  1
  O  O38  1  0.01420100  0.70052800  0.39198400  1
  O  O39  1  0.38652300  0.11772000  0.77867800  1
  O  O40  1  0.33767200  0.67601100  0.72216200  1
  O  O41  1  0.17540700  0.62961900  0.57189400  1
  O  O42  1  0.49880800  0.65170700  0.89749500  1
  O  O43  1  0.16259800  0.34870600  0.77364800  1
  O  O44  1  0.32794300  0.31869400  0.94338000  1
  O  O45  1  0.28424700  0.88573500  0.88506400  1
  O  O46  1  0.15902200  0.63426300  0.90673100  1
  O  O47  1  0.00189000  0.13818800  0.74399900  1
loop_
_geom_bond_atom_site_label_1
_geom_bond_atom_site_label_2
_geom_bond_distance
_geom_bond_site_symmetry_2
Li0 O5 1.950281 1_555
Li0 O7 2.140801 1_555
Li0 O1 2.147873 1_555
Li0 O3 2.287224 1_555
Li0 O11 2.362811 1_555
Li1 O41 1.947835 1_555
Li1 O13 2.087367 1_455
Li1 O38 2.168655 1_555
Li1 O9 2.191871 1_555
Li1 O34 2.426564 1_555
Li2 O2 1.934141 1_555
Li2 O7 2.012386 1_555
Li2 O12 2.235478 1_555
Li2 O5 2.255061 1_555
Li2 O8 2.477540 1_545
Li3 O32 1.939281 1_555
Li3 O21 2.047474 1_555
Li3 O23 2.243684 1_655
Li3 O46 2.276990 1_655
Li3 O19 2.622289 1_555
Li4 O26 2.094460 1_555
Li4 O20 2.094920 1_545
Li4 O12 2.132044 1_555
Li4 O0 2.231391 1_545
Li4 O24 2.234263 1_555
Li4 O16 2.294163 1_545
Li5 O33 2.056665 1_555
Li5 O18 2.068229 1_555
Li5 O25 2.076450 1_565
Li5 O29 2.210695 1_565
Li5 O22 2.280332 1_555
Li5 O14 2.368355 1_565
Li6 O23 1.948937 1_655
Li6 O21 2.061076 1_555
Li6 O35 2.175426 1_555
Li6 O47 2.437016 1_665
Li6 O27 2.526106 1_565
Li6 O31 2.537683 1_565
Li7 O10 1.930966 1_455
Li7 O38 1.996967 1_555
Li7 O41 2.168763 1_555
Li7 O33 2.292679 1_555
Li7 O37 2.568736 1_565
Li8 O46 2.015864 1_555
Li8 O43 2.101545 1_555
Li8 O40 2.134483 1_555
Li8 O44 2.261741 1_555
Li8 O36 2.324101 1_555
Li8 O42 2.393220 1_555
O0 P1 1.547879 1_455
O0 Sb0 2.394583 1_455
O1 P0 1.553175 1_555
O1 Sb4 2.381931 1_655
O2 P0 1.526743 1_555
O2 Sb0 2.423303 1_545
O3 P9 1.558204 1_554
O3 Sb0 2.279441 1_555
O4 P1 1.588156 1_555
O4 Sb0 2.155513 1_555
O5 P2 1.514290 1_555
O6 P3 1.572824 1_555
O6 Sb1 2.223580 1_555
O7 P3 1.507239 1_555
O8 P4 1.583020 1_555
O8 Sb0 2.055403 1_555
O9 P10 1.530385 1_555
O9 Sb1 2.446230 1_455
O10 P5 1.555665 1_555
O10 Sb1 2.298481 1_565
O11 P4 1.533922 1_555
O11 Sb2 2.517319 1_555
O12 P2 1.516212 1_555
O13 P5 1.569383 1_555
O13 Sb3 2.268456 1_555
O14 P3 1.566168 1_555
O14 Sb1 2.273528 1_555
O15 P2 1.631192 1_555
O15 Sb4 2.025707 1_555
O15 Sb2 2.632735 1_555
O16 P11 1.590536 1_554
O16 Sb2 2.096271 1_555
O17 P3 1.615229 1_555
O17 Sb5 2.024928 1_555
O18 P4 1.546453 1_555
O18 Sb3 2.266187 1_555
O19 P10 1.590848 1_655
O19 Sb6 2.023978 1_555
O20 P4 1.581912 1_555
O20 Sb2 2.139974 1_555
O21 P5 1.513288 1_555
O22 P5 1.617095 1_555
O22 Sb3 2.097183 1_555
O23 P11 1.512960 1_555
O24 P0 1.588142 1_455
O24 Sb4 2.126767 1_555
O25 P6 1.574781 1_555
O25 Sb5 2.162746 1_555
O26 P6 1.553715 1_555
O26 Sb4 2.204224 1_555
O27 P7 1.561185 1_555
O27 Sb6 2.257396 1_555
O28 P1 1.618957 1_455
O28 Sb2 2.042177 1_555
O28 Sb4 2.712968 1_555
O29 P7 1.566200 1_555
O29 Sb5 2.178122 1_555
O30 P8 1.628711 1_555
O30 Sb3 2.044965 1_555
O30 Sb5 2.599503 1_555
O31 P0 1.574629 1_556
O31 Sb6 2.151567 1_555
O32 P9 1.550950 1_555
O32 Sb6 2.328414 1_555
O33 P8 1.514798 1_555
O34 P6 1.538488 1_555
O34 Sb5 2.466884 1_555
O35 P9 1.542005 1_555
O35 Sb7 2.502405 1_555
O36 P7 1.524547 1_555
O36 Sb6 2.668151 1_555
O37 P6 1.572852 1_555
O37 Sb1 2.057832 1_455
O38 P1 1.507860 1_455
O39 P7 1.593476 1_555
O39 Sb8 2.060370 1_555
O39 Sb7 2.707232 1_545
O40 P8 1.589490 1_555
O40 Sb7 2.091414 1_555
O41 P8 1.512533 1_555
O42 P9 1.597804 1_555
O42 Sb7 2.101108 1_555
O43 P10 1.586579 1_555
O43 Sb8 2.125979 1_555
O44 P2 1.586967 1_556
O44 Sb8 2.115775 1_555
O45 P11 1.624468 1_555
O45 Sb7 2.040103 1_555
O45 Sb8 2.606621 1_565
O46 P11 1.516824 1_555
O47 P10 1.539990 1_555
O47 Sb8 2.466325 1_555
