# generated using pymatgen
data_Li4V3FeO8
_symmetry_space_group_name_H-M   'P 1'
_cell_length_a   5.99101224
_cell_length_b   5.99101224
_cell_length_c   5.99101173
_cell_angle_alpha   60.00794451
_cell_angle_beta   60.00794451
_cell_angle_gamma   60.00794856
_symmetry_Int_Tables_number   1
_chemical_formula_structural   Li4V3FeO8
_chemical_formula_sum   'Li4 V3 Fe1 O8'
_cell_volume   152.07709702
_cell_formula_units_Z   1
loop_
 _symmetry_equiv_pos_site_id
 _symmetry_equiv_pos_as_xyz
  1  'x, y, z'
loop_
 _atom_site_type_symbol
 _atom_site_label
 _atom_site_symmetry_multiplicity
 _atom_site_fract_x
 _atom_site_fract_y
 _atom_site_fract_z
 _atom_site_occupancy
  Li  Li0  1  0.00000000  0.00000000  0.50000000  1
  Li  Li1  1  0.00000000  0.50000000  0.00000000  1
  Li  Li2  1  0.50000000  0.00000000  0.00000000  1
  Li  Li3  1  0.50000000  0.50000000  0.50000000  1
  V  V0  1  0.00000000  0.50000000  0.50000000  1
  V  V1  1  0.50000000  0.50000000  0.00000000  1
  V  V2  1  0.50000000  0.00000000  0.50000000  1
  Fe  Fe0  1  0.00000000  0.00000000  0.00000000  1
  O  O0  1  0.75519900  0.75519900  0.25315900  1
  O  O1  1  0.73971200  0.73971200  0.73971200  1
  O  O2  1  0.75519900  0.25315900  0.75519900  1
  O  O3  1  0.25315900  0.75519900  0.75519900  1
  O  O4  1  0.74684100  0.24480100  0.24480100  1
  O  O5  1  0.24480100  0.74684100  0.24480100  1
  O  O6  1  0.26028800  0.26028800  0.26028800  1
  O  O7  1  0.24480100  0.24480100  0.74684100  1
loop_
_geom_bond_atom_site_label_1
_geom_bond_atom_site_label_2
_geom_bond_distance
_geom_bond_site_symmetry_2
Li0 O3 2.154411 1_545
Li0 O2 2.154411 1_455
Li0 O5 2.154411 1_545
Li0 O4 2.154411 1_455
Li0 O6 2.208862 1_555
Li0 O1 2.208862 1_445
Li1 O3 2.154411 1_554
Li1 O4 2.154411 1_455
Li1 O0 2.154411 1_455
Li1 O7 2.154411 1_554
Li1 O6 2.208862 1_555
Li1 O1 2.208862 1_454
Li2 O2 2.154411 1_554
Li2 O5 2.154411 1_545
Li2 O0 2.154411 1_545
Li2 O7 2.154411 1_554
Li2 O6 2.208862 1_555
Li2 O1 2.208862 1_544
Li3 O0 2.162893 1_555
Li3 O7 2.162893 1_555
Li3 O2 2.162893 1_555
Li3 O3 2.162893 1_555
Li3 O4 2.162893 1_555
Li3 O5 2.162893 1_555
Fe0 O7 2.074831 1_554
Fe0 O0 2.074831 1_445
Fe0 O5 2.074831 1_545
Fe0 O4 2.074831 1_455
Fe0 O2 2.074831 1_454
Fe0 O3 2.074831 1_544
O0 V2 2.083637 1_565
O0 V0 2.083637 1_655
O1 V1 2.034857 1_556
O1 V0 2.034857 1_655
O1 V2 2.034857 1_565
O2 V0 2.083637 1_655
O2 V1 2.083637 1_556
O3 V2 2.083637 1_565
O3 V1 2.083637 1_556
O4 V2 2.083637 1_555
O4 V1 2.083637 1_555
O5 V0 2.083637 1_555
O5 V1 2.083637 1_555
O6 V1 2.034857 1_555
O6 V2 2.034857 1_555
O6 V0 2.034857 1_555
O7 V2 2.083637 1_555
O7 V0 2.083637 1_555
