# generated using pymatgen
data_NdAl3(BO3)4
_symmetry_space_group_name_H-M   'P 1'
_cell_length_a   5.96650044
_cell_length_b   5.96650044
_cell_length_c   5.96650074
_cell_angle_alpha   104.13751332
_cell_angle_beta   104.13751332
_cell_angle_gamma   104.13750555
_symmetry_Int_Tables_number   1
_chemical_formula_structural   NdAl3(BO3)4
_chemical_formula_sum   'Nd1 Al3 B4 O12'
_cell_volume   189.01207995
_cell_formula_units_Z   1
loop_
 _symmetry_equiv_pos_site_id
 _symmetry_equiv_pos_as_xyz
  1  'x, y, z'
loop_
 _atom_site_type_symbol
 _atom_site_label
 _atom_site_symmetry_multiplicity
 _atom_site_fract_x
 _atom_site_fract_y
 _atom_site_fract_z
 _atom_site_occupancy
  Nd  Nd0  1  0.00000000  0.00000000  0.00000000  1
  Al  Al0  1  0.00000000  0.44436500  0.55563500  1
  Al  Al1  1  0.55563500  0.00000000  0.44436500  1
  Al  Al2  1  0.44436500  0.55563500  0.00000000  1
  B  B0  1  0.50000000  0.05819300  0.94180700  1
  B  B1  1  0.94180700  0.50000000  0.05819300  1
  B  B2  1  0.05819300  0.94180700  0.50000000  1
  B  B3  1  0.50000000  0.50000000  0.50000000  1
  O  O0  1  0.37904400  0.22568500  0.97294500  1
  O  O1  1  0.02705500  0.77431500  0.62095600  1
  O  O2  1  0.77431500  0.62095600  0.02705500  1
  O  O3  1  0.62095600  0.02705500  0.77431500  1
  O  O4  1  0.64855500  0.35144500  0.50000000  1
  O  O5  1  0.35144500  0.50000000  0.64855500  1
  O  O6  1  0.50000000  0.64855500  0.35144500  1
  O  O7  1  0.90954000  0.09046000  0.50000000  1
  O  O8  1  0.09046000  0.50000000  0.90954000  1
  O  O9  1  0.50000000  0.90954000  0.09046000  1
  O  O10  1  0.22568500  0.97294500  0.37904400  1
  O  O11  1  0.97294500  0.37904400  0.22568500  1
loop_
_geom_bond_atom_site_label_1
_geom_bond_atom_site_label_2
_geom_bond_distance
_geom_bond_site_symmetry_2
Nd0 O3 2.398087 1_454
Nd0 O11 2.398087 1_455
Nd0 O10 2.398087 1_545
Nd0 O1 2.398087 1_544
Nd0 O0 2.398087 1_554
Nd0 O2 2.398087 1_445
Al0 O1 1.868889 1_555
Al0 O11 1.868889 1_455
Al0 O5 1.953640 1_555
Al0 O4 1.953640 1_455
Al0 O7 1.968143 1_455
Al0 O8 1.968143 1_555
Al1 O10 1.868889 1_545
Al1 O3 1.868889 1_555
Al1 O6 1.953640 1_545
Al1 O4 1.953640 1_555
Al1 O7 1.968143 1_555
Al1 O9 1.968143 1_545
Al2 O0 1.868889 1_554
Al2 O2 1.868889 1_555
Al2 O6 1.953640 1_555
Al2 O5 1.953640 1_554
Al2 O8 1.968143 1_554
Al2 O9 1.968143 1_555
B0 O0 1.371546 1_555
B0 O3 1.371546 1_555
B0 O9 1.399143 1_546
B1 O2 1.371546 1_555
B1 O11 1.371546 1_555
B1 O8 1.399143 1_654
B2 O1 1.371546 1_555
B2 O10 1.371546 1_555
B2 O7 1.399143 1_465
B3 O4 1.398221 1_555
B3 O5 1.398221 1_555
B3 O6 1.398221 1_555
