# generated using pymatgen
data_Li2MnBAsO7
_symmetry_space_group_name_H-M   'P 1'
_cell_length_a   6.39592900
_cell_length_b   5.16810400
_cell_length_c   8.76085197
_cell_angle_alpha   86.77645141
_cell_angle_beta   90.00000000
_cell_angle_gamma   90.00000000
_symmetry_Int_Tables_number   1
_chemical_formula_structural   Li2MnBAsO7
_chemical_formula_sum   'Li4 Mn2 B2 As2 O14'
_cell_volume   289.13023465
_cell_formula_units_Z   2
loop_
 _symmetry_equiv_pos_site_id
 _symmetry_equiv_pos_as_xyz
  1  'x, y, z'
loop_
 _atom_site_type_symbol
 _atom_site_label
 _atom_site_symmetry_multiplicity
 _atom_site_fract_x
 _atom_site_fract_y
 _atom_site_fract_z
 _atom_site_occupancy
  Li  Li0  1  0.48145800  0.77257900  0.80437000  1
  Li  Li1  1  0.01854200  0.77257900  0.80437000  1
  Li  Li2  1  0.51854200  0.22742100  0.19563000  1
  Li  Li3  1  0.98145800  0.22742100  0.19563000  1
  Mn  Mn0  1  0.25000000  0.21178900  0.67496300  1
  Mn  Mn1  1  0.75000000  0.78821100  0.32503700  1
  B  B0  1  0.25000000  0.26831800  0.94625300  1
  B  B1  1  0.75000000  0.73168200  0.05374700  1
  As  As0  1  0.75000000  0.28357900  0.57135400  1
  As  As1  1  0.25000000  0.71642100  0.42864600  1
  O  O0  1  0.75000000  0.70442300  0.90453900  1
  O  O1  1  0.25000000  0.02976000  0.87405700  1
  O  O2  1  0.25000000  0.46859800  0.82861500  1
  O  O3  1  0.95171200  0.18503400  0.68917800  1
  O  O4  1  0.54828800  0.18503400  0.68917800  1
  O  O5  1  0.25000000  0.85367800  0.60203700  1
  O  O6  1  0.75000000  0.61365800  0.53008700  1
  O  O7  1  0.25000000  0.38634200  0.46991300  1
  O  O8  1  0.75000000  0.14632200  0.39796300  1
  O  O9  1  0.45171200  0.81496600  0.31082200  1
  O  O10  1  0.04828800  0.81496600  0.31082200  1
  O  O11  1  0.75000000  0.53140200  0.17138500  1
  O  O12  1  0.75000000  0.97024000  0.12594300  1
  O  O13  1  0.25000000  0.29557700  0.09546100  1
loop_
_geom_bond_atom_site_label_1
_geom_bond_atom_site_label_2
_geom_bond_distance
_geom_bond_site_symmetry_2
Li0 O0 1.951793 1_555
Li0 O1 2.102891 1_565
Li0 O2 2.160370 1_555
Li0 O5 2.329337 1_555
Li0 O4 2.345844 1_565
Li1 O0 1.951793 1_455
Li1 O1 2.102891 1_565
Li1 O2 2.160370 1_555
Li1 O5 2.329337 1_555
Li1 O3 2.345844 1_465
Li2 O13 1.951793 1_555
Li2 O12 2.102891 1_545
Li2 O11 2.160370 1_555
Li2 O8 2.329337 1_555
Li2 O9 2.345844 1_545
Li3 O13 1.951793 1_655
Li3 O12 2.102891 1_545
Li3 O11 2.160370 1_555
Li3 O8 2.329337 1_555
Li3 O10 2.345844 1_645
Mn0 O4 1.916378 1_555
Mn0 O3 1.916378 1_455
Mn0 O1 1.934634 1_555
Mn0 O2 1.942801 1_555
Mn0 O7 1.964343 1_555
Mn0 O5 1.991597 1_545
Mn1 O10 1.916378 1_655
Mn1 O9 1.916378 1_555
Mn1 O12 1.934634 1_555
Mn1 O11 1.942801 1_555
Mn1 O6 1.964343 1_555
Mn1 O8 1.991597 1_565
B0 O13 1.322611 1_556
B0 O1 1.416961 1_555
B0 O2 1.418996 1_555
B1 O0 1.322611 1_554
B1 O12 1.416961 1_555
B1 O11 1.418996 1_555
As0 O4 1.711789 1_555
As0 O3 1.711789 1_555
As0 O8 1.712278 1_555
As0 O6 1.723770 1_555
As1 O10 1.711789 1_555
As1 O9 1.711789 1_555
As1 O5 1.712278 1_555
As1 O7 1.723770 1_555
