# generated using pymatgen
data_Cr3Ni(SO4)6
_symmetry_space_group_name_H-M   'P 1'
_cell_length_a   8.84288556
_cell_length_b   8.84288556
_cell_length_c   8.84288579
_cell_angle_alpha   55.93831138
_cell_angle_beta   55.93831138
_cell_angle_gamma   55.93831890
_symmetry_Int_Tables_number   1
_chemical_formula_structural   Cr3Ni(SO4)6
_chemical_formula_sum   'Cr3 Ni1 S6 O24'
_cell_volume   442.93094883
_cell_formula_units_Z   1
loop_
 _symmetry_equiv_pos_site_id
 _symmetry_equiv_pos_as_xyz
  1  'x, y, z'
loop_
 _atom_site_type_symbol
 _atom_site_label
 _atom_site_symmetry_multiplicity
 _atom_site_fract_x
 _atom_site_fract_y
 _atom_site_fract_z
 _atom_site_occupancy
  Cr  Cr0  1  0.35590900  0.35590900  0.35590900  1
  Cr  Cr1  1  0.64427100  0.64427100  0.64427100  1
  Cr  Cr2  1  0.84940200  0.84940200  0.84940200  1
  Ni  Ni0  1  0.14996700  0.14996700  0.14996700  1
  S  S0  1  0.74808300  0.04002600  0.46365900  1
  S  S1  1  0.95777500  0.53766700  0.25260300  1
  S  S2  1  0.53766700  0.25260300  0.95777500  1
  S  S3  1  0.46365900  0.74808300  0.04002500  1
  S  S4  1  0.04002500  0.46365900  0.74808300  1
  S  S5  1  0.25260300  0.95777500  0.53766700  1
  O  O0  1  0.51515900  0.29909500  0.10784200  1
  O  O1  1  0.29909500  0.10784200  0.51515900  1
  O  O2  1  0.95135800  0.01044300  0.33026000  1
  O  O3  1  0.71504200  0.02392400  0.65692300  1
  O  O4  1  0.96963600  0.34924000  0.28577800  1
  O  O5  1  0.67466400  0.04679700  0.98384200  1
  O  O6  1  0.10784200  0.51515900  0.29909500  1
  O  O7  1  0.61562000  0.23786200  0.38138900  1
  O  O8  1  0.98384200  0.67466400  0.04679700  1
  O  O9  1  0.62713200  0.38191300  0.75941700  1
  O  O10  1  0.75941700  0.62713200  0.38191300  1
  O  O11  1  0.34924000  0.28577800  0.96963600  1
  O  O12  1  0.65692300  0.71504200  0.02392400  1
  O  O13  1  0.23786200  0.38138900  0.61562000  1
  O  O14  1  0.38138900  0.61562000  0.23786200  1
  O  O15  1  0.01044300  0.33026000  0.95135800  1
  O  O16  1  0.38191300  0.75941700  0.62713200  1
  O  O17  1  0.89257600  0.49141700  0.69329900  1
  O  O18  1  0.33026000  0.95135800  0.01044300  1
  O  O19  1  0.02392400  0.65692300  0.71504200  1
  O  O20  1  0.28577800  0.96963600  0.34924000  1
  O  O21  1  0.04679700  0.98384200  0.67466400  1
  O  O22  1  0.69329900  0.89257600  0.49141700  1
  O  O23  1  0.49141700  0.69329900  0.89257600  1
loop_
_geom_bond_atom_site_label_1
_geom_bond_atom_site_label_2
_geom_bond_distance
_geom_bond_site_symmetry_2
Cr0 O1 2.007279 1_555
Cr0 O0 2.007279 1_555
Cr0 O6 2.007279 1_555
Cr0 O14 2.011347 1_555
Cr0 O13 2.011347 1_555
Cr0 O7 2.011347 1_555
Cr1 O22 1.980297 1_555
Cr1 O23 1.980297 1_555
Cr1 O17 1.980297 1_555
Cr1 O9 2.004247 1_555
Cr1 O10 2.004247 1_555
Cr1 O16 2.004247 1_555
Cr2 O12 1.989802 1_556
Cr2 O3 1.989802 1_565
Cr2 O19 1.989802 1_655
Cr2 O21 2.023204 1_655
Cr2 O8 2.023204 1_556
Cr2 O5 2.023204 1_565
Ni0 O11 2.041574 1_554
Ni0 O20 2.041575 1_545
Ni0 O4 2.041575 1_455
Ni0 O2 2.058129 1_455
Ni0 O15 2.058130 1_554
Ni0 O18 2.058130 1_545
O0 S2 1.480959 1_554
O1 S5 1.480959 1_545
O2 S0 1.461093 1_555
O3 S0 1.497010 1_555
O4 S1 1.471245 1_555
O5 S2 1.485279 1_555
O6 S1 1.480959 1_455
O7 S0 1.481658 1_555
O8 S1 1.485279 1_555
O9 S2 1.490734 1_555
O10 S1 1.490734 1_555
O11 S2 1.471245 1_555
O12 S3 1.497014 1_555
O13 S4 1.481662 1_555
O14 S3 1.481661 1_555
O15 S4 1.461094 1_555
O16 S5 1.490734 1_555
O17 S4 1.486904 1_655
O18 S3 1.461094 1_555
O19 S4 1.497014 1_555
O20 S5 1.471245 1_555
O21 S5 1.485279 1_555
O22 S0 1.486913 1_565
O23 S3 1.486904 1_556
