# generated using pymatgen
data_Li12Nb14ZnO42
_symmetry_space_group_name_H-M   'P 1'
_cell_length_a   9.06114300
_cell_length_b   9.27631916
_cell_length_c   9.89582098
_cell_angle_alpha   103.60446016
_cell_angle_beta   98.78017150
_cell_angle_gamma   99.35907822
_symmetry_Int_Tables_number   1
_chemical_formula_structural   Li12Nb14ZnO42
_chemical_formula_sum   'Li12 Nb14 Zn1 O42'
_cell_volume   781.72157171
_cell_formula_units_Z   1
loop_
 _symmetry_equiv_pos_site_id
 _symmetry_equiv_pos_as_xyz
  1  'x, y, z'
loop_
 _atom_site_type_symbol
 _atom_site_label
 _atom_site_symmetry_multiplicity
 _atom_site_fract_x
 _atom_site_fract_y
 _atom_site_fract_z
 _atom_site_occupancy
  Li  Li0  1  0.31574000  0.04879100  0.85494000  1
  Li  Li1  1  0.60403700  0.19126300  0.42524000  1
  Li  Li2  1  0.52877600  0.40699900  0.78374500  1
  Li  Li3  1  0.24593500  0.26213600  0.21032600  1
  Li  Li4  1  0.17419700  0.47601200  0.56886100  1
  Li  Li5  1  0.81755500  0.54857100  0.35353600  1
  Li  Li6  1  0.10412100  0.69327700  0.92630700  1
  Li  Li7  1  0.74639900  0.76523300  0.71225500  1
  Li  Li8  1  0.45941600  0.61996700  0.13853400  1
  Li  Li9  1  0.38766400  0.83426100  0.49672600  1
  Li  Li10  1  0.03072900  0.90538500  0.28217700  1
  Li  Li11  1  0.67492000  0.97540600  0.06886700  1
  Nb  Nb0  1  0.64412900  0.07861300  0.79240100  1
  Nb  Nb1  1  0.29198700  0.14255500  0.57270700  1
  Nb  Nb2  1  0.92880300  0.21597200  0.35502300  1
  Nb  Nb3  1  0.21299600  0.35788600  0.93038800  1
  Nb  Nb4  1  0.85501000  0.43170700  0.71855100  1
  Nb  Nb5  1  0.57356400  0.28786700  0.14355300  1
  Nb  Nb6  1  0.49863100  0.50092600  0.49934400  1
  Nb  Nb7  1  0.42951200  0.71506100  0.85668000  1
  Nb  Nb8  1  0.14192100  0.57066400  0.28269000  1
  Nb  Nb9  1  0.78826800  0.63873500  0.06812200  1
  Nb  Nb10  1  0.07032800  0.77998600  0.64219300  1
  Nb  Nb11  1  0.71011500  0.85344400  0.42558800  1
  Nb  Nb12  1  0.35626800  0.92852700  0.21294000  1
  Nb  Nb13  1  0.99796300  0.00035800  0.99959500  1
  Zn  Zn0  1  0.95969200  0.11744800  0.64052300  1
  O  O0  1  0.83252000  0.08913300  0.95067100  1
  O  O1  1  0.44438300  0.02681700  0.66942800  1
  O  O2  1  0.53975600  0.13048600  0.96946700  1
  O  O3  1  0.16582700  0.13726600  0.97398800  1
  O  O4  1  0.69649400  0.28141100  0.78825500  1
  O  O5  1  0.73050500  0.16887300  0.24010100  1
  O  O6  1  0.82766600  0.27297300  0.54379600  1
  O  O7  1  0.41613200  0.13781000  0.22442700  1
  O  O8  1  0.32514600  0.27322000  0.79258100  1
  O  O9  1  0.04061900  0.13068700  0.22117200  1
  O  O10  1  0.45378100  0.28155800  0.54461100  1
  O  O11  1  0.12408800  0.23948900  0.52703900  1
  O  O12  1  0.01846500  0.30802300  0.80346600  1
  O  O13  1  0.98817800  0.42499300  0.36786200  1
  O  O14  1  0.90000100  0.56384700  0.93014200  1
  O  O15  1  0.61139700  0.41664100  0.36438400  1
  O  O16  1  0.69547600  0.52833900  0.66771300  1
  O  O17  1  0.58864300  0.59785500  0.95387800  1
  O  O18  1  0.73338900  0.43006500  0.12181700  1
  O  O19  1  0.27208100  0.56582300  0.93790900  1
  O  O20  1  0.40990400  0.38344800  0.09614400  1
  O  O21  1  0.30210500  0.45548000  0.38358000  1
  O  O22  1  0.39746700  0.55805400  0.68427000  1
  O  O23  1  0.12049200  0.41850800  0.11544800  1
  O  O24  1  0.02346000  0.56675300  0.68749800  1
  O  O25  1  0.97994200  0.67034000  0.23985600  1
  O  O26  1  0.87348500  0.74114200  0.52580600  1
  O  O27  1  0.96894800  0.84486900  0.82748700  1
  O  O28  1  0.56016900  0.71148100  0.51068600  1
  O  O29  1  0.68093700  0.70295700  0.25517500  1
  O  O30  1  0.18376200  0.70276300  0.50682100  1
  O  O31  1  0.59372300  0.85040500  0.82885100  1
  O  O32  1  0.26677300  0.81305800  0.81122500  1
  O  O33  1  0.31014500  0.71032700  0.26061000  1
  O  O34  1  0.84554800  0.85052700  0.08271500  1
  O  O35  1  0.75772300  0.99116700  0.65215100  1
  O  O36  1  0.46876300  0.84457700  0.07720200  1
  O  O37  1  0.88165000  0.99537700  0.40568600  1
  O  O38  1  0.55237700  0.95653700  0.38343400  1
  O  O39  1  0.12664900  0.99533200  0.65369400  1
  O  O40  1  0.15911500  0.88308600  0.09708000  1
  O  O41  1  0.25477300  0.98818000  0.39980100  1
loop_
_geom_bond_atom_site_label_1
_geom_bond_atom_site_label_2
_geom_bond_distance
_geom_bond_site_symmetry_2
Li0 O3 2.074355 1_555
Li0 O32 2.084858 1_545
Li0 O2 2.091015 1_555
Li0 O8 2.298911 1_555
Li0 O1 2.307587 1_555
Li0 O39 2.316247 1_545
Li1 O38 2.077721 1_545
Li1 O10 2.084964 1_555
Li1 O6 2.100792 1_555
Li1 O5 2.291784 1_555
Li1 O15 2.301579 1_555
Li1 O7 2.307111 1_555
Li2 O4 2.061147 1_555
Li2 O17 2.066358 1_555
Li2 O8 2.075504 1_555
Li2 O22 2.276335 1_555
Li2 O10 2.317815 1_555
Li2 O16 2.334844 1_555
Li3 O7 2.077580 1_555
Li3 O9 2.084265 1_555
Li3 O21 2.098897 1_555
Li3 O23 2.264680 1_555
Li3 O3 2.296137 1_554
Li3 O20 2.305956 1_555
Li4 O24 2.085893 1_555
Li4 O22 2.088385 1_555
Li4 O11 2.093514 1_555
Li4 O13 2.301206 1_455
Li4 O21 2.301640 1_555
Li4 O30 2.318025 1_555
Li5 O13 2.076155 1_555
Li5 O26 2.088841 1_555
Li5 O15 2.092432 1_555
Li5 O18 2.248501 1_555
Li5 O25 2.295443 1_555
Li5 O29 2.322803 1_555
Li6 O14 2.045593 1_455
Li6 O40 2.064493 1_556
Li6 O19 2.079177 1_555
Li6 O27 2.296818 1_455
Li6 O32 2.297549 1_555
Li6 O24 2.320636 1_555
Li7 O31 2.069616 1_555
Li7 O27 2.080794 1_555
Li7 O16 2.094916 1_555
Li7 O35 2.300420 1_555
Li7 O28 2.303430 1_555
Li7 O26 2.306215 1_555
Li8 O29 2.079912 1_555
Li8 O20 2.092946 1_555
Li8 O33 2.093466 1_555
Li8 O36 2.295634 1_555
Li8 O19 2.302183 1_554
Li8 O17 2.303759 1_554
Li9 O30 2.071756 1_555
Li9 O28 2.084865 1_555
Li9 O1 2.091088 1_565
Li9 O33 2.290679 1_555
Li9 O41 2.293337 1_555
Li9 O38 2.308560 1_555
Li10 O25 2.079990 1_455
Li10 O37 2.099107 1_455
Li10 O41 2.101656 1_555
Li10 O34 2.282360 1_455
Li10 O9 2.299917 1_565
Li10 O40 2.302549 1_555
Li11 O36 2.079888 1_555
Li11 O34 2.084130 1_555
Li11 O5 2.088220 1_565
Li11 O0 2.262905 1_564
Li11 O2 2.325505 1_564
Li11 O31 2.328226 1_554
Nb0 O4 1.875565 1_555
Nb0 O1 1.938369 1_555
Nb0 O35 1.954925 1_545
Nb0 O0 2.105760 1_555
Nb0 O2 2.110328 1_555
Nb0 O31 2.217014 1_545
Nb1 O10 1.888778 1_555
Nb1 O41 1.899002 1_545
Nb1 O11 1.937397 1_555
Nb1 O1 2.130192 1_555
Nb1 O8 2.176001 1_555
Nb1 O39 2.228867 1_545
Nb2 O9 1.893233 1_655
Nb2 O13 1.894482 1_555
Nb2 O5 1.897322 1_555
Nb2 O6 2.196503 1_555
Nb2 O11 2.203758 1_655
Nb2 O37 2.210193 1_545
Nb3 O19 1.896632 1_555
Nb3 O12 1.919410 1_555
Nb3 O8 1.920423 1_555
Nb3 O23 2.123672 1_556
Nb3 O20 2.171671 1_556
Nb3 O3 2.178156 1_555
Nb4 O16 1.886220 1_555
Nb4 O24 1.922472 1_655
Nb4 O6 1.942368 1_555
Nb4 O14 2.102961 1_555
Nb4 O4 2.141541 1_555
Nb4 O12 2.200544 1_655
Nb5 O18 1.868359 1_555
Nb5 O20 1.901656 1_555
Nb5 O2 1.924382 1_554
Nb5 O15 2.174874 1_555
Nb5 O5 2.178397 1_555
Nb5 O7 2.199961 1_555
Nb6 O21 1.888652 1_555
Nb6 O15 1.903741 1_555
Nb6 O28 1.913624 1_555
Nb6 O22 2.164225 1_555
Nb6 O10 2.173058 1_555
Nb6 O16 2.183575 1_555
Nb7 O31 1.883145 1_555
Nb7 O32 1.904995 1_555
Nb7 O22 1.912770 1_555
Nb7 O36 2.173203 1_556
Nb7 O17 2.182842 1_555
Nb7 O19 2.197460 1_555
Nb8 O23 1.866213 1_555
Nb8 O25 1.903845 1_455
Nb8 O33 1.908471 1_555
Nb8 O13 2.181527 1_455
Nb8 O21 2.192942 1_555
Nb8 O30 2.208682 1_555
Nb9 O14 1.891173 1_554
Nb9 O17 1.909113 1_554
Nb9 O34 1.913658 1_555
Nb9 O18 2.127903 1_555
Nb9 O25 2.165508 1_555
Nb9 O29 2.224042 1_555
Nb10 O30 1.890124 1_555
Nb10 O26 1.899014 1_455
Nb10 O39 1.951311 1_555
Nb10 O24 2.120378 1_555
Nb10 O32 2.175439 1_555
Nb10 O27 2.177891 1_455
Nb11 O29 1.870527 1_555
Nb11 O38 1.892522 1_555
Nb11 O37 1.933385 1_555
Nb11 O28 2.139731 1_555
Nb11 O26 2.190784 1_555
Nb11 O35 2.241193 1_555
Nb12 O40 1.893671 1_555
Nb12 O7 1.900251 1_565
Nb12 O36 1.906269 1_555
Nb12 O33 2.174487 1_555
Nb12 O41 2.185092 1_555
Nb12 O38 2.190899 1_555
Nb13 O0 1.878130 1_555
Nb13 O3 1.905641 1_655
Nb13 O27 1.906454 1_545
Nb13 O9 2.181993 1_656
Nb13 O34 2.185398 1_546
Nb13 O40 2.196953 1_646
O6 Zn0 2.300033 1_555
O11 Zn0 2.306961 1_455
O12 Zn0 2.024722 1_455
O35 Zn0 2.040852 1_565
O37 Zn0 2.276568 1_565
O39 Zn0 2.038493 1_465
