# generated using pymatgen
data_Na3Mn2P2(CO7)2
_symmetry_space_group_name_H-M   'P 1'
_cell_length_a   10.36602355
_cell_length_b   6.57297500
_cell_length_c   10.43403545
_cell_angle_alpha   90.00000000
_cell_angle_beta   121.20850405
_cell_angle_gamma   90.00000000
_symmetry_Int_Tables_number   1
_chemical_formula_structural   Na3Mn2P2(CO7)2
_chemical_formula_sum   'Na6 Mn4 P4 C4 O28'
_cell_volume   608.04893945
_cell_formula_units_Z   2
loop_
 _symmetry_equiv_pos_site_id
 _symmetry_equiv_pos_as_xyz
  1  'x, y, z'
loop_
 _atom_site_type_symbol
 _atom_site_label
 _atom_site_symmetry_multiplicity
 _atom_site_fract_x
 _atom_site_fract_y
 _atom_site_fract_z
 _atom_site_occupancy
  Na  Na0  1  0.00084000  0.47769200  0.24161500  1
  Na  Na1  1  0.49645200  0.00981100  0.24340700  1
  Na  Na2  1  0.49748600  0.49286600  0.24203000  1
  Na  Na3  1  0.50354800  0.50981100  0.75659300  1
  Na  Na4  1  0.50251400  0.99286600  0.75797000  1
  Na  Na5  1  0.99916000  0.97769200  0.75838500  1
  Mn  Mn0  1  0.27522700  0.75810500  0.34410800  1
  Mn  Mn1  1  0.78662500  0.75446800  0.34864200  1
  Mn  Mn2  1  0.21337500  0.25446800  0.65135800  1
  Mn  Mn3  1  0.72477300  0.25810500  0.65589200  1
  P  P0  1  0.35860700  0.25252400  0.42417500  1
  P  P1  1  0.85480100  0.25118600  0.42573200  1
  P  P2  1  0.14519900  0.75118600  0.57426800  1
  P  P3  1  0.64139300  0.75252400  0.57582500  1
  C  C0  1  0.17015200  0.74589600  0.07256000  1
  C  C1  1  0.67200800  0.74894700  0.07493700  1
  C  C2  1  0.32799200  0.24894700  0.92506300  1
  C  C3  1  0.82984800  0.24589600  0.92744000  1
  O  O0  1  0.39042300  0.24985100  0.06406400  1
  O  O1  1  0.88240900  0.24569500  0.06354100  1
  O  O2  1  0.09162900  0.74351600  0.13931600  1
  O  O3  1  0.59634200  0.75425600  0.14573800  1
  O  O4  1  0.31802800  0.75052100  0.17468500  1
  O  O5  1  0.81771300  0.74292200  0.16921100  1
  O  O6  1  0.28134800  0.06489000  0.32616300  1
  O  O7  1  0.27422800  0.44063400  0.32853600  1
  O  O8  1  0.76858300  0.06498900  0.32819200  1
  O  O9  1  0.77010700  0.43955000  0.32995300  1
  O  O10  1  0.02133600  0.25698100  0.46277400  1
  O  O11  1  0.14013300  0.74492800  0.42349500  1
  O  O12  1  0.52682700  0.25795400  0.46117600  1
  O  O13  1  0.63859900  0.74971800  0.42555600  1
  O  O14  1  0.36140100  0.24971800  0.57444400  1
  O  O15  1  0.47317300  0.75795400  0.53882400  1
  O  O16  1  0.85986700  0.24492800  0.57650500  1
  O  O17  1  0.97866400  0.75698100  0.53722700  1
  O  O18  1  0.23141700  0.56498900  0.67180800  1
  O  O19  1  0.22989300  0.93955000  0.67004700  1
  O  O20  1  0.71865200  0.56489000  0.67383700  1
  O  O21  1  0.72577200  0.94063400  0.67146400  1
  O  O22  1  0.18228700  0.24292200  0.83078900  1
  O  O23  1  0.68197200  0.25052100  0.82531500  1
  O  O24  1  0.40365800  0.25425600  0.85426200  1
  O  O25  1  0.90837100  0.24351600  0.86068400  1
  O  O26  1  0.11759100  0.74569500  0.93645900  1
  O  O27  1  0.60957700  0.74985100  0.93593600  1
loop_
_geom_bond_atom_site_label_1
_geom_bond_atom_site_label_2
_geom_bond_distance
_geom_bond_site_symmetry_2
Na0 O1 2.218317 1_455
Na0 O5 2.393192 1_455
Na0 O11 2.435583 1_555
Na0 O2 2.473651 1_555
Na0 O7 2.499918 1_555
Na0 O10 2.639433 1_555
Na1 O0 2.251148 1_555
Na1 O4 2.337793 1_545
Na1 O13 2.409114 1_545
Na1 O3 2.454756 1_545
Na1 O8 2.507107 1_555
Na1 O12 2.679727 1_555
Na1 O6 2.800682 1_555
Na2 O0 2.257345 1_555
Na2 O4 2.338346 1_555
Na2 O13 2.398775 1_555
Na2 O3 2.465443 1_555
Na2 O9 2.502798 1_555
Na2 O12 2.642799 1_555
Na2 O7 2.907453 1_555
Na3 O27 2.251148 1_555
Na3 O23 2.337793 1_555
Na3 O14 2.409114 1_555
Na3 O24 2.454756 1_555
Na3 O18 2.507107 1_555
Na3 O15 2.679727 1_555
Na3 O20 2.800682 1_555
Na4 O27 2.257345 1_555
Na4 O23 2.338346 1_565
Na4 O14 2.398775 1_565
Na4 O24 2.465443 1_565
Na4 O19 2.502798 1_555
Na4 O15 2.642799 1_555
Na4 O21 2.907453 1_555
Na5 O26 2.218317 1_655
Na5 O22 2.393192 1_665
Na5 O16 2.435583 1_565
Na5 O25 2.473651 1_565
Na5 O21 2.499918 1_555
Na5 O17 2.639424 1_555
Mn0 O11 1.963876 1_555
Mn0 O2 1.995709 1_555
Mn0 O15 2.004462 1_555
Mn0 O6 2.029194 1_565
Mn0 O4 2.033991 1_555
Mn0 O7 2.092654 1_555
Mn1 O17 1.943103 1_555
Mn1 O3 2.011280 1_555
Mn1 O8 2.050615 1_565
Mn1 O5 2.059111 1_555
Mn1 O13 2.067768 1_555
Mn1 O9 2.077842 1_555
Mn2 O10 1.943098 1_555
Mn2 O24 2.011280 1_555
Mn2 O18 2.050615 1_555
Mn2 O22 2.059111 1_555
Mn2 O14 2.067768 1_555
Mn2 O19 2.077842 1_545
Mn3 O16 1.963876 1_555
Mn3 O25 1.995709 1_555
Mn3 O12 2.004462 1_555
Mn3 O20 2.029194 1_555
Mn3 O23 2.033991 1_555
Mn3 O21 2.092654 1_545
C0 O26 1.229501 1_554
C0 O2 1.317383 1_555
C0 O4 1.339180 1_555
C1 O27 1.244853 1_554
C1 O5 1.307961 1_555
C1 O3 1.327645 1_555
C2 O0 1.244853 1_556
C2 O22 1.307961 1_555
C2 O24 1.327645 1_555
C3 O1 1.229501 1_556
C3 O25 1.317383 1_555
C3 O23 1.339180 1_555
O6 P0 1.536078 1_555
O7 P0 1.544384 1_555
O8 P1 1.545895 1_555
O9 P1 1.546993 1_555
O10 P1 1.561898 1_455
O11 P2 1.547160 1_555
O12 P0 1.579052 1_555
O13 P3 1.553212 1_555
O14 P0 1.553212 1_555
O15 P3 1.579052 1_555
O16 P1 1.547160 1_555
O17 P2 1.561901 1_655
O18 P2 1.545895 1_555
O19 P2 1.546993 1_555
O20 P3 1.536078 1_555
O21 P3 1.544384 1_555
