# generated using pymatgen
data_Li3Cu2(SO4)3
_symmetry_space_group_name_H-M   'P 1'
_cell_length_a   8.67725018
_cell_length_b   12.39155543
_cell_length_c   8.86443300
_cell_angle_alpha   90.00000000
_cell_angle_beta   90.00000000
_cell_angle_gamma   93.01163231
_symmetry_Int_Tables_number   1
_chemical_formula_structural   Li3Cu2(SO4)3
_chemical_formula_sum   'Li12 Cu8 S12 O48'
_cell_volume   951.82844900
_cell_formula_units_Z   4
loop_
 _symmetry_equiv_pos_site_id
 _symmetry_equiv_pos_as_xyz
  1  'x, y, z'
loop_
 _atom_site_type_symbol
 _atom_site_label
 _atom_site_symmetry_multiplicity
 _atom_site_fract_x
 _atom_site_fract_y
 _atom_site_fract_z
 _atom_site_occupancy
  Li  Li0  1  0.08560600  0.68999900  0.07356600  1
  Li  Li1  1  0.04478700  0.34615100  0.51493100  1
  Li  Li2  1  0.18094100  0.17344200  0.77611200  1
  Li  Li3  1  0.31905900  0.32655800  0.27611200  1
  Li  Li4  1  0.41439400  0.81000100  0.57356600  1
  Li  Li5  1  0.45521300  0.15384900  0.01493100  1
  Li  Li6  1  0.54478700  0.84615100  0.98506900  1
  Li  Li7  1  0.58560600  0.18999900  0.42643400  1
  Li  Li8  1  0.68094100  0.67344200  0.72388800  1
  Li  Li9  1  0.81905900  0.82655800  0.22388800  1
  Li  Li10  1  0.95521300  0.65384900  0.48506900  1
  Li  Li11  1  0.91439400  0.31000100  0.92643400  1
  Cu  Cu0  1  0.23054300  0.91402100  0.03894400  1
  Cu  Cu1  1  0.26945700  0.58597900  0.53894400  1
  Cu  Cu2  1  0.25452700  0.39811800  0.95639800  1
  Cu  Cu3  1  0.24547300  0.10188200  0.45639800  1
  Cu  Cu4  1  0.75452700  0.89811800  0.54360200  1
  Cu  Cu5  1  0.74547300  0.60188200  0.04360200  1
  Cu  Cu6  1  0.73054300  0.41402100  0.46105600  1
  Cu  Cu7  1  0.76945700  0.08597900  0.96105600  1
  S  S0  1  0.06536400  0.49473000  0.25380000  1
  S  S1  1  0.11662300  0.85132200  0.36977200  1
  S  S2  1  0.12013700  0.16025400  0.10479000  1
  S  S3  1  0.38337700  0.64867800  0.86977200  1
  S  S4  1  0.37986300  0.33974600  0.60479000  1
  S  S5  1  0.43463600  0.00527000  0.75380000  1
  S  S6  1  0.56536400  0.99473000  0.24620000  1
  S  S7  1  0.62013700  0.66025400  0.39521000  1
  S  S8  1  0.61662300  0.35132200  0.13022800  1
  S  S9  1  0.87986300  0.83974600  0.89521000  1
  S  S10  1  0.88337700  0.14867800  0.63022800  1
  S  S11  1  0.93463600  0.50527000  0.74620000  1
  O  O0  1  0.01909900  0.44566800  0.86188800  1
  O  O1  1  0.03182700  0.89689800  0.88893500  1
  O  O2  1  0.03416500  0.59249800  0.67614600  1
  O  O3  1  0.04242400  0.19653900  0.59139200  1
  O  O4  1  0.11516000  0.57785100  0.37094900  1
  O  O5  1  0.13324600  0.82612300  0.20281200  1
  O  O6  1  0.12219100  0.96896900  0.39033900  1
  O  O7  1  0.11543000  0.25393600  0.99339600  1
  O  O8  1  0.17026900  0.20123000  0.25582800  1
  O  O9  1  0.20586900  0.44769300  0.18840900  1
  O  O10  1  0.23188500  0.79714400  0.45981600  1
  O  O11  1  0.26811500  0.70285600  0.95981600  1
  O  O12  1  0.24139400  0.08986600  0.04221800  1
  O  O13  1  0.25860600  0.41013400  0.54221800  1
  O  O14  1  0.29413100  0.05230700  0.68840900  1
  O  O15  1  0.32973100  0.29877000  0.75582800  1
  O  O16  1  0.37780900  0.53103100  0.89033900  1
  O  O17  1  0.38457000  0.24606400  0.49339600  1
  O  O18  1  0.36675400  0.67387700  0.70281200  1
  O  O19  1  0.38484000  0.92214900  0.87094900  1
  O  O20  1  0.46583500  0.90750200  0.17614600  1
  O  O21  1  0.46817300  0.60310200  0.38893500  1
  O  O22  1  0.45757600  0.30346100  0.09139200  1
  O  O23  1  0.48090100  0.05433200  0.36188800  1
  O  O24  1  0.51909900  0.94566800  0.63811200  1
  O  O25  1  0.54242400  0.69653900  0.90860800  1
  O  O26  1  0.53182700  0.39689800  0.61106500  1
  O  O27  1  0.53416500  0.09249800  0.82385400  1
  O  O28  1  0.61516000  0.07785100  0.12905100  1
  O  O29  1  0.63324600  0.32612300  0.29718800  1
  O  O30  1  0.61543000  0.75393600  0.50660400  1
  O  O31  1  0.62219100  0.46896900  0.10966100  1
  O  O32  1  0.67026900  0.70123000  0.24417200  1
  O  O33  1  0.70586900  0.94769300  0.31159100  1
  O  O34  1  0.74139400  0.58986600  0.45778200  1
  O  O35  1  0.75860600  0.91013400  0.95778200  1
  O  O36  1  0.73188500  0.29714400  0.04018400  1
  O  O37  1  0.76811500  0.20285600  0.54018400  1
  O  O38  1  0.79413100  0.55230700  0.81159100  1
  O  O39  1  0.82973100  0.79877000  0.74417200  1
  O  O40  1  0.88457000  0.74606400  0.00660400  1
  O  O41  1  0.87780900  0.03103100  0.60966100  1
  O  O42  1  0.86675400  0.17387700  0.79718800  1
  O  O43  1  0.88484000  0.42214900  0.62905100  1
  O  O44  1  0.95757600  0.80346100  0.40860800  1
  O  O45  1  0.96583500  0.40750200  0.32385400  1
  O  O46  1  0.96817300  0.10310200  0.11106500  1
  O  O47  1  0.98090100  0.55433200  0.13811200  1
loop_
_geom_bond_atom_site_label_1
_geom_bond_atom_site_label_2
_geom_bond_distance
_geom_bond_site_symmetry_2
Li0 O11 1.877133 1_554
Li0 O47 1.954105 1_455
Li0 O40 2.001351 1_455
Li0 O5 2.062882 1_555
Li1 O3 1.973032 1_555
Li1 O45 1.992724 1_455
Li1 O43 1.993445 1_455
Li1 O13 1.993718 1_555
Li2 O15 1.974940 1_555
Li2 O14 1.994280 1_555
Li2 O3 2.060083 1_555
Li2 O7 2.255544 1_555
Li3 O8 1.974940 1_555
Li3 O9 1.994280 1_555
Li3 O22 2.060083 1_555
Li3 O17 2.255544 1_555
Li4 O10 1.877133 1_555
Li4 O24 1.954105 1_555
Li4 O30 2.001351 1_555
Li4 O18 2.062882 1_555
Li5 O22 1.973032 1_555
Li5 O27 1.992724 1_554
Li5 O28 1.993445 1_555
Li5 O12 1.993718 1_555
Li6 O25 1.973032 1_555
Li6 O20 1.992724 1_556
Li6 O19 1.993445 1_555
Li6 O35 1.993718 1_555
Li7 O37 1.877133 1_555
Li7 O23 1.954105 1_555
Li7 O17 2.001351 1_555
Li7 O29 2.062882 1_555
Li8 O39 1.974940 1_555
Li8 O38 1.994280 1_555
Li8 O25 2.060083 1_555
Li8 O30 2.255544 1_555
Li9 O32 1.974940 1_555
Li9 O33 1.994280 1_555
Li9 O44 2.060083 1_555
Li9 O40 2.255544 1_555
Li10 O44 1.973032 1_555
Li10 O2 1.992724 1_655
Li10 O4 1.993445 1_655
Li10 O34 1.993718 1_555
Li11 O36 1.877133 1_556
Li11 O0 1.954105 1_655
Li11 O7 2.001351 1_655
Li11 O42 2.062882 1_555
Cu0 O5 1.978015 1_555
Cu0 O19 2.001553 1_554
Cu0 O12 2.176272 1_565
Cu0 O1 2.178999 1_554
Cu0 O20 2.381497 1_555
Cu1 O18 1.978015 1_555
Cu1 O4 2.001553 1_555
Cu1 O13 2.176272 1_555
Cu1 O21 2.178999 1_555
Cu1 O2 2.381497 1_555
Cu2 O16 2.003680 1_555
Cu2 O7 2.128344 1_555
Cu2 O9 2.193785 1_556
Cu2 O15 2.277470 1_555
Cu2 O0 2.312756 1_555
Cu2 O22 2.475730 1_556
Cu3 O6 2.003680 1_545
Cu3 O17 2.128344 1_555
Cu3 O14 2.193785 1_555
Cu3 O8 2.277470 1_555
Cu3 O23 2.312756 1_555
Cu3 O3 2.475730 1_555
Cu4 O41 2.003680 1_565
Cu4 O30 2.128344 1_555
Cu4 O33 2.193785 1_555
Cu4 O39 2.277470 1_555
Cu4 O24 2.312756 1_555
Cu4 O44 2.475730 1_555
Cu5 O31 2.003680 1_555
Cu5 O40 2.128344 1_555
Cu5 O38 2.193785 1_554
Cu5 O32 2.277470 1_555
Cu5 O47 2.312756 1_555
Cu5 O25 2.475730 1_554
Cu6 O29 1.978015 1_555
Cu6 O43 2.001553 1_555
Cu6 O34 2.176272 1_555
Cu6 O26 2.178999 1_555
Cu6 O45 2.381497 1_555
Cu7 O42 1.978015 1_555
Cu7 O28 2.001553 1_556
Cu7 O35 2.176272 1_545
Cu7 O46 2.178999 1_556
Cu7 O27 2.381497 1_555
O0 S11 1.480260 1_455
O1 S9 1.464685 1_455
O2 S11 1.483824 1_455
O3 S10 1.512909 1_455
O4 S0 1.509713 1_555
O5 S1 1.521006 1_555
O6 S1 1.467460 1_555
O7 S2 1.526207 1_556
O8 S2 1.488759 1_555
O9 S0 1.495606 1_555
O10 S1 1.469247 1_555
O11 S3 1.469247 1_555
O12 S2 1.507291 1_555
O13 S4 1.507291 1_555
O14 S5 1.495606 1_555
O15 S4 1.488759 1_555
O16 S3 1.467460 1_555
O17 S4 1.526207 1_555
O18 S3 1.521006 1_555
O19 S5 1.509713 1_565
O20 S6 1.483824 1_555
O21 S7 1.464685 1_555
O22 S8 1.512909 1_555
O23 S6 1.480260 1_545
O24 S5 1.480260 1_565
O25 S3 1.512909 1_555
O26 S4 1.464685 1_555
O27 S5 1.483824 1_555
O28 S6 1.509713 1_545
O29 S8 1.521006 1_555
O30 S7 1.526207 1_555
O31 S8 1.467460 1_555
O32 S7 1.488759 1_555
O33 S6 1.495606 1_555
O34 S7 1.507291 1_555
O35 S9 1.507291 1_555
O36 S8 1.469247 1_555
O37 S10 1.469247 1_555
O38 S11 1.495606 1_555
O39 S9 1.488759 1_555
O40 S9 1.526207 1_554
O41 S10 1.467460 1_555
O42 S10 1.521006 1_555
O43 S11 1.509713 1_555
O44 S1 1.512909 1_655
O45 S0 1.483824 1_655
O46 S2 1.464685 1_655
O47 S0 1.480260 1_655
