# generated using pymatgen
data_Ti2O3
_symmetry_space_group_name_H-M   'P 1'
_cell_length_a   13.24024650
_cell_length_b   2.97464134
_cell_length_c   7.71079796
_cell_angle_alpha   90.00000000
_cell_angle_beta   99.08964108
_cell_angle_gamma   90.00000000
_symmetry_Int_Tables_number   1
_chemical_formula_structural   Ti2O3
_chemical_formula_sum   'Ti12 O18'
_cell_volume   299.87604097
_cell_formula_units_Z   6
loop_
 _symmetry_equiv_pos_site_id
 _symmetry_equiv_pos_as_xyz
  1  'x, y, z'
loop_
 _atom_site_type_symbol
 _atom_site_label
 _atom_site_symmetry_multiplicity
 _atom_site_fract_x
 _atom_site_fract_y
 _atom_site_fract_z
 _atom_site_occupancy
  Ti  Ti0  1  0.01557099  0.25000000  0.19019929  1
  Ti  Ti1  1  0.11822730  0.25000000  0.54197482  1
  Ti  Ti2  1  0.21889799  0.75000000  0.15775334  1
  Ti  Ti3  1  0.27663640  0.75000000  0.82570001  1
  Ti  Ti4  1  0.39439209  0.25000000  0.48974359  1
  Ti  Ti5  1  0.43717300  0.25000000  0.13473022  1
  Ti  Ti6  1  0.56282700  0.75000000  0.86526978  1
  Ti  Ti7  1  0.60560791  0.75000000  0.51025641  1
  Ti  Ti8  1  0.72336360  0.25000000  0.17429999  1
  Ti  Ti9  1  0.78110201  0.25000000  0.84224666  1
  Ti  Ti10  1  0.88177270  0.75000000  0.45802518  1
  Ti  Ti11  1  0.98442901  0.75000000  0.80980071  1
  O  O0  1  0.03208790  0.75000000  0.38499491  1
  O  O1  1  0.12763798  0.75000000  0.72779389  1
  O  O2  1  0.07630681  0.75000000  0.05111139  1
  O  O3  1  0.17852716  0.25000000  0.30970071  1
  O  O4  1  0.28415530  0.25000000  0.64583253  1
  O  O5  1  0.26642380  0.25000000  0.00865699  1
  O  O6  1  0.42218088  0.75000000  0.94800524  1
  O  O7  1  0.36624164  0.75000000  0.28484439  1
  O  O8  1  0.47200217  0.75000000  0.62639482  1
  O  O9  1  0.52799783  0.25000000  0.37360518  1
  O  O10  1  0.63375836  0.25000000  0.71515561  1
  O  O11  1  0.57781912  0.25000000  0.05199476  1
  O  O12  1  0.73357620  0.75000000  0.99134301  1
  O  O13  1  0.71584470  0.75000000  0.35416747  1
  O  O14  1  0.82147284  0.75000000  0.69029929  1
  O  O15  1  0.92369319  0.25000000  0.94888861  1
  O  O16  1  0.87236202  0.25000000  0.27220611  1
  O  O17  1  0.96791210  0.25000000  0.61500509  1
loop_
_geom_bond_atom_site_label_1
_geom_bond_atom_site_label_2
_geom_bond_distance
_geom_bond_site_symmetry_2
O0 Ti0 2.100537 1_565
O0 Ti0 2.100537 1_555
O0 Ti1 2.131164 1_565
O0 Ti1 2.131164 1_555
O0 Ti10 2.152243 1_455
O1 Ti3 1.997801 1_555
O1 Ti1 2.055284 1_565
O1 Ti1 2.055284 1_555
O1 Ti11 2.091402 1_455
O2 Ti2 1.936488 1_555
O2 Ti11 2.055932 1_454
O2 Ti0 2.069178 1_565
O2 Ti0 2.069178 1_555
O3 Ti2 2.017037 1_555
O3 Ti2 2.017037 1_545
O3 Ti1 2.072912 1_555
O3 Ti0 2.208181 1_555
O4 Ti4 2.033210 1_555
O4 Ti3 2.046756 1_545
O4 Ti3 2.046756 1_555
O4 Ti1 2.216287 1_555
O5 Ti2 2.039204 1_555
O5 Ti2 2.039204 1_545
O5 Ti3 2.069028 1_554
O5 Ti3 2.069028 1_544
O5 Ti5 2.315529 1_555
O6 Ti3 2.007157 1_555
O6 Ti5 2.057728 1_566
O6 Ti5 2.057728 1_556
O6 Ti6 2.061576 1_555
O7 Ti2 2.040142 1_555
O7 Ti4 2.158977 1_555
O7 Ti4 2.158977 1_565
O7 Ti5 2.185726 1_555
O7 Ti5 2.185726 1_565
O8 Ti4 2.009028 1_565
O8 Ti4 2.009028 1_555
O8 Ti6 2.034434 1_555
O8 Ti7 2.105172 1_555
O9 Ti7 2.009028 1_555
O9 Ti7 2.009028 1_545
O9 Ti5 2.034434 1_555
O9 Ti4 2.105172 1_555
O10 Ti9 2.040142 1_555
O10 Ti7 2.158977 1_555
O10 Ti7 2.158977 1_545
O10 Ti6 2.185726 1_545
O10 Ti6 2.185726 1_555
O11 Ti8 2.007157 1_555
O11 Ti6 2.057728 1_554
O11 Ti6 2.057728 1_544
O11 Ti5 2.061576 1_555
O12 Ti9 2.039204 1_555
O12 Ti9 2.039204 1_565
O12 Ti8 2.069028 1_566
O12 Ti8 2.069028 1_556
O12 Ti6 2.315529 1_555
O13 Ti7 2.033210 1_555
O13 Ti8 2.046756 1_555
O13 Ti8 2.046756 1_565
O13 Ti10 2.216287 1_555
O14 Ti9 2.017037 1_555
O14 Ti9 2.017037 1_565
O14 Ti10 2.072912 1_555
O14 Ti11 2.208181 1_555
O15 Ti9 1.936488 1_555
O15 Ti0 2.055932 1_656
O15 Ti11 2.069178 1_545
O15 Ti11 2.069178 1_555
O16 Ti8 1.997801 1_555
O16 Ti10 2.055284 1_555
O16 Ti10 2.055284 1_545
O16 Ti0 2.091402 1_655
O17 Ti11 2.100537 1_555
O17 Ti11 2.100537 1_545
O17 Ti10 2.131164 1_545
O17 Ti10 2.131164 1_555
O17 Ti1 2.152243 1_655
