# generated using pymatgen
data_LiFeF3
_symmetry_space_group_name_H-M   'P 1'
_cell_length_a   4.99072600
_cell_length_b   8.71973800
_cell_length_c   10.58953500
_cell_angle_alpha   90.00000000
_cell_angle_beta   90.00000000
_cell_angle_gamma   90.00000000
_symmetry_Int_Tables_number   1
_chemical_formula_structural   LiFeF3
_chemical_formula_sum   'Li8 Fe8 F24'
_cell_volume   460.83351137
_cell_formula_units_Z   8
loop_
 _symmetry_equiv_pos_site_id
 _symmetry_equiv_pos_as_xyz
  1  'x, y, z'
loop_
 _atom_site_type_symbol
 _atom_site_label
 _atom_site_symmetry_multiplicity
 _atom_site_fract_x
 _atom_site_fract_y
 _atom_site_fract_z
 _atom_site_occupancy
  Li  Li0  1  0.99640600  0.78531000  0.60014400  1
  Li  Li1  1  0.50359400  0.78531000  0.10014400  1
  Li  Li2  1  0.50359400  0.71469000  0.60014400  1
  Li  Li3  1  0.99640600  0.71469000  0.10014400  1
  Li  Li4  1  0.00359400  0.28531000  0.89985600  1
  Li  Li5  1  0.49640600  0.28531000  0.39985600  1
  Li  Li6  1  0.49640600  0.21469000  0.89985600  1
  Li  Li7  1  0.00359400  0.21469000  0.39985600  1
  Fe  Fe0  1  0.99314800  0.91388000  0.86290900  1
  Fe  Fe1  1  0.50685200  0.91388000  0.36290900  1
  Fe  Fe2  1  0.99314800  0.58612000  0.36290900  1
  Fe  Fe3  1  0.50685200  0.58612000  0.86290900  1
  Fe  Fe4  1  0.00685200  0.41388000  0.63709100  1
  Fe  Fe5  1  0.49314800  0.41388000  0.13709100  1
  Fe  Fe6  1  0.00685200  0.08612000  0.13709100  1
  Fe  Fe7  1  0.49314800  0.08612000  0.63709100  1
  F  F0  1  0.22636600  0.91611000  0.69639700  1
  F  F1  1  0.27363400  0.91611000  0.19639700  1
  F  F2  1  0.80372800  0.90478500  0.04428000  1
  F  F3  1  0.69627200  0.90478500  0.54428000  1
  F  F4  1  0.75000000  0.75000000  0.77643300  1
  F  F5  1  0.75000000  0.75000000  0.27643300  1
  F  F6  1  0.25000000  0.75000000  0.95335500  1
  F  F7  1  0.25000000  0.75000000  0.45335500  1
  F  F8  1  0.69627200  0.59521500  0.04428000  1
  F  F9  1  0.80372800  0.59521500  0.54428000  1
  F  F10  1  0.22636600  0.58389000  0.19639700  1
  F  F11  1  0.27363400  0.58389000  0.69639700  1
  F  F12  1  0.77363400  0.41611000  0.80360300  1
  F  F13  1  0.72636600  0.41611000  0.30360300  1
  F  F14  1  0.30372800  0.40478500  0.95572000  1
  F  F15  1  0.19627200  0.40478500  0.45572000  1
  F  F16  1  0.75000000  0.25000000  0.54664500  1
  F  F17  1  0.75000000  0.25000000  0.04664500  1
  F  F18  1  0.25000000  0.25000000  0.72356700  1
  F  F19  1  0.25000000  0.25000000  0.22356700  1
  F  F20  1  0.30372800  0.09521500  0.45572000  1
  F  F21  1  0.19627200  0.09521500  0.95572000  1
  F  F22  1  0.77363400  0.08389000  0.30360300  1
  F  F23  1  0.72636600  0.08389000  0.80360300  1
loop_
_geom_bond_atom_site_label_1
_geom_bond_atom_site_label_2
_geom_bond_distance
_geom_bond_site_symmetry_2
F0 Li0 1.912301 1_455
F0 Fe7 2.089203 1_565
F0 Fe0 2.112884 1_455
F0 Li2 2.457209 1_555
F1 Li1 1.912301 1_555
F1 Fe6 2.089203 1_565
F1 Fe1 2.112884 1_555
F1 Li3 2.457209 1_455
F2 Li1 1.918059 1_555
F2 Li3 2.005544 1_555
F2 Fe6 2.119854 1_665
F2 Fe0 2.142149 1_554
F3 Li0 1.918059 1_555
F3 Li2 2.005544 1_555
F3 Fe7 2.119854 1_565
F3 Fe1 2.142149 1_555
F4 Fe0 2.086418 1_555
F4 Fe3 2.086418 1_555
F4 Li0 2.256564 1_555
F4 Li2 2.256564 1_555
F5 Fe2 2.086418 1_555
F5 Fe1 2.086418 1_555
F5 Li3 2.256564 1_555
F5 Li1 2.256564 1_555
F6 Li1 2.028012 1_556
F6 Li3 2.028012 1_456
F6 Fe3 2.145360 1_555
F6 Fe0 2.145360 1_455
F7 Li2 2.028012 1_555
F7 Li0 2.028012 1_455
F7 Fe1 2.145360 1_555
F7 Fe2 2.145360 1_455
F8 Li3 1.918059 1_555
F8 Li1 2.005544 1_555
F8 Fe5 2.119854 1_555
F8 Fe3 2.142149 1_554
F9 Li2 1.918059 1_555
F9 Li0 2.005544 1_555
F9 Fe4 2.119854 1_655
F9 Fe2 2.142149 1_555
F10 Li3 1.912301 1_455
F10 Fe5 2.089203 1_555
F10 Fe2 2.112884 1_455
F10 Li1 2.457209 1_555
F11 Li2 1.912301 1_555
F11 Fe4 2.089203 1_555
F11 Fe3 2.112884 1_555
F11 Li0 2.457209 1_455
F12 Li4 1.912301 1_655
F12 Fe3 2.089203 1_555
F12 Fe4 2.112884 1_655
F12 Li6 2.457209 1_555
F13 Li5 1.912301 1_555
F13 Fe2 2.089203 1_555
F13 Fe5 2.112884 1_555
F13 Li7 2.457209 1_655
F14 Li4 1.918059 1_555
F14 Li6 2.005544 1_555
F14 Fe3 2.119854 1_555
F14 Fe5 2.142149 1_556
F15 Li5 1.918059 1_555
F15 Li7 2.005544 1_555
F15 Fe2 2.119854 1_455
F15 Fe4 2.142149 1_555
F16 Li7 2.028012 1_655
F16 Li5 2.028012 1_555
F16 Fe7 2.145360 1_555
F16 Fe4 2.145360 1_655
F17 Li4 2.028012 1_654
F17 Li6 2.028012 1_554
F17 Fe6 2.145360 1_655
F17 Fe5 2.145360 1_555
F18 Fe7 2.086418 1_555
F18 Fe4 2.086418 1_555
F18 Li6 2.256564 1_555
F18 Li4 2.256564 1_555
F19 Fe6 2.086418 1_555
F19 Fe5 2.086418 1_555
F19 Li5 2.256564 1_555
F19 Li7 2.256564 1_555
F20 Li7 1.918059 1_555
F20 Li5 2.005544 1_555
F20 Fe1 2.119854 1_545
F20 Fe7 2.142149 1_555
F21 Li6 1.918059 1_555
F21 Li4 2.005544 1_555
F21 Fe0 2.119854 1_445
F21 Fe6 2.142149 1_556
F22 Li7 1.912301 1_655
F22 Fe1 2.089203 1_545
F22 Fe6 2.112884 1_655
F22 Li5 2.457209 1_555
F23 Li6 1.912301 1_555
F23 Fe0 2.089203 1_545
F23 Fe7 2.112884 1_555
F23 Li4 2.457209 1_655
