# generated using pymatgen
data_Er2(WO4)3
_symmetry_space_group_name_H-M   'P 1'
_cell_length_a   6.90449988
_cell_length_b   6.90449988
_cell_length_c   11.36317763
_cell_angle_alpha   79.19029469
_cell_angle_beta   79.19029469
_cell_angle_gamma   112.14768405
_symmetry_Int_Tables_number   1
_chemical_formula_structural   Er2(WO4)3
_chemical_formula_sum   'Er4 W6 O24'
_cell_volume   472.56124609
_cell_formula_units_Z   2
loop_
 _symmetry_equiv_pos_site_id
 _symmetry_equiv_pos_as_xyz
  1  'x, y, z'
loop_
 _atom_site_type_symbol
 _atom_site_label
 _atom_site_symmetry_multiplicity
 _atom_site_fract_x
 _atom_site_fract_y
 _atom_site_fract_z
 _atom_site_occupancy
  Er  Er0  1  0.95713800  0.71242800  0.09254400  1
  Er  Er1  1  0.71242800  0.95713800  0.59254400  1
  Er  Er2  1  0.28757200  0.04286200  0.40745600  1
  Er  Er3  1  0.04286200  0.28757200  0.90745600  1
  W  W0  1  0.86831900  0.13168100  0.25000000  1
  W  W1  1  0.75411000  0.53947400  0.45035800  1
  W  W2  1  0.53947400  0.75411000  0.95035800  1
  W  W3  1  0.46052600  0.24589000  0.04964200  1
  W  W4  1  0.24589000  0.46052600  0.54964200  1
  W  W5  1  0.13168100  0.86831900  0.75000000  1
  O  O0  1  0.65870100  0.07856500  0.39484700  1
  O  O1  1  0.92143500  0.34129900  0.10515300  1
  O  O2  1  0.52773600  0.60405800  0.57600800  1
  O  O3  1  0.39594200  0.47226400  0.92399200  1
  O  O4  1  0.79042100  0.87018200  0.21957200  1
  O  O5  1  0.12981800  0.20957900  0.28042800  1
  O  O6  1  0.91950700  0.81979200  0.46184300  1
  O  O7  1  0.18020800  0.08049300  0.03815700  1
  O  O8  1  0.90544500  0.54840000  0.29722700  1
  O  O9  1  0.76788800  0.32923600  0.56208300  1
  O  O10  1  0.54840000  0.90544500  0.79722700  1
  O  O11  1  0.67076400  0.23211200  0.93791700  1
  O  O12  1  0.32923600  0.76788800  0.06208300  1
  O  O13  1  0.45160000  0.09455500  0.20277300  1
  O  O14  1  0.23211200  0.67076400  0.43791700  1
  O  O15  1  0.09455500  0.45160000  0.70277300  1
  O  O16  1  0.81979200  0.91950700  0.96184300  1
  O  O17  1  0.08049300  0.18020800  0.53815700  1
  O  O18  1  0.87018200  0.79042100  0.71957200  1
  O  O19  1  0.20957900  0.12981800  0.78042800  1
  O  O20  1  0.60405800  0.52773600  0.07600800  1
  O  O21  1  0.47226400  0.39594200  0.42399200  1
  O  O22  1  0.07856500  0.65870100  0.89484700  1
  O  O23  1  0.34129900  0.92143500  0.60515300  1
loop_
_geom_bond_atom_site_label_1
_geom_bond_atom_site_label_2
_geom_bond_distance
_geom_bond_site_symmetry_2
Er0 O8 2.283725 1_555
Er0 O7 2.305432 1_665
Er0 O4 2.346651 1_555
Er0 O20 2.349948 1_555
Er0 O22 2.393270 1_654
Er0 O12 2.396232 1_655
Er0 O16 2.429689 1_554
Er0 O1 2.453622 1_555
Er1 O10 2.283725 1_555
Er1 O17 2.305432 1_665
Er1 O18 2.346651 1_555
Er1 O2 2.349948 1_555
Er1 O0 2.393270 1_565
Er1 O9 2.396232 1_565
Er1 O6 2.429689 1_555
Er1 O23 2.453622 1_555
Er2 O13 2.283725 1_555
Er2 O6 2.305432 1_445
Er2 O5 2.346651 1_555
Er2 O21 2.349948 1_555
Er2 O23 2.393270 1_545
Er2 O14 2.396232 1_545
Er2 O17 2.429689 1_555
Er2 O0 2.453622 1_555
Er3 O15 2.283725 1_555
Er3 O16 2.305432 1_445
Er3 O19 2.346651 1_555
Er3 O3 2.349948 1_555
Er3 O1 2.393270 1_456
Er3 O11 2.396232 1_455
Er3 O7 2.429689 1_556
Er3 O22 2.453622 1_555
O0 W0 1.848810 1_555
O1 W0 1.848810 1_555
O2 W4 1.932559 1_555
O2 W1 2.146539 1_555
O3 W2 1.932559 1_555
O3 W3 2.146539 1_556
O4 W0 1.800126 1_565
O5 W0 1.800126 1_455
O6 W1 1.884484 1_555
O7 W3 1.884484 1_555
O8 W1 1.831017 1_555
O9 W1 1.784961 1_555
O10 W2 1.831017 1_555
O11 W3 1.784961 1_556
O12 W2 1.784961 1_554
O13 W3 1.831017 1_555
O14 W4 1.784961 1_555
O15 W4 1.831017 1_555
O16 W2 1.884484 1_555
O17 W4 1.884484 1_555
O18 W5 1.800126 1_655
O19 W5 1.800126 1_545
O20 W3 1.932559 1_555
O20 W2 2.146539 1_554
O21 W1 1.932559 1_555
O21 W4 2.146539 1_555
O22 W5 1.848810 1_555
O23 W5 1.848810 1_555
