# generated using pymatgen
data_LiTi4O8
_symmetry_space_group_name_H-M   'P 1'
_cell_length_a   5.93636676
_cell_length_b   5.93636676
_cell_length_c   5.93636683
_cell_angle_alpha   60.64615053
_cell_angle_beta   60.64615053
_cell_angle_gamma   60.64615079
_symmetry_Int_Tables_number   1
_chemical_formula_structural   LiTi4O8
_chemical_formula_sum   'Li1 Ti4 O8'
_cell_volume   150.08500365
_cell_formula_units_Z   1
loop_
 _symmetry_equiv_pos_site_id
 _symmetry_equiv_pos_as_xyz
  1  'x, y, z'
loop_
 _atom_site_type_symbol
 _atom_site_label
 _atom_site_symmetry_multiplicity
 _atom_site_fract_x
 _atom_site_fract_y
 _atom_site_fract_z
 _atom_site_occupancy
  Li  Li0  1  0.50000000  0.50000000  0.50000000  1
  Ti  Ti0  1  0.00000000  0.50000000  0.00000000  1
  Ti  Ti1  1  0.50000000  0.00000000  0.00000000  1
  Ti  Ti2  1  0.00000000  0.00000000  0.50000000  1
  Ti  Ti3  1  0.00000000  0.00000000  0.00000000  1
  O  O0  1  0.24002100  0.78948300  0.24002100  1
  O  O1  1  0.78948300  0.24002100  0.24002100  1
  O  O2  1  0.75997900  0.75997900  0.21051700  1
  O  O3  1  0.23493400  0.23493400  0.23493400  1
  O  O4  1  0.76506600  0.76506600  0.76506600  1
  O  O5  1  0.24002100  0.24002100  0.78948300  1
  O  O6  1  0.21051700  0.75997900  0.75997900  1
  O  O7  1  0.75997900  0.21051700  0.75997900  1
loop_
_geom_bond_atom_site_label_1
_geom_bond_atom_site_label_2
_geom_bond_distance
_geom_bond_site_symmetry_2
Li0 O2 2.202654 1_555
Li0 O5 2.202654 1_555
Li0 O1 2.202654 1_555
Li0 O0 2.202654 1_555
Li0 O6 2.202654 1_555
Li0 O7 2.202654 1_555
O0 Ti1 1.990747 1_565
O0 Ti2 1.990747 1_565
O0 Ti3 2.030047 1_565
O1 Ti0 1.990747 1_655
O1 Ti2 1.990747 1_655
O1 Ti3 2.030047 1_655
O2 Ti0 1.990747 1_655
O2 Ti1 1.990747 1_565
O2 Ti3 2.030047 1_665
O3 Ti2 1.992489 1_555
O3 Ti0 1.992489 1_555
O3 Ti1 1.992489 1_555
O4 Ti2 1.992489 1_665
O4 Ti0 1.992489 1_656
O4 Ti1 1.992489 1_566
O5 Ti0 1.990747 1_556
O5 Ti1 1.990747 1_556
O5 Ti3 2.030047 1_556
O6 Ti0 1.990747 1_556
O6 Ti2 1.990747 1_565
O6 Ti3 2.030047 1_566
O7 Ti1 1.990747 1_556
O7 Ti2 1.990747 1_655
O7 Ti3 2.030047 1_656
