# generated using pymatgen
data_LiMn2O3F
_symmetry_space_group_name_H-M   'P 1'
_cell_length_a   5.84175890
_cell_length_b   6.13683622
_cell_length_c   8.77417126
_cell_angle_alpha   90.00009260
_cell_angle_beta   90.00137153
_cell_angle_gamma   89.61487193
_symmetry_Int_Tables_number   1
_chemical_formula_structural   LiMn2O3F
_chemical_formula_sum   'Li4 Mn8 O12 F4'
_cell_volume   314.54621113
_cell_formula_units_Z   4
loop_
 _symmetry_equiv_pos_site_id
 _symmetry_equiv_pos_as_xyz
  1  'x, y, z'
loop_
 _atom_site_type_symbol
 _atom_site_label
 _atom_site_symmetry_multiplicity
 _atom_site_fract_x
 _atom_site_fract_y
 _atom_site_fract_z
 _atom_site_occupancy
  Li  Li0  1  0.97009700  0.99957800  0.02118800  1
  Li  Li1  1  0.47010900  0.99957800  0.22881000  1
  Li  Li2  1  0.52989500  0.50042200  0.52119200  1
  Li  Li3  1  0.02990200  0.50042200  0.72881300  1
  Mn  Mn0  1  0.74744500  0.00038600  0.63525900  1
  Mn  Mn1  1  0.25256200  0.49961800  0.11475200  1
  Mn  Mn2  1  0.00000500  0.24999500  0.37500400  1
  Mn  Mn3  1  0.99999200  0.75000500  0.37500200  1
  Mn  Mn4  1  0.75255400  0.49961000  0.13524700  1
  Mn  Mn5  1  0.24744500  0.00038800  0.61476000  1
  Mn  Mn6  1  0.49999800  0.25000200  0.87500500  1
  Mn  Mn7  1  0.49998800  0.74999700  0.87499800  1
  O  O0  1  0.79903000  0.50151100  0.38208300  1
  O  O1  1  0.20097400  0.99848800  0.36792300  1
  O  O2  1  0.29904700  0.50150900  0.86791200  1
  O  O3  1  0.70095000  0.99848700  0.88209500  1
  O  O4  1  0.50660100  0.28554500  0.10115900  1
  O  O5  1  0.00416500  0.71377100  0.14871500  1
  O  O6  1  0.50418600  0.71375700  0.10127400  1
  O  O7  1  0.99340100  0.21445600  0.60116800  1
  O  O8  1  0.00658400  0.28553900  0.14883000  1
  O  O9  1  0.49341800  0.21446200  0.64884000  1
  O  O10  1  0.49583000  0.78623100  0.64872400  1
  O  O11  1  0.99582100  0.78624500  0.60128300  1
  F  F0  1  0.72089500  0.00278000  0.37097800  1
  F  F1  1  0.27908800  0.49725800  0.37900500  1
  F  F2  1  0.22090900  0.00274100  0.87900900  1
  F  F3  1  0.77911000  0.49722100  0.87097300  1
loop_
_geom_bond_atom_site_label_1
_geom_bond_atom_site_label_2
_geom_bond_distance
_geom_bond_site_symmetry_2
Li0 O3 1.990386 1_554
Li0 O5 2.088849 1_655
Li0 O8 2.093895 1_665
Li1 O1 1.990484 1_555
Li1 O6 2.088970 1_555
Li1 O4 2.093980 1_565
Li2 O0 1.990463 1_555
Li2 O10 2.088883 1_555
Li2 O9 2.093920 1_555
Li3 O2 1.990409 1_555
Li3 O11 2.088952 1_455
Li3 O7 2.093944 1_455
Mn0 O11 1.973704 1_545
Mn0 O7 1.976145 1_555
Mn0 O9 1.978911 1_555
Mn0 O10 1.981837 1_545
Mn0 O3 2.182794 1_545
Mn1 O5 1.973825 1_555
Mn1 O8 1.976259 1_555
Mn1 O4 1.978957 1_555
Mn1 O6 1.981817 1_555
Mn1 O2 2.182821 1_554
Mn2 O1 1.933926 1_545
Mn2 O0 1.933990 1_455
Mn2 O7 1.996753 1_455
Mn2 O8 1.996841 1_555
Mn3 O0 1.931752 1_555
Mn3 O1 1.931769 1_655
Mn3 O11 1.997976 1_555
Mn3 O5 1.998024 1_655
Mn4 O6 1.973680 1_555
Mn4 O4 1.976097 1_555
Mn4 O8 1.978900 1_655
Mn4 O5 1.981841 1_655
Mn4 O0 2.182767 1_555
Mn5 O10 1.973781 1_545
Mn5 O9 1.976209 1_555
Mn5 O7 1.978954 1_455
Mn5 O11 1.981829 1_445
Mn5 O1 2.182772 1_545
Mn6 O2 1.933864 1_555
Mn6 O3 1.933906 1_545
Mn6 O4 1.996666 1_556
Mn6 O9 1.996757 1_555
Mn7 O2 1.931647 1_555
Mn7 O3 1.931735 1_555
Mn7 O10 1.997910 1_555
Mn7 O6 1.997934 1_556
F0 Li1 1.924325 1_545
F0 Mn2 2.234872 1_655
F0 Mn3 2.243178 1_545
F0 Mn0 2.324064 1_555
F1 Li2 1.924522 1_555
F1 Mn2 2.234955 1_555
F1 Mn3 2.243053 1_455
F1 Mn1 2.323808 1_555
F2 Li0 1.924545 1_446
F2 Mn6 2.234974 1_555
F2 Mn7 2.242970 1_545
F2 Mn5 2.323784 1_555
F3 Li3 1.924351 1_655
F3 Mn6 2.234900 1_555
F3 Mn7 2.243289 1_555
F3 Mn4 2.324012 1_556
