# generated using pymatgen
data_Li5Mn8(BO3)8
_symmetry_space_group_name_H-M   'P 1'
_cell_length_a   5.31981100
_cell_length_b   9.10206417
_cell_length_c   11.49039349
_cell_angle_alpha   112.74287769
_cell_angle_beta   101.64743395
_cell_angle_gamma   89.60238503
_symmetry_Int_Tables_number   1
_chemical_formula_structural   Li5Mn8(BO3)8
_chemical_formula_sum   'Li5 Mn8 B8 O24'
_cell_volume   500.99458995
_cell_formula_units_Z   1
loop_
 _symmetry_equiv_pos_site_id
 _symmetry_equiv_pos_as_xyz
  1  'x, y, z'
loop_
 _atom_site_type_symbol
 _atom_site_label
 _atom_site_symmetry_multiplicity
 _atom_site_fract_x
 _atom_site_fract_y
 _atom_site_fract_z
 _atom_site_occupancy
  Li  Li0  1  0.07439900  0.91557300  0.83652900  1
  Li  Li1  1  0.30431900  0.17611800  0.32674300  1
  Li  Li2  1  0.56054500  0.40566000  0.84029800  1
  Li  Li3  1  0.64811300  0.79614900  0.59669100  1
  Li  Li4  1  0.81794300  0.66764100  0.32665100  1
  Mn  Mn0  1  0.08208200  0.61040900  0.87043100  1
  Mn  Mn1  1  0.16163500  0.98703900  0.62153700  1
  Mn  Mn2  1  0.33940100  0.53063900  0.37360700  1
  Mn  Mn3  1  0.59663800  0.09465200  0.87617500  1
  Mn  Mn4  1  0.40097200  0.90313000  0.11217900  1
  Mn  Mn5  1  0.65120900  0.46023800  0.61526800  1
  Mn  Mn6  1  0.83353200  0.00545200  0.36506300  1
  Mn  Mn7  1  0.91169900  0.37831700  0.12271700  1
  B  B0  1  0.10272800  0.27517800  0.87826500  1
  B  B1  1  0.15368700  0.65173000  0.63596100  1
  B  B2  1  0.36231800  0.85887800  0.37463200  1
  B  B3  1  0.60203300  0.75872200  0.86674700  1
  B  B4  1  0.39095100  0.25092700  0.12850500  1
  B  B5  1  0.65410700  0.12926700  0.62380200  1
  B  B6  1  0.83407900  0.33937300  0.36265600  1
  B  B7  1  0.90681900  0.73410900  0.12644000  1
  O  O0  1  0.02470400  0.78478500  0.64109700  1
  O  O1  1  0.05560800  0.54577200  0.68238800  1
  O  O2  1  0.18865100  0.12096400  0.83060000  1
  O  O3  1  0.22040300  0.40212900  0.87208000  1
  O  O4  1  0.11951100  0.86837200  0.40542400  1
  O  O5  1  0.36090700  0.78624600  0.90205400  1
  O  O6  1  0.09225200  0.72923200  0.05390200  1
  O  O7  1  0.37291100  0.61972500  0.58412500  1
  O  O8  1  0.28897800  0.40056800  0.16625100  1
  O  O9  1  0.28208100  0.12583300  0.14185400  1
  O  O10  1  0.56576800  0.01639400  0.66477500  1
  O  O11  1  0.56667200  0.27553300  0.66010200  1
  O  O12  1  0.44108200  0.96864600  0.32827300  1
  O  O13  1  0.69047400  0.60637100  0.83734500  1
  O  O14  1  0.52012000  0.74703400  0.39492800  1
  O  O15  1  0.74219100  0.88060100  0.86370900  1
  O  O16  1  0.60542900  0.36788000  0.40725000  1
  O  O17  1  0.87905900  0.29099800  0.93101800  1
  O  O18  1  0.60750500  0.23384800  0.07569700  1
  O  O19  1  0.84450700  0.08407400  0.54981700  1
  O  O20  1  0.80434700  0.88519200  0.17870300  1
  O  O21  1  0.83012900  0.60970600  0.14924200  1
  O  O22  1  0.92627300  0.45058100  0.31734800  1
  O  O23  1  0.97009600  0.21359500  0.36383800  1
loop_
_geom_bond_atom_site_label_1
_geom_bond_atom_site_label_2
_geom_bond_distance
_geom_bond_site_symmetry_2
Li0 O15 1.905174 1_455
Li0 O2 1.999997 1_565
Li0 O0 2.056075 1_555
Li0 O5 2.114859 1_555
Li1 O23 1.909057 1_455
Li1 O9 1.970841 1_555
Li1 O12 2.024159 1_545
Li1 O16 2.158761 1_555
Li2 O3 1.919727 1_555
Li2 O11 1.954877 1_555
Li2 O13 1.972647 1_555
Li2 O17 2.269447 1_555
Li3 O10 1.932942 1_565
Li3 O0 1.977325 1_655
Li3 O7 2.123883 1_555
Li3 O14 2.145613 1_555
Li4 O21 1.912980 1_555
Li4 O14 1.922381 1_555
Li4 O22 2.023039 1_555
Li4 O4 2.215145 1_655
Mn0 O6 1.951616 1_556
Mn0 O1 1.982407 1_555
Mn0 O3 2.034350 1_555
Mn0 O13 2.038726 1_455
Mn0 O5 2.063833 1_555
Mn1 O19 2.070289 1_465
Mn1 O0 2.091602 1_555
Mn1 O10 2.101045 1_565
Mn1 O2 2.208199 1_565
Mn1 O4 2.255682 1_555
Mn2 O14 2.102823 1_555
Mn2 O16 2.130669 1_555
Mn2 O8 2.171573 1_555
Mn2 O7 2.202692 1_555
Mn2 O22 2.205311 1_455
Mn3 O15 2.055248 1_545
Mn3 O18 2.136859 1_556
Mn3 O17 2.152329 1_555
Mn3 O2 2.161739 1_555
Mn3 O10 2.222042 1_555
Mn4 O9 2.039638 1_565
Mn4 O6 2.103217 1_555
Mn4 O20 2.155242 1_555
Mn4 O5 2.194536 1_554
Mn4 O12 2.282418 1_555
Mn5 O11 2.016867 1_555
Mn5 O7 2.141293 1_555
Mn5 O16 2.166403 1_555
Mn5 O1 2.172138 1_655
Mn5 O13 2.342776 1_555
Mn6 O19 1.948876 1_555
Mn6 O20 1.965567 1_545
Mn6 O23 2.039875 1_555
Mn6 O12 2.047810 1_545
Mn6 O4 2.054884 1_645
Mn7 O18 1.940871 1_555
Mn7 O8 1.959957 1_655
Mn7 O17 2.001895 1_554
Mn7 O22 2.057526 1_555
Mn7 O21 2.064297 1_555
B0 O3 1.350427 1_555
B0 O2 1.406039 1_555
B0 O17 1.423138 1_455
B1 O0 1.374978 1_555
B1 O7 1.393311 1_555
B1 O1 1.415674 1_555
B2 O14 1.374084 1_555
B2 O4 1.400161 1_555
B2 O12 1.401780 1_555
B3 O15 1.356373 1_555
B3 O13 1.396908 1_555
B3 O5 1.414165 1_555
B4 O9 1.354792 1_555
B4 O18 1.387931 1_555
B4 O8 1.401977 1_555
B5 O11 1.342809 1_555
B5 O10 1.402862 1_555
B5 O19 1.410452 1_555
B6 O23 1.353135 1_555
B6 O16 1.397832 1_555
B6 O22 1.433042 1_555
B7 O21 1.340226 1_555
B7 O6 1.404483 1_655
B7 O20 1.425532 1_555
