# generated using pymatgen
data_LiMnPCO7
_symmetry_space_group_name_H-M   'P 1'
_cell_length_a   6.23686900
_cell_length_b   8.34593988
_cell_length_c   10.22515555
_cell_angle_alpha   94.23238698
_cell_angle_beta   90.28515331
_cell_angle_gamma   90.96913860
_symmetry_Int_Tables_number   1
_chemical_formula_structural   LiMnPCO7
_chemical_formula_sum   'Li4 Mn4 P4 C4 O28'
_cell_volume   530.70750591
_cell_formula_units_Z   4
loop_
 _symmetry_equiv_pos_site_id
 _symmetry_equiv_pos_as_xyz
  1  'x, y, z'
loop_
 _atom_site_type_symbol
 _atom_site_label
 _atom_site_symmetry_multiplicity
 _atom_site_fract_x
 _atom_site_fract_y
 _atom_site_fract_z
 _atom_site_occupancy
  Li  Li0  1  0.96724200  0.25877100  0.87609500  1
  Li  Li1  1  0.52881700  0.26000900  0.37574400  1
  Li  Li2  1  0.47163000  0.74219000  0.62259200  1
  Li  Li3  1  0.47187000  0.73963500  0.12293200  1
  Mn  Mn0  1  0.24997200  0.32938200  0.60326900  1
  Mn  Mn1  1  0.25178600  0.32960300  0.10336800  1
  Mn  Mn2  1  0.75306700  0.67024200  0.89690200  1
  Mn  Mn3  1  0.75573300  0.67095300  0.39733300  1
  P  P0  1  0.74985700  0.42630000  0.63799300  1
  P  P1  1  0.74607300  0.42598500  0.13833000  1
  P  P2  1  0.24760600  0.57459500  0.86188500  1
  P  P3  1  0.25725900  0.57410400  0.36233500  1
  C  C0  1  0.25031000  0.04922900  0.64512500  1
  C  C1  1  0.25527600  0.04950000  0.14487400  1
  C  C2  1  0.74597400  0.94995500  0.85471000  1
  C  C3  1  0.74169000  0.95022800  0.35512100  1
  O  O0  1  0.25306200  0.10401300  0.52748500  1
  O  O1  1  0.75865800  0.09173300  0.83014300  1
  O  O2  1  0.23495600  0.10422800  0.02793700  1
  O  O3  1  0.23082200  0.17116400  0.73576800  1
  O  O4  1  0.72683400  0.09184800  0.33112600  1
  O  O5  1  0.26028900  0.17171200  0.23633000  1
  O  O6  1  0.94587200  0.32742300  0.59531100  1
  O  O7  1  0.55906400  0.31200000  0.59445700  1
  O  O8  1  0.94173600  0.32479300  0.09554900  1
  O  O9  1  0.55533500  0.31302300  0.09570900  1
  O  O10  1  0.22626500  0.41494500  0.92831900  1
  O  O11  1  0.75516200  0.46527600  0.78939700  1
  O  O12  1  0.27175900  0.41439800  0.42874000  1
  O  O13  1  0.73604400  0.46576200  0.28957600  1
  O  O14  1  0.27439300  0.53472800  0.71155400  1
  O  O15  1  0.73386700  0.58576600  0.57151900  1
  O  O16  1  0.27600500  0.53515900  0.21127300  1
  O  O17  1  0.74015600  0.58567300  0.07164900  1
  O  O18  1  0.05678600  0.68514200  0.89285800  1
  O  O19  1  0.44234600  0.67725900  0.91607900  1
  O  O20  1  0.44520900  0.68937600  0.41064400  1
  O  O21  1  0.05881600  0.67170300  0.39953600  1
  O  O22  1  0.72684500  0.82721000  0.76410200  1
  O  O23  1  0.26715400  0.90795800  0.66945000  1
  O  O24  1  0.74047500  0.82756400  0.26399800  1
  O  O25  1  0.75469600  0.89556000  0.97234200  1
  O  O26  1  0.27075900  0.90760400  0.16806700  1
  O  O27  1  0.76010100  0.89629500  0.47247700  1
loop_
_geom_bond_atom_site_label_1
_geom_bond_atom_site_label_2
_geom_bond_distance
_geom_bond_site_symmetry_2
Li0 O1 1.921590 1_555
Li0 O10 2.100314 1_655
Li0 O8 2.277774 1_556
Li0 O3 2.281485 1_655
Li0 O11 2.407654 1_555
Li1 O4 1.916460 1_555
Li1 O12 2.121266 1_555
Li1 O7 2.252784 1_555
Li1 O5 2.271450 1_555
Li1 O13 2.356924 1_555
Li2 O23 1.933364 1_555
Li2 O15 2.152243 1_555
Li2 O20 2.184306 1_555
Li2 O22 2.217691 1_555
Li2 O14 2.347392 1_555
Li3 O26 1.929048 1_555
Li3 O19 2.146843 1_554
Li3 O17 2.169772 1_555
Li3 O24 2.281165 1_555
Li3 O16 2.321317 1_555
Mn0 O6 1.897714 1_455
Mn0 O7 1.937707 1_555
Mn0 O3 1.963113 1_555
Mn0 O12 1.972995 1_555
Mn0 O14 1.973750 1_555
Mn0 O0 1.981144 1_555
Mn1 O9 1.902159 1_555
Mn1 O8 1.934611 1_455
Mn1 O5 1.963099 1_555
Mn1 O16 1.973198 1_555
Mn1 O2 1.980485 1_555
Mn1 O10 1.981307 1_554
Mn2 O18 1.897089 1_655
Mn2 O19 1.950222 1_555
Mn2 O22 1.963281 1_555
Mn2 O11 1.964216 1_555
Mn2 O17 1.970537 1_556
Mn2 O25 1.979027 1_555
Mn3 O21 1.890210 1_655
Mn3 O20 1.950018 1_555
Mn3 O24 1.960155 1_555
Mn3 O13 1.968460 1_555
Mn3 O15 1.970370 1_555
Mn3 O27 1.978100 1_555
C0 O23 1.228923 1_545
C0 O0 1.318107 1_555
C0 O3 1.332488 1_555
C1 O26 1.230090 1_545
C1 O2 1.317364 1_555
C1 O5 1.331794 1_555
C2 O1 1.228981 1_565
C2 O25 1.317793 1_555
C2 O22 1.332935 1_555
C3 O4 1.229665 1_565
C3 O27 1.317520 1_555
C3 O24 1.332343 1_555
O6 P0 1.533719 1_555
O7 P0 1.554929 1_555
O8 P1 1.542545 1_555
O9 P1 1.546018 1_555
O10 P2 1.543706 1_555
O11 P0 1.558335 1_555
O12 P3 1.543661 1_555
O13 P1 1.559394 1_555
O14 P2 1.558980 1_555
O15 P0 1.542908 1_555
O16 P3 1.560187 1_555
O17 P1 1.542076 1_555
O18 P2 1.538076 1_555
O19 P2 1.550618 1_555
O20 P3 1.558715 1_555
O21 P3 1.527435 1_555
