# generated using pymatgen
data_Sb6O5F8
_symmetry_space_group_name_H-M   'P 1'
_cell_length_a   5.89288300
_cell_length_b   6.34341300
_cell_length_c   34.43176012
_cell_angle_alpha   88.00519346
_cell_angle_beta   90.00000000
_cell_angle_gamma   90.00000000
_symmetry_Int_Tables_number   1
_chemical_formula_structural   Sb6O5F8
_chemical_formula_sum   'Sb24 O20 F32'
_cell_volume   1286.31330617
_cell_formula_units_Z   4
loop_
 _symmetry_equiv_pos_site_id
 _symmetry_equiv_pos_as_xyz
  1  'x, y, z'
loop_
 _atom_site_type_symbol
 _atom_site_label
 _atom_site_symmetry_multiplicity
 _atom_site_fract_x
 _atom_site_fract_y
 _atom_site_fract_z
 _atom_site_occupancy
  Sb  Sb0  1  0.25611700  0.71517000  0.01194300  1
  Sb  Sb1  1  0.24388300  0.71517000  0.51194300  1
  Sb  Sb2  1  0.67147900  0.72170000  0.74576900  1
  Sb  Sb3  1  0.82852100  0.72170000  0.24576900  1
  Sb  Sb4  1  0.14520500  0.69149100  0.33303100  1
  Sb  Sb5  1  0.30802200  0.69686300  0.66120000  1
  Sb  Sb6  1  0.19197800  0.69686300  0.16120000  1
  Sb  Sb7  1  0.35479500  0.69149100  0.83303100  1
  Sb  Sb8  1  0.68620000  0.67851100  0.91701700  1
  Sb  Sb9  1  0.66367500  0.74212200  0.58362400  1
  Sb  Sb10  1  0.81380000  0.67851100  0.41701700  1
  Sb  Sb11  1  0.83632500  0.74212200  0.08362400  1
  Sb  Sb12  1  0.16367500  0.25787800  0.91637600  1
  Sb  Sb13  1  0.31380000  0.32148900  0.08298300  1
  Sb  Sb14  1  0.18620000  0.32148900  0.58298300  1
  Sb  Sb15  1  0.33632500  0.25787800  0.41637600  1
  Sb  Sb16  1  0.80802200  0.30313700  0.83880000  1
  Sb  Sb17  1  0.64520500  0.30850900  0.16696900  1
  Sb  Sb18  1  0.69197800  0.30313700  0.33880000  1
  Sb  Sb19  1  0.85479500  0.30850900  0.66696900  1
  Sb  Sb20  1  0.32852100  0.27830000  0.25423100  1
  Sb  Sb21  1  0.17147900  0.27830000  0.75423100  1
  Sb  Sb22  1  0.75611700  0.28483000  0.48805700  1
  Sb  Sb23  1  0.74388300  0.28483000  0.98805700  1
  O  O0  1  0.99590100  0.46999300  0.71081400  1
  O  O1  1  0.50409900  0.46999300  0.21081400  1
  O  O2  1  0.43379400  0.49854100  0.13012800  1
  O  O3  1  0.46480400  0.46013800  0.36986600  1
  O  O4  1  0.06620600  0.49854100  0.63012800  1
  O  O5  1  0.03519600  0.46013800  0.86986600  1
  O  O6  1  0.53883900  0.43709000  0.44868000  1
  O  O7  1  0.47251800  0.50940800  0.04241700  1
  O  O8  1  0.96116100  0.43709000  0.94868000  1
  O  O9  1  0.02748200  0.50940800  0.54241700  1
  O  O10  1  0.97251800  0.49059200  0.45758300  1
  O  O11  1  0.46116100  0.56291000  0.55132000  1
  O  O12  1  0.52748200  0.49059200  0.95758300  1
  O  O13  1  0.03883900  0.56291000  0.05132000  1
  O  O14  1  0.96480400  0.53986200  0.13013400  1
  O  O15  1  0.93379400  0.50145900  0.36987200  1
  O  O16  1  0.53519600  0.53986200  0.63013400  1
  O  O17  1  0.56620600  0.50145900  0.86987200  1
  O  O18  1  0.49590100  0.53000700  0.78918600  1
  O  O19  1  0.00409900  0.53000700  0.28918600  1
  F  F0  1  0.59147400  0.04953800  0.96066800  1
  F  F1  1  0.55396400  0.94960000  0.53752400  1
  F  F2  1  0.90852600  0.04953800  0.46066800  1
  F  F3  1  0.94603600  0.94960000  0.03752400  1
  F  F4  1  0.37199000  0.81315400  0.90414600  1
  F  F5  1  0.37269700  0.89784500  0.60849900  1
  F  F6  1  0.12801000  0.81315400  0.40414600  1
  F  F7  1  0.12730300  0.89784500  0.10849900  1
  F  F8  1  0.63066100  0.88497400  0.82859000  1
  F  F9  1  0.65248100  0.85358300  0.68551500  1
  F  F10  1  0.84751900  0.85358300  0.18551500  1
  F  F11  1  0.86933900  0.88497400  0.32859000  1
  F  F12  1  0.37945200  0.88913800  0.74791300  1
  F  F13  1  0.12054800  0.88913800  0.24791300  1
  F  F14  1  0.50239500  0.49889700  0.28818600  1
  F  F15  1  0.99760500  0.49889700  0.78818600  1
  F  F16  1  0.49760500  0.50110300  0.71181400  1
  F  F17  1  0.00239500  0.50110300  0.21181400  1
  F  F18  1  0.62054800  0.11086200  0.25208700  1
  F  F19  1  0.87945200  0.11086200  0.75208700  1
  F  F20  1  0.15248100  0.14641700  0.81448500  1
  F  F21  1  0.36933900  0.11502600  0.17141000  1
  F  F22  1  0.13066100  0.11502600  0.67141000  1
  F  F23  1  0.34751900  0.14641700  0.31448500  1
  F  F24  1  0.62730300  0.10215500  0.39150100  1
  F  F25  1  0.62801000  0.18684600  0.09585400  1
  F  F26  1  0.87269700  0.10215500  0.89150100  1
  F  F27  1  0.87199000  0.18684600  0.59585400  1
  F  F28  1  0.05396400  0.05040000  0.96247600  1
  F  F29  1  0.09147400  0.95046200  0.53933200  1
  F  F30  1  0.44603600  0.05040000  0.46247600  1
  F  F31  1  0.40852600  0.95046200  0.03933200  1
loop_
_geom_bond_atom_site_label_1
_geom_bond_atom_site_label_2
_geom_bond_distance
_geom_bond_site_symmetry_2
O0 Sb19 2.031619 1_555
O0 Sb21 2.158100 1_655
O1 Sb17 2.031619 1_555
O1 Sb20 2.158100 1_555
O2 Sb17 2.123163 1_555
O2 Sb13 2.126821 1_555
O2 Sb6 2.202629 1_555
O3 Sb18 2.000584 1_555
O3 Sb15 2.154267 1_555
O3 Sb4 2.679512 1_555
O4 Sb19 2.123163 1_455
O4 Sb14 2.126821 1_555
O4 Sb5 2.202629 1_555
O5 Sb16 2.000584 1_455
O5 Sb12 2.154267 1_555
O5 Sb7 2.679512 1_555
O6 Sb15 2.010407 1_555
O6 Sb22 2.078305 1_555
O6 Sb10 2.458258 1_555
O7 Sb13 2.032436 1_555
O7 Sb0 2.082178 1_555
O8 Sb12 2.010407 1_655
O8 Sb23 2.078305 1_555
O8 Sb8 2.458258 1_555
O9 Sb14 2.032436 1_555
O9 Sb1 2.082178 1_555
O10 Sb10 2.032436 1_555
O10 Sb22 2.082178 1_555
O11 Sb9 2.010407 1_555
O11 Sb1 2.078305 1_555
O11 Sb14 2.458258 1_555
O12 Sb8 2.032436 1_555
O12 Sb23 2.082178 1_555
O13 Sb11 2.010407 1_455
O13 Sb0 2.078305 1_555
O13 Sb13 2.458258 1_555
O14 Sb6 2.000584 1_655
O14 Sb11 2.154267 1_555
O14 Sb17 2.679512 1_555
O15 Sb4 2.123163 1_655
O15 Sb10 2.126821 1_555
O15 Sb18 2.202629 1_555
O16 Sb5 2.000584 1_555
O16 Sb9 2.154267 1_555
O16 Sb19 2.679512 1_555
O17 Sb7 2.123163 1_555
O17 Sb8 2.126821 1_555
O17 Sb16 2.202629 1_555
O18 Sb7 2.031619 1_555
O18 Sb2 2.158100 1_555
O19 Sb4 2.031619 1_555
O19 Sb3 2.158100 1_455
F0 Sb23 2.005415 1_555
F1 Sb9 2.127027 1_555
F1 Sb1 2.533247 1_555
F2 Sb22 2.005415 1_555
F3 Sb11 2.127027 1_555
F3 Sb0 2.533247 1_655
F4 Sb8 2.080376 1_555
F4 Sb7 2.594832 1_555
F5 Sb9 2.169896 1_555
F5 Sb5 2.214120 1_555
F6 Sb10 2.080376 1_455
F6 Sb4 2.594832 1_555
F7 Sb11 2.169896 1_455
F7 Sb6 2.214120 1_555
F8 Sb7 2.039463 1_555
F9 Sb2 2.212637 1_555
F9 Sb5 2.422291 1_555
F10 Sb3 2.212637 1_555
F10 Sb6 2.422291 1_655
F11 Sb4 2.039463 1_655
F12 Sb2 2.024958 1_555
F13 Sb3 2.024958 1_455
F14 Sb20 2.118668 1_555
F14 Sb18 2.382560 1_555
F15 Sb21 2.118668 1_655
F15 Sb16 2.382560 1_555
F16 Sb2 2.118668 1_555
F16 Sb5 2.382560 1_555
F17 Sb3 2.118668 1_455
F17 Sb6 2.382560 1_555
F18 Sb20 2.024958 1_555
F19 Sb21 2.024958 1_655
F20 Sb21 2.212637 1_555
F20 Sb16 2.422291 1_455
F21 Sb17 2.039463 1_555
F22 Sb19 2.039463 1_455
F23 Sb20 2.212637 1_555
F23 Sb18 2.422291 1_555
F24 Sb15 2.169896 1_555
F24 Sb18 2.214120 1_555
F25 Sb13 2.080376 1_555
F25 Sb17 2.594832 1_555
F26 Sb12 2.169896 1_655
F26 Sb16 2.214120 1_555
F27 Sb14 2.080376 1_655
F27 Sb19 2.594832 1_555
F28 Sb12 2.127027 1_555
F28 Sb23 2.533247 1_455
F29 Sb1 2.005415 1_555
F30 Sb15 2.127027 1_555
F30 Sb22 2.533247 1_555
F31 Sb0 2.005415 1_555
