# generated using pymatgen
data_Sr3LaCl9
_symmetry_space_group_name_H-M   'P 1'
_cell_length_a   6.88462800
_cell_length_b   7.38935300
_cell_length_c   28.95387876
_cell_angle_alpha   88.05993325
_cell_angle_beta   90.00000000
_cell_angle_gamma   90.00000000
_symmetry_Int_Tables_number   1
_chemical_formula_structural   Sr3LaCl9
_chemical_formula_sum   'Sr12 La4 Cl36'
_cell_volume   1472.12480094
_cell_formula_units_Z   4
loop_
 _symmetry_equiv_pos_site_id
 _symmetry_equiv_pos_as_xyz
  1  'x, y, z'
loop_
 _atom_site_type_symbol
 _atom_site_label
 _atom_site_symmetry_multiplicity
 _atom_site_fract_x
 _atom_site_fract_y
 _atom_site_fract_z
 _atom_site_occupancy
  Sr  Sr0  1  0.97164000  0.67390700  0.93305200  1
  Sr  Sr1  1  0.00373800  0.70580700  0.69220600  1
  Sr  Sr2  1  0.02836000  0.67390700  0.43305200  1
  Sr  Sr3  1  0.99626200  0.70580700  0.19220600  1
  Sr  Sr4  1  0.98994400  0.31479300  0.56879100  1
  Sr  Sr5  1  0.98603800  0.28111600  0.80909000  1
  Sr  Sr6  1  0.01005600  0.31479300  0.06879100  1
  Sr  Sr7  1  0.01396200  0.28111600  0.30909000  1
  Sr  Sr8  1  0.52043400  0.21677600  0.69205900  1
  Sr  Sr9  1  0.51347900  0.18030300  0.93170500  1
  Sr  Sr10  1  0.47956600  0.21677600  0.19205900  1
  Sr  Sr11  1  0.48652100  0.18030300  0.43170500  1
  La  La0  1  0.52031000  0.79330000  0.80712600  1
  La  La1  1  0.54300300  0.81856600  0.56725500  1
  La  La2  1  0.47969000  0.79330000  0.30712600  1
  La  La3  1  0.45699700  0.81856600  0.06725500  1
  Cl  Cl0  1  0.79858100  0.98340200  0.86962500  1
  Cl  Cl1  1  0.81976000  0.98975100  0.75147600  1
  Cl  Cl2  1  0.81550600  0.99827100  0.62874400  1
  Cl  Cl3  1  0.20141900  0.98340200  0.36962500  1
  Cl  Cl4  1  0.18024000  0.98975100  0.25147600  1
  Cl  Cl5  1  0.70921400  0.89281000  0.99123200  1
  Cl  Cl6  1  0.18449400  0.99827100  0.12874400  1
  Cl  Cl7  1  0.32637700  0.85083200  0.89419800  1
  Cl  Cl8  1  0.29078600  0.89281000  0.49123200  1
  Cl  Cl9  1  0.39388800  0.84463000  0.70656900  1
  Cl  Cl10  1  0.67362300  0.85083200  0.39419800  1
  Cl  Cl11  1  0.60611200  0.84463000  0.20656900  1
  Cl  Cl12  1  0.15055400  0.64251400  0.79528600  1
  Cl  Cl13  1  0.19947800  0.64512200  0.60026600  1
  Cl  Cl14  1  0.84944600  0.64251400  0.29528600  1
  Cl  Cl15  1  0.80052200  0.64512200  0.10026600  1
  Cl  Cl16  1  0.75451900  0.58287000  0.51050900  1
  Cl  Cl17  1  0.68452300  0.50147200  0.86808200  1
  Cl  Cl18  1  0.69617600  0.50604700  0.75092600  1
  Cl  Cl19  1  0.70292500  0.51760000  0.62869400  1
  Cl  Cl20  1  0.24548100  0.58287000  0.01050900  1
  Cl  Cl21  1  0.31547700  0.50147200  0.36808200  1
  Cl  Cl22  1  0.30382400  0.50604700  0.25092600  1
  Cl  Cl23  1  0.29707500  0.51760000  0.12869400  1
  Cl  Cl24  1  0.76279100  0.39630500  0.98931100  1
  Cl  Cl25  1  0.23720900  0.39630500  0.48931100  1
  Cl  Cl26  1  0.15573000  0.34600100  0.89997500  1
  Cl  Cl27  1  0.11847900  0.32963000  0.69929200  1
  Cl  Cl28  1  0.84427000  0.34600100  0.39997500  1
  Cl  Cl29  1  0.88152100  0.32963000  0.19929200  1
  Cl  Cl30  1  0.38810800  0.15297500  0.79688300  1
  Cl  Cl31  1  0.35100200  0.13146700  0.59953000  1
  Cl  Cl32  1  0.61189200  0.15297500  0.29688300  1
  Cl  Cl33  1  0.64899800  0.13146700  0.09953000  1
  Cl  Cl34  1  0.75736800  0.07300100  0.50993200  1
  Cl  Cl35  1  0.24263200  0.07300100  0.00993200  1
loop_
_geom_bond_atom_site_label_1
_geom_bond_atom_site_label_2
_geom_bond_distance
_geom_bond_site_symmetry_2
Cl0 La0 3.015005 1_555
Cl0 Sr5 3.052239 1_565
Cl0 Sr9 3.062276 1_565
Cl0 Sr0 3.120573 1_555
Cl1 La0 2.965694 1_555
Cl1 Sr5 2.995293 1_565
Cl1 Sr1 3.032391 1_655
Cl1 Sr8 3.134505 1_565
Cl2 La1 2.934742 1_555
Cl2 Sr1 3.075263 1_655
Cl2 Sr4 3.106611 1_565
Cl2 Sr8 3.208565 1_565
Cl3 La2 3.015005 1_555
Cl3 Sr7 3.052239 1_565
Cl3 Sr11 3.062276 1_565
Cl3 Sr2 3.120573 1_555
Cl4 La2 2.965694 1_555
Cl4 Sr7 2.995293 1_565
Cl4 Sr3 3.032391 1_455
Cl4 Sr10 3.134505 1_565
Cl5 La3 2.842442 1_556
Cl5 Sr0 2.983758 1_555
Cl5 Sr9 3.008591 1_565
Cl6 La3 2.934742 1_555
Cl6 Sr3 3.075263 1_455
Cl6 Sr6 3.106611 1_565
Cl6 Sr10 3.208565 1_565
Cl7 La0 2.896851 1_555
Cl7 Sr0 2.973159 1_455
Cl7 Sr9 2.990784 1_565
Cl8 La1 2.842442 1_555
Cl8 Sr2 2.983758 1_555
Cl8 Sr11 3.008591 1_565
Cl9 Sr8 2.901613 1_565
Cl9 Sr1 2.910140 1_555
Cl9 La0 3.050173 1_555
Cl10 La2 2.896851 1_555
Cl10 Sr2 2.973159 1_655
Cl10 Sr11 2.990784 1_565
Cl11 Sr10 2.901613 1_565
Cl11 Sr3 2.910140 1_555
Cl11 La2 3.050173 1_555
Cl12 La0 2.804478 1_555
Cl12 Sr5 2.915799 1_455
Cl12 Sr1 3.170729 1_555
Cl13 La1 2.840181 1_555
Cl13 Sr4 3.003364 1_455
Cl13 Sr1 3.030557 1_555
Cl14 La2 2.804478 1_555
Cl14 Sr7 2.915799 1_655
Cl14 Sr3 3.170729 1_555
Cl15 La3 2.840181 1_555
Cl15 Sr6 3.003364 1_655
Cl15 Sr3 3.030557 1_555
Cl16 La1 2.836743 1_555
Cl16 Sr2 2.989035 1_655
Cl16 Sr4 3.028589 1_555
Cl17 La0 2.964036 1_555
Cl17 Sr0 3.038390 1_555
Cl17 Sr5 3.172709 1_555
Cl17 Sr9 3.180621 1_555
Cl18 La0 2.975420 1_555
Cl18 Sr8 3.030622 1_555
Cl18 Sr1 3.063188 1_655
Cl18 Sr5 3.064560 1_555
Cl19 La1 3.009111 1_555
Cl19 Sr4 3.055275 1_555
Cl19 Sr8 3.099938 1_555
Cl19 Sr1 3.126961 1_655
Cl20 La3 2.836743 1_555
Cl20 Sr0 2.989035 1_454
Cl20 Sr6 3.028589 1_555
Cl21 La2 2.964036 1_555
Cl21 Sr2 3.038390 1_555
Cl21 Sr7 3.172709 1_555
Cl21 Sr11 3.180621 1_555
Cl22 La2 2.975420 1_555
Cl22 Sr10 3.030622 1_555
Cl22 Sr3 3.063188 1_455
Cl22 Sr7 3.064560 1_555
Cl23 La3 3.009111 1_555
Cl23 Sr6 3.055275 1_555
Cl23 Sr10 3.099938 1_555
Cl23 Sr3 3.126961 1_455
Cl24 Sr9 2.907900 1_555
Cl24 Sr6 2.909060 1_656
Cl24 Sr0 2.949977 1_555
Cl25 Sr11 2.907900 1_555
Cl25 Sr4 2.909060 1_455
Cl25 Sr2 2.949977 1_555
Cl26 Sr9 2.886734 1_555
Cl26 Sr0 2.924311 1_455
Cl26 Sr5 2.933395 1_455
Cl27 Sr1 2.890373 1_555
Cl27 Sr8 2.899847 1_555
Cl27 Sr5 3.315008 1_455
Cl28 Sr11 2.886734 1_555
Cl28 Sr2 2.924311 1_655
Cl28 Sr7 2.933395 1_655
Cl29 Sr3 2.890373 1_555
Cl29 Sr10 2.899847 1_555
Cl29 Sr7 3.315008 1_655
Cl30 La0 2.815439 1_545
Cl30 Sr5 2.950686 1_455
Cl30 Sr8 3.188562 1_555
Cl31 La1 2.848304 1_545
Cl31 Sr4 2.953735 1_455
Cl31 Sr8 3.008293 1_555
Cl32 La2 2.815439 1_545
Cl32 Sr7 2.950686 1_655
Cl32 Sr10 3.188562 1_555
Cl33 La3 2.848304 1_545
Cl33 Sr6 2.953735 1_655
Cl33 Sr10 3.008293 1_555
Cl34 La1 2.873372 1_545
Cl34 Sr4 2.977673 1_555
Cl34 Sr11 3.018978 1_555
Cl35 La3 2.873372 1_545
Cl35 Sr6 2.977673 1_555
Cl35 Sr9 3.018978 1_554
