# generated using pymatgen
data_Li3CoOF3
_symmetry_space_group_name_H-M   'P 1'
_cell_length_a   2.91477872
_cell_length_b   17.28513687
_cell_length_c   5.81865101
_cell_angle_alpha   80.31904211
_cell_angle_beta   90.06096459
_cell_angle_gamma   90.01389805
_symmetry_Int_Tables_number   1
_chemical_formula_structural   Li3CoOF3
_chemical_formula_sum   'Li12 Co4 O4 F12'
_cell_volume   288.98240973
_cell_formula_units_Z   4
loop_
 _symmetry_equiv_pos_site_id
 _symmetry_equiv_pos_as_xyz
  1  'x, y, z'
loop_
 _atom_site_type_symbol
 _atom_site_label
 _atom_site_symmetry_multiplicity
 _atom_site_fract_x
 _atom_site_fract_y
 _atom_site_fract_z
 _atom_site_occupancy
  Li  Li0  1  0.49999600  0.87519100  0.31240200  1
  Li  Li1  1  0.49999800  0.37500800  0.06249600  1
  Li  Li2  1  0.49999800  0.87479700  0.81260300  1
  Li  Li3  1  0.49999800  0.37500600  0.56249700  1
  Li  Li4  1  0.00000200  0.99696300  0.49948700  1
  Li  Li5  1  0.00000400  0.49697100  0.24945000  1
  Li  Li6  1  0.99999800  0.99696300  0.00353700  1
  Li  Li7  1  0.00000100  0.49697200  0.75356800  1
  Li  Li8  1  0.99998900  0.75302900  0.62551800  1
  Li  Li9  1  0.99999500  0.25303700  0.37143400  1
  Li  Li10  1  0.99999200  0.75302900  0.12145800  1
  Li  Li11  1  0.99999100  0.25303700  0.87553900  1
  Co  Co0  1  0.49999500  0.12500200  0.18749700  1
  Co  Co1  1  0.49999700  0.62499500  0.93750100  1
  Co  Co2  1  0.49999600  0.62500300  0.43749700  1
  Co  Co3  1  0.49999500  0.12499500  0.68750100  1
  O  O0  1  0.99932700  0.62499100  0.68797500  1
  O  O1  1  0.00080700  0.12500800  0.43702700  1
  O  O2  1  0.00066500  0.62500800  0.18702100  1
  O  O3  1  0.99918100  0.12499100  0.93797000  1
  F  F0  1  0.99998700  0.87497200  0.06251200  1
  F  F1  1  0.99999800  0.37502300  0.81142000  1
  F  F2  1  0.99998800  0.87497200  0.56251300  1
  F  F3  1  0.99999800  0.37502700  0.31355500  1
  F  F4  1  0.49999800  0.99265500  0.25366300  1
  F  F5  1  0.50001100  0.49267400  0.00365100  1
  F  F6  1  0.50006900  0.99380700  0.75308200  1
  F  F7  1  0.50009000  0.49385100  0.50305500  1
  F  F8  1  0.49993100  0.75616000  0.37194700  1
  F  F9  1  0.50002900  0.25736000  0.12133600  1
  F  F10  1  0.50001800  0.75731400  0.87136000  1
  F  F11  1  0.49995300  0.25618900  0.62192900  1
loop_
_geom_bond_atom_site_label_1
_geom_bond_atom_site_label_2
_geom_bond_distance
_geom_bond_site_symmetry_2
Li4 O1 2.181776 1_565
Li5 O2 2.181640 1_555
Li6 O3 2.181489 1_564
Li7 O0 2.181336 1_455
Li8 O0 2.181656 1_555
Li9 O1 2.181507 1_655
Li10 O2 2.181369 1_655
Li11 O3 2.181793 1_555
Co0 O3 2.056625 1_554
Co0 O1 2.056631 1_555
Co0 O1 2.057796 1_655
Co0 O3 2.057798 1_454
Co0 F4 2.255059 1_545
Co0 F9 2.255246 1_555
Co1 O2 2.056902 1_556
Co1 O0 2.056904 1_555
Co1 O2 2.057472 1_656
Co1 O0 2.057482 1_455
Co1 F10 2.254582 1_555
Co1 F5 2.254616 1_556
Co2 O0 2.058599 1_555
Co2 O2 2.058606 1_555
Co2 O0 2.063550 1_455
Co2 O2 2.063556 1_655
Co2 F7 2.234697 1_555
Co2 F8 2.234782 1_555
Co3 O3 2.058280 1_555
Co3 O1 2.058287 1_555
Co3 O1 2.063827 1_655
Co3 O3 2.063829 1_455
Co3 F6 2.235311 1_545
Co3 F11 2.235413 1_555
F0 Li2 2.058002 1_554
F0 Li0 2.058056 1_655
F0 Li0 2.060210 1_555
F0 Li2 2.060238 1_654
F0 Li10 2.077817 1_555
F0 Li6 2.078634 1_555
F1 Li3 2.053652 1_555
F1 Li3 2.055838 1_655
F1 Li1 2.062431 1_656
F1 Li1 2.064627 1_556
F1 Li7 2.077964 1_655
F1 Li11 2.078600 1_555
F2 Li0 2.058031 1_555
F2 Li2 2.058070 1_655
F2 Li2 2.060220 1_555
F2 Li0 2.060254 1_655
F2 Li8 2.077821 1_555
F2 Li4 2.078638 1_655
F3 Li3 2.053652 1_655
F3 Li3 2.055838 1_555
F3 Li1 2.062431 1_555
F3 Li1 2.064627 1_655
F3 Li5 2.077885 1_655
F3 Li9 2.078662 1_555
F4 Li0 2.001468 1_555
F4 Li6 2.051047 1_455
F4 Li4 2.051058 1_655
F4 Li6 2.053221 1_555
F4 Li4 2.053228 1_555
F5 Li1 2.004909 1_555
F5 Li5 2.050903 1_655
F5 Li7 2.050907 1_554
F5 Li7 2.053039 1_654
F5 Li5 2.053120 1_555
F6 Li2 2.027810 1_555
F6 Li6 2.066952 1_556
F6 Li4 2.067186 1_555
F6 Li4 2.069105 1_655
F6 Li6 2.069447 1_456
F7 Li3 2.024998 1_555
F7 Li7 2.067066 1_655
F7 Li5 2.067324 1_555
F7 Li5 2.069165 1_655
F7 Li7 2.069636 1_555
F8 Li0 2.028168 1_555
F8 Li10 2.067050 1_455
F8 Li8 2.067109 1_555
F8 Li8 2.069065 1_455
F8 Li10 2.069505 1_555
F9 Li1 2.004603 1_555
F9 Li9 2.050841 1_555
F9 Li11 2.051057 1_454
F9 Li11 2.053087 1_554
F9 Li9 2.053156 1_455
F10 Li2 2.001791 1_555
F10 Li10 2.050912 1_556
F10 Li8 2.051122 1_455
F10 Li8 2.053189 1_555
F10 Li10 2.053194 1_456
F11 Li3 2.024521 1_555
F11 Li9 2.067166 1_455
F11 Li11 2.067194 1_555
F11 Li11 2.069233 1_455
F11 Li9 2.069543 1_555
