# generated using pymatgen
data_Sb3O4F
_symmetry_space_group_name_H-M   'P 1'
_cell_length_a   9.31623088
_cell_length_b   9.31623088
_cell_length_c   5.66185830
_cell_angle_alpha   78.29979542
_cell_angle_beta   78.29979542
_cell_angle_gamma   34.04998201
_symmetry_Int_Tables_number   1
_chemical_formula_structural   Sb3O4F
_chemical_formula_sum   'Sb6 O8 F2'
_cell_volume   268.88619839
_cell_formula_units_Z   2
loop_
 _symmetry_equiv_pos_site_id
 _symmetry_equiv_pos_as_xyz
  1  'x, y, z'
loop_
 _atom_site_type_symbol
 _atom_site_label
 _atom_site_symmetry_multiplicity
 _atom_site_fract_x
 _atom_site_fract_y
 _atom_site_fract_z
 _atom_site_occupancy
  Sb  Sb0  1  0.94813900  0.36631200  0.71306700  1
  Sb  Sb1  1  0.30971900  0.68621200  0.74497800  1
  Sb  Sb2  1  0.36631200  0.94813900  0.21306700  1
  Sb  Sb3  1  0.68621200  0.30971900  0.24497800  1
  Sb  Sb4  1  0.63705900  0.03856400  0.78244100  1
  Sb  Sb5  1  0.03856400  0.63705900  0.28244100  1
  O  O0  1  0.64731700  0.47731200  0.86589200  1
  O  O1  1  0.05437400  0.16605100  0.44778300  1
  O  O2  1  0.83394900  0.94562600  0.05221700  1
  O  O3  1  0.47731200  0.64731700  0.36589200  1
  O  O4  1  0.51492200  0.34878400  0.62535000  1
  O  O5  1  0.16605100  0.05437400  0.94778300  1
  O  O6  1  0.94562600  0.83394900  0.55221700  1
  O  O7  1  0.34878400  0.51492200  0.12535000  1
  F  F0  1  0.50000000  0.00000000  0.50000000  1
  F  F1  1  0.00000000  0.50000000  0.00000000  1
loop_
_geom_bond_atom_site_label_1
_geom_bond_atom_site_label_2
_geom_bond_distance
_geom_bond_site_symmetry_2
O0 Sb0 2.061354 1_555
O0 Sb1 2.082791 1_555
O0 Sb3 2.279158 1_556
O1 Sb2 2.020952 1_545
O1 Sb0 2.046976 1_455
O2 Sb5 2.001007 1_655
O2 Sb4 2.101301 1_564
O3 Sb2 2.061354 1_555
O3 Sb3 2.082791 1_555
O3 Sb1 2.279158 1_555
O4 Sb4 2.087322 1_555
O4 Sb1 2.091716 1_555
O4 Sb3 2.297531 1_555
O5 Sb0 2.020952 1_455
O5 Sb2 2.046976 1_546
O6 Sb4 2.001007 1_565
O6 Sb5 2.101301 1_655
O7 Sb5 2.087322 1_555
O7 Sb3 2.091716 1_555
O7 Sb1 2.297531 1_554
F0 Sb4 2.477517 1_555
F0 Sb2 2.561250 1_545
F1 Sb5 2.477517 1_555
F1 Sb0 2.561250 1_454
