# generated using pymatgen
data_LiVSiO4
_symmetry_space_group_name_H-M   'P 1'
_cell_length_a   5.43202601
_cell_length_b   8.21504026
_cell_length_c   8.49752284
_cell_angle_alpha   106.08394248
_cell_angle_beta   89.99677101
_cell_angle_gamma   89.99433423
_symmetry_Int_Tables_number   1
_chemical_formula_structural   LiVSiO4
_chemical_formula_sum   'Li4 V4 Si4 O16'
_cell_volume   364.35317479
_cell_formula_units_Z   4
loop_
 _symmetry_equiv_pos_site_id
 _symmetry_equiv_pos_as_xyz
  1  'x, y, z'
loop_
 _atom_site_type_symbol
 _atom_site_label
 _atom_site_symmetry_multiplicity
 _atom_site_fract_x
 _atom_site_fract_y
 _atom_site_fract_z
 _atom_site_occupancy
  Li  Li0  1  0.84568900  0.96989700  0.07367600  1
  Li  Li1  1  0.15421600  0.96990300  0.57363800  1
  Li  Li2  1  0.34065600  0.50303500  0.28390300  1
  Li  Li3  1  0.65939600  0.50293700  0.78379900  1
  V  V0  1  0.66145600  0.86364000  0.70148800  1
  V  V1  1  0.83396500  0.36846900  0.38860900  1
  V  V2  1  0.33851800  0.86361000  0.20144100  1
  V  V3  1  0.16617500  0.36841900  0.88858800  1
  Si  Si0  1  0.66315500  0.24721500  0.01079300  1
  Si  Si1  1  0.33692700  0.24719700  0.51075800  1
  Si  Si2  1  0.83620000  0.74069000  0.32649700  1
  Si  Si3  1  0.16372700  0.74065000  0.82642200  1
  O  O0  1  0.17400900  0.88431400  0.00716800  1
  O  O1  1  0.82586800  0.88435700  0.50718400  1
  O  O2  1  0.38344500  0.32430200  0.05102500  1
  O  O3  1  0.61662900  0.32421000  0.55094300  1
  O  O4  1  0.68809000  0.81474300  0.19093400  1
  O  O5  1  0.31187900  0.81475100  0.69083500  1
  O  O6  1  0.12756900  0.70099000  0.27150100  1
  O  O7  1  0.87227300  0.70086100  0.77144200  1
  O  O8  1  0.78230500  0.21459200  0.17812200  1
  O  O9  1  0.21788800  0.21452500  0.67808900  1
  O  O10  1  0.69484800  0.57079800  0.34627600  1
  O  O11  1  0.30516100  0.57073500  0.84621700  1
  O  O12  1  0.18036900  0.38171200  0.43655000  1
  O  O13  1  0.81969200  0.38162500  0.93645500  1
  O  O14  1  0.31004200  0.05473300  0.38756700  1
  O  O15  1  0.68985400  0.05468900  0.88768200  1
loop_
_geom_bond_atom_site_label_1
_geom_bond_atom_site_label_2
_geom_bond_distance
_geom_bond_site_symmetry_2
Li0 O0 1.942639 1_655
Li0 O8 1.989562 1_565
Li0 O4 2.013482 1_555
Li0 O15 2.075996 1_564
Li1 O1 1.942792 1_455
Li1 O9 1.989395 1_565
Li1 O5 2.013211 1_555
Li1 O14 2.076689 1_565
Li2 O6 2.022388 1_555
Li2 O10 2.032080 1_555
Li2 O12 2.037240 1_555
Li2 O2 2.125049 1_555
Li3 O7 2.021599 1_555
Li3 O11 2.032269 1_555
Li3 O13 2.037238 1_555
Li3 O3 2.124932 1_555
O0 Si3 1.658497 1_554
O0 V2 1.925738 1_555
O1 Si2 1.658138 1_555
O1 V0 1.925690 1_555
O2 Si0 1.645070 1_555
O2 V3 1.925308 1_554
O3 Si1 1.644942 1_555
O3 V1 1.925255 1_555
O4 Si2 1.653077 1_555
O4 V2 1.937746 1_555
O5 Si3 1.653568 1_555
O5 V0 1.937882 1_555
O6 Si2 1.656847 1_455
O6 V2 1.973090 1_555
O7 Si3 1.657456 1_655
O7 V0 1.973113 1_555
O8 Si0 1.650359 1_555
O8 V1 1.903468 1_555
O9 Si1 1.650258 1_555
O9 V3 1.903577 1_555
O10 Si2 1.641912 1_555
O10 V1 1.947886 1_555
O11 Si3 1.642212 1_555
O11 V3 1.947761 1_555
O12 Si1 1.651656 1_555
O12 V1 1.921995 1_455
O13 Si0 1.651632 1_556
O13 V3 1.922227 1_655
O14 Si1 1.643169 1_555
O14 V2 1.901197 1_545
O15 Si0 1.643190 1_556
O15 V0 1.901189 1_545
