# generated using pymatgen
data_Li10Mn3Co2Ni3O16
_symmetry_space_group_name_H-M   'P 1'
_cell_length_a   5.94317800
_cell_length_b   5.95212696
_cell_length_c   9.77606296
_cell_angle_alpha   90.80571109
_cell_angle_beta   91.03523014
_cell_angle_gamma   119.65376695
_symmetry_Int_Tables_number   1
_chemical_formula_structural   Li10Mn3Co2Ni3O16
_chemical_formula_sum   'Li10 Mn3 Co2 Ni3 O16'
_cell_volume   300.37728387
_cell_formula_units_Z   1
loop_
 _symmetry_equiv_pos_site_id
 _symmetry_equiv_pos_as_xyz
  1  'x, y, z'
loop_
 _atom_site_type_symbol
 _atom_site_label
 _atom_site_symmetry_multiplicity
 _atom_site_fract_x
 _atom_site_fract_y
 _atom_site_fract_z
 _atom_site_occupancy
  Li  Li0  1  0.16779200  0.79746900  0.07026400  1
  Li  Li1  1  0.19252100  0.41695200  0.05772400  1
  Li  Li2  1  0.35740800  0.68100400  0.28163000  1
  Li  Li3  1  0.78315900  0.18234000  0.54595900  1
  Li  Li4  1  0.39705700  0.20386600  0.55386800  1
  Li  Li5  1  0.69321300  0.36355200  0.77997700  1
  Li  Li6  1  0.63414900  0.81136300  0.06760100  1
  Li  Li7  1  0.77900300  0.61986300  0.54651500  1
  Li  Li8  1  0.03260500  0.03313000  0.98457400  1
  Li  Li9  1  0.02004500  0.01626000  0.47838600  1
  Mn  Mn0  1  0.35010500  0.17664500  0.28302400  1
  Mn  Mn1  1  0.18952200  0.35966600  0.78254900  1
  Mn  Mn2  1  0.18992500  0.85214400  0.78439400  1
  Co  Co0  1  0.68295200  0.34106000  0.03308100  1
  Co  Co1  1  0.34958100  0.68171600  0.52509600  1
  Ni  Ni0  1  0.68690700  0.85465800  0.78687700  1
  Ni  Ni1  1  0.84265100  0.17676000  0.28653000  1
  Ni  Ni2  1  0.84212900  0.67049300  0.28839900  1
  O  O0  1  0.02461000  0.00904100  0.17302800  1
  O  O1  1  0.03828200  0.02720100  0.67654300  1
  O  O2  1  0.19685500  0.33766100  0.40097400  1
  O  O3  1  0.35096500  0.18719900  0.89417200  1
  O  O4  1  0.50083300  0.01573500  0.16369100  1
  O  O5  1  0.03100500  0.52683400  0.66714900  1
  O  O6  1  0.49947600  0.47974200  0.16208200  1
  O  O7  1  0.34051700  0.68101100  0.89667200  1
  O  O8  1  0.66110800  0.33613200  0.40352900  1
  O  O9  1  0.49195700  0.51200200  0.67061400  1
  O  O10  1  0.20066700  0.87090200  0.40130400  1
  O  O11  1  0.88449500  0.20748000  0.90048100  1
  O  O12  1  0.49250100  0.99598000  0.67114800  1
  O  O13  1  0.98108600  0.49018900  0.16360500  1
  O  O14  1  0.68758000  0.84761200  0.41893200  1
  O  O15  1  0.88685600  0.70816200  0.90092400  1
loop_
_geom_bond_atom_site_label_1
_geom_bond_atom_site_label_2
_geom_bond_distance
_geom_bond_site_symmetry_2
Li0 O13 1.866655 1_455
Li0 O4 1.948471 1_565
Li0 O0 2.091634 1_565
Li0 O15 2.192729 1_454
Li0 O7 2.268965 1_554
Li1 O13 1.848465 1_455
Li1 O6 1.938017 1_555
Li1 O7 2.115308 1_554
Li1 O11 2.203344 1_454
Li1 O0 2.425176 1_555
Li2 O4 2.108337 1_565
Li2 O6 2.123905 1_555
Li2 O10 2.134986 1_555
Li2 O14 2.139505 1_555
Li2 O2 2.150771 1_555
Li2 O13 2.231535 1_455
Li3 O12 1.982620 1_545
Li3 O8 1.989793 1_555
Li3 O14 2.149253 1_545
Li3 O5 2.158184 1_655
Li3 O1 2.475885 1_655
Li4 O12 1.969340 1_545
Li4 O9 1.969464 1_555
Li4 O8 2.033706 1_555
Li4 O1 2.236017 1_555
Li4 O10 2.253789 1_545
Li4 O2 2.278346 1_555
Li5 O5 2.090692 1_655
Li5 O9 2.092988 1_555
Li5 O15 2.115786 1_555
Li5 O3 2.118431 1_555
Li5 O11 2.137878 1_555
Li5 O12 2.155858 1_545
Li6 O6 1.975992 1_555
Li6 O4 1.984547 1_565
Li6 O7 2.226666 1_554
Li6 O0 2.238179 1_665
Li6 O15 2.502244 1_554
Li7 O9 1.951225 1_555
Li7 O8 2.006061 1_555
Li7 O14 2.107225 1_555
Li7 O5 2.171554 1_655
Li7 O1 2.452417 1_665
Li8 O0 1.849561 1_556
Li8 O11 1.851851 1_455
Li8 O15 1.852676 1_445
Li8 O3 1.888983 1_555
Li9 O14 1.796969 1_445
Li9 O10 1.843542 1_545
Li9 O2 1.848480 1_555
Li9 O1 1.936645 1_555
Mn0 O8 1.964438 1_555
Mn0 O0 1.969465 1_555
Mn0 O10 1.983578 1_545
Mn0 O4 1.983945 1_555
Mn0 O2 1.987025 1_555
Mn0 O6 1.988426 1_555
Mn1 O9 1.933039 1_555
Mn1 O7 1.978329 1_555
Mn1 O11 1.978908 1_455
Mn1 O1 1.986565 1_555
Mn1 O5 2.017683 1_555
Mn1 O3 2.033100 1_555
Mn2 O12 1.941023 1_555
Mn2 O15 1.962319 1_455
Mn2 O1 1.983775 1_565
Mn2 O7 1.985300 1_555
Mn2 O5 2.010936 1_555
Mn2 O3 2.014685 1_565
Co0 O13 1.971236 1_555
Co0 O6 2.090913 1_555
Co0 O4 2.144061 1_555
Co0 O3 2.157774 1_554
Co0 O11 2.171820 1_554
Co0 O15 2.329798 1_554
Co1 O14 2.056412 1_555
Co1 O10 2.121701 1_555
Co1 O2 2.130966 1_555
Co1 O12 2.137273 1_555
Co1 O9 2.145439 1_555
Co1 O5 2.183360 1_555
Ni0 O12 2.064875 1_555
Ni0 O9 2.083961 1_555
Ni0 O15 2.102453 1_555
Ni0 O7 2.112826 1_555
Ni0 O11 2.114154 1_565
Ni0 O1 2.137632 1_665
Ni1 O13 2.044842 1_555
Ni1 O8 2.097392 1_555
Ni1 O4 2.107248 1_555
Ni1 O0 2.116057 1_655
Ni1 O2 2.119012 1_655
Ni1 O14 2.165814 1_545
Ni2 O13 2.049081 1_555
Ni2 O8 2.091187 1_555
Ni2 O0 2.110561 1_665
Ni2 O6 2.131418 1_555
Ni2 O10 2.131802 1_655
Ni2 O14 2.132181 1_555
