# generated using pymatgen
data_Ti
_symmetry_space_group_name_H-M   'P 1'
_cell_length_a   5.63199734
_cell_length_b   5.63200000
_cell_length_c   5.63199888
_cell_angle_alpha   109.47120148
_cell_angle_beta   109.47121108
_cell_angle_gamma   109.47125250
_symmetry_Int_Tables_number   1
_chemical_formula_structural   Ti
_chemical_formula_sum   Ti8
_cell_volume   137.51996048
_cell_formula_units_Z   8
loop_
 _symmetry_equiv_pos_site_id
 _symmetry_equiv_pos_as_xyz
  1  'x, y, z'
loop_
 _atom_site_type_symbol
 _atom_site_label
 _atom_site_symmetry_multiplicity
 _atom_site_fract_x
 _atom_site_fract_y
 _atom_site_fract_z
 _atom_site_occupancy
  Ti  Ti0_0  1  0.00000000  0.00000000  0.00000000  1
  Ti  Ti0_1  1  0.00000000  0.00000000  0.50000000  1
  Ti  Ti0_2  1  0.00000000  0.50000000  0.00000000  1
  Ti  Ti0_3  1  0.00000000  0.50000000  0.50000000  1
  Ti  Ti0_4  1  0.50000000  0.00000000  0.00000000  1
  Ti  Ti0_5  1  0.50000000  0.00000000  0.50000000  1
  Ti  Ti0_6  1  0.50000000  0.50000000  0.00000000  1
  Ti  Ti0_7  1  0.50000000  0.50000000  0.50000000  1
loop_
_geom_bond_atom_site_label_1
_geom_bond_atom_site_label_2
_geom_bond_distance
_geom_bond_site_symmetry_2
Ti0_0 Ti0_4 2.815999 1_455
Ti0_0 Ti0_4 2.815999 1_555
Ti0_0 Ti0_7 2.815999 1_555
Ti0_0 Ti0_7 2.815999 1_444
Ti0_0 Ti0_1 2.815999 1_554
Ti0_0 Ti0_1 2.815999 1_555
Ti0_0 Ti0_2 2.816000 1_545
Ti0_0 Ti0_2 2.816000 1_555
Ti0_1 Ti0_5 2.815999 1_555
Ti0_1 Ti0_5 2.815999 1_455
Ti0_1 Ti0_6 2.815999 1_445
Ti0_1 Ti0_6 2.815999 1_556
Ti0_1 Ti0_3 2.816000 1_555
Ti0_1 Ti0_3 2.816000 1_545
Ti0_2 Ti0_6 2.815999 1_455
Ti0_2 Ti0_6 2.815999 1_555
Ti0_2 Ti0_5 2.815999 1_454
Ti0_2 Ti0_5 2.815999 1_565
Ti0_2 Ti0_3 2.815999 1_555
Ti0_2 Ti0_3 2.815999 1_554
Ti0_3 Ti0_7 2.815999 1_455
Ti0_3 Ti0_7 2.815999 1_555
Ti0_3 Ti0_4 2.815999 1_566
Ti0_3 Ti0_4 2.815999 1_455
Ti0_4 Ti0_5 2.815999 1_555
Ti0_4 Ti0_5 2.815999 1_554
Ti0_4 Ti0_6 2.816000 1_555
Ti0_4 Ti0_6 2.816000 1_545
Ti0_5 Ti0_7 2.816000 1_555
Ti0_5 Ti0_7 2.816000 1_545
Ti0_6 Ti0_7 2.815999 1_554
Ti0_6 Ti0_7 2.815999 1_555
