# generated using pymatgen
data_Li3Ti4O8
_symmetry_space_group_name_H-M   'P 1'
_cell_length_a   2.94573300
_cell_length_b   5.12622300
_cell_length_c   9.93246024
_cell_angle_alpha   87.56284789
_cell_angle_beta   90.00000000
_cell_angle_gamma   90.00000000
_symmetry_Int_Tables_number   1
_chemical_formula_structural   Li3Ti4O8
_chemical_formula_sum   'Li3 Ti4 O8'
_cell_volume   149.84929311
_cell_formula_units_Z   1
loop_
 _symmetry_equiv_pos_site_id
 _symmetry_equiv_pos_as_xyz
  1  'x, y, z'
loop_
 _atom_site_type_symbol
 _atom_site_label
 _atom_site_symmetry_multiplicity
 _atom_site_fract_x
 _atom_site_fract_y
 _atom_site_fract_z
 _atom_site_occupancy
  Li  Li0  1  0.00000000  0.58610100  0.08582300  1
  Li  Li1  1  0.50000000  0.42641900  0.90372900  1
  Li  Li2  1  0.50000000  0.07069300  0.45663900  1
  Ti  Ti0  1  0.00000000  0.94084900  0.85533200  1
  Ti  Ti1  1  0.00000000  0.54752900  0.36546100  1
  Ti  Ti2  1  0.50000000  0.46039600  0.63382000  1
  Ti  Ti3  1  0.50000000  0.06034300  0.13756300  1
  O  O0  1  0.00000000  0.83994200  0.22630500  1
  O  O1  1  0.50000000  0.77692100  0.98330700  1
  O  O2  1  0.50000000  0.70939400  0.47407300  1
  O  O3  1  0.00000000  0.63558800  0.74462000  1
  O  O4  1  0.50000000  0.33802300  0.27133200  1
  O  O5  1  0.00000000  0.28065000  0.52570700  1
  O  O6  1  0.00000000  0.23217300  0.01620700  1
  O  O7  1  0.50000000  0.15537700  0.77128100  1
loop_
_geom_bond_atom_site_label_1
_geom_bond_atom_site_label_2
_geom_bond_distance
_geom_bond_site_symmetry_2
Li0 O0 1.947975 1_555
Li0 O6 1.968894 1_555
Li0 O1 2.019475 1_454
Li0 O1 2.019475 1_554
Li1 O7 1.953606 1_555
Li1 O1 1.993448 1_555
Li1 O6 2.077099 1_656
Li1 O6 2.077099 1_556
Li1 O3 2.381685 1_555
Li1 O3 2.381685 1_655
Li2 O2 1.852831 1_545
Li2 O5 1.964978 1_555
Li2 O5 1.964978 1_655
Li2 O4 2.247466 1_555
O0 Ti1 1.995267 1_555
O0 Ti3 2.034222 1_565
O0 Ti3 2.034222 1_465
O1 Ti0 2.097704 1_555
O1 Ti0 2.097704 1_655
O1 Ti3 2.155840 1_566
O2 Ti2 1.993630 1_555
O2 Ti1 2.024286 1_655
O2 Ti1 2.024286 1_555
O3 Ti0 1.950454 1_555
O3 Ti2 2.066655 1_555
O3 Ti2 2.066655 1_455
O4 Ti3 1.988060 1_555
O4 Ti1 2.069360 1_555
O4 Ti1 2.069360 1_655
O5 Ti1 2.054207 1_555
O5 Ti2 2.062911 1_455
O5 Ti2 2.062911 1_555
O6 Ti3 2.075528 1_555
O6 Ti3 2.075528 1_455
O6 Ti0 2.233025 1_544
O7 Ti0 1.999396 1_645
O7 Ti0 1.999396 1_545
O7 Ti2 2.031597 1_555
