# generated using pymatgen
data_HoInO3
_symmetry_space_group_name_H-M   'P 1'
_cell_length_a   6.26308628
_cell_length_b   6.26307956
_cell_length_c   12.24559480
_cell_angle_alpha   90.00000413
_cell_angle_beta   89.99999706
_cell_angle_gamma   120.00011304
_symmetry_Int_Tables_number   1
_chemical_formula_structural   HoInO3
_chemical_formula_sum   'Ho6 In6 O18'
_cell_volume   415.99330878
_cell_formula_units_Z   6
loop_
 _symmetry_equiv_pos_site_id
 _symmetry_equiv_pos_as_xyz
  1  'x, y, z'
loop_
 _atom_site_type_symbol
 _atom_site_label
 _atom_site_symmetry_multiplicity
 _atom_site_fract_x
 _atom_site_fract_y
 _atom_site_fract_z
 _atom_site_occupancy
  Ho  Ho0  1  0.33333304  0.66666712  0.23015139  1
  Ho  Ho1  1  -0.00000060  -0.00000009  0.26585378  1
  Ho  Ho2  1  0.00000040  0.00000020  0.76585397  1
  Ho  Ho3  1  0.33333299  0.66666556  0.73015109  1
  Ho  Ho4  1  0.66666634  0.33333257  0.73015130  1
  Ho  Ho5  1  0.66666725  0.33333401  0.23015132  1
  In  In0  1  0.00000077  0.66669036  0.49593007  1
  In  In1  1  0.00000027  0.33331034  0.99592961  1
  In  In2  1  0.33330992  0.33330959  0.49593006  1
  In  In3  1  0.66669019  0.66669053  0.99592971  1
  In  In4  1  0.33331023  0.00000023  0.99592984  1
  In  In5  1  0.66669012  -0.00000078  0.49593022  1
  O  O0  1  0.00000030  0.69595278  0.66790966  1
  O  O1  1  -0.00000032  0.63512206  0.32618788  1
  O  O2  1  -0.00000005  0.36487700  0.82618857  1
  O  O3  1  -0.00000067  0.30404708  0.16790984  1
  O  O4  1  0.33333323  0.66666683  0.02657895  1
  O  O5  1  0.00000085  0.00000090  0.46197490  1
  O  O6  1  -0.00000012  -0.00000009  0.96197484  1
  O  O7  1  0.33333347  0.66666588  0.52657856  1
  O  O8  1  0.30404824  0.30404800  0.66790932  1
  O  O9  1  0.36487828  0.36487839  0.32618735  1
  O  O10  1  0.30404635  -0.00000050  0.16790971  1
  O  O11  1  0.63512239  0.63512257  0.82618818  1
  O  O12  1  0.69595170  0.69595215  0.16790969  1
  O  O13  1  0.36487713  -0.00000009  0.82618860  1
  O  O14  1  0.66666852  0.33333330  0.52657875  1
  O  O15  1  0.66666670  0.33333333  0.02657900  1
  O  O16  1  0.63512205  0.00000026  0.32618802  1
  O  O17  1  0.69595301  0.00000053  0.66790986  1
loop_
_geom_bond_atom_site_label_1
_geom_bond_atom_site_label_2
_geom_bond_distance
_geom_bond_site_symmetry_2
Ho0 O10 2.314292 1_565
Ho0 O3 2.314295 1_555
Ho0 O12 2.314295 1_555
Ho0 O16 2.316908 1_565
Ho0 O9 2.316909 1_555
Ho0 O1 2.316910 1_555
Ho0 O4 2.492866 1_555
Ho1 O3 2.250504 1_555
Ho1 O12 2.250506 1_445
Ho1 O10 2.250506 1_555
Ho1 O5 2.401620 1_555
Ho1 O9 2.401724 1_555
Ho1 O1 2.401724 1_545
Ho1 O16 2.401724 1_455
Ho2 O0 2.250507 1_545
Ho2 O17 2.250509 1_455
Ho2 O8 2.250510 1_555
Ho2 O6 2.401617 1_555
Ho2 O2 2.401720 1_555
Ho2 O11 2.401721 1_445
Ho2 O13 2.401722 1_555
Ho3 O8 2.314287 1_555
Ho3 O0 2.314296 1_555
Ho3 O17 2.314297 1_565
Ho3 O2 2.316913 1_555
Ho3 O11 2.316914 1_555
Ho3 O13 2.316922 1_565
Ho3 O7 2.492867 1_555
Ho4 O17 2.314289 1_555
Ho4 O8 2.314294 1_555
Ho4 O0 2.314296 1_655
Ho4 O13 2.316911 1_555
Ho4 O11 2.316917 1_555
Ho4 O2 2.316918 1_655
Ho4 O14 2.492867 1_555
Ho5 O12 2.314291 1_555
Ho5 O3 2.314292 1_655
Ho5 O10 2.314300 1_555
Ho5 O1 2.316904 1_655
Ho5 O9 2.316909 1_555
Ho5 O16 2.316911 1_555
Ho5 O15 2.492864 1_555
In0 O1 2.087976 1_555
In0 O0 2.113952 1_555
In0 O14 2.121228 1_455
In0 O7 2.121234 1_555
In0 O5 2.128557 1_565
In1 O2 2.087961 1_555
In1 O3 2.113960 1_556
In1 O4 2.121230 1_556
In1 O15 2.121236 1_456
In1 O6 2.128555 1_555
In2 O9 2.087983 1_555
In2 O8 2.113947 1_555
In2 O7 2.121229 1_555
In2 O14 2.121245 1_555
In2 O5 2.128545 1_555
In3 O11 2.087968 1_555
In3 O12 2.113956 1_556
In3 O4 2.121236 1_556
In3 O15 2.121236 1_556
In3 O6 2.128548 1_665
In4 O13 2.087964 1_555
In4 O10 2.113956 1_556
In4 O15 2.121230 1_556
In4 O4 2.121233 1_546
In4 O6 2.128557 1_555
In5 O16 2.087976 1_555
In5 O17 2.113952 1_555
In5 O7 2.121229 1_545
In5 O14 2.121231 1_555
In5 O5 2.128556 1_655
