# generated using pymatgen
data_Li5Mn6(BO3)6
_symmetry_space_group_name_H-M   'P 1'
_cell_length_a   8.83475200
_cell_length_b   8.87872518
_cell_length_c   10.43447664
_cell_angle_alpha   98.22383986
_cell_angle_beta   98.71572356
_cell_angle_gamma   108.44315638
_symmetry_Int_Tables_number   1
_chemical_formula_structural   Li5Mn6(BO3)6
_chemical_formula_sum   'Li10 Mn12 B12 O36'
_cell_volume   751.40131811
_cell_formula_units_Z   2
loop_
 _symmetry_equiv_pos_site_id
 _symmetry_equiv_pos_as_xyz
  1  'x, y, z'
loop_
 _atom_site_type_symbol
 _atom_site_label
 _atom_site_symmetry_multiplicity
 _atom_site_fract_x
 _atom_site_fract_y
 _atom_site_fract_z
 _atom_site_occupancy
  Li  Li0  1  0.81029900  0.09767000  0.79539100  1
  Li  Li1  1  0.46602300  0.48876500  0.76887200  1
  Li  Li2  1  0.22415700  0.23481100  0.51998700  1
  Li  Li3  1  0.83224600  0.54128900  0.55443700  1
  Li  Li4  1  0.56163900  0.83953200  0.54466700  1
  Li  Li5  1  0.59125300  0.29206800  0.30915600  1
  Li  Li6  1  0.97374700  0.98536600  0.27280700  1
  Li  Li7  1  0.34352700  0.04835700  0.06530100  1
  Li  Li8  1  0.06688100  0.34845500  0.04481100  1
  Li  Li9  1  0.71829900  0.74170100  0.02063400  1
  Mn  Mn0  1  0.18569200  0.16433900  0.82486200  1
  Mn  Mn1  1  0.83775600  0.48454600  0.84108400  1
  Mn  Mn2  1  0.47125400  0.85123600  0.83763900  1
  Mn  Mn3  1  0.58706700  0.22403900  0.59581800  1
  Mn  Mn4  1  0.21625600  0.60135800  0.58855200  1
  Mn  Mn5  1  0.93570700  0.92343700  0.57427500  1
  Mn  Mn6  1  0.34008800  0.95235700  0.35040300  1
  Mn  Mn7  1  0.99250700  0.35034400  0.33216500  1
  Mn  Mn8  1  0.68173800  0.67930700  0.31577100  1
  Mn  Mn9  1  0.08949900  0.72945000  0.08708200  1
  Mn  Mn10  1  0.72749000  0.10677200  0.08546900  1
  Mn  Mn11  1  0.43527700  0.42958400  0.07085700  1
  B  B0  1  0.54043200  0.21030800  0.87312700  1
  B  B1  1  0.20941700  0.53206600  0.86755700  1
  B  B2  1  0.73849300  0.74988900  0.74766300  1
  B  B3  1  0.96553500  0.29331000  0.62725900  1
  B  B4  1  0.28716800  0.94971400  0.61592200  1
  B  B5  1  0.50002000  0.50019300  0.50217900  1
  B  B6  1  0.04792600  0.71181300  0.38457400  1
  B  B7  1  0.71034000  0.04204000  0.37191100  1
  B  B8  1  0.25030400  0.23283700  0.25115100  1
  B  B9  1  0.79488700  0.46589700  0.12532100  1
  B  B10  1  0.46075300  0.80154100  0.12613800  1
  B  B11  1  0.99663900  0.00756100  0.00741500  1
  O  O0  1  0.99967200  0.12606900  0.93153300  1
  O  O1  1  0.42235700  0.20019100  0.94835300  1
  O  O2  1  0.09051900  0.53263800  0.93967200  1
  O  O3  1  0.29584300  0.42855300  0.88138400  1
  O  O4  1  0.62679900  0.10353700  0.87691100  1
  O  O5  1  0.57388600  0.32463500  0.79331500  1
  O  O6  1  0.24898300  0.63917700  0.78181000  1
  O  O7  1  0.62679900  0.71771000  0.83080900  1
  O  O8  1  0.05279800  0.19001300  0.63150600  1
  O  O9  1  0.83685600  0.27797800  0.69133000  1
  O  O10  1  0.17387600  0.95462500  0.68887000  1
  O  O11  1  0.82742500  0.65046600  0.72563600  1
  O  O12  1  0.32808600  0.05891900  0.53028100  1
  O  O13  1  0.75565400  0.88234200  0.68513200  1
  O  O14  1  0.36773300  0.83650100  0.62193000  1
  O  O15  1  0.37647700  0.46405900  0.57494700  1
  O  O16  1  0.00334800  0.41758100  0.55425800  1
  O  O17  1  0.57768700  0.01674100  0.43681200  1
  O  O18  1  0.59582700  0.40111400  0.48861200  1
  O  O19  1  0.13932400  0.61094200  0.40265100  1
  O  O20  1  0.53239300  0.63382800  0.44591500  1
  O  O21  1  0.13425100  0.20444300  0.33094300  1
  O  O22  1  0.91540700  0.69848300  0.44220100  1
  O  O23  1  0.09511700  0.82910000  0.30771600  1
  O  O24  1  0.74537700  0.16588400  0.30284700  1
  O  O25  1  0.35993200  0.14811400  0.25467300  1
  O  O26  1  0.80212300  0.94265500  0.38224600  1
  O  O27  1  0.25292600  0.34111800  0.16886200  1
  O  O28  1  0.66893900  0.45170900  0.19344900  1
  O  O29  1  0.33955300  0.79639200  0.19886700  1
  O  O30  1  0.54382500  0.69390500  0.13005100  1
  O  O31  1  0.88534800  0.36283900  0.13435400  1
  O  O32  1  0.11129200  0.93318000  0.01033700  1
  O  O33  1  0.83175500  0.58253400  0.04763100  1
  O  O34  1  0.49115100  0.91559200  0.04718100  1
  O  O35  1  0.87625400  0.96672000  0.08263700  1
loop_
_geom_bond_atom_site_label_1
_geom_bond_atom_site_label_2
_geom_bond_distance
_geom_bond_site_symmetry_2
Li0 O0 1.947063 1_555
Li0 O4 1.952732 1_555
Li0 O13 1.957103 1_545
Li0 O9 2.033175 1_555
Li1 O5 2.002025 1_555
Li1 O15 2.011621 1_555
Li1 O7 2.021473 1_555
Li1 O3 2.032367 1_555
Li2 O21 1.957588 1_555
Li2 O15 1.995461 1_555
Li2 O8 2.022253 1_555
Li2 O12 2.053993 1_555
Li3 O11 1.919995 1_555
Li3 O22 1.984645 1_555
Li3 O18 2.014763 1_555
Li3 O16 2.131267 1_655
Li4 O20 1.883233 1_555
Li4 O13 1.974272 1_555
Li4 O14 1.995253 1_555
Li4 O17 2.043523 1_565
Li5 O18 1.969530 1_555
Li5 O25 1.980066 1_555
Li5 O28 2.015677 1_555
Li5 O24 2.021118 1_555
Li6 O21 1.954176 1_665
Li6 O35 2.001162 1_555
Li6 O26 2.007905 1_555
Li6 O23 2.043277 1_655
Li7 O32 1.931929 1_545
Li7 O1 1.981321 1_554
Li7 O25 2.010312 1_555
Li7 O34 2.027313 1_545
Li8 O27 1.956640 1_555
Li8 O31 2.002763 1_455
Li8 O0 2.006529 1_454
Li8 O2 2.070751 1_554
Li9 O7 1.976666 1_554
Li9 O35 1.987471 1_555
Li9 O33 2.001449 1_555
Li9 O30 2.029207 1_555
Mn0 O0 2.089137 1_455
Mn0 O10 2.137225 1_545
Mn0 O1 2.185978 1_555
Mn0 O3 2.187197 1_555
Mn0 O8 2.254781 1_555
Mn1 O11 2.046734 1_555
Mn1 O2 2.191374 1_655
Mn1 O33 2.220822 1_556
Mn1 O9 2.229955 1_555
Mn1 O5 2.247229 1_555
Mn2 O7 2.082150 1_555
Mn2 O34 2.144892 1_556
Mn2 O4 2.166428 1_565
Mn2 O6 2.177303 1_555
Mn2 O14 2.266253 1_555
Mn3 O18 2.044882 1_555
Mn3 O9 2.149621 1_555
Mn3 O5 2.161037 1_555
Mn3 O12 2.229045 1_555
Mn3 O17 2.266149 1_555
Mn4 O6 1.957285 1_555
Mn4 O19 1.978938 1_555
Mn4 O16 2.003902 1_555
Mn4 O14 2.038118 1_555
Mn4 O15 2.147811 1_555
Mn5 O13 2.076709 1_555
Mn5 O10 2.169808 1_655
Mn5 O22 2.198093 1_555
Mn5 O8 2.210877 1_665
Mn5 O26 2.223825 1_555
Mn6 O29 1.945505 1_555
Mn6 O12 2.011231 1_565
Mn6 O17 2.016375 1_565
Mn6 O23 2.037114 1_555
Mn6 O25 2.099136 1_565
Mn7 O21 2.067119 1_655
Mn7 O31 2.169945 1_555
Mn7 O19 2.214061 1_655
Mn7 O24 2.221386 1_555
Mn7 O16 2.288403 1_655
Mn8 O20 2.027522 1_555
Mn8 O30 2.170939 1_555
Mn8 O28 2.190720 1_555
Mn8 O26 2.195089 1_555
Mn8 O22 2.217907 1_555
Mn9 O32 2.047215 1_555
Mn9 O2 2.159803 1_554
Mn9 O33 2.176945 1_455
Mn9 O29 2.187267 1_555
Mn9 O23 2.332437 1_555
Mn10 O35 2.076009 1_545
Mn10 O34 2.170546 1_545
Mn10 O31 2.195591 1_555
Mn10 O4 2.215230 1_554
Mn10 O24 2.223421 1_555
Mn11 O27 2.046109 1_555
Mn11 O3 2.162382 1_554
Mn11 O30 2.188740 1_555
Mn11 O28 2.192636 1_555
Mn11 O1 2.204334 1_554
B0 O1 1.386158 1_555
B0 O5 1.392084 1_555
B0 O4 1.393456 1_555
B1 O3 1.377342 1_555
B1 O2 1.382571 1_555
B1 O6 1.398217 1_555
B2 O11 1.372920 1_555
B2 O7 1.400025 1_555
B2 O13 1.402999 1_555
B3 O8 1.373366 1_655
B3 O9 1.384328 1_555
B3 O16 1.411945 1_655
B4 O10 1.353556 1_555
B4 O14 1.406467 1_555
B4 O12 1.411866 1_565
B5 O20 1.367378 1_555
B5 O15 1.403589 1_555
B5 O18 1.407895 1_555
B6 O22 1.375619 1_455
B6 O19 1.396230 1_555
B6 O23 1.402482 1_555
B7 O26 1.378863 1_545
B7 O24 1.379549 1_555
B7 O17 1.414224 1_555
B8 O27 1.374840 1_555
B8 O21 1.401145 1_555
B8 O25 1.401203 1_555
B9 O28 1.391409 1_555
B9 O33 1.393721 1_555
B9 O31 1.396217 1_555
B10 O30 1.378216 1_555
B10 O34 1.382015 1_555
B10 O29 1.396344 1_555
B11 O32 1.372137 1_645
B11 O0 1.400608 1_554
B11 O35 1.403262 1_545
