# generated using pymatgen
data_Li3MnNi3O8
_symmetry_space_group_name_H-M   'P 1'
_cell_length_a   5.91418786
_cell_length_b   5.91418786
_cell_length_c   5.91418813
_cell_angle_alpha   58.79636688
_cell_angle_beta   58.79636688
_cell_angle_gamma   58.79637447
_symmetry_Int_Tables_number   1
_chemical_formula_structural   Li3MnNi3O8
_chemical_formula_sum   'Li3 Mn1 Ni3 O8'
_cell_volume   142.25431060
_cell_formula_units_Z   1
loop_
 _symmetry_equiv_pos_site_id
 _symmetry_equiv_pos_as_xyz
  1  'x, y, z'
loop_
 _atom_site_type_symbol
 _atom_site_label
 _atom_site_symmetry_multiplicity
 _atom_site_fract_x
 _atom_site_fract_y
 _atom_site_fract_z
 _atom_site_occupancy
  Li  Li0  1  0.00000000  0.50000000  0.00000000  1
  Li  Li1  1  0.50000000  0.00000000  0.00000000  1
  Li  Li2  1  0.00000000  0.00000000  0.50000000  1
  Mn  Mn0  1  0.00000000  0.00000000  0.00000000  1
  Ni  Ni0  1  0.50000000  0.00000000  0.50000000  1
  Ni  Ni1  1  0.00000000  0.50000000  0.50000000  1
  Ni  Ni2  1  0.50000000  0.50000000  0.00000000  1
  O  O0  1  0.73694500  0.73694500  0.73694500  1
  O  O1  1  0.23065800  0.75830100  0.23065800  1
  O  O2  1  0.75830100  0.23065800  0.23065800  1
  O  O3  1  0.26305500  0.26305500  0.26305500  1
  O  O4  1  0.23065800  0.23065800  0.75830100  1
  O  O5  1  0.76934200  0.24169900  0.76934200  1
  O  O6  1  0.24169900  0.76934200  0.76934200  1
  O  O7  1  0.76934200  0.76934200  0.24169900  1
loop_
_geom_bond_atom_site_label_1
_geom_bond_atom_site_label_2
_geom_bond_distance
_geom_bond_site_symmetry_2
Li0 O2 2.128139 1_455
Li0 O6 2.128139 1_554
Li0 O7 2.128139 1_455
Li0 O4 2.128139 1_554
Li0 O3 2.189624 1_555
Li0 O0 2.189624 1_454
Li1 O1 2.128139 1_545
Li1 O5 2.128139 1_554
Li1 O7 2.128139 1_545
Li1 O4 2.128139 1_554
Li1 O3 2.189624 1_555
Li1 O0 2.189624 1_544
Li2 O1 2.128139 1_545
Li2 O6 2.128139 1_545
Li2 O5 2.128139 1_455
Li2 O2 2.128139 1_455
Li2 O3 2.189623 1_555
Li2 O0 2.189623 1_445
Mn0 O4 1.911115 1_554
Mn0 O7 1.911115 1_445
Mn0 O1 1.911116 1_545
Mn0 O5 1.911116 1_454
Mn0 O2 1.911116 1_455
Mn0 O6 1.911116 1_544
Ni0 O0 1.965877 1_545
Ni0 O3 1.965877 1_555
Ni0 O2 2.029365 1_555
Ni0 O6 2.029365 1_545
Ni0 O7 2.029365 1_545
Ni0 O4 2.029365 1_555
Ni1 O0 1.965877 1_455
Ni1 O3 1.965877 1_555
Ni1 O1 2.029365 1_555
Ni1 O5 2.029365 1_455
Ni1 O7 2.029365 1_455
Ni1 O4 2.029365 1_555
Ni2 O3 1.965877 1_555
Ni2 O0 1.965877 1_554
Ni2 O1 2.029365 1_555
Ni2 O5 2.029365 1_554
Ni2 O2 2.029365 1_555
Ni2 O6 2.029365 1_554
