# generated using pymatgen
data_Li4V3CrO8
_symmetry_space_group_name_H-M   'P 1'
_cell_length_a   5.18761200
_cell_length_b   5.99604525
_cell_length_c   10.75571427
_cell_angle_alpha   98.09333637
_cell_angle_beta   103.72211165
_cell_angle_gamma   106.97467174
_symmetry_Int_Tables_number   1
_chemical_formula_structural   Li4V3CrO8
_chemical_formula_sum   'Li8 V6 Cr2 O16'
_cell_volume   302.80287730
_cell_formula_units_Z   2
loop_
 _symmetry_equiv_pos_site_id
 _symmetry_equiv_pos_as_xyz
  1  'x, y, z'
loop_
 _atom_site_type_symbol
 _atom_site_label
 _atom_site_symmetry_multiplicity
 _atom_site_fract_x
 _atom_site_fract_y
 _atom_site_fract_z
 _atom_site_occupancy
  Li  Li0  1  0.99915300  0.25020700  0.00026400  1
  Li  Li1  1  0.74787900  0.87189300  0.74843900  1
  Li  Li2  1  0.24710300  0.62259900  0.25032600  1
  Li  Li3  1  0.50000000  0.00000000  0.50000000  1
  Li  Li4  1  0.00084700  0.74979300  0.99973600  1
  Li  Li5  1  0.75289700  0.37740100  0.74967400  1
  Li  Li6  1  0.25212100  0.12810700  0.25156100  1
  Li  Li7  1  0.50000000  0.50000000  0.50000000  1
  V  V0  1  0.37623900  0.06227100  0.87476800  1
  V  V1  1  0.62476400  0.43711500  0.12489700  1
  V  V2  1  0.87414600  0.81286200  0.37461400  1
  V  V3  1  0.37523600  0.56288500  0.87510300  1
  V  V4  1  0.12585400  0.18713800  0.62538600  1
  V  V5  1  0.62376100  0.93772900  0.12523200  1
  Cr  Cr0  1  0.87449900  0.31340100  0.37554200  1
  Cr  Cr1  1  0.12550100  0.68659900  0.62445800  1
  O  O0  1  0.16475900  0.64921900  0.43940000  1
  O  O1  1  0.58479200  0.47264000  0.31109700  1
  O  O2  1  0.67101700  0.40246100  0.93917700  1
  O  O3  1  0.08292000  0.22223200  0.81138000  1
  O  O4  1  0.83553600  0.84593100  0.56052000  1
  O  O5  1  0.41705600  0.02339800  0.68827800  1
  O  O6  1  0.91708000  0.77776800  0.18862000  1
  O  O7  1  0.32898300  0.59753900  0.06082300  1
  O  O8  1  0.16446400  0.15406900  0.43948000  1
  O  O9  1  0.58294400  0.97660200  0.31172200  1
  O  O10  1  0.66819600  0.90182700  0.93869900  1
  O  O11  1  0.08317000  0.72337100  0.80934800  1
  O  O12  1  0.41520800  0.52736000  0.68890300  1
  O  O13  1  0.91683000  0.27662900  0.19065200  1
  O  O14  1  0.83524100  0.35078100  0.56060000  1
  O  O15  1  0.33180400  0.09817300  0.06130100  1
loop_
_geom_bond_atom_site_label_1
_geom_bond_atom_site_label_2
_geom_bond_distance
_geom_bond_site_symmetry_2
Li0 O7 2.167443 1_655
Li0 O2 2.169888 1_554
Li0 O3 2.170194 1_654
Li0 O10 2.174105 1_544
Li0 O13 2.182624 1_555
Li0 O15 2.188493 1_655
Li1 O12 2.162764 1_555
Li1 O4 2.169115 1_555
Li1 O10 2.175312 1_555
Li1 O5 2.176743 1_565
Li1 O11 2.185346 1_655
Li1 O3 2.191208 1_665
Li2 O13 2.163072 1_455
Li2 O0 2.168901 1_555
Li2 O7 2.172371 1_555
Li2 O6 2.191360 1_455
Li2 O1 2.201479 1_555
Li2 O9 2.208417 1_555
Li3 O5 2.162025 1_555
Li3 O9 2.162025 1_545
Li3 O0 2.193985 1_545
Li3 O14 2.193985 1_555
Li3 O8 2.208532 1_555
Li3 O4 2.208532 1_545
Li4 O2 2.167443 1_455
Li4 O7 2.169888 1_556
Li4 O6 2.170194 1_456
Li4 O15 2.174105 1_566
Li4 O11 2.182624 1_555
Li4 O10 2.188493 1_455
Li5 O11 2.163072 1_655
Li5 O14 2.168901 1_555
Li5 O2 2.172371 1_555
Li5 O3 2.191360 1_655
Li5 O12 2.201479 1_555
Li5 O5 2.208417 1_555
Li6 O1 2.162764 1_555
Li6 O8 2.169115 1_555
Li6 O15 2.175312 1_555
Li6 O9 2.176743 1_545
Li6 O13 2.185346 1_455
Li6 O6 2.191208 1_445
Li7 O1 2.172749 1_555
Li7 O12 2.172749 1_555
Li7 O8 2.174866 1_555
Li7 O4 2.174866 1_555
Li7 O14 2.187423 1_555
Li7 O0 2.187423 1_555
Cr0 O0 2.035467 1_655
Cr0 O14 2.036388 1_555
Cr0 O13 2.040454 1_555
Cr0 O9 2.042222 1_545
Cr0 O1 2.044696 1_555
Cr0 O8 2.044913 1_655
Cr1 O14 2.035467 1_455
Cr1 O0 2.036388 1_555
Cr1 O11 2.040454 1_555
Cr1 O5 2.042222 1_565
Cr1 O12 2.044696 1_555
Cr1 O4 2.044913 1_455
O0 V2 2.068578 1_455
O1 V1 2.049860 1_555
O1 V2 2.052933 1_555
O2 V1 2.056840 1_556
O2 V0 2.063327 1_555
O2 V3 2.073974 1_555
O3 V4 2.053315 1_555
O3 V0 2.060151 1_555
O3 V3 2.060472 1_555
O4 V2 2.044309 1_555
O4 V4 2.059395 1_665
O5 V0 2.054557 1_555
O5 V4 2.066819 1_555
O6 V2 2.053315 1_555
O6 V5 2.060151 1_555
O6 V1 2.060472 1_555
O7 V3 2.056840 1_554
O7 V5 2.063327 1_555
O7 V1 2.073974 1_555
O8 V4 2.044309 1_555
O8 V2 2.059395 1_445
O9 V5 2.054557 1_555
O9 V2 2.066819 1_555
O10 V3 2.054214 1_555
O10 V0 2.057951 1_565
O10 V5 2.061910 1_556
O11 V0 2.054691 1_565
O11 V3 2.063090 1_555
O12 V3 2.049860 1_555
O12 V4 2.052933 1_555
O13 V5 2.054691 1_545
O13 V1 2.063090 1_555
O14 V4 2.068578 1_655
O15 V1 2.054214 1_555
O15 V5 2.057951 1_545
O15 V0 2.061910 1_554
