# generated using pymatgen
data_Cs4Zr3Se14
_symmetry_space_group_name_H-M   'P 1'
_cell_length_a   12.36509275
_cell_length_b   12.36568620
_cell_length_c   14.74011767
_cell_angle_alpha   69.65112034
_cell_angle_beta   69.65384725
_cell_angle_gamma   42.58501410
_symmetry_Int_Tables_number   1
_chemical_formula_structural   Cs4Zr3Se14
_chemical_formula_sum   'Cs8 Zr6 Se28'
_cell_volume   1414.93278582
_cell_formula_units_Z   2
loop_
 _symmetry_equiv_pos_site_id
 _symmetry_equiv_pos_as_xyz
  1  'x, y, z'
loop_
 _atom_site_type_symbol
 _atom_site_label
 _atom_site_symmetry_multiplicity
 _atom_site_fract_x
 _atom_site_fract_y
 _atom_site_fract_z
 _atom_site_occupancy
  Cs  Cs0  1  0.97767664  0.61903851  0.60808678  1
  Cs  Cs1  1  0.61902457  0.97768208  0.10808638  1
  Cs  Cs2  1  0.81109916  0.31591625  0.84963636  1
  Cs  Cs3  1  0.31593713  0.81109339  0.34961505  1
  Cs  Cs4  1  0.68404832  0.18890081  0.65038241  1
  Cs  Cs5  1  0.18888816  0.68408022  0.15037023  1
  Cs  Cs6  1  0.38095773  0.02232008  0.89191639  1
  Cs  Cs7  1  0.02230238  0.38097226  0.39191790  1
  Zr  Zr0  1  0.41280939  0.92230875  0.58509072  1
  Zr  Zr1  1  0.92232139  0.41278995  0.08510842  1
  Zr  Zr2  1  0.24015929  0.75985068  0.75000403  1
  Zr  Zr3  1  0.75985978  0.24013817  0.24999554  1
  Zr  Zr4  1  0.07768174  0.58720034  0.91489864  1
  Zr  Zr5  1  0.58720118  0.07769042  0.41488623  1
  Se  Se0  1  0.93571909  0.90118944  0.86849762  1
  Se  Se1  1  0.80865773  0.84219760  0.83616458  1
  Se  Se2  1  0.90118676  0.93569664  0.36848703  1
  Se  Se3  1  0.56414226  -0.00321455  0.60165372  1
  Se  Se4  1  0.84215853  0.80870443  0.33612231  1
  Se  Se5  1  -0.00317553  0.56408052  0.10167207  1
  Se  Se6  1  0.69160153  0.60065356  0.60637154  1
  Se  Se7  1  0.45062196  0.74932832  0.78203259  1
  Se  Se8  1  0.20216809  0.87651714  0.89590145  1
  Se  Se9  1  0.47063086  0.65923187  0.58058516  1
  Se  Se10  1  0.60062680  0.69158155  0.10638334  1
  Se  Se11  1  0.74933665  0.45057983  0.28203532  1
  Se  Se12  1  0.34077200  0.52937237  0.91941938  1
  Se  Se13  1  0.87656394  0.20209295  0.39591695  1
  Se  Se14  1  0.12344998  0.79789973  0.60408506  1
  Se  Se15  1  0.65924759  0.47059973  0.08058498  1
  Se  Se16  1  0.25063172  0.54943782  0.71797318  1
  Se  Se17  1  0.39936003  0.30839936  0.89362892  1
  Se  Se18  1  0.52939975  0.34074444  0.41940609  1
  Se  Se19  1  0.79781936  0.12349509  0.10410271  1
  Se  Se20  1  0.54937807  0.25068222  0.21797402  1
  Se  Se21  1  0.30838907  0.39937739  0.39364919  1
  Se  Se22  1  0.00316734  0.43591631  0.89833729  1
  Se  Se23  1  0.15786155  0.19130216  0.66384654  1
  Se  Se24  1  0.43586706  0.00322183  0.39832259  1
  Se  Se25  1  0.09879841  0.06430730  0.63151171  1
  Se  Se26  1  0.19133977  0.15781895  0.16384149  1
  Se  Se27  1  0.06430773  0.09880408  0.13149707  1
loop_
_geom_bond_atom_site_label_1
_geom_bond_atom_site_label_2
_geom_bond_distance
_geom_bond_site_symmetry_2
Cs0 Se3 3.582179 1_565
Cs0 Se16 3.648313 1_655
Cs0 Se6 3.716925 1_555
Cs0 Se14 3.721583 1_655
Cs0 Se23 3.809529 1_655
Cs0 Se21 3.836361 1_655
Cs0 Se2 3.993967 1_555
Cs0 Se1 4.044597 1_555
Cs0 Se22 4.084126 1_655
Cs0 Se4 4.089518 1_555
Cs1 Se5 3.582790 1_655
Cs1 Se20 3.648746 1_565
Cs1 Se10 3.717458 1_555
Cs1 Se19 3.721331 1_565
Cs1 Se26 3.808996 1_565
Cs1 Se17 3.836363 1_564
Cs1 Se0 3.994174 1_554
Cs1 Se4 4.043719 1_555
Cs1 Se24 4.084125 1_565
Cs1 Se1 4.089039 1_554
Cs2 Se23 3.646800 1_655
Cs2 Se15 3.683466 1_556
Cs2 Se19 3.701032 1_556
Cs2 Se7 3.712330 1_555
Cs2 Se8 3.794336 1_645
Cs2 Se6 3.831565 1_555
Cs2 Se25 3.921466 1_655
Cs2 Se22 3.933623 1_655
Cs2 Se0 4.052353 1_545
Cs2 Se12 4.119566 1_555
Cs3 Se26 3.646388 1_565
Cs3 Se9 3.683579 1_555
Cs3 Se14 3.701226 1_555
Cs3 Se11 3.712343 1_555
Cs3 Se13 3.794059 1_465
Cs3 Se10 3.831182 1_555
Cs3 Se27 3.921199 1_565
Cs3 Se24 3.933663 1_565
Cs3 Se2 4.052449 1_455
Cs3 Se18 4.119952 1_555
Cs4 Se1 3.646256 1_545
Cs4 Se18 3.683447 1_555
Cs4 Se13 3.701284 1_555
Cs4 Se16 3.712539 1_555
Cs4 Se14 3.794207 1_645
Cs4 Se17 3.831334 1_555
Cs4 Se0 3.921378 1_545
Cs4 Se3 3.933412 1_555
Cs4 Se25 4.052514 1_655
Cs4 Se9 4.119936 1_555
Cs5 Se4 3.646261 1_455
Cs5 Se12 3.683560 1_554
Cs5 Se8 3.701123 1_554
Cs5 Se20 3.712285 1_555
Cs5 Se19 3.794424 1_465
Cs5 Se21 3.831591 1_555
Cs5 Se2 3.921414 1_455
Cs5 Se5 3.933546 1_555
Cs5 Se27 4.052534 1_565
Cs5 Se15 4.119812 1_555
Cs6 Se22 3.582736 1_555
Cs6 Se7 3.648482 1_545
Cs6 Se17 3.717288 1_555
Cs6 Se8 3.721149 1_545
Cs6 Se1 3.809229 1_545
Cs6 Se10 3.836541 1_546
Cs6 Se27 3.993844 1_556
Cs6 Se23 4.043873 1_555
Cs6 Se3 4.084511 1_555
Cs6 Se26 4.089155 1_556
Cs7 Se24 3.582339 1_555
Cs7 Se11 3.648343 1_455
Cs7 Se21 3.717344 1_555
Cs7 Se13 3.721413 1_455
Cs7 Se4 3.809634 1_455
Cs7 Se6 3.836542 1_455
Cs7 Se25 3.993941 1_555
Cs7 Se26 4.044474 1_555
Cs7 Se5 4.084037 1_555
Cs7 Se23 4.089193 1_555
Se0 Se1 2.382829 1_555
Se0 Zr4 2.752478 1_655
Se0 Zr2 2.852857 1_655
Se1 Zr4 2.654990 1_655
Se2 Se4 2.382700 1_555
Se2 Zr5 2.752197 1_565
Se2 Zr3 2.852858 1_565
Se3 Zr5 2.572898 1_555
Se3 Zr0 2.724164 1_545
Se4 Zr5 2.655081 1_565
Se5 Zr4 2.572967 1_554
Se5 Zr1 2.723999 1_455
Se6 Se9 2.398126 1_555
Se6 Zr0 2.737869 1_555
Se6 Se7 2.973513 1_555
Se7 Se8 2.421585 1_555
Se7 Zr2 2.706520 1_555
Se7 Zr0 2.893741 1_555
Se8 Zr2 2.717356 1_555
Se9 Zr0 2.791180 1_555
Se9 Zr2 2.810073 1_555
Se10 Se15 2.398201 1_555
Se10 Zr1 2.738083 1_555
Se10 Se11 2.973392 1_555
Se11 Se13 2.421819 1_555
Se11 Zr3 2.706487 1_555
Se11 Zr1 2.893676 1_555
Se12 Se17 2.398283 1_555
Se12 Zr4 2.791191 1_555
Se12 Zr2 2.809958 1_555
Se13 Zr3 2.717542 1_555
Se14 Se16 2.421719 1_555
Se14 Zr2 2.717529 1_555
Se15 Zr1 2.791141 1_555
Se15 Zr3 2.809831 1_555
Se16 Zr2 2.706523 1_555
Se16 Zr4 2.893554 1_555
Se16 Se17 2.973586 1_555
Se17 Zr4 2.738008 1_555
Se18 Se21 2.398012 1_555
Se18 Zr5 2.791124 1_555
Se18 Zr3 2.809934 1_555
Se19 Se20 2.421517 1_555
Se19 Zr3 2.717291 1_555
Se20 Zr3 2.706508 1_555
Se20 Zr5 2.893424 1_555
Se20 Se21 2.973741 1_555
Se21 Zr5 2.738086 1_555
Se22 Zr1 2.572925 1_456
Se22 Zr4 2.724029 1_555
Se23 Se25 2.382867 1_555
Se23 Zr0 2.655062 1_545
Se24 Zr0 2.572916 1_545
Se24 Zr5 2.724095 1_555
Se25 Zr0 2.752440 1_545
Se25 Zr2 2.852923 1_545
Se26 Se27 2.382818 1_555
Se26 Zr1 2.654910 1_455
Se27 Zr1 2.752355 1_455
Se27 Zr3 2.852955 1_455
