# generated using pymatgen
data_NaLi2FePCO7
_symmetry_space_group_name_H-M   'P 1'
_cell_length_a   5.10562040
_cell_length_b   8.60509749
_cell_length_c   6.61766429
_cell_angle_alpha   89.98811541
_cell_angle_beta   89.96577984
_cell_angle_gamma   84.61431852
_symmetry_Int_Tables_number   1
_chemical_formula_structural   NaLi2FePCO7
_chemical_formula_sum   'Na2 Li4 Fe2 P2 C2 O14'
_cell_volume   289.45930032
_cell_formula_units_Z   2
loop_
 _symmetry_equiv_pos_site_id
 _symmetry_equiv_pos_as_xyz
  1  'x, y, z'
loop_
 _atom_site_type_symbol
 _atom_site_label
 _atom_site_symmetry_multiplicity
 _atom_site_fract_x
 _atom_site_fract_y
 _atom_site_fract_z
 _atom_site_occupancy
  Na  Na0  1  0.26632700  0.26087500  0.00745800  1
  Na  Na1  1  0.73409800  0.73924000  0.50729500  1
  Li  Li0  1  0.78322800  0.10323000  0.26231800  1
  Li  Li1  1  0.21664500  0.89676300  0.76226000  1
  Li  Li2  1  0.26794600  0.27848300  0.47885700  1
  Li  Li3  1  0.73228900  0.72126200  0.97808100  1
  Fe  Fe0  1  0.21133500  0.66274400  0.24158800  1
  Fe  Fe1  1  0.78857100  0.33712800  0.74152400  1
  P  P0  1  0.72519100  0.41037700  0.24641600  1
  P  P1  1  0.27496200  0.58970100  0.74647800  1
  C  C0  1  0.68887200  0.04128400  0.75656700  1
  C  C1  1  0.31088200  0.95870800  0.25665200  1
  O  O0  1  0.38850000  0.09675100  0.27909400  1
  O  O1  1  0.61145500  0.90320000  0.77906800  1
  O  O2  1  0.93593800  0.06622500  0.75886000  1
  O  O3  1  0.06381800  0.93393000  0.25883100  1
  O  O4  1  0.51450500  0.16122800  0.73019300  1
  O  O5  1  0.48499300  0.83866000  0.23032200  1
  O  O6  1  0.79211500  0.30323600  0.05952900  1
  O  O7  1  0.20823300  0.69681400  0.55963300  1
  O  O8  1  0.84629700  0.31125500  0.42756600  1
  O  O9  1  0.15350400  0.68875500  0.92758500  1
  O  O10  1  0.42055400  0.43664000  0.27296200  1
  O  O11  1  0.57962000  0.56343100  0.77280000  1
  O  O12  1  0.16131100  0.43055200  0.72916700  1
  O  O13  1  0.83881200  0.56953000  0.22889900  1
loop_
_geom_bond_atom_site_label_1
_geom_bond_atom_site_label_2
_geom_bond_distance
_geom_bond_site_symmetry_2
Na0 O0 2.334514 1_555
Na0 O4 2.345504 1_554
Na0 O12 2.379930 1_554
Na0 O6 2.438637 1_455
Na0 O10 2.494202 1_555
Na0 O6 2.764573 1_555
Na1 O1 2.334776 1_555
Na1 O5 2.346686 1_555
Na1 O13 2.380352 1_555
Na1 O7 2.438922 1_655
Na1 O11 2.493820 1_555
Na1 O7 2.764886 1_555
Li0 O3 1.945102 1_645
Li0 O0 2.024306 1_555
Li0 O8 2.147873 1_555
Li0 O6 2.186026 1_555
Li1 O2 1.946454 1_465
Li1 O1 2.024825 1_555
Li1 O9 2.147518 1_555
Li1 O7 2.185223 1_555
Li2 O0 2.095512 1_555
Li2 O10 2.124344 1_555
Li2 O12 2.149124 1_555
Li2 O8 2.171651 1_455
Li2 O4 2.265509 1_555
Li3 O1 2.094036 1_555
Li3 O11 2.120937 1_555
Li3 O13 2.149994 1_556
Li3 O9 2.168200 1_655
Li3 O5 2.271527 1_556
Fe0 O9 2.107927 1_554
Fe0 O7 2.124941 1_555
Fe0 O13 2.134127 1_455
Fe0 O10 2.140010 1_555
Fe0 O5 2.155477 1_555
Fe0 O3 2.386621 1_555
Fe1 O8 2.107198 1_555
Fe1 O6 2.124358 1_556
Fe1 O12 2.135798 1_655
Fe1 O11 2.140813 1_555
Fe1 O4 2.156955 1_555
Fe1 O2 2.384167 1_555
C0 O1 1.295495 1_545
C0 O2 1.299358 1_555
C0 O4 1.309934 1_555
C1 O0 1.295629 1_565
C1 O3 1.298962 1_555
C1 O5 1.309668 1_555
O6 P0 1.561139 1_555
O7 P1 1.560639 1_555
O8 P0 1.564739 1_555
O9 P1 1.564547 1_555
O10 P0 1.560381 1_555
O11 P1 1.560521 1_555
O12 P1 1.540990 1_555
O13 P0 1.540959 1_555
