# generated using pymatgen
data_Li2CoSiO4
_symmetry_space_group_name_H-M   'P 1'
_cell_length_a   5.08836000
_cell_length_b   6.31137400
_cell_length_c   10.77889100
_cell_angle_alpha   90.00000000
_cell_angle_beta   90.00000000
_cell_angle_gamma   90.00000000
_symmetry_Int_Tables_number   1
_chemical_formula_structural   Li2CoSiO4
_chemical_formula_sum   'Li8 Co4 Si4 O16'
_cell_volume   346.15915858
_cell_formula_units_Z   4
loop_
 _symmetry_equiv_pos_site_id
 _symmetry_equiv_pos_as_xyz
  1  'x, y, z'
loop_
 _atom_site_type_symbol
 _atom_site_label
 _atom_site_symmetry_multiplicity
 _atom_site_fract_x
 _atom_site_fract_y
 _atom_site_fract_z
 _atom_site_occupancy
  Li  Li0  1  0.79652200  0.87081400  0.57446200  1
  Li  Li1  1  0.19103400  0.12052800  0.66211000  1
  Li  Li2  1  0.69103400  0.62052800  0.83789000  1
  Li  Li3  1  0.29652200  0.37081400  0.92553800  1
  Li  Li4  1  0.70347800  0.87081400  0.07446200  1
  Li  Li5  1  0.30896600  0.12052800  0.16211000  1
  Li  Li6  1  0.80896600  0.62052800  0.33789000  1
  Li  Li7  1  0.20347800  0.37081400  0.42553800  1
  Co  Co0  1  0.68961400  0.11764500  0.83430100  1
  Co  Co1  1  0.81038600  0.11764500  0.33430100  1
  Co  Co2  1  0.18961400  0.61764500  0.66569900  1
  Co  Co3  1  0.31038600  0.61764500  0.16569900  1
  Si  Si0  1  0.68930800  0.36901600  0.58769200  1
  Si  Si1  1  0.18930800  0.86901600  0.91230800  1
  Si  Si2  1  0.81069200  0.36901600  0.08769200  1
  Si  Si3  1  0.31069200  0.86901600  0.41230800  1
  O  O0  1  0.19798400  0.86926800  0.55580900  1
  O  O1  1  0.36366100  0.36824200  0.58916200  1
  O  O2  1  0.79273000  0.58416800  0.66100900  1
  O  O3  1  0.79718300  0.15365800  0.65954600  1
  O  O4  1  0.29718300  0.65365800  0.84045400  1
  O  O5  1  0.29273000  0.08416800  0.83899100  1
  O  O6  1  0.86366100  0.86824200  0.91083800  1
  O  O7  1  0.69798400  0.36926800  0.94419100  1
  O  O8  1  0.30201600  0.86926800  0.05580900  1
  O  O9  1  0.13633900  0.36824200  0.08916200  1
  O  O10  1  0.70727000  0.58416800  0.16100900  1
  O  O11  1  0.70281700  0.15365800  0.15954600  1
  O  O12  1  0.20281700  0.65365800  0.34045400  1
  O  O13  1  0.20727000  0.08416800  0.33899100  1
  O  O14  1  0.63633900  0.86824200  0.41083800  1
  O  O15  1  0.80201600  0.36926800  0.44419100  1
loop_
_geom_bond_atom_site_label_1
_geom_bond_atom_site_label_2
_geom_bond_distance
_geom_bond_site_symmetry_2
Li0 O14 1.942984 1_555
Li0 O3 2.006940 1_565
Li0 O2 2.035581 1_555
Li0 O0 2.052677 1_655
Li1 O0 1.956750 1_545
Li1 O1 1.958086 1_555
Li1 O5 1.988840 1_555
Li1 O3 2.015124 1_455
Li2 O7 1.956750 1_555
Li2 O6 1.958086 1_555
Li2 O2 1.988840 1_555
Li2 O4 2.015124 1_555
Li3 O9 1.942984 1_556
Li3 O4 2.006940 1_555
Li3 O5 2.035581 1_555
Li3 O7 2.052677 1_555
Li4 O6 1.942984 1_554
Li4 O11 2.006940 1_565
Li4 O10 2.035581 1_555
Li4 O8 2.052677 1_555
Li5 O8 1.956750 1_545
Li5 O9 1.958086 1_555
Li5 O13 1.988840 1_555
Li5 O11 2.015124 1_555
Li6 O15 1.956750 1_555
Li6 O14 1.958086 1_555
Li6 O10 1.988840 1_555
Li6 O12 2.015124 1_655
Li7 O1 1.942984 1_555
Li7 O12 2.006940 1_555
Li7 O13 2.035581 1_555
Li7 O15 2.052677 1_455
Co0 O3 1.974702 1_555
Co0 O7 1.981630 1_555
Co0 O6 1.985604 1_545
Co0 O5 2.031141 1_555
Co1 O11 1.974702 1_555
Co1 O15 1.981630 1_555
Co1 O14 1.985604 1_545
Co1 O13 2.031141 1_655
Co2 O4 1.974702 1_555
Co2 O0 1.981630 1_555
Co2 O1 1.985604 1_555
Co2 O2 2.031141 1_455
Co3 O12 1.974702 1_555
Co3 O8 1.981630 1_555
Co3 O9 1.985604 1_555
Co3 O10 2.031141 1_555
O0 Si3 1.649678 1_555
O1 Si0 1.657092 1_555
O2 Si0 1.656918 1_555
O3 Si0 1.657889 1_555
O4 Si1 1.657889 1_555
O5 Si1 1.656918 1_545
O6 Si1 1.657092 1_655
O7 Si2 1.649678 1_556
O8 Si1 1.649678 1_554
O9 Si2 1.657092 1_455
O10 Si2 1.656918 1_555
O11 Si2 1.657889 1_555
O12 Si3 1.657889 1_555
O13 Si3 1.656918 1_545
O14 Si3 1.657092 1_555
O15 Si0 1.649678 1_555
