# generated using pymatgen
data_Rb2H8O5
_symmetry_space_group_name_H-M   'P 1'
_cell_length_a   8.40409029
_cell_length_b   8.40409029
_cell_length_c   14.99947436
_cell_angle_alpha   63.88204043
_cell_angle_beta   63.88204043
_cell_angle_gamma   53.11430282
_symmetry_Int_Tables_number   1
_chemical_formula_structural   Rb2H8O5
_chemical_formula_sum   'Rb8 H32 O20'
_cell_volume   737.61920681
_cell_formula_units_Z   4
loop_
 _symmetry_equiv_pos_site_id
 _symmetry_equiv_pos_as_xyz
  1  'x, y, z'
loop_
 _atom_site_type_symbol
 _atom_site_label
 _atom_site_symmetry_multiplicity
 _atom_site_fract_x
 _atom_site_fract_y
 _atom_site_fract_z
 _atom_site_occupancy
  Rb  Rb0  1  0.37517600  0.41562000  0.05488900  1
  Rb  Rb1  1  0.87867000  0.86856800  0.05848900  1
  Rb  Rb2  1  0.11110600  0.11626200  0.19681000  1
  Rb  Rb3  1  0.41562000  0.37517600  0.55488900  1
  Rb  Rb4  1  0.12641500  0.16055700  0.44124500  1
  Rb  Rb5  1  0.86856800  0.87867000  0.55848900  1
  Rb  Rb6  1  0.11626200  0.11110600  0.69681000  1
  Rb  Rb7  1  0.16055700  0.12641500  0.94124500  1
  H  H0  1  0.84109900  0.55589800  0.03392300  1
  H  H1  1  0.55751400  0.81777400  0.05891400  1
  H  H2  1  0.69508300  0.38948800  0.11161400  1
  H  H3  1  0.41577400  0.70849000  0.11748200  1
  H  H4  1  0.73897500  0.16933000  0.19062300  1
  H  H5  1  0.16932300  0.74124400  0.20587500  1
  H  H6  1  0.18393500  0.65463200  0.40284300  1
  H  H7  1  0.72636400  0.13283300  0.33173100  1
  H  H8  1  0.98296900  0.60215600  0.41872400  1
  H  H9  1  0.58519000  0.00015800  0.42754700  1
  H  H10  1  0.67965800  0.39757600  0.32419900  1
  H  H11  1  0.38800800  0.67628000  0.33285600  1
  H  H12  1  0.54288100  0.88778200  0.26539400  1
  H  H13  1  0.88192000  0.45497700  0.29526000  1
  H  H14  1  0.99141300  0.59108300  0.26509600  1
  H  H15  1  0.55549100  0.05653500  0.27731000  1
  H  H16  1  0.55589800  0.84109900  0.53392300  1
  H  H17  1  0.81777400  0.55751400  0.55891400  1
  H  H18  1  0.70849000  0.41577400  0.61748200  1
  H  H19  1  0.38948800  0.69508300  0.61161400  1
  H  H20  1  0.88778200  0.54288100  0.76539400  1
  H  H21  1  0.45497700  0.88192000  0.79526000  1
  H  H22  1  0.16933000  0.73897500  0.69062300  1
  H  H23  1  0.05653500  0.55549100  0.77731000  1
  H  H24  1  0.74124400  0.16932300  0.70587500  1
  H  H25  1  0.59108300  0.99141300  0.76509600  1
  H  H26  1  0.13283300  0.72636400  0.83173100  1
  H  H27  1  0.65463200  0.18393500  0.90284300  1
  H  H28  1  0.60215600  0.98296900  0.91872400  1
  H  H29  1  0.00015800  0.58519000  0.92754700  1
  H  H30  1  0.67628000  0.38800800  0.83285600  1
  H  H31  1  0.39757600  0.67965800  0.82419900  1
  O  O0  1  0.75771700  0.24446400  0.11418900  1
  O  O1  1  0.22338400  0.75728800  0.13204400  1
  O  O2  1  0.53804900  0.06873600  0.96548200  1
  O  O3  1  0.99029000  0.50291000  0.00176000  1
  O  O4  1  0.57261100  0.68204100  0.10277300  1
  O  O5  1  0.72078500  0.04498200  0.30796600  1
  O  O6  1  0.47304300  0.03632600  0.25320800  1
  O  O7  1  0.97932600  0.51247600  0.23859700  1
  O  O8  1  0.50291000  0.99029000  0.50176000  1
  O  O9  1  0.78044100  0.32867500  0.36301700  1
  O  O10  1  0.24535600  0.75329400  0.36814100  1
  O  O11  1  0.06873600  0.53804900  0.46548200  1
  O  O12  1  0.51247600  0.97932600  0.73859700  1
  O  O13  1  0.75728800  0.22338400  0.63204400  1
  O  O14  1  0.24446400  0.75771700  0.61418900  1
  O  O15  1  0.03632600  0.47304300  0.75320800  1
  O  O16  1  0.68204100  0.57261100  0.60277300  1
  O  O17  1  0.04498200  0.72078500  0.80796600  1
  O  O18  1  0.32867500  0.78044100  0.86301700  1
  O  O19  1  0.75329400  0.24535600  0.86814100  1
loop_
_geom_bond_atom_site_label_1
_geom_bond_atom_site_label_2
_geom_bond_distance
_geom_bond_site_symmetry_2
H0 O3 0.994699 1_555
H1 O4 0.994557 1_555
H2 O0 0.985058 1_555
H2 Rb0 3.023419 1_555
H3 O4 1.127314 1_555
H3 O1 1.342416 1_555
H4 O0 1.030021 1_555
H4 O5 1.596496 1_555
H4 Rb2 2.921132 1_655
H5 O1 0.974719 1_555
H5 Rb2 2.832169 1_565
H6 O10 1.059312 1_555
H6 O11 1.518997 1_555
H6 Rb3 2.865753 1_555
H7 O5 0.980992 1_555
H7 Rb2 2.918251 1_655
H8 O11 0.973613 1_655
H8 Rb4 3.037215 1_655
H9 O8 1.016861 1_545
H10 O9 0.969693 1_555
H11 O10 0.973534 1_555
H12 O6 0.974844 1_565
H13 O7 1.061453 1_555
H13 O9 1.503560 1_555
H13 Rb4 2.868275 1_655
H13 Rb2 2.934034 1_655
H14 O7 0.975710 1_555
H15 O6 1.027388 1_555
H15 O5 1.584855 1_555
H16 O8 0.994699 1_555
H17 O16 0.994557 1_555
H18 O16 1.127314 1_555
H18 O13 1.342416 1_555
H19 O14 0.985058 1_555
H19 Rb3 3.023419 1_555
H20 O15 0.974844 1_655
H21 O12 1.061453 1_555
H21 O18 1.503560 1_555
H21 Rb7 2.868275 1_565
H21 Rb6 2.934034 1_565
H22 O14 1.030021 1_555
H22 O17 1.596496 1_555
H22 Rb6 2.921132 1_565
H23 O15 1.027388 1_555
H23 O17 1.584855 1_555
H24 O13 0.974719 1_555
H24 Rb6 2.832169 1_655
H25 O12 0.975710 1_555
H26 O17 0.980992 1_555
H26 Rb6 2.918251 1_565
H27 O19 1.059312 1_555
H27 O2 1.518997 1_555
H27 Rb0 2.865753 1_556
H28 O2 0.973613 1_565
H28 Rb7 3.037215 1_565
H29 O3 1.016861 1_456
H30 O19 0.973534 1_555
H31 O18 0.969693 1_555
O0 Rb0 3.005956 1_555
O0 Rb1 3.071182 1_545
O0 Rb7 3.110746 1_654
O1 Rb0 2.905232 1_555
O1 Rb1 3.022879 1_455
O1 Rb7 3.104867 1_564
O2 Rb0 3.034205 1_556
O2 Rb7 3.073428 1_555
O3 Rb7 2.972027 1_654
O3 Rb2 3.230143 1_655
O3 Rb0 3.246882 1_655
O6 Rb4 3.039538 1_555
O6 Rb2 3.119506 1_555
O6 Rb0 3.216285 1_555
O7 Rb1 2.970637 1_555
O7 Rb2 3.083269 1_655
O7 Rb0 3.158467 1_655
O8 Rb4 2.972027 1_565
O8 Rb6 3.230143 1_565
O8 Rb3 3.246882 1_565
O9 Rb4 2.905139 1_655
O9 Rb2 2.997978 1_655
O9 Rb3 3.101416 1_555
O10 Rb2 2.949852 1_565
O10 Rb4 3.485471 1_565
O11 Rb3 3.034205 1_555
O11 Rb4 3.073428 1_555
O12 Rb5 2.970637 1_555
O12 Rb6 3.083269 1_565
O12 Rb3 3.158467 1_565
O13 Rb3 2.905232 1_555
O13 Rb5 3.022879 1_545
O13 Rb4 3.104867 1_655
O14 Rb3 3.005956 1_555
O14 Rb5 3.071182 1_455
O14 Rb4 3.110746 1_565
O15 Rb7 3.039538 1_555
O15 Rb6 3.119506 1_555
O15 Rb3 3.216285 1_555
O18 Rb7 2.905139 1_565
O18 Rb6 2.997978 1_565
O18 Rb0 3.101416 1_556
O19 Rb6 2.949852 1_655
O19 Rb7 3.485471 1_655
