# generated using pymatgen
data_Li32Mn11Cr5O48
_symmetry_space_group_name_H-M   'P 1'
_cell_length_a   5.00291800
_cell_length_b   5.01190532
_cell_length_c   38.41851317
_cell_angle_alpha   91.13435025
_cell_angle_beta   90.97973462
_cell_angle_gamma   119.78419983
_symmetry_Int_Tables_number   1
_chemical_formula_structural   Li32Mn11Cr5O48
_chemical_formula_sum   'Li32 Mn11 Cr5 O48'
_cell_volume   835.49395221
_cell_formula_units_Z   1
loop_
 _symmetry_equiv_pos_site_id
 _symmetry_equiv_pos_as_xyz
  1  'x, y, z'
loop_
 _atom_site_type_symbol
 _atom_site_label
 _atom_site_symmetry_multiplicity
 _atom_site_fract_x
 _atom_site_fract_y
 _atom_site_fract_z
 _atom_site_occupancy
  Li  Li0  1  0.90604100  0.08335700  0.24993200  1
  Li  Li1  1  0.50075900  0.00042600  0.99996800  1
  Li  Li2  1  0.56385400  0.06077200  0.18749100  1
  Li  Li3  1  0.62559900  0.12498200  0.37503000  1
  Li  Li4  1  0.69159200  0.19008500  0.56251100  1
  Li  Li5  1  0.75038600  0.25263600  0.74995300  1
  Li  Li6  1  0.81237400  0.31253800  0.93749600  1
  Li  Li7  1  0.21173600  0.03634900  0.12479100  1
  Li  Li8  1  0.87569900  0.37491800  0.12491500  1
  Li  Li9  1  0.33930000  0.16648800  0.50003000  1
  Li  Li10  1  0.46197900  0.28776800  0.87497500  1
  Li  Li11  1  0.93666700  0.43827800  0.31252300  1
  Li  Li12  1  0.99877800  0.49756100  0.49992200  1
  Li  Li13  1  0.59379500  0.41769900  0.25013900  1
  Li  Li14  1  0.71266100  0.53662600  0.62494300  1
  Li  Li15  1  0.03756900  0.21605000  0.62525500  1
  Li  Li16  1  0.16240500  0.33925400  0.99988600  1
  Li  Li17  1  0.83613400  0.66063800  0.00004100  1
  Li  Li18  1  0.95965700  0.78369700  0.37491600  1
  Li  Li19  1  0.28991500  0.46591400  0.37519700  1
  Li  Li20  1  0.41075100  0.58735200  0.74986700  1
  Li  Li21  1  0.06230600  0.56245900  0.68750500  1
  Li  Li22  1  0.53686900  0.71460600  0.12501100  1
  Li  Li23  1  0.66125800  0.83550100  0.49981500  1
  Li  Li24  1  0.12658900  0.62757600  0.87508600  1
  Li  Li25  1  0.78697500  0.96024000  0.87520400  1
  Li  Li26  1  0.18886900  0.68513200  0.06247200  1
  Li  Li27  1  0.25033800  0.74926800  0.25004500  1
  Li  Li28  1  0.31235100  0.81260900  0.43748300  1
  Li  Li29  1  0.37455300  0.87176600  0.62506600  1
  Li  Li30  1  0.43428000  0.93415600  0.81250000  1
  Li  Li31  1  0.08900300  0.91078700  0.74999200  1
  Mn  Mn0  1  0.97956500  0.14519300  0.43749500  1
  Mn  Mn1  1  0.39554900  0.22939000  0.68748600  1
  Mn  Mn2  1  0.52015300  0.35472800  0.06248000  1
  Mn  Mn3  1  0.64554700  0.47951600  0.43749000  1
  Mn  Mn4  1  0.77064100  0.60410100  0.81250200  1
  Mn  Mn5  1  0.89544600  0.72948000  0.18751400  1
  Mn  Mn6  1  0.35415500  0.52113000  0.56249800  1
  Mn  Mn7  1  0.47949900  0.64516900  0.93750300  1
  Mn  Mn8  1  0.60443800  0.77056600  0.31250000  1
  Mn  Mn9  1  0.72954100  0.89531000  0.68749700  1
  Mn  Mn10  1  0.14553300  0.97952700  0.93749900  1
  Cr  Cr0  1  0.85698600  0.01708800  0.06251200  1
  Cr  Cr1  1  0.26769000  0.10765500  0.31248000  1
  Cr  Cr2  1  0.09984000  0.26544300  0.81245800  1
  Cr  Cr3  1  0.23207600  0.39152600  0.18752900  1
  Cr  Cr4  1  0.02538600  0.85980500  0.56255200  1
  O  O0  1  0.94672800  0.08680500  0.34051700  1
  O  O1  1  0.90646000  0.04776600  0.15917500  1
  O  O2  1  0.57048100  0.06937900  0.28399100  1
  O  O3  1  0.69525600  0.19472900  0.65891800  1
  O  O4  1  0.55499700  0.05616300  0.09096000  1
  O  O5  1  0.67857000  0.17891200  0.46599100  1
  O  O6  1  0.80963900  0.30753700  0.84091900  1
  O  O7  1  0.81951800  0.32039800  0.03394900  1
  O  O8  1  0.94608000  0.44543700  0.40905200  1
  O  O9  1  0.21170400  0.07264000  0.21550400  1
  O  O10  1  0.93067800  0.43118300  0.21599900  1
  O  O11  1  0.33672000  0.19545200  0.59047000  1
  O  O12  1  0.46351800  0.32075700  0.96544600  1
  O  O13  1  0.17710000  0.03852400  0.03450400  1
  O  O14  1  0.30428000  0.16145900  0.40949900  1
  O  O15  1  0.42839100  0.28942100  0.78450500  1
  O  O16  1  0.07061200  0.21239700  0.71548900  1
  O  O17  1  0.03730300  0.18444000  0.53427000  1
  O  O18  1  0.16112300  0.30372400  0.90952500  1
  O  O19  1  0.59332800  0.45151700  0.34077500  1
  O  O20  1  0.71269800  0.57093800  0.71536700  1
  O  O21  1  0.55264200  0.41372700  0.15955700  1
  O  O22  1  0.67663700  0.53508500  0.53439100  1
  O  O23  1  0.80433100  0.66086600  0.90960500  1
  O  O24  1  0.20194300  0.34406700  0.09083800  1
  O  O25  1  0.32080600  0.46401700  0.46546800  1
  O  O26  1  0.44884600  0.59070400  0.84063800  1
  O  O27  1  0.28851500  0.42782100  0.28455900  1
  O  O28  1  0.41186400  0.55364700  0.65951100  1
  O  O29  1  0.83686700  0.69761500  0.09037000  1
  O  O30  1  0.96394500  0.82104600  0.46551200  1
  O  O31  1  0.92431100  0.78209400  0.28431500  1
  O  O32  1  0.57671700  0.71890000  0.21579200  1
  O  O33  1  0.69601500  0.83575800  0.59049200  1
  O  O34  1  0.82080400  0.96358300  0.96555800  1
  O  O35  1  0.53084300  0.67300500  0.03420200  1
  O  O36  1  0.66151600  0.80393500  0.40958600  1
  O  O37  1  0.06985900  0.57536100  0.78358000  1
  O  O38  1  0.78744300  0.92927000  0.78454800  1
  O  O39  1  0.05477500  0.54935400  0.59141300  1
  O  O40  1  0.17895100  0.67939700  0.96600800  1
  O  O41  1  0.19446400  0.69533300  0.15894800  1
  O  O42  1  0.31570600  0.81817100  0.53410300  1
  O  O43  1  0.44646400  0.94588700  0.90906300  1
  O  O44  1  0.30527800  0.80486700  0.34106100  1
  O  O45  1  0.43000800  0.93029300  0.71597500  1
  O  O46  1  0.08774500  0.94143200  0.84072200  1
  O  O47  1  0.05443100  0.91207200  0.65941600  1
loop_
_geom_bond_atom_site_label_1
_geom_bond_atom_site_label_2
_geom_bond_distance
_geom_bond_site_symmetry_2
Li0 O9 2.058830 1_655
Li0 O31 2.060340 1_545
Li0 O2 2.120679 1_555
Li0 O32 2.147738 1_545
Li0 O10 2.153071 1_555
Li0 O27 2.225266 1_655
Li1 O7 2.030870 1_556
Li1 O40 2.038283 1_545
Li1 O34 2.168384 1_545
Li1 O12 2.178140 1_555
Li1 O35 2.183896 1_546
Li1 O13 2.188483 1_556
Li2 O1 2.073051 1_555
Li2 O32 2.074387 1_545
Li2 O9 2.105245 1_555
Li2 O21 2.110885 1_555
Li2 O41 2.112058 1_545
Li2 O10 2.116594 1_555
Li3 O44 2.033861 1_545
Li3 O8 2.036073 1_555
Li3 O14 2.174028 1_555
Li3 O0 2.178079 1_555
Li3 O36 2.178879 1_545
Li3 O19 2.185597 1_555
Li4 O17 2.069043 1_655
Li4 O22 2.088598 1_555
Li4 O39 2.092388 1_655
Li4 O11 2.101916 1_555
Li4 O33 2.103225 1_545
Li4 O42 2.137491 1_545
Li5 O37 2.029310 1_655
Li5 O45 2.038504 1_545
Li5 O20 2.172620 1_555
Li5 O16 2.177925 1_655
Li5 O15 2.179361 1_555
Li5 O38 2.191531 1_545
Li6 O12 2.081962 1_555
Li6 O18 2.083202 1_655
Li6 O23 2.083255 1_555
Li6 O34 2.090266 1_545
Li6 O43 2.105083 1_545
Li6 O40 2.108436 1_655
Li7 O1 2.057583 1_455
Li7 O24 2.057912 1_555
Li7 O4 2.135494 1_555
Li7 O41 2.143971 1_545
Li7 O29 2.193484 1_445
Li7 O21 2.210762 1_555
Li8 O4 2.031658 1_555
Li8 O41 2.032968 1_655
Li8 O24 2.172014 1_655
Li8 O1 2.184901 1_555
Li8 O21 2.190189 1_555
Li8 O29 2.191616 1_555
Li9 O25 2.050993 1_555
Li9 O17 2.054155 1_555
Li9 O5 2.137551 1_555
Li9 O42 2.160122 1_545
Li9 O22 2.175669 1_555
Li9 O30 2.208271 1_445
Li10 O18 2.053650 1_555
Li10 O26 2.055524 1_555
Li10 O43 2.148789 1_545
Li10 O6 2.158389 1_555
Li10 O23 2.200451 1_555
Li10 O46 2.201533 1_545
Li11 O19 2.075359 1_555
Li11 O31 2.079674 1_555
Li11 O27 2.099899 1_655
Li11 O0 2.103215 1_555
Li11 O2 2.112394 1_555
Li11 O44 2.112718 1_655
Li12 O5 2.029931 1_555
Li12 O42 2.033368 1_655
Li12 O17 2.148275 1_655
Li12 O25 2.170057 1_655
Li12 O22 2.179597 1_555
Li12 O30 2.182707 1_555
Li13 O27 2.056022 1_555
Li13 O32 2.056832 1_555
Li13 O10 2.128708 1_555
Li13 O31 2.150399 1_555
Li13 O2 2.155329 1_555
Li13 O9 2.225560 1_555
Li14 O33 2.050667 1_555
Li14 O28 2.055968 1_555
Li14 O39 2.136143 1_655
Li14 O3 2.142846 1_555
Li14 O11 2.201234 1_555
Li14 O47 2.201338 1_655
Li15 O11 2.062260 1_555
Li15 O47 2.062448 1_545
Li15 O39 2.106020 1_555
Li15 O3 2.125154 1_455
Li15 O28 2.186611 1_555
Li15 O33 2.218535 1_445
Li16 O12 2.056866 1_555
Li16 O13 2.057203 1_556
Li16 O40 2.135047 1_555
Li16 O7 2.141220 1_456
Li16 O35 2.167990 1_556
Li16 O34 2.198387 1_445
Li17 O35 2.053884 1_555
Li17 O34 2.063522 1_554
Li17 O7 2.136032 1_555
Li17 O40 2.140389 1_654
Li17 O12 2.194127 1_554
Li17 O13 2.205378 1_665
Li18 O36 2.054781 1_555
Li18 O0 2.057353 1_565
Li18 O8 2.139003 1_555
Li18 O44 2.143108 1_655
Li18 O19 2.156630 1_555
Li18 O14 2.213944 1_665
Li19 O19 2.057162 1_555
Li19 O14 2.062896 1_555
Li19 O8 2.137211 1_455
Li19 O44 2.138617 1_555
Li19 O36 2.184080 1_555
Li19 O0 2.216714 1_455
Li20 O15 2.052775 1_555
Li20 O20 2.057457 1_555
Li20 O37 2.136945 1_555
Li20 O45 2.141803 1_555
Li20 O16 2.195345 1_555
Li20 O38 2.208798 1_555
Li21 O20 2.083957 1_455
Li21 O28 2.087135 1_555
Li21 O47 2.092460 1_555
Li21 O16 2.093168 1_555
Li21 O45 2.112161 1_555
Li21 O3 2.112729 1_455
Li22 O29 2.054707 1_555
Li22 O21 2.058052 1_555
Li22 O41 2.135574 1_555
Li22 O4 2.142079 1_565
Li22 O1 2.166269 1_565
Li22 O24 2.171848 1_555
Li23 O30 2.051499 1_555
Li23 O22 2.056269 1_555
Li23 O5 2.145404 1_565
Li23 O42 2.159787 1_555
Li23 O25 2.187271 1_555
Li23 O17 2.214627 1_665
Li24 O43 2.029724 1_555
Li24 O6 2.031962 1_455
Li24 O46 2.152267 1_555
Li24 O23 2.171967 1_455
Li24 O26 2.178117 1_555
Li24 O18 2.184203 1_555
Li25 O23 2.051727 1_555
Li25 O46 2.057228 1_655
Li25 O43 2.134738 1_555
Li25 O6 2.162726 1_565
Li25 O26 2.183702 1_555
Li25 O18 2.197804 1_665
Li26 O35 2.067509 1_555
Li26 O24 2.072750 1_555
Li26 O29 2.103633 1_455
Li26 O7 2.110108 1_455
Li26 O13 2.114667 1_565
Li26 O4 2.116113 1_565
Li27 O10 2.030505 1_455
Li27 O2 2.032970 1_565
Li27 O32 2.175667 1_555
Li27 O31 2.180002 1_455
Li27 O27 2.184452 1_555
Li27 O9 2.193768 1_565
Li28 O30 2.082109 1_455
Li28 O36 2.083183 1_555
Li28 O25 2.087187 1_555
Li28 O14 2.087455 1_565
Li28 O5 2.106398 1_565
Li28 O8 2.106942 1_455
Li29 O39 2.029883 1_555
Li29 O3 2.037383 1_565
Li29 O28 2.167683 1_555
Li29 O47 2.174956 1_555
Li29 O33 2.176067 1_555
Li29 O11 2.194546 1_565
Li30 O46 2.075600 1_555
Li30 O26 2.081480 1_555
Li30 O38 2.093413 1_555
Li30 O37 2.094426 1_555
Li30 O15 2.110653 1_565
Li30 O6 2.139681 1_565
Li31 O38 2.061471 1_455
Li31 O16 2.064935 1_565
Li31 O37 2.104909 1_555
Li31 O45 2.131575 1_555
Li31 O20 2.203167 1_455
Li31 O15 2.205575 1_565
Mn0 O14 1.932411 1_655
Mn0 O30 1.936485 1_545
Mn0 O36 1.942203 1_545
Mn0 O25 1.944718 1_655
Mn0 O8 1.948290 1_555
Mn0 O5 1.948476 1_555
Mn1 O16 1.932161 1_555
Mn1 O28 1.934745 1_555
Mn1 O20 1.940645 1_555
Mn1 O47 1.943566 1_545
Mn1 O45 1.946805 1_545
Mn1 O3 1.946921 1_555
Mn2 O24 1.923879 1_555
Mn2 O35 1.927058 1_555
Mn2 O29 1.943156 1_555
Mn2 O7 1.943930 1_555
Mn2 O13 1.944126 1_555
Mn2 O4 1.945296 1_555
Mn3 O25 1.933528 1_555
Mn3 O36 1.934492 1_555
Mn3 O14 1.943702 1_555
Mn3 O30 1.945746 1_555
Mn3 O8 1.946120 1_555
Mn3 O5 1.949999 1_555
Mn4 O26 1.928669 1_555
Mn4 O38 1.937189 1_555
Mn4 O46 1.937671 1_655
Mn4 O37 1.939341 1_655
Mn4 O15 1.939879 1_555
Mn4 O6 1.945318 1_555
Mn5 O32 1.924387 1_555
Mn5 O1 1.927852 1_565
Mn5 O21 1.942336 1_555
Mn5 O41 1.942853 1_655
Mn5 O9 1.944964 1_665
Mn5 O10 1.945196 1_555
Mn6 O22 1.929842 1_555
Mn6 O17 1.935900 1_555
Mn6 O11 1.938549 1_555
Mn6 O39 1.938694 1_555
Mn6 O33 1.938809 1_555
Mn6 O42 1.945515 1_555
Mn7 O23 1.931789 1_555
Mn7 O12 1.935298 1_555
Mn7 O18 1.944626 1_555
Mn7 O34 1.945741 1_555
Mn7 O40 1.948001 1_555
Mn7 O43 1.949152 1_555
Mn8 O31 1.925275 1_555
Mn8 O19 1.929399 1_555
Mn8 O27 1.942395 1_555
Mn8 O0 1.943228 1_565
Mn8 O44 1.943682 1_555
Mn8 O2 1.944917 1_565
Mn9 O20 1.931950 1_555
Mn9 O47 1.934102 1_655
Mn9 O16 1.941460 1_665
Mn9 O28 1.943993 1_555
Mn9 O45 1.944961 1_555
Mn9 O3 1.949728 1_565
Mn10 O34 1.934442 1_455
Mn10 O18 1.935802 1_565
Mn10 O23 1.942741 1_455
Mn10 O12 1.942779 1_565
Mn10 O43 1.946708 1_555
Mn10 O40 1.949122 1_555
Cr0 O13 1.904406 1_655
Cr0 O29 1.905455 1_545
Cr0 O4 1.964023 1_555
Cr0 O35 1.972006 1_545
Cr0 O7 1.972893 1_555
Cr0 O24 1.975774 1_655
Cr1 O27 1.908471 1_555
Cr1 O0 1.909575 1_455
Cr1 O31 1.966259 1_445
Cr1 O2 1.966359 1_555
Cr1 O19 1.970236 1_555
Cr1 O44 1.971401 1_545
Cr2 O38 1.919961 1_445
Cr2 O6 1.922869 1_455
Cr2 O15 1.933587 1_555
Cr2 O46 1.947894 1_545
Cr2 O26 1.978878 1_555
Cr2 O37 1.989988 1_555
Cr3 O21 1.904124 1_555
Cr3 O9 1.905190 1_555
Cr3 O10 1.963429 1_455
Cr3 O1 1.971143 1_455
Cr3 O32 1.974567 1_555
Cr3 O41 1.975689 1_555
Cr4 O11 1.916948 1_565
Cr4 O42 1.921998 1_555
Cr4 O33 1.936582 1_455
Cr4 O17 1.951218 1_565
Cr4 O22 1.976889 1_455
Cr4 O39 1.990488 1_555
