# generated using pymatgen
data_HgH16C6(N2Cl)2
_symmetry_space_group_name_H-M   'P 1'
_cell_length_a   6.44856929
_cell_length_b   6.44856929
_cell_length_c   16.46996266
_cell_angle_alpha   86.75513860
_cell_angle_beta   86.75513860
_cell_angle_gamma   93.59445270
_symmetry_Int_Tables_number   1
_chemical_formula_structural   HgH16C6(N2Cl)2
_chemical_formula_sum   'Hg2 H32 C12 N8 Cl4'
_cell_volume   681.19986843
_cell_formula_units_Z   2
loop_
 _symmetry_equiv_pos_site_id
 _symmetry_equiv_pos_as_xyz
  1  'x, y, z'
loop_
 _atom_site_type_symbol
 _atom_site_label
 _atom_site_symmetry_multiplicity
 _atom_site_fract_x
 _atom_site_fract_y
 _atom_site_fract_z
 _atom_site_occupancy
  Hg  Hg0  1  0.19086700  0.80913300  0.25000000  1
  Hg  Hg1  1  0.80913300  0.19086700  0.75000000  1
  H  H0  1  0.74557000  0.07205000  0.16288300  1
  H  H1  1  0.07205000  0.74557000  0.66288300  1
  H  H2  1  0.25443000  0.92795000  0.83711700  1
  H  H3  1  0.92795000  0.25443000  0.33711700  1
  H  H4  1  0.93777300  0.24881700  0.13225100  1
  H  H5  1  0.24881700  0.93777300  0.63225100  1
  H  H6  1  0.06222700  0.75118300  0.86774900  1
  H  H7  1  0.75118300  0.06222700  0.36774900  1
  H  H8  1  0.80181000  0.12767000  0.06048000  1
  H  H9  1  0.12767000  0.80181000  0.56048000  1
  H  H10  1  0.19819000  0.87233000  0.93952000  1
  H  H11  1  0.87233000  0.19819000  0.43952000  1
  H  H12  1  0.61164100  0.66784400  0.06447400  1
  H  H13  1  0.66784400  0.61164100  0.56447400  1
  H  H14  1  0.38835900  0.33215600  0.93552600  1
  H  H15  1  0.33215600  0.38835900  0.43552600  1
  H  H16  1  0.61463500  0.40240400  0.17998300  1
  H  H17  1  0.40240400  0.61463500  0.67998300  1
  H  H18  1  0.38536500  0.59759600  0.82001700  1
  H  H19  1  0.59759600  0.38536500  0.32001700  1
  H  H20  1  0.49459000  0.29238100  0.09747700  1
  H  H21  1  0.29238100  0.49459000  0.59747700  1
  H  H22  1  0.50541000  0.70761900  0.90252300  1
  H  H23  1  0.70761900  0.50541000  0.40252300  1
  H  H24  1  0.75275000  0.50848900  0.99922100  1
  H  H25  1  0.50848900  0.75275000  0.49922100  1
  H  H26  1  0.24725000  0.49151100  0.00077900  1
  H  H27  1  0.49151100  0.24725000  0.50077900  1
  H  H28  1  0.87135200  0.61728200  0.08382500  1
  H  H29  1  0.61728200  0.87135200  0.58382500  1
  H  H30  1  0.12864800  0.38271800  0.91617500  1
  H  H31  1  0.38271800  0.12864800  0.41617500  1
  C  C0  1  0.21342800  0.87731600  0.12611100  1
  C  C1  1  0.87731600  0.21342800  0.62611100  1
  C  C2  1  0.78657200  0.12268400  0.87388900  1
  C  C3  1  0.12268400  0.78657200  0.37388900  1
  C  C4  1  0.64292500  0.35997200  0.11696200  1
  C  C5  1  0.35997200  0.64292500  0.61696200  1
  C  C6  1  0.35707500  0.64002800  0.88303800  1
  C  C7  1  0.64002800  0.35707500  0.38303800  1
  C  C8  1  0.72585700  0.54813400  0.06267600  1
  C  C9  1  0.54813400  0.72585700  0.56267600  1
  C  C10  1  0.27414300  0.45186600  0.93732400  1
  C  C11  1  0.45186600  0.27414300  0.43732400  1
  N  N0  1  0.22452100  0.91371700  0.05559800  1
  N  N1  1  0.91371700  0.22452100  0.55559800  1
  N  N2  1  0.77547900  0.08628300  0.94440200  1
  N  N3  1  0.08628300  0.77547900  0.44440200  1
  N  N4  1  0.79228200  0.19071700  0.11714800  1
  N  N5  1  0.19071700  0.79228200  0.61714800  1
  N  N6  1  0.20771800  0.80928300  0.88285200  1
  N  N7  1  0.80928300  0.20771800  0.38285200  1
  Cl  Cl0  1  0.64637800  0.85607200  0.26244700  1
  Cl  Cl1  1  0.85607200  0.64637800  0.76244700  1
  Cl  Cl2  1  0.35362200  0.14392800  0.73755300  1
  Cl  Cl3  1  0.14392800  0.35362200  0.23755300  1
loop_
_geom_bond_atom_site_label_1
_geom_bond_atom_site_label_2
_geom_bond_distance
_geom_bond_site_symmetry_2
H0 N4 1.060125 1_555
H1 N5 1.060125 1_555
H2 N6 1.060125 1_555
H3 N7 1.060125 1_555
H4 N4 1.037004 1_555
H5 N5 1.037004 1_555
H6 N6 1.037004 1_555
H7 N7 1.037004 1_555
H8 N4 1.039111 1_555
H9 N5 1.039111 1_555
H10 N6 1.039111 1_555
H11 N7 1.039111 1_555
C0 N0 1.169005 1_555
C0 Hg0 2.057844 1_555
C1 N1 1.169005 1_555
C1 Hg1 2.057844 1_555
C2 N2 1.169005 1_555
C2 Hg1 2.057844 1_555
C3 N3 1.169005 1_555
C3 Hg0 2.057844 1_555
C4 H16 1.096574 1_555
C4 H20 1.098299 1_555
C4 N4 1.500227 1_555
C5 H17 1.096574 1_555
C5 H21 1.098299 1_555
C5 N5 1.500227 1_555
C6 H18 1.096574 1_555
C6 H22 1.098299 1_555
C6 N6 1.500227 1_555
C7 H19 1.096574 1_555
C7 H23 1.098299 1_555
C7 N7 1.500227 1_555
C8 H28 1.096616 1_555
C8 H24 1.096795 1_554
C8 H12 1.100310 1_555
C9 H29 1.096616 1_555
C9 H25 1.096795 1_555
C9 H13 1.100310 1_555
C10 H30 1.096616 1_555
C10 H26 1.096795 1_556
C10 H14 1.100310 1_555
C11 H31 1.096616 1_555
C11 H27 1.096795 1_555
C11 H15 1.100310 1_555
Cl0 Hg0 2.953920 1_555
Cl1 Hg1 2.953920 1_555
Cl2 Hg1 2.953920 1_555
Cl3 Hg0 2.953920 1_555
