# generated using pymatgen
data_Li2Ti3CoO8
_symmetry_space_group_name_H-M   'P 1'
_cell_length_a   5.88499569
_cell_length_b   5.88499569
_cell_length_c   5.88499581
_cell_angle_alpha   60.87888726
_cell_angle_beta   60.87888726
_cell_angle_gamma   60.87888351
_symmetry_Int_Tables_number   1
_chemical_formula_structural   Li2Ti3CoO8
_chemical_formula_sum   'Li2 Ti3 Co1 O8'
_cell_volume   146.97517530
_cell_formula_units_Z   1
loop_
 _symmetry_equiv_pos_site_id
 _symmetry_equiv_pos_as_xyz
  1  'x, y, z'
loop_
 _atom_site_type_symbol
 _atom_site_label
 _atom_site_symmetry_multiplicity
 _atom_site_fract_x
 _atom_site_fract_y
 _atom_site_fract_z
 _atom_site_occupancy
  Li  Li0  1  0.12151600  0.12151600  0.12151600  1
  Li  Li1  1  0.87848400  0.87848400  0.87848400  1
  Ti  Ti0  1  0.50000000  0.00000000  0.50000000  1
  Ti  Ti1  1  0.00000000  0.50000000  0.50000000  1
  Ti  Ti2  1  0.50000000  0.50000000  0.00000000  1
  Co  Co0  1  0.50000000  0.50000000  0.50000000  1
  O  O0  1  0.25979400  0.25979400  0.25979400  1
  O  O1  1  0.25725100  0.25725100  0.71217700  1
  O  O2  1  0.71217700  0.25725100  0.25725100  1
  O  O3  1  0.25725100  0.71217700  0.25725100  1
  O  O4  1  0.74274900  0.28782300  0.74274900  1
  O  O5  1  0.28782300  0.74274900  0.74274900  1
  O  O6  1  0.74274900  0.74274900  0.28782300  1
  O  O7  1  0.74020600  0.74020600  0.74020600  1
loop_
_geom_bond_atom_site_label_1
_geom_bond_atom_site_label_2
_geom_bond_distance
_geom_bond_site_symmetry_2
Li0 O0 1.979967 1_555
Li0 O3 1.988579 1_545
Li0 O2 1.988579 1_455
Li0 O1 1.988579 1_554
Li1 O7 1.979967 1_555
Li1 O5 1.988579 1_655
Li1 O4 1.988579 1_565
Li1 O6 1.988579 1_556
Co0 O2 2.038327 1_555
Co0 O3 2.038327 1_555
Co0 O4 2.038327 1_555
Co0 O5 2.038327 1_555
Co0 O6 2.038327 1_555
Co0 O1 2.038327 1_555
O0 Ti1 2.017896 1_555
O0 Ti0 2.017896 1_555
O0 Ti2 2.017896 1_555
O1 Ti1 1.972467 1_555
O1 Ti0 1.972467 1_555
O2 Ti2 1.972467 1_555
O2 Ti0 1.972467 1_555
O3 Ti2 1.972467 1_555
O3 Ti1 1.972467 1_555
O4 Ti2 1.972467 1_556
O4 Ti1 1.972467 1_655
O5 Ti2 1.972467 1_556
O5 Ti0 1.972467 1_565
O6 Ti0 1.972467 1_565
O6 Ti1 1.972467 1_655
O7 Ti1 2.017896 1_655
O7 Ti0 2.017896 1_565
O7 Ti2 2.017896 1_556
