# generated using pymatgen
data_V3CoO8
_symmetry_space_group_name_H-M   'P 1'
_cell_length_a   5.58529000
_cell_length_b   5.59235226
_cell_length_c   7.34726872
_cell_angle_alpha   89.46935912
_cell_angle_beta   89.49956485
_cell_angle_gamma   89.93813838
_symmetry_Int_Tables_number   1
_chemical_formula_structural   V3CoO8
_chemical_formula_sum   'V3 Co1 O8'
_cell_volume   229.47256121
_cell_formula_units_Z   1
loop_
 _symmetry_equiv_pos_site_id
 _symmetry_equiv_pos_as_xyz
  1  'x, y, z'
loop_
 _atom_site_type_symbol
 _atom_site_label
 _atom_site_symmetry_multiplicity
 _atom_site_fract_x
 _atom_site_fract_y
 _atom_site_fract_z
 _atom_site_occupancy
  V  V0  1  0.99016700  0.93611700  0.12131600  1
  V  V1  1  0.50182400  0.56752900  0.62730500  1
  V  V2  1  0.00278000  0.43279900  0.37487200  1
  Co  Co0  1  0.49199000  0.06778000  0.87726400  1
  O  O0  1  0.69537500  0.96490400  0.07405800  1
  O  O1  1  0.55022000  0.86012400  0.67261600  1
  O  O2  1  0.06352400  0.63111200  0.18488400  1
  O  O3  1  0.19649500  0.52083000  0.55782600  1
  O  O4  1  0.69319600  0.47237300  0.44346000  1
  O  O5  1  0.55311700  0.39972100  0.81599700  1
  O  O6  1  0.05602300  0.12509000  0.31142800  1
  O  O7  1  0.15688800  0.02162300  0.93897500  1
loop_
_geom_bond_atom_site_label_1
_geom_bond_atom_site_label_2
_geom_bond_distance
_geom_bond_site_symmetry_2
Co0 O0 1.929741 1_546
Co0 O1 1.933434 1_545
Co0 O5 1.936069 1_555
Co0 O7 1.938892 1_555
O0 V0 1.692871 1_555
O1 V1 1.695279 1_555
O2 V2 1.804840 1_555
O2 V0 1.811762 1_455
O3 V1 1.804343 1_555
O3 V2 1.805188 1_555
O4 V1 1.799187 1_555
O4 V2 1.810743 1_655
O5 V1 1.693231 1_555
O6 V0 1.800096 1_445
O6 V2 1.810597 1_555
O7 V0 1.690528 1_446
