# generated using pymatgen
data_Li2V3FeO8
_symmetry_space_group_name_H-M   'P 1'
_cell_length_a   5.76938443
_cell_length_b   5.77979076
_cell_length_c   9.76102354
_cell_angle_alpha   89.86786050
_cell_angle_beta   90.06618759
_cell_angle_gamma   120.05968042
_symmetry_Int_Tables_number   1
_chemical_formula_structural   Li2V3FeO8
_chemical_formula_sum   'Li4 V6 Fe2 O16'
_cell_volume   281.71173720
_cell_formula_units_Z   2
loop_
 _symmetry_equiv_pos_site_id
 _symmetry_equiv_pos_as_xyz
  1  'x, y, z'
loop_
 _atom_site_type_symbol
 _atom_site_label
 _atom_site_symmetry_multiplicity
 _atom_site_fract_x
 _atom_site_fract_y
 _atom_site_fract_z
 _atom_site_occupancy
  Li  Li0  1  0.33449500  0.66671800  0.89322300  1
  Li  Li1  1  0.99737000  0.99766300  0.99422100  1
  Li  Li2  1  0.00263000  0.00029200  0.49422100  1
  Li  Li3  1  0.66550500  0.33222300  0.39322300  1
  V  V0  1  0.17295900  0.82148500  0.21522600  1
  V  V1  1  0.17462900  0.35099500  0.21190900  1
  V  V2  1  0.64627000  0.82247700  0.21537900  1
  V  V3  1  0.35373000  0.17620700  0.71537900  1
  V  V4  1  0.82704100  0.64852600  0.71522600  1
  V  V5  1  0.82537100  0.17636500  0.71190900  1
  Fe  Fe0  1  0.33576900  0.66773300  0.49714000  1
  Fe  Fe1  1  0.66423100  0.33196300  0.99714000  1
  O  O0  1  0.16377800  0.83899400  0.60730300  1
  O  O1  1  0.03291600  0.51576100  0.33493300  1
  O  O2  1  0.33329600  0.66972600  0.09330200  1
  O  O3  1  0.99883400  0.99911100  0.30779400  1
  O  O4  1  0.00116600  0.00027600  0.80779400  1
  O  O5  1  0.16186500  0.32501500  0.60626300  1
  O  O6  1  0.48330200  0.96597400  0.33550700  1
  O  O7  1  0.48211600  0.51589000  0.33464600  1
  O  O8  1  0.32359900  0.16320800  0.10707500  1
  O  O9  1  0.67640100  0.83960900  0.60707500  1
  O  O10  1  0.51669800  0.48267100  0.83550700  1
  O  O11  1  0.51788400  0.03377500  0.83464600  1
  O  O12  1  0.66670400  0.33642900  0.59330200  1
  O  O13  1  0.83622200  0.67521500  0.10730300  1
  O  O14  1  0.96708400  0.48284500  0.83493300  1
  O  O15  1  0.83813500  0.16315100  0.10626300  1
loop_
_geom_bond_atom_site_label_1
_geom_bond_atom_site_label_2
_geom_bond_distance
_geom_bond_site_symmetry_2
Li0 O10 1.917900 1_555
Li0 O14 1.920842 1_455
Li0 O11 1.922055 1_565
Li0 O2 1.953144 1_556
Li1 O4 1.819812 1_665
Li1 O13 1.952719 1_556
Li1 O15 1.960193 1_566
Li1 O8 1.966563 1_666
Li2 O3 1.819812 1_445
Li2 O0 1.952710 1_545
Li2 O5 1.960193 1_555
Li2 O9 1.966563 1_445
Li3 O6 1.917895 1_545
Li3 O1 1.920842 1_655
Li3 O7 1.922050 1_555
Li3 O12 1.953144 1_555
Fe0 O9 2.011157 1_555
Fe0 O5 2.016596 1_555
Fe0 O0 2.027824 1_555
Fe0 O6 2.169266 1_555
Fe0 O7 2.179612 1_555
Fe0 O1 2.189490 1_555
Fe1 O8 2.011157 1_556
Fe1 O15 2.016587 1_556
Fe1 O13 2.027824 1_556
Fe1 O10 2.169266 1_555
Fe1 O11 2.179605 1_555
Fe1 O14 2.189490 1_555
O0 V4 1.988158 1_455
O0 V3 1.994891 1_565
O1 V0 1.924284 1_555
O1 V1 1.950625 1_555
O2 V0 1.965104 1_555
O2 V2 1.965358 1_555
O2 V1 1.968553 1_555
O3 V2 1.978156 1_555
O3 V0 1.979700 1_655
O3 V1 1.991979 1_665
O4 V3 1.978156 1_555
O4 V4 1.979696 1_445
O4 V5 1.991979 1_455
O5 V5 1.974851 1_455
O5 V3 2.011539 1_555
O6 V2 1.932633 1_555
O6 V0 1.945096 1_555
O7 V2 1.924586 1_555
O7 V1 1.948667 1_555
O8 V1 1.976233 1_555
O8 V0 2.010868 1_545
O9 V5 1.976229 1_565
O9 V4 2.010868 1_555
O10 V3 1.932629 1_555
O10 V4 1.945097 1_555
O11 V3 1.924582 1_555
O11 V5 1.948667 1_555
O12 V4 1.965108 1_555
O12 V3 1.965358 1_555
O12 V5 1.968553 1_555
O13 V0 1.988158 1_655
O13 V2 1.994895 1_555
O14 V4 1.924284 1_555
O14 V5 1.950629 1_555
O15 V1 1.974851 1_655
O15 V2 2.011543 1_545
