# generated using pymatgen
data_Nb9AsO25
_symmetry_space_group_name_H-M   'P 1'
_cell_length_a   15.86476124
_cell_length_b   15.86476124
_cell_length_c   3.86377179
_cell_angle_alpha   90.00000000
_cell_angle_beta   90.00000000
_cell_angle_gamma   90.00000000
_symmetry_Int_Tables_number   1
_chemical_formula_structural   Nb9AsO25
_chemical_formula_sum   'Nb18 As2 O50'
_cell_volume   972.47523019
_cell_formula_units_Z   2
loop_
 _symmetry_equiv_pos_site_id
 _symmetry_equiv_pos_as_xyz
  1  'x, y, z'
loop_
 _atom_site_type_symbol
 _atom_site_label
 _atom_site_symmetry_multiplicity
 _atom_site_fract_x
 _atom_site_fract_y
 _atom_site_fract_z
 _atom_site_occupancy
  Nb  Nb0  1  0.78155916  0.60714861  0.75162570  1
  Nb  Nb1  1  0.32710998  0.61519121  0.74217498  1
  Nb  Nb2  1  0.61519121  0.67289002  0.25782502  1
  Nb  Nb3  1  0.10714861  0.71844084  0.75162570  1
  Nb  Nb4  1  0.39285139  0.78155916  0.24837430  1
  Nb  Nb5  1  0.88480879  0.82710998  0.74217498  1
  Nb  Nb6  1  0.17289002  0.88480879  0.25782502  1
  Nb  Nb7  1  0.71844084  0.89285139  0.24837430  1
  Nb  Nb8  1  0.50000000  -0.00000000  0.28953787  1
  Nb  Nb9  1  0.28155916  0.10714861  0.24837430  1
  Nb  Nb10  1  0.82710998  0.11519121  0.25782502  1
  Nb  Nb11  1  0.11519121  0.17289002  0.74217498  1
  Nb  Nb12  1  0.60714861  0.21844084  0.24837430  1
  Nb  Nb13  1  0.89285139  0.28155916  0.75162570  1
  Nb  Nb14  1  0.38480879  0.32710998  0.25782502  1
  Nb  Nb15  1  0.67289002  0.38480879  0.74217498  1
  Nb  Nb16  1  0.21844084  0.39285139  0.75162570  1
  Nb  Nb17  1  -0.00000000  0.50000000  0.71046213  1
  As  As0  1  -0.00000000  -0.00000000  -0.00000000  1
  As  As1  1  0.50000000  0.50000000  -0.00000000  1
  O  O0  1  0.28142137  0.51086766  0.74843637  1
  O  O1  1  0.57427509  0.55046729  0.23679647  1
  O  O2  1  0.88347655  0.55063413  0.74736073  1
  O  O3  1  0.44953271  0.57427509  0.76320353  1
  O  O4  1  0.74847317  0.61240902  0.25101115  1
  O  O5  1  0.05063413  0.61652345  0.74736073  1
  O  O6  1  0.34283878  0.64671199  0.25171526  1
  O  O7  1  0.64671199  0.65716122  0.74828474  1
  O  O8  1  0.21817101  0.67539114  0.75666876  1
  O  O9  1  0.82460886  0.71817101  0.75666876  1
  O  O10  1  0.51086766  0.71857863  0.25156363  1
  O  O11  1  0.38759098  0.74847317  0.74898885  1
  O  O12  1  0.11240902  0.75152683  0.25101115  1
  O  O13  1  0.98913234  0.78142137  0.74843637  1
  O  O14  1  0.67539114  0.78182899  0.24333124  1
  O  O15  1  0.28182899  0.82460886  0.24333124  1
  O  O16  1  0.85328801  0.84283878  0.25171526  1
  O  O17  1  0.15716122  0.85328801  0.74828474  1
  O  O18  1  0.44936587  0.88347655  0.25263927  1
  O  O19  1  0.75152683  0.88759098  0.74898885  1
  O  O20  1  0.05046729  0.92572491  0.23679647  1
  O  O21  1  0.61652345  0.94936587  0.25263927  1
  O  O22  1  0.92572491  0.94953271  0.76320353  1
  O  O23  1  0.21857863  0.98913234  0.25156363  1
  O  O24  1  0.50000000  -0.00000000  0.76203138  1
  O  O25  1  0.78142137  0.01086766  0.25156363  1
  O  O26  1  0.07427509  0.05046729  0.76320353  1
  O  O27  1  0.38347655  0.05063413  0.25263927  1
  O  O28  1  0.94953271  0.07427509  0.23679647  1
  O  O29  1  0.24847317  0.11240902  0.74898885  1
  O  O30  1  0.55063413  0.11652345  0.25263927  1
  O  O31  1  0.84283878  0.14671199  0.74828474  1
  O  O32  1  0.14671199  0.15716122  0.25171526  1
  O  O33  1  0.71817101  0.17539114  0.24333124  1
  O  O34  1  0.32460886  0.21817101  0.24333124  1
  O  O35  1  0.01086766  0.21857863  0.74843637  1
  O  O36  1  0.88759098  0.24847317  0.25101115  1
  O  O37  1  0.61240902  0.25152683  0.74898885  1
  O  O38  1  0.48913234  0.28142137  0.25156363  1
  O  O39  1  0.17539114  0.28182899  0.75666876  1
  O  O40  1  0.78182899  0.32460886  0.75666876  1
  O  O41  1  0.35328801  0.34283878  0.74828474  1
  O  O42  1  0.65716122  0.35328801  0.25171526  1
  O  O43  1  0.94936587  0.38347655  0.74736073  1
  O  O44  1  0.25152683  0.38759098  0.25101115  1
  O  O45  1  0.55046729  0.42572491  0.76320353  1
  O  O46  1  0.11652345  0.44936587  0.74736073  1
  O  O47  1  0.42572491  0.44953271  0.23679647  1
  O  O48  1  0.71857863  0.48913234  0.74843637  1
  O  O49  1  -0.00000000  0.50000000  0.23796862  1
loop_
_geom_bond_atom_site_label_1
_geom_bond_atom_site_label_2
_geom_bond_distance
_geom_bond_site_symmetry_2
Nb0 O2 1.848917 1_555
Nb0 O9 1.889223 1_555
Nb0 O4 2.001375 1_556
Nb0 O4 2.005953 1_555
Nb0 O48 2.122263 1_555
Nb0 O7 2.281752 1_555
Nb1 O0 1.806994 1_555
Nb1 O8 1.975414 1_555
Nb1 O6 1.975716 1_555
Nb1 O6 2.046534 1_556
Nb1 O3 2.049423 1_555
Nb1 O11 2.322158 1_555
Nb2 O10 1.806994 1_555
Nb2 O14 1.975414 1_555
Nb2 O7 1.975716 1_555
Nb2 O7 2.046534 1_554
Nb2 O1 2.049423 1_555
Nb2 O4 2.322158 1_555
Nb3 O5 1.848917 1_555
Nb3 O8 1.889223 1_555
Nb3 O12 2.001375 1_556
Nb3 O12 2.005953 1_555
Nb3 O13 2.122263 1_455
Nb3 O17 2.281752 1_555
Nb4 O18 1.848917 1_555
Nb4 O15 1.889223 1_555
Nb4 O11 2.001375 1_554
Nb4 O11 2.005953 1_555
Nb4 O10 2.122263 1_555
Nb4 O6 2.281752 1_555
Nb5 O13 1.806994 1_555
Nb5 O9 1.975414 1_555
Nb5 O16 1.975716 1_555
Nb5 O16 2.046534 1_556
Nb5 O22 2.049423 1_555
Nb5 O19 2.322158 1_555
Nb6 O23 1.806994 1_555
Nb6 O15 1.975414 1_555
Nb6 O17 1.975716 1_555
Nb6 O17 2.046534 1_554
Nb6 O20 2.049423 1_555
Nb6 O12 2.322158 1_555
Nb7 O21 1.848917 1_555
Nb7 O14 1.889223 1_555
Nb7 O19 2.001375 1_554
Nb7 O19 2.005953 1_555
Nb7 O25 2.122263 1_565
Nb7 O16 2.281752 1_555
Nb8 O24 1.825607 1_555
Nb8 O27 2.020643 1_555
Nb8 O21 2.020643 1_545
Nb8 O18 2.020643 1_545
Nb8 O30 2.020643 1_555
Nb8 O24 2.038165 1_554
Nb9 O27 1.848917 1_555
Nb9 O34 1.889223 1_555
Nb9 O29 2.001375 1_554
Nb9 O29 2.005953 1_555
Nb9 O23 2.122263 1_545
Nb9 O32 2.281752 1_555
Nb10 O25 1.806994 1_555
Nb10 O33 1.975414 1_555
Nb10 O31 1.975716 1_555
Nb10 O31 2.046534 1_554
Nb10 O28 2.049423 1_555
Nb10 O36 2.322158 1_555
Nb11 O35 1.806994 1_555
Nb11 O39 1.975414 1_555
Nb11 O32 1.975716 1_555
Nb11 O32 2.046534 1_556
Nb11 O26 2.049423 1_555
Nb11 O29 2.322158 1_555
Nb12 O30 1.848917 1_555
Nb12 O33 1.889223 1_555
Nb12 O37 2.001375 1_554
Nb12 O37 2.005953 1_555
Nb12 O38 2.122263 1_555
Nb12 O42 2.281752 1_555
Nb13 O43 1.848917 1_555
Nb13 O40 1.889223 1_555
Nb13 O36 2.001375 1_556
Nb13 O36 2.005953 1_555
Nb13 O35 2.122263 1_655
Nb13 O31 2.281752 1_555
Nb14 O38 1.806994 1_555
Nb14 O34 1.975414 1_555
Nb14 O41 1.975716 1_555
Nb14 O41 2.046534 1_554
Nb14 O47 2.049423 1_555
Nb14 O44 2.322158 1_555
Nb15 O48 1.806994 1_555
Nb15 O40 1.975414 1_555
Nb15 O42 1.975716 1_555
Nb15 O42 2.046534 1_556
Nb15 O45 2.049423 1_555
Nb15 O37 2.322158 1_555
Nb16 O46 1.848917 1_555
Nb16 O39 1.889223 1_555
Nb16 O44 2.001375 1_556
Nb16 O44 2.005953 1_555
Nb16 O0 2.122263 1_555
Nb16 O41 2.281752 1_555
Nb17 O49 1.825607 1_555
Nb17 O43 2.020643 1_455
Nb17 O5 2.020643 1_555
Nb17 O2 2.020643 1_455
Nb17 O46 2.020643 1_555
Nb17 O49 2.038165 1_556
As0 O22 1.693121 1_444
As0 O28 1.693121 1_455
As0 O20 1.693121 1_545
As0 O26 1.693121 1_554
As1 O3 1.693121 1_554
As1 O47 1.693121 1_555
As1 O1 1.693121 1_555
As1 O45 1.693121 1_554
