# generated using pymatgen
data_Hg2Pt2O7
_symmetry_space_group_name_H-M   'P 1'
_cell_length_a   7.23003614
_cell_length_b   7.23016313
_cell_length_c   7.23003337
_cell_angle_alpha   60.00101734
_cell_angle_beta   60.00057701
_cell_angle_gamma   60.00063458
_symmetry_Int_Tables_number   1
_chemical_formula_structural   Hg2Pt2O7
_chemical_formula_sum   'Hg4 Pt4 O14'
_cell_volume   267.25213508
_cell_formula_units_Z   2
loop_
 _symmetry_equiv_pos_site_id
 _symmetry_equiv_pos_as_xyz
  1  'x, y, z'
loop_
 _atom_site_type_symbol
 _atom_site_label
 _atom_site_symmetry_multiplicity
 _atom_site_fract_x
 _atom_site_fract_y
 _atom_site_fract_z
 _atom_site_occupancy
  Hg  Hg0  1  0.12500239  0.12500290  0.12499631  1
  Hg  Hg1  1  0.62499868  0.12498966  0.12500896  1
  Hg  Hg2  1  0.12499513  0.62500289  0.12499322  1
  Hg  Hg3  1  0.12501105  0.12498990  0.62500025  1
  Pt  Pt0  1  0.62500706  0.62500501  0.12499772  1
  Pt  Pt1  1  0.62499069  0.62501578  0.62499253  1
  Pt  Pt2  1  0.62499469  0.12499332  0.62500181  1
  Pt  Pt3  1  0.12500056  0.62500005  0.62500910  1
  O  O0  1  0.70336129  0.29666700  0.29660896  1
  O  O1  1  0.70335878  0.29667868  0.70335993  1
  O  O2  1  0.99998791  0.00003412  0.99998487  1
  O  O3  1  0.29664506  0.70335340  0.29664842  1
  O  O4  1  0.70335453  0.70335655  0.29665383  1
  O  O5  1  0.95334404  0.54665061  0.54664556  1
  O  O6  1  0.29665417  0.70335397  0.70335296  1
  O  O7  1  0.25001451  0.24996092  0.25001473  1
  O  O8  1  0.95335710  0.54665101  0.95335125  1
  O  O9  1  0.54663832  0.95331892  0.54664091  1
  O  O10  1  0.54664249  0.54665030  0.95334279  1
  O  O11  1  0.95339559  0.95332739  0.54664084  1
  O  O12  1  0.54664001  0.95332998  0.95339200  1
  O  O13  1  0.29660596  0.29666766  0.70336304  1
loop_
_geom_bond_atom_site_label_1
_geom_bond_atom_site_label_2
_geom_bond_distance
_geom_bond_site_symmetry_2
Hg0 O7 2.213670 1_555
Hg0 O2 2.213706 1_454
Hg0 O13 2.519325 1_554
Hg0 O12 2.519345 1_544
Hg0 O0 2.519363 1_455
Hg0 O11 2.519397 1_445
Hg0 O8 2.519462 1_454
Hg0 O3 2.519473 1_545
Hg1 O7 2.213659 1_555
Hg1 O2 2.213688 1_554
Hg1 O9 2.519315 1_545
Hg1 O12 2.519315 1_544
Hg1 O0 2.519340 1_555
Hg1 O4 2.519373 1_545
Hg1 O1 2.519420 1_554
Hg1 O10 2.519543 1_554
Hg2 O2 2.213985 1_464
Hg2 O7 2.214048 1_555
Hg2 O8 2.519291 1_454
Hg2 O4 2.519363 1_455
Hg2 O6 2.519368 1_554
Hg2 O10 2.519406 1_554
Hg2 O3 2.519439 1_555
Hg2 O5 2.519441 1_455
Hg3 O2 2.213669 1_455
Hg3 O7 2.213674 1_555
Hg3 O9 2.519277 1_545
Hg3 O13 2.519314 1_555
Hg3 O11 2.519329 1_445
Hg3 O6 2.519389 1_545
Hg3 O1 2.519431 1_455
Hg3 O5 2.519540 1_455
O0 Pt0 1.977032 1_555
O0 Pt2 1.977375 1_555
O1 Pt1 1.977012 1_555
O1 Pt2 1.977450 1_555
O3 Pt3 1.977157 1_555
O3 Pt0 1.977166 1_555
O4 Pt1 1.977019 1_555
O4 Pt0 1.977119 1_555
O5 Pt1 1.977102 1_555
O5 Pt3 1.977198 1_655
O6 Pt1 1.977008 1_555
O6 Pt3 1.977097 1_555
O8 Pt3 1.977056 1_655
O8 Pt0 1.977097 1_556
O9 Pt1 1.976826 1_555
O9 Pt2 1.977351 1_565
O10 Pt1 1.977084 1_555
O10 Pt0 1.977220 1_556
O11 Pt3 1.976962 1_655
O11 Pt2 1.977399 1_565
O12 Pt0 1.976955 1_556
O12 Pt2 1.977348 1_565
O13 Pt3 1.976990 1_555
O13 Pt2 1.977344 1_555
