# generated using pymatgen
data_Li5V3P8O29
_symmetry_space_group_name_H-M   'P 1'
_cell_length_a   9.77410800
_cell_length_b   9.78599858
_cell_length_c   14.02581618
_cell_angle_alpha   89.58628808
_cell_angle_beta   89.69556224
_cell_angle_gamma   60.14417589
_symmetry_Int_Tables_number   1
_chemical_formula_structural   Li5V3P8O29
_chemical_formula_sum   'Li10 V6 P16 O58'
_cell_volume   1163.47752574
_cell_formula_units_Z   2
loop_
 _symmetry_equiv_pos_site_id
 _symmetry_equiv_pos_as_xyz
  1  'x, y, z'
loop_
 _atom_site_type_symbol
 _atom_site_label
 _atom_site_symmetry_multiplicity
 _atom_site_fract_x
 _atom_site_fract_y
 _atom_site_fract_z
 _atom_site_occupancy
  Li  Li0  1  0.22821000  0.09447500  0.55691000  1
  Li  Li1  1  0.08665900  0.68358100  0.56092500  1
  Li  Li2  1  0.23736100  0.66098200  0.06108900  1
  Li  Li3  1  0.66800300  0.09343500  0.06317700  1
  Li  Li4  1  0.31835900  0.77299400  0.43782900  1
  Li  Li5  1  0.68167000  0.22395200  0.55594200  1
  Li  Li6  1  0.33088500  0.90720300  0.94118900  1
  Li  Li7  1  0.76579200  0.33670100  0.94193100  1
  Li  Li8  1  0.90374600  0.32543000  0.43695600  1
  Li  Li9  1  0.99860700  0.99959500  0.00372900  1
  V  V0  1  0.43278100  0.56643100  0.25179300  1
  V  V1  1  0.56852400  0.43140500  0.74783300  1
  V  V2  1  0.43485900  0.00142700  0.74922100  1
  V  V3  1  0.56772200  0.99477400  0.25301000  1
  V  V4  1  0.00587200  0.43320500  0.24267900  1
  V  V5  1  0.99431500  0.56977100  0.75693000  1
  P  P0  1  0.08378800  0.22251800  0.84010500  1
  P  P1  1  0.22796400  0.08960900  0.33850500  1
  P  P2  1  0.08509300  0.68157900  0.34590400  1
  P  P3  1  0.33671400  0.33302700  0.12777400  1
  P  P4  1  0.32805800  0.33776800  0.63053100  1
  P  P5  1  0.22836000  0.68472900  0.84105300  1
  P  P6  1  0.32075400  0.76909100  0.65784100  1
  P  P7  1  0.68616800  0.08703800  0.84610200  1
  P  P8  1  0.31340700  0.91263900  0.15621600  1
  P  P9  1  0.68092100  0.22807200  0.34123400  1
  P  P10  1  0.77387300  0.31541600  0.15915800  1
  P  P11  1  0.67022100  0.66148100  0.36942100  1
  P  P12  1  0.66416600  0.66428600  0.87283100  1
  P  P13  1  0.91447300  0.31964500  0.65480100  1
  P  P14  1  0.77306200  0.91392800  0.66231100  1
  P  P15  1  0.91731400  0.77890500  0.15985000  1
  O  O0  1  0.00208900  0.24856200  0.56364600  1
  O  O1  1  0.07833600  0.25570200  0.33767900  1
  O  O2  1  0.22394900  0.98505900  0.06588100  1
  O  O3  1  0.25524200  0.08346200  0.83969600  1
  O  O4  1  0.08275600  0.38210900  0.82996300  1
  O  O5  1  0.18943400  0.32731400  0.17537900  1
  O  O6  1  0.09524900  0.52189300  0.32068100  1
  O  O7  1  0.01327300  0.78594600  0.07825700  1
  O  O8  1  0.08293800  0.65972000  0.83551400  1
  O  O9  1  0.32422600  0.18782000  0.66956500  1
  O  O10  1  0.37506300  0.10456500  0.32218100  1
  O  O11  1  0.18165600  0.48651000  0.67677500  1
  O  O12  1  0.32553300  0.33815400  0.02161200  1
  O  O13  1  0.31982800  0.34541500  0.52418300  1
  O  O14  1  0.32388700  0.48831100  0.16707600  1
  O  O15  1  0.52957300  0.08972600  0.83185900  1
  O  O16  1  0.48934600  0.18622400  0.16670300  1
  O  O17  1  0.25156600  0.66445800  0.34103100  1
  O  O18  1  0.20815500  0.79326900  0.74850700  1
  O  O19  1  0.24561400  0.75311000  0.56862900  1
  O  O20  1  0.21973600  0.77602800  0.92938400  1
  O  O21  1  0.38099000  0.52902600  0.82996900  1
  O  O22  1  0.48386100  0.32945600  0.66768700  1
  O  O23  1  0.34163900  0.74124500  0.16386200  1
  O  O24  1  0.52156500  0.38131100  0.32165300  1
  O  O25  1  0.65680000  0.08684700  0.34020000  1
  O  O26  1  0.20494100  0.00031000  0.24878700  1
  O  O27  1  0.23795900  0.00129000  0.42919200  1
  O  O28  1  0.76718700  0.00676900  0.57678500  1
  O  O29  1  0.33734300  0.91781800  0.65669300  1
  O  O30  1  0.48137200  0.62051500  0.67813700  1
  O  O31  1  0.66151200  0.25712400  0.83424800  1
  O  O32  1  0.51325100  0.67118100  0.33250800  1
  O  O33  1  0.62047100  0.47070400  0.16912300  1
  O  O34  1  0.78320600  0.22327900  0.07065800  1
  O  O35  1  0.75556100  0.24666400  0.43016600  1
  O  O36  1  0.79439800  0.20681700  0.25108900  1
  O  O37  1  0.74947300  0.33533800  0.65563400  1
  O  O38  1  0.51167300  0.81021500  0.83395200  1
  O  O39  1  0.46851800  0.91391000  0.16681000  1
  O  O40  1  0.67816400  0.50913200  0.83235500  1
  O  O41  1  0.67555700  0.65822700  0.97894100  1
  O  O42  1  0.67535600  0.65450400  0.47567900  1
  O  O43  1  0.81725400  0.51349900  0.32434700  1
  O  O44  1  0.62043200  0.90445400  0.67869000  1
  O  O45  1  0.66863200  0.81089500  0.32390700  1
  O  O46  1  0.91757700  0.34202900  0.16400700  1
  O  O47  1  0.00982600  0.20262700  0.74156400  1
  O  O48  1  0.99125800  0.21207700  0.92207600  1
  O  O49  1  0.90441000  0.47891600  0.67807200  1
  O  O50  1  0.81154900  0.67073200  0.82485900  1
  O  O51  1  0.91874800  0.61840300  0.16972900  1
  O  O52  1  0.74773000  0.91648400  0.15782300  1
  O  O53  1  0.76998100  0.01962600  0.93814400  1
  O  O54  1  0.79889300  0.98998900  0.75801200  1
  O  O55  1  0.91800200  0.74377100  0.66287000  1
  O  O56  1  0.00447700  0.74788700  0.43799800  1
  O  O57  1  0.99017800  0.79761800  0.25869500  1
loop_
_geom_bond_atom_site_label_1
_geom_bond_atom_site_label_2
_geom_bond_distance
_geom_bond_site_symmetry_2
Li0 O0 1.961908 1_555
Li0 O27 1.996209 1_555
Li0 O29 2.056713 1_545
Li0 O9 2.258748 1_555
Li1 O56 1.873419 1_555
Li1 O19 1.985898 1_555
Li1 O55 2.032062 1_455
Li1 O11 2.325850 1_555
Li2 O7 1.919002 1_555
Li2 O14 2.081976 1_555
Li2 O20 2.118926 1_554
Li2 O23 2.136032 1_555
Li3 O53 1.968134 1_554
Li3 O52 2.000584 1_545
Li3 O34 2.078741 1_555
Li3 O16 2.096565 1_555
Li4 O27 1.967881 1_565
Li4 O19 2.006941 1_555
Li4 O17 2.029341 1_555
Li4 O32 2.214765 1_555
Li5 O28 1.877798 1_555
Li5 O35 1.955430 1_555
Li5 O37 2.081720 1_555
Li5 O22 2.294389 1_555
Li6 O2 1.984583 1_556
Li6 O20 2.061295 1_555
Li6 O3 2.062580 1_565
Li6 O38 2.146647 1_555
Li7 O48 1.934898 1_555
Li7 O34 2.075336 1_556
Li7 O40 2.116733 1_555
Li7 O31 2.179458 1_555
Li8 O35 1.953221 1_555
Li8 O0 1.981468 1_655
Li8 O1 2.036086 1_655
Li8 O43 2.240453 1_555
Li9 O7 2.270723 1_655
Li9 O2 2.310391 1_655
Li9 O48 2.336284 1_564
Li9 O53 2.336927 1_564
Li9 O34 2.350647 1_565
Li9 O20 2.417908 1_654
O0 P13 1.503321 1_455
O1 P1 1.553719 1_555
O1 V4 2.011485 1_555
O2 P8 1.501323 1_555
O3 P0 1.545854 1_555
O3 V2 1.981091 1_555
O4 P0 1.562224 1_555
O4 V5 1.889653 1_455
O5 P3 1.609525 1_555
O5 V4 1.824518 1_555
O6 P2 1.558899 1_555
O6 V4 1.868707 1_555
O7 P15 1.498632 1_455
O8 P5 1.560135 1_555
O8 V5 1.877047 1_455
O9 P4 1.580278 1_555
O9 V2 1.940168 1_555
O10 P1 1.531839 1_555
O10 V3 1.903374 1_545
O11 P4 1.586515 1_555
O11 V5 1.945918 1_455
O12 P3 1.492246 1_555
O13 P4 1.493541 1_555
O14 P3 1.565399 1_555
O14 V0 1.991435 1_555
O15 P7 1.531781 1_555
O15 V2 1.941495 1_555
O16 P3 1.565585 1_555
O16 V3 2.027427 1_545
O17 P2 1.551719 1_555
O17 V0 1.981443 1_555
O18 P6 1.616955 1_555
O18 P5 1.620514 1_555
O19 P6 1.502154 1_555
O20 P5 1.510021 1_555
O21 P5 1.519592 1_555
O21 V1 1.962043 1_555
O22 P4 1.575350 1_555
O22 V1 1.947256 1_555
O23 P8 1.561332 1_555
O23 V0 1.924863 1_555
O24 P9 1.556692 1_555
O24 V0 1.847478 1_555
O25 P9 1.513449 1_555
O25 V3 1.968171 1_545
O26 P1 1.616315 1_555
O26 P8 1.625324 1_545
O27 P1 1.508575 1_555
O28 P14 1.483499 1_545
O29 P6 1.542548 1_555
O29 V2 2.016698 1_565
O30 P6 1.544597 1_555
O30 V1 1.875957 1_555
O31 P7 1.566273 1_555
O31 V1 1.908505 1_555
O32 P11 1.579141 1_555
O32 V0 1.944224 1_555
O33 P10 1.519617 1_555
O33 V0 1.967100 1_555
O34 P10 1.514977 1_555
O35 P9 1.505423 1_555
O36 P10 1.613363 1_555
O36 P9 1.622112 1_555
O37 P13 1.542027 1_555
O37 V1 2.005467 1_555
O38 P12 1.560908 1_555
O38 V2 2.013961 1_565
O39 P8 1.530327 1_555
O39 V3 1.954064 1_555
O40 P12 1.565616 1_555
O40 V1 1.992597 1_555
O41 P12 1.491577 1_555
O42 P11 1.491393 1_555
O43 P11 1.579115 1_555
O43 V4 1.968890 1_655
O44 P14 1.555848 1_555
O44 V2 1.857370 1_565
O45 P11 1.584204 1_555
O45 V3 1.848544 1_555
O46 P10 1.552665 1_555
O46 V4 1.884000 1_655
O47 P13 1.609401 1_455
O47 P0 1.620293 1_555
O48 P0 1.493140 1_655
O49 P13 1.549159 1_555
O49 V5 1.894322 1_555
O50 P12 1.615986 1_555
O50 V5 1.820246 1_555
O51 P15 1.568874 1_555
O51 V4 1.871510 1_655
O52 P15 1.529360 1_555
O52 V3 2.027973 1_555
O53 P7 1.494572 1_555
O54 P7 1.613413 1_565
O54 P14 1.620074 1_555
O55 P14 1.559163 1_555
O55 V5 1.977298 1_555
O56 P2 1.484123 1_555
O57 P2 1.609169 1_655
O57 P15 1.614558 1_555
