# generated using pymatgen
data_K2TmPCO7
_symmetry_space_group_name_H-M   'P 1'
_cell_length_a   7.07282000
_cell_length_b   5.82182600
_cell_length_c   9.95060380
_cell_angle_alpha   88.21643002
_cell_angle_beta   90.00000000
_cell_angle_gamma   90.00000000
_symmetry_Int_Tables_number   1
_chemical_formula_structural   K2TmPCO7
_chemical_formula_sum   'K4 Tm2 P2 C2 O14'
_cell_volume   409.53479507
_cell_formula_units_Z   2
loop_
 _symmetry_equiv_pos_site_id
 _symmetry_equiv_pos_as_xyz
  1  'x, y, z'
loop_
 _atom_site_type_symbol
 _atom_site_label
 _atom_site_symmetry_multiplicity
 _atom_site_fract_x
 _atom_site_fract_y
 _atom_site_fract_z
 _atom_site_occupancy
  K  K0  1  0.48715700  0.24717100  0.77574900  1
  K  K1  1  0.01284300  0.24717100  0.77574900  1
  K  K2  1  0.51284300  0.75282900  0.22425100  1
  K  K3  1  0.98715700  0.75282900  0.22425100  1
  Tm  Tm0  1  0.75000000  0.77909700  0.63413800  1
  Tm  Tm1  1  0.25000000  0.22090300  0.36586200  1
  P  P0  1  0.25000000  0.71237000  0.56850700  1
  P  P1  1  0.75000000  0.28763000  0.43149300  1
  C  C0  1  0.75000000  0.72887900  0.90558300  1
  C  C1  1  0.25000000  0.27112100  0.09441700  1
  O  O0  1  0.25000000  0.30169000  0.96861400  1
  O  O1  1  0.75000000  0.93348300  0.84474300  1
  O  O2  1  0.75000000  0.55507200  0.82187800  1
  O  O3  1  0.06832900  0.76642100  0.64868400  1
  O  O4  1  0.43167100  0.76642100  0.64868400  1
  O  O5  1  0.75000000  0.14109000  0.56635200  1
  O  O6  1  0.25000000  0.45129400  0.53500000  1
  O  O7  1  0.75000000  0.54870600  0.46500000  1
  O  O8  1  0.25000000  0.85891000  0.43364800  1
  O  O9  1  0.56832900  0.23357900  0.35131600  1
  O  O10  1  0.93167100  0.23357900  0.35131600  1
  O  O11  1  0.25000000  0.44492800  0.17812200  1
  O  O12  1  0.25000000  0.06651700  0.15525700  1
  O  O13  1  0.75000000  0.69831000  0.03138600  1
loop_
_geom_bond_atom_site_label_1
_geom_bond_atom_site_label_2
_geom_bond_distance
_geom_bond_site_symmetry_2
K0 O0 2.575900 1_555
K0 O2 2.632711 1_555
K0 O1 2.680384 1_545
K0 O5 2.873856 1_555
K0 O6 3.128492 1_555
K0 O4 3.131526 1_545
K0 O4 3.263917 1_555
K1 O0 2.575900 1_555
K1 O2 2.632711 1_455
K1 O1 2.680384 1_445
K1 O5 2.873856 1_455
K1 O6 3.128492 1_555
K1 O3 3.131526 1_545
K1 O3 3.263917 1_555
K2 O13 2.575900 1_555
K2 O11 2.632711 1_555
K2 O12 2.680384 1_565
K2 O8 2.873856 1_555
K2 O7 3.128492 1_555
K2 O9 3.131526 1_565
K2 O9 3.263917 1_555
K3 O13 2.575900 1_555
K3 O11 2.632711 1_655
K3 O12 2.680384 1_665
K3 O8 2.873856 1_655
K3 O7 3.128492 1_555
K3 O10 3.131526 1_565
K3 O10 3.263917 1_555
C0 O13 1.258907 1_556
C0 O1 1.319279 1_555
C0 O2 1.330451 1_555
C1 O0 1.258907 1_554
C1 O12 1.319279 1_555
C1 O11 1.330451 1_555
O1 Tm0 2.305828 1_555
O2 Tm0 2.244829 1_555
O3 P0 1.549898 1_555
O3 Tm0 2.257191 1_455
O4 P0 1.549898 1_555
O4 Tm0 2.257191 1_555
O5 P1 1.567590 1_555
O5 Tm0 2.192685 1_545
O6 P0 1.566182 1_555
O6 Tm1 2.184530 1_555
O7 P1 1.566182 1_555
O7 Tm0 2.184530 1_555
O8 P0 1.567590 1_555
O8 Tm1 2.192685 1_565
O9 P1 1.549898 1_555
O9 Tm1 2.257191 1_555
O10 P1 1.549898 1_555
O10 Tm1 2.257191 1_655
O11 Tm1 2.244829 1_555
O12 Tm1 2.305828 1_555
