# generated using pymatgen
data_Li3Cr2P4HO14
_symmetry_space_group_name_H-M   'P 1'
_cell_length_a   5.26461265
_cell_length_b   5.19500212
_cell_length_c   12.60928367
_cell_angle_alpha   78.41944753
_cell_angle_beta   103.56026656
_cell_angle_gamma   117.79984210
_symmetry_Int_Tables_number   1
_chemical_formula_structural   Li3Cr2P4HO14
_chemical_formula_sum   'Li3 Cr2 P4 H1 O14'
_cell_volume   294.87341635
_cell_formula_units_Z   1
loop_
 _symmetry_equiv_pos_site_id
 _symmetry_equiv_pos_as_xyz
  1  'x, y, z'
loop_
 _atom_site_type_symbol
 _atom_site_label
 _atom_site_symmetry_multiplicity
 _atom_site_fract_x
 _atom_site_fract_y
 _atom_site_fract_z
 _atom_site_occupancy
  Li  Li0  1  0.18202900  0.79350200  0.99692600  1
  Li  Li1  1  0.00000000  0.00000000  0.50000000  1
  Li  Li2  1  0.81797100  0.20649800  0.00307400  1
  Cr  Cr0  1  0.03718300  0.80242100  0.76298500  1
  Cr  Cr1  1  0.96281700  0.19757900  0.23701500  1
  P  P0  1  0.41504400  0.70844800  0.62562300  1
  P  P1  1  0.42848100  0.46728900  0.85647500  1
  P  P2  1  0.57151900  0.53271100  0.14352500  1
  P  P3  1  0.58495600  0.29155200  0.37437700  1
  H  H0  1  0.50000000  0.50000000  0.50000000  1
  O  O0  1  0.23204300  0.86413300  0.62843600  1
  O  O1  1  0.34189200  0.69773400  0.87484700  1
  O  O2  1  0.25201800  0.16187100  0.90723600  1
  O  O3  1  0.34154200  0.43944900  0.72496100  1
  O  O4  1  0.32136100  0.55545300  0.52190000  1
  O  O5  1  0.23818000  0.43621500  0.11440400  1
  O  O6  1  0.74263800  0.90270200  0.64916000  1
  O  O7  1  0.25736200  0.09729800  0.35084000  1
  O  O8  1  0.76182000  0.56378500  0.88559600  1
  O  O9  1  0.67863900  0.44454700  0.47810000  1
  O  O10  1  0.65845800  0.56055100  0.27503900  1
  O  O11  1  0.74798200  0.83812900  0.09276400  1
  O  O12  1  0.65810800  0.30226600  0.12515300  1
  O  O13  1  0.76795700  0.13586700  0.37156400  1
loop_
_geom_bond_atom_site_label_1
_geom_bond_atom_site_label_2
_geom_bond_distance
_geom_bond_site_symmetry_2
Li0 O2 1.935381 1_565
Li0 O1 2.151961 1_555
Li0 O5 2.220220 1_556
Li0 O8 2.245561 1_455
Li1 O13 2.007706 1_455
Li1 O0 2.007706 1_545
Li1 O7 2.408980 1_555
Li1 O6 2.408980 1_445
Li1 O4 2.610032 1_555
Li1 O9 2.610032 1_445
Li2 O11 1.935381 1_545
Li2 O12 2.151961 1_555
Li2 O8 2.220220 1_554
Li2 O5 2.245561 1_655
Cr0 O6 2.036068 1_455
Cr0 O1 2.074462 1_555
Cr0 O0 2.079548 1_555
Cr0 O8 2.152632 1_455
Cr0 O2 2.550204 1_565
Cr1 O7 2.036068 1_655
Cr1 O12 2.074462 1_555
Cr1 O13 2.079548 1_555
Cr1 O5 2.152632 1_655
Cr1 O11 2.550204 1_545
H0 O4 1.204224 1_555
H0 O9 1.204224 1_555
O0 P0 1.529035 1_555
O1 P1 1.537719 1_555
O2 P1 1.512078 1_555
O3 P1 1.630638 1_555
O3 P0 1.640634 1_555
O4 P0 1.527980 1_555
O5 P2 1.554655 1_555
O6 P0 1.528953 1_555
O7 P3 1.528953 1_555
O8 P1 1.554655 1_555
O9 P3 1.527980 1_555
O10 P2 1.630638 1_555
O10 P3 1.640634 1_555
O11 P2 1.512078 1_555
O12 P2 1.537719 1_555
O13 P3 1.529035 1_555
