# generated using pymatgen
data_NaTmO2
_symmetry_space_group_name_H-M   'P 1'
_cell_length_a   5.92656002
_cell_length_b   5.92656002
_cell_length_c   5.92656002
_cell_angle_alpha   135.09213255
_cell_angle_beta   135.09213255
_cell_angle_gamma   65.38707998
_symmetry_Int_Tables_number   1
_chemical_formula_structural   NaTmO2
_chemical_formula_sum   'Na2 Tm2 O4'
_cell_volume   102.22346511
_cell_formula_units_Z   2
loop_
 _symmetry_equiv_pos_site_id
 _symmetry_equiv_pos_as_xyz
  1  'x, y, z'
loop_
 _atom_site_type_symbol
 _atom_site_label
 _atom_site_symmetry_multiplicity
 _atom_site_fract_x
 _atom_site_fract_y
 _atom_site_fract_z
 _atom_site_occupancy
  Na  Na0  1  0.25000000  0.75000000  0.50000000  1
  Na  Na1  1  0.50000000  0.50000000  -0.00000000  1
  Tm  Tm0  1  0.75000000  0.25000000  0.50000000  1
  Tm  Tm1  1  -0.00000000  -0.00000000  -0.00000000  1
  O  O0  1  0.97334111  0.47334111  0.50000000  1
  O  O1  1  0.77665889  0.77665889  -0.00000000  1
  O  O2  1  0.22334111  0.22334111  0.00000000  1
  O  O3  1  0.52665889  0.02665889  0.50000000  1
loop_
_geom_bond_atom_site_label_1
_geom_bond_atom_site_label_2
_geom_bond_distance
_geom_bond_site_symmetry_2
Na0 O2 2.279161 1_555
Na0 O1 2.279161 1_455
Na0 O1 2.279161 1_556
Na0 O2 2.279161 1_566
Na0 O0 2.759742 1_455
Na0 O3 2.759742 1_565
Na1 O0 2.279161 1_555
Na1 O3 2.279161 1_554
Na1 O3 2.279161 1_565
Na1 O0 2.279161 1_454
Na1 O2 2.759742 1_555
Na1 O1 2.759742 1_555
O0 Tm0 2.227883 1_555
O0 Tm1 2.279161 1_666
O0 Tm1 2.279161 1_655
O1 Tm1 2.227883 1_665
O1 Tm0 2.279161 1_554
O1 Tm0 2.279161 1_565
O2 Tm1 2.227883 1_555
O2 Tm0 2.279161 1_555
O2 Tm0 2.279161 1_454
O3 Tm0 2.227883 1_555
O3 Tm1 2.279161 1_656
O3 Tm1 2.279161 1_555
