# generated using pymatgen
data_LiMn2OF3
_symmetry_space_group_name_H-M   'P 1'
_cell_length_a   5.07327500
_cell_length_b   10.98858100
_cell_length_c   6.26763200
_cell_angle_alpha   90.00003393
_cell_angle_beta   89.99988868
_cell_angle_gamma   90.00226083
_symmetry_Int_Tables_number   1
_chemical_formula_structural   LiMn2OF3
_chemical_formula_sum   'Li4 Mn8 O4 F12'
_cell_volume   349.40853320
_cell_formula_units_Z   4
loop_
 _symmetry_equiv_pos_site_id
 _symmetry_equiv_pos_as_xyz
  1  'x, y, z'
loop_
 _atom_site_type_symbol
 _atom_site_label
 _atom_site_symmetry_multiplicity
 _atom_site_fract_x
 _atom_site_fract_y
 _atom_site_fract_z
 _atom_site_occupancy
  Li  Li0  1  0.05987300  0.59124300  0.25000500  1
  Li  Li1  1  0.44016800  0.09124400  0.25000400  1
  Li  Li2  1  0.55982700  0.90874800  0.75000400  1
  Li  Li3  1  0.94012000  0.40875600  0.75000400  1
  Mn  Mn0  1  0.50000000  0.50000000  0.50000800  1
  Mn  Mn1  1  0.50000000  0.50000200  0.99999800  1
  Mn  Mn2  1  0.54314800  0.20960800  0.75001100  1
  Mn  Mn3  1  0.45685700  0.79039500  0.25001100  1
  Mn  Mn4  1  0.00006900  0.00000600  0.99994800  1
  Mn  Mn5  1  0.99997400  0.00001000  0.49996500  1
  Mn  Mn6  1  0.95672900  0.70967300  0.75001100  1
  Mn  Mn7  1  0.04327600  0.29033500  0.25001100  1
  O  O0  1  0.26325400  0.44324800  0.25000300  1
  O  O1  1  0.23673200  0.94325400  0.24999100  1
  O  O2  1  0.76324100  0.05674500  0.74999300  1
  O  O3  1  0.73675000  0.55675900  0.75000300  1
  F  F0  1  0.19786000  0.88851300  0.74999200  1
  F  F1  1  0.30211600  0.38849100  0.75000400  1
  F  F2  1  0.69788100  0.61150400  0.25000300  1
  F  F3  1  0.80215000  0.11148300  0.24999500  1
  F  F4  1  0.23119600  0.67105600  0.01432400  1
  F  F5  1  0.23119700  0.67105600  0.48568800  1
  F  F6  1  0.26876800  0.17101400  0.01435100  1
  F  F7  1  0.26876800  0.17101500  0.48565800  1
  F  F8  1  0.73122500  0.82898300  0.51435700  1
  F  F9  1  0.73122600  0.82898200  0.98564900  1
  F  F10  1  0.76879500  0.32894000  0.51432400  1
  F  F11  1  0.76879800  0.32893900  0.98568600  1
loop_
_geom_bond_atom_site_label_1
_geom_bond_atom_site_label_2
_geom_bond_distance
_geom_bond_site_symmetry_2
Li0 O0 1.925997 1_555
Li1 O1 1.926032 1_545
Li2 O2 1.926037 1_565
Li3 O3 1.926042 1_555
Mn0 O3 2.070432 1_555
Mn0 O0 2.070444 1_555
Mn1 O3 2.070422 1_555
Mn1 O0 2.070448 1_556
Mn2 O2 2.017047 1_555
Mn3 O1 2.017100 1_555
Mn4 O1 2.070410 1_546
Mn4 O2 2.070435 1_455
Mn5 O1 2.070371 1_645
Mn5 O2 2.070484 1_555
Mn6 O3 2.017120 1_555
Mn7 O0 2.017108 1_555
F0 Li2 1.849762 1_555
F0 Mn4 2.227628 1_565
F0 Mn5 2.228186 1_465
F0 Mn6 2.314808 1_455
F1 Li3 1.849965 1_455
F1 Mn0 2.228071 1_555
F1 Mn1 2.228076 1_555
F1 Mn2 2.315025 1_555
F2 Li0 1.849940 1_655
F2 Mn1 2.228063 1_554
F2 Mn0 2.228073 1_555
F2 Mn3 2.315079 1_555
F3 Li1 1.849843 1_555
F3 Mn5 2.227648 1_555
F3 Mn4 2.228225 1_654
F3 Mn7 2.314906 1_655
F4 Li0 1.925249 1_555
F4 Mn6 2.205315 1_454
F4 Mn3 2.283056 1_555
F4 Mn1 2.324013 1_554
F5 Li0 1.925262 1_555
F5 Mn6 2.205360 1_455
F5 Mn3 2.283011 1_555
F5 Mn0 2.324027 1_555
F6 Li1 1.925109 1_555
F6 Mn2 2.205089 1_554
F6 Mn7 2.282452 1_555
F6 Mn4 2.323223 1_554
F7 Li1 1.925115 1_555
F7 Mn2 2.205152 1_555
F7 Mn7 2.282397 1_555
F7 Mn5 2.323456 1_455
F8 Li2 1.925047 1_555
F8 Mn3 2.205070 1_555
F8 Mn6 2.282393 1_555
F8 Mn5 2.323538 1_565
F9 Li2 1.925048 1_555
F9 Mn3 2.205143 1_556
F9 Mn6 2.282315 1_555
F9 Mn4 2.323769 1_665
F10 Li3 1.925265 1_555
F10 Mn7 2.205330 1_655
F10 Mn2 2.282974 1_555
F10 Mn0 2.324037 1_555
F11 Li3 1.925271 1_555
F11 Mn7 2.205379 1_656
F11 Mn2 2.282929 1_555
F11 Mn1 2.324072 1_555
