# generated using pymatgen
data_K2Se3
_symmetry_space_group_name_H-M   'P 1'
_cell_length_a   6.51095041
_cell_length_b   6.51095025
_cell_length_c   7.69022940
_cell_angle_alpha   90.00000000
_cell_angle_beta   90.00000000
_cell_angle_gamma   107.86594918
_symmetry_Int_Tables_number   1
_chemical_formula_structural   K2Se3
_chemical_formula_sum   'K4 Se6'
_cell_volume   310.28674166
_cell_formula_units_Z   2
loop_
 _symmetry_equiv_pos_site_id
 _symmetry_equiv_pos_as_xyz
  1  'x, y, z'
loop_
 _atom_site_type_symbol
 _atom_site_label
 _atom_site_symmetry_multiplicity
 _atom_site_fract_x
 _atom_site_fract_y
 _atom_site_fract_z
 _atom_site_occupancy
  K  K0  1  0.09853718  0.90146282  0.87164736  1
  K  K1  1  0.90146282  0.09853718  0.37164736  1
  K  K2  1  0.58657893  0.41342107  0.14975867  1
  K  K3  1  0.41342107  0.58657893  0.64975867  1
  Se  Se0  1  0.79228323  0.20771677  0.81790703  1
  Se  Se1  1  0.20771677  0.79228323  0.31790703  1
  Se  Se2  1  0.08569378  0.40438108  -0.00075653  1
  Se  Se3  1  0.91430622  0.59561892  0.49924347  1
  Se  Se4  1  0.59561892  0.91430622  -0.00075653  1
  Se  Se5  1  0.40438108  0.08569378  0.49924347  1
loop_
_geom_bond_atom_site_label_1
_geom_bond_atom_site_label_2
_geom_bond_distance
_geom_bond_site_symmetry_2
K0 Se0 3.250006 1_465
K0 Se2 3.358353 1_556
K0 Se4 3.358353 1_556
K0 Se2 3.443840 1_566
K0 Se4 3.443840 1_456
K0 Se3 3.484306 1_455
K0 Se5 3.484306 1_565
K0 Se1 3.619148 1_556
K1 Se1 3.250006 1_645
K1 Se3 3.358353 1_555
K1 Se5 3.358353 1_555
K1 Se3 3.443840 1_545
K1 Se5 3.443840 1_655
K1 Se2 3.484306 1_655
K1 Se4 3.484306 1_545
K1 Se0 3.619148 1_555
K2 Se0 3.346796 1_554
K2 Se5 3.410361 1_555
K2 Se3 3.410361 1_555
K2 Se4 3.444003 1_555
K2 Se2 3.444003 1_555
K2 Se4 3.467168 1_545
K2 Se2 3.467168 1_655
K3 Se1 3.346796 1_555
K3 Se4 3.410361 1_556
K3 Se2 3.410361 1_556
K3 Se5 3.444003 1_555
K3 Se3 3.444003 1_555
K3 Se5 3.467168 1_565
K3 Se3 3.467168 1_455
Se0 Se4 2.394350 1_546
Se0 Se2 2.394350 1_656
Se1 Se5 2.394350 1_565
Se1 Se3 2.394350 1_455
