# generated using pymatgen
data_Li6MnV3(PO4)6
_symmetry_space_group_name_H-M   'P 1'
_cell_length_a   8.80108900
_cell_length_b   8.80239747
_cell_length_c   14.49407075
_cell_angle_alpha   73.66411468
_cell_angle_beta   73.69688276
_cell_angle_gamma   60.63199431
_symmetry_Int_Tables_number   1
_chemical_formula_structural   Li6MnV3(PO4)6
_chemical_formula_sum   'Li12 Mn2 V6 P12 O48'
_cell_volume   925.27136035
_cell_formula_units_Z   2
loop_
 _symmetry_equiv_pos_site_id
 _symmetry_equiv_pos_as_xyz
  1  'x, y, z'
loop_
 _atom_site_type_symbol
 _atom_site_label
 _atom_site_symmetry_multiplicity
 _atom_site_fract_x
 _atom_site_fract_y
 _atom_site_fract_z
 _atom_site_occupancy
  Li  Li0  1  0.14332700  0.01391400  0.11364000  1
  Li  Li1  1  0.50281400  0.99820100  0.99794700  1
  Li  Li2  1  0.23504800  0.10532600  0.63689700  1
  Li  Li3  1  0.75088300  0.25052300  0.24986900  1
  Li  Li4  1  0.35633800  0.48603100  0.38707800  1
  Li  Li5  1  0.26478500  0.39227100  0.86195700  1
  Li  Li6  1  0.73603100  0.60630500  0.13658300  1
  Li  Li7  1  0.64176900  0.51536200  0.61183900  1
  Li  Li8  1  0.24752400  0.75184400  0.74831100  1
  Li  Li9  1  0.99991000  0.50000800  0.50015700  1
  Li  Li10  1  0.76491700  0.89286300  0.36363400  1
  Li  Li11  1  0.85444300  0.98529600  0.88622600  1
  Mn  Mn0  1  0.57482900  0.07303200  0.78483100  1
  Mn  Mn1  1  0.32132100  0.82878200  0.53419700  1
  V  V0  1  0.68226300  0.17375700  0.46292200  1
  V  V1  1  0.07804800  0.56831000  0.28659800  1
  V  V2  1  0.81963300  0.32524700  0.03717100  1
  V  V3  1  0.18226900  0.67267600  0.96245200  1
  V  V4  1  0.92257400  0.43362600  0.71270600  1
  V  V5  1  0.42389800  0.93075200  0.21275000  1
  P  P0  1  0.13219900  0.33126200  0.11861600  1
  P  P1  1  0.36760800  0.16780700  0.38191000  1
  P  P2  1  0.17442200  0.07667500  0.87428500  1
  P  P3  1  0.91626100  0.11876000  0.63348000  1
  P  P4  1  0.32191400  0.43015400  0.62325600  1
  P  P5  1  0.41889200  0.61756400  0.13131700  1
  P  P6  1  0.58219200  0.38148600  0.86822300  1
  P  P7  1  0.67775800  0.57240800  0.37433700  1
  P  P8  1  0.08320200  0.88126600  0.36934100  1
  P  P9  1  0.82693000  0.92318200  0.12502700  1
  P  P10  1  0.63049000  0.83325000  0.61824200  1
  P  P11  1  0.86882400  0.66702800  0.88288200  1
  O  O0  1  0.28271900  0.14067900  0.11361500  1
  O  O1  1  0.38386900  0.08832500  0.29710500  1
  O  O2  1  0.32993300  0.05771100  0.48159200  1
  O  O3  1  0.16680100  0.44379200  0.01995000  1
  O  O4  1  0.11664400  0.40972900  0.20376400  1
  O  O5  1  0.81082600  0.10647400  0.12811200  1
  O  O6  1  0.10190200  0.19712700  0.78086200  1
  O  O7  1  0.54699500  0.17800800  0.36585700  1
  O  O8  1  0.05364100  0.14663900  0.96861000  1
  O  O9  1  0.89228400  0.03151100  0.36415100  1
  O  O10  1  0.21806700  0.35875500  0.38651900  1
  O  O11  1  0.35629100  0.06476700  0.87792800  1
  O  O12  1  0.13930600  0.44508200  0.61913800  1
  O  O13  1  0.83866400  0.13286900  0.54805100  1
  O  O14  1  0.33956400  0.63389100  0.04640600  1
  O  O15  1  0.44482000  0.35381800  0.53088700  1
  O  O16  1  0.80181600  0.08308900  0.73237100  1
  O  O17  1  0.60942400  0.46644300  0.13604900  1
  O  O18  1  0.38776300  0.31566300  0.71901700  1
  O  O19  1  0.30719000  0.58303000  0.23042100  1
  O  O20  1  0.95356700  0.31911500  0.13546600  1
  O  O21  1  0.57085600  0.20162000  0.88447200  1
  O  O22  1  0.69357700  0.38974600  0.36955600  1
  O  O23  1  0.07187400  0.70230300  0.38535000  1
  O  O24  1  0.92407900  0.30016000  0.61559800  1
  O  O25  1  0.30916500  0.61338900  0.62493900  1
  O  O26  1  0.43037600  0.79622700  0.11499800  1
  O  O27  1  0.04956500  0.67632600  0.86495300  1
  O  O28  1  0.69447400  0.41657600  0.76996900  1
  O  O29  1  0.60338100  0.69511400  0.28129600  1
  O  O30  1  0.39189600  0.53214600  0.86343900  1
  O  O31  1  0.19485000  0.91538600  0.26988200  1
  O  O32  1  0.56225400  0.63870500  0.46930100  1
  O  O33  1  0.65992600  0.36427000  0.95424000  1
  O  O34  1  0.16107900  0.86710300  0.45442100  1
  O  O35  1  0.86162300  0.55691100  0.37603700  1
  O  O36  1  0.64347000  0.93967700  0.12224100  1
  O  O37  1  0.78105600  0.64279600  0.61364400  1
  O  O38  1  0.10481600  0.97061800  0.64198100  1
  O  O39  1  0.94739700  0.85142400  0.03144900  1
  O  O40  1  0.45118300  0.82085900  0.63305700  1
  O  O41  1  0.89865100  0.80350000  0.21895900  1
  O  O42  1  0.19154500  0.89277000  0.87187400  1
  O  O43  1  0.88280100  0.59063900  0.79701600  1
  O  O44  1  0.83882700  0.54912900  0.98087100  1
  O  O45  1  0.66599800  0.94470900  0.51939000  1
  O  O46  1  0.61083500  0.91171700  0.70453100  1
  O  O47  1  0.71904200  0.85469300  0.89198000  1
loop_
_geom_bond_atom_site_label_1
_geom_bond_atom_site_label_2
_geom_bond_distance
_geom_bond_site_symmetry_2
Li0 O0 2.022950 1_555
Li0 O8 2.247719 1_554
Li0 O31 2.274225 1_545
Li0 O26 2.305012 1_545
Li0 O20 2.426379 1_455
Li0 O5 2.585422 1_455
Li1 O47 2.160734 1_555
Li1 O11 2.230993 1_565
Li1 O21 2.260962 1_565
Li1 O0 2.261081 1_566
Li1 O36 2.268891 1_556
Li1 O26 2.291991 1_556
Li2 O38 1.990389 1_545
Li2 O6 2.242131 1_555
Li2 O2 2.252131 1_555
Li2 O40 2.288803 1_545
Li2 O24 2.469763 1_455
Li2 O12 2.633889 1_555
Li3 O22 2.205455 1_555
Li3 O17 2.225380 1_555
Li3 O9 2.239821 1_555
Li3 O5 2.253971 1_555
Li3 O20 2.264657 1_555
Li3 O7 2.297776 1_555
Li4 O10 2.020899 1_555
Li4 O15 2.227843 1_555
Li4 O19 2.273835 1_555
Li4 O23 2.286118 1_555
Li4 O7 2.445113 1_555
Li4 O22 2.612049 1_555
Li5 O30 2.036491 1_555
Li5 O18 2.174753 1_555
Li5 O27 2.282793 1_555
Li5 O3 2.298947 1_556
Li5 O21 2.435286 1_555
Li5 O11 2.542619 1_555
Li6 O17 2.028068 1_555
Li6 O29 2.241854 1_555
Li6 O44 2.282848 1_554
Li6 O20 2.305391 1_555
Li6 O26 2.428287 1_555
Li6 O36 2.593297 1_555
Li7 O37 2.035923 1_555
Li7 O32 2.177473 1_555
Li7 O24 2.272939 1_555
Li7 O28 2.303142 1_555
Li7 O40 2.427108 1_555
Li7 O25 2.579187 1_555
Li8 O38 2.169333 1_555
Li8 O25 2.238290 1_555
Li8 O30 2.259155 1_555
Li8 O42 2.268013 1_555
Li8 O27 2.277185 1_555
Li8 O40 2.277820 1_555
Li9 O12 2.202243 1_655
Li9 O10 2.231656 1_655
Li9 O37 2.237212 1_555
Li9 O35 2.256775 1_555
Li9 O23 2.277845 1_655
Li9 O24 2.282201 1_555
Li10 O9 2.024302 1_565
Li10 O41 2.243949 1_555
Li10 O45 2.269164 1_555
Li10 O7 2.295333 1_565
Li10 O23 2.438606 1_655
Li10 O35 2.611480 1_555
Li11 O47 1.995660 1_555
Li11 O16 2.244404 1_565
Li11 O39 2.261485 1_556
Li11 O21 2.280966 1_565
Li11 O27 2.456476 1_655
Li11 O42 2.624431 1_655
Mn0 O46 1.937153 1_545
Mn0 O16 1.964610 1_555
Mn0 O11 2.037236 1_555
Mn0 O21 2.054384 1_555
Mn0 O18 2.113937 1_555
Mn0 O47 2.179818 1_545
Mn1 O34 1.915529 1_555
Mn1 O2 1.975062 1_565
Mn1 O25 2.013250 1_555
Mn1 O40 2.036998 1_555
Mn1 O32 2.113333 1_555
Mn1 O38 2.173171 1_555
O0 P0 1.552162 1_555
O0 V5 2.068768 1_545
O1 P1 1.519083 1_555
O1 V5 1.943106 1_545
O2 P1 1.547620 1_555
O3 P0 1.540621 1_555
O3 V3 2.008230 1_554
O4 P0 1.520139 1_555
O4 V1 1.937540 1_555
O5 P9 1.561381 1_545
O5 V2 2.028050 1_555
O6 P2 1.542372 1_555
O6 V4 2.072782 1_455
O7 P1 1.573489 1_555
O7 V0 2.065191 1_555
O8 P2 1.547241 1_555
O8 V2 2.062721 1_456
O9 P8 1.553530 1_645
O9 V0 2.070385 1_555
O10 P1 1.551061 1_555
O10 V1 2.070808 1_555
O11 P2 1.567040 1_555
O12 P4 1.563991 1_555
O12 V4 2.036474 1_455
O13 P3 1.523178 1_555
O13 V0 1.940239 1_555
O14 P5 1.518959 1_555
O14 V3 1.939645 1_554
O15 P4 1.547275 1_555
O15 V0 2.079285 1_555
O16 P3 1.553720 1_555
O17 P5 1.552908 1_555
O17 V2 2.068680 1_555
O18 P4 1.539432 1_555
O19 P5 1.541704 1_555
O19 V1 2.005461 1_555
O20 P0 1.573967 1_655
O20 V2 2.063821 1_555
O21 P6 1.582432 1_555
O22 P7 1.564323 1_555
O22 V0 2.029427 1_555
O23 P8 1.575055 1_555
O23 V1 2.070238 1_555
O24 P3 1.576858 1_555
O24 V4 2.065395 1_555
O25 P4 1.567719 1_555
O26 P5 1.572470 1_555
O26 V5 2.060350 1_555
O27 P11 1.577422 1_455
O27 V3 2.055827 1_555
O28 P6 1.536828 1_555
O28 V4 2.007867 1_555
O29 P7 1.548048 1_555
O29 V5 2.071903 1_555
O30 P6 1.550317 1_555
O30 V3 2.065712 1_555
O31 P8 1.544179 1_555
O31 V5 2.008723 1_555
O32 P7 1.533912 1_555
O33 P6 1.521931 1_555
O33 V2 1.944545 1_556
O34 P8 1.519944 1_555
O35 P7 1.562629 1_555
O35 V1 2.011640 1_655
O36 P9 1.559859 1_555
O36 V5 2.032040 1_555
O37 P10 1.550885 1_555
O37 V4 2.066516 1_555
O38 P3 1.539942 1_465
O39 P9 1.542858 1_555
O39 V3 2.069578 1_654
O40 P10 1.585495 1_555
O41 P9 1.544429 1_555
O41 V1 2.064263 1_655
O42 P2 1.560143 1_565
O42 V3 2.036602 1_555
O43 P11 1.523100 1_555
O43 V4 1.939425 1_555
O44 P11 1.546909 1_555
O44 V2 1.980550 1_556
O45 P10 1.540014 1_555
O45 V0 2.011056 1_565
O46 P10 1.522652 1_555
O47 P11 1.540456 1_555
