# generated using pymatgen
data_Li3Mn2(CO5)2
_symmetry_space_group_name_H-M   'P 1'
_cell_length_a   9.63019000
_cell_length_b   11.70386800
_cell_length_c   5.79366100
_cell_angle_alpha   90.00000000
_cell_angle_beta   90.00000000
_cell_angle_gamma   90.00000000
_symmetry_Int_Tables_number   1
_chemical_formula_structural   Li3Mn2(CO5)2
_chemical_formula_sum   'Li12 Mn8 C8 O40'
_cell_volume   653.00626925
_cell_formula_units_Z   4
loop_
 _symmetry_equiv_pos_site_id
 _symmetry_equiv_pos_as_xyz
  1  'x, y, z'
loop_
 _atom_site_type_symbol
 _atom_site_label
 _atom_site_symmetry_multiplicity
 _atom_site_fract_x
 _atom_site_fract_y
 _atom_site_fract_z
 _atom_site_occupancy
  Li  Li0  1  0.99683200  0.00187700  0.75000000  1
  Li  Li1  1  0.00134800  0.49555500  0.99774500  1
  Li  Li2  1  0.00134800  0.49555500  0.50225500  1
  Li  Li3  1  0.00167100  0.27938000  0.25000000  1
  Li  Li4  1  0.49832900  0.77938000  0.25000000  1
  Li  Li5  1  0.50316800  0.50187700  0.75000000  1
  Li  Li6  1  0.49865200  0.99555600  0.99774500  1
  Li  Li7  1  0.49865200  0.99555600  0.50225500  1
  Li  Li8  1  0.50248600  0.21914200  0.25000000  1
  Li  Li9  1  0.50567900  0.21884500  0.75000000  1
  Li  Li10  1  0.99751400  0.71914200  0.25000000  1
  Li  Li11  1  0.99432100  0.71884500  0.75000000  1
  Mn  Mn0  1  0.24464100  0.11178800  0.99912800  1
  Mn  Mn1  1  0.24464100  0.11178800  0.50087200  1
  Mn  Mn2  1  0.25535900  0.61178800  0.99912800  1
  Mn  Mn3  1  0.25535900  0.61178800  0.50087200  1
  Mn  Mn4  1  0.74422800  0.38830600  0.00039800  1
  Mn  Mn5  1  0.74422800  0.38830600  0.49960200  1
  Mn  Mn6  1  0.75577200  0.88830600  0.00039800  1
  Mn  Mn7  1  0.75577200  0.88830600  0.49960200  1
  C  C0  1  0.23905600  0.86227200  0.49926700  1
  C  C1  1  0.23905600  0.86227200  0.00073300  1
  C  C2  1  0.26094400  0.36227200  0.00073300  1
  C  C3  1  0.26094400  0.36227200  0.49926700  1
  C  C4  1  0.74203800  0.63890400  0.00001000  1
  C  C5  1  0.74203800  0.63890400  0.49999000  1
  C  C6  1  0.75796200  0.13890400  0.00001000  1
  C  C7  1  0.75796200  0.13890400  0.49999000  1
  O  O0  1  0.12812800  0.14878200  0.25000000  1
  O  O1  1  0.12498300  0.14344400  0.75000000  1
  O  O2  1  0.13023500  0.57691100  0.25000000  1
  O  O3  1  0.12976200  0.57768300  0.75000000  1
  O  O4  1  0.13071100  0.36188500  0.01054000  1
  O  O5  1  0.13071100  0.36188500  0.48946000  1
  O  O6  1  0.16328400  0.95521100  0.99189800  1
  O  O7  1  0.16328400  0.95521100  0.50810200  1
  O  O8  1  0.16482500  0.76692600  0.99900600  1
  O  O9  1  0.16482500  0.76692600  0.50099400  1
  O  O10  1  0.33517500  0.26692600  0.99900600  1
  O  O11  1  0.33517500  0.26692600  0.50099400  1
  O  O12  1  0.33671600  0.45521100  0.99189800  1
  O  O13  1  0.33671600  0.45521100  0.50810200  1
  O  O14  1  0.36928900  0.86188500  0.01054000  1
  O  O15  1  0.36928900  0.86188500  0.48946000  1
  O  O16  1  0.36976500  0.07691100  0.25000000  1
  O  O17  1  0.37023800  0.07768300  0.75000000  1
  O  O18  1  0.37187200  0.64878200  0.25000000  1
  O  O19  1  0.37501700  0.64344400  0.75000000  1
  O  O20  1  0.62780700  0.35163000  0.25000000  1
  O  O21  1  0.62140200  0.35591000  0.75000000  1
  O  O22  1  0.62959500  0.92274000  0.25000000  1
  O  O23  1  0.63537900  0.92609900  0.75000000  1
  O  O24  1  0.62567700  0.13767500  0.99995700  1
  O  O25  1  0.62567700  0.13767500  0.50004300  1
  O  O26  1  0.66635900  0.54625400  0.99546100  1
  O  O27  1  0.66635900  0.54625400  0.50453900  1
  O  O28  1  0.67020500  0.73339300  0.00461600  1
  O  O29  1  0.67020500  0.73339300  0.49538400  1
  O  O30  1  0.82979500  0.23339300  0.00461600  1
  O  O31  1  0.82979500  0.23339300  0.49538400  1
  O  O32  1  0.83364100  0.04625400  0.99546100  1
  O  O33  1  0.83364100  0.04625400  0.50453900  1
  O  O34  1  0.87432300  0.63767500  0.99995700  1
  O  O35  1  0.87432300  0.63767500  0.50004300  1
  O  O36  1  0.87040500  0.42274000  0.25000000  1
  O  O37  1  0.86462100  0.42609900  0.75000000  1
  O  O38  1  0.87219300  0.85163000  0.25000000  1
  O  O39  1  0.87859800  0.85591000  0.75000000  1
loop_
_geom_bond_atom_site_label_1
_geom_bond_atom_site_label_2
_geom_bond_distance
_geom_bond_site_symmetry_2
Li0 O39 2.053047 1_545
Li0 O1 2.065988 1_655
Li0 O32 2.182196 1_555
Li0 O33 2.182196 1_555
Li0 O6 2.198166 1_645
Li0 O7 2.198166 1_645
Li1 O4 2.001252 1_556
Li1 O34 2.064779 1_455
Li1 O36 2.110055 1_456
Li1 O37 2.110631 1_455
Li1 O3 2.124493 1_555
Li1 O2 2.140832 1_556
Li2 O5 2.001252 1_555
Li2 O35 2.064779 1_455
Li2 O36 2.110055 1_455
Li2 O37 2.110631 1_455
Li2 O3 2.124493 1_555
Li2 O2 2.140832 1_555
Li3 O0 1.954320 1_555
Li3 O5 2.097958 1_555
Li3 O4 2.097958 1_555
Li3 O36 2.100768 1_455
Li3 O30 2.247336 1_455
Li3 O31 2.247336 1_455
Li4 O18 1.954320 1_555
Li4 O14 2.097958 1_555
Li4 O15 2.097958 1_555
Li4 O22 2.100768 1_555
Li4 O29 2.247336 1_555
Li4 O28 2.247336 1_555
Li5 O21 2.053047 1_555
Li5 O19 2.065988 1_555
Li5 O26 2.182196 1_555
Li5 O27 2.182196 1_555
Li5 O13 2.198166 1_555
Li5 O12 2.198166 1_555
Li6 O14 2.001262 1_556
Li6 O24 2.064769 1_565
Li6 O22 2.110060 1_556
Li6 O23 2.110635 1_555
Li6 O17 2.124488 1_565
Li6 O16 2.140827 1_566
Li7 O15 2.001262 1_555
Li7 O25 2.064769 1_565
Li7 O22 2.110060 1_555
Li7 O23 2.110635 1_555
Li7 O17 2.124488 1_565
Li7 O16 2.140827 1_565
Li8 O20 1.964931 1_555
Li8 O16 2.098733 1_555
Li8 O24 2.101234 1_554
Li8 O25 2.101234 1_555
Li8 O11 2.241311 1_555
Li8 O10 2.241311 1_554
Li9 O21 1.953303 1_555
Li9 O25 2.082093 1_555
Li9 O24 2.082093 1_555
Li9 O17 2.104953 1_555
Li9 O10 2.256999 1_555
Li9 O11 2.256999 1_555
Li10 O38 1.964931 1_555
Li10 O2 2.098733 1_655
Li10 O34 2.101234 1_554
Li10 O35 2.101234 1_555
Li10 O9 2.241311 1_655
Li10 O8 2.241311 1_654
Li11 O39 1.953303 1_555
Li11 O34 2.082093 1_555
Li11 O35 2.082093 1_555
Li11 O3 2.104953 1_655
Li11 O8 2.256999 1_655
Li11 O9 2.256999 1_655
Mn0 O1 1.883727 1_555
Mn0 O0 1.886534 1_556
Mn0 O17 1.924986 1_555
Mn0 O16 1.931616 1_556
Mn0 O6 1.993455 1_545
Mn0 O10 2.014190 1_555
Mn1 O1 1.883727 1_555
Mn1 O0 1.886534 1_555
Mn1 O17 1.924986 1_555
Mn1 O16 1.931616 1_555
Mn1 O7 1.993455 1_545
Mn1 O11 2.014190 1_555
Mn2 O19 1.883727 1_555
Mn2 O18 1.886534 1_556
Mn2 O3 1.924986 1_555
Mn2 O2 1.931616 1_556
Mn2 O12 1.993455 1_555
Mn2 O8 2.014190 1_555
Mn3 O19 1.883727 1_555
Mn3 O18 1.886534 1_555
Mn3 O3 1.924986 1_555
Mn3 O2 1.931616 1_555
Mn3 O13 1.993455 1_555
Mn3 O9 2.014190 1_555
Mn4 O20 1.879489 1_555
Mn4 O37 1.909049 1_554
Mn4 O21 1.909832 1_554
Mn4 O36 1.931357 1_555
Mn4 O30 1.991703 1_555
Mn4 O26 1.995116 1_554
Mn5 O20 1.879489 1_555
Mn5 O37 1.909049 1_555
Mn5 O21 1.909832 1_555
Mn5 O36 1.931357 1_555
Mn5 O31 1.991703 1_555
Mn5 O27 1.995116 1_555
Mn6 O38 1.879489 1_555
Mn6 O23 1.909049 1_554
Mn6 O39 1.909832 1_554
Mn6 O22 1.931357 1_555
Mn6 O28 1.991703 1_555
Mn6 O32 1.995116 1_564
Mn7 O38 1.879489 1_555
Mn7 O23 1.909049 1_555
Mn7 O39 1.909832 1_555
Mn7 O22 1.931357 1_555
Mn7 O29 1.991703 1_555
Mn7 O33 1.995116 1_565
C0 O15 1.255463 1_555
C0 O7 1.310828 1_555
C0 O9 1.325290 1_555
C1 O14 1.255463 1_555
C1 O6 1.310828 1_554
C1 O8 1.325290 1_554
C2 O4 1.255463 1_555
C2 O12 1.310828 1_554
C2 O10 1.325290 1_554
C3 O5 1.255463 1_555
C3 O13 1.310828 1_555
C3 O11 1.325290 1_555
C4 O34 1.274011 1_554
C4 O28 1.304698 1_555
C4 O26 1.306787 1_554
C5 O35 1.274011 1_555
C5 O29 1.304698 1_555
C5 O27 1.306787 1_555
C6 O24 1.274011 1_554
C6 O30 1.304698 1_555
C6 O32 1.306787 1_554
C7 O25 1.274011 1_555
C7 O31 1.304698 1_555
C7 O33 1.306787 1_555
