# generated using pymatgen
data_V4OF11
_symmetry_space_group_name_H-M   'P 1'
_cell_length_a   5.24070200
_cell_length_b   5.46054489
_cell_length_c   17.49089868
_cell_angle_alpha   82.77940951
_cell_angle_beta   81.38802843
_cell_angle_gamma   61.39586946
_symmetry_Int_Tables_number   1
_chemical_formula_structural   V4OF11
_chemical_formula_sum   'V8 O2 F22'
_cell_volume   433.65084156
_cell_formula_units_Z   2
loop_
 _symmetry_equiv_pos_site_id
 _symmetry_equiv_pos_as_xyz
  1  'x, y, z'
loop_
 _atom_site_type_symbol
 _atom_site_label
 _atom_site_symmetry_multiplicity
 _atom_site_fract_x
 _atom_site_fract_y
 _atom_site_fract_z
 _atom_site_occupancy
  V  V0  1  0.64400600  0.61186500  0.13201600  1
  V  V1  1  0.13031100  0.13258600  0.62325300  1
  V  V2  1  0.23777500  0.25346500  0.24905400  1
  V  V3  1  0.75431900  0.75346000  0.74923500  1
  V  V4  1  0.86323100  0.87469600  0.37612800  1
  V  V5  1  0.38095700  0.37458500  0.87498600  1
  V  V6  1  0.00835200  0.99605000  0.00122100  1
  V  V7  1  0.48289900  0.48931800  0.50705900  1
  O  O0  1  0.34185500  0.33641000  0.57871000  1
  O  O1  1  0.86504700  0.46032800  0.20414300  1
  F  F0  1  0.83084800  0.84326000  0.08881100  1
  F  F1  1  0.91149800  0.32111700  0.05977900  1
  F  F2  1  0.42049600  0.80375700  0.56292400  1
  F  F3  1  0.33589200  0.92806700  0.18814600  1
  F  F4  1  0.62558100  0.03825700  0.28737500  1
  F  F5  1  0.14715900  0.53590600  0.78607100  1
  F  F6  1  0.39421400  0.78153900  0.04316900  1
  F  F7  1  0.41597300  0.40926000  0.16136100  1
  F  F8  1  0.91663800  0.91992500  0.66124100  1
  F  F9  1  0.11044000  0.72010400  0.46304100  1
  F  F10  1  0.15048500  0.56548600  0.31303000  1
  F  F11  1  0.83530300  0.44513600  0.68735700  1
  F  F12  1  0.07874500  0.08918900  0.33712400  1
  F  F13  1  0.88398000  0.28561600  0.53619100  1
  F  F14  1  0.59121500  0.59037000  0.83822100  1
  F  F15  1  0.61605000  0.20905800  0.96324700  1
  F  F16  1  0.65395600  0.65721100  0.41764500  1
  F  F17  1  0.36075600  0.97075400  0.71239700  1
  F  F18  1  0.67282200  0.06216700  0.81165000  1
  F  F19  1  0.09036700  0.68651500  0.93874700  1
  F  F20  1  0.57896700  0.19664700  0.43470000  1
  F  F21  1  0.16986100  0.15789600  0.91196800  1
loop_
_geom_bond_atom_site_label_1
_geom_bond_atom_site_label_2
_geom_bond_distance
_geom_bond_site_symmetry_2
O0 V7 1.692520 1_555
O0 V1 1.944130 1_555
O1 V0 1.695760 1_555
O1 V2 1.957646 1_655
F0 V0 1.962001 1_555
F0 V6 1.975745 1_655
F1 V6 1.973853 1_645
F1 V0 1.981144 1_555
F2 V7 1.948906 1_555
F2 V1 2.007833 1_565
F3 V0 1.958127 1_555
F3 V2 1.998372 1_565
F4 V2 1.970758 1_555
F4 V4 1.980932 1_545
F5 V5 1.971988 1_555
F5 V3 1.981890 1_455
F6 V6 1.989946 1_555
F6 V0 2.018180 1_555
F7 V0 1.963435 1_555
F7 V2 1.988019 1_555
F8 V1 1.967800 1_665
F8 V3 1.978714 1_555
F9 V7 1.960057 1_555
F9 V4 1.980423 1_455
F10 V4 1.967793 1_455
F10 V2 1.985959 1_555
F11 V3 1.955090 1_555
F11 V1 1.998903 1_655
F12 V2 1.963717 1_555
F12 V4 1.986936 1_445
F13 V7 1.963328 1_555
F13 V1 1.979814 1_655
F14 V5 1.963829 1_555
F14 V3 1.981988 1_555
F15 V5 1.967408 1_555
F15 V6 1.986443 1_646
F16 V4 1.983022 1_555
F16 V7 2.024020 1_555
F17 V1 1.966281 1_565
F17 V3 1.984854 1_555
F18 V3 1.961993 1_545
F18 V5 1.986516 1_555
F19 V6 1.965624 1_556
F19 V5 1.987299 1_555
F20 V4 1.961503 1_545
F20 V7 1.989106 1_555
F21 V5 1.972062 1_555
F21 V6 1.976933 1_546
