# generated using pymatgen
data_Li5V5(FeO6)2
_symmetry_space_group_name_H-M   'P 1'
_cell_length_a   5.21537183
_cell_length_b   5.21537183
_cell_length_c   9.91141240
_cell_angle_alpha   85.10114415
_cell_angle_beta   85.10114415
_cell_angle_gamma   119.63947845
_symmetry_Int_Tables_number   1
_chemical_formula_structural   Li5V5(FeO6)2
_chemical_formula_sum   'Li5 V5 Fe2 O12'
_cell_volume   230.91116912
_cell_formula_units_Z   1
loop_
 _symmetry_equiv_pos_site_id
 _symmetry_equiv_pos_as_xyz
  1  'x, y, z'
loop_
 _atom_site_type_symbol
 _atom_site_label
 _atom_site_symmetry_multiplicity
 _atom_site_fract_x
 _atom_site_fract_y
 _atom_site_fract_z
 _atom_site_occupancy
  Li  Li0  1  0.83391300  0.66344000  0.26259100  1
  Li  Li1  1  0.68249600  0.84505400  0.73582500  1
  Li  Li2  1  0.33656000  0.16608700  0.73740900  1
  Li  Li3  1  0.15494600  0.31750400  0.26417500  1
  Li  Li4  1  0.08344900  0.91655100  0.50000000  1
  V  V0  1  0.00044700  0.51069100  0.74256900  1
  V  V1  1  0.48930900  0.99955300  0.25743100  1
  V  V2  1  0.57693000  0.42307000  0.00000000  1
  V  V3  1  0.42132100  0.57867900  0.50000000  1
  V  V4  1  0.91949800  0.08050200  0.00000000  1
  Fe  Fe0  1  0.75186400  0.24813600  0.50000000  1
  Fe  Fe1  1  0.24913300  0.75086700  0.00000000  1
  O  O0  1  0.05772500  0.23551900  0.62332500  1
  O  O1  1  0.76448100  0.94227500  0.37667500  1
  O  O2  1  0.85629100  0.36105000  0.11780100  1
  O  O3  1  0.63895000  0.14370900  0.88219900  1
  O  O4  1  0.71273000  0.53871200  0.62586300  1
  O  O5  1  0.46128800  0.28727000  0.37413700  1
  O  O6  1  0.56342000  0.73073200  0.11942100  1
  O  O7  1  0.26926800  0.43658000  0.88057900  1
  O  O8  1  0.36288500  0.84519800  0.62972600  1
  O  O9  1  0.15480200  0.63711500  0.37027400  1
  O  O10  1  0.22193000  0.06363300  0.11998300  1
  O  O11  1  0.93636700  0.77807000  0.88001700  1
loop_
_geom_bond_atom_site_label_1
_geom_bond_atom_site_label_2
_geom_bond_distance
_geom_bond_site_symmetry_2
Li0 O1 2.063062 1_555
Li0 O5 2.083149 1_555
Li0 O9 2.113303 1_655
Li0 O6 2.207589 1_555
Li0 O2 2.258366 1_555
Li0 O10 2.297667 1_665
Li1 O8 2.045691 1_555
Li1 O4 2.069427 1_555
Li1 O0 2.125515 1_665
Li1 O11 2.147782 1_555
Li1 O3 2.293901 1_565
Li1 O7 2.377019 1_555
Li2 O0 2.063062 1_555
Li2 O4 2.083149 1_555
Li2 O8 2.113303 1_545
Li2 O7 2.207589 1_555
Li2 O3 2.258366 1_555
Li2 O11 2.297667 1_445
Li3 O9 2.045691 1_555
Li3 O5 2.069427 1_555
Li3 O1 2.125515 1_445
Li3 O10 2.147782 1_555
Li3 O2 2.293901 1_455
Li3 O6 2.377019 1_555
Li4 O4 2.139477 1_455
Li4 O5 2.139477 1_565
Li4 O8 2.165714 1_555
Li4 O9 2.165714 1_555
Li4 O0 2.195326 1_565
Li4 O1 2.195326 1_455
Fe0 O1 2.113316 1_545
Fe0 O0 2.113316 1_655
Fe0 O4 2.116558 1_555
Fe0 O5 2.116558 1_555
Fe0 O9 2.249723 1_655
Fe0 O8 2.249723 1_545
Fe1 O7 2.139887 1_554
Fe1 O6 2.139887 1_555
Fe1 O10 2.150930 1_565
Fe1 O11 2.150930 1_454
Fe1 O2 2.181812 1_455
Fe1 O3 2.181812 1_564
O0 V3 2.041270 1_555
O0 V0 2.049163 1_555
O1 V3 2.041270 1_555
O1 V1 2.049163 1_555
O2 V2 2.069488 1_555
O2 V4 2.077461 1_555
O2 V1 2.160069 1_545
O3 V2 2.069488 1_556
O3 V4 2.077461 1_556
O3 V0 2.160069 1_655
O4 V0 2.023732 1_655
O4 V3 2.121839 1_555
O5 V1 2.023732 1_545
O5 V3 2.121839 1_555
O6 V4 2.020521 1_565
O6 V2 2.098226 1_555
O6 V1 2.181583 1_555
O7 V4 2.020521 1_456
O7 V2 2.098226 1_556
O7 V0 2.181583 1_555
O8 V0 1.977745 1_555
O8 V3 2.082183 1_555
O9 V1 1.977745 1_555
O9 V3 2.082183 1_555
O10 V2 2.041218 1_555
O10 V4 2.085556 1_455
O10 V1 2.149369 1_545
O11 V2 2.041218 1_556
O11 V4 2.085556 1_566
O11 V0 2.149369 1_655
