# generated using pymatgen
data_LiSbCSO7
_symmetry_space_group_name_H-M   'P 1'
_cell_length_a   6.75729300
_cell_length_b   5.58055200
_cell_length_c   8.85400953
_cell_angle_alpha   86.49015415
_cell_angle_beta   90.00000000
_cell_angle_gamma   90.00000000
_symmetry_Int_Tables_number   1
_chemical_formula_structural   LiSbCSO7
_chemical_formula_sum   'Li2 Sb2 C2 S2 O14'
_cell_volume   333.25334761
_cell_formula_units_Z   2
loop_
 _symmetry_equiv_pos_site_id
 _symmetry_equiv_pos_as_xyz
  1  'x, y, z'
loop_
 _atom_site_type_symbol
 _atom_site_label
 _atom_site_symmetry_multiplicity
 _atom_site_fract_x
 _atom_site_fract_y
 _atom_site_fract_z
 _atom_site_occupancy
  Li  Li0  1  0.49122300  0.27844100  0.79542500  1
  Li  Li1  1  0.99122300  0.72155900  0.20457500  1
  Sb  Sb0  1  0.74405800  0.79400200  0.64209600  1
  Sb  Sb1  1  0.24405800  0.20599800  0.35790400  1
  C  C0  1  0.74257300  0.72283300  0.92948800  1
  C  C1  1  0.24257300  0.27716700  0.07051200  1
  S  S0  1  0.25653400  0.72785600  0.60222500  1
  S  S1  1  0.75653400  0.27214400  0.39777500  1
  O  O0  1  0.28002600  0.30614700  0.93490500  1
  O  O1  1  0.74501800  0.93983400  0.85121000  1
  O  O2  1  0.70269900  0.54660000  0.83743700  1
  O  O3  1  0.07759300  0.78590500  0.69109500  1
  O  O4  1  0.41768500  0.88989100  0.65701600  1
  O  O5  1  0.72417600  0.21107800  0.56500500  1
  O  O6  1  0.31626700  0.47521500  0.62256400  1
  O  O7  1  0.81626700  0.52478500  0.37743600  1
  O  O8  1  0.22417600  0.78892200  0.43499500  1
  O  O9  1  0.91768500  0.11010900  0.34298400  1
  O  O10  1  0.57759300  0.21409500  0.30890500  1
  O  O11  1  0.20269900  0.45340000  0.16256300  1
  O  O12  1  0.24501800  0.06016600  0.14879000  1
  O  O13  1  0.78002600  0.69385300  0.06509500  1
loop_
_geom_bond_atom_site_label_1
_geom_bond_atom_site_label_2
_geom_bond_distance
_geom_bond_site_symmetry_2
Li0 O0 1.899757 1_555
Li0 O2 2.118494 1_555
Li0 O6 2.177199 1_555
Li0 O1 2.577098 1_545
Li0 O4 2.603016 1_545
Li0 O5 2.622077 1_555
Li1 O13 1.899757 1_555
Li1 O11 2.118494 1_655
Li1 O7 2.177199 1_555
Li1 O12 2.577098 1_665
Li1 O9 2.603016 1_565
Li1 O8 2.622077 1_655
C0 O13 1.228018 1_556
C0 O2 1.342470 1_555
C0 O1 1.358067 1_555
C1 O0 1.228018 1_554
C1 O11 1.342470 1_555
C1 O12 1.358067 1_555
O1 Sb0 2.067579 1_555
O2 Sb0 2.164081 1_555
O3 S0 1.489078 1_555
O3 Sb0 2.295091 1_455
O4 S0 1.514104 1_555
O4 Sb0 2.275134 1_555
O5 S1 1.514762 1_555
O5 Sb0 2.388880 1_545
O6 S0 1.466974 1_555
O7 S1 1.466974 1_555
O8 S0 1.514762 1_555
O8 Sb1 2.388880 1_565
O9 S1 1.514104 1_555
O9 Sb1 2.275134 1_655
O10 S1 1.489078 1_555
O10 Sb1 2.295091 1_555
O11 Sb1 2.164081 1_555
O12 Sb1 2.067579 1_555
