# generated using pymatgen
data_K2InSi4HO11
_symmetry_space_group_name_H-M   'P 1'
_cell_length_a   8.51839900
_cell_length_b   11.59362800
_cell_length_c   11.82573392
_cell_angle_alpha   67.66340968
_cell_angle_beta   90.00000000
_cell_angle_gamma   90.00000000
_symmetry_Int_Tables_number   1
_chemical_formula_structural   K2InSi4HO11
_chemical_formula_sum   'K8 In4 Si16 H4 O44'
_cell_volume   1080.26865734
_cell_formula_units_Z   4
loop_
 _symmetry_equiv_pos_site_id
 _symmetry_equiv_pos_as_xyz
  1  'x, y, z'
loop_
 _atom_site_type_symbol
 _atom_site_label
 _atom_site_symmetry_multiplicity
 _atom_site_fract_x
 _atom_site_fract_y
 _atom_site_fract_z
 _atom_site_occupancy
  K  K0  1  0.75000000  0.91702700  0.58294500  1
  K  K1  1  0.25000000  0.98270900  0.02675400  1
  K  K2  1  0.75000000  0.43226100  0.93907500  1
  K  K3  1  0.75000000  0.52875100  0.54114300  1
  K  K4  1  0.25000000  0.47124900  0.45885700  1
  K  K5  1  0.25000000  0.56773900  0.06092500  1
  K  K6  1  0.75000000  0.01729100  0.97324600  1
  K  K7  1  0.25000000  0.08297300  0.41705500  1
  In  In0  1  0.99407000  0.71242100  0.21263500  1
  In  In1  1  0.50593000  0.71242100  0.21263500  1
  In  In2  1  0.49407000  0.28757900  0.78736500  1
  In  In3  1  0.00593000  0.28757900  0.78736500  1
  Si  Si0  1  0.93656500  0.75111500  0.89634400  1
  Si  Si1  1  0.56343500  0.75111500  0.89634400  1
  Si  Si2  1  0.93022400  0.98941000  0.25416900  1
  Si  Si3  1  0.56977600  0.98941000  0.25416900  1
  Si  Si4  1  0.43577300  0.77746300  0.46850400  1
  Si  Si5  1  0.06422700  0.77746300  0.46850400  1
  Si  Si6  1  0.44092600  0.60836800  0.73653100  1
  Si  Si7  1  0.05907400  0.60836800  0.73653100  1
  Si  Si8  1  0.94092600  0.39163200  0.26346900  1
  Si  Si9  1  0.55907400  0.39163200  0.26346900  1
  Si  Si10  1  0.93577300  0.22253700  0.53149600  1
  Si  Si11  1  0.56422700  0.22253700  0.53149600  1
  Si  Si12  1  0.43022400  0.01059000  0.74583100  1
  Si  Si13  1  0.06977600  0.01059000  0.74583100  1
  Si  Si14  1  0.43656500  0.24888500  0.10365600  1
  Si  Si15  1  0.06343500  0.24888500  0.10365600  1
  H  H0  1  0.25000000  0.75173100  0.28904100  1
  H  H1  1  0.25000000  0.42280100  0.74466800  1
  H  H2  1  0.75000000  0.57719900  0.25533200  1
  H  H3  1  0.75000000  0.24826900  0.71095900  1
  O  O0  1  0.25000000  0.95603000  0.75424700  1
  O  O1  1  0.94984600  0.88948000  0.78308800  1
  O  O2  1  0.55015400  0.88948000  0.78308800  1
  O  O3  1  0.96573500  0.90975900  0.40210700  1
  O  O4  1  0.53426500  0.90975900  0.40210700  1
  O  O5  1  0.75000000  0.71086100  0.90164500  1
  O  O6  1  0.25000000  0.82210900  0.46129200  1
  O  O7  1  0.95865700  0.91011200  0.17104700  1
  O  O8  1  0.54134300  0.91011200  0.17104700  1
  O  O9  1  0.46988900  0.64802600  0.85488400  1
  O  O10  1  0.03011100  0.64802600  0.85488400  1
  O  O11  1  0.00651800  0.72954000  0.61257800  1
  O  O12  1  0.49348200  0.72954000  0.61257800  1
  O  O13  1  0.25000000  0.58636000  0.72829500  1
  O  O14  1  0.46682500  0.67603900  0.40978700  1
  O  O15  1  0.03317500  0.67603900  0.40978700  1
  O  O16  1  0.25000000  0.74701900  0.20821900  1
  O  O17  1  0.96292100  0.48637700  0.74729400  1
  O  O18  1  0.53707900  0.48637700  0.74729400  1
  O  O19  1  0.75000000  0.66437800  0.24856800  1
  O  O20  1  0.00839700  0.75151800  0.02013700  1
  O  O21  1  0.49160300  0.75151800  0.02013700  1
  O  O22  1  0.99160300  0.24848200  0.97986300  1
  O  O23  1  0.50839700  0.24848200  0.97986300  1
  O  O24  1  0.25000000  0.33562200  0.75143200  1
  O  O25  1  0.46292100  0.51362300  0.25270600  1
  O  O26  1  0.03707900  0.51362300  0.25270600  1
  O  O27  1  0.75000000  0.25298100  0.79178100  1
  O  O28  1  0.96682500  0.32396100  0.59021300  1
  O  O29  1  0.53317500  0.32396100  0.59021300  1
  O  O30  1  0.75000000  0.41364000  0.27170500  1
  O  O31  1  0.99348200  0.27046000  0.38742200  1
  O  O32  1  0.50651800  0.27046000  0.38742200  1
  O  O33  1  0.96988900  0.35197400  0.14511600  1
  O  O34  1  0.53011100  0.35197400  0.14511600  1
  O  O35  1  0.45865700  0.08988800  0.82895300  1
  O  O36  1  0.04134300  0.08988800  0.82895300  1
  O  O37  1  0.75000000  0.17789100  0.53870800  1
  O  O38  1  0.25000000  0.28913900  0.09835500  1
  O  O39  1  0.46573500  0.09024100  0.59789300  1
  O  O40  1  0.03426500  0.09024100  0.59789300  1
  O  O41  1  0.44984600  0.11052000  0.21691200  1
  O  O42  1  0.05015400  0.11052000  0.21691200  1
  O  O43  1  0.75000000  0.04397000  0.24575300  1
loop_
_geom_bond_atom_site_label_1
_geom_bond_atom_site_label_2
_geom_bond_distance
_geom_bond_site_symmetry_2
K0 O2 2.833271 1_555
K0 O1 2.833271 1_555
K0 O3 2.845107 1_555
K0 O4 2.845107 1_555
K0 O37 2.866678 1_565
K0 O12 3.007218 1_555
K0 O11 3.007218 1_655
K0 O40 3.193342 1_665
K0 O39 3.193342 1_565
K1 O16 2.759463 1_555
K1 O36 2.822334 1_564
K1 O35 2.822334 1_564
K1 O7 2.947485 1_455
K1 O8 2.947485 1_555
K2 O18 2.783049 1_555
K2 O17 2.783049 1_555
K2 O22 2.868255 1_555
K2 O23 2.868255 1_555
K2 O33 2.930525 1_556
K2 O34 2.930525 1_556
K2 O5 3.089015 1_555
K2 O27 3.179018 1_555
K2 O10 3.324029 1_655
K2 O9 3.324029 1_555
K3 O29 2.887565 1_555
K3 O28 2.887565 1_555
K3 O18 2.926428 1_555
K3 O17 2.926428 1_555
K3 O15 3.021821 1_655
K3 O14 3.021821 1_555
K4 O14 2.887565 1_555
K4 O15 2.887565 1_555
K4 O26 2.926428 1_555
K4 O25 2.926428 1_555
K4 O29 3.021821 1_555
K4 O28 3.021821 1_455
K5 O25 2.783049 1_555
K5 O26 2.783049 1_555
K5 O21 2.868255 1_555
K5 O20 2.868255 1_555
K5 O10 2.930525 1_554
K5 O9 2.930525 1_554
K5 O38 3.089015 1_555
K5 O16 3.179018 1_555
K5 O33 3.324029 1_455
K5 O34 3.324029 1_555
K6 O27 2.759463 1_555
K6 O7 2.822334 1_546
K6 O8 2.822334 1_546
K6 O36 2.947485 1_655
K6 O35 2.947485 1_555
K7 O41 2.833271 1_555
K7 O42 2.833271 1_555
K7 O39 2.845107 1_555
K7 O40 2.845107 1_555
K7 O6 2.866678 1_545
K7 O32 3.007218 1_555
K7 O31 3.007218 1_455
K7 O4 3.193342 1_545
K7 O3 3.193342 1_445
In0 O20 2.148996 1_655
In0 O19 2.152558 1_555
In0 O7 2.174663 1_555
In0 O26 2.200155 1_655
In0 O16 2.213729 1_655
In0 O15 2.230949 1_655
In1 O21 2.148996 1_555
In1 O19 2.152558 1_555
In1 O8 2.174663 1_555
In1 O25 2.200155 1_555
In1 O16 2.213729 1_555
In1 O14 2.230949 1_555
In2 O23 2.148996 1_555
In2 O24 2.152558 1_555
In2 O35 2.174663 1_555
In2 O18 2.200155 1_555
In2 O27 2.213729 1_555
In2 O29 2.230949 1_555
In3 O22 2.148996 1_455
In3 O24 2.152558 1_555
In3 O36 2.174663 1_555
In3 O17 2.200155 1_455
In3 O27 2.213729 1_455
In3 O28 2.230949 1_455
H0 O16 0.977848 1_555
H1 O24 0.983109 1_555
H2 O19 0.983109 1_555
H3 O27 0.977848 1_555
O0 Si12 1.648961 1_565
O0 Si13 1.648961 1_565
O1 Si13 1.655022 1_665
O1 Si0 1.657366 1_555
O2 Si12 1.655022 1_565
O2 Si1 1.657366 1_555
O3 Si5 1.660589 1_655
O3 Si2 1.666419 1_555
O4 Si4 1.660589 1_555
O4 Si3 1.666419 1_555
O5 Si1 1.650806 1_555
O5 Si0 1.650806 1_555
O6 Si5 1.657078 1_555
O6 Si4 1.657078 1_555
O7 Si2 1.599067 1_555
O8 Si3 1.599067 1_555
O9 Si6 1.649336 1_555
O9 Si1 1.658080 1_555
O10 Si7 1.649336 1_555
O10 Si0 1.658080 1_455
O11 Si5 1.653390 1_555
O11 Si7 1.660547 1_555
O12 Si4 1.653390 1_555
O12 Si6 1.660547 1_555
O13 Si6 1.654872 1_555
O13 Si7 1.654872 1_555
O14 Si4 1.598563 1_555
O15 Si5 1.598563 1_555
O17 Si7 1.597042 1_655
O18 Si6 1.597042 1_555
O20 Si0 1.588321 1_454
O21 Si1 1.588321 1_554
O22 Si15 1.588321 1_656
O23 Si14 1.588321 1_556
O25 Si9 1.597042 1_555
O26 Si8 1.597042 1_455
O28 Si10 1.598563 1_555
O29 Si11 1.598563 1_555
O30 Si9 1.654872 1_555
O30 Si8 1.654872 1_555
O31 Si10 1.653390 1_555
O31 Si8 1.660547 1_555
O32 Si11 1.653390 1_555
O32 Si9 1.660547 1_555
O33 Si8 1.649336 1_555
O33 Si15 1.658080 1_655
O34 Si9 1.649336 1_555
O34 Si14 1.658080 1_555
O35 Si12 1.599067 1_555
O36 Si13 1.599067 1_555
O37 Si10 1.657078 1_555
O37 Si11 1.657078 1_555
O38 Si14 1.650806 1_555
O38 Si15 1.650806 1_555
O39 Si11 1.660589 1_555
O39 Si12 1.666419 1_555
O40 Si10 1.660589 1_455
O40 Si13 1.666419 1_555
O41 Si3 1.655022 1_545
O41 Si14 1.657366 1_555
O42 Si2 1.655022 1_445
O42 Si15 1.657366 1_555
O43 Si3 1.648961 1_545
O43 Si2 1.648961 1_545
