# generated using pymatgen
data_Li4Mn3Nb2V3O16
_symmetry_space_group_name_H-M   'P 1'
_cell_length_a   5.92107500
_cell_length_b   6.09308680
_cell_length_c   9.80416094
_cell_angle_alpha   92.22315653
_cell_angle_beta   89.99851562
_cell_angle_gamma   118.94247331
_symmetry_Int_Tables_number   1
_chemical_formula_structural   Li4Mn3Nb2V3O16
_chemical_formula_sum   'Li4 Mn3 Nb2 V3 O16'
_cell_volume   309.23041574
_cell_formula_units_Z   1
loop_
 _symmetry_equiv_pos_site_id
 _symmetry_equiv_pos_as_xyz
  1  'x, y, z'
loop_
 _atom_site_type_symbol
 _atom_site_label
 _atom_site_symmetry_multiplicity
 _atom_site_fract_x
 _atom_site_fract_y
 _atom_site_fract_z
 _atom_site_occupancy
  Li  Li0  1  0.65879700  0.31507300  0.90013600  1
  Li  Li1  1  0.99791200  0.00067100  0.99062600  1
  Li  Li2  1  0.00333800  0.00959000  0.48920900  1
  Li  Li3  1  0.33242400  0.66140000  0.40207300  1
  Mn  Mn0  1  0.83234800  0.66612800  0.21028600  1
  Mn  Mn1  1  0.16833500  0.82844800  0.71511200  1
  Mn  Mn2  1  0.66009600  0.82917700  0.71485100  1
  Nb  Nb0  1  0.66790500  0.34017100  0.49416100  1
  Nb  Nb1  1  0.32315200  0.64713100  0.99495800  1
  V  V0  1  0.34529500  0.17461300  0.21492000  1
  V  V1  1  0.82373400  0.17546400  0.22078400  1
  V  V2  1  0.17012600  0.34190200  0.71866300  1
  O  O0  1  0.34210300  0.18665900  0.58934700  1
  O  O1  1  0.52863700  0.03858500  0.34423400  1
  O  O2  1  0.66798200  0.30377600  0.10597300  1
  O  O3  1  0.00329500  0.02547900  0.30157800  1
  O  O4  1  0.00147400  0.00340600  0.80303200  1
  O  O5  1  0.84498600  0.18935800  0.59006300  1
  O  O6  1  0.50968600  0.46710300  0.34584100  1
  O  O7  1  0.96063900  0.46570900  0.34628800  1
  O  O8  1  0.16473900  0.33756400  0.09884900  1
  O  O9  1  0.84092600  0.68150800  0.59056700  1
  O  O10  1  0.03114400  0.50412100  0.84990200  1
  O  O11  1  0.47168000  0.50255400  0.85114400  1
  O  O12  1  0.33152000  0.66281800  0.61428500  1
  O  O13  1  0.17996600  0.84619800  0.08714100  1
  O  O14  1  0.47559700  0.95143900  0.83655200  1
  O  O15  1  0.66186600  0.84395700  0.08726500  1
loop_
_geom_bond_atom_site_label_1
_geom_bond_atom_site_label_2
_geom_bond_distance
_geom_bond_site_symmetry_2
Li0 O10 2.004019 1_655
Li0 O11 2.007666 1_555
Li0 O14 2.010249 1_545
Li0 O2 2.023528 1_556
Li1 O4 1.839951 1_655
Li1 O13 1.998599 1_646
Li1 O15 1.999945 1_546
Li1 O8 2.045425 1_656
Li2 O3 1.845863 1_555
Li2 O5 1.991614 1_455
Li2 O0 1.993665 1_555
Li2 O9 2.049849 1_445
Li3 O6 1.989742 1_555
Li3 O7 1.993958 1_455
Li3 O12 2.080261 1_555
Li3 O1 2.114230 1_565
Mn0 O3 2.079127 1_665
Mn0 O2 2.147755 1_555
Mn0 O6 2.183896 1_555
Mn0 O15 2.192663 1_555
Mn0 O13 2.194281 1_655
Mn0 O7 2.206897 1_555
Mn1 O12 1.948229 1_555
Mn1 O4 1.950290 1_565
Mn1 O14 1.974945 1_555
Mn1 O9 2.070317 1_455
Mn1 O10 2.227170 1_555
Mn1 O0 2.319046 1_565
Mn2 O12 1.948982 1_555
Mn2 O4 1.952482 1_665
Mn2 O14 1.972476 1_555
Mn2 O9 2.070753 1_555
Mn2 O11 2.246811 1_555
Mn2 O5 2.322610 1_565
Nb0 O0 1.946389 1_555
Nb0 O5 1.956385 1_555
Nb0 O9 2.013400 1_555
Nb0 O6 2.092595 1_555
Nb0 O7 2.119893 1_555
Nb0 O1 2.131022 1_555
Nb1 O15 1.966593 1_556
Nb1 O8 1.977809 1_556
Nb1 O13 1.979145 1_556
Nb1 O11 2.047162 1_555
Nb1 O10 2.053546 1_555
Nb1 O14 2.295239 1_555
O0 V2 2.092416 1_555
O1 V1 1.970092 1_555
O1 V0 2.103627 1_555
O2 V1 1.869471 1_555
O2 V0 2.005151 1_555
O3 V1 1.894623 1_455
O3 V0 1.981678 1_555
O4 V2 2.018455 1_555
O5 V2 2.082594 1_655
O6 V0 1.978574 1_555
O7 V1 1.934532 1_555
O8 V0 2.130450 1_555
O8 V1 2.154721 1_455
O10 V2 1.999564 1_555
O11 V2 2.010767 1_555
O12 V2 2.032377 1_555
O13 V0 2.107510 1_565
O15 V1 2.152530 1_565
