# generated using pymatgen
data_TiPO4
_symmetry_space_group_name_H-M   'P 1'
_cell_length_a   8.50730527
_cell_length_b   8.50730527
_cell_length_c   8.50730549
_cell_angle_alpha   61.71071386
_cell_angle_beta   61.71071386
_cell_angle_gamma   61.71071255
_symmetry_Int_Tables_number   1
_chemical_formula_structural   TiPO4
_chemical_formula_sum   'Ti6 P6 O24'
_cell_volume   452.06652117
_cell_formula_units_Z   6
loop_
 _symmetry_equiv_pos_site_id
 _symmetry_equiv_pos_as_xyz
  1  'x, y, z'
loop_
 _atom_site_type_symbol
 _atom_site_label
 _atom_site_symmetry_multiplicity
 _atom_site_fract_x
 _atom_site_fract_y
 _atom_site_fract_z
 _atom_site_occupancy
  Ti  Ti0  1  0.00000000  0.00000000  0.00000000  1
  Ti  Ti1  1  0.50000000  0.50000000  0.50000000  1
  Ti  Ti2  1  0.85742500  0.85742500  0.85742500  1
  Ti  Ti3  1  0.64257500  0.64257500  0.64257500  1
  Ti  Ti4  1  0.35742500  0.35742500  0.35742500  1
  Ti  Ti5  1  0.14257500  0.14257500  0.14257500  1
  P  P0  1  0.75000000  0.45636500  0.04363500  1
  P  P1  1  0.45636500  0.04363500  0.75000000  1
  P  P2  1  0.04363500  0.75000000  0.45636500  1
  P  P3  1  0.95636500  0.25000000  0.54363500  1
  P  P4  1  0.54363500  0.95636500  0.25000000  1
  P  P5  1  0.25000000  0.54363500  0.95636500  1
  O  O0  1  0.88827300  0.67948600  0.49834400  1
  O  O1  1  0.67948600  0.49834400  0.88827300  1
  O  O2  1  0.94113100  0.09434600  0.74237800  1
  O  O3  1  0.49834400  0.88827300  0.67948600  1
  O  O4  1  0.99834400  0.17948600  0.38827300  1
  O  O5  1  0.75762200  0.40565400  0.55886900  1
  O  O6  1  0.74237800  0.94113100  0.09434600  1
  O  O7  1  0.55886900  0.75762200  0.40565400  1
  O  O8  1  0.82051400  0.61172700  0.00165600  1
  O  O9  1  0.40565400  0.55886900  0.75762200  1
  O  O10  1  0.90565400  0.25762200  0.05886900  1
  O  O11  1  0.61172700  0.00165600  0.82051400  1
  O  O12  1  0.38827300  0.99834400  0.17948600  1
  O  O13  1  0.09434600  0.74237800  0.94113100  1
  O  O14  1  0.59434600  0.44113100  0.24237800  1
  O  O15  1  0.17948600  0.38827300  0.99834400  1
  O  O16  1  0.44113100  0.24237800  0.59434600  1
  O  O17  1  0.25762200  0.05886900  0.90565400  1
  O  O18  1  0.24237800  0.59434600  0.44113100  1
  O  O19  1  0.00165600  0.82051400  0.61172700  1
  O  O20  1  0.50165600  0.11172700  0.32051400  1
  O  O21  1  0.05886900  0.90565400  0.25762200  1
  O  O22  1  0.32051400  0.50165600  0.11172700  1
  O  O23  1  0.11172700  0.32051400  0.50165600  1
loop_
_geom_bond_atom_site_label_1
_geom_bond_atom_site_label_2
_geom_bond_distance
_geom_bond_site_symmetry_2
O0 P2 1.528196 1_655
O0 Ti3 1.949145 1_555
O1 P0 1.528196 1_556
O1 Ti3 1.949145 1_555
O2 P3 1.569017 1_555
O2 Ti2 2.087466 1_545
O2 Ti0 2.165747 1_656
O3 P1 1.528196 1_565
O3 Ti3 1.949144 1_555
O4 P3 1.528196 1_555
O4 Ti5 1.949145 1_655
O5 P3 1.569017 1_555
O5 Ti3 2.087466 1_555
O5 Ti1 2.165747 1_555
O6 P4 1.569017 1_555
O6 Ti2 2.087466 1_554
O6 Ti0 2.165747 1_665
O7 P4 1.569017 1_555
O7 Ti3 2.087466 1_555
O7 Ti1 2.165747 1_555
O8 P0 1.528196 1_555
O8 Ti2 1.949145 1_554
O9 P5 1.569017 1_555
O9 Ti3 2.087466 1_555
O9 Ti1 2.165747 1_555
O10 P0 1.569017 1_555
O10 Ti5 2.087466 1_655
O10 Ti0 2.165747 1_655
O11 P1 1.528196 1_555
O11 Ti2 1.949144 1_545
O12 P4 1.528196 1_555
O12 Ti5 1.949144 1_565
O13 P5 1.569017 1_555
O13 Ti2 2.087466 1_455
O13 Ti0 2.165747 1_566
O14 P0 1.569017 1_555
O14 Ti4 2.087466 1_555
O14 Ti1 2.165747 1_555
O15 P5 1.528196 1_555
O15 Ti5 1.949145 1_556
O16 P1 1.569017 1_555
O16 Ti4 2.087466 1_555
O16 Ti1 2.165747 1_555
O17 P1 1.569017 1_555
O17 Ti5 2.087466 1_556
O17 Ti0 2.165747 1_556
O18 P2 1.569017 1_555
O18 Ti4 2.087466 1_555
O18 Ti1 2.165747 1_555
O19 P2 1.528196 1_555
O19 Ti2 1.949145 1_455
O20 P4 1.528196 1_545
O20 Ti4 1.949144 1_555
O21 P2 1.569017 1_555
O21 Ti5 2.087466 1_565
O21 Ti0 2.165747 1_565
O22 P5 1.528196 1_554
O22 Ti4 1.949145 1_555
O23 P3 1.528196 1_455
O23 Ti4 1.949145 1_555
