# generated using pymatgen
data_Li3MnOF3
_symmetry_space_group_name_H-M   'P 1'
_cell_length_a   5.20314768
_cell_length_b   5.20314768
_cell_length_c   10.47390239
_cell_angle_alpha   79.60980965
_cell_angle_beta   79.60980965
_cell_angle_gamma   34.30867712
_symmetry_Int_Tables_number   1
_chemical_formula_structural   Li3MnOF3
_chemical_formula_sum   'Li6 Mn2 O2 F6'
_cell_volume   156.95460590
_cell_formula_units_Z   2
loop_
 _symmetry_equiv_pos_site_id
 _symmetry_equiv_pos_as_xyz
  1  'x, y, z'
loop_
 _atom_site_type_symbol
 _atom_site_label
 _atom_site_symmetry_multiplicity
 _atom_site_fract_x
 _atom_site_fract_y
 _atom_site_fract_z
 _atom_site_occupancy
  Li  Li0  1  0.24983500  0.24983500  0.88610300  1
  Li  Li1  1  0.50000000  0.50000000  0.00000000  1
  Li  Li2  1  0.50000000  0.50000000  0.50000000  1
  Li  Li3  1  0.75016500  0.75016500  0.11389700  1
  Li  Li4  1  0.00122100  0.00122100  0.25122100  1
  Li  Li5  1  0.99877900  0.99877900  0.74877900  1
  Mn  Mn0  1  0.25657200  0.25657200  0.37989200  1
  Mn  Mn1  1  0.74342800  0.74342800  0.62010800  1
  O  O0  1  0.11984100  0.11984100  0.56756900  1
  O  O1  1  0.88015900  0.88015900  0.43243100  1
  F  F0  1  0.12615500  0.12615500  0.05944100  1
  F  F1  1  0.37597700  0.37597700  0.17420400  1
  F  F2  1  0.36992600  0.36992600  0.70977300  1
  F  F3  1  0.87384500  0.87384500  0.94055900  1
  F  F4  1  0.62402300  0.62402300  0.82579600  1
  F  F5  1  0.63007400  0.63007400  0.29022700  1
loop_
_geom_bond_atom_site_label_1
_geom_bond_atom_site_label_2
_geom_bond_distance
_geom_bond_site_symmetry_2
Li2 O1 2.143437 1_455
Li2 O1 2.143437 1_545
Li2 O0 2.143437 1_655
Li2 O0 2.143437 1_565
Li4 O1 2.046678 1_445
Li5 O0 2.046678 1_665
Mn0 O1 2.103180 1_545
Mn0 O1 2.103180 1_455
Mn0 O0 2.168773 1_555
Mn1 O0 2.103180 1_655
Mn1 O0 2.103180 1_565
Mn1 O1 2.168773 1_555
F0 Li0 1.991403 1_554
F0 Li3 2.113396 1_455
F0 Li3 2.113396 1_545
F0 Li1 2.147347 1_455
F0 Li1 2.147347 1_545
F0 Li4 2.153152 1_555
F1 Li1 2.000136 1_555
F1 Li3 2.148817 1_455
F1 Li3 2.148817 1_545
F1 Li4 2.221706 1_565
F1 Li4 2.221706 1_655
F1 Mn0 2.255067 1_555
F2 Li0 2.001072 1_555
F2 Li5 2.088352 1_545
F2 Li5 2.088352 1_455
F2 Mn1 2.294594 1_545
F2 Mn1 2.294594 1_455
F2 Li2 2.329702 1_555
F3 Li3 1.991403 1_556
F3 Li0 2.113396 1_565
F3 Li0 2.113396 1_655
F3 Li1 2.147347 1_566
F3 Li1 2.147347 1_656
F3 Li5 2.153152 1_555
F4 Li1 2.000136 1_556
F4 Li0 2.148817 1_655
F4 Li0 2.148817 1_565
F4 Li5 2.221706 1_455
F4 Li5 2.221706 1_545
F4 Mn1 2.255067 1_555
F5 Li3 2.001072 1_555
F5 Li4 2.088352 1_565
F5 Li4 2.088352 1_655
F5 Mn0 2.294594 1_565
F5 Mn0 2.294594 1_655
F5 Li2 2.329702 1_555
