# generated using pymatgen
data_Li4Mn3Fe3(WO8)2
_symmetry_space_group_name_H-M   'P 1'
_cell_length_a   5.94074712
_cell_length_b   5.85671591
_cell_length_c   9.75771736
_cell_angle_alpha   89.97414437
_cell_angle_beta   92.06820538
_cell_angle_gamma   119.49032868
_symmetry_Int_Tables_number   1
_chemical_formula_structural   Li4Mn3Fe3(WO8)2
_chemical_formula_sum   'Li4 Mn3 Fe3 W2 O16'
_cell_volume   295.26546145
_cell_formula_units_Z   1
loop_
 _symmetry_equiv_pos_site_id
 _symmetry_equiv_pos_as_xyz
  1  'x, y, z'
loop_
 _atom_site_type_symbol
 _atom_site_label
 _atom_site_symmetry_multiplicity
 _atom_site_fract_x
 _atom_site_fract_y
 _atom_site_fract_z
 _atom_site_occupancy
  Li  Li0  1  0.32458000  0.66249000  0.90346900  1
  Li  Li1  1  0.01053200  0.00512000  0.98807000  1
  Li  Li2  1  0.00728800  0.00363000  0.48994300  1
  Li  Li3  1  0.65810400  0.32914700  0.40986600  1
  Mn  Mn0  1  0.65992100  0.82990900  0.21043400  1
  Mn  Mn1  1  0.82427800  0.65971400  0.71557700  1
  Mn  Mn2  1  0.82451300  0.16460900  0.71541200  1
  Fe  Fe0  1  0.17011900  0.82225000  0.21897700  1
  Fe  Fe1  1  0.17042200  0.34797600  0.21900000  1
  Fe  Fe2  1  0.34066400  0.17039200  0.71191800  1
  W  W0  1  0.32833700  0.66436400  0.48824500  1
  W  W1  1  0.64474600  0.32239000  0.98847400  1
  O  O0  1  0.21025500  0.85470800  0.59259200  1
  O  O1  1  0.03081500  0.51523200  0.36258300  1
  O  O2  1  0.34166200  0.67096700  0.10945900  1
  O  O3  1  0.98966600  0.99473500  0.29815800  1
  O  O4  1  0.01183800  0.00595800  0.79907700  1
  O  O5  1  0.20989300  0.35546900  0.59253000  1
  O  O6  1  0.48608000  0.96227000  0.35216800  1
  O  O7  1  0.48609100  0.52385700  0.35192800  1
  O  O8  1  0.34791600  0.17415800  0.09069600  1
  O  O9  1  0.67654400  0.83789500  0.59460300  1
  O  O10  1  0.49565400  0.46011000  0.84547700  1
  O  O11  1  0.49616800  0.03578500  0.84560700  1
  O  O12  1  0.65863700  0.32921000  0.61622000  1
  O  O13  1  0.82189000  0.65715300  0.07820100  1
  O  O14  1  0.95124300  0.47580500  0.84088300  1
  O  O15  1  0.82214500  0.16499900  0.07827500  1
loop_
_geom_bond_atom_site_label_1
_geom_bond_atom_site_label_2
_geom_bond_distance
_geom_bond_site_symmetry_2
Li0 O11 1.995982 1_565
Li0 O10 1.996522 1_555
Li0 O14 2.000701 1_455
Li0 O2 2.008293 1_556
Li1 O4 1.844431 1_555
Li1 O8 1.975492 1_556
Li1 O13 2.000882 1_446
Li1 O15 2.001910 1_456
Li2 O3 1.869847 1_445
Li2 O9 2.027807 1_445
Li2 O0 2.040913 1_545
Li2 O5 2.042033 1_555
Li3 O7 1.941475 1_555
Li3 O6 1.943158 1_545
Li3 O1 2.000168 1_655
Li3 O12 2.013432 1_555
Mn0 O3 1.876139 1_555
Mn0 O2 1.882977 1_555
Mn0 O7 2.112768 1_555
Mn0 O6 2.114821 1_555
Mn0 O13 2.159566 1_555
Mn0 O15 2.160687 1_565
Mn1 O12 1.926799 1_555
Mn1 O4 1.931041 1_665
Mn1 O14 1.989016 1_555
Mn1 O9 2.019538 1_555
Mn1 O10 2.171378 1_555
Mn1 O0 2.370935 1_655
Mn2 O12 1.924273 1_555
Mn2 O4 1.928750 1_655
Mn2 O14 1.993008 1_555
Mn2 O9 2.023587 1_545
Mn2 O11 2.171888 1_555
Mn2 O5 2.367714 1_655
Fe0 O3 1.973170 1_455
Fe0 O2 1.983442 1_555
Fe0 O6 2.047982 1_555
Fe0 O1 2.120847 1_555
Fe0 O8 2.209092 1_565
Fe0 O13 2.219960 1_455
Fe1 O3 1.975082 1_445
Fe1 O2 1.984383 1_555
Fe1 O7 2.045485 1_555
Fe1 O1 2.120217 1_555
Fe1 O8 2.206549 1_555
Fe1 O15 2.219931 1_455
Fe2 O12 1.924080 1_555
Fe2 O4 1.932296 1_555
Fe2 O10 1.950001 1_555
Fe2 O11 1.950840 1_555
Fe2 O5 1.974389 1_555
Fe2 O0 1.975051 1_545
O0 W0 1.895806 1_555
O1 W0 1.927445 1_555
O5 W0 1.897415 1_555
O6 W0 2.040426 1_555
O7 W0 2.043287 1_555
O8 W1 1.864693 1_554
O9 W0 2.040884 1_555
O10 W1 1.998790 1_555
O11 W1 1.998660 1_555
O13 W1 1.903067 1_554
O14 W1 2.184970 1_555
O15 W1 1.901911 1_554
