# generated using pymatgen
data_KCuPH2O5
_symmetry_space_group_name_H-M   'P 1'
_cell_length_a   6.87778700
_cell_length_b   6.80910000
_cell_length_c   10.59877719
_cell_angle_alpha   87.20923249
_cell_angle_beta   90.00000000
_cell_angle_gamma   90.00000000
_symmetry_Int_Tables_number   1
_chemical_formula_structural   KCuPH2O5
_chemical_formula_sum   'K4 Cu4 P4 H8 O20'
_cell_volume   495.76837087
_cell_formula_units_Z   4
loop_
 _symmetry_equiv_pos_site_id
 _symmetry_equiv_pos_as_xyz
  1  'x, y, z'
loop_
 _atom_site_type_symbol
 _atom_site_label
 _atom_site_symmetry_multiplicity
 _atom_site_fract_x
 _atom_site_fract_y
 _atom_site_fract_z
 _atom_site_occupancy
  K  K0  1  0.07608000  0.96415200  0.31512100  1
  K  K1  1  0.57608000  0.53584800  0.68487900  1
  K  K2  1  0.92392000  0.03584800  0.68487900  1
  K  K3  1  0.42392000  0.46415200  0.31512100  1
  Cu  Cu0  1  0.70364000  0.27915000  0.99258900  1
  Cu  Cu1  1  0.20364000  0.22085000  0.00741100  1
  Cu  Cu2  1  0.29636000  0.72085000  0.00741100  1
  Cu  Cu3  1  0.79636000  0.77915000  0.99258900  1
  P  P0  1  0.96601600  0.50076800  0.17622500  1
  P  P1  1  0.46601600  0.99923200  0.82377500  1
  P  P2  1  0.03398400  0.49923200  0.82377500  1
  P  P3  1  0.53398400  0.00076800  0.17622500  1
  H  H0  1  0.86524200  0.34197500  0.42061700  1
  H  H1  1  0.36524200  0.15802500  0.57938300  1
  H  H2  1  0.13475800  0.65802500  0.57938300  1
  H  H3  1  0.63475800  0.84197500  0.42061700  1
  H  H4  1  0.71369700  0.16872200  0.40990400  1
  H  H5  1  0.21369700  0.33127800  0.59009600  1
  H  H6  1  0.28630300  0.83127800  0.59009600  1
  H  H7  1  0.78630300  0.66872200  0.40990400  1
  O  O0  1  0.96357600  0.55929900  0.31310600  1
  O  O1  1  0.46357600  0.94070100  0.68689400  1
  O  O2  1  0.03642400  0.44070100  0.68689400  1
  O  O3  1  0.53642400  0.05929900  0.31310600  1
  O  O4  1  0.11370400  0.32923200  0.16326700  1
  O  O5  1  0.61370400  0.17076800  0.83673300  1
  O  O6  1  0.88629600  0.67076800  0.83673300  1
  O  O7  1  0.38629600  0.82923200  0.16326700  1
  O  O8  1  0.03567400  0.68248600  0.08538400  1
  O  O9  1  0.53567400  0.81751400  0.91461600  1
  O  O10  1  0.96432600  0.31751400  0.91461600  1
  O  O11  1  0.46432600  0.18248600  0.08538400  1
  O  O12  1  0.75727100  0.45059400  0.12985500  1
  O  O13  1  0.25727100  0.04940600  0.87014500  1
  O  O14  1  0.24272900  0.54940600  0.87014500  1
  O  O15  1  0.74272900  0.95059400  0.12985500  1
  O  O16  1  0.82198200  0.21653100  0.46127800  1
  O  O17  1  0.32198200  0.28346900  0.53872200  1
  O  O18  1  0.17801800  0.78346900  0.53872200  1
  O  O19  1  0.67801800  0.71653100  0.46127800  1
loop_
_geom_bond_atom_site_label_1
_geom_bond_atom_site_label_2
_geom_bond_distance
_geom_bond_site_symmetry_2
K0 O18 2.708811 1_555
K0 O7 2.851419 1_555
K0 O0 2.864303 1_455
K0 O4 2.906420 1_565
K0 O16 2.943851 1_465
K0 O15 3.022983 1_455
K0 O8 3.184208 1_555
K0 O3 3.231614 1_565
K1 O19 2.708811 1_555
K1 O6 2.851419 1_555
K1 O1 2.864303 1_555
K1 O5 2.906420 1_555
K1 O17 2.943851 1_555
K1 O14 3.022983 1_555
K1 O9 3.184208 1_555
K1 O2 3.231614 1_655
K2 O16 2.708811 1_555
K2 O5 2.851419 1_555
K2 O2 2.864303 1_655
K2 O6 2.906420 1_545
K2 O18 2.943851 1_645
K2 O13 3.022983 1_655
K2 O10 3.184208 1_555
K2 O1 3.231614 1_545
K3 O17 2.708811 1_555
K3 O4 2.851419 1_555
K3 O3 2.864303 1_555
K3 O7 2.906420 1_555
K3 O19 2.943851 1_555
K3 O12 3.022983 1_555
K3 O11 3.184208 1_555
K3 O0 3.231614 1_455
Cu0 O5 1.942850 1_555
Cu0 O12 1.944431 1_556
Cu0 O10 1.986159 1_555
Cu0 O11 2.011625 1_556
Cu1 O4 1.942850 1_555
Cu1 O13 1.944431 1_554
Cu1 O11 1.986159 1_555
Cu1 O10 2.011625 1_454
Cu2 O7 1.942850 1_555
Cu2 O14 1.944431 1_554
Cu2 O8 1.986159 1_555
Cu2 O9 2.011625 1_554
Cu3 O6 1.942850 1_555
Cu3 O15 1.944431 1_556
Cu3 O9 1.986159 1_555
Cu3 O8 2.011625 1_656
H0 O16 0.983867 1_555
H1 O17 0.983867 1_555
H2 O18 0.983867 1_555
H3 O19 0.983867 1_555
H4 O16 0.987110 1_555
H4 K3 2.971723 1_555
H5 O17 0.987110 1_555
H5 K2 2.971723 1_455
H6 O18 0.987110 1_555
H6 K1 2.971723 1_555
H7 O19 0.987110 1_555
H7 K0 2.971723 1_655
O0 P0 1.523207 1_555
O1 P1 1.523207 1_555
O2 P2 1.523207 1_555
O3 P3 1.523207 1_555
O4 P0 1.559007 1_455
O5 P1 1.559007 1_545
O6 P2 1.559007 1_655
O7 P3 1.559007 1_565
O8 P0 1.603594 1_455
O9 P1 1.603594 1_555
O10 P2 1.603594 1_655
O11 P3 1.603594 1_555
O12 P0 1.560721 1_555
O13 P1 1.560721 1_545
O14 P2 1.560721 1_555
O15 P3 1.560721 1_565
