# generated using pymatgen
data_Li2Cr3CuO8
_symmetry_space_group_name_H-M   'P 1'
_cell_length_a   5.84419887
_cell_length_b   5.84419887
_cell_length_c   9.56498284
_cell_angle_alpha   89.78455087
_cell_angle_beta   89.78455087
_cell_angle_gamma   119.91970839
_symmetry_Int_Tables_number   1
_chemical_formula_structural   Li2Cr3CuO8
_chemical_formula_sum   'Li4 Cr6 Cu2 O16'
_cell_volume   283.14138631
_cell_formula_units_Z   2
loop_
 _symmetry_equiv_pos_site_id
 _symmetry_equiv_pos_as_xyz
  1  'x, y, z'
loop_
 _atom_site_type_symbol
 _atom_site_label
 _atom_site_symmetry_multiplicity
 _atom_site_fract_x
 _atom_site_fract_y
 _atom_site_fract_z
 _atom_site_occupancy
  Li  Li0  1  0.66381100  0.33244300  0.10041200  1
  Li  Li1  1  0.00282100  0.00288900  0.00346000  1
  Li  Li2  1  0.00288900  0.00282100  0.50346000  1
  Li  Li3  1  0.33244300  0.66381100  0.60041200  1
  Cr  Cr0  1  0.82831000  0.65568400  0.78444100  1
  Cr  Cr1  1  0.33463800  0.16401700  0.79056200  1
  Cr  Cr2  1  0.82928500  0.16201500  0.79120300  1
  Cr  Cr3  1  0.16201500  0.82928500  0.29120300  1
  Cr  Cr4  1  0.65568400  0.82831000  0.28444100  1
  Cr  Cr5  1  0.16401700  0.33463800  0.29056200  1
  Cu  Cu0  1  0.67472500  0.33683400  0.51690200  1
  Cu  Cu1  1  0.33683400  0.67472500  0.01690200  1
  O  O0  1  0.84737000  0.67674700  0.39436400  1
  O  O1  1  0.51220600  0.47211100  0.66447000  1
  O  O2  1  0.66367400  0.32806700  0.89735000  1
  O  O3  1  0.00153900  0.00052200  0.68674700  1
  O  O4  1  0.00052200  0.00153900  0.18674700  1
  O  O5  1  0.32891800  0.16379800  0.38960100  1
  O  O6  1  0.96283300  0.47270000  0.66562300  1
  O  O7  1  0.52231700  0.04116200  0.66763700  1
  O  O8  1  0.17153400  0.84733000  0.89330600  1
  O  O9  1  0.84733000  0.17153400  0.39330600  1
  O  O10  1  0.47270000  0.96283300  0.16562300  1
  O  O11  1  0.04116200  0.52231700  0.16763700  1
  O  O12  1  0.32806700  0.66367400  0.39735000  1
  O  O13  1  0.67674700  0.84737000  0.89436400  1
  O  O14  1  0.47211100  0.51220600  0.16447000  1
  O  O15  1  0.16379800  0.32891800  0.88960100  1
loop_
_geom_bond_atom_site_label_1
_geom_bond_atom_site_label_2
_geom_bond_distance
_geom_bond_site_symmetry_2
Li0 O2 1.942547 1_554
Li0 O10 1.969858 1_545
Li0 O14 1.976884 1_555
Li0 O11 2.020653 1_655
Li1 O4 1.753096 1_555
Li1 O8 1.949972 1_544
Li1 O13 1.959776 1_444
Li1 O15 1.972329 1_554
Li2 O3 1.753096 1_555
Li2 O9 1.949972 1_455
Li2 O0 1.959776 1_445
Li2 O5 1.972329 1_555
Li3 O12 1.942547 1_555
Li3 O6 1.969858 1_455
Li3 O1 1.976884 1_555
Li3 O7 2.020653 1_565
Cr0 O6 1.973427 1_555
Cr0 O2 1.974060 1_555
Cr0 O3 1.975591 1_665
Cr0 O1 1.982084 1_555
Cr0 O13 2.033895 1_555
Cr0 O8 2.036066 1_655
Cr1 O8 1.875944 1_545
Cr1 O15 1.944889 1_555
Cr1 O2 1.960418 1_555
Cr1 O3 1.963353 1_555
Cr1 O7 1.970597 1_555
Cr1 O1 1.970738 1_555
Cr2 O13 1.869269 1_545
Cr2 O15 1.943602 1_655
Cr2 O2 1.961207 1_555
Cr2 O3 1.962075 1_655
Cr2 O7 1.967829 1_555
Cr2 O6 1.977779 1_555
Cr3 O0 1.869269 1_455
Cr3 O5 1.943602 1_565
Cr3 O12 1.961207 1_555
Cr3 O4 1.962075 1_565
Cr3 O11 1.967829 1_555
Cr3 O10 1.977779 1_555
Cr4 O10 1.973427 1_555
Cr4 O12 1.974060 1_555
Cr4 O4 1.975591 1_665
Cr4 O14 1.982084 1_555
Cr4 O0 2.033895 1_555
Cr4 O9 2.036066 1_565
Cr5 O9 1.875944 1_455
Cr5 O5 1.944889 1_555
Cr5 O12 1.960418 1_555
Cr5 O4 1.963353 1_555
Cr5 O11 1.970597 1_555
Cr5 O14 1.970738 1_555
Cu0 O6 2.044964 1_555
Cu0 O1 2.065624 1_555
Cu0 O7 2.072240 1_555
Cu0 O0 2.076574 1_555
Cu0 O9 2.078490 1_555
Cu0 O5 2.139762 1_555
Cu1 O10 2.044964 1_555
Cu1 O14 2.065624 1_555
Cu1 O11 2.072240 1_555
Cu1 O13 2.076574 1_554
Cu1 O8 2.078490 1_554
Cu1 O15 2.139762 1_554
