# generated using pymatgen
data_Li2CoSiO4
_symmetry_space_group_name_H-M   'P 1'
_cell_length_a   7.36449452
_cell_length_b   7.36864969
_cell_length_c   8.05571282
_cell_angle_alpha   65.04460436
_cell_angle_beta   65.08152850
_cell_angle_gamma   94.29182380
_symmetry_Int_Tables_number   1
_chemical_formula_structural   Li2CoSiO4
_chemical_formula_sum   'Li8 Co4 Si4 O16'
_cell_volume   342.06189480
_cell_formula_units_Z   4
loop_
 _symmetry_equiv_pos_site_id
 _symmetry_equiv_pos_as_xyz
  1  'x, y, z'
loop_
 _atom_site_type_symbol
 _atom_site_label
 _atom_site_symmetry_multiplicity
 _atom_site_fract_x
 _atom_site_fract_y
 _atom_site_fract_z
 _atom_site_occupancy
  Li  Li0  1  0.33284800  0.16103200  0.00091800  1
  Li  Li1  1  0.83284200  0.66104300  0.00092100  1
  Li  Li2  1  0.65720600  0.83805400  0.50073500  1
  Li  Li3  1  0.15720000  0.33806000  0.50073600  1
  Li  Li4  1  0.44774500  0.79633000  0.25239400  1
  Li  Li5  1  0.94773400  0.29632900  0.25239900  1
  Li  Li6  1  0.29143600  0.95230900  0.75243200  1
  Li  Li7  1  0.79144400  0.45231900  0.75242500  1
  Co  Co0  1  0.07611200  0.91076500  0.50748000  1
  Co  Co1  1  0.90603600  0.08051000  0.00724200  1
  Co  Co2  1  0.57610500  0.41075500  0.50748500  1
  Co  Co3  1  0.40603100  0.58050500  0.00724200  1
  Si  Si0  1  0.52952800  0.20710900  0.25258700  1
  Si  Si1  1  0.02950400  0.70710600  0.25259100  1
  Si  Si2  1  0.20244800  0.53378600  0.75284300  1
  Si  Si3  1  0.70244200  0.03378400  0.75284600  1
  O  O0  1  0.11983900  0.94009800  0.03649400  1
  O  O1  1  0.61985700  0.44011300  0.03652500  1
  O  O2  1  0.43567500  0.62440000  0.53693000  1
  O  O3  1  0.93567400  0.12439600  0.53691400  1
  O  O4  1  0.22807800  0.61549700  0.25182600  1
  O  O5  1  0.72809300  0.11548800  0.25184100  1
  O  O6  1  0.11071500  0.73219800  0.75228000  1
  O  O7  1  0.61073000  0.23220200  0.75226600  1
  O  O8  1  0.36034300  0.04520900  0.25346100  1
  O  O9  1  0.86032900  0.54522500  0.25345300  1
  O  O10  1  0.04059300  0.36493500  0.75338100  1
  O  O11  1  0.54060400  0.86493200  0.75336900  1
  O  O12  1  0.90300500  0.72383700  0.46901000  1
  O  O13  1  0.40300500  0.22385200  0.46899700  1
  O  O14  1  0.21900800  0.40687400  0.96939000  1
  O  O15  1  0.71897200  0.90689900  0.96940800  1
loop_
_geom_bond_atom_site_label_1
_geom_bond_atom_site_label_2
_geom_bond_distance
_geom_bond_site_symmetry_2
Li0 O8 1.953484 1_555
Li0 O7 1.993502 1_554
Li0 O0 2.009609 1_545
Li0 O14 2.016804 1_554
Li1 O9 1.953370 1_555
Li1 O6 1.993449 1_654
Li1 O1 2.009352 1_555
Li1 O15 2.017022 1_554
Li2 O11 1.952276 1_555
Li2 O5 1.992825 1_565
Li2 O2 2.013110 1_555
Li2 O12 2.017452 1_555
Li3 O10 1.952343 1_555
Li3 O4 1.992914 1_555
Li3 O3 2.013205 1_455
Li3 O13 2.017446 1_555
Li4 O8 1.990704 1_565
Li4 O4 2.020242 1_555
Li4 O15 2.050015 1_554
Li4 O2 2.056186 1_555
Li5 O9 1.990804 1_555
Li5 O5 2.020084 1_555
Li5 O14 2.050304 1_654
Li5 O3 2.056082 1_555
Li6 O11 1.991536 1_555
Li6 O6 2.020379 1_555
Li6 O13 2.051832 1_565
Li6 O0 2.052791 1_556
Li7 O10 1.991463 1_655
Li7 O7 2.020416 1_555
Li7 O12 2.051667 1_555
Li7 O1 2.053054 1_556
Co0 O8 1.979889 1_565
Co0 O3 1.988949 1_465
Co0 O6 1.992309 1_555
Co0 O12 2.012166 1_455
Co1 O10 1.980266 1_654
Co1 O0 1.988967 1_645
Co1 O5 1.992364 1_555
Co1 O15 2.011554 1_544
Co2 O9 1.979895 1_555
Co2 O2 1.989029 1_555
Co2 O7 1.992262 1_555
Co2 O13 2.012106 1_555
Co3 O11 1.980310 1_554
Co3 O1 1.989096 1_555
Co3 O4 1.992351 1_555
Co3 O14 2.011541 1_554
O0 Si1 1.658847 1_555
O1 Si0 1.658776 1_555
O2 Si2 1.658976 1_555
O3 Si3 1.659066 1_555
O4 Si1 1.654685 1_555
O5 Si0 1.654697 1_555
O6 Si2 1.654919 1_555
O7 Si3 1.654859 1_555
O8 Si0 1.654910 1_555
O9 Si1 1.654826 1_655
O10 Si2 1.654691 1_555
O11 Si3 1.654687 1_565
O12 Si1 1.659067 1_655
O13 Si0 1.659077 1_555
O14 Si2 1.658993 1_555
O15 Si3 1.658946 1_565
