# generated using pymatgen
data_Li2MnAsCO7
_symmetry_space_group_name_H-M   'P 1'
_cell_length_a   6.49229600
_cell_length_b   9.94884186
_cell_length_c   10.42721993
_cell_angle_alpha   117.99973530
_cell_angle_beta   89.99862353
_cell_angle_gamma   90.00161438
_symmetry_Int_Tables_number   1
_chemical_formula_structural   Li2MnAsCO7
_chemical_formula_sum   'Li8 Mn4 As4 C4 O28'
_cell_volume   594.66909255
_cell_formula_units_Z   4
loop_
 _symmetry_equiv_pos_site_id
 _symmetry_equiv_pos_as_xyz
  1  'x, y, z'
loop_
 _atom_site_type_symbol
 _atom_site_label
 _atom_site_symmetry_multiplicity
 _atom_site_fract_x
 _atom_site_fract_y
 _atom_site_fract_z
 _atom_site_occupancy
  Li  Li0  1  0.51978900  0.00125900  0.20830000  1
  Li  Li1  1  0.51973500  0.50126200  0.70826400  1
  Li  Li2  1  0.98021600  0.00131400  0.20834500  1
  Li  Li3  1  0.98024400  0.50126000  0.70826600  1
  Li  Li4  1  0.48030800  0.99876300  0.79171300  1
  Li  Li5  1  0.48022500  0.49876300  0.29167100  1
  Li  Li6  1  0.01966400  0.99875500  0.79171900  1
  Li  Li7  1  0.01976200  0.49878500  0.29168100  1
  Mn  Mn0  1  0.75007300  0.71757700  0.05884900  1
  Mn  Mn1  1  0.25002600  0.78246000  0.44118200  1
  Mn  Mn2  1  0.74995200  0.21745900  0.55885600  1
  Mn  Mn3  1  0.24986100  0.28224900  0.94097800  1
  As  As0  1  0.24996500  0.13905700  0.56958500  1
  As  As1  1  0.25004600  0.63892700  0.06950500  1
  As  As2  1  0.75002600  0.86101100  0.43044500  1
  As  As3  1  0.74996700  0.36094900  0.93042400  1
  C  C0  1  0.74998900  0.33303000  0.38361300  1
  C  C1  1  0.75002600  0.83306000  0.88348700  1
  C  C2  1  0.24999900  0.66700600  0.61651300  1
  C  C3  1  0.24998400  0.16697700  0.11644900  1
  O  O0  1  0.25001700  0.08805400  0.18306400  1
  O  O1  1  0.24998800  0.58799200  0.68302500  1
  O  O2  1  0.74997500  0.91207800  0.81697600  1
  O  O3  1  0.75000000  0.41200900  0.31706100  1
  O  O4  1  0.74997700  0.40273500  0.52934000  1
  O  O5  1  0.75006400  0.90274900  0.02923000  1
  O  O6  1  0.25001800  0.59730900  0.47076300  1
  O  O7  1  0.24995300  0.09718900  0.97069000  1
  O  O8  1  0.74998800  0.18602700  0.32315900  1
  O  O9  1  0.75002500  0.68606200  0.82304500  1
  O  O10  1  0.24999400  0.81400200  0.67695100  1
  O  O11  1  0.24997100  0.31397000  0.17681900  1
  O  O12  1  0.75004900  0.89728800  0.28559200  1
  O  O13  1  0.74998200  0.39732200  0.78562400  1
  O  O14  1  0.24998200  0.10265000  0.71439000  1
  O  O15  1  0.25004500  0.60279100  0.21446200  1
  O  O16  1  0.25003400  0.96312700  0.41391900  1
  O  O17  1  0.24999100  0.46300100  0.91392300  1
  O  O18  1  0.74998600  0.03691200  0.58612100  1
  O  O19  1  0.75008400  0.53689000  0.08605800  1
  O  O20  1  0.04663700  0.24705300  0.56653400  1
  O  O21  1  0.04678700  0.74692000  0.06634200  1
  O  O22  1  0.45327500  0.24708700  0.56655200  1
  O  O23  1  0.45336900  0.74687200  0.06632500  1
  O  O24  1  0.54676800  0.75307100  0.43362200  1
  O  O25  1  0.54666300  0.25295400  0.93348500  1
  O  O26  1  0.95329000  0.75308300  0.43362800  1
  O  O27  1  0.95323000  0.25288000  0.93345600  1
loop_
_geom_bond_atom_site_label_1
_geom_bond_atom_site_label_2
_geom_bond_distance
_geom_bond_site_symmetry_2
Li0 O0 2.023831 1_555
Li0 O12 2.176505 1_545
Li0 O5 2.227948 1_545
Li0 O8 2.231560 1_555
Li0 O23 2.294526 1_545
Li1 O1 2.023385 1_555
Li1 O13 2.176668 1_555
Li1 O4 2.226851 1_555
Li1 O9 2.232016 1_555
Li1 O22 2.292538 1_555
Li2 O0 2.023829 1_655
Li2 O12 2.176101 1_545
Li2 O5 2.227757 1_545
Li2 O8 2.231334 1_555
Li2 O21 2.294817 1_645
Li3 O1 2.023332 1_655
Li3 O13 2.176643 1_555
Li3 O4 2.226995 1_555
Li3 O9 2.231746 1_555
Li3 O20 2.292751 1_655
Li4 O2 2.022800 1_555
Li4 O14 2.176449 1_565
Li4 O7 2.227646 1_565
Li4 O10 2.231869 1_555
Li4 O25 2.292617 1_565
Li5 O3 2.024179 1_555
Li5 O15 2.176003 1_555
Li5 O6 2.227813 1_555
Li5 O11 2.231930 1_555
Li5 O24 2.294015 1_555
Li6 O2 2.022811 1_455
Li6 O14 2.176435 1_565
Li6 O7 2.227345 1_565
Li6 O10 2.231933 1_555
Li6 O27 2.292155 1_465
Li7 O3 2.024126 1_455
Li7 O15 2.176316 1_555
Li7 O6 2.227974 1_555
Li7 O11 2.231906 1_555
Li7 O26 2.293857 1_455
Mn0 O23 1.944301 1_555
Mn0 O21 1.944410 1_655
Mn0 O19 1.947004 1_555
Mn0 O5 2.005862 1_555
Mn0 O12 2.194885 1_555
Mn0 O9 2.328103 1_554
Mn1 O26 1.944577 1_455
Mn1 O24 1.944642 1_555
Mn1 O16 1.947132 1_555
Mn1 O6 2.005423 1_555
Mn1 O15 2.194589 1_555
Mn1 O10 2.327643 1_555
Mn2 O20 1.944494 1_655
Mn2 O22 1.944495 1_555
Mn2 O18 1.945961 1_555
Mn2 O4 2.006259 1_555
Mn2 O13 2.195533 1_555
Mn2 O8 2.327293 1_555
Mn3 O27 1.943901 1_455
Mn3 O25 1.944926 1_555
Mn3 O17 1.946715 1_555
Mn3 O7 2.005325 1_555
Mn3 O14 2.193418 1_555
Mn3 O11 2.327746 1_556
As0 O14 1.710128 1_555
As0 O20 1.711775 1_555
As0 O22 1.711793 1_555
As0 O16 1.740883 1_545
As1 O15 1.709998 1_555
As1 O21 1.711776 1_555
As1 O23 1.711801 1_555
As1 O17 1.740457 1_554
As2 O12 1.709810 1_555
As2 O24 1.711434 1_555
As2 O26 1.711455 1_555
As2 O18 1.740767 1_565
As3 O13 1.709865 1_555
As3 O25 1.711633 1_555
As3 O27 1.711849 1_555
As3 O19 1.740792 1_556
C0 O3 1.269231 1_555
C0 O8 1.292546 1_555
C0 O4 1.341814 1_555
C1 O2 1.269213 1_555
C1 O9 1.292507 1_555
C1 O5 1.341965 1_556
C2 O1 1.269187 1_555
C2 O10 1.292491 1_555
C2 O6 1.342028 1_555
C3 O0 1.269294 1_555
C3 O11 1.292495 1_555
C3 O7 1.342099 1_554
