# generated using pymatgen
data_Li2Co3NiO8
_symmetry_space_group_name_H-M   'P 1'
_cell_length_a   5.85404086
_cell_length_b   5.97306943
_cell_length_c   5.76307145
_cell_angle_alpha   119.93216330
_cell_angle_beta   121.02542188
_cell_angle_gamma   59.54975299
_symmetry_Int_Tables_number   1
_chemical_formula_structural   Li2Co3NiO8
_chemical_formula_sum   'Li2 Co3 Ni1 O8'
_cell_volume   140.94607439
_cell_formula_units_Z   1
loop_
 _symmetry_equiv_pos_site_id
 _symmetry_equiv_pos_as_xyz
  1  'x, y, z'
loop_
 _atom_site_type_symbol
 _atom_site_label
 _atom_site_symmetry_multiplicity
 _atom_site_fract_x
 _atom_site_fract_y
 _atom_site_fract_z
 _atom_site_occupancy
  Li  Li0  1  0.50000600  0.49998500  0.99990300  1
  Li  Li1  1  0.99992800  0.50004700  0.49991900  1
  Co  Co0  1  0.50005100  0.99997300  0.50003100  1
  Co  Co1  1  0.49997200  0.00002900  0.99996200  1
  Co  Co2  1  0.99996100  0.00005200  0.50003700  1
  Ni  Ni0  1  0.00004600  0.99995600  0.00005400  1
  O  O0  1  0.77680300  0.21105600  0.23294500  1
  O  O1  1  0.22320100  0.78893900  0.76711600  1
  O  O2  1  0.27747800  0.21319200  0.73293000  1
  O  O3  1  0.72246500  0.78689400  0.26701000  1
  O  O4  1  0.24928200  0.20340300  0.24108100  1
  O  O5  1  0.75206800  0.20292100  0.74352100  1
  O  O6  1  0.24803200  0.79702300  0.25656600  1
  O  O7  1  0.75070700  0.79652900  0.75892400  1
loop_
_geom_bond_atom_site_label_1
_geom_bond_atom_site_label_2
_geom_bond_distance
_geom_bond_site_symmetry_2
Li0 O5 2.118074 1_555
Li0 O6 2.118762 1_556
Li0 O2 2.136407 1_555
Li0 O3 2.136672 1_556
Li0 O1 2.153948 1_555
Li0 O0 2.154771 1_556
Li1 O7 2.116807 1_555
Li1 O4 2.116809 1_655
Li1 O3 2.145326 1_555
Li1 O2 2.145748 1_655
Li1 O0 2.148547 1_555
Li1 O1 2.148664 1_655
Co0 O3 1.880335 1_555
Co0 O2 1.880462 1_565
Co0 O5 1.896369 1_565
Co0 O6 1.896383 1_555
Co0 O7 1.897664 1_555
Co0 O4 1.897872 1_565
Co1 O3 1.973315 1_546
Co1 O2 1.973362 1_555
Co1 O0 2.038713 1_556
Co1 O1 2.038751 1_545
Co1 O7 2.042066 1_545
Co1 O4 2.042298 1_556
Co2 O0 1.964369 1_555
Co2 O1 1.964734 1_645
Co2 O5 2.040384 1_555
Co2 O6 2.041020 1_645
Co2 O3 2.050526 1_545
Co2 O2 2.050595 1_655
Ni0 O1 1.883526 1_554
Ni0 O0 1.883680 1_465
Ni0 O6 1.885341 1_555
Ni0 O5 1.885548 1_464
Ni0 O4 1.886369 1_565
Ni0 O7 1.886733 1_454
