# generated using pymatgen
data_Ti3NbFe2(PO4)6
_symmetry_space_group_name_H-M   'P 1'
_cell_length_a   8.61995836
_cell_length_b   8.61995847
_cell_length_c   8.61995805
_cell_angle_alpha   61.27424429
_cell_angle_beta   61.27423307
_cell_angle_gamma   61.27423399
_symmetry_Int_Tables_number   1
_chemical_formula_structural   Ti3NbFe2(PO4)6
_chemical_formula_sum   'Ti3 Nb1 Fe2 P6 O24'
_cell_volume   465.87285416
_cell_formula_units_Z   1
loop_
 _symmetry_equiv_pos_site_id
 _symmetry_equiv_pos_as_xyz
  1  'x, y, z'
loop_
 _atom_site_type_symbol
 _atom_site_label
 _atom_site_symmetry_multiplicity
 _atom_site_fract_x
 _atom_site_fract_y
 _atom_site_fract_z
 _atom_site_occupancy
  Ti  Ti0  1  0.14407600  0.14407600  0.14407600  1
  Ti  Ti1  1  0.35615200  0.35615200  0.35615200  1
  Ti  Ti2  1  0.64402500  0.64402500  0.64402500  1
  Nb  Nb0  1  0.85718200  0.85718200  0.85718200  1
  Fe  Fe0  1  0.00257500  0.00257500  0.00257500  1
  Fe  Fe1  1  0.49988600  0.49988600  0.49988600  1
  P  P0  1  0.04584800  0.74857500  0.45183600  1
  P  P1  1  0.45183600  0.04584800  0.74857500  1
  P  P2  1  0.25505400  0.53883300  0.95662000  1
  P  P3  1  0.53883300  0.95662000  0.25505400  1
  P  P4  1  0.95662000  0.25505400  0.53883300  1
  P  P5  1  0.74857500  0.45183600  0.04584800  1
  O  O0  1  0.11479400  0.31816500  0.49873700  1
  O  O1  1  0.31816500  0.49873700  0.11479400  1
  O  O2  1  0.05970700  0.90824100  0.25977000  1
  O  O3  1  0.49873700  0.11479400  0.31816500  1
  O  O4  1  0.00824300  0.81485000  0.60840500  1
  O  O5  1  0.23893700  0.59047100  0.43898000  1
  O  O6  1  0.25977000  0.05970700  0.90824100  1
  O  O7  1  0.43898000  0.23893700  0.59047100  1
  O  O8  1  0.18689100  0.38364700  0.99731500  1
  O  O9  1  0.59047100  0.43898000  0.23893700  1
  O  O10  1  0.09614400  0.73451700  0.94269800  1
  O  O11  1  0.38364700  0.99731500  0.18689100  1
  O  O12  1  0.60840500  0.00824300  0.81485000  1
  O  O13  1  0.90824100  0.25977000  0.05970700  1
  O  O14  1  0.41184100  0.55531000  0.76250100  1
  O  O15  1  0.81485000  0.60840500  0.00824300  1
  O  O16  1  0.55531000  0.76250100  0.41184100  1
  O  O17  1  0.73451700  0.94269800  0.09614400  1
  O  O18  1  0.76250100  0.41184100  0.55531000  1
  O  O19  1  0.99731500  0.18689100  0.38364700  1
  O  O20  1  0.49825500  0.88467200  0.68624500  1
  O  O21  1  0.94269800  0.09614400  0.73451700  1
  O  O22  1  0.68624500  0.49825500  0.88467200  1
  O  O23  1  0.88467200  0.68624500  0.49825500  1
loop_
_geom_bond_atom_site_label_1
_geom_bond_atom_site_label_2
_geom_bond_distance
_geom_bond_site_symmetry_2
Nb0 O4 2.009650 1_655
Nb0 O12 2.009650 1_565
Nb0 O15 2.009650 1_556
Nb0 O17 2.126288 1_556
Nb0 O10 2.126288 1_655
Nb0 O21 2.126288 1_565
Fe0 O13 2.179578 1_455
Fe0 O6 2.179578 1_554
Fe0 O2 2.179578 1_545
Fe0 O10 2.282723 1_544
Fe0 O17 2.282723 1_445
Fe0 O21 2.282723 1_454
Fe1 O14 2.228973 1_555
Fe1 O18 2.228973 1_555
Fe1 O16 2.228973 1_555
Fe1 O9 2.235575 1_555
Fe1 O5 2.235575 1_555
Fe1 O7 2.235576 1_555
O0 P4 1.534172 1_455
O0 Ti1 1.938127 1_555
O1 P2 1.534172 1_554
O1 Ti1 1.938127 1_555
O2 P0 1.557934 1_555
O2 Ti0 2.105064 1_565
O3 P3 1.534172 1_545
O3 Ti1 1.938127 1_555
O4 P0 1.547745 1_555
O5 P0 1.558007 1_555
O5 Ti1 2.083601 1_555
O6 P1 1.557934 1_555
O6 Ti0 2.105064 1_556
O7 P1 1.558007 1_555
O7 Ti1 2.083601 1_555
O8 P2 1.537546 1_555
O8 Ti0 1.942631 1_556
O9 P5 1.558007 1_555
O9 Ti1 2.083601 1_555
O10 P2 1.574307 1_555
O11 P3 1.537546 1_555
O11 Ti0 1.942631 1_565
O12 P1 1.547745 1_555
O13 P5 1.557934 1_555
O13 Ti0 2.105064 1_655
O14 P2 1.558498 1_555
O14 Ti2 2.095040 1_555
O15 P5 1.547745 1_555
O16 P3 1.558498 1_555
O16 Ti2 2.095040 1_555
O17 P3 1.574307 1_555
O18 P4 1.558498 1_555
O18 Ti2 2.095040 1_555
O19 P4 1.537546 1_555
O19 Ti0 1.942631 1_655
O20 P1 1.534773 1_565
O20 Ti2 1.948063 1_555
O21 P4 1.574307 1_555
O22 P5 1.534773 1_556
O22 Ti2 1.948064 1_555
O23 P0 1.534773 1_655
O23 Ti2 1.948063 1_555
