# generated using pymatgen
data_Mn4Si3AsHO13
_symmetry_space_group_name_H-M   'P 1'
_cell_length_a   20.24475600
_cell_length_b   6.77434200
_cell_length_c   9.70953964
_cell_angle_alpha   51.84714732
_cell_angle_beta   90.00000000
_cell_angle_gamma   90.00000000
_symmetry_Int_Tables_number   1
_chemical_formula_structural   Mn4Si3AsHO13
_chemical_formula_sum   'Mn16 Si12 As4 H4 O52'
_cell_volume   1047.13519278
_cell_formula_units_Z   4
loop_
 _symmetry_equiv_pos_site_id
 _symmetry_equiv_pos_as_xyz
  1  'x, y, z'
loop_
 _atom_site_type_symbol
 _atom_site_label
 _atom_site_symmetry_multiplicity
 _atom_site_fract_x
 _atom_site_fract_y
 _atom_site_fract_z
 _atom_site_occupancy
  Mn  Mn0  1  0.14801900  0.59551100  0.64645300  1
  Mn  Mn1  1  0.35198100  0.59551100  0.14645300  1
  Mn  Mn2  1  0.85198100  0.40448900  0.35354700  1
  Mn  Mn3  1  0.64801900  0.40448900  0.85354700  1
  Mn  Mn4  1  0.08415300  0.00142500  0.95471300  1
  Mn  Mn5  1  0.41584700  0.00142500  0.45471300  1
  Mn  Mn6  1  0.91584700  0.99857500  0.04528700  1
  Mn  Mn7  1  0.58415300  0.99857500  0.54528700  1
  Mn  Mn8  1  0.00833600  0.48464200  0.25158800  1
  Mn  Mn9  1  0.49166400  0.48464200  0.75158800  1
  Mn  Mn10  1  0.99166400  0.51535800  0.74841200  1
  Mn  Mn11  1  0.50833600  0.51535800  0.24841200  1
  Mn  Mn12  1  0.24550600  0.08595900  0.36212900  1
  Mn  Mn13  1  0.25449400  0.08595900  0.86212900  1
  Mn  Mn14  1  0.75449400  0.91404100  0.63787100  1
  Mn  Mn15  1  0.74550600  0.91404100  0.13787100  1
  Si  Si0  1  0.86721200  0.84965400  0.41742900  1
  Si  Si1  1  0.63278800  0.84965400  0.91742900  1
  Si  Si2  1  0.13278800  0.15034600  0.58257100  1
  Si  Si3  1  0.36721200  0.15034600  0.08257100  1
  Si  Si4  1  0.01962700  0.89419300  0.33873400  1
  Si  Si5  1  0.48037300  0.89419300  0.83873400  1
  Si  Si6  1  0.98037300  0.10580700  0.66126600  1
  Si  Si7  1  0.51962700  0.10580700  0.16126600  1
  Si  Si8  1  0.09790000  0.38710500  0.06255500  1
  Si  Si9  1  0.40210000  0.38710500  0.56255500  1
  Si  Si10  1  0.90210000  0.61289500  0.93744500  1
  Si  Si11  1  0.59790000  0.61289500  0.43744500  1
  As  As0  1  0.80088000  0.35788000  0.70932400  1
  As  As1  1  0.69912000  0.35788000  0.20932400  1
  As  As2  1  0.19912000  0.64212000  0.29067600  1
  As  As3  1  0.30088000  0.64212000  0.79067600  1
  H  H0  1  0.20325600  0.35896100  0.01627000  1
  H  H1  1  0.29674400  0.35896100  0.51627000  1
  H  H2  1  0.79674400  0.64103900  0.98373000  1
  H  H3  1  0.70325600  0.64103900  0.48373000  1
  O  O0  1  0.73679100  0.55251700  0.67476000  1
  O  O1  1  0.76320900  0.55251700  0.17476000  1
  O  O2  1  0.26320900  0.44748300  0.32524000  1
  O  O3  1  0.23679100  0.44748300  0.82524000  1
  O  O4  1  0.81946900  0.12021600  0.92093000  1
  O  O5  1  0.68053100  0.12021600  0.42093000  1
  O  O6  1  0.18053100  0.87978400  0.07907000  1
  O  O7  1  0.31946900  0.87978400  0.57907000  1
  O  O8  1  0.79068900  0.25791300  0.58690700  1
  O  O9  1  0.70931100  0.25791300  0.08690700  1
  O  O10  1  0.20931100  0.74208700  0.41309300  1
  O  O11  1  0.29068900  0.74208700  0.91309300  1
  O  O12  1  0.87009700  0.56377000  0.61917700  1
  O  O13  1  0.62990300  0.56377000  0.11917700  1
  O  O14  1  0.12990300  0.43623000  0.38082300  1
  O  O15  1  0.37009700  0.43623000  0.88082300  1
  O  O16  1  0.84252700  0.80529800  0.27763700  1
  O  O17  1  0.65747300  0.80529800  0.77763700  1
  O  O18  1  0.15747300  0.19470200  0.72236300  1
  O  O19  1  0.34252700  0.19470200  0.22236300  1
  O  O20  1  0.82377000  0.04065200  0.42650800  1
  O  O21  1  0.67623000  0.04065200  0.92650800  1
  O  O22  1  0.17623000  0.95934800  0.57349200  1
  O  O23  1  0.32377000  0.95934800  0.07349200  1
  O  O24  1  0.94466900  0.93834700  0.38187500  1
  O  O25  1  0.55533100  0.93834700  0.88187500  1
  O  O26  1  0.05533100  0.06165300  0.61812500  1
  O  O27  1  0.44466900  0.06165300  0.11812500  1
  O  O28  1  0.05266100  0.67600800  0.52645000  1
  O  O29  1  0.44733900  0.67600800  0.02645000  1
  O  O30  1  0.94733900  0.32399200  0.47355000  1
  O  O31  1  0.55266100  0.32399200  0.97355000  1
  O  O32  1  0.01534400  0.84901800  0.19158600  1
  O  O33  1  0.48465600  0.84901800  0.69158600  1
  O  O34  1  0.98465600  0.15098200  0.80841400  1
  O  O35  1  0.51534400  0.15098200  0.30841400  1
  O  O36  1  0.05695000  0.16803300  0.24594300  1
  O  O37  1  0.44305000  0.16803300  0.74594300  1
  O  O38  1  0.94305000  0.83196700  0.75405700  1
  O  O39  1  0.55695000  0.83196700  0.25405700  1
  O  O40  1  0.17772300  0.31974200  0.11906100  1
  O  O41  1  0.32227700  0.31974200  0.61906100  1
  O  O42  1  0.82227700  0.68025800  0.88093900  1
  O  O43  1  0.67772300  0.68025800  0.38093900  1
  O  O44  1  0.08582500  0.37723600  0.89967800  1
  O  O45  1  0.41417500  0.37723600  0.39967800  1
  O  O46  1  0.91417500  0.62276400  0.10032200  1
  O  O47  1  0.58582500  0.62276400  0.60032200  1
  O  O48  1  0.07058900  0.63944500  0.02623500  1
  O  O49  1  0.42941100  0.63944500  0.52623500  1
  O  O50  1  0.92941100  0.36055500  0.97376500  1
  O  O51  1  0.57058900  0.36055500  0.47376500  1
loop_
_geom_bond_atom_site_label_1
_geom_bond_atom_site_label_2
_geom_bond_distance
_geom_bond_site_symmetry_2
Mn0 O28 2.144013 1_555
Mn0 O22 2.178473 1_555
Mn0 O10 2.209034 1_555
Mn0 O3 2.257899 1_555
Mn0 O44 2.307624 1_555
Mn0 O18 2.340873 1_555
Mn1 O29 2.144013 1_555
Mn1 O23 2.178473 1_555
Mn1 O11 2.209034 1_554
Mn1 O2 2.257899 1_555
Mn1 O45 2.307624 1_555
Mn1 O19 2.340873 1_555
Mn2 O30 2.144013 1_555
Mn2 O20 2.178473 1_555
Mn2 O8 2.209034 1_555
Mn2 O1 2.257899 1_555
Mn2 O46 2.307624 1_555
Mn2 O16 2.340873 1_555
Mn3 O31 2.144013 1_555
Mn3 O21 2.178473 1_555
Mn3 O9 2.209034 1_556
Mn3 O0 2.257899 1_555
Mn3 O47 2.307624 1_555
Mn3 O17 2.340873 1_555
Mn4 O48 2.113493 1_546
Mn4 O6 2.171320 1_546
Mn4 O44 2.255509 1_555
Mn4 O34 2.307276 1_455
Mn4 O18 2.314660 1_555
Mn4 O32 2.315664 1_546
Mn5 O49 2.113493 1_545
Mn5 O7 2.171320 1_545
Mn5 O45 2.255509 1_555
Mn5 O35 2.307276 1_555
Mn5 O19 2.314660 1_555
Mn5 O33 2.315664 1_545
Mn6 O50 2.113493 1_564
Mn6 O4 2.171320 1_564
Mn6 O46 2.255509 1_555
Mn6 O32 2.307276 1_655
Mn6 O16 2.314660 1_555
Mn6 O34 2.315664 1_564
Mn7 O51 2.113493 1_565
Mn7 O5 2.171320 1_565
Mn7 O47 2.255509 1_555
Mn7 O33 2.307276 1_555
Mn7 O17 2.314660 1_555
Mn7 O35 2.315664 1_565
Mn8 O30 2.110950 1_455
Mn8 O48 2.154233 1_555
Mn8 O32 2.162361 1_555
Mn8 O46 2.229030 1_455
Mn8 O36 2.391046 1_555
Mn8 O14 2.688986 1_555
Mn9 O31 2.110950 1_555
Mn9 O49 2.154233 1_555
Mn9 O33 2.162361 1_555
Mn9 O47 2.229030 1_555
Mn9 O37 2.391046 1_555
Mn9 O15 2.688986 1_555
Mn10 O28 2.110950 1_655
Mn10 O50 2.154233 1_555
Mn10 O34 2.162361 1_555
Mn10 O44 2.229030 1_655
Mn10 O38 2.391046 1_555
Mn10 O12 2.688986 1_555
Mn11 O29 2.110950 1_555
Mn11 O51 2.154233 1_555
Mn11 O35 2.162361 1_555
Mn11 O45 2.229030 1_555
Mn11 O39 2.391046 1_555
Mn11 O13 2.688986 1_555
Mn12 O22 2.177037 1_545
Mn12 O10 2.187277 1_545
Mn12 O7 2.234919 1_545
Mn12 O19 2.237654 1_555
Mn12 O2 2.273974 1_555
Mn12 O40 2.311535 1_555
Mn13 O23 2.177037 1_546
Mn13 O11 2.187277 1_545
Mn13 O6 2.234919 1_546
Mn13 O18 2.237654 1_555
Mn13 O3 2.273974 1_555
Mn13 O41 2.311535 1_555
Mn14 O20 2.177037 1_565
Mn14 O8 2.187277 1_565
Mn14 O5 2.234919 1_565
Mn14 O17 2.237654 1_555
Mn14 O0 2.273974 1_555
Mn14 O42 2.311535 1_555
Mn15 O21 2.177037 1_564
Mn15 O9 2.187277 1_565
Mn15 O4 2.234919 1_564
Mn15 O16 2.237654 1_555
Mn15 O1 2.273974 1_555
Mn15 O43 2.311535 1_555
As0 O4 1.693551 1_555
As0 O8 1.705434 1_555
As0 O0 1.728545 1_555
As0 O12 1.779534 1_555
As1 O5 1.693551 1_555
As1 O9 1.705434 1_555
As1 O1 1.728545 1_555
As1 O13 1.779534 1_555
As2 O6 1.693551 1_555
As2 O10 1.705434 1_555
As2 O2 1.728545 1_555
As2 O14 1.779534 1_555
As3 O7 1.693551 1_555
As3 O11 1.705434 1_555
As3 O3 1.728545 1_555
As3 O15 1.779534 1_555
H0 O40 1.003132 1_555
H0 O3 1.699000 1_554
H1 O41 1.003132 1_555
H1 O2 1.699000 1_555
H2 O42 1.003132 1_555
H2 O1 1.699000 1_556
H3 O43 1.003132 1_555
H3 O0 1.699000 1_555
O12 Si0 1.704146 1_555
O13 Si1 1.704146 1_554
O14 Si2 1.704146 1_555
O15 Si3 1.704146 1_556
O16 Si0 1.638977 1_555
O17 Si1 1.638977 1_555
O18 Si2 1.638977 1_555
O19 Si3 1.638977 1_555
O20 Si0 1.611306 1_545
O21 Si1 1.611306 1_545
O22 Si2 1.611306 1_565
O23 Si3 1.611306 1_565
O24 Si0 1.637938 1_555
O24 Si4 1.650017 1_655
O25 Si1 1.637938 1_555
O25 Si5 1.650017 1_555
O26 Si2 1.637938 1_555
O26 Si6 1.650017 1_455
O27 Si3 1.637938 1_555
O27 Si7 1.650017 1_555
O28 Si4 1.620325 1_555
O29 Si5 1.620325 1_554
O30 Si6 1.620325 1_555
O31 Si7 1.620325 1_556
O32 Si4 1.637891 1_555
O33 Si5 1.637891 1_555
O34 Si6 1.637891 1_555
O35 Si7 1.637891 1_555
O36 Si4 1.661022 1_545
O36 Si8 1.671941 1_555
O37 Si5 1.661022 1_545
O37 Si9 1.671941 1_555
O38 Si6 1.661022 1_565
O38 Si10 1.671941 1_555
O39 Si7 1.661022 1_565
O39 Si11 1.671941 1_555
O40 Si8 1.676714 1_555
O41 Si9 1.676714 1_555
O42 Si10 1.676714 1_555
O43 Si11 1.676714 1_555
O44 Si8 1.641913 1_556
O45 Si9 1.641913 1_555
O46 Si10 1.641913 1_554
O47 Si11 1.641913 1_555
O48 Si8 1.614753 1_555
O49 Si9 1.614753 1_555
O50 Si10 1.614753 1_555
O51 Si11 1.614753 1_555
