# generated using pymatgen
data_Li12CrGa11O24
_symmetry_space_group_name_H-M   'P 1'
_cell_length_a   7.47903100
_cell_length_b   8.20110041
_cell_length_c   9.86144840
_cell_angle_alpha   101.11796831
_cell_angle_beta   86.67427462
_cell_angle_gamma   114.54732679
_symmetry_Int_Tables_number   1
_chemical_formula_structural   Li12CrGa11O24
_chemical_formula_sum   'Li12 Cr1 Ga11 O24'
_cell_volume   539.70455069
_cell_formula_units_Z   1
loop_
 _symmetry_equiv_pos_site_id
 _symmetry_equiv_pos_as_xyz
  1  'x, y, z'
loop_
 _atom_site_type_symbol
 _atom_site_label
 _atom_site_symmetry_multiplicity
 _atom_site_fract_x
 _atom_site_fract_y
 _atom_site_fract_z
 _atom_site_occupancy
  Li  Li0  1  0.85084500  0.61146000  0.73524600  1
  Li  Li1  1  0.99015300  0.55551900  0.43053000  1
  Li  Li2  1  0.65523800  0.88722600  0.76247500  1
  Li  Li3  1  0.09768300  0.60894500  0.98473400  1
  Li  Li4  1  0.43076400  0.27562100  0.65146800  1
  Li  Li5  1  0.76459100  0.94233500  0.31808900  1
  Li  Li6  1  0.40520700  0.88772800  0.51251000  1
  Li  Li7  1  0.07166500  0.22187300  0.84625900  1
  Li  Li8  1  0.73843300  0.55438600  0.17775100  1
  Li  Li9  1  0.17954000  0.27594000  0.40051400  1
  Li  Li10  1  0.51505500  0.94290800  0.06726500  1
  Li  Li11  1  0.32083100  0.22057800  0.09602200  1
  Cr  Cr0  1  0.60135800  0.61019900  0.48431600  1
  Ga  Ga0  1  0.67907400  0.27610500  0.90237000  1
  Ga  Ga1  1  0.82030200  0.22339500  0.59701000  1
  Ga  Ga2  1  0.48728400  0.55688200  0.93009500  1
  Ga  Ga3  1  0.26417300  0.94509800  0.81887500  1
  Ga  Ga4  1  0.92878100  0.27812700  0.15262300  1
  Ga  Ga5  1  0.23413100  0.55354800  0.68134200  1
  Ga  Ga6  1  0.90295800  0.88859100  0.01447700  1
  Ga  Ga7  1  0.56640200  0.21952400  0.34778200  1
  Ga  Ga8  1  0.34332800  0.60859600  0.23465400  1
  Ga  Ga9  1  0.01892300  0.94813500  0.57094000  1
  Ga  Ga10  1  0.15381600  0.89073000  0.26372000  1
  O  O0  1  0.92752600  0.34121200  0.97953200  1
  O  O1  1  0.71829400  0.73601000  0.87431600  1
  O  O2  1  0.88678200  0.07248700  0.68424900  1
  O  O3  1  0.70165500  0.34269400  0.72882700  1
  O  O4  1  0.86697500  0.70007700  0.55819500  1
  O  O5  1  0.52112300  0.02516100  0.88678100  1
  O  O6  1  0.31029800  0.41977400  0.78233900  1
  O  O7  1  0.97670500  0.75333300  0.11572300  1
  O  O8  1  0.64362300  0.08646400  0.44884700  1
  O  O9  1  0.12696500  0.05414100  0.94224800  1
  O  O10  1  0.79191400  0.38826300  0.27724100  1
  O  O11  1  0.45965300  0.71826800  0.60947500  1
  O  O12  1  0.44770800  0.35006900  0.46820300  1
  O  O13  1  0.12752000  0.69226300  0.80483900  1
  O  O14  1  0.79289400  0.02526200  0.13753100  1
  O  O15  1  0.26708100  0.01134800  0.64686300  1
  O  O16  1  0.59250600  0.67215900  0.30917900  1
  O  O17  1  0.05066000  0.40241000  0.54079700  1
  O  O18  1  0.38466500  0.06808000  0.20621300  1
  O  O19  1  0.55237500  0.40440400  0.01694600  1
  O  O20  1  0.21958200  0.73818800  0.35017700  1
  O  O21  1  0.03373500  0.00786800  0.39553000  1
  O  O22  1  0.36737100  0.67491400  0.06142200  1
  O  O23  1  0.18545300  0.35810100  0.21986200  1
loop_
_geom_bond_atom_site_label_1
_geom_bond_atom_site_label_2
_geom_bond_distance
_geom_bond_site_symmetry_2
Li0 O4 1.995808 1_555
Li0 O3 2.004567 1_555
Li0 O13 2.010470 1_655
Li0 O1 2.012545 1_555
Li1 O20 1.995164 1_655
Li1 O17 2.004920 1_655
Li1 O4 2.009099 1_555
Li1 O10 2.033568 1_555
Li2 O2 2.003308 1_565
Li2 O1 2.012597 1_555
Li2 O5 2.013399 1_565
Li2 O11 2.025313 1_555
Li3 O13 1.989655 1_555
Li3 O22 2.011324 1_556
Li3 O7 2.013493 1_456
Li3 O0 2.021309 1_455
Li4 O15 1.990472 1_555
Li4 O12 1.997425 1_555
Li4 O6 2.009142 1_555
Li4 O3 2.020085 1_555
Li5 O14 1.995346 1_565
Li5 O8 2.010918 1_565
Li5 O21 2.011255 1_665
Li5 O16 2.035250 1_555
Li6 O11 2.009847 1_555
Li6 O15 2.010921 1_565
Li6 O8 2.019919 1_565
Li6 O20 2.019932 1_555
Li7 O9 1.994905 1_555
Li7 O2 2.014774 1_455
Li7 O0 2.015810 1_455
Li7 O6 2.018420 1_555
Li8 O10 1.998124 1_555
Li8 O16 2.008186 1_555
Li8 O19 2.011369 1_555
Li8 O7 2.013572 1_555
Li9 O12 1.955367 1_555
Li9 O21 1.999367 1_555
Li9 O17 2.010286 1_555
Li9 O23 2.014628 1_555
Li10 O22 1.998830 1_555
Li10 O18 2.004147 1_565
Li10 O5 2.013237 1_564
Li10 O14 2.018591 1_565
Li11 O19 2.001811 1_555
Li11 O18 2.013272 1_555
Li11 O23 2.015630 1_555
Li11 O9 2.019263 1_554
Cr0 O16 1.903984 1_555
Cr0 O11 1.907589 1_555
Cr0 O12 1.936616 1_555
Cr0 O4 1.940277 1_555
Ga0 O0 1.870808 1_555
Ga0 O3 1.872394 1_555
Ga0 O19 1.878133 1_556
Ga0 O5 1.879787 1_555
Ga1 O2 1.868302 1_555
Ga1 O8 1.870893 1_555
Ga1 O3 1.879216 1_555
Ga1 O17 1.879452 1_655
Ga2 O6 1.869444 1_555
Ga2 O19 1.871229 1_556
Ga2 O22 1.876599 1_556
Ga2 O1 1.881010 1_555
Ga3 O5 1.871881 1_565
Ga3 O13 1.872996 1_555
Ga3 O15 1.874674 1_565
Ga3 O9 1.879101 1_565
Ga4 O23 1.867820 1_655
Ga4 O14 1.871605 1_555
Ga4 O0 1.878252 1_554
Ga4 O10 1.888936 1_555
Ga5 O17 1.866846 1_555
Ga5 O11 1.873342 1_555
Ga5 O13 1.876116 1_555
Ga5 O6 1.877924 1_555
Ga6 O9 1.871373 1_664
Ga6 O1 1.871426 1_554
Ga6 O7 1.879076 1_555
Ga6 O14 1.879536 1_565
Ga7 O18 1.867582 1_555
Ga7 O12 1.876570 1_555
Ga7 O8 1.878172 1_555
Ga7 O10 1.881335 1_555
Ga8 O22 1.867596 1_555
Ga8 O16 1.867851 1_555
Ga8 O20 1.874013 1_555
Ga8 O23 1.877419 1_555
Ga9 O4 1.855499 1_455
Ga9 O15 1.867102 1_565
Ga9 O21 1.871878 1_565
Ga9 O2 1.880198 1_465
Ga10 O7 1.871962 1_455
Ga10 O20 1.872204 1_555
Ga10 O21 1.875860 1_565
Ga10 O18 1.880416 1_565
