# generated using pymatgen
data_Li6Fe2C4SO16
_symmetry_space_group_name_H-M   'P 1'
_cell_length_a   9.44081174
_cell_length_b   9.44081174
_cell_length_c   9.44081174
_cell_angle_alpha   60.00000000
_cell_angle_beta   60.00000000
_cell_angle_gamma   60.00000000
_symmetry_Int_Tables_number   1
_chemical_formula_structural   Li6Fe2C4SO16
_chemical_formula_sum   'Li12 Fe4 C8 S2 O32'
_cell_volume   594.99458624
_cell_formula_units_Z   2
loop_
 _symmetry_equiv_pos_site_id
 _symmetry_equiv_pos_as_xyz
  1  'x, y, z'
loop_
 _atom_site_type_symbol
 _atom_site_label
 _atom_site_symmetry_multiplicity
 _atom_site_fract_x
 _atom_site_fract_y
 _atom_site_fract_z
 _atom_site_occupancy
  Li  Li0  1  0.03147000  0.46853000  0.46853000  1
  Li  Li1  1  0.78147000  0.21853000  0.21853000  1
  Li  Li2  1  0.46853000  0.46853000  0.03147000  1
  Li  Li3  1  0.03147000  0.46853000  0.03147000  1
  Li  Li4  1  0.03147000  0.03147000  0.46853000  1
  Li  Li5  1  0.46853000  0.03147000  0.46853000  1
  Li  Li6  1  0.78147000  0.21853000  0.78147000  1
  Li  Li7  1  0.21853000  0.21853000  0.78147000  1
  Li  Li8  1  0.78147000  0.78147000  0.21853000  1
  Li  Li9  1  0.21853000  0.78147000  0.21853000  1
  Li  Li10  1  0.46853000  0.03147000  0.03147000  1
  Li  Li11  1  0.21853000  0.78147000  0.78147000  1
  Fe  Fe0  1  0.62500000  0.62500000  0.62500000  1
  Fe  Fe1  1  0.12500000  0.62500000  0.62500000  1
  Fe  Fe2  1  0.62500000  0.62500000  0.12500000  1
  Fe  Fe3  1  0.62500000  0.12500000  0.62500000  1
  C  C0  1  0.85032200  0.85032200  0.44903500  1
  C  C1  1  0.85032200  0.44903500  0.85032200  1
  C  C2  1  0.85032200  0.85032200  0.85032200  1
  C  C3  1  0.44903500  0.85032200  0.85032200  1
  C  C4  1  0.80096500  0.39967800  0.39967800  1
  C  C5  1  0.39967800  0.39967800  0.39967800  1
  C  C6  1  0.39967800  0.39967800  0.80096500  1
  C  C7  1  0.39967800  0.80096500  0.39967800  1
  S  S0  1  0.00000000  0.00000000  0.00000000  1
  S  S1  1  0.25000000  0.25000000  0.25000000  1
  O  O0  1  0.06465900  0.06465900  0.80602300  1
  O  O1  1  0.06465900  0.80602300  0.06465900  1
  O  O2  1  0.80602300  0.06465900  0.06465900  1
  O  O3  1  0.06465900  0.06465900  0.06465900  1
  O  O4  1  0.99200800  0.71730600  0.44935300  1
  O  O5  1  0.84133300  0.44935300  0.71730600  1
  O  O6  1  0.71730600  0.84133300  0.44935300  1
  O  O7  1  0.99200800  0.44935300  0.84133300  1
  O  O8  1  0.71730600  0.44935300  0.99200800  1
  O  O9  1  0.84133300  0.99200800  0.44935300  1
  O  O10  1  0.44935300  0.71730600  0.84133300  1
  O  O11  1  0.99200800  0.84133300  0.71730600  1
  O  O12  1  0.80064700  0.40866700  0.25799200  1
  O  O13  1  0.53269400  0.25799200  0.40866700  1
  O  O14  1  0.44935300  0.99200800  0.71730600  1
  O  O15  1  0.84133300  0.71730600  0.99200800  1
  O  O16  1  0.80064700  0.25799200  0.53269400  1
  O  O17  1  0.40866700  0.53269400  0.25799200  1
  O  O18  1  0.44935300  0.84133300  0.99200800  1
  O  O19  1  0.71730600  0.99200800  0.84133300  1
  O  O20  1  0.80064700  0.53269400  0.40866700  1
  O  O21  1  0.25799200  0.40866700  0.53269400  1
  O  O22  1  0.40866700  0.25799200  0.80064700  1
  O  O23  1  0.53269400  0.80064700  0.25799200  1
  O  O24  1  0.53269400  0.40866700  0.80064700  1
  O  O25  1  0.25799200  0.80064700  0.40866700  1
  O  O26  1  0.40866700  0.80064700  0.53269400  1
  O  O27  1  0.25799200  0.53269400  0.80064700  1
  O  O28  1  0.18534100  0.18534100  0.18534100  1
  O  O29  1  0.44397700  0.18534100  0.18534100  1
  O  O30  1  0.18534100  0.44397700  0.18534100  1
  O  O31  1  0.18534100  0.18534100  0.44397700  1
loop_
_geom_bond_atom_site_label_1
_geom_bond_atom_site_label_2
_geom_bond_distance
_geom_bond_site_symmetry_2
Li0 O5 2.110677 1_455
Li0 O4 2.110677 1_455
Li0 O21 2.237015 1_555
Li0 O20 2.237015 1_455
Li0 O30 2.389770 1_555
Li0 O31 2.389770 1_555
Li1 O13 2.110677 1_555
Li1 O12 2.110677 1_555
Li1 O8 2.237015 1_554
Li1 O9 2.237015 1_545
Li1 O2 2.389770 1_555
Li1 O3 2.389770 1_655
Li2 O10 2.110677 1_554
Li2 O8 2.110677 1_554
Li2 O24 2.237015 1_554
Li2 O17 2.237015 1_555
Li2 O30 2.389770 1_555
Li2 O29 2.389770 1_555
Li3 O15 2.110677 1_454
Li3 O7 2.110677 1_454
Li3 O12 2.237015 1_455
Li3 O27 2.237015 1_554
Li3 O30 2.389770 1_555
Li3 O28 2.389770 1_555
Li4 O9 2.110677 1_445
Li4 O11 2.110677 1_445
Li4 O16 2.237015 1_455
Li4 O25 2.237015 1_545
Li4 O28 2.389770 1_555
Li4 O31 2.389770 1_555
Li5 O6 2.110677 1_545
Li5 O14 2.110677 1_545
Li5 O26 2.237015 1_545
Li5 O13 2.237015 1_555
Li5 O29 2.389770 1_555
Li5 O31 2.389770 1_555
Li6 O24 2.110677 1_555
Li6 O16 2.110677 1_555
Li6 O5 2.237015 1_555
Li6 O19 2.237015 1_545
Li6 O0 2.389770 1_655
Li6 O2 2.389770 1_556
Li7 O21 2.110677 1_555
Li7 O22 2.110677 1_555
Li7 O7 2.237015 1_455
Li7 O14 2.237015 1_545
Li7 O0 2.389770 1_555
Li7 O3 2.389770 1_556
Li8 O23 2.110677 1_555
Li8 O20 2.110677 1_555
Li8 O6 2.237015 1_555
Li8 O15 2.237015 1_554
Li8 O2 2.389770 1_565
Li8 O1 2.389770 1_655
Li9 O25 2.110677 1_555
Li9 O17 2.110677 1_555
Li9 O18 2.237015 1_554
Li9 O4 2.237015 1_455
Li9 O1 2.389770 1_555
Li9 O3 2.389770 1_565
Li10 O19 2.110677 1_544
Li10 O18 2.110677 1_544
Li10 O22 2.237015 1_554
Li10 O23 2.237015 1_545
Li10 O29 2.389770 1_555
Li10 O28 2.389770 1_555
Li11 O27 2.110677 1_555
Li11 O26 2.110677 1_555
Li11 O10 2.237015 1_555
Li11 O11 2.237015 1_455
Li11 O1 2.389770 1_556
Li11 O0 2.389770 1_565
Fe0 O24 2.151378 1_555
Fe0 O10 2.151378 1_555
Fe0 O26 2.151378 1_555
Fe0 O20 2.151378 1_555
Fe0 O5 2.151378 1_555
Fe0 O6 2.151378 1_555
Fe1 O7 2.151378 1_455
Fe1 O4 2.151378 1_455
Fe1 O25 2.151378 1_555
Fe1 O27 2.151378 1_555
Fe1 O11 2.151378 1_455
Fe1 O21 2.151378 1_555
Fe2 O18 2.151378 1_554
Fe2 O12 2.151378 1_555
Fe2 O23 2.151378 1_555
Fe2 O8 2.151378 1_554
Fe2 O17 2.151378 1_555
Fe2 O15 2.151378 1_554
Fe3 O22 2.151378 1_555
Fe3 O9 2.151378 1_545
Fe3 O16 2.151378 1_555
Fe3 O13 2.151378 1_555
Fe3 O14 2.151378 1_545
Fe3 O19 2.151378 1_545
C0 O9 1.298735 1_555
C0 O4 1.298739 1_555
C0 O6 1.298744 1_555
C1 O7 1.298735 1_555
C1 O8 1.298739 1_555
C1 O5 1.298744 1_555
C2 O15 1.298739 1_555
C2 O11 1.298739 1_555
C2 O19 1.298739 1_555
C3 O18 1.298735 1_555
C3 O14 1.298739 1_555
C3 O10 1.298744 1_555
C4 O12 1.298735 1_555
C4 O16 1.298739 1_555
C4 O20 1.298744 1_555
C5 O21 1.298739 1_555
C5 O17 1.298739 1_555
C5 O13 1.298739 1_555
C6 O22 1.298735 1_555
C6 O27 1.298739 1_555
C6 O24 1.298744 1_555
C7 O25 1.298735 1_555
C7 O23 1.298739 1_555
C7 O26 1.298744 1_555
O0 S0 1.495250 1_556
O1 S0 1.495250 1_565
O2 S0 1.495250 1_655
O3 S0 1.495250 1_555
O28 S1 1.495250 1_555
O29 S1 1.495250 1_555
O30 S1 1.495250 1_555
O31 S1 1.495250 1_555
