# generated using pymatgen
data_CrBiO5
_symmetry_space_group_name_H-M   'P 1'
_cell_length_a   7.34290300
_cell_length_b   9.90081500
_cell_length_c   11.27448400
_cell_angle_alpha   90.00000000
_cell_angle_beta   90.00000000
_cell_angle_gamma   90.00000000
_symmetry_Int_Tables_number   1
_chemical_formula_structural   CrBiO5
_chemical_formula_sum   'Cr8 Bi8 O40'
_cell_volume   819.66315140
_cell_formula_units_Z   8
loop_
 _symmetry_equiv_pos_site_id
 _symmetry_equiv_pos_as_xyz
  1  'x, y, z'
loop_
 _atom_site_type_symbol
 _atom_site_label
 _atom_site_symmetry_multiplicity
 _atom_site_fract_x
 _atom_site_fract_y
 _atom_site_fract_z
 _atom_site_occupancy
  Cr  Cr0  1  0.65884300  0.41120400  0.64146100  1
  Cr  Cr1  1  0.34115700  0.08879600  0.14146100  1
  Cr  Cr2  1  0.84115700  0.91120400  0.35853900  1
  Cr  Cr3  1  0.15884300  0.58879600  0.85853900  1
  Cr  Cr4  1  0.34115700  0.58879600  0.35853900  1
  Cr  Cr5  1  0.65884300  0.91120400  0.85853900  1
  Cr  Cr6  1  0.15884300  0.08879600  0.64146100  1
  Cr  Cr7  1  0.84115700  0.41120400  0.14146100  1
  Bi  Bi0  1  0.49163900  0.82487700  0.58990400  1
  Bi  Bi1  1  0.50836100  0.67512300  0.08990400  1
  Bi  Bi2  1  0.00836100  0.32487700  0.41009600  1
  Bi  Bi3  1  0.99163900  0.17512300  0.91009600  1
  Bi  Bi4  1  0.50836100  0.17512300  0.41009600  1
  Bi  Bi5  1  0.49163900  0.32487700  0.91009600  1
  Bi  Bi6  1  0.99163900  0.67512300  0.58990400  1
  Bi  Bi7  1  0.00836100  0.82487700  0.08990400  1
  O  O0  1  0.71909300  0.81504200  0.98065000  1
  O  O1  1  0.28090700  0.68495800  0.48065000  1
  O  O2  1  0.78090700  0.31504200  0.01935000  1
  O  O3  1  0.21909300  0.18495800  0.51935000  1
  O  O4  1  0.28090700  0.18495800  0.01935000  1
  O  O5  1  0.71909300  0.31504200  0.51935000  1
  O  O6  1  0.21909300  0.68495800  0.98065000  1
  O  O7  1  0.78090700  0.81504200  0.48065000  1
  O  O8  1  0.75635100  0.85337400  0.73601600  1
  O  O9  1  0.24364900  0.64662600  0.23601600  1
  O  O10  1  0.74364900  0.35337400  0.26398400  1
  O  O11  1  0.25635100  0.14662600  0.76398400  1
  O  O12  1  0.24364900  0.14662600  0.26398400  1
  O  O13  1  0.75635100  0.35337400  0.76398400  1
  O  O14  1  0.25635100  0.64662600  0.73601600  1
  O  O15  1  0.74364900  0.85337400  0.23601600  1
  O  O16  1  0.44250100  0.89477000  0.83866000  1
  O  O17  1  0.55749900  0.60523000  0.33866000  1
  O  O18  1  0.05749900  0.39477000  0.16134000  1
  O  O19  1  0.94250100  0.10523000  0.66134000  1
  O  O20  1  0.55749900  0.10523000  0.16134000  1
  O  O21  1  0.44250100  0.39477000  0.66134000  1
  O  O22  1  0.94250100  0.60523000  0.83866000  1
  O  O23  1  0.05749900  0.89477000  0.33866000  1
  O  O24  1  0.70327400  0.07759800  0.87916500  1
  O  O25  1  0.29672600  0.42240200  0.37916500  1
  O  O26  1  0.79672600  0.57759800  0.12083500  1
  O  O27  1  0.20327400  0.92240200  0.62083500  1
  O  O28  1  0.29672600  0.92240200  0.12083500  1
  O  O29  1  0.70327400  0.57759800  0.62083500  1
  O  O30  1  0.20327400  0.42240200  0.87916500  1
  O  O31  1  0.79672600  0.07759800  0.37916500  1
  O  O32  1  0.46152200  0.94762100  0.42213100  1
  O  O33  1  0.53847800  0.55237900  0.92213100  1
  O  O34  1  0.03847800  0.44762100  0.57786900  1
  O  O35  1  0.96152200  0.05237900  0.07786900  1
  O  O36  1  0.53847800  0.05237900  0.57786900  1
  O  O37  1  0.46152200  0.44762100  0.07786900  1
  O  O38  1  0.96152200  0.55237900  0.42213100  1
  O  O39  1  0.03847800  0.94762100  0.92213100  1
loop_
_geom_bond_atom_site_label_1
_geom_bond_atom_site_label_2
_geom_bond_distance
_geom_bond_site_symmetry_2
Cr0 O21 1.612541 1_555
Cr0 O13 1.657919 1_555
Cr0 O29 1.695454 1_555
Cr0 O5 1.731357 1_555
Cr1 O20 1.612541 1_555
Cr1 O12 1.657919 1_555
Cr1 O28 1.695454 1_545
Cr1 O4 1.731357 1_555
Cr2 O23 1.612541 1_655
Cr2 O15 1.657919 1_555
Cr2 O31 1.695454 1_565
Cr2 O7 1.731357 1_555
Cr3 O22 1.612541 1_455
Cr3 O14 1.657919 1_555
Cr3 O30 1.695454 1_555
Cr3 O6 1.731357 1_555
Cr4 O17 1.612541 1_555
Cr4 O9 1.657919 1_555
Cr4 O25 1.695454 1_555
Cr4 O1 1.731357 1_555
Cr5 O16 1.612541 1_555
Cr5 O8 1.657919 1_555
Cr5 O24 1.695454 1_565
Cr5 O0 1.731357 1_555
Cr6 O19 1.612541 1_455
Cr6 O11 1.657919 1_555
Cr6 O27 1.695454 1_545
Cr6 O3 1.731357 1_555
Cr7 O18 1.612541 1_655
Cr7 O10 1.657919 1_555
Cr7 O26 1.695454 1_555
Cr7 O2 1.731357 1_555
Bi0 O32 2.259149 1_555
Bi0 O36 2.282599 1_565
Bi0 O27 2.353187 1_555
Bi0 O1 2.414700 1_555
Bi0 O7 2.457322 1_555
Bi0 O8 2.563495 1_555
Bi1 O33 2.259149 1_554
Bi1 O37 2.282599 1_555
Bi1 O26 2.353187 1_555
Bi1 O0 2.414700 1_554
Bi1 O6 2.457322 1_554
Bi1 O9 2.563495 1_555
Bi2 O34 2.259149 1_555
Bi2 O38 2.282599 1_455
Bi2 O25 2.353187 1_555
Bi2 O3 2.414700 1_555
Bi2 O5 2.457322 1_455
Bi2 O10 2.563495 1_455
Bi3 O35 2.259149 1_556
Bi3 O39 2.282599 1_645
Bi3 O24 2.353187 1_555
Bi3 O2 2.414700 1_556
Bi3 O4 2.457322 1_656
Bi3 O11 2.563495 1_655
Bi4 O36 2.259149 1_555
Bi4 O32 2.282599 1_545
Bi4 O31 2.353187 1_555
Bi4 O5 2.414700 1_555
Bi4 O3 2.457322 1_555
Bi4 O12 2.563495 1_555
Bi5 O37 2.259149 1_556
Bi5 O33 2.282599 1_555
Bi5 O30 2.353187 1_555
Bi5 O4 2.414700 1_556
Bi5 O2 2.457322 1_556
Bi5 O13 2.563495 1_555
Bi6 O38 2.259149 1_555
Bi6 O34 2.282599 1_655
Bi6 O29 2.353187 1_555
Bi6 O7 2.414700 1_555
Bi6 O1 2.457322 1_655
Bi6 O14 2.563495 1_655
Bi7 O39 2.259149 1_554
Bi7 O35 2.282599 1_465
Bi7 O28 2.353187 1_555
Bi7 O6 2.414700 1_554
Bi7 O0 2.457322 1_454
Bi7 O15 2.563495 1_455
