# generated using pymatgen
data_Li4Mn3(FeO5)2
_symmetry_space_group_name_H-M   'P 1'
_cell_length_a   5.14828600
_cell_length_b   5.22075929
_cell_length_c   7.85706778
_cell_angle_alpha   71.35904616
_cell_angle_beta   71.43859644
_cell_angle_gamma   81.70015503
_symmetry_Int_Tables_number   1
_chemical_formula_structural   Li4Mn3(FeO5)2
_chemical_formula_sum   'Li4 Mn3 Fe2 O10'
_cell_volume   189.48112086
_cell_formula_units_Z   1
loop_
 _symmetry_equiv_pos_site_id
 _symmetry_equiv_pos_as_xyz
  1  'x, y, z'
loop_
 _atom_site_type_symbol
 _atom_site_label
 _atom_site_symmetry_multiplicity
 _atom_site_fract_x
 _atom_site_fract_y
 _atom_site_fract_z
 _atom_site_occupancy
  Li  Li0  1  0.50847800  0.77439000  0.43371500  1
  Li  Li1  1  0.97237500  0.49728100  0.51245900  1
  Li  Li2  1  0.49926400  0.39781800  0.22085400  1
  Li  Li3  1  0.48975700  0.20500100  0.59377800  1
  Mn  Mn0  1  0.50413300  0.00270200  0.99525600  1
  Mn  Mn1  1  0.99637200  0.30967200  0.89614900  1
  Mn  Mn2  1  0.01021200  0.69688500  0.10147600  1
  Fe  Fe0  1  0.00838800  0.88786700  0.68396200  1
  Fe  Fe1  1  0.99758700  0.11242300  0.31006300  1
  O  O0  1  0.22863000  0.97500100  0.86330300  1
  O  O1  1  0.79025600  0.64501700  0.95147900  1
  O  O2  1  0.77291700  0.87720800  0.53354400  1
  O  O3  1  0.25333200  0.77654000  0.22110600  1
  O  O4  1  0.20502700  0.53728600  0.66732200  1
  O  O5  1  0.77942700  0.46066200  0.33264000  1
  O  O6  1  0.76838400  0.20599600  0.77155200  1
  O  O7  1  0.24266800  0.13035100  0.45441200  1
  O  O8  1  0.21832700  0.32931100  0.05113500  1
  O  O9  1  0.75119100  0.07398500  0.12775200  1
loop_
_geom_bond_atom_site_label_1
_geom_bond_atom_site_label_2
_geom_bond_distance
_geom_bond_site_symmetry_2
Li0 O2 1.979083 1_555
Li0 O4 2.149926 1_555
Li0 O7 2.161027 1_565
Li0 O5 2.173902 1_555
Li0 O3 2.428338 1_555
Li0 O9 2.456635 1_565
Li1 O4 2.030097 1_655
Li1 O5 2.034807 1_555
Li1 O2 2.128362 1_555
Li1 O6 2.163476 1_555
Li1 O7 2.280132 1_655
Li1 O3 2.413584 1_655
Li2 O5 2.021593 1_555
Li2 O7 2.100863 1_555
Li2 O9 2.151540 1_555
Li2 O3 2.188749 1_555
Li2 O1 2.276588 1_554
Li2 O8 2.383309 1_555
Li3 O7 2.066854 1_555
Li3 O2 2.153146 1_545
Li3 O0 2.182136 1_545
Li3 O4 2.204435 1_555
Li3 O5 2.256385 1_555
Li3 O6 2.300229 1_555
Mn0 O6 1.941287 1_555
Mn0 O3 1.962717 1_546
Mn0 O9 2.016766 1_556
Mn0 O0 2.049103 1_545
Mn0 O8 2.146691 1_556
Mn0 O1 2.251485 1_545
Mn1 O4 1.889889 1_655
Mn1 O8 1.949013 1_656
Mn1 O6 1.970464 1_555
Mn1 O9 1.993339 1_556
Mn1 O1 2.009146 1_555
Mn1 O0 2.009437 1_645
Mn2 O3 1.942218 1_555
Mn2 O5 1.961813 1_455
Mn2 O1 1.971493 1_454
Mn2 O0 2.066231 1_554
Mn2 O8 2.146825 1_555
Mn2 O9 2.241307 1_465
Fe0 O2 1.960383 1_455
Fe0 O7 1.976514 1_565
Fe0 O4 1.981341 1_555
Fe0 O6 2.087033 1_465
Fe0 O1 2.119267 1_455
Fe0 O0 2.248114 1_555
Fe1 O2 1.915121 1_545
Fe1 O7 1.974865 1_655
Fe1 O5 2.021909 1_555
Fe1 O8 2.034563 1_655
Fe1 O3 2.197302 1_645
Fe1 O9 2.261710 1_555
