# generated using pymatgen
data_Sn5P6O25
_symmetry_space_group_name_H-M   'P 1'
_cell_length_a   10.09937636
_cell_length_b   10.09937636
_cell_length_c   10.09937620
_cell_angle_alpha   49.63405479
_cell_angle_beta   49.63405479
_cell_angle_gamma   49.63405679
_symmetry_Int_Tables_number   1
_chemical_formula_structural   Sn5P6O25
_chemical_formula_sum   'Sn5 P6 O25'
_cell_volume   549.86968937
_cell_formula_units_Z   1
loop_
 _symmetry_equiv_pos_site_id
 _symmetry_equiv_pos_as_xyz
  1  'x, y, z'
loop_
 _atom_site_type_symbol
 _atom_site_label
 _atom_site_symmetry_multiplicity
 _atom_site_fract_x
 _atom_site_fract_y
 _atom_site_fract_z
 _atom_site_occupancy
  Sn  Sn0  1  0.82686800  0.82686800  0.82686800  1
  Sn  Sn1  1  0.17313200  0.17313200  0.17313200  1
  Sn  Sn2  1  0.57173900  0.57173900  0.57173900  1
  Sn  Sn3  1  0.42826100  0.42826100  0.42826100  1
  Sn  Sn4  1  0.00000000  0.00000000  0.00000000  1
  P  P0  1  0.82070200  0.06106200  0.38635000  1
  P  P1  1  0.61365000  0.17929800  0.93893800  1
  P  P2  1  0.93893800  0.61365000  0.17929800  1
  P  P3  1  0.06106200  0.38635000  0.82070200  1
  P  P4  1  0.38635000  0.82070200  0.06106200  1
  P  P5  1  0.17929800  0.93893800  0.61365000  1
  O  O0  1  0.95532000  0.27386800  0.90014000  1
  O  O1  1  0.89681100  0.21463700  0.27371900  1
  O  O2  1  0.72628100  0.10318900  0.78536300  1
  O  O3  1  0.72613200  0.09986000  0.04468000  1
  O  O4  1  0.59864200  0.16722000  0.44186300  1
  O  O5  1  0.91224700  0.56276100  0.86407200  1
  O  O6  1  0.43723900  0.13592800  0.08775300  1
  O  O7  1  0.83278000  0.55813700  0.40135800  1
  O  O8  1  0.55813700  0.40135800  0.83278000  1
  O  O9  1  0.09986000  0.04468000  0.72613200  1
  O  O10  1  0.78536300  0.72628100  0.10318900  1
  O  O11  1  0.13592800  0.08775300  0.43723900  1
  O  O12  1  0.50000000  0.50000000  0.50000000  1
  O  O13  1  0.86407200  0.91224700  0.56276100  1
  O  O14  1  0.21463700  0.27371900  0.89681100  1
  O  O15  1  0.90014000  0.95532000  0.27386800  1
  O  O16  1  0.44186300  0.59864200  0.16722000  1
  O  O17  1  0.16722000  0.44186300  0.59864200  1
  O  O18  1  0.56276100  0.86407200  0.91224700  1
  O  O19  1  0.08775300  0.43723900  0.13592800  1
  O  O20  1  0.40135800  0.83278000  0.55813700  1
  O  O21  1  0.27386800  0.90014000  0.95532000  1
  O  O22  1  0.27371900  0.89681100  0.21463700  1
  O  O23  1  0.10318900  0.78536300  0.72628100  1
  O  O24  1  0.04468000  0.72613200  0.09986000  1
loop_
_geom_bond_atom_site_label_1
_geom_bond_atom_site_label_2
_geom_bond_distance
_geom_bond_site_symmetry_2
O0 P3 1.534832 1_655
O0 Sn4 2.056799 1_656
O1 P0 1.554594 1_555
O1 Sn1 2.087979 1_655
O2 P1 1.554594 1_555
O2 Sn0 2.087979 1_545
O3 P1 1.534832 1_554
O3 Sn4 2.056799 1_655
O4 P0 1.590198 1_555
O4 Sn3 1.972559 1_555
O5 P3 1.521360 1_655
O5 Sn0 2.035075 1_555
O6 P1 1.521360 1_554
O6 Sn1 2.035075 1_555
O7 P2 1.590198 1_555
O7 Sn2 1.972559 1_555
O8 P1 1.590198 1_555
O8 Sn2 1.972559 1_555
O9 P5 1.534832 1_545
O9 Sn4 2.056799 1_556
O10 P2 1.554594 1_555
O10 Sn0 2.087979 1_554
O11 P5 1.521360 1_545
O11 Sn1 2.035075 1_555
O12 Sn2 1.901225 1_555
O12 Sn3 1.901225 1_555
O13 P0 1.521360 1_565
O13 Sn0 2.035075 1_555
O14 P3 1.554594 1_555
O14 Sn1 2.087979 1_556
O15 P0 1.534832 1_565
O15 Sn4 2.056799 1_665
O16 P4 1.590198 1_555
O16 Sn3 1.972559 1_555
O17 P3 1.590198 1_555
O17 Sn3 1.972559 1_555
O18 P4 1.521360 1_556
O18 Sn0 2.035075 1_555
O19 P2 1.521360 1_455
O19 Sn1 2.035075 1_555
O20 P5 1.590198 1_555
O20 Sn2 1.972559 1_555
O21 P4 1.534832 1_556
O21 Sn4 2.056799 1_566
O22 P4 1.554594 1_555
O22 Sn1 2.087979 1_565
O23 P5 1.554594 1_555
O23 Sn0 2.087979 1_455
O24 P2 1.534832 1_455
O24 Sn4 2.056799 1_565
