# generated using pymatgen
data_Li3Mn4(BO3)4
_symmetry_space_group_name_H-M   'P 1'
_cell_length_a   5.27113100
_cell_length_b   9.14699248
_cell_length_c   11.45714743
_cell_angle_alpha   111.37359649
_cell_angle_beta   102.43228921
_cell_angle_gamma   89.95776883
_symmetry_Int_Tables_number   1
_chemical_formula_structural   Li3Mn4(BO3)4
_chemical_formula_sum   'Li6 Mn8 B8 O24'
_cell_volume   500.51336943
_cell_formula_units_Z   2
loop_
 _symmetry_equiv_pos_site_id
 _symmetry_equiv_pos_as_xyz
  1  'x, y, z'
loop_
 _atom_site_type_symbol
 _atom_site_label
 _atom_site_symmetry_multiplicity
 _atom_site_fract_x
 _atom_site_fract_y
 _atom_site_fract_z
 _atom_site_occupancy
  Li  Li0  1  0.01000100  0.99099800  0.83884300  1
  Li  Li1  1  0.20996800  0.21733000  0.58788600  1
  Li  Li2  1  0.23574600  0.25888800  0.34147700  1
  Li  Li3  1  0.51538300  0.49015800  0.83278100  1
  Li  Li4  1  0.46206100  0.46751500  0.10463100  1
  Li  Li5  1  0.72842400  0.74845600  0.33203400  1
  Mn  Mn0  1  0.02109200  0.34308200  0.87159300  1
  Mn  Mn1  1  0.23152900  0.57396600  0.61630800  1
  Mn  Mn2  1  0.26164700  0.93457400  0.36566900  1
  Mn  Mn3  1  0.51985200  0.84711500  0.86874700  1
  Mn  Mn4  1  0.46590100  0.13189500  0.12073600  1
  Mn  Mn5  1  0.73711200  0.04915600  0.61868500  1
  Mn  Mn6  1  0.75725300  0.42629800  0.36920200  1
  Mn  Mn7  1  0.96979600  0.65825000  0.11106800  1
  B  B0  1  0.01341000  0.68201000  0.86517400  1
  B  B1  1  0.25342100  0.90739900  0.63897400  1
  B  B2  1  0.25539200  0.60121900  0.36371800  1
  B  B3  1  0.52961600  0.18676800  0.88035400  1
  B  B4  1  0.46055300  0.80522400  0.11385500  1
  B  B5  1  0.72997700  0.38250500  0.61586900  1
  B  B6  1  0.77760100  0.10397100  0.37878700  1
  B  B7  1  0.98040000  0.32971600  0.13830400  1
  O  O0  1  0.04175300  0.13018100  0.39653400  1
  O  O1  1  0.25223900  0.65365200  0.82660000  1
  O  O2  1  0.09634100  0.70791600  0.33073800  1
  O  O3  1  0.40322300  0.07505500  0.91206000  1
  O  O4  1  0.15042000  0.49552900  0.40876600  1
  O  O5  1  0.42423300  0.32863700  0.89474700  1
  O  O6  1  0.12478400  0.21604500  0.15957600  1
  O  O7  1  0.34172800  0.00232100  0.58198100  1
  O  O8  1  0.06397200  0.42709600  0.08255200  1
  O  O9  1  0.42418600  0.80670700  0.68129500  1
  O  O10  1  0.24042200  0.84803200  0.16018300  1
  O  O11  1  0.48085900  0.39653900  0.63538100  1
  O  O12  1  0.51067500  0.59483600  0.35473700  1
  O  O13  1  0.75814300  0.15152900  0.83864600  1
  O  O14  1  0.60577500  0.20057300  0.33462100  1
  O  O15  1  0.90082600  0.57107000  0.90027000  1
  O  O16  1  0.67337000  0.98318300  0.40602200  1
  O  O17  1  0.89575400  0.81556700  0.86960000  1
  O  O18  1  0.59197700  0.68203800  0.13058200  1
  O  O19  1  0.83470900  0.47065900  0.55620800  1
  O  O20  1  0.55400200  0.89730600  0.05408800  1
  O  O21  1  0.89374800  0.28178600  0.65716100  1
  O  O22  1  0.73556000  0.35173200  0.17688700  1
  O  O23  1  0.00782000  0.90817100  0.65541700  1
loop_
_geom_bond_atom_site_label_1
_geom_bond_atom_site_label_2
_geom_bond_distance
_geom_bond_site_symmetry_2
Li0 O17 1.888584 1_455
Li0 O23 1.954398 1_555
Li0 O13 1.979102 1_465
Li0 O3 2.091559 1_565
Li1 O21 1.995744 1_455
Li1 O11 2.010171 1_555
Li1 O0 2.029348 1_555
Li1 O7 2.067856 1_555
Li2 O0 1.910584 1_555
Li2 O6 1.928522 1_555
Li2 O14 2.031976 1_555
Li2 O4 2.100822 1_555
Li3 O5 1.957075 1_555
Li3 O15 2.045041 1_555
Li3 O1 2.048723 1_555
Li3 O11 2.071906 1_555
Li4 O18 1.974033 1_555
Li4 O22 2.002058 1_555
Li4 O8 2.075643 1_555
Li4 O5 2.236801 1_554
Li5 O12 1.938267 1_555
Li5 O2 1.976382 1_655
Li5 O16 2.047191 1_555
Li5 O18 2.115978 1_555
Mn0 O5 2.094256 1_555
Mn0 O13 2.104705 1_455
Mn0 O15 2.108803 1_455
Mn0 O8 2.212388 1_556
Mn0 O21 2.255475 1_455
Mn1 O11 2.130865 1_555
Mn1 O9 2.154077 1_555
Mn1 O19 2.156555 1_455
Mn1 O4 2.161223 1_555
Mn1 O1 2.225976 1_555
Mn2 O0 2.093342 1_565
Mn2 O2 2.113165 1_555
Mn2 O16 2.130956 1_555
Mn2 O10 2.170279 1_555
Mn2 O7 2.266006 1_565
Mn3 O20 1.969083 1_556
Mn3 O9 1.989656 1_555
Mn3 O17 2.000576 1_555
Mn3 O3 2.084848 1_565
Mn3 O1 2.107622 1_555
Mn4 O6 2.028883 1_555
Mn4 O20 2.088070 1_545
Mn4 O3 2.202192 1_554
Mn4 O14 2.245869 1_555
Mn4 O22 2.268334 1_555
Mn5 O23 2.002649 1_645
Mn5 O7 2.048553 1_555
Mn5 O21 2.136818 1_555
Mn5 O16 2.233772 1_545
Mn5 O13 2.323779 1_555
Mn6 O19 1.977825 1_555
Mn6 O22 2.032091 1_555
Mn6 O12 2.045460 1_555
Mn6 O4 2.071157 1_655
Mn6 O14 2.080259 1_555
Mn7 O18 2.054058 1_555
Mn7 O10 2.076305 1_655
Mn7 O8 2.094869 1_655
Mn7 O15 2.195352 1_554
Mn7 O2 2.330188 1_655
B0 O17 1.359000 1_455
B0 O15 1.394512 1_455
B0 O1 1.415254 1_555
B1 O23 1.347422 1_555
B1 O7 1.393420 1_565
B1 O9 1.424779 1_555
B2 O12 1.371072 1_555
B2 O2 1.389006 1_555
B2 O4 1.412297 1_555
B3 O5 1.379174 1_555
B3 O13 1.385026 1_555
B3 O3 1.412710 1_555
B4 O18 1.373082 1_555
B4 O10 1.376397 1_555
B4 O20 1.409679 1_555
B5 O11 1.376955 1_555
B5 O21 1.399445 1_555
B5 O19 1.409635 1_555
B6 O0 1.371350 1_655
B6 O16 1.394958 1_545
B6 O14 1.408741 1_555
B7 O6 1.350322 1_655
B7 O8 1.389938 1_655
B7 O22 1.442894 1_555
