# generated using pymatgen
data_Ba3LaCl9
_symmetry_space_group_name_H-M   'P 1'
_cell_length_a   7.34857200
_cell_length_b   12.52136500
_cell_length_c   18.51973300
_cell_angle_alpha   90.00000000
_cell_angle_beta   90.00000000
_cell_angle_gamma   90.00000000
_symmetry_Int_Tables_number   1
_chemical_formula_structural   Ba3LaCl9
_chemical_formula_sum   'Ba12 La4 Cl36'
_cell_volume   1704.07753172
_cell_formula_units_Z   4
loop_
 _symmetry_equiv_pos_site_id
 _symmetry_equiv_pos_as_xyz
  1  'x, y, z'
loop_
 _atom_site_type_symbol
 _atom_site_label
 _atom_site_symmetry_multiplicity
 _atom_site_fract_x
 _atom_site_fract_y
 _atom_site_fract_z
 _atom_site_occupancy
  Ba  Ba0  1  0.75000000  0.04979300  0.90590600  1
  Ba  Ba1  1  0.75000000  0.18836000  0.47223700  1
  Ba  Ba2  1  0.25000000  0.23328500  0.67477700  1
  Ba  Ba3  1  0.75000000  0.26671500  0.17477700  1
  Ba  Ba4  1  0.25000000  0.31164000  0.97223700  1
  Ba  Ba5  1  0.25000000  0.45020700  0.40590600  1
  Ba  Ba6  1  0.75000000  0.54979300  0.59409400  1
  Ba  Ba7  1  0.75000000  0.68836000  0.02776300  1
  Ba  Ba8  1  0.25000000  0.73328500  0.82522300  1
  Ba  Ba9  1  0.75000000  0.76671500  0.32522300  1
  Ba  Ba10  1  0.25000000  0.81164000  0.52776300  1
  Ba  Ba11  1  0.25000000  0.95020700  0.09409400  1
  La  La0  1  0.25000000  0.03324500  0.32371900  1
  La  La1  1  0.75000000  0.46675500  0.82371900  1
  La  La2  1  0.25000000  0.53324500  0.17628100  1
  La  La3  1  0.75000000  0.96675500  0.67628100  1
  Cl  Cl0  1  0.48818800  0.06308600  0.58531400  1
  Cl  Cl1  1  0.01181200  0.06308600  0.58531400  1
  Cl  Cl2  1  0.51127900  0.07904800  0.22607800  1
  Cl  Cl3  1  0.98872100  0.07904800  0.22607800  1
  Cl  Cl4  1  0.75000000  0.16062200  0.74729900  1
  Cl  Cl5  1  0.25000000  0.17664900  0.83957600  1
  Cl  Cl6  1  0.49922000  0.13865000  0.03943100  1
  Cl  Cl7  1  0.00078000  0.13865000  0.03943100  1
  Cl  Cl8  1  0.25000000  0.19718900  0.42255300  1
  Cl  Cl9  1  0.75000000  0.30281100  0.92255300  1
  Cl  Cl10  1  0.99922000  0.36135000  0.53943100  1
  Cl  Cl11  1  0.50078000  0.36135000  0.53943100  1
  Cl  Cl12  1  0.75000000  0.32335100  0.33957600  1
  Cl  Cl13  1  0.25000000  0.33937800  0.24729900  1
  Cl  Cl14  1  0.01127900  0.42095200  0.72607800  1
  Cl  Cl15  1  0.48872100  0.42095200  0.72607800  1
  Cl  Cl16  1  0.98818800  0.43691400  0.08531400  1
  Cl  Cl17  1  0.51181200  0.43691400  0.08531400  1
  Cl  Cl18  1  0.48818800  0.56308600  0.91468600  1
  Cl  Cl19  1  0.01181200  0.56308600  0.91468600  1
  Cl  Cl20  1  0.98872100  0.57904800  0.27392200  1
  Cl  Cl21  1  0.51127900  0.57904800  0.27392200  1
  Cl  Cl22  1  0.75000000  0.66062200  0.75270100  1
  Cl  Cl23  1  0.25000000  0.67664900  0.66042400  1
  Cl  Cl24  1  0.49922000  0.63865000  0.46056900  1
  Cl  Cl25  1  0.00078000  0.63865000  0.46056900  1
  Cl  Cl26  1  0.25000000  0.69718900  0.07744700  1
  Cl  Cl27  1  0.75000000  0.80281100  0.57744700  1
  Cl  Cl28  1  0.99922000  0.86135000  0.96056900  1
  Cl  Cl29  1  0.50078000  0.86135000  0.96056900  1
  Cl  Cl30  1  0.75000000  0.82335100  0.16042400  1
  Cl  Cl31  1  0.25000000  0.83937800  0.25270100  1
  Cl  Cl32  1  0.48872100  0.92095200  0.77392200  1
  Cl  Cl33  1  0.01127900  0.92095200  0.77392200  1
  Cl  Cl34  1  0.98818800  0.93691400  0.41468600  1
  Cl  Cl35  1  0.51181200  0.93691400  0.41468600  1
loop_
_geom_bond_atom_site_label_1
_geom_bond_atom_site_label_2
_geom_bond_distance
_geom_bond_site_symmetry_2
Ba0 Cl29 3.153799 1_545
Ba0 Cl28 3.153799 1_545
Ba0 Cl9 3.183096 1_555
Ba0 Cl4 3.248673 1_555
Ba0 Cl6 3.278577 1_556
Ba0 Cl7 3.278577 1_656
Ba0 Cl33 3.501967 1_645
Ba0 Cl32 3.501967 1_545
Ba1 Cl12 2.982132 1_555
Ba1 Cl10 3.097499 1_555
Ba1 Cl11 3.097499 1_555
Ba1 Cl1 3.247701 1_655
Ba1 Cl0 3.247701 1_555
Ba1 Cl34 3.756648 1_545
Ba1 Cl35 3.756648 1_545
Ba1 Cl8 3.789360 1_555
Ba1 Cl8 3.789360 1_655
Ba2 Cl15 3.082508 1_555
Ba2 Cl14 3.082508 1_555
Ba2 Cl5 3.133339 1_555
Ba2 Cl0 3.217215 1_555
Ba2 Cl1 3.217215 1_555
Ba2 Cl10 3.500065 1_455
Ba2 Cl11 3.500065 1_555
Ba3 Cl3 3.082508 1_555
Ba3 Cl2 3.082508 1_555
Ba3 Cl12 3.133339 1_555
Ba3 Cl16 3.217215 1_555
Ba3 Cl17 3.217215 1_555
Ba3 Cl6 3.500065 1_555
Ba3 Cl7 3.500065 1_655
Ba4 Cl5 2.982132 1_555
Ba4 Cl7 3.097499 1_556
Ba4 Cl6 3.097499 1_556
Ba4 Cl17 3.247701 1_556
Ba4 Cl16 3.247701 1_456
Ba4 Cl18 3.756648 1_555
Ba4 Cl19 3.756648 1_555
Ba4 Cl9 3.789360 1_455
Ba4 Cl9 3.789360 1_555
Ba5 Cl25 3.153799 1_555
Ba5 Cl24 3.153799 1_555
Ba5 Cl8 3.183096 1_555
Ba5 Cl13 3.248673 1_555
Ba5 Cl10 3.278577 1_455
Ba5 Cl11 3.278577 1_555
Ba5 Cl21 3.501967 1_555
Ba5 Cl20 3.501967 1_455
Ba6 Cl10 3.153799 1_555
Ba6 Cl11 3.153799 1_555
Ba6 Cl27 3.183096 1_555
Ba6 Cl22 3.248673 1_555
Ba6 Cl24 3.278577 1_555
Ba6 Cl25 3.278577 1_655
Ba6 Cl14 3.501967 1_655
Ba6 Cl15 3.501967 1_555
Ba7 Cl30 2.982132 1_555
Ba7 Cl29 3.097499 1_554
Ba7 Cl28 3.097499 1_554
Ba7 Cl19 3.247701 1_654
Ba7 Cl18 3.247701 1_554
Ba7 Cl16 3.756648 1_555
Ba7 Cl17 3.756648 1_555
Ba7 Cl26 3.789360 1_555
Ba7 Cl26 3.789360 1_655
Ba8 Cl32 3.082508 1_555
Ba8 Cl33 3.082508 1_555
Ba8 Cl23 3.133339 1_555
Ba8 Cl18 3.217215 1_555
Ba8 Cl19 3.217215 1_555
Ba8 Cl28 3.500065 1_455
Ba8 Cl29 3.500065 1_555
Ba9 Cl20 3.082508 1_555
Ba9 Cl21 3.082508 1_555
Ba9 Cl30 3.133339 1_555
Ba9 Cl34 3.217215 1_555
Ba9 Cl35 3.217215 1_555
Ba9 Cl25 3.500065 1_655
Ba9 Cl24 3.500065 1_555
Ba10 Cl23 2.982132 1_555
Ba10 Cl24 3.097499 1_555
Ba10 Cl25 3.097499 1_555
Ba10 Cl35 3.247701 1_555
Ba10 Cl34 3.247701 1_455
Ba10 Cl0 3.756648 1_565
Ba10 Cl1 3.756648 1_565
Ba10 Cl27 3.789360 1_455
Ba10 Cl27 3.789360 1_555
Ba11 Cl6 3.153799 1_565
Ba11 Cl7 3.153799 1_565
Ba11 Cl26 3.183096 1_555
Ba11 Cl31 3.248673 1_555
Ba11 Cl29 3.278577 1_554
Ba11 Cl28 3.278577 1_454
Ba11 Cl2 3.501967 1_565
Ba11 Cl3 3.501967 1_465
Cl0 La3 2.827478 1_545
Cl1 La3 2.827478 1_445
Cl2 La0 2.699134 1_555
Cl3 La0 2.699134 1_655
Cl4 La3 2.760887 1_545
Cl8 La0 2.750325 1_555
Cl9 La1 2.750325 1_555
Cl13 La2 2.760887 1_555
Cl14 La1 2.699134 1_455
Cl15 La1 2.699134 1_555
Cl16 La2 2.827478 1_655
Cl17 La2 2.827478 1_555
Cl18 La1 2.827478 1_555
Cl19 La1 2.827478 1_455
Cl20 La2 2.699134 1_655
Cl21 La2 2.699134 1_555
Cl22 La1 2.760887 1_555
Cl26 La2 2.750325 1_555
Cl27 La3 2.750325 1_555
Cl31 La0 2.760887 1_565
Cl32 La3 2.699134 1_555
Cl33 La3 2.699134 1_455
Cl34 La0 2.827478 1_665
Cl35 La0 2.827478 1_565
