# generated using pymatgen
data_LiSn4(PO4)3
_symmetry_space_group_name_H-M   'P 1'
_cell_length_a   7.31619900
_cell_length_b   10.69417100
_cell_length_c   15.90011600
_cell_angle_alpha   90.00000000
_cell_angle_beta   90.00000000
_cell_angle_gamma   90.00000000
_symmetry_Int_Tables_number   1
_chemical_formula_structural   LiSn4(PO4)3
_chemical_formula_sum   'Li4 Sn16 P12 O48'
_cell_volume   1244.03593842
_cell_formula_units_Z   4
loop_
 _symmetry_equiv_pos_site_id
 _symmetry_equiv_pos_as_xyz
  1  'x, y, z'
loop_
 _atom_site_type_symbol
 _atom_site_label
 _atom_site_symmetry_multiplicity
 _atom_site_fract_x
 _atom_site_fract_y
 _atom_site_fract_z
 _atom_site_occupancy
  Li  Li0  1  0.01632800  0.73547200  0.25000000  1
  Li  Li1  1  0.48367200  0.23547200  0.75000000  1
  Li  Li2  1  0.51632800  0.76452800  0.25000000  1
  Li  Li3  1  0.98367200  0.26452800  0.75000000  1
  Sn  Sn0  1  0.13800100  0.43189300  0.59954800  1
  Sn  Sn1  1  0.13800100  0.43189300  0.90045200  1
  Sn  Sn2  1  0.16113800  0.84557900  0.60546000  1
  Sn  Sn3  1  0.16113800  0.84557900  0.89454000  1
  Sn  Sn4  1  0.33886200  0.34557900  0.10546000  1
  Sn  Sn5  1  0.33886200  0.34557900  0.39454000  1
  Sn  Sn6  1  0.36199900  0.93189300  0.09954800  1
  Sn  Sn7  1  0.36199900  0.93189300  0.40045200  1
  Sn  Sn8  1  0.63800100  0.06810700  0.59954800  1
  Sn  Sn9  1  0.63800100  0.06810700  0.90045200  1
  Sn  Sn10  1  0.66113800  0.65442100  0.60546000  1
  Sn  Sn11  1  0.66113800  0.65442100  0.89454000  1
  Sn  Sn12  1  0.83886200  0.15442100  0.10546000  1
  Sn  Sn13  1  0.83886200  0.15442100  0.39454000  1
  Sn  Sn14  1  0.86199900  0.56810700  0.40045200  1
  Sn  Sn15  1  0.86199900  0.56810700  0.09954800  1
  P  P0  1  0.02647500  0.40258100  0.25000000  1
  P  P1  1  0.14517700  0.13720900  0.58870400  1
  P  P2  1  0.14517700  0.13720900  0.91129600  1
  P  P3  1  0.35482300  0.63720900  0.08870400  1
  P  P4  1  0.35482300  0.63720900  0.41129600  1
  P  P5  1  0.47352500  0.90258100  0.75000000  1
  P  P6  1  0.52647500  0.09741900  0.25000000  1
  P  P7  1  0.64517700  0.36279100  0.58870400  1
  P  P8  1  0.64517700  0.36279100  0.91129600  1
  P  P9  1  0.85482300  0.86279100  0.41129600  1
  P  P10  1  0.85482300  0.86279100  0.08870400  1
  P  P11  1  0.97352500  0.59741900  0.75000000  1
  O  O0  1  0.99482600  0.96408600  0.11752000  1
  O  O1  1  0.99482600  0.96408600  0.38248000  1
  O  O2  1  0.04065100  0.45650800  0.75000000  1
  O  O3  1  0.04781700  0.65688700  0.66756500  1
  O  O4  1  0.04781700  0.65688700  0.83243500  1
  O  O5  1  0.08763300  0.20543200  0.99296900  1
  O  O6  1  0.08763300  0.20543200  0.50703100  1
  O  O7  1  0.16826600  0.56766500  0.07837100  1
  O  O8  1  0.16826600  0.56766500  0.42162900  1
  O  O9  1  0.16186200  0.24032800  0.65928000  1
  O  O10  1  0.16186200  0.24032800  0.84072000  1
  O  O11  1  0.23911300  0.39227200  0.25000000  1
  O  O12  1  0.26088700  0.89227200  0.75000000  1
  O  O13  1  0.33813800  0.74032800  0.34072000  1
  O  O14  1  0.33813800  0.74032800  0.15928000  1
  O  O15  1  0.33173400  0.06766500  0.57837100  1
  O  O16  1  0.33173400  0.06766500  0.92162900  1
  O  O17  1  0.41236700  0.70543200  0.49296900  1
  O  O18  1  0.41236700  0.70543200  0.00703100  1
  O  O19  1  0.45218300  0.15688700  0.16756500  1
  O  O20  1  0.45218300  0.15688700  0.33243500  1
  O  O21  1  0.45934900  0.95650800  0.25000000  1
  O  O22  1  0.50517400  0.46408600  0.61752000  1
  O  O23  1  0.50517400  0.46408600  0.88248000  1
  O  O24  1  0.49482600  0.53591400  0.11752000  1
  O  O25  1  0.49482600  0.53591400  0.38248000  1
  O  O26  1  0.54065100  0.04349200  0.75000000  1
  O  O27  1  0.54781700  0.84311300  0.66756500  1
  O  O28  1  0.54781700  0.84311300  0.83243500  1
  O  O29  1  0.58763300  0.29456800  0.99296900  1
  O  O30  1  0.58763300  0.29456800  0.50703100  1
  O  O31  1  0.66826600  0.93233500  0.07837100  1
  O  O32  1  0.66826600  0.93233500  0.42162900  1
  O  O33  1  0.66186200  0.25967200  0.65928000  1
  O  O34  1  0.66186200  0.25967200  0.84072000  1
  O  O35  1  0.73911300  0.10772800  0.25000000  1
  O  O36  1  0.76088700  0.60772800  0.75000000  1
  O  O37  1  0.83813800  0.75967200  0.15928000  1
  O  O38  1  0.83813800  0.75967200  0.34072000  1
  O  O39  1  0.83173400  0.43233500  0.57837100  1
  O  O40  1  0.83173400  0.43233500  0.92162900  1
  O  O41  1  0.91236700  0.79456800  0.49296900  1
  O  O42  1  0.91236700  0.79456800  0.00703100  1
  O  O43  1  0.95218300  0.34311300  0.16756500  1
  O  O44  1  0.95218300  0.34311300  0.33243500  1
  O  O45  1  0.95934900  0.54349200  0.25000000  1
  O  O46  1  0.00517400  0.03591400  0.61752000  1
  O  O47  1  0.00517400  0.03591400  0.88248000  1
loop_
_geom_bond_atom_site_label_1
_geom_bond_atom_site_label_2
_geom_bond_distance
_geom_bond_site_symmetry_2
Li0 O37 1.961435 1_455
Li0 O38 1.961435 1_455
Li0 O45 2.094962 1_455
Li1 O33 1.961435 1_555
Li1 O34 1.961435 1_555
Li1 O26 2.094962 1_555
Li2 O14 1.961435 1_555
Li2 O13 1.961435 1_555
Li2 O21 2.094962 1_555
Li3 O9 1.961435 1_655
Li3 O10 1.961435 1_655
Li3 O2 2.094962 1_655
O0 P10 1.559667 1_555
O0 Sn12 2.341358 1_565
O0 Sn6 2.723316 1_655
O1 P9 1.559667 1_555
O1 Sn13 2.341358 1_565
O1 Sn7 2.723316 1_655
O2 P11 1.584933 1_455
O2 Sn1 2.509823 1_555
O2 Sn0 2.509823 1_555
O3 P11 1.554953 1_455
O3 Sn2 2.394665 1_555
O3 Sn0 2.719259 1_555
O4 P11 1.554953 1_455
O4 Sn3 2.394665 1_555
O4 Sn1 2.719259 1_555
O5 P2 1.547880 1_555
O5 Sn12 2.609476 1_456
O6 P1 1.547880 1_555
O6 Sn13 2.609476 1_455
O7 P3 1.563018 1_555
O7 Sn15 2.265874 1_455
O7 Sn4 2.717362 1_555
O8 P4 1.563018 1_555
O8 Sn14 2.265874 1_455
O8 Sn5 2.717362 1_555
O9 P1 1.578058 1_555
O9 Sn0 2.264812 1_555
O10 P2 1.578058 1_555
O10 Sn1 2.264812 1_555
O11 P0 1.559603 1_555
O11 Sn4 2.462451 1_555
O11 Sn5 2.462451 1_555
O12 P5 1.559603 1_555
O12 Sn2 2.462451 1_555
O12 Sn3 2.462451 1_555
O13 P4 1.578058 1_555
O13 Sn7 2.264812 1_555
O14 P3 1.578058 1_555
O14 Sn6 2.264812 1_555
O15 P1 1.563018 1_555
O15 Sn8 2.265874 1_555
O15 Sn2 2.717362 1_545
O16 P2 1.563018 1_555
O16 Sn9 2.265874 1_555
O16 Sn3 2.717362 1_545
O17 P4 1.547880 1_555
O17 Sn10 2.609476 1_555
O18 P3 1.547880 1_555
O18 Sn11 2.609476 1_554
O19 P6 1.554953 1_555
O19 Sn4 2.394665 1_555
O19 Sn6 2.719259 1_545
O20 P6 1.554953 1_555
O20 Sn5 2.394665 1_555
O20 Sn7 2.719259 1_545
O21 P6 1.584933 1_565
O21 Sn7 2.509823 1_555
O21 Sn6 2.509823 1_555
O22 P7 1.559667 1_555
O22 Sn10 2.341358 1_555
O22 Sn0 2.723316 1_555
O23 P8 1.559667 1_555
O23 Sn11 2.341358 1_555
O23 Sn1 2.723316 1_555
O24 P3 1.559667 1_555
O24 Sn4 2.341358 1_555
O24 Sn15 2.723316 1_555
O25 P4 1.559667 1_555
O25 Sn5 2.341358 1_555
O25 Sn14 2.723316 1_555
O26 P5 1.584933 1_545
O26 Sn9 2.509823 1_555
O26 Sn8 2.509823 1_555
O27 P5 1.554953 1_555
O27 Sn10 2.394665 1_555
O27 Sn8 2.719259 1_565
O28 P5 1.554953 1_555
O28 Sn11 2.394665 1_555
O28 Sn9 2.719259 1_565
O29 P8 1.547880 1_555
O29 Sn4 2.609476 1_556
O30 P7 1.547880 1_555
O30 Sn5 2.609476 1_555
O31 P10 1.563018 1_555
O31 Sn6 2.265874 1_555
O31 Sn12 2.717362 1_565
O32 P9 1.563018 1_555
O32 Sn7 2.265874 1_555
O32 Sn13 2.717362 1_565
O33 P7 1.578058 1_555
O33 Sn8 2.264812 1_555
O34 P8 1.578058 1_555
O34 Sn9 2.264812 1_555
O35 P6 1.559603 1_555
O35 Sn12 2.462451 1_555
O35 Sn13 2.462451 1_555
O36 P11 1.559603 1_555
O36 Sn10 2.462451 1_555
O36 Sn11 2.462451 1_555
O37 P10 1.578058 1_555
O37 Sn15 2.264812 1_555
O38 P9 1.578058 1_555
O38 Sn14 2.264812 1_555
O39 P7 1.563018 1_555
O39 Sn0 2.265874 1_655
O39 Sn10 2.717362 1_555
O40 P8 1.563018 1_555
O40 Sn1 2.265874 1_655
O40 Sn11 2.717362 1_555
O41 P9 1.547880 1_555
O41 Sn2 2.609476 1_655
O42 P10 1.547880 1_555
O42 Sn3 2.609476 1_654
O43 P0 1.554953 1_655
O43 Sn12 2.394665 1_555
O43 Sn15 2.719259 1_555
O44 P0 1.554953 1_655
O44 Sn13 2.394665 1_555
O44 Sn14 2.719259 1_555
O45 P0 1.584933 1_655
O45 Sn14 2.509823 1_555
O45 Sn15 2.509823 1_555
O46 P1 1.559667 1_555
O46 Sn2 2.341358 1_545
O46 Sn8 2.723316 1_455
O47 P2 1.559667 1_555
O47 Sn3 2.341358 1_545
O47 Sn9 2.723316 1_455
