# generated using pymatgen
data_Li2Mn3F8
_symmetry_space_group_name_H-M   'P 1'
_cell_length_a   9.39371449
_cell_length_b   9.39371449
_cell_length_c   9.39371449
_cell_angle_alpha   107.38977925
_cell_angle_beta   107.38977925
_cell_angle_gamma   113.71946755
_symmetry_Int_Tables_number   1
_chemical_formula_structural   Li2Mn3F8
_chemical_formula_sum   'Li8 Mn12 F32'
_cell_volume   635.45066142
_cell_formula_units_Z   4
loop_
 _symmetry_equiv_pos_site_id
 _symmetry_equiv_pos_as_xyz
  1  'x, y, z'
loop_
 _atom_site_type_symbol
 _atom_site_label
 _atom_site_symmetry_multiplicity
 _atom_site_fract_x
 _atom_site_fract_y
 _atom_site_fract_z
 _atom_site_occupancy
  Li  Li0  1  0.33907500  0.43953100  0.28746500  1
  Li  Li1  1  0.09793500  0.69839000  0.78746500  1
  Li  Li2  1  0.94839000  0.66092500  0.10045500  1
  Li  Li3  1  0.68953100  0.90206500  0.60045500  1
  Li  Li4  1  0.56046900  0.84793500  0.89954500  1
  Li  Li5  1  0.30161000  0.08907500  0.39954500  1
  Li  Li6  1  0.91092500  0.31046900  0.21253500  1
  Li  Li7  1  0.15206500  0.05161000  0.71253500  1
  Mn  Mn0  1  0.78243900  0.61119900  0.43685400  1
  Mn  Mn1  1  0.25000000  0.75000000  0.50000000  1
  Mn  Mn2  1  0.75000000  0.25000000  0.50000000  1
  Mn  Mn3  1  0.65441500  0.21756100  0.82876100  1
  Mn  Mn4  1  0.86119900  0.92434600  0.32876100  1
  Mn  Mn5  1  0.17434600  0.34558500  0.56314600  1
  Mn  Mn6  1  0.07565400  0.40441500  0.93685400  1
  Mn  Mn7  1  0.59558500  0.53243900  0.67123900  1
  Mn  Mn8  1  0.38880100  0.82565400  0.17123900  1
  Mn  Mn9  1  0.00000000  0.00000000  0.00000000  1
  Mn  Mn10  1  0.50000000  0.50000000  0.00000000  1
  Mn  Mn11  1  0.46756100  0.13880100  0.06314600  1
  F  F0  1  0.81282000  0.66257800  0.24169500  1
  F  F1  1  0.24370100  0.83596700  0.32683400  1
  F  F2  1  0.74086700  0.83313300  0.82683400  1
  F  F3  1  0.76108400  0.36031700  0.33016100  1
  F  F4  1  0.82112400  0.56282000  0.65024200  1
  F  F5  1  0.08313300  0.75629900  0.59226600  1
  F  F6  1  0.16403300  0.49086700  0.40773400  1
  F  F7  1  0.68092400  0.51108400  0.90076700  1
  F  F8  1  0.63968300  0.96984300  0.40076700  1
  F  F9  1  0.91257800  0.17088200  0.34975800  1
  F  F10  1  0.03015700  0.43092400  0.66983900  1
  F  F11  1  0.10183500  0.65904600  0.98336300  1
  F  F12  1  0.57431700  0.63152800  0.48336300  1
  F  F13  1  0.82911800  0.17887600  0.74169500  1
  F  F14  1  0.34095400  0.32431700  0.44278900  1
  F  F15  1  0.36847200  0.85183500  0.94278900  1
  F  F16  1  0.88152800  0.89816500  0.55721100  1
  F  F17  1  0.90904600  0.42568300  0.05721100  1
  F  F18  1  0.42088200  0.57112400  0.75830500  1
  F  F19  1  0.14816500  0.09095400  0.51663700  1
  F  F20  1  0.67568300  0.11847200  0.01663700  1
  F  F21  1  0.21984300  0.31907600  0.83016100  1
  F  F22  1  0.33742200  0.57911800  0.15024200  1
  F  F23  1  0.61031700  0.78015700  0.09923300  1
  F  F24  1  0.56907600  0.23891600  0.59923300  1
  F  F25  1  0.08596700  0.25913300  0.09226600  1
  F  F26  1  0.16686700  0.99370100  0.90773400  1
  F  F27  1  0.42887600  0.18718000  0.84975800  1
  F  F28  1  0.48891600  0.38968300  0.16983900  1
  F  F29  1  0.00629900  0.91403300  0.17316600  1
  F  F30  1  0.50913300  0.91686700  0.67316600  1
  F  F31  1  0.43718000  0.08742200  0.25830500  1
loop_
_geom_bond_atom_site_label_1
_geom_bond_atom_site_label_2
_geom_bond_distance
_geom_bond_site_symmetry_2
F0 Li2 2.096649 1_555
F0 Mn0 2.099064 1_555
F0 Mn4 2.144445 1_555
F0 Mn10 2.539907 1_555
F1 Mn1 2.016882 1_555
F1 Li5 2.045037 1_565
F1 Mn8 2.283851 1_555
F1 Li2 2.373887 1_455
F2 Mn9 2.016882 1_666
F2 Li4 2.045046 1_555
F2 Mn7 2.283844 1_555
F2 Li3 2.373887 1_555
F3 Li6 2.138235 1_555
F3 Mn2 2.151937 1_555
F3 Mn0 2.164820 1_555
F3 Mn11 2.520757 1_555
F4 Li1 2.096657 1_655
F4 Mn7 2.099050 1_555
F4 Mn0 2.144436 1_555
F4 Mn2 2.539910 1_555
F5 Mn1 2.016882 1_555
F5 Li1 2.045037 1_555
F5 Mn0 2.283843 1_455
F5 Li7 2.373887 1_565
F6 Mn1 2.016882 1_555
F6 Li6 2.045038 1_455
F6 Mn5 2.283844 1_555
F6 Li0 2.373884 1_555
F7 Li2 2.138226 1_556
F7 Mn10 2.151945 1_556
F7 Mn7 2.164829 1_555
F7 Mn3 2.520754 1_555
F8 Li3 2.138226 1_555
F8 Mn2 2.151945 1_565
F8 Mn8 2.164824 1_555
F8 Mn4 2.520745 1_555
F9 Li6 2.096649 1_555
F9 Mn4 2.099048 1_545
F9 Mn5 2.144442 1_655
F9 Mn2 2.539910 1_555
F10 Li1 2.138226 1_555
F10 Mn2 2.151944 1_455
F10 Mn5 2.164824 1_555
F10 Mn6 2.520763 1_555
F11 Li1 1.975206 1_555
F11 Li2 2.060194 1_456
F11 Mn6 2.193296 1_555
F11 Mn8 2.223029 1_556
F12 Li0 1.975204 1_555
F12 Li3 2.060193 1_555
F12 Mn0 2.193300 1_555
F12 Mn7 2.223022 1_555
F13 Li3 2.096657 1_545
F13 Mn6 2.099052 1_655
F13 Mn3 2.144447 1_555
F13 Mn2 2.539902 1_555
F14 Li5 1.975206 1_555
F14 Li0 2.060201 1_555
F14 Mn7 2.193296 1_555
F14 Mn5 2.223022 1_555
F15 Li4 1.975196 1_555
F15 Li1 2.060194 1_555
F15 Mn8 2.193295 1_556
F15 Mn11 2.223031 1_566
F16 Li3 1.975196 1_555
F16 Li7 2.060194 1_665
F16 Mn4 2.193295 1_555
F16 Mn0 2.223031 1_555
F17 Li2 1.975206 1_555
F17 Li6 2.060201 1_555
F17 Mn3 2.193296 1_554
F17 Mn6 2.223022 1_654
F18 Li4 2.096657 1_555
F18 Mn5 2.099052 1_555
F18 Mn7 2.144447 1_555
F18 Mn10 2.539902 1_556
F19 Li7 1.975206 1_555
F19 Li5 2.060194 1_555
F19 Mn5 2.193296 1_555
F19 Mn4 2.223029 1_445
F20 Li6 1.975204 1_555
F20 Li4 2.060193 1_544
F20 Mn11 2.193300 1_555
F20 Mn3 2.223022 1_554
F21 Li7 2.138226 1_555
F21 Mn10 2.151944 1_556
F21 Mn6 2.164824 1_555
F21 Mn5 2.520763 1_555
F22 Li0 2.096649 1_555
F22 Mn8 2.099048 1_555
F22 Mn6 2.144442 1_554
F22 Mn10 2.539910 1_555
F23 Li4 2.138226 1_554
F23 Mn10 2.151945 1_555
F23 Mn4 2.164824 1_555
F23 Mn8 2.520745 1_555
F24 Li5 2.138226 1_555
F24 Mn2 2.151945 1_555
F24 Mn3 2.164829 1_555
F24 Mn7 2.520754 1_555
F25 Mn9 2.016882 1_555
F25 Li0 2.045038 1_555
F25 Mn6 2.283844 1_554
F25 Li6 2.373884 1_455
F26 Mn9 2.016882 1_566
F26 Li7 2.045037 1_565
F26 Mn11 2.283843 1_566
F26 Li1 2.373887 1_555
F27 Li7 2.096657 1_555
F27 Mn3 2.099050 1_555
F27 Mn11 2.144436 1_556
F27 Mn10 2.539910 1_556
F28 Li0 2.138235 1_555
F28 Mn10 2.151937 1_555
F28 Mn11 2.164820 1_555
F28 Mn0 2.520757 1_555
F29 Mn9 2.016882 1_565
F29 Li2 2.045037 1_455
F29 Mn4 2.283851 1_455
F29 Li5 2.373887 1_565
F30 Mn1 2.016882 1_555
F30 Li3 2.045046 1_555
F30 Mn3 2.283844 1_565
F30 Li4 2.373887 1_555
F31 Li5 2.096649 1_555
F31 Mn11 2.099064 1_555
F31 Mn8 2.144445 1_545
F31 Mn2 2.539907 1_555
