# generated using pymatgen
data_BaNa4O3
_symmetry_space_group_name_H-M   'P 1'
_cell_length_a   9.43542020
_cell_length_b   9.43542020
_cell_length_c   5.84049397
_cell_angle_alpha   89.28044249
_cell_angle_beta   89.28044249
_cell_angle_gamma   143.30939382
_symmetry_Int_Tables_number   1
_chemical_formula_structural   BaNa4O3
_chemical_formula_sum   'Ba2 Na8 O6'
_cell_volume   310.42694548
_cell_formula_units_Z   2
loop_
 _symmetry_equiv_pos_site_id
 _symmetry_equiv_pos_as_xyz
  1  'x, y, z'
loop_
 _atom_site_type_symbol
 _atom_site_label
 _atom_site_symmetry_multiplicity
 _atom_site_fract_x
 _atom_site_fract_y
 _atom_site_fract_z
 _atom_site_occupancy
  Ba  Ba0  1  0.84211300  0.15278200  0.73900700  1
  Ba  Ba1  1  0.15278200  0.84211300  0.23900700  1
  Na  Na0  1  0.51560300  0.47665100  0.22996500  1
  Na  Na1  1  0.96016200  0.01304100  0.24404800  1
  Na  Na2  1  0.72046400  0.24675400  0.20983900  1
  Na  Na3  1  0.59649100  0.32320600  0.69784800  1
  Na  Na4  1  0.32320600  0.59649100  0.19784800  1
  Na  Na5  1  0.47665100  0.51560300  0.72996500  1
  Na  Na6  1  0.01304100  0.96016200  0.74404800  1
  Na  Na7  1  0.24675400  0.72046400  0.70983900  1
  O  O0  1  0.31923400  0.17261700  0.98785900  1
  O  O1  1  0.51509300  0.04720900  0.51840100  1
  O  O2  1  0.17261700  0.31923400  0.48785900  1
  O  O3  1  0.81441200  0.67254300  0.48034500  1
  O  O4  1  0.04720900  0.51509300  0.01840100  1
  O  O5  1  0.67254300  0.81441200  0.98034500  1
loop_
_geom_bond_atom_site_label_1
_geom_bond_atom_site_label_2
_geom_bond_distance
_geom_bond_site_symmetry_2
Ba0 O2 2.513073 1_655
Ba0 O5 2.525454 1_545
Ba0 O1 2.715861 1_555
Ba0 O4 2.775615 1_656
Ba1 O0 2.513073 1_564
Ba1 O3 2.525454 1_455
Ba1 O4 2.715861 1_555
Ba1 O1 2.775615 1_565
Na0 O0 2.303317 1_554
Na0 O3 2.306032 1_555
Na0 O5 2.595265 1_554
Na0 O2 2.657162 1_555
Na1 O5 2.295638 1_544
Na1 O2 2.297795 1_655
Na1 O3 2.621613 1_545
Na1 O0 2.760333 1_654
Na2 O4 2.118773 1_655
Na2 O1 2.126861 1_555
Na3 O1 2.313238 1_555
Na3 O0 2.366127 1_555
Na3 O3 2.380346 1_555
Na4 O4 2.313238 1_555
Na4 O2 2.366127 1_555
Na4 O5 2.380346 1_554
Na5 O2 2.303317 1_555
Na5 O5 2.306032 1_555
Na5 O3 2.595265 1_555
Na5 O0 2.657162 1_555
Na6 O3 2.295638 1_455
Na6 O0 2.297795 1_565
Na6 O5 2.621613 1_455
Na6 O2 2.760333 1_565
Na7 O1 2.118773 1_565
Na7 O4 2.126861 1_556
