# generated using pymatgen
data_Li6V3P8O29
_symmetry_space_group_name_H-M   'P 1'
_cell_length_a   9.78978400
_cell_length_b   9.79955606
_cell_length_c   13.95757481
_cell_angle_alpha   90.10669680
_cell_angle_beta   90.11652448
_cell_angle_gamma   119.94225944
_symmetry_Int_Tables_number   1
_chemical_formula_structural   Li6V3P8O29
_chemical_formula_sum   'Li12 V6 P16 O58'
_cell_volume   1160.29710254
_cell_formula_units_Z   2
loop_
 _symmetry_equiv_pos_site_id
 _symmetry_equiv_pos_as_xyz
  1  'x, y, z'
loop_
 _atom_site_type_symbol
 _atom_site_label
 _atom_site_symmetry_multiplicity
 _atom_site_fract_x
 _atom_site_fract_y
 _atom_site_fract_z
 _atom_site_occupancy
  Li  Li0  1  0.09183200  0.32779300  0.05903800  1
  Li  Li1  1  0.10043500  0.76484400  0.56222200  1
  Li  Li2  1  0.33950700  0.66064100  0.88361900  1
  Li  Li3  1  0.23232600  0.91008900  0.06019900  1
  Li  Li4  1  0.67574300  0.76860800  0.05842700  1
  Li  Li5  1  0.33785800  0.10230400  0.44390100  1
  Li  Li6  1  0.66337000  0.90241900  0.56402200  1
  Li  Li7  1  0.90347900  0.23756000  0.44128400  1
  Li  Li8  1  0.76585700  0.66833800  0.44213400  1
  Li  Li9  1  0.89849800  0.66397200  0.93878700  1
  Li  Li10  1  0.01352900  0.04260000  0.98684400  1
  Li  Li11  1  0.04279700  0.05343200  0.51505300  1
  V  V0  1  0.43490200  0.00085000  0.24822200  1
  V  V1  1  0.56487300  0.00436500  0.75596200  1
  V  V2  1  0.43376000  0.43367200  0.74726300  1
  V  V3  1  0.56148000  0.56264500  0.24993400  1
  V  V4  1  0.00056500  0.43185000  0.24977700  1
  V  V5  1  0.99839400  0.56054300  0.74650300  1
  P  P0  1  0.09221900  0.31270300  0.84178700  1
  P  P1  1  0.22428300  0.30610800  0.34397400  1
  P  P2  1  0.08804500  0.77224700  0.34185000  1
  P  P3  1  0.33130200  0.66603500  0.12676900  1
  P  P4  1  0.33919600  0.67225000  0.63083800  1
  P  P5  1  0.21954500  0.90465200  0.84375800  1
  P  P6  1  0.30878500  0.08420100  0.65976400  1
  P  P7  1  0.68645600  0.77655300  0.84255200  1
  P  P8  1  0.30579200  0.22375900  0.15529000  1
  P  P9  1  0.68470200  0.91370800  0.34402500  1
  P  P10  1  0.77658900  0.08324400  0.15798500  1
  P  P11  1  0.66894500  0.33397800  0.36900700  1
  P  P12  1  0.66598600  0.33938700  0.87027000  1
  P  P13  1  0.91213300  0.22050300  0.65756600  1
  P  P14  1  0.77248800  0.68659000  0.65638900  1
  P  P15  1  0.91090000  0.68273400  0.15817400  1
  O  O0  1  0.99079700  0.21119000  0.56728300  1
  O  O1  1  0.08445000  0.33811400  0.34245900  1
  O  O2  1  0.20318300  0.20801800  0.07149400  1
  O  O3  1  0.25868200  0.33922400  0.83765900  1
  O  O4  1  0.10252200  0.47563700  0.82852100  1
  O  O5  1  0.18821200  0.51022000  0.16575900  1
  O  O6  1  0.09137600  0.61797800  0.32671900  1
  O  O7  1  0.99618600  0.76854900  0.06843900  1
  O  O8  1  0.07538400  0.73520600  0.83917800  1
  O  O9  1  0.33424700  0.52496200  0.67730900  1
  O  O10  1  0.38291500  0.46185500  0.33217500  1
  O  O11  1  0.18906300  0.67716400  0.66818100  1
  O  O12  1  0.32995700  0.66517000  0.01866500  1
  O  O13  1  0.34767800  0.67985700  0.52405800  1
  O  O14  1  0.31950300  0.80971100  0.16604600  1
  O  O15  1  0.52360500  0.62587700  0.83318100  1
  O  O16  1  0.48640000  0.67717900  0.16700700  1
  O  O17  1  0.25564100  0.91754900  0.34140400  1
  O  O18  1  0.20102600  0.99220600  0.75188800  1
  O  O19  1  0.21450000  0.99788900  0.57018100  1
  O  O20  1  0.21183800  0.98434800  0.93359800  1
  O  O21  1  0.36994100  0.89029800  0.83313700  1
  O  O22  1  0.48955400  0.81797400  0.67569500  1
  O  O23  1  0.33831900  0.08313700  0.15955400  1
  O  O24  1  0.52678700  0.90996600  0.32648600  1
  O  O25  1  0.66120000  0.74527600  0.34111400  1
  O  O26  1  0.20206700  0.20219200  0.24996500  1
  O  O27  1  0.21344000  0.20633500  0.42819300  1
  O  O28  1  0.77829700  0.78135100  0.56873800  1
  O  O29  1  0.33402100  0.24974000  0.66205300  1
  O  O30  1  0.46193100  0.07906500  0.66841100  1
  O  O31  1  0.66413600  0.91977900  0.84217000  1
  O  O32  1  0.51264200  0.18890400  0.32933100  1
  O  O33  1  0.62012300  0.08188700  0.16731300  1
  O  O34  1  0.79268800  0.99357900  0.07598800  1
  O  O35  1  0.76595200  0.99809000  0.43544300  1
  O  O36  1  0.79947600  0.00798200  0.25690800  1
  O  O37  1  0.74196700  0.08310600  0.66106800  1
  O  O38  1  0.52429400  0.34305600  0.82154100  1
  O  O39  1  0.46058100  0.37986300  0.16694500  1
  O  O40  1  0.66007700  0.18801100  0.82596900  1
  O  O41  1  0.66691400  0.34489300  0.97661200  1
  O  O42  1  0.67217400  0.33529800  0.47619400  1
  O  O43  1  0.81261900  0.32095400  0.32885800  1
  O  O44  1  0.61914800  0.53087300  0.66446500  1
  O  O45  1  0.67882700  0.48868300  0.32821700  1
  O  O46  1  0.91794500  0.25542000  0.15976900  1
  O  O47  1  0.99866900  0.20307600  0.75057200  1
  O  O48  1  0.00860500  0.22820600  0.93173700  1
  O  O49  1  0.91725100  0.38058200  0.66795500  1
  O  O50  1  0.81730000  0.48624100  0.82839600  1
  O  O51  1  0.90667400  0.52635300  0.17256900  1
  O  O52  1  0.74205900  0.66015100  0.16034000  1
  O  O53  1  0.77744900  0.77504400  0.93056300  1
  O  O54  1  0.79334200  0.79181600  0.75052000  1
  O  O55  1  0.91875400  0.66497900  0.65682200  1
  O  O56  1  0.00091400  0.76978800  0.43175300  1
  O  O57  1  0.99992300  0.79425500  0.24997300  1
loop_
_geom_bond_atom_site_label_1
_geom_bond_atom_site_label_2
_geom_bond_distance
_geom_bond_site_symmetry_2
Li0 O2 1.968114 1_555
Li0 O48 1.991787 1_554
Li0 O46 2.045932 1_455
Li0 O5 2.146043 1_555
Li1 O19 1.981810 1_555
Li1 O55 2.035047 1_455
Li1 O56 2.075566 1_555
Li1 O11 2.102864 1_555
Li2 O12 1.888958 1_556
Li2 O15 2.115905 1_555
Li2 O21 2.233284 1_555
Li2 O4 2.247121 1_555
Li3 O20 1.959917 1_554
Li3 O7 2.020422 1_455
Li3 O23 2.025918 1_565
Li3 O14 2.171839 1_555
Li4 O34 1.925718 1_555
Li4 O53 2.031100 1_554
Li4 O52 2.065227 1_555
Li4 O16 2.212254 1_555
Li5 O27 1.951987 1_555
Li5 O19 2.096154 1_545
Li5 O17 2.122124 1_545
Li5 O32 2.184454 1_555
Li6 O28 2.002570 1_555
Li6 O35 2.044991 1_555
Li6 O37 2.046652 1_565
Li6 O22 2.149355 1_555
Li7 O0 2.026428 1_555
Li7 O35 2.042348 1_545
Li7 O1 2.069949 1_655
Li7 O43 2.155501 1_555
Li8 O56 2.005702 1_655
Li8 O28 2.054537 1_555
Li8 O25 2.091769 1_555
Li8 O45 2.200050 1_555
Li9 O53 1.972250 1_555
Li9 O8 2.055633 1_655
Li9 O7 2.060891 1_556
Li9 O50 2.154609 1_555
Li10 O48 1.998688 1_555
Li10 O2 2.109597 1_556
Li10 O34 2.330122 1_446
Li10 O20 2.399546 1_545
Li10 O53 2.601713 1_445
Li11 O0 1.990860 1_455
Li11 O27 2.005482 1_555
Li11 O19 2.150230 1_545
O0 P13 1.504327 1_555
O1 P1 1.549619 1_555
O1 V4 1.986138 1_555
O2 P8 1.496884 1_555
O3 P0 1.517967 1_555
O3 V2 1.953410 1_555
O4 P0 1.560211 1_555
O4 V5 1.971661 1_455
O5 P3 1.568735 1_555
O5 V4 1.985806 1_555
O6 P2 1.542452 1_555
O6 V4 1.908048 1_555
O7 P15 1.510062 1_555
O8 P5 1.553376 1_555
O8 V5 1.967457 1_455
O9 P4 1.562096 1_555
O9 V2 1.890007 1_555
O10 P1 1.550541 1_555
O10 V3 1.907322 1_555
O11 P4 1.583630 1_555
O11 V5 1.966928 1_455
O12 P3 1.508871 1_555
O13 P4 1.492800 1_555
O14 P3 1.567152 1_555
O14 V0 1.993644 1_565
O15 P7 1.545170 1_555
O15 V2 2.023092 1_555
O16 P3 1.569583 1_555
O16 V3 1.991134 1_555
O17 P2 1.545133 1_555
O17 V0 2.005206 1_565
O18 P5 1.603651 1_555
O18 P6 1.624631 1_565
O19 P6 1.530625 1_565
O20 P5 1.497858 1_555
O21 P5 1.554707 1_555
O21 V1 1.983679 1_565
O22 P4 1.578778 1_555
O22 V1 1.944138 1_565
O23 P8 1.562750 1_555
O23 V0 1.958563 1_555
O24 P9 1.546959 1_555
O24 V0 1.896056 1_565
O25 P9 1.549047 1_555
O25 V3 2.004509 1_555
O26 P1 1.605857 1_555
O26 P8 1.616863 1_555
O27 P1 1.500064 1_555
O28 P14 1.521202 1_555
O29 P6 1.514370 1_555
O29 V2 1.961412 1_555
O30 P6 1.529547 1_555
O30 V1 1.944100 1_555
O31 P7 1.524436 1_555
O31 V1 1.970351 1_565
O32 P11 1.578371 1_555
O32 V0 1.961012 1_555
O33 P10 1.530989 1_555
O33 V0 1.941164 1_555
O34 P10 1.497323 1_565
O35 P9 1.509943 1_555
O36 P9 1.602504 1_545
O36 P10 1.633419 1_555
O37 P13 1.533603 1_555
O37 V1 2.008269 1_555
O38 P12 1.560148 1_555
O38 V2 1.853178 1_555
O39 P8 1.531958 1_555
O39 V3 1.935762 1_555
O40 P12 1.580186 1_555
O40 V1 1.837810 1_555
O41 P12 1.485001 1_555
O42 P11 1.496236 1_555
O43 P11 1.578229 1_555
O43 V4 1.949723 1_655
O44 P14 1.519659 1_555
O44 V2 1.955415 1_555
O45 P11 1.577626 1_555
O45 V3 1.966716 1_555
O46 P10 1.559277 1_555
O46 V4 1.952819 1_655
O47 P13 1.603995 1_555
O47 P0 1.619183 1_655
O48 P0 1.504447 1_555
O49 P13 1.550815 1_555
O49 V5 1.879854 1_555
O50 P12 1.576560 1_555
O50 V5 1.924181 1_555
O51 P15 1.525915 1_555
O51 V4 1.926980 1_655
O52 P15 1.554701 1_555
O52 V3 1.982226 1_555
O53 P7 1.520371 1_555
O54 P14 1.617058 1_555
O54 P7 1.617808 1_555
O55 P14 1.548531 1_555
O55 V5 2.004851 1_555
O56 P2 1.512190 1_555
O57 P2 1.617874 1_655
O57 P15 1.623283 1_555
