# generated using pymatgen
data_Li4V3Cr3(SbO8)2
_symmetry_space_group_name_H-M   'P 1'
_cell_length_a   5.99843166
_cell_length_b   5.99843166
_cell_length_c   9.69718849
_cell_angle_alpha   89.51568517
_cell_angle_beta   89.51568517
_cell_angle_gamma   59.90801728
_symmetry_Int_Tables_number   1
_chemical_formula_structural   Li4V3Cr3(SbO8)2
_chemical_formula_sum   'Li4 V3 Cr3 Sb2 O16'
_cell_volume   301.87555472
_cell_formula_units_Z   1
loop_
 _symmetry_equiv_pos_site_id
 _symmetry_equiv_pos_as_xyz
  1  'x, y, z'
loop_
 _atom_site_type_symbol
 _atom_site_label
 _atom_site_symmetry_multiplicity
 _atom_site_fract_x
 _atom_site_fract_y
 _atom_site_fract_z
 _atom_site_occupancy
  Li  Li0  1  0.33284300  0.33284300  0.90349300  1
  Li  Li1  1  0.99941200  0.99941200  0.99041800  1
  Li  Li2  1  0.99930700  0.99930700  0.49069300  1
  Li  Li3  1  0.66693300  0.66693300  0.40031300  1
  V  V0  1  0.17012800  0.17012800  0.21657500  1
  V  V1  1  0.34287700  0.82403400  0.71527100  1
  V  V2  1  0.82403400  0.34287700  0.71527100  1
  Cr  Cr0  1  0.16969400  0.65897900  0.21360500  1
  Cr  Cr1  1  0.65897900  0.16969400  0.21360500  1
  Cr  Cr2  1  0.83039400  0.83039400  0.71338100  1
  Sb  Sb0  1  0.33311500  0.33311500  0.48772500  1
  Sb  Sb1  1  0.66680300  0.66680300  0.98917600  1
  O  O0  1  0.16362400  0.66535900  0.59381900  1
  O  O1  1  0.48079400  0.48079400  0.34212100  1
  O  O2  1  0.33256200  0.33256200  0.10902600  1
  O  O3  1  0.99916000  0.99916000  0.30425100  1
  O  O4  1  0.00018500  0.00018500  0.80381000  1
  O  O5  1  0.66535900  0.16362400  0.59381900  1
  O  O6  1  0.03753100  0.48341900  0.34529700  1
  O  O7  1  0.48341900  0.03753100  0.34529700  1
  O  O8  1  0.83384700  0.83384700  0.09609400  1
  O  O9  1  0.16537300  0.16537300  0.59169300  1
  O  O10  1  0.52547800  0.96225100  0.84510500  1
  O  O11  1  0.96225100  0.52547800  0.84510500  1
  O  O12  1  0.66782100  0.66782100  0.60709900  1
  O  O13  1  0.33061300  0.83351000  0.09433700  1
  O  O14  1  0.51821100  0.51821100  0.84831000  1
  O  O15  1  0.83351000  0.33061300  0.09433700  1
loop_
_geom_bond_atom_site_label_1
_geom_bond_atom_site_label_2
_geom_bond_distance
_geom_bond_site_symmetry_2
Li0 O2 1.993066 1_556
Li0 O14 1.994681 1_555
Li0 O11 2.007934 1_455
Li0 O10 2.007934 1_545
Li1 O4 1.809512 1_665
Li1 O8 1.994339 1_556
Li1 O13 1.996772 1_656
Li1 O15 1.996772 1_566
Li2 O3 1.807979 1_555
Li2 O9 1.992952 1_665
Li2 O5 1.996780 1_565
Li2 O0 1.996780 1_655
Li3 O6 1.993523 1_655
Li3 O7 1.993523 1_565
Li3 O12 2.005354 1_555
Li3 O1 2.020693 1_555
Cr0 O3 1.976077 1_455
Cr0 O2 1.978698 1_555
Cr0 O6 2.040988 1_555
Cr0 O1 2.048071 1_555
Cr0 O13 2.083124 1_555
Cr0 O8 2.087297 1_455
Cr1 O3 1.976077 1_545
Cr1 O2 1.978698 1_555
Cr1 O7 2.040988 1_555
Cr1 O1 2.048071 1_555
Cr1 O15 2.083124 1_555
Cr1 O8 2.087297 1_545
Cr2 O4 1.978370 1_665
Cr2 O12 1.987909 1_555
Cr2 O10 2.032103 1_555
Cr2 O11 2.032103 1_555
Cr2 O5 2.077410 1_565
Cr2 O0 2.077410 1_655
O0 Sb0 2.012233 1_555
O0 V1 2.125030 1_555
O1 Sb0 2.075486 1_555
O2 V0 1.975864 1_555
O3 V0 1.962523 1_665
O4 V1 1.971450 1_545
O4 V2 1.971450 1_455
O5 Sb0 2.012233 1_555
O5 V2 2.125030 1_555
O6 V0 2.060663 1_555
O6 Sb0 2.069170 1_555
O7 V0 2.060663 1_555
O7 Sb0 2.069170 1_555
O8 Sb1 2.030986 1_554
O9 Sb0 2.005549 1_555
O9 V1 2.134471 1_545
O9 V2 2.134471 1_455
O10 Sb1 2.069515 1_555
O10 V1 2.103295 1_555
O11 Sb1 2.069515 1_555
O11 V2 2.103295 1_555
O12 V2 1.981947 1_555
O12 V1 1.981947 1_555
O13 Sb1 2.016657 1_554
O13 V0 2.116808 1_565
O14 V1 2.045472 1_555
O14 V2 2.045472 1_555
O14 Sb1 2.071881 1_555
O15 Sb1 2.016657 1_554
O15 V0 2.116808 1_655
