# generated using pymatgen
data_Na2AlSi3HO9
_symmetry_space_group_name_H-M   'P 1'
_cell_length_a   7.27138300
_cell_length_b   7.34453556
_cell_length_c   8.79266793
_cell_angle_alpha   80.42183383
_cell_angle_beta   79.14772546
_cell_angle_gamma   64.45522948
_symmetry_Int_Tables_number   1
_chemical_formula_structural   Na2AlSi3HO9
_chemical_formula_sum   'Na4 Al2 Si6 H2 O18'
_cell_volume   414.16550516
_cell_formula_units_Z   2
loop_
 _symmetry_equiv_pos_site_id
 _symmetry_equiv_pos_as_xyz
  1  'x, y, z'
loop_
 _atom_site_type_symbol
 _atom_site_label
 _atom_site_symmetry_multiplicity
 _atom_site_fract_x
 _atom_site_fract_y
 _atom_site_fract_z
 _atom_site_occupancy
  Na  Na0  1  0.61199600  0.21452900  0.05588900  1
  Na  Na1  1  0.38800400  0.78547100  0.94411100  1
  Na  Na2  1  0.76105000  0.41264500  0.44190200  1
  Na  Na3  1  0.23895000  0.58735500  0.55809800  1
  Al  Al0  1  0.95338500  0.80396200  0.85349900  1
  Al  Al1  1  0.04661500  0.19603800  0.14650100  1
  Si  Si0  1  0.80577300  0.94734900  0.36245900  1
  Si  Si1  1  0.19422700  0.05265100  0.63754100  1
  Si  Si2  1  0.58549900  0.09554800  0.69271900  1
  Si  Si3  1  0.41450100  0.90445200  0.30728100  1
  Si  Si4  1  0.89794900  0.40065600  0.81398000  1
  Si  Si5  1  0.10205100  0.59934400  0.18602000  1
  H  H0  1  0.59011700  0.43021600  0.75214100  1
  H  H1  1  0.40988300  0.56978400  0.24785900  1
  O  O0  1  0.86324600  0.13340400  0.28063200  1
  O  O1  1  0.13675400  0.86659600  0.71936800  1
  O  O2  1  0.52668200  0.33359100  0.65238600  1
  O  O3  1  0.47331800  0.66640900  0.34761400  1
  O  O4  1  0.00108100  0.72306500  0.34633900  1
  O  O5  1  0.99891900  0.27693500  0.65366100  1
  O  O6  1  0.70172700  0.99656600  0.84867200  1
  O  O7  1  0.29827300  0.00343400  0.15132800  1
  O  O8  1  0.97837000  0.57754100  0.79432600  1
  O  O9  1  0.02163000  0.42245900  0.20567400  1
  O  O10  1  0.61916500  0.95871400  0.27575900  1
  O  O11  1  0.38083500  0.04128600  0.72424100  1
  O  O12  1  0.96570800  0.23658400  0.96394700  1
  O  O13  1  0.03429200  0.76341600  0.03605300  1
  O  O14  1  0.64494100  0.49480100  0.82301700  1
  O  O15  1  0.35505900  0.50519900  0.17698300  1
  O  O16  1  0.73837000  0.96234900  0.54832000  1
  O  O17  1  0.26163000  0.03765100  0.45168000  1
loop_
_geom_bond_atom_site_label_1
_geom_bond_atom_site_label_2
_geom_bond_distance
_geom_bond_site_symmetry_2
Na0 O15 2.397764 1_555
Na0 O6 2.435207 1_544
Na0 O10 2.452532 1_545
Na0 O12 2.612971 1_554
Na0 O14 2.706499 1_554
Na0 O0 2.761604 1_555
Na1 O14 2.397764 1_555
Na1 O7 2.435207 1_566
Na1 O11 2.452532 1_565
Na1 O13 2.612971 1_556
Na1 O15 2.706499 1_556
Na1 O1 2.761604 1_555
Na2 O3 2.305273 1_555
Na2 O2 2.444302 1_555
Na2 O0 2.454734 1_555
Na2 O9 2.548649 1_655
Na2 O5 2.561279 1_555
Na3 O2 2.305273 1_555
Na3 O3 2.444302 1_555
Na3 O1 2.454734 1_555
Na3 O8 2.548649 1_455
Na3 O4 2.561279 1_555
Al0 O13 1.748334 1_656
Al0 O8 1.749547 1_555
Al0 O6 1.768674 1_555
Al0 O1 1.771057 1_655
Al1 O12 1.748334 1_454
Al1 O9 1.749547 1_555
Al1 O7 1.768674 1_555
Al1 O0 1.771057 1_455
H0 O14 1.061741 1_555
H0 O2 1.458599 1_555
H1 O15 1.061741 1_555
H1 O3 1.458599 1_555
O0 Si0 1.616072 1_545
O1 Si1 1.616072 1_565
O2 Si2 1.603498 1_555
O3 Si3 1.603498 1_555
O4 Si0 1.653712 1_455
O4 Si5 1.677193 1_555
O5 Si1 1.653712 1_655
O5 Si4 1.677193 1_555
O6 Si2 1.642507 1_565
O7 Si3 1.642507 1_545
O8 Si4 1.613074 1_555
O9 Si5 1.613074 1_555
O10 Si0 1.643146 1_555
O10 Si3 1.664264 1_555
O11 Si1 1.643146 1_555
O11 Si2 1.664264 1_555
O12 Si4 1.624008 1_555
O13 Si5 1.624008 1_555
O14 Si4 1.653826 1_555
O15 Si5 1.653826 1_555
O16 Si0 1.623191 1_555
O16 Si2 1.657931 1_565
O17 Si1 1.623191 1_555
O17 Si3 1.657931 1_545
