# generated using pymatgen
data_Li4Cr3Co2Sn3O16
_symmetry_space_group_name_H-M   'P 1'
_cell_length_a   6.10234957
_cell_length_b   6.07523811
_cell_length_c   9.67817175
_cell_angle_alpha   89.85244870
_cell_angle_beta   90.02720338
_cell_angle_gamma   119.90758263
_symmetry_Int_Tables_number   1
_chemical_formula_structural   Li4Cr3Co2Sn3O16
_chemical_formula_sum   'Li4 Cr3 Co2 Sn3 O16'
_cell_volume   311.01862823
_cell_formula_units_Z   1
loop_
 _symmetry_equiv_pos_site_id
 _symmetry_equiv_pos_as_xyz
  1  'x, y, z'
loop_
 _atom_site_type_symbol
 _atom_site_label
 _atom_site_symmetry_multiplicity
 _atom_site_fract_x
 _atom_site_fract_y
 _atom_site_fract_z
 _atom_site_occupancy
  Li  Li0  1  0.34772500  0.67436900  0.88987800  1
  Li  Li1  1  0.96631400  0.98343900  0.99214900  1
  Li  Li2  1  0.97407200  0.98946400  0.50118700  1
  Li  Li3  1  0.67607000  0.33718800  0.39842000  1
  Cr  Cr0  1  0.66132000  0.83062300  0.21593600  1
  Cr  Cr1  1  0.83285100  0.66302700  0.71112200  1
  Cr  Cr2  1  0.83319200  0.17615400  0.71437400  1
  Co  Co0  1  0.33404600  0.66379900  0.49515600  1
  Co  Co1  1  0.67213200  0.33735700  0.98766000  1
  Sn  Sn0  1  0.17125800  0.83184800  0.21416000  1
  Sn  Sn1  1  0.17172400  0.33866600  0.21334400  1
  Sn  Sn2  1  0.33901900  0.17062700  0.71418200  1
  O  O0  1  0.14616700  0.82694700  0.60007600  1
  O  O1  1  0.03995700  0.51835800  0.34624500  1
  O  O2  1  0.34813100  0.67467300  0.09764300  1
  O  O3  1  0.98799500  0.99343800  0.31761100  1
  O  O4  1  0.98793800  0.99479700  0.80989000  1
  O  O5  1  0.14766800  0.32106100  0.59913900  1
  O  O6  1  0.49763300  0.96325900  0.33745000  1
  O  O7  1  0.49832300  0.53020200  0.33585400  1
  O  O8  1  0.31795700  0.15856700  0.09032900  1
  O  O9  1  0.67476300  0.83433200  0.61558700  1
  O  O10  1  0.54102000  0.49448400  0.83920800  1
  O  O11  1  0.53861400  0.04450500  0.83808800  1
  O  O12  1  0.67798800  0.33999600  0.60283500  1
  O  O13  1  0.82613400  0.67396400  0.10268800  1
  O  O14  1  0.96422300  0.48220000  0.82514800  1
  O  O15  1  0.82576800  0.15295500  0.10248100  1
loop_
_geom_bond_atom_site_label_1
_geom_bond_atom_site_label_2
_geom_bond_distance
_geom_bond_site_symmetry_2
Li0 O2 2.010790 1_556
Li0 O11 2.011794 1_565
Li0 O10 2.028525 1_555
Li0 O14 2.123701 1_455
Li1 O4 1.767527 1_555
Li1 O13 1.948808 1_556
Li1 O15 1.955434 1_566
Li1 O8 2.089526 1_666
Li2 O3 1.778277 1_555
Li2 O9 1.931349 1_555
Li2 O5 1.989977 1_665
Li2 O0 2.005452 1_655
Li3 O12 1.978460 1_555
Li3 O1 1.989546 1_655
Li3 O7 2.045053 1_555
Li3 O6 2.057692 1_545
Cr0 O6 1.959272 1_555
Cr0 O7 1.961450 1_555
Cr0 O3 1.989351 1_555
Cr0 O2 2.014652 1_555
Cr0 O15 2.019352 1_565
Cr0 O13 2.019802 1_555
Cr1 O9 1.965714 1_555
Cr1 O0 1.974863 1_655
Cr1 O10 1.983373 1_555
Cr1 O14 1.984575 1_555
Cr1 O4 1.994699 1_555
Cr1 O12 2.000755 1_555
Cr2 O14 1.942332 1_555
Cr2 O11 1.966747 1_555
Cr2 O12 1.996671 1_555
Cr2 O4 1.997916 1_545
Cr2 O5 2.003453 1_655
Cr2 O9 2.041695 1_545
Co0 O5 2.066558 1_555
Co0 O0 2.113638 1_555
Co0 O1 2.121621 1_555
Co0 O9 2.147251 1_555
Co0 O6 2.193638 1_555
Co0 O7 2.204538 1_555
Co1 O10 2.090233 1_555
Co1 O13 2.097311 1_556
Co1 O15 2.099736 1_556
Co1 O11 2.119271 1_555
Co1 O8 2.119864 1_556
Co1 O14 2.203776 1_555
O0 Sn2 2.127050 1_565
O1 Sn0 2.090473 1_555
O1 Sn1 2.091955 1_555
O2 Sn1 2.092313 1_555
O2 Sn0 2.093529 1_555
O3 Sn0 2.077922 1_655
O3 Sn1 2.078328 1_665
O4 Sn2 2.074525 1_665
O5 Sn2 2.120412 1_555
O6 Sn0 2.108289 1_555
O7 Sn1 2.103376 1_555
O8 Sn1 2.095773 1_555
O8 Sn0 2.096270 1_545
O10 Sn2 2.108806 1_555
O11 Sn2 2.105513 1_555
O12 Sn2 2.091106 1_555
O13 Sn0 2.123246 1_655
O15 Sn1 2.123663 1_655
