# generated using pymatgen
data_BaLaI5
_symmetry_space_group_name_H-M   'P 1'
_cell_length_a   15.85232200
_cell_length_b   8.80637400
_cell_length_c   12.11670023
_cell_angle_alpha   70.19908950
_cell_angle_beta   90.00000000
_cell_angle_gamma   90.00000000
_symmetry_Int_Tables_number   1
_chemical_formula_structural   BaLaI5
_chemical_formula_sum   'Ba4 La4 I20'
_cell_volume   1591.49940828
_cell_formula_units_Z   4
loop_
 _symmetry_equiv_pos_site_id
 _symmetry_equiv_pos_as_xyz
  1  'x, y, z'
loop_
 _atom_site_type_symbol
 _atom_site_label
 _atom_site_symmetry_multiplicity
 _atom_site_fract_x
 _atom_site_fract_y
 _atom_site_fract_z
 _atom_site_occupancy
  Ba  Ba0  1  0.97534800  0.53620300  0.74064400  1
  Ba  Ba1  1  0.47534800  0.46379700  0.75935600  1
  Ba  Ba2  1  0.52465200  0.53620300  0.24064400  1
  Ba  Ba3  1  0.02465200  0.46379700  0.25935600  1
  La  La0  1  0.74650500  0.89286800  0.90048600  1
  La  La1  1  0.75349500  0.89286800  0.40048600  1
  La  La2  1  0.24650500  0.10713200  0.59951400  1
  La  La3  1  0.25349500  0.10713200  0.09951400  1
  I  I0  1  0.09506000  0.87655000  0.69439100  1
  I  I1  1  0.80679900  0.83863600  0.66503100  1
  I  I2  1  0.36915700  0.82061200  0.63770500  1
  I  I3  1  0.89378000  0.63018600  0.99939200  1
  I  I4  1  0.61401900  0.59785000  0.94548800  1
  I  I5  1  0.40494000  0.87655000  0.19439100  1
  I  I6  1  0.69320100  0.83863600  0.16503100  1
  I  I7  1  0.13084300  0.82061200  0.13770500  1
  I  I8  1  0.60622000  0.63018600  0.49939200  1
  I  I9  1  0.88598100  0.59785000  0.44548800  1
  I  I10  1  0.11401900  0.40215000  0.55451200  1
  I  I11  1  0.39378000  0.36981400  0.50060800  1
  I  I12  1  0.86915700  0.17938800  0.86229500  1
  I  I13  1  0.30679900  0.16136400  0.83496900  1
  I  I14  1  0.59506000  0.12345000  0.80560900  1
  I  I15  1  0.38598100  0.40215000  0.05451200  1
  I  I16  1  0.10622000  0.36981400  0.00060800  1
  I  I17  1  0.63084300  0.17938800  0.36229500  1
  I  I18  1  0.19320100  0.16136400  0.33496900  1
  I  I19  1  0.90494000  0.12345000  0.30560900  1
loop_
_geom_bond_atom_site_label_1
_geom_bond_atom_site_label_2
_geom_bond_distance
_geom_bond_site_symmetry_2
Ba0 I12 3.426683 1_555
Ba0 I0 3.429389 1_655
Ba0 I10 3.621627 1_655
Ba0 I16 3.639506 1_656
Ba0 I1 3.663139 1_555
Ba0 I9 3.711648 1_555
Ba0 I3 3.734203 1_555
Ba1 I2 3.426683 1_555
Ba1 I14 3.429389 1_555
Ba1 I4 3.621627 1_555
Ba1 I8 3.639506 1_555
Ba1 I13 3.663139 1_555
Ba1 I15 3.711648 1_556
Ba1 I11 3.734203 1_555
Ba2 I17 3.426683 1_555
Ba2 I5 3.429389 1_555
Ba2 I15 3.621627 1_555
Ba2 I11 3.639506 1_555
Ba2 I6 3.663139 1_555
Ba2 I4 3.711648 1_554
Ba2 I8 3.734203 1_555
Ba3 I7 3.426683 1_555
Ba3 I19 3.429389 1_455
Ba3 I9 3.621627 1_455
Ba3 I3 3.639506 1_454
Ba3 I18 3.663139 1_555
Ba3 I10 3.711648 1_555
Ba3 I16 3.734203 1_555
I0 La2 3.102733 1_565
I1 La1 3.190549 1_555
I1 La0 3.194373 1_555
I2 La2 3.093542 1_565
I3 La0 3.218666 1_555
I4 La0 3.240097 1_555
I5 La3 3.102733 1_565
I6 La0 3.190549 1_554
I6 La1 3.194373 1_555
I7 La3 3.093542 1_565
I8 La1 3.218666 1_555
I9 La1 3.240097 1_555
I10 La2 3.240097 1_555
I11 La2 3.218666 1_555
I12 La0 3.093542 1_545
I13 La3 3.190549 1_556
I13 La2 3.194373 1_555
I14 La0 3.102733 1_545
I15 La3 3.240097 1_555
I16 La3 3.218666 1_555
I17 La1 3.093542 1_545
I18 La2 3.190549 1_555
I18 La3 3.194373 1_555
I19 La1 3.102733 1_545
