# generated using pymatgen
data_Fe5O3F7
_symmetry_space_group_name_H-M   'P 1'
_cell_length_a   4.78456862
_cell_length_b   4.78361809
_cell_length_c   15.72762556
_cell_angle_alpha   89.83781461
_cell_angle_beta   90.05519869
_cell_angle_gamma   90.45244547
_symmetry_Int_Tables_number   1
_chemical_formula_structural   Fe5O3F7
_chemical_formula_sum   'Fe10 O6 F14'
_cell_volume   359.95397606
_cell_formula_units_Z   2
loop_
 _symmetry_equiv_pos_site_id
 _symmetry_equiv_pos_as_xyz
  1  'x, y, z'
loop_
 _atom_site_type_symbol
 _atom_site_label
 _atom_site_symmetry_multiplicity
 _atom_site_fract_x
 _atom_site_fract_y
 _atom_site_fract_z
 _atom_site_occupancy
  Fe  Fe0  1  0.97219000  0.96215100  0.99334900  1
  Fe  Fe1  1  0.02804100  0.02343300  0.19809100  1
  Fe  Fe2  1  0.01610600  0.01156000  0.40116300  1
  Fe  Fe3  1  0.02683000  0.01939500  0.60656600  1
  Fe  Fe4  1  0.02332600  0.97414400  0.79991000  1
  Fe  Fe5  1  0.50479000  0.49808300  0.10164700  1
  Fe  Fe6  1  0.47790500  0.47231000  0.49814100  1
  Fe  Fe7  1  0.47887200  0.47506900  0.30072100  1
  Fe  Fe8  1  0.46565200  0.51757000  0.69376200  1
  Fe  Fe9  1  0.48099500  0.53152400  0.90607100  1
  O  O0  1  0.19933000  0.80018400  0.70676400  1
  O  O1  1  0.19465700  0.79512300  0.89337200  1
  O  O2  1  0.32633600  0.31848900  0.19848800  1
  O  O3  1  0.31747400  0.31326000  0.39989500  1
  O  O4  1  0.31539000  0.31701400  0.59970400  1
  O  O5  1  0.67221300  0.66819300  0.00244800  1
  F  F0  1  0.20201900  0.78557000  0.09815600  1
  F  F1  1  0.21738200  0.79925000  0.30016600  1
  F  F2  1  0.21179400  0.79724100  0.49939900  1
  F  F3  1  0.28683400  0.28967100  0.99970000  1
  F  F4  1  0.30336200  0.30460600  0.80028900  1
  F  F5  1  0.71120000  0.70286700  0.20105900  1
  F  F6  1  0.69956200  0.69363600  0.40068700  1
  F  F7  1  0.70073800  0.70619800  0.59945600  1
  F  F8  1  0.69090400  0.69436200  0.79983200  1
  F  F9  1  0.79170400  0.19474800  0.09666200  1
  F  F10  1  0.80193900  0.21030200  0.50250800  1
  F  F11  1  0.80482000  0.20920100  0.30168600  1
  F  F12  1  0.78454800  0.20250100  0.88973100  1
  F  F13  1  0.79308500  0.21234700  0.71058000  1
loop_
_geom_bond_atom_site_label_1
_geom_bond_atom_site_label_2
_geom_bond_distance
_geom_bond_site_symmetry_2
Fe0 O5 2.006286 1_556
Fe0 O1 2.065811 1_655
Fe1 O2 1.999336 1_555
Fe2 O3 2.032098 1_555
Fe3 O4 1.978152 1_555
Fe3 O0 2.065426 1_545
Fe4 O1 1.888835 1_555
Fe4 O0 1.888940 1_555
Fe5 O5 1.929479 1_555
Fe5 O2 1.941744 1_555
Fe6 O3 1.884353 1_555
Fe6 O4 1.922117 1_555
Fe7 O3 1.901153 1_555
Fe7 O2 1.916996 1_555
Fe8 O0 1.876819 1_555
Fe8 O4 1.902823 1_555
Fe9 O1 1.879400 1_555
Fe9 O5 1.885613 1_556
F0 Fe5 2.005910 1_555
F0 Fe1 2.117917 1_565
F0 Fe0 2.154787 1_454
F1 Fe7 2.000191 1_555
F1 Fe2 2.123569 1_565
F1 Fe1 2.133268 1_565
F2 Fe6 2.017168 1_555
F2 Fe2 2.078026 1_565
F2 Fe3 2.186602 1_565
F3 Fe9 2.084693 1_555
F3 Fe5 2.154454 1_556
F3 Fe0 2.166635 1_445
F4 Fe4 2.064162 1_545
F4 Fe8 2.104313 1_555
F4 Fe9 2.159036 1_555
F5 Fe5 2.090442 1_555
F5 Fe1 2.148211 1_665
F5 Fe7 2.203297 1_555
F6 Fe2 2.137856 1_665
F6 Fe6 2.138013 1_555
F6 Fe7 2.160710 1_555
F7 Fe8 2.063698 1_555
F7 Fe3 2.157568 1_665
F7 Fe6 2.217098 1_555
F8 Fe4 2.070580 1_655
F8 Fe9 2.095426 1_555
F8 Fe8 2.156350 1_555
F9 Fe5 2.007097 1_555
F9 Fe1 2.121031 1_655
F9 Fe0 2.156856 1_544
F10 Fe6 2.002302 1_555
F10 Fe2 2.126388 1_655
F10 Fe3 2.161908 1_655
F11 Fe7 2.020150 1_555
F11 Fe2 2.089796 1_655
F11 Fe1 2.147443 1_655
F12 Fe4 2.127361 1_645
F12 Fe9 2.166047 1_555
F12 Fe0 2.187833 1_545
F13 Fe4 2.119808 1_645
F13 Fe8 2.165462 1_555
F13 Fe3 2.192537 1_655
