# generated using pymatgen
data_Fe(CoO3)2
_symmetry_space_group_name_H-M   'P 1'
_cell_length_a   6.54196317
_cell_length_b   6.54196317
_cell_length_c   5.83264717
_cell_angle_alpha   76.41626605
_cell_angle_beta   76.41626605
_cell_angle_gamma   25.49647117
_symmetry_Int_Tables_number   1
_chemical_formula_structural   Fe(CoO3)2
_chemical_formula_sum   'Fe1 Co2 O6'
_cell_volume   104.28909921
_cell_formula_units_Z   1
loop_
 _symmetry_equiv_pos_site_id
 _symmetry_equiv_pos_as_xyz
  1  'x, y, z'
loop_
 _atom_site_type_symbol
 _atom_site_label
 _atom_site_symmetry_multiplicity
 _atom_site_fract_x
 _atom_site_fract_y
 _atom_site_fract_z
 _atom_site_occupancy
  Fe  Fe0  1  0.50000000  0.50000000  0.00000000  1
  Co  Co0  1  0.16924800  0.16924800  0.66202300  1
  Co  Co1  1  0.83075200  0.83075200  0.33797700  1
  O  O0  1  0.66107400  0.66107400  0.87671700  1
  O  O1  1  0.98407500  0.98407500  0.23190900  1
  O  O2  1  0.32063100  0.32063100  0.55510200  1
  O  O3  1  0.01592500  0.01592500  0.76809100  1
  O  O4  1  0.33892600  0.33892600  0.12328300  1
  O  O5  1  0.67936900  0.67936900  0.44489800  1
loop_
_geom_bond_atom_site_label_1
_geom_bond_atom_site_label_2
_geom_bond_distance
_geom_bond_site_symmetry_2
Fe0 O1 1.955129 1_545
Fe0 O1 1.955129 1_455
Fe0 O3 1.955129 1_564
Fe0 O3 1.955129 1_654
Fe0 O4 2.007589 1_555
Fe0 O0 2.007589 1_554
Co0 O2 1.881694 1_555
Co0 O0 1.897377 1_455
Co0 O0 1.897377 1_545
Co0 O5 1.904123 1_455
Co0 O5 1.904123 1_545
Co0 O3 1.904760 1_555
Co1 O5 1.881694 1_555
Co1 O4 1.897377 1_565
Co1 O4 1.897377 1_655
Co1 O2 1.904123 1_565
Co1 O2 1.904123 1_655
Co1 O1 1.904760 1_555
