# generated using pymatgen
data_Li2Y14Ti14(S2O5)7
_symmetry_space_group_name_H-M   'P 1'
_cell_length_a   8.59754500
_cell_length_b   11.69432102
_cell_length_c   12.15842752
_cell_angle_alpha   84.03522351
_cell_angle_beta   81.87314561
_cell_angle_gamma   77.26098904
_symmetry_Int_Tables_number   1
_chemical_formula_structural   Li2Y14Ti14(S2O5)7
_chemical_formula_sum   'Li2 Y14 Ti14 S14 O35'
_cell_volume   1177.01874216
_cell_formula_units_Z   1
loop_
 _symmetry_equiv_pos_site_id
 _symmetry_equiv_pos_as_xyz
  1  'x, y, z'
loop_
 _atom_site_type_symbol
 _atom_site_label
 _atom_site_symmetry_multiplicity
 _atom_site_fract_x
 _atom_site_fract_y
 _atom_site_fract_z
 _atom_site_occupancy
  Li  Li0  1  0.00000000  0.00000000  0.00000000  1
  Li  Li1  1  0.00000000  0.00000000  0.50000000  1
  Y  Y0  1  0.59544300  0.66647800  0.02376600  1
  Y  Y1  1  0.40455700  0.33352200  0.97623400  1
  Y  Y2  1  0.54473300  0.33372600  0.26319400  1
  Y  Y3  1  0.45526700  0.66627400  0.73680600  1
  Y  Y4  1  0.30977600  0.66858100  0.45209500  1
  Y  Y5  1  0.16728900  0.66795200  0.16625900  1
  Y  Y6  1  0.02189800  0.66871600  0.88125700  1
  Y  Y7  1  0.97810200  0.33128400  0.11874300  1
  Y  Y8  1  0.12059400  0.33079600  0.40486400  1
  Y  Y9  1  0.26463500  0.33319300  0.68911700  1
  Y  Y10  1  0.83271100  0.33204800  0.83374100  1
  Y  Y11  1  0.87940600  0.66920400  0.59513600  1
  Y  Y12  1  0.73536500  0.66680700  0.31088300  1
  Y  Y13  1  0.69022400  0.33141900  0.54790500  1
  Ti  Ti0  1  0.26924700  0.83616600  0.93967500  1
  Ti  Ti1  1  0.54565800  0.84000000  0.51144900  1
  Ti  Ti2  1  0.40121900  0.83991100  0.22708700  1
  Ti  Ti3  1  0.30989900  0.15997600  0.20423400  1
  Ti  Ti4  1  0.59878100  0.16008900  0.77291300  1
  Ti  Ti5  1  0.45434200  0.16000000  0.48855100  1
  Ti  Ti6  1  0.17561600  0.16379700  0.91619100  1
  Ti  Ti7  1  0.97215300  0.83571700  0.36460900  1
  Ti  Ti8  1  0.12184600  0.83601700  0.65880800  1
  Ti  Ti9  1  0.82438400  0.83620300  0.08380900  1
  Ti  Ti10  1  0.69010100  0.84002400  0.79576600  1
  Ti  Ti11  1  0.73075300  0.16383400  0.06032500  1
  Ti  Ti12  1  0.02784700  0.16428300  0.63539100  1
  Ti  Ti13  1  0.87815400  0.16398300  0.34119200  1
  S  S0  1  0.32906200  0.59210200  0.95785800  1
  S  S1  1  0.61820600  0.58815800  0.52926700  1
  S  S2  1  0.47516800  0.58839900  0.24343600  1
  S  S3  1  0.23866200  0.41183900  0.18494500  1
  S  S4  1  0.52483200  0.41160100  0.75656400  1
  S  S5  1  0.38179400  0.41184200  0.47073300  1
  S  S6  1  0.09642900  0.40806400  0.89963400  1
  S  S7  1  0.04512300  0.59259300  0.38746500  1
  S  S8  1  0.18645900  0.59245200  0.67121900  1
  S  S9  1  0.90357100  0.59193600  0.10036600  1
  S  S10  1  0.76133800  0.58816100  0.81505500  1
  S  S11  1  0.67093800  0.40789800  0.04214200  1
  S  S12  1  0.95487700  0.40740700  0.61253500  1
  S  S13  1  0.81354100  0.40754800  0.32878100  1
  O  O0  1  0.48841700  0.79919700  0.87074500  1
  O  O1  1  0.62632700  0.79935600  0.15794600  1
  O  O2  1  0.20188300  0.79945200  0.80112900  1
  O  O3  1  0.37367300  0.20064400  0.84205400  1
  O  O4  1  0.48483500  0.79938200  0.37187400  1
  O  O5  1  0.62987400  0.79946000  0.65678100  1
  O  O6  1  0.51158300  0.20080300  0.12925500  1
  O  O7  1  0.34438500  0.79875700  0.08584800  1
  O  O8  1  0.37012600  0.20054000  0.34321900  1
  O  O9  1  0.51516500  0.20061800  0.62812600  1
  O  O10  1  0.22939300  0.20115000  0.05713700  1
  O  O11  1  0.20942800  0.99996100  0.93087000  1
  O  O12  1  0.05363100  0.81210600  0.01338900  1
  O  O13  1  0.50000000  0.00000000  0.50000000  1
  O  O14  1  0.34413700  0.79878500  0.58630600  1
  O  O15  1  0.19947000  0.79893500  0.29925100  1
  O  O16  1  0.35560700  0.99995600  0.21464200  1
  O  O17  1  0.94636900  0.18789400  0.98661100  1
  O  O18  1  0.77060700  0.79885000  0.94286300  1
  O  O19  1  0.08465600  0.20080500  0.27047100  1
  O  O20  1  0.05339500  0.81282100  0.51347000  1
  O  O21  1  0.91253300  0.79948500  0.22754400  1
  O  O22  1  0.22932000  0.20094200  0.55752900  1
  O  O23  1  0.64439300  0.00004400  0.78535800  1
  O  O24  1  0.79057200  0.00003900  0.06913000  1
  O  O25  1  0.08746700  0.20051500  0.77245600  1
  O  O26  1  0.06982200  0.00004400  0.63985300  1
  O  O27  1  0.94660500  0.18717900  0.48653000  1
  O  O28  1  0.91534400  0.79919500  0.72952900  1
  O  O29  1  0.93017800  0.99995600  0.36014700  1
  O  O30  1  0.65561500  0.20124300  0.91415200  1
  O  O31  1  0.79811700  0.20054800  0.19887100  1
  O  O32  1  0.77068000  0.79905800  0.44247100  1
  O  O33  1  0.65586300  0.20121500  0.41369400  1
  O  O34  1  0.80053000  0.20106500  0.70074900  1
loop_
_geom_bond_atom_site_label_1
_geom_bond_atom_site_label_2
_geom_bond_distance
_geom_bond_site_symmetry_2
Li0 O11 1.876256 1_544
Li0 O24 1.876256 1_455
Li0 O17 2.137115 1_454
Li0 O12 2.137115 1_545
Li1 O26 1.881650 1_555
Li1 O29 1.881650 1_445
Li1 O27 2.128983 1_455
Li1 O20 2.128983 1_545
S0 Ti0 2.777276 1_555
S0 Y5 2.840454 1_556
S0 Y6 2.850041 1_555
S0 Y0 2.861121 1_556
S0 Y3 2.873882 1_555
S0 Y1 2.941133 1_555
S1 Y12 2.838224 1_555
S1 Y3 2.842450 1_555
S1 Y11 2.861407 1_555
S1 Ti1 2.864467 1_555
S1 Y4 2.866500 1_555
S1 Y13 2.920184 1_555
S2 Y12 2.845563 1_555
S2 Y0 2.857467 1_555
S2 Ti2 2.860815 1_555
S2 Y5 2.861364 1_555
S2 Y4 2.867724 1_555
S2 Y2 2.896830 1_555
S3 Y2 2.851533 1_555
S3 Y7 2.855136 1_455
S3 Y1 2.862890 1_554
S3 Ti3 2.864747 1_555
S3 Y8 2.865034 1_555
S3 Y5 2.913082 1_555
S4 Y9 2.845563 1_555
S4 Y1 2.857467 1_555
S4 Ti4 2.860815 1_555
S4 Y10 2.861364 1_555
S4 Y13 2.867724 1_555
S4 Y3 2.896830 1_555
S5 Y9 2.838224 1_555
S5 Y2 2.842450 1_555
S5 Y8 2.861407 1_555
S5 Ti5 2.864467 1_555
S5 Y13 2.866500 1_555
S5 Y4 2.920184 1_555
S6 Ti6 2.779458 1_555
S6 Y7 2.842115 1_456
S6 Y10 2.850151 1_455
S6 Y1 2.855805 1_555
S6 Y9 2.875783 1_555
S6 Y6 2.964669 1_555
S7 Ti7 2.766380 1_455
S7 Y11 2.845713 1_455
S7 Y4 2.850754 1_555
S7 Y12 2.868173 1_455
S7 Y5 2.868844 1_555
S7 Y8 2.977734 1_555
S8 Ti8 2.771441 1_555
S8 Y11 2.846631 1_455
S8 Y4 2.852955 1_555
S8 Y6 2.866010 1_555
S8 Y3 2.875128 1_555
S8 Y9 2.949033 1_555
S9 Ti9 2.779458 1_555
S9 Y6 2.842115 1_654
S9 Y5 2.850151 1_655
S9 Y0 2.855805 1_555
S9 Y12 2.875783 1_555
S9 Y7 2.964669 1_555
S10 Y3 2.851533 1_555
S10 Y6 2.855136 1_655
S10 Y0 2.862890 1_556
S10 Ti10 2.864747 1_555
S10 Y11 2.865034 1_555
S10 Y10 2.913082 1_555
S11 Ti11 2.777276 1_555
S11 Y10 2.840454 1_554
S11 Y7 2.850041 1_555
S11 Y1 2.861121 1_554
S11 Y2 2.873882 1_555
S11 Y0 2.941133 1_555
S12 Ti12 2.766380 1_655
S12 Y8 2.845713 1_655
S12 Y13 2.850754 1_555
S12 Y9 2.868173 1_655
S12 Y10 2.868844 1_555
S12 Y11 2.977734 1_555
S13 Ti13 2.771441 1_555
S13 Y8 2.846631 1_655
S13 Y13 2.852955 1_555
S13 Y7 2.866010 1_555
S13 Y2 2.875128 1_555
S13 Y12 2.949033 1_555
O0 Ti0 1.926006 1_555
O0 Ti10 1.973184 1_555
O0 Y0 2.443576 1_556
O0 Y3 2.449943 1_555
O1 Ti9 1.925261 1_555
O1 Ti2 1.973666 1_555
O1 Y0 2.444997 1_555
O1 Y12 2.447884 1_555
O2 Ti8 1.924511 1_555
O2 Ti0 1.973100 1_555
O2 Y6 2.447178 1_555
O2 Y3 2.461326 1_555
O3 Ti6 1.925261 1_555
O3 Ti4 1.973666 1_555
O3 Y1 2.444997 1_555
O3 Y9 2.447884 1_555
O4 Ti2 1.968380 1_555
O4 Ti1 1.976590 1_555
O4 Y4 2.417964 1_555
O4 Y12 2.430562 1_555
O5 Ti10 1.967491 1_555
O5 Ti1 1.976755 1_555
O5 Y11 2.413728 1_555
O5 Y3 2.435031 1_555
O6 Ti11 1.926006 1_555
O6 Ti3 1.973184 1_555
O6 Y1 2.443576 1_554
O6 Y2 2.449943 1_555
O7 Ti0 1.950805 1_554
O7 Ti2 1.982934 1_555
O7 Y5 2.430948 1_555
O7 Y0 2.435408 1_555
O8 Ti3 1.967491 1_555
O8 Ti5 1.976755 1_555
O8 Y8 2.413728 1_555
O8 Y2 2.435031 1_555
O9 Ti4 1.968380 1_555
O9 Ti5 1.976590 1_555
O9 Y13 2.417964 1_555
O9 Y9 2.430562 1_555
O10 Ti6 1.951908 1_554
O10 Ti3 1.983324 1_555
O10 Y7 2.423646 1_455
O10 Y1 2.434070 1_554
O11 Ti0 1.866409 1_555
O11 Ti6 1.866867 1_565
O12 Ti9 2.006303 1_455
O12 Ti0 2.006680 1_554
O12 Y6 2.520460 1_554
O12 Y5 2.527283 1_555
O13 Ti5 1.819847 1_555
O13 Ti1 1.819847 1_545
O14 Ti8 1.963575 1_555
O14 Ti1 1.973271 1_555
O14 Y3 2.431985 1_555
O14 Y4 2.433013 1_555
O15 Ti2 1.963924 1_555
O15 Ti7 1.974145 1_455
O15 Y5 2.421899 1_555
O15 Y4 2.438968 1_555
O16 Ti3 1.820117 1_565
O16 Ti2 1.820401 1_555
O17 Ti6 2.006303 1_655
O17 Ti11 2.006680 1_556
O17 Y7 2.520460 1_556
O17 Y10 2.527283 1_555
O18 Ti9 1.951908 1_556
O18 Ti10 1.983324 1_555
O18 Y6 2.423646 1_655
O18 Y0 2.434070 1_556
O19 Ti3 1.964158 1_555
O19 Ti13 1.976222 1_455
O19 Y7 2.418058 1_455
O19 Y8 2.437716 1_555
O20 Ti8 2.001639 1_555
O20 Ti7 2.002396 1_455
O20 Y11 2.527005 1_455
O20 Y4 2.533299 1_555
O21 Ti7 1.924456 1_555
O21 Ti9 1.971749 1_555
O21 Y5 2.451430 1_655
O21 Y12 2.456310 1_555
O22 Ti12 1.964672 1_555
O22 Ti5 1.972721 1_555
O22 Y9 2.429506 1_555
O22 Y8 2.429790 1_555
O23 Ti10 1.820117 1_545
O23 Ti4 1.820401 1_555
O24 Ti11 1.866409 1_555
O24 Ti9 1.866867 1_545
O25 Ti12 1.924456 1_555
O25 Ti6 1.971749 1_555
O25 Y10 2.451430 1_455
O25 Y9 2.456310 1_555
O26 Ti8 1.868553 1_545
O26 Ti12 1.870915 1_555
O27 Ti13 2.001639 1_555
O27 Ti12 2.002396 1_655
O27 Y8 2.527005 1_655
O27 Y13 2.533299 1_555
O28 Ti10 1.964158 1_555
O28 Ti8 1.976222 1_655
O28 Y6 2.418058 1_655
O28 Y11 2.437716 1_555
O29 Ti13 1.868553 1_565
O29 Ti7 1.870915 1_555
O30 Ti11 1.950805 1_556
O30 Ti4 1.982934 1_555
O30 Y10 2.430948 1_555
O30 Y1 2.435408 1_555
O31 Ti13 1.924511 1_555
O31 Ti11 1.973100 1_555
O31 Y7 2.447178 1_555
O31 Y2 2.461326 1_555
O32 Ti7 1.964672 1_555
O32 Ti1 1.972721 1_555
O32 Y12 2.429506 1_555
O32 Y11 2.429790 1_555
O33 Ti13 1.963575 1_555
O33 Ti5 1.973271 1_555
O33 Y2 2.431985 1_555
O33 Y13 2.433013 1_555
O34 Ti4 1.963924 1_555
O34 Ti12 1.974145 1_655
O34 Y10 2.421899 1_555
O34 Y13 2.438968 1_555
