# generated using pymatgen
data_Li2CrCo3O8
_symmetry_space_group_name_H-M   'P 1'
_cell_length_a   5.77601884
_cell_length_b   5.93455783
_cell_length_c   8.21590074
_cell_angle_alpha   87.94673489
_cell_angle_beta   89.99620575
_cell_angle_gamma   89.92960625
_symmetry_Int_Tables_number   1
_chemical_formula_structural   Li2CrCo3O8
_chemical_formula_sum   'Li4 Cr2 Co6 O16'
_cell_volume   281.44458342
_cell_formula_units_Z   2
loop_
 _symmetry_equiv_pos_site_id
 _symmetry_equiv_pos_as_xyz
  1  'x, y, z'
loop_
 _atom_site_type_symbol
 _atom_site_label
 _atom_site_symmetry_multiplicity
 _atom_site_fract_x
 _atom_site_fract_y
 _atom_site_fract_z
 _atom_site_occupancy
  Li  Li0  1  0.50014300  0.99999300  0.50002200  1
  Li  Li1  1  0.00003100  0.50002400  0.99997600  1
  Li  Li2  1  0.00000300  0.99999200  0.49998600  1
  Li  Li3  1  0.49995500  0.50000800  0.00000900  1
  Cr  Cr0  1  0.50025100  0.49997500  0.50000000  1
  Cr  Cr1  1  0.99967400  0.00003400  0.99997700  1
  Co  Co0  1  0.49978500  0.00002600  0.99998500  1
  Co  Co1  1  0.00032600  0.49999100  0.50003500  1
  Co  Co2  1  0.25202500  0.75320300  0.24843600  1
  Co  Co3  1  0.74793000  0.24687000  0.75156700  1
  Co  Co4  1  0.74820100  0.75299100  0.24821800  1
  Co  Co5  1  0.25176300  0.24695300  0.75176300  1
  O  O0  1  0.49992400  0.96363200  0.23467900  1
  O  O1  1  0.99994000  0.45669100  0.74249200  1
  O  O2  1  0.49977900  0.03634000  0.76531600  1
  O  O3  1  0.00041600  0.54332700  0.25753100  1
  O  O4  1  0.99972600  0.96037900  0.24231400  1
  O  O5  1  0.49987800  0.45612600  0.74495900  1
  O  O6  1  0.99998700  0.03960600  0.75772400  1
  O  O7  1  0.50029500  0.54385700  0.25501600  1
  O  O8  1  0.74734300  0.26330700  0.52292100  1
  O  O9  1  0.25661700  0.77264100  0.01961900  1
  O  O10  1  0.25190000  0.26495600  0.52271700  1
  O  O11  1  0.74311500  0.77278700  0.01962800  1
  O  O12  1  0.74861300  0.73502100  0.47726100  1
  O  O13  1  0.25634800  0.22727200  0.98040500  1
  O  O14  1  0.25316500  0.73679300  0.47707700  1
  O  O15  1  0.74286800  0.22720400  0.98036800  1
loop_
_geom_bond_atom_site_label_1
_geom_bond_atom_site_label_2
_geom_bond_distance
_geom_bond_site_symmetry_2
Li0 O14 2.130014 1_555
Li0 O8 2.131329 1_565
Li0 O10 2.139791 1_565
Li0 O12 2.140770 1_555
Li0 O2 2.197954 1_565
Li0 O0 2.198366 1_555
Li1 O1 2.140163 1_455
Li1 O3 2.140716 1_556
Li1 O13 2.202387 1_555
Li1 O11 2.204825 1_456
Li1 O9 2.205587 1_556
Li1 O15 2.208689 1_455
Li2 O4 2.138376 1_455
Li2 O6 2.138915 1_465
Li2 O8 2.150029 1_465
Li2 O14 2.151470 1_555
Li2 O12 2.154682 1_455
Li2 O10 2.156635 1_565
Li3 O7 2.120445 1_555
Li3 O5 2.120825 1_554
Li3 O15 2.151470 1_554
Li3 O9 2.152278 1_555
Li3 O11 2.154877 1_555
Li3 O13 2.156358 1_554
Cr0 O8 2.005298 1_555
Cr0 O14 2.005894 1_555
Cr0 O10 2.006010 1_555
Cr0 O12 2.006179 1_555
Cr0 O5 2.020046 1_555
Cr0 O7 2.020267 1_555
Cr1 O6 1.995761 1_555
Cr1 O4 1.996486 1_546
Cr1 O15 2.005805 1_555
Cr1 O9 2.007290 1_646
Cr1 O11 2.007508 1_546
Cr1 O13 2.007927 1_655
Co0 O2 1.932335 1_555
Co0 O0 1.932576 1_546
Co0 O11 1.949311 1_546
Co0 O13 1.949755 1_555
Co0 O15 1.950394 1_555
Co0 O9 1.951602 1_546
Co1 O1 1.999358 1_455
Co1 O3 1.999759 1_555
Co1 O10 2.016976 1_555
Co1 O12 2.017585 1_455
Co1 O14 2.032062 1_555
Co1 O8 2.032138 1_455
Co2 O14 1.877538 1_555
Co2 O9 1.879531 1_555
Co2 O7 1.895688 1_555
Co2 O0 1.901786 1_555
Co2 O4 1.905006 1_455
Co2 O3 1.914875 1_555
Co3 O8 1.877573 1_555
Co3 O15 1.879475 1_555
Co3 O5 1.894388 1_555
Co3 O2 1.903274 1_555
Co3 O6 1.904275 1_555
Co3 O1 1.916421 1_555
Co4 O11 1.877767 1_555
Co4 O12 1.880997 1_555
Co4 O7 1.895586 1_555
Co4 O0 1.901890 1_555
Co4 O4 1.904701 1_555
Co4 O3 1.914431 1_655
Co5 O13 1.878133 1_555
Co5 O10 1.881024 1_555
Co5 O5 1.896651 1_555
Co5 O2 1.900650 1_555
Co5 O6 1.905652 1_455
Co5 O1 1.912989 1_455
