# generated using pymatgen
data_Li3Mn4O8
_symmetry_space_group_name_H-M   'P 1'
_cell_length_a   5.77976950
_cell_length_b   5.81210056
_cell_length_c   6.07399368
_cell_angle_alpha   61.19842796
_cell_angle_beta   118.31787018
_cell_angle_gamma   90.29187755
_symmetry_Int_Tables_number   1
_chemical_formula_structural   Li3Mn4O8
_chemical_formula_sum   'Li3 Mn4 O8'
_cell_volume   150.65550375
_cell_formula_units_Z   1
loop_
 _symmetry_equiv_pos_site_id
 _symmetry_equiv_pos_as_xyz
  1  'x, y, z'
loop_
 _atom_site_type_symbol
 _atom_site_label
 _atom_site_symmetry_multiplicity
 _atom_site_fract_x
 _atom_site_fract_y
 _atom_site_fract_z
 _atom_site_occupancy
  Li  Li0  1  0.50000000  0.50000000  0.00000100  1
  Li  Li1  1  0.00000000  0.50000000  0.50000000  1
  Li  Li2  1  0.00000000  0.00000000  0.50000100  1
  Mn  Mn0  1  0.49999700  0.99999600  0.99999300  1
  Mn  Mn1  1  0.50000100  0.99999700  0.50000400  1
  Mn  Mn2  1  0.99999800  0.99999800  0.00000000  1
  Mn  Mn3  1  0.50000500  0.50000400  0.49999600  1
  O  O0  1  0.70303900  0.78051800  0.43813700  1
  O  O1  1  0.29696000  0.21948300  0.56186400  1
  O  O2  1  0.71861500  0.25526800  0.48837900  1
  O  O3  1  0.28138400  0.74473300  0.51162300  1
  O  O4  1  0.25270500  0.77968600  0.99449200  1
  O  O5  1  0.25258600  0.22547600  0.99489300  1
  O  O6  1  0.74741600  0.77452700  0.00510900  1
  O  O7  1  0.74729500  0.22031500  0.00550900  1
loop_
_geom_bond_atom_site_label_1
_geom_bond_atom_site_label_2
_geom_bond_distance
_geom_bond_site_symmetry_2
Li0 O5 2.138698 1_554
Li0 O6 2.138718 1_555
Li0 O7 2.147645 1_555
Li0 O4 2.147646 1_554
Li0 O3 2.194538 1_554
Li0 O2 2.194538 1_555
Li1 O1 2.138129 1_555
Li1 O0 2.138141 1_455
Li1 O3 2.153478 1_555
Li1 O2 2.153479 1_455
Li1 O6 2.225283 1_455
Li1 O5 2.225290 1_555
Li2 O1 2.131216 1_555
Li2 O0 2.131217 1_445
Li2 O3 2.160064 1_545
Li2 O2 2.160072 1_455
Li2 O4 2.223832 1_545
Li2 O7 2.223836 1_455
Mn0 O4 1.913334 1_555
Mn0 O7 1.913393 1_566
Mn0 O6 1.923774 1_556
Mn0 O5 1.923848 1_565
Mn0 O1 1.966664 1_565
Mn0 O0 1.966732 1_556
Mn1 O3 1.940952 1_555
Mn1 O2 1.940970 1_565
Mn1 O0 2.010248 1_555
Mn1 O1 2.010256 1_565
Mn1 O6 2.271054 1_556
Mn1 O5 2.271079 1_564
Mn2 O6 1.958004 1_555
Mn2 O5 1.958056 1_664
Mn2 O4 1.969961 1_654
Mn2 O7 1.969967 1_565
Mn2 O2 2.300102 1_564
Mn2 O3 2.300112 1_655
Mn3 O2 1.955598 1_555
Mn3 O3 1.955652 1_555
Mn3 O0 1.996230 1_555
Mn3 O1 1.996306 1_555
Mn3 O4 2.272384 1_554
Mn3 O7 2.272426 1_556
