# generated using pymatgen
data_LiCaP3H8O13
_symmetry_space_group_name_H-M   'P 1'
_cell_length_a   7.31328500
_cell_length_b   7.85939499
_cell_length_c   10.23729238
_cell_angle_alpha   84.97141633
_cell_angle_beta   74.68269973
_cell_angle_gamma   77.11381191
_symmetry_Int_Tables_number   1
_chemical_formula_structural   LiCaP3H8O13
_chemical_formula_sum   'Li2 Ca2 P6 H16 O26'
_cell_volume   552.96558535
_cell_formula_units_Z   2
loop_
 _symmetry_equiv_pos_site_id
 _symmetry_equiv_pos_as_xyz
  1  'x, y, z'
loop_
 _atom_site_type_symbol
 _atom_site_label
 _atom_site_symmetry_multiplicity
 _atom_site_fract_x
 _atom_site_fract_y
 _atom_site_fract_z
 _atom_site_occupancy
  Li  Li0  1  0.00000000  0.50000000  0.50000000  1
  Li  Li1  1  0.00000000  0.00000000  0.00000000  1
  Ca  Ca0  1  0.17585000  0.19242900  0.24235000  1
  Ca  Ca1  1  0.82415000  0.80757100  0.75765000  1
  P  P0  1  0.24377900  0.79728400  0.47981300  1
  P  P1  1  0.75622100  0.20271600  0.52018700  1
  P  P2  1  0.40649300  0.54018000  0.27098700  1
  P  P3  1  0.59350700  0.45982000  0.72901300  1
  P  P4  1  0.67128000  0.19633700  0.25853400  1
  P  P5  1  0.32872000  0.80366300  0.74146600  1
  H  H0  1  0.35036200  0.37855400  0.98991900  1
  H  H1  1  0.64963800  0.62144600  0.01008100  1
  H  H2  1  0.14686500  0.34653900  0.98645600  1
  H  H3  1  0.85313500  0.65346100  0.01354400  1
  H  H4  1  0.64083600  0.02668200  0.03657100  1
  H  H5  1  0.35916400  0.97331800  0.96342900  1
  H  H6  1  0.69361500  0.13259800  0.90049500  1
  H  H7  1  0.30638500  0.86740200  0.09950500  1
  H  H8  1  0.30774200  0.30402400  0.59949200  1
  H  H9  1  0.69225800  0.69597600  0.40050800  1
  H  H10  1  0.18312700  0.18065200  0.57087400  1
  H  H11  1  0.81687300  0.81934800  0.42912600  1
  H  H12  1  0.07742400  0.25797600  0.79780300  1
  H  H13  1  0.92257600  0.74202400  0.20219700  1
  H  H14  1  0.90206300  0.33455600  0.91665300  1
  H  H15  1  0.09793700  0.66544400  0.08334700  1
  O  O0  1  0.08909400  0.70442700  0.56056900  1
  O  O1  1  0.91090600  0.29557300  0.43943100  1
  O  O2  1  0.19290700  0.95113200  0.39048800  1
  O  O3  1  0.80709300  0.04886800  0.60951200  1
  O  O4  1  0.42213600  0.65498000  0.39221500  1
  O  O5  1  0.57786400  0.34502000  0.60778500  1
  O  O6  1  0.64060000  0.14727400  0.42044000  1
  O  O7  1  0.35940000  0.85272600  0.57956000  1
  O  O8  1  0.24381300  0.44533300  0.32659100  1
  O  O9  1  0.75618700  0.55466700  0.67340900  1
  O  O10  1  0.41425500  0.64960100  0.14272800  1
  O  O11  1  0.58574500  0.35039900  0.85727200  1
  O  O12  1  0.61525800  0.40816700  0.25525500  1
  O  O13  1  0.38474200  0.59183300  0.74474500  1
  O  O14  1  0.88190000  0.14565500  0.18799100  1
  O  O15  1  0.11810000  0.85434500  0.81200900  1
  O  O16  1  0.52697600  0.12302700  0.21200300  1
  O  O17  1  0.47302400  0.87697300  0.78799700  1
  O  O18  1  0.78421700  0.61344800  0.95388500  1
  O  O19  1  0.21578300  0.38655200  0.04611500  1
  O  O20  1  0.72785300  0.01618600  0.94426900  1
  O  O21  1  0.27214700  0.98381400  0.05573100  1
  O  O22  1  0.17432500  0.28638400  0.61771000  1
  O  O23  1  0.82567500  0.71361600  0.38229000  1
  O  O24  1  0.02443200  0.24800500  0.89752700  1
  O  O25  1  0.97556800  0.75199500  0.10247300  1
loop_
_geom_bond_atom_site_label_1
_geom_bond_atom_site_label_2
_geom_bond_distance
_geom_bond_site_symmetry_2
Li0 O0 2.060448 1_555
Li0 O1 2.060448 1_455
Li0 O8 2.152921 1_555
Li0 O9 2.152921 1_455
Li0 O23 2.323453 1_455
Li0 O22 2.323453 1_555
Li1 O25 2.151635 1_445
Li1 O24 2.151635 1_554
Li1 O21 2.185685 1_545
Li1 O20 2.185685 1_454
Li1 O14 2.197100 1_455
Li1 O15 2.197100 1_544
Ca0 O2 2.324262 1_545
Ca0 O19 2.408365 1_555
Ca0 O8 2.430891 1_555
Ca0 O16 2.443676 1_555
Ca0 O1 2.450071 1_455
Ca0 O14 2.467103 1_455
Ca0 O21 2.481408 1_545
Ca1 O3 2.324262 1_565
Ca1 O18 2.408365 1_555
Ca1 O9 2.430891 1_555
Ca1 O17 2.443676 1_555
Ca1 O0 2.450071 1_655
Ca1 O15 2.467103 1_655
Ca1 O20 2.481408 1_565
H0 O19 0.991560 1_556
H1 O18 0.991560 1_554
H2 O19 0.996465 1_556
H3 O18 0.996465 1_554
H4 O20 0.988541 1_554
H5 O21 0.988541 1_556
H6 O20 0.992891 1_555
H7 O21 0.992891 1_555
H8 O22 0.982694 1_555
H9 O23 0.982694 1_555
H10 O22 0.976865 1_555
H11 O23 0.976865 1_555
H12 O24 0.994518 1_555
H13 O25 0.994518 1_555
H14 O24 0.980403 1_655
H15 O25 0.980403 1_455
O0 P0 1.504718 1_555
O1 P1 1.504718 1_555
O2 P0 1.490615 1_555
O3 P1 1.490615 1_555
O4 P0 1.632053 1_555
O4 P2 1.638506 1_555
O5 P1 1.632053 1_555
O5 P3 1.638506 1_555
O6 P1 1.626686 1_555
O6 P4 1.635951 1_555
O7 P0 1.626686 1_555
O7 P5 1.635951 1_555
O8 P2 1.502843 1_555
O9 P3 1.502843 1_555
O10 P2 1.500424 1_555
O11 P3 1.500424 1_555
O12 P2 1.620574 1_555
O12 P4 1.622948 1_555
O13 P3 1.620574 1_555
O13 P5 1.622948 1_555
O14 P4 1.497283 1_555
O15 P5 1.497283 1_555
O16 P4 1.502512 1_555
O17 P5 1.502512 1_555
