# generated using pymatgen
data_K2ScPCO7
_symmetry_space_group_name_H-M   'P 1'
_cell_length_a   6.91103700
_cell_length_b   5.72284400
_cell_length_c   9.78340370
_cell_angle_alpha   89.01567964
_cell_angle_beta   90.00000000
_cell_angle_gamma   90.00000000
_symmetry_Int_Tables_number   1
_chemical_formula_structural   K2ScPCO7
_chemical_formula_sum   'K4 Sc2 P2 C2 O14'
_cell_volume   386.88421278
_cell_formula_units_Z   2
loop_
 _symmetry_equiv_pos_site_id
 _symmetry_equiv_pos_as_xyz
  1  'x, y, z'
loop_
 _atom_site_type_symbol
 _atom_site_label
 _atom_site_symmetry_multiplicity
 _atom_site_fract_x
 _atom_site_fract_y
 _atom_site_fract_z
 _atom_site_occupancy
  K  K0  1  0.48326900  0.24727000  0.76619300  1
  K  K1  1  0.01673100  0.24727000  0.76619300  1
  K  K2  1  0.51673100  0.75273000  0.23380700  1
  K  K3  1  0.98326900  0.75273000  0.23380700  1
  Sc  Sc0  1  0.75000000  0.77578400  0.63907100  1
  Sc  Sc1  1  0.25000000  0.22421600  0.36092900  1
  P  P0  1  0.25000000  0.71779900  0.56685000  1
  P  P1  1  0.75000000  0.28220100  0.43315000  1
  C  C0  1  0.75000000  0.72967300  0.90310500  1
  C  C1  1  0.25000000  0.27032700  0.09689500  1
  O  O0  1  0.25000000  0.29703700  0.96982300  1
  O  O1  1  0.75000000  0.93510800  0.83950500  1
  O  O2  1  0.75000000  0.55236400  0.81700200  1
  O  O3  1  0.06422800  0.76246700  0.65118500  1
  O  O4  1  0.43577200  0.76246700  0.65118500  1
  O  O5  1  0.75000000  0.11806500  0.56268800  1
  O  O6  1  0.25000000  0.45659000  0.52042000  1
  O  O7  1  0.75000000  0.54341000  0.47958000  1
  O  O8  1  0.25000000  0.88193500  0.43731200  1
  O  O9  1  0.56422800  0.23753300  0.34881500  1
  O  O10  1  0.93577200  0.23753300  0.34881500  1
  O  O11  1  0.25000000  0.44763600  0.18299800  1
  O  O12  1  0.25000000  0.06489200  0.16049500  1
  O  O13  1  0.75000000  0.70296300  0.03017700  1
loop_
_geom_bond_atom_site_label_1
_geom_bond_atom_site_label_2
_geom_bond_distance
_geom_bond_site_symmetry_2
K0 O0 2.582327 1_555
K0 O2 2.592976 1_555
K0 O1 2.657049 1_545
K0 O5 2.821235 1_555
K0 O4 3.029620 1_545
K0 O6 3.117144 1_555
K0 O4 3.154805 1_555
K1 O0 2.582327 1_555
K1 O2 2.592976 1_455
K1 O1 2.657049 1_445
K1 O5 2.821235 1_455
K1 O3 3.029620 1_545
K1 O6 3.117144 1_555
K1 O3 3.154805 1_555
K2 O13 2.582327 1_555
K2 O11 2.592976 1_555
K2 O12 2.657049 1_565
K2 O8 2.821235 1_555
K2 O9 3.029620 1_565
K2 O7 3.117144 1_555
K2 O9 3.154805 1_555
K3 O13 2.582327 1_555
K3 O11 2.592976 1_655
K3 O12 2.657049 1_665
K3 O8 2.821235 1_655
K3 O10 3.029620 1_565
K3 O7 3.117144 1_555
K3 O10 3.154805 1_555
C0 O13 1.249950 1_556
C0 O1 1.320695 1_555
C0 O2 1.329892 1_555
C1 O0 1.249950 1_554
C1 O12 1.320695 1_555
C1 O11 1.329892 1_555
O1 Sc0 2.176699 1_555
O2 Sc0 2.142107 1_555
O3 P0 1.549740 1_555
O3 Sc0 2.176136 1_455
O4 P0 1.549740 1_555
O4 Sc0 2.176136 1_555
O5 P1 1.564461 1_555
O5 Sc0 2.084496 1_545
O6 P0 1.569799 1_555
O6 Sc1 2.067488 1_555
O7 P1 1.569799 1_555
O7 Sc0 2.067488 1_555
O8 P0 1.564461 1_555
O8 Sc1 2.084496 1_565
O9 P1 1.549740 1_555
O9 Sc1 2.176136 1_555
O10 P1 1.549740 1_555
O10 Sc1 2.176136 1_655
O11 Sc1 2.142107 1_555
O12 Sc1 2.176699 1_555
