# generated using pymatgen
data_Na2LiFePCO7
_symmetry_space_group_name_H-M   'P 1'
_cell_length_a   6.73550700
_cell_length_b   8.81609042
_cell_length_c   10.22201832
_cell_angle_alpha   91.77111997
_cell_angle_beta   90.37089989
_cell_angle_gamma   90.37559295
_symmetry_Int_Tables_number   1
_chemical_formula_structural   Na2LiFePCO7
_chemical_formula_sum   'Na8 Li4 Fe4 P4 C4 O28'
_cell_volume   606.67547182
_cell_formula_units_Z   4
loop_
 _symmetry_equiv_pos_site_id
 _symmetry_equiv_pos_as_xyz
  1  'x, y, z'
loop_
 _atom_site_type_symbol
 _atom_site_label
 _atom_site_symmetry_multiplicity
 _atom_site_fract_x
 _atom_site_fract_y
 _atom_site_fract_z
 _atom_site_occupancy
  Na  Na0  1  0.25493700  0.08283900  0.12180300  1
  Na  Na1  1  0.99863400  0.25978800  0.37422200  1
  Na  Na2  1  0.00212700  0.26151000  0.87399500  1
  Na  Na3  1  0.50132500  0.26173800  0.87467100  1
  Na  Na4  1  0.50284600  0.74091800  0.12560700  1
  Na  Na5  1  0.99577400  0.74002300  0.12574400  1
  Na  Na6  1  0.50171600  0.73765200  0.62326600  1
  Na  Na7  1  0.99951900  0.73753500  0.62268100  1
  Li  Li0  1  0.25461200  0.08719600  0.62230600  1
  Li  Li1  1  0.48009000  0.27322300  0.38265900  1
  Li  Li2  1  0.74206200  0.90852200  0.37767000  1
  Li  Li3  1  0.75011600  0.91048300  0.87255700  1
  Fe  Fe0  1  0.74707900  0.35351500  0.11182900  1
  Fe  Fe1  1  0.74744500  0.34712800  0.60567400  1
  Fe  Fe2  1  0.24936900  0.64767600  0.38569200  1
  Fe  Fe3  1  0.25124000  0.64972100  0.89014200  1
  P  P0  1  0.25246700  0.40952900  0.14919100  1
  P  P1  1  0.25019900  0.40626700  0.64300400  1
  P  P2  1  0.74369600  0.59243700  0.35160200  1
  P  P3  1  0.75166300  0.59191400  0.85206100  1
  C  C0  1  0.74859500  0.05295700  0.13818900  1
  C  C1  1  0.74961600  0.05003400  0.63697800  1
  C  C2  1  0.25884900  0.95448700  0.37277600  1
  C  C3  1  0.25056200  0.94272200  0.85855500  1
  O  O0  1  0.27524000  0.09770700  0.35194300  1
  O  O1  1  0.24881300  0.08688300  0.84180500  1
  O  O2  1  0.74989900  0.09012400  0.01580700  1
  O  O3  1  0.75046600  0.09119500  0.51561600  1
  O  O4  1  0.74439600  0.15846700  0.23028500  1
  O  O5  1  0.74638000  0.15363800  0.73112200  1
  O  O6  1  0.06465900  0.31401300  0.11050500  1
  O  O7  1  0.43440800  0.31588000  0.10261400  1
  O  O8  1  0.06254100  0.30816600  0.60631800  1
  O  O9  1  0.42982700  0.30539300  0.59875700  1
  O  O10  1  0.26380500  0.42960300  0.30241400  1
  O  O11  1  0.72946300  0.43395200  0.41388500  1
  O  O12  1  0.25624600  0.43458400  0.79450900  1
  O  O13  1  0.75456500  0.43853700  0.92081600  1
  O  O14  1  0.24813800  0.56830400  0.08869700  1
  O  O15  1  0.74446600  0.56778700  0.19978100  1
  O  O16  1  0.25109100  0.56116500  0.57616400  1
  O  O17  1  0.75099600  0.56143500  0.70120500  1
  O  O18  1  0.56725900  0.69774800  0.39125200  1
  O  O19  1  0.93262300  0.68471300  0.39457200  1
  O  O20  1  0.56764800  0.69061500  0.89110700  1
  O  O21  1  0.93585200  0.69331600  0.89110300  1
  O  O22  1  0.24872700  0.85626200  0.27354100  1
  O  O23  1  0.25144700  0.84914800  0.75800100  1
  O  O24  1  0.25116600  0.90432000  0.49076300  1
  O  O25  1  0.25193900  0.88637400  0.97570600  1
  O  O26  1  0.75175500  0.91204800  0.17147800  1
  O  O27  1  0.75164200  0.90880800  0.66736200  1
loop_
_geom_bond_atom_site_label_1
_geom_bond_atom_site_label_2
_geom_bond_distance
_geom_bond_site_symmetry_2
Na0 O25 2.251652 1_544
Na0 O0 2.355134 1_555
Na0 O7 2.390852 1_555
Na0 O6 2.420003 1_555
Na0 O22 2.566890 1_545
Na0 O1 2.863502 1_554
Na1 O0 2.363267 1_655
Na1 O4 2.400246 1_555
Na1 O11 2.411739 1_555
Na1 O8 2.432636 1_655
Na1 O10 2.453563 1_655
Na1 O3 2.687694 1_555
Na1 O6 2.790269 1_655
Na2 O1 2.290957 1_555
Na2 O13 2.333129 1_455
Na2 O5 2.421721 1_455
Na2 O12 2.445074 1_555
Na2 O6 2.480236 1_556
Na2 O2 2.721059 1_456
Na2 O8 2.811289 1_555
Na3 O1 2.303938 1_555
Na3 O13 2.338944 1_555
Na3 O5 2.398189 1_555
Na3 O7 2.409923 1_556
Na3 O12 2.410613 1_555
Na3 O2 2.703790 1_556
Na3 O9 2.895967 1_555
Na4 O26 2.284668 1_555
Na4 O14 2.307230 1_555
Na4 O15 2.375133 1_555
Na4 O20 2.466468 1_554
Na4 O22 2.492323 1_555
Na4 O25 2.639080 1_554
Na4 O18 2.785215 1_555
Na5 O26 2.284466 1_555
Na5 O14 2.308945 1_655
Na5 O15 2.407811 1_555
Na5 O21 2.451432 1_554
Na5 O22 2.466482 1_655
Na5 O25 2.668584 1_654
Na5 O19 2.839938 1_555
Na6 O27 2.286620 1_555
Na6 O16 2.326176 1_555
Na6 O23 2.381745 1_555
Na6 O18 2.430514 1_555
Na6 O17 2.441463 1_555
Na6 O24 2.639586 1_555
Na6 O20 2.814603 1_555
Na7 O27 2.297033 1_555
Na7 O16 2.348250 1_655
Na7 O23 2.371609 1_655
Na7 O19 2.402789 1_555
Na7 O17 2.432483 1_555
Na7 O24 2.640610 1_655
Na7 O21 2.818430 1_555
Li0 O24 2.067132 1_545
Li0 O1 2.244402 1_555
Li0 O9 2.270170 1_555
Li0 O8 2.354868 1_555
Li0 O23 2.551179 1_545
Li1 O0 2.081598 1_555
Li1 O10 2.185529 1_555
Li1 O11 2.205654 1_555
Li1 O9 2.246499 1_555
Li1 O4 2.565327 1_555
Li2 O3 2.107732 1_565
Li2 O26 2.110314 1_555
Li2 O18 2.201775 1_555
Li2 O19 2.371054 1_555
Li3 O27 2.097195 1_555
Li3 O2 2.123464 1_566
Li3 O20 2.301790 1_555
Li3 O21 2.305933 1_555
Fe0 O15 2.067059 1_555
Fe0 O13 2.113773 1_554
Fe0 O7 2.130851 1_555
Fe0 O4 2.133536 1_555
Fe0 O6 2.169539 1_655
Fe0 O2 2.493143 1_555
Fe1 O17 2.099730 1_555
Fe1 O11 2.129537 1_555
Fe1 O8 2.152170 1_655
Fe1 O5 2.165511 1_555
Fe1 O9 2.168680 1_555
Fe1 O3 2.410672 1_555
Fe2 O10 2.081508 1_555
Fe2 O16 2.112885 1_555
Fe2 O19 2.162464 1_455
Fe2 O18 2.183370 1_555
Fe2 O22 2.196868 1_555
Fe2 O24 2.474329 1_555
Fe3 O12 2.107313 1_555
Fe3 O20 2.159025 1_555
Fe3 O21 2.161295 1_455
Fe3 O14 2.173812 1_556
Fe3 O25 2.237165 1_555
Fe3 O23 2.249991 1_555
C0 O26 1.298404 1_545
C0 O2 1.303021 1_555
C0 O4 1.303400 1_555
C1 O27 1.292632 1_545
C1 O3 1.303306 1_555
C1 O5 1.306538 1_555
C2 O0 1.291084 1_565
C2 O24 1.298599 1_555
C2 O22 1.314359 1_555
C3 O1 1.287771 1_565
C3 O23 1.298008 1_555
C3 O25 1.310575 1_555
O6 P0 1.557122 1_555
O7 P0 1.551326 1_555
O8 P1 1.563884 1_555
O9 P1 1.567036 1_555
O10 P0 1.572077 1_555
O11 P2 1.555880 1_555
O12 P1 1.561270 1_555
O13 P3 1.543259 1_555
O14 P0 1.548034 1_555
O15 P2 1.560440 1_555
O16 P1 1.545743 1_555
O17 P3 1.557058 1_555
O18 P2 1.560760 1_555
O19 P2 1.559213 1_555
O20 P3 1.565807 1_555
O21 P3 1.566701 1_555
