# generated using pymatgen
data_Li2Fe(CO3)2
_symmetry_space_group_name_H-M   'P 1'
_cell_length_a   5.39062936
_cell_length_b   6.05659826
_cell_length_c   7.92618843
_cell_angle_alpha   72.31844320
_cell_angle_beta   90.00003203
_cell_angle_gamma   89.99967847
_symmetry_Int_Tables_number   1
_chemical_formula_structural   Li2Fe(CO3)2
_chemical_formula_sum   'Li4 Fe2 C4 O12'
_cell_volume   246.55614319
_cell_formula_units_Z   2
loop_
 _symmetry_equiv_pos_site_id
 _symmetry_equiv_pos_as_xyz
  1  'x, y, z'
loop_
 _atom_site_type_symbol
 _atom_site_label
 _atom_site_symmetry_multiplicity
 _atom_site_fract_x
 _atom_site_fract_y
 _atom_site_fract_z
 _atom_site_occupancy
  Li  Li0  1  0.24999900  0.24999300  0.25000300  1
  Li  Li1  1  0.74999800  0.74999200  0.75000300  1
  Li  Li2  1  0.74999700  0.24999400  0.25000300  1
  Li  Li3  1  0.24999900  0.74999300  0.75000300  1
  Fe  Fe0  1  0.50000000  0.49999800  0.50000200  1
  Fe  Fe1  1  0.99999800  0.00000000  0.00000200  1
  C  C0  1  0.49999900  0.67883600  0.08054100  1
  C  C1  1  0.99999900  0.17883900  0.58054000  1
  C  C2  1  0.00000000  0.82115700  0.41946200  1
  C  C3  1  0.50000000  0.32116000  0.91946100  1
  O  O0  1  0.50000200  0.50544800  0.22822200  1
  O  O1  1  0.00000200  0.00544500  0.72822100  1
  O  O2  1  0.00000100  0.99455500  0.27178000  1
  O  O3  1  0.50000100  0.49455200  0.77177900  1
  O  O4  1  0.70859400  0.75537400  0.00534000  1
  O  O5  1  0.20859500  0.25537000  0.50534500  1
  O  O6  1  0.29140700  0.75537300  0.00534100  1
  O  O7  1  0.79140600  0.25537000  0.50534600  1
  O  O8  1  0.20859400  0.74462900  0.49465400  1
  O  O9  1  0.70859400  0.24462500  0.99466000  1
  O  O10  1  0.79140200  0.74462900  0.49465400  1
  O  O11  1  0.29140300  0.24462500  0.99465900  1
loop_
_geom_bond_atom_site_label_1
_geom_bond_atom_site_label_2
_geom_bond_distance
_geom_bond_site_symmetry_2
Li0 O2 2.019215 1_545
Li0 O0 2.019304 1_555
Li0 O11 2.046224 1_554
Li0 O5 2.046226 1_555
Li1 O3 2.019221 1_555
Li1 O1 2.019298 1_665
Li1 O4 2.046196 1_556
Li1 O10 2.046254 1_555
Li2 O2 2.019229 1_645
Li2 O0 2.019259 1_555
Li2 O9 2.046218 1_554
Li2 O7 2.046234 1_555
Li3 O3 2.019232 1_555
Li3 O1 2.019256 1_565
Li3 O6 2.046202 1_556
Li3 O8 2.046256 1_555
Fe0 O3 2.144368 1_555
Fe0 O0 2.144385 1_555
Fe0 O7 2.150914 1_555
Fe0 O10 2.150917 1_555
Fe0 O8 2.150920 1_555
Fe0 O5 2.150924 1_555
Fe1 O2 2.144377 1_645
Fe1 O1 2.144401 1_654
Fe1 O9 2.150897 1_554
Fe1 O11 2.150911 1_654
Fe1 O4 2.150919 1_545
Fe1 O6 2.150929 1_645
C0 O6 1.291000 1_555
C0 O4 1.291023 1_555
C0 O0 1.313877 1_555
C1 O7 1.290980 1_555
C1 O5 1.291002 1_655
C1 O1 1.313896 1_655
C2 O8 1.290975 1_555
C2 O10 1.290999 1_455
C2 O2 1.313914 1_555
C3 O9 1.291004 1_555
C3 O11 1.291020 1_555
C3 O3 1.313895 1_555
