# generated using pymatgen
data_Cu6OF11
_symmetry_space_group_name_H-M   'P 1'
_cell_length_a   9.69820883
_cell_length_b   4.55190826
_cell_length_c   4.55173144
_cell_angle_alpha   91.22723893
_cell_angle_beta   83.98714395
_cell_angle_gamma   90.24450348
_symmetry_Int_Tables_number   1
_chemical_formula_structural   Cu6OF11
_chemical_formula_sum   'Cu6 O1 F11'
_cell_volume   199.78607988
_cell_formula_units_Z   1
loop_
 _symmetry_equiv_pos_site_id
 _symmetry_equiv_pos_as_xyz
  1  'x, y, z'
loop_
 _atom_site_type_symbol
 _atom_site_label
 _atom_site_symmetry_multiplicity
 _atom_site_fract_x
 _atom_site_fract_y
 _atom_site_fract_z
 _atom_site_occupancy
  Cu  Cu0  1  0.99785647  0.98200624  0.96357851  1
  Cu  Cu1  1  0.16079302  0.51314836  0.50086699  1
  Cu  Cu2  1  0.33108122  0.01158583  0.00050835  1
  Cu  Cu3  1  0.50176652  0.50464904  0.50637013  1
  Cu  Cu4  1  0.66859333  0.00338844  0.01203474  1
  Cu  Cu5  1  0.84337276  0.51042159  0.50807471  1
  O  O0  1  0.00146888  0.65244672  0.72184680  1
  F  F0  1  0.17406163  0.81764404  0.21095091  1
  F  F1  1  0.15859409  0.18049881  0.76626884  1
  F  F2  1  0.32265749  0.32404793  0.28452473  1
  F  F3  1  0.34355422  0.69508477  0.71806435  1
  F  F4  1  0.51213072  0.81305201  0.22386727  1
  F  F5  1  0.49200957  0.19884721  0.79181301  1
  F  F6  1  0.66444500  0.31587983  0.30157284  1
  F  F7  1  0.68111889  0.69164380  0.72300381  1
  F  F8  1  0.83943308  0.80383678  0.21935176  1
  F  F9  1  0.82095225  0.18739125  0.78305523  1
  F  F10  1  0.98610588  0.29442835  0.26424703  1
loop_
_geom_bond_atom_site_label_1
_geom_bond_atom_site_label_2
_geom_bond_distance
_geom_bond_site_symmetry_2
Cu0 O0 1.839545 1_655
Cu0 F1 1.944847 1_665
Cu0 F10 1.947744 1_566
Cu0 F8 2.007185 1_556
Cu0 F9 2.198776 1_565
Cu0 F0 2.279896 1_656
Cu1 O0 1.859225 1_555
Cu1 F0 1.928809 1_555
Cu1 F1 1.955828 1_555
Cu1 F2 1.956079 1_555
Cu1 F3 2.263700 1_555
Cu1 F10 2.311557 1_455
Cu2 F2 1.897619 1_555
Cu2 F3 1.905928 1_544
Cu2 F0 1.932609 1_545
Cu2 F5 1.943580 1_554
Cu2 F1 2.223963 1_554
Cu2 F4 2.315216 1_545
Cu3 F4 1.919203 1_555
Cu3 F5 1.919696 1_555
Cu3 F3 1.923547 1_555
Cu3 F6 1.940500 1_555
Cu3 F2 2.243323 1_555
Cu3 F7 2.243449 1_555
Cu4 F7 1.909768 1_544
Cu4 F6 1.915952 1_555
Cu4 F9 1.917112 1_554
Cu4 F4 1.923771 1_545
Cu4 F8 2.199498 1_545
Cu4 F5 2.267164 1_554
Cu5 F8 1.896976 1_555
Cu5 F10 1.938444 1_555
Cu5 F7 1.941048 1_555
Cu5 F9 1.948090 1_555
Cu5 O0 1.998185 1_655
Cu5 F6 2.229753 1_555
