# generated using pymatgen
data_Ti2P4H9C2NO16
_symmetry_space_group_name_H-M   'P 1'
_cell_length_a   6.45316200
_cell_length_b   10.91397500
_cell_length_c   21.04182146
_cell_angle_alpha   74.04428698
_cell_angle_beta   90.00000000
_cell_angle_gamma   90.00000000
_symmetry_Int_Tables_number   1
_chemical_formula_structural   Ti2P4H9C2NO16
_chemical_formula_sum   'Ti8 P16 H36 C8 N4 O64'
_cell_volume   1424.87447840
_cell_formula_units_Z   4
loop_
 _symmetry_equiv_pos_site_id
 _symmetry_equiv_pos_as_xyz
  1  'x, y, z'
loop_
 _atom_site_type_symbol
 _atom_site_label
 _atom_site_symmetry_multiplicity
 _atom_site_fract_x
 _atom_site_fract_y
 _atom_site_fract_z
 _atom_site_occupancy
  Ti  Ti0  1  0.53754100  0.30673700  0.30065600  1
  Ti  Ti1  1  0.96245900  0.30673700  0.80065600  1
  Ti  Ti2  1  0.46245900  0.69326300  0.69934400  1
  Ti  Ti3  1  0.03754100  0.69326300  0.19934400  1
  Ti  Ti4  1  0.03985400  0.29352100  0.10692100  1
  Ti  Ti5  1  0.46014600  0.29352100  0.60692100  1
  Ti  Ti6  1  0.96014600  0.70647900  0.89307900  1
  Ti  Ti7  1  0.53985400  0.70647900  0.39307900  1
  P  P0  1  0.68442300  0.00512500  0.32797800  1
  P  P1  1  0.81557700  0.00512500  0.82797800  1
  P  P2  1  0.31557700  0.99487500  0.67202200  1
  P  P3  1  0.18442300  0.99487500  0.17202200  1
  P  P4  1  0.03751600  0.36018300  0.25625800  1
  P  P5  1  0.46248400  0.36018300  0.75625800  1
  P  P6  1  0.96248400  0.63981700  0.74374200  1
  P  P7  1  0.53751600  0.63981700  0.24374200  1
  P  P8  1  0.54648400  0.33601300  0.13466700  1
  P  P9  1  0.95351600  0.33601300  0.63466700  1
  P  P10  1  0.45351600  0.66398700  0.86533300  1
  P  P11  1  0.04648400  0.66398700  0.36533300  1
  P  P12  1  0.07452200  0.62506100  0.05351400  1
  P  P13  1  0.42547800  0.62506100  0.55351400  1
  P  P14  1  0.92547800  0.37493900  0.94648600  1
  P  P15  1  0.57452200  0.37493900  0.44648600  1
  H  H0  1  0.74884700  0.93300300  0.24117800  1
  H  H1  1  0.75115300  0.93300300  0.74117800  1
  H  H2  1  0.25115300  0.06699700  0.75882200  1
  H  H3  1  0.24884700  0.06699700  0.25882200  1
  H  H4  1  0.70445000  0.51923800  0.12839000  1
  H  H5  1  0.79555000  0.51923800  0.62839000  1
  H  H6  1  0.29555000  0.48076200  0.87161000  1
  H  H7  1  0.20445000  0.48076200  0.37161000  1
  H  H8  1  0.41277600  0.58194600  0.06764700  1
  H  H9  1  0.08722400  0.58194600  0.56764700  1
  H  H10  1  0.58722400  0.41805400  0.93235300  1
  H  H11  1  0.91277600  0.41805400  0.43235300  1
  H  H12  1  0.96716300  0.92507400  0.42644400  1
  H  H13  1  0.53283700  0.92507400  0.92644400  1
  H  H14  1  0.03283700  0.07492600  0.57355600  1
  H  H15  1  0.46716300  0.07492600  0.07355600  1
  H  H16  1  0.09331900  0.80090500  0.48117400  1
  H  H17  1  0.40668100  0.80090500  0.98117400  1
  H  H18  1  0.90668100  0.19909500  0.51882600  1
  H  H19  1  0.59331900  0.19909500  0.01882600  1
  H  H20  1  0.31027700  0.98590200  0.43498300  1
  H  H21  1  0.18972300  0.98590200  0.93498300  1
  H  H22  1  0.68972300  0.01409800  0.56501700  1
  H  H23  1  0.81027700  0.01409800  0.06501700  1
  H  H24  1  0.29139500  0.94360200  0.52340500  1
  H  H25  1  0.20860500  0.94360200  0.02340500  1
  H  H26  1  0.70860500  0.05639800  0.47659500  1
  H  H27  1  0.79139500  0.05639800  0.97659500  1
  H  H28  1  0.95820800  0.84792000  0.57630000  1
  H  H29  1  0.54179200  0.84792000  0.07630000  1
  H  H30  1  0.04179200  0.15208000  0.42370000  1
  H  H31  1  0.45820800  0.15208000  0.92370000  1
  H  H32  1  0.75701400  0.82108100  0.52382400  1
  H  H33  1  0.74298600  0.82108100  0.02382400  1
  H  H34  1  0.24298600  0.17891900  0.47617600  1
  H  H35  1  0.25701400  0.17891900  0.97617600  1
  C  C0  1  0.20736100  0.98203000  0.47687600  1
  C  C1  1  0.29263900  0.98203000  0.97687600  1
  C  C2  1  0.79263900  0.01797000  0.52312400  1
  C  C3  1  0.70736100  0.01797000  0.02312400  1
  C  C4  1  0.88066900  0.88642300  0.52853300  1
  C  C5  1  0.61933100  0.88642300  0.02853300  1
  C  C6  1  0.11933100  0.11357700  0.47146700  1
  C  C7  1  0.38066900  0.11357700  0.97146700  1
  N  N0  1  0.03519800  0.89196200  0.47485700  1
  N  N1  1  0.46480200  0.89196200  0.97485700  1
  N  N2  1  0.96480200  0.10803800  0.52514300  1
  N  N3  1  0.53519800  0.10803800  0.02514300  1
  O  O0  1  0.22909600  0.31313300  0.30018500  1
  O  O1  1  0.27090400  0.31313300  0.80018500  1
  O  O2  1  0.77090400  0.68686700  0.69981500  1
  O  O3  1  0.72909600  0.68686700  0.19981500  1
  O  O4  1  0.52567800  0.30531900  0.39372800  1
  O  O5  1  0.97432200  0.30531900  0.89372800  1
  O  O6  1  0.47432200  0.69468100  0.60627200  1
  O  O7  1  0.02567800  0.69468100  0.10627200  1
  O  O8  1  0.84052800  0.31450900  0.29788200  1
  O  O9  1  0.65947200  0.31450900  0.79788200  1
  O  O10  1  0.15947200  0.68549100  0.70211800  1
  O  O11  1  0.34052800  0.68549100  0.20211800  1
  O  O12  1  0.53000000  0.29306200  0.20946700  1
  O  O13  1  0.97000000  0.29306200  0.70946700  1
  O  O14  1  0.47000000  0.70693800  0.79053300  1
  O  O15  1  0.03000000  0.70693800  0.29053300  1
  O  O16  1  0.53629000  0.49340800  0.27049000  1
  O  O17  1  0.96371000  0.49340800  0.77049000  1
  O  O18  1  0.46371000  0.50659200  0.72951000  1
  O  O19  1  0.03629000  0.50659200  0.22951000  1
  O  O20  1  0.54386000  0.12070400  0.32765700  1
  O  O21  1  0.95614000  0.12070400  0.82765700  1
  O  O22  1  0.45614000  0.87929600  0.67234300  1
  O  O23  1  0.04386000  0.87929600  0.17234300  1
  O  O24  1  0.04218200  0.30114900  0.19686300  1
  O  O25  1  0.45781800  0.30114900  0.69686300  1
  O  O26  1  0.95781800  0.69885100  0.80313700  1
  O  O27  1  0.54218200  0.69885100  0.30313700  1
  O  O28  1  0.34902900  0.31417500  0.09961300  1
  O  O29  1  0.15097100  0.31417500  0.59961300  1
  O  O30  1  0.65097100  0.68582500  0.90038700  1
  O  O31  1  0.84902900  0.68582500  0.40038700  1
  O  O32  1  0.03450200  0.30274100  0.01074800  1
  O  O33  1  0.46549800  0.30274100  0.51074800  1
  O  O34  1  0.96549800  0.69725900  0.98925200  1
  O  O35  1  0.53450200  0.69725900  0.48925200  1
  O  O36  1  0.73447300  0.27840200  0.10897000  1
  O  O37  1  0.76552700  0.27840200  0.60897000  1
  O  O38  1  0.26552700  0.72159800  0.89103000  1
  O  O39  1  0.23447300  0.72159800  0.39103000  1
  O  O40  1  0.06508700  0.11593300  0.12959500  1
  O  O41  1  0.43491300  0.11593300  0.62959500  1
  O  O42  1  0.93491300  0.88406700  0.87040500  1
  O  O43  1  0.56508700  0.88406700  0.37040500  1
  O  O44  1  0.01145200  0.48515900  0.07888600  1
  O  O45  1  0.48854800  0.48515900  0.57888600  1
  O  O46  1  0.98854800  0.51484100  0.92111400  1
  O  O47  1  0.51145200  0.51484100  0.42111400  1
  O  O48  1  0.67468200  0.00135200  0.25325500  1
  O  O49  1  0.82531800  0.00135200  0.75325500  1
  O  O50  1  0.32531800  0.99864800  0.74674500  1
  O  O51  1  0.17468200  0.99864800  0.24674500  1
  O  O52  1  0.89699700  0.00925900  0.35629400  1
  O  O53  1  0.60300300  0.00925900  0.85629400  1
  O  O54  1  0.10300300  0.99074100  0.64370600  1
  O  O55  1  0.39699700  0.99074100  0.14370600  1
  O  O56  1  0.57434200  0.48965000  0.11326700  1
  O  O57  1  0.92565800  0.48965000  0.61326700  1
  O  O58  1  0.42565800  0.51035000  0.88673300  1
  O  O59  1  0.07434200  0.51035000  0.38673300  1
  O  O60  1  0.31382900  0.63945300  0.03616700  1
  O  O61  1  0.18617100  0.63945300  0.53616700  1
  O  O62  1  0.68617100  0.36054700  0.96383300  1
  O  O63  1  0.81382900  0.36054700  0.46383300  1
loop_
_geom_bond_atom_site_label_1
_geom_bond_atom_site_label_2
_geom_bond_distance
_geom_bond_site_symmetry_2
H0 O48 0.976888 1_565
H1 O49 0.976888 1_565
H2 O50 0.976888 1_545
H3 O51 0.976888 1_545
H4 O56 0.983350 1_555
H5 O57 0.983350 1_555
H6 O58 0.983350 1_555
H7 O59 0.983350 1_555
H8 O60 1.005897 1_555
H8 O56 1.578470 1_555
H9 O61 1.005897 1_555
H9 O57 1.578470 1_455
H10 O62 1.005897 1_555
H10 O58 1.578470 1_555
H11 O63 1.005897 1_555
H11 O59 1.578470 1_655
H12 N0 1.076430 1_655
H12 O52 1.575561 1_565
H13 N1 1.076430 1_555
H13 O53 1.575561 1_565
H14 N2 1.076430 1_455
H14 O54 1.575561 1_545
H15 N3 1.076430 1_555
H15 O55 1.575561 1_545
H16 N0 1.036022 1_555
H17 N1 1.036022 1_555
H18 N2 1.036022 1_555
H19 N3 1.036022 1_555
C0 H20 1.095185 1_555
C0 H24 1.096707 1_555
C0 N0 1.491766 1_555
C1 H21 1.095185 1_555
C1 H25 1.096707 1_556
C1 N1 1.491766 1_555
C2 H22 1.095185 1_555
C2 H26 1.096707 1_555
C2 N2 1.491766 1_555
C3 H23 1.095185 1_555
C3 H27 1.096707 1_554
C3 N3 1.491766 1_555
C4 H32 1.092697 1_555
C4 H28 1.097716 1_555
C4 N0 1.495380 1_655
C5 H33 1.092697 1_555
C5 H29 1.097716 1_555
C5 N1 1.495380 1_554
C6 H34 1.092697 1_555
C6 H30 1.097716 1_555
C6 N2 1.495380 1_455
C7 H35 1.092697 1_555
C7 H31 1.097716 1_555
C7 N3 1.495380 1_556
O0 P4 1.544508 1_555
O0 Ti0 1.991598 1_555
O1 P5 1.544508 1_555
O1 Ti1 1.991598 1_455
O2 P6 1.544508 1_555
O2 Ti2 1.991598 1_555
O3 P7 1.544508 1_555
O3 Ti3 1.991598 1_655
O4 P15 1.540396 1_555
O4 Ti0 1.955706 1_555
O5 P14 1.540396 1_555
O5 Ti1 1.955706 1_555
O6 P13 1.540396 1_555
O6 Ti2 1.955706 1_555
O7 P12 1.540396 1_555
O7 Ti3 1.955706 1_555
O8 P4 1.546446 1_655
O8 Ti0 1.957238 1_555
O9 P5 1.546446 1_555
O9 Ti1 1.957238 1_555
O10 P6 1.546446 1_455
O10 Ti2 1.957238 1_555
O11 P7 1.546446 1_555
O11 Ti3 1.957238 1_555
O12 P8 1.517455 1_555
O12 Ti0 1.965659 1_555
O13 P9 1.517455 1_555
O13 Ti1 1.965659 1_555
O14 P10 1.517455 1_555
O14 Ti2 1.965659 1_555
O15 P11 1.517455 1_555
O15 Ti3 1.965659 1_555
O16 P7 1.541326 1_555
O16 Ti0 1.960274 1_555
O17 P6 1.541326 1_555
O17 Ti1 1.960274 1_555
O18 P5 1.541326 1_555
O18 Ti2 1.960274 1_555
O19 P4 1.541326 1_555
O19 Ti3 1.960274 1_555
O20 P0 1.552206 1_555
O20 Ti0 1.952590 1_555
O21 P1 1.552206 1_555
O21 Ti1 1.952590 1_555
O22 P2 1.552206 1_555
O22 Ti2 1.952590 1_555
O23 P3 1.552206 1_555
O23 Ti3 1.952590 1_555
O24 P4 1.555852 1_555
O24 Ti4 1.917160 1_555
O25 P5 1.555852 1_555
O25 Ti5 1.917160 1_555
O26 P6 1.555852 1_555
O26 Ti6 1.917160 1_555
O27 P7 1.555852 1_555
O27 Ti7 1.917160 1_555
O28 P8 1.523522 1_555
O28 Ti4 2.008992 1_555
O29 P9 1.523522 1_455
O29 Ti5 2.008992 1_555
O30 P10 1.523522 1_555
O30 Ti6 2.008992 1_555
O31 P11 1.523522 1_655
O31 Ti7 2.008992 1_555
O32 P14 1.535741 1_454
O32 Ti4 1.998635 1_555
O33 P15 1.535741 1_555
O33 Ti5 1.998635 1_555
O34 P12 1.535741 1_656
O34 Ti6 1.998635 1_555
O35 P13 1.535741 1_555
O35 Ti7 1.998635 1_555
O36 P8 1.531764 1_555
O36 Ti4 1.977050 1_655
O37 P9 1.531764 1_555
O37 Ti5 1.977050 1_555
O38 P10 1.531764 1_555
O38 Ti6 1.977050 1_455
O39 P11 1.531764 1_555
O39 Ti7 1.977050 1_555
O40 P3 1.577081 1_545
O40 Ti4 1.871451 1_555
O41 P2 1.577081 1_545
O41 Ti5 1.871451 1_555
O42 P1 1.577081 1_565
O42 Ti6 1.871451 1_555
O43 P0 1.577081 1_565
O43 Ti7 1.871451 1_555
O44 P12 1.527706 1_555
O44 Ti4 2.019345 1_555
O45 P13 1.527706 1_555
O45 Ti5 2.019345 1_555
O46 P14 1.527706 1_555
O46 Ti6 2.019345 1_555
O47 P15 1.527706 1_555
O47 Ti7 2.019345 1_555
O48 P0 1.585369 1_555
O49 P1 1.585369 1_555
O50 P2 1.585369 1_555
O51 P3 1.585369 1_555
O52 P0 1.501194 1_555
O53 P1 1.501194 1_555
O54 P2 1.501194 1_555
O55 P3 1.501194 1_555
O56 P8 1.622218 1_555
O57 P9 1.622218 1_555
O58 P10 1.622218 1_555
O59 P11 1.622218 1_555
O60 P12 1.584679 1_555
O61 P13 1.584679 1_555
O62 P14 1.584679 1_555
O63 P15 1.584679 1_555
