# generated using pymatgen
data_Li3Fe2P2(CO7)2
_symmetry_space_group_name_H-M   'P 1'
_cell_length_a   5.14189600
_cell_length_b   8.38482180
_cell_length_c   12.96955038
_cell_angle_alpha   90.90135425
_cell_angle_beta   89.93650858
_cell_angle_gamma   95.09067785
_symmetry_Int_Tables_number   1
_chemical_formula_structural   Li3Fe2P2(CO7)2
_chemical_formula_sum   'Li6 Fe4 P4 C4 O28'
_cell_volume   556.89309111
_cell_formula_units_Z   2
loop_
 _symmetry_equiv_pos_site_id
 _symmetry_equiv_pos_as_xyz
  1  'x, y, z'
loop_
 _atom_site_type_symbol
 _atom_site_label
 _atom_site_symmetry_multiplicity
 _atom_site_fract_x
 _atom_site_fract_y
 _atom_site_fract_z
 _atom_site_occupancy
  Li  Li0  1  0.22428600  0.10869700  0.37645700  1
  Li  Li1  1  0.24241900  0.10089800  0.88179000  1
  Li  Li2  1  0.75281000  0.28581500  0.77069800  1
  Li  Li3  1  0.24719000  0.71418500  0.22930200  1
  Li  Li4  1  0.77571400  0.89130300  0.62354300  1
  Li  Li5  1  0.75758100  0.89910200  0.11821000  1
  Fe  Fe0  1  0.19738900  0.33444300  0.62069000  1
  Fe  Fe1  1  0.19999100  0.32798300  0.12418100  1
  Fe  Fe2  1  0.80261100  0.66555700  0.37931000  1
  Fe  Fe3  1  0.80000900  0.67201700  0.87581900  1
  P  P0  1  0.27570700  0.42134600  0.37118700  1
  P  P1  1  0.27049100  0.42263800  0.87395200  1
  P  P2  1  0.72429300  0.57865400  0.62881300  1
  P  P3  1  0.72950900  0.57736200  0.12604800  1
  C  C0  1  0.29216900  0.03645300  0.13007300  1
  C  C1  1  0.30025500  0.04552100  0.62774100  1
  C  C2  1  0.69974500  0.95447900  0.37225900  1
  C  C3  1  0.70783100  0.96354700  0.86992700  1
  O  O0  1  0.05471600  0.07494300  0.62264000  1
  O  O1  1  0.04967300  0.06958700  0.12501000  1
  O  O2  1  0.61510900  0.08968300  0.37439600  1
  O  O3  1  0.63308900  0.10267400  0.85621700  1
  O  O4  1  0.46462500  0.15835300  0.12058100  1
  O  O5  1  0.46567600  0.17476800  0.63375100  1
  O  O6  1  0.16641200  0.30603200  0.78422600  1
  O  O7  1  0.20794900  0.30380400  0.27993800  1
  O  O8  1  0.19697200  0.31920700  0.46685700  1
  O  O9  1  0.22587700  0.31440200  0.96967800  1
  O  O10  1  0.86479500  0.42316600  0.63758400  1
  O  O11  1  0.87265900  0.42528300  0.12055800  1
  O  O12  1  0.57131400  0.47558100  0.37253800  1
  O  O13  1  0.56923000  0.46690300  0.85792600  1
  O  O14  1  0.42868600  0.52441900  0.62746200  1
  O  O15  1  0.43077000  0.53309700  0.14207400  1
  O  O16  1  0.13520500  0.57683400  0.36241600  1
  O  O17  1  0.12734100  0.57471700  0.87944200  1
  O  O18  1  0.80302800  0.68079300  0.53314300  1
  O  O19  1  0.79205100  0.69619600  0.72006200  1
  O  O20  1  0.77412300  0.68559800  0.03032200  1
  O  O21  1  0.83358800  0.69396800  0.21577400  1
  O  O22  1  0.53432400  0.82523200  0.36624900  1
  O  O23  1  0.53537500  0.84164700  0.87941900  1
  O  O24  1  0.38489100  0.91031700  0.62560400  1
  O  O25  1  0.36691100  0.89732600  0.14378300  1
  O  O26  1  0.94528400  0.92505700  0.37736000  1
  O  O27  1  0.95032700  0.93041300  0.87499000  1
loop_
_geom_bond_atom_site_label_1
_geom_bond_atom_site_label_2
_geom_bond_distance
_geom_bond_site_symmetry_2
Li0 O26 2.009397 1_445
Li0 O2 2.030052 1_555
Li0 O7 2.083128 1_555
Li0 O8 2.118588 1_555
Li1 O27 1.980468 1_445
Li1 O3 2.034407 1_555
Li1 O9 2.115167 1_555
Li1 O6 2.213862 1_555
Li2 O3 1.962536 1_555
Li2 O6 2.125624 1_655
Li2 O10 2.140354 1_555
Li2 O13 2.162025 1_555
Li2 O5 2.431308 1_555
Li3 O25 1.962536 1_555
Li3 O21 2.125624 1_455
Li3 O16 2.140354 1_555
Li3 O15 2.162025 1_555
Li3 O22 2.431308 1_555
Li4 O0 2.009397 1_665
Li4 O24 2.030052 1_555
Li4 O19 2.083128 1_555
Li4 O18 2.118588 1_555
Li5 O1 1.980468 1_665
Li5 O25 2.034407 1_555
Li5 O20 2.115167 1_555
Li5 O21 2.213862 1_555
Fe0 O14 1.902411 1_555
Fe0 O10 1.935436 1_455
Fe0 O8 1.997215 1_555
Fe0 O5 2.014859 1_555
Fe0 O6 2.142224 1_555
Fe0 O0 2.234191 1_555
Fe1 O11 1.935387 1_455
Fe1 O9 2.010213 1_554
Fe1 O15 2.011396 1_555
Fe1 O7 2.034235 1_555
Fe1 O4 2.053767 1_555
Fe1 O1 2.235000 1_555
Fe2 O12 1.902411 1_555
Fe2 O16 1.935436 1_655
Fe2 O18 1.997215 1_555
Fe2 O22 2.014859 1_555
Fe2 O21 2.142224 1_555
Fe2 O26 2.234191 1_555
Fe3 O17 1.935387 1_655
Fe3 O20 2.010213 1_556
Fe3 O13 2.011396 1_555
Fe3 O19 2.034235 1_555
Fe3 O23 2.053767 1_555
Fe3 O27 2.235000 1_555
C0 O25 1.275306 1_545
C0 O4 1.299639 1_555
C0 O1 1.303250 1_555
C1 O24 1.249754 1_545
C1 O0 1.309659 1_555
C1 O5 1.318293 1_555
C2 O2 1.249754 1_565
C2 O26 1.309659 1_555
C2 O22 1.318293 1_555
C3 O3 1.275306 1_565
C3 O23 1.299639 1_555
C3 O27 1.303250 1_555
O6 P1 1.571393 1_555
O7 P0 1.548091 1_555
O8 P0 1.551682 1_555
O9 P1 1.554189 1_555
O10 P2 1.551323 1_555
O11 P3 1.528553 1_555
O12 P0 1.547446 1_555
O13 P1 1.562388 1_555
O14 P2 1.547446 1_555
O15 P3 1.562388 1_555
O16 P0 1.551323 1_555
O17 P1 1.528553 1_555
O18 P2 1.551682 1_555
O19 P2 1.548091 1_555
O20 P3 1.554189 1_555
O21 P3 1.571393 1_555
