# generated using pymatgen
data_Ba2Ta2O7
_symmetry_space_group_name_H-M   'P 1'
_cell_length_a   7.77953447
_cell_length_b   7.77953447
_cell_length_c   7.77953447
_cell_angle_alpha   120.44776157
_cell_angle_beta   117.46678591
_cell_angle_gamma   91.83452802
_symmetry_Int_Tables_number   1
_chemical_formula_structural   Ba2Ta2O7
_chemical_formula_sum   'Ba4 Ta4 O14'
_cell_volume   337.70923465
_cell_formula_units_Z   2
loop_
 _symmetry_equiv_pos_site_id
 _symmetry_equiv_pos_as_xyz
  1  'x, y, z'
loop_
 _atom_site_type_symbol
 _atom_site_label
 _atom_site_symmetry_multiplicity
 _atom_site_fract_x
 _atom_site_fract_y
 _atom_site_fract_z
 _atom_site_occupancy
  Ba  Ba0  1  0.00000000  0.00000000  0.00000000  1
  Ba  Ba1  1  0.50000000  0.50000000  0.00000000  1
  Ba  Ba2  1  0.00000000  0.50000000  0.00000000  1
  Ba  Ba3  1  0.00000000  0.00000000  0.50000000  1
  Ta  Ta0  1  0.50000000  0.00000000  0.00000000  1
  Ta  Ta1  1  0.50000000  0.00000000  0.50000000  1
  Ta  Ta2  1  0.50000000  0.50000000  0.50000000  1
  Ta  Ta3  1  0.00000000  0.50000000  0.50000000  1
  O  O0  1  0.79888900  0.19178600  0.22820600  1
  O  O1  1  0.79999400  0.09040000  0.70959500  1
  O  O2  1  0.41629200  0.25000000  0.16629200  1
  O  O3  1  0.88080500  0.59040000  0.29040500  1
  O  O4  1  0.53642000  0.30821400  0.60710300  1
  O  O5  1  0.46358000  0.07068300  0.77179400  1
  O  O6  1  0.79888900  0.57068300  0.60710300  1
  O  O7  1  0.20111100  0.42931700  0.39289700  1
  O  O8  1  0.46358000  0.69178600  0.39289700  1
  O  O9  1  0.53642000  0.92931700  0.22820600  1
  O  O10  1  0.11919500  0.40960000  0.70959500  1
  O  O11  1  0.58370800  0.75000000  0.83370800  1
  O  O12  1  0.20000600  0.90960000  0.29040500  1
  O  O13  1  0.20111100  0.80821400  0.77179400  1
loop_
_geom_bond_atom_site_label_1
_geom_bond_atom_site_label_2
_geom_bond_distance
_geom_bond_site_symmetry_2
Ba0 O12 2.541122 1_545
Ba0 O1 2.541122 1_454
Ba0 O13 2.802292 1_544
Ba0 O0 2.802292 1_455
Ba0 O7 2.802292 1_555
Ba0 O6 2.802292 1_444
Ba0 O11 3.020978 1_444
Ba0 O2 3.020978 1_555
Ba1 O3 2.541120 1_555
Ba1 O10 2.541120 1_554
Ba1 O8 2.802292 1_555
Ba1 O9 2.802292 1_555
Ba1 O5 2.802292 1_554
Ba1 O4 2.802292 1_554
Ba1 O2 3.020978 1_555
Ba1 O11 3.020978 1_554
Ba2 O3 2.611984 1_455
Ba2 O10 2.611984 1_554
Ba2 O1 2.611985 1_454
Ba2 O12 2.611985 1_555
Ba2 O6 3.072438 1_454
Ba2 O7 3.072438 1_555
Ba2 O4 3.072438 1_454
Ba2 O8 3.072438 1_555
Ba3 O3 2.611984 1_445
Ba3 O10 2.611984 1_555
Ba3 O1 2.611991 1_455
Ba3 O12 2.611991 1_545
Ba3 O0 3.072438 1_455
Ba3 O13 3.072438 1_545
Ba3 O9 3.072438 1_445
Ba3 O5 3.072438 1_555
O0 Ta0 2.017384 1_555
O0 Ta3 2.058564 1_655
O1 Ta1 1.955075 1_555
O2 Ta2 2.046568 1_555
O2 Ta0 2.046568 1_555
O3 Ta3 1.955081 1_655
O4 Ta2 2.017384 1_555
O4 Ta1 2.058564 1_555
O5 Ta0 2.017384 1_556
O5 Ta1 2.058564 1_555
O6 Ta2 2.017384 1_555
O6 Ta3 2.058564 1_655
O7 Ta2 2.017384 1_555
O7 Ta3 2.058564 1_555
O8 Ta2 2.017384 1_555
O8 Ta1 2.058564 1_565
O9 Ta0 2.017384 1_565
O9 Ta1 2.058564 1_565
O10 Ta3 1.955081 1_555
O11 Ta0 2.046568 1_566
O11 Ta2 2.046568 1_555
O12 Ta1 1.955075 1_565
O13 Ta0 2.017384 1_566
O13 Ta3 2.058564 1_555
