# generated using pymatgen
data_Mn3CoO8
_symmetry_space_group_name_H-M   'P 1'
_cell_length_a   5.76862200
_cell_length_b   5.76871361
_cell_length_c   8.64031600
_cell_angle_alpha   90.00216353
_cell_angle_beta   89.99892655
_cell_angle_gamma   120.00050724
_symmetry_Int_Tables_number   1
_chemical_formula_structural   Mn3CoO8
_chemical_formula_sum   'Mn6 Co2 O16'
_cell_volume   249.00559106
_cell_formula_units_Z   2
loop_
 _symmetry_equiv_pos_site_id
 _symmetry_equiv_pos_as_xyz
  1  'x, y, z'
loop_
 _atom_site_type_symbol
 _atom_site_label
 _atom_site_symmetry_multiplicity
 _atom_site_fract_x
 _atom_site_fract_y
 _atom_site_fract_z
 _atom_site_occupancy
  Mn  Mn0  1  0.16785200  0.83216000  0.20936900  1
  Mn  Mn1  1  0.16785200  0.33572500  0.20936700  1
  Mn  Mn2  1  0.66429300  0.83216400  0.20937600  1
  Mn  Mn3  1  0.33570500  0.16787100  0.70937500  1
  Mn  Mn4  1  0.83214700  0.66430600  0.70937000  1
  Mn  Mn5  1  0.83214700  0.16787400  0.70936800  1
  Co  Co0  1  0.33333900  0.66666800  0.48686600  1
  Co  Co1  1  0.66666200  0.33332900  0.98686600  1
  O  O0  1  0.17015100  0.82982500  0.59932100  1
  O  O1  1  0.04614900  0.52308500  0.34345500  1
  O  O2  1  0.33333800  0.66667200  0.09838600  1
  O  O3  1  0.00001400  0.00002200  0.31616200  1
  O  O4  1  0.99998700  0.00000800  0.81616200  1
  O  O5  1  0.17016500  0.34034200  0.59932200  1
  O  O6  1  0.47695300  0.95388100  0.34346000  1
  O  O7  1  0.47695000  0.52308900  0.34344700  1
  O  O8  1  0.34034300  0.17016800  0.09932800  1
  O  O9  1  0.65965700  0.82982400  0.59932800  1
  O  O10  1  0.52304700  0.47692900  0.84346000  1
  O  O11  1  0.52305000  0.04613900  0.84344800  1
  O  O12  1  0.66666200  0.33333300  0.59838600  1
  O  O13  1  0.82985000  0.65967400  0.09932100  1
  O  O14  1  0.95385300  0.47693700  0.84345500  1
  O  O15  1  0.82983500  0.17017700  0.09932200  1
loop_
_geom_bond_atom_site_label_1
_geom_bond_atom_site_label_2
_geom_bond_distance
_geom_bond_site_symmetry_2
Mn0 O2 1.911404 1_555
Mn0 O3 1.914153 1_565
Mn0 O13 1.937987 1_455
Mn0 O8 1.938034 1_565
Mn0 O1 1.939701 1_555
Mn0 O6 1.939777 1_555
Mn1 O2 1.911333 1_555
Mn1 O3 1.914228 1_555
Mn1 O15 1.938039 1_455
Mn1 O8 1.938145 1_555
Mn1 O1 1.939595 1_555
Mn1 O7 1.939692 1_555
Mn2 O2 1.911356 1_555
Mn2 O3 1.914219 1_665
Mn2 O15 1.938111 1_565
Mn2 O13 1.938208 1_555
Mn2 O6 1.939540 1_555
Mn2 O7 1.939597 1_555
Mn3 O12 1.911361 1_555
Mn3 O4 1.914210 1_455
Mn3 O5 1.938097 1_555
Mn3 O0 1.938200 1_545
Mn3 O10 1.939550 1_555
Mn3 O11 1.939616 1_555
Mn4 O12 1.911404 1_555
Mn4 O4 1.914158 1_565
Mn4 O0 1.938000 1_655
Mn4 O9 1.938038 1_555
Mn4 O14 1.939693 1_555
Mn4 O10 1.939767 1_555
Mn5 O12 1.911324 1_555
Mn5 O4 1.914236 1_555
Mn5 O5 1.938048 1_655
Mn5 O9 1.938158 1_545
Mn5 O14 1.939588 1_555
Mn5 O11 1.939687 1_555
Co0 O1 1.895747 1_555
Co0 O7 1.895778 1_555
Co0 O6 1.895854 1_555
Co0 O9 1.897834 1_555
Co0 O5 1.897892 1_555
Co0 O0 1.897914 1_555
Co1 O14 1.895751 1_555
Co1 O11 1.895773 1_555
Co1 O10 1.895861 1_555
Co1 O8 1.897839 1_556
Co1 O15 1.897887 1_556
Co1 O13 1.897914 1_556
