# generated using pymatgen
data_Li2CuSiO4
_symmetry_space_group_name_H-M   'P 1'
_cell_length_a   4.96732700
_cell_length_b   6.33111800
_cell_length_c   10.80651700
_cell_angle_alpha   90.00000000
_cell_angle_beta   90.00000000
_cell_angle_gamma   90.00000000
_symmetry_Int_Tables_number   1
_chemical_formula_structural   Li2CuSiO4
_chemical_formula_sum   'Li8 Cu4 Si4 O16'
_cell_volume   339.85127192
_cell_formula_units_Z   4
loop_
 _symmetry_equiv_pos_site_id
 _symmetry_equiv_pos_as_xyz
  1  'x, y, z'
loop_
 _atom_site_type_symbol
 _atom_site_label
 _atom_site_symmetry_multiplicity
 _atom_site_fract_x
 _atom_site_fract_y
 _atom_site_fract_z
 _atom_site_occupancy
  Li  Li0  1  0.70594600  0.87014300  0.09021200  1
  Li  Li1  1  0.20404500  0.11803200  0.16535600  1
  Li  Li2  1  0.70404500  0.61803200  0.33464400  1
  Li  Li3  1  0.20594600  0.37014300  0.40978800  1
  Li  Li4  1  0.79405400  0.87014300  0.59021200  1
  Li  Li5  1  0.29595500  0.11803200  0.66535600  1
  Li  Li6  1  0.79595500  0.61803200  0.83464400  1
  Li  Li7  1  0.29405400  0.37014300  0.90978800  1
  Cu  Cu0  1  0.71448700  0.37053000  0.08474100  1
  Cu  Cu1  1  0.21448700  0.87053000  0.41525900  1
  Cu  Cu2  1  0.78551300  0.37053000  0.58474100  1
  Cu  Cu3  1  0.28551300  0.87053000  0.91525900  1
  Si  Si0  1  0.19615700  0.61570600  0.16667700  1
  Si  Si1  1  0.69615700  0.11570600  0.33332300  1
  Si  Si2  1  0.30384300  0.61570600  0.66667700  1
  Si  Si3  1  0.80384300  0.11570600  0.83332300  1
  O  O0  1  0.30256600  0.82996900  0.09443300  1
  O  O1  1  0.29777800  0.40126200  0.09353300  1
  O  O2  1  0.86348000  0.61693700  0.16828200  1
  O  O3  1  0.80833300  0.11913400  0.18873100  1
  O  O4  1  0.30833300  0.61913400  0.31126900  1
  O  O5  1  0.36348000  0.11693700  0.33171800  1
  O  O6  1  0.79777800  0.90126200  0.40646700  1
  O  O7  1  0.80256600  0.32996900  0.40556700  1
  O  O8  1  0.19743400  0.82996900  0.59443300  1
  O  O9  1  0.20222200  0.40126200  0.59353300  1
  O  O10  1  0.63652000  0.61693700  0.66828200  1
  O  O11  1  0.69166700  0.11913400  0.68873100  1
  O  O12  1  0.19166700  0.61913400  0.81126900  1
  O  O13  1  0.13652000  0.11693700  0.83171800  1
  O  O14  1  0.70222200  0.90126200  0.90646700  1
  O  O15  1  0.69743400  0.32996900  0.90556700  1
loop_
_geom_bond_atom_site_label_1
_geom_bond_atom_site_label_2
_geom_bond_distance
_geom_bond_site_symmetry_2
Li0 O3 1.969047 1_565
Li0 O2 1.973314 1_555
Li0 O14 1.995479 1_554
Li0 O0 2.020314 1_555
Li1 O5 1.964515 1_555
Li1 O3 1.981808 1_455
Li1 O1 2.008640 1_555
Li1 O0 2.037896 1_545
Li2 O2 1.964515 1_555
Li2 O4 1.981808 1_555
Li2 O6 2.008640 1_555
Li2 O7 2.037896 1_555
Li3 O4 1.969047 1_555
Li3 O5 1.973314 1_555
Li3 O9 1.995479 1_555
Li3 O7 2.020314 1_455
Li4 O11 1.969047 1_565
Li4 O10 1.973314 1_555
Li4 O6 1.995479 1_555
Li4 O8 2.020314 1_655
Li5 O13 1.964515 1_555
Li5 O11 1.981808 1_555
Li5 O9 2.008640 1_555
Li5 O8 2.037896 1_545
Li6 O10 1.964515 1_555
Li6 O12 1.981808 1_655
Li6 O14 2.008640 1_555
Li6 O15 2.037896 1_555
Li7 O12 1.969047 1_555
Li7 O13 1.973314 1_555
Li7 O1 1.995479 1_556
Li7 O15 2.020314 1_555
Cu0 O2 1.948453 1_555
Cu0 O15 1.955038 1_554
Cu0 O3 2.003351 1_555
Cu0 O1 2.081224 1_555
Cu1 O5 1.948453 1_565
Cu1 O8 1.955038 1_555
Cu1 O4 2.003351 1_555
Cu1 O6 2.081224 1_455
Cu2 O10 1.948453 1_555
Cu2 O7 1.955038 1_555
Cu2 O11 2.003351 1_555
Cu2 O9 2.081224 1_655
Cu3 O13 1.948453 1_565
Cu3 O0 1.955038 1_556
Cu3 O12 2.003351 1_555
Cu3 O14 2.081224 1_555
O0 Si0 1.651982 1_555
O1 Si0 1.650109 1_555
O2 Si0 1.652625 1_655
O3 Si1 1.659059 1_555
O4 Si0 1.659059 1_555
O5 Si1 1.652625 1_555
O6 Si1 1.650109 1_565
O7 Si1 1.651982 1_555
O8 Si2 1.651982 1_555
O9 Si2 1.650109 1_555
O10 Si2 1.652625 1_555
O11 Si3 1.659059 1_555
O12 Si2 1.659059 1_555
O13 Si3 1.652625 1_455
O14 Si3 1.650109 1_565
O15 Si3 1.651982 1_555
