# generated using pymatgen
data_LiCoSiO4
_symmetry_space_group_name_H-M   'P 1'
_cell_length_a   5.21503700
_cell_length_b   5.08816200
_cell_length_c   8.35243300
_cell_angle_alpha   52.98228372
_cell_angle_beta   90.00000000
_cell_angle_gamma   90.00000000
_symmetry_Int_Tables_number   1
_chemical_formula_structural   LiCoSiO4
_chemical_formula_sum   'Li2 Co2 Si2 O8'
_cell_volume   176.96146950
_cell_formula_units_Z   2
loop_
 _symmetry_equiv_pos_site_id
 _symmetry_equiv_pos_as_xyz
  1  'x, y, z'
loop_
 _atom_site_type_symbol
 _atom_site_label
 _atom_site_symmetry_multiplicity
 _atom_site_fract_x
 _atom_site_fract_y
 _atom_site_fract_z
 _atom_site_occupancy
  Li  Li0  1  0.32809300  0.74158400  0.75875500  1
  Li  Li1  1  0.67190700  0.74158400  0.25875500  1
  Co  Co0  1  0.67906500  0.24309500  0.76159600  1
  Co  Co1  1  0.32093500  0.24309500  0.26159600  1
  Si  Si0  1  0.81197400  0.99657600  0.50840400  1
  Si  Si1  1  0.18802600  0.99657600  0.00840400  1
  O  O0  1  0.87822500  0.96226600  0.99212400  1
  O  O1  1  0.34299800  0.07568100  0.81218500  1
  O  O2  1  0.68972100  0.65665400  0.70792300  1
  O  O3  1  0.75128400  0.29992500  0.52339300  1
  O  O4  1  0.12177500  0.96226600  0.49212400  1
  O  O5  1  0.65700200  0.07568100  0.31218500  1
  O  O6  1  0.31027900  0.65665400  0.20792300  1
  O  O7  1  0.24871600  0.29992500  0.02339300  1
loop_
_geom_bond_atom_site_label_1
_geom_bond_atom_site_label_2
_geom_bond_distance
_geom_bond_site_symmetry_2
Li0 O1 2.002119 1_565
Li0 O7 2.031257 1_556
Li0 O2 2.035819 1_555
Li0 O4 2.089745 1_555
Li1 O5 2.002119 1_565
Li1 O3 2.031257 1_555
Li1 O6 2.035819 1_555
Li1 O0 2.089745 1_554
Co0 O3 1.868456 1_555
Co0 O2 1.869774 1_555
Co0 O0 1.874840 1_545
Co0 O1 1.882117 1_555
Co1 O7 1.868456 1_555
Co1 O6 1.869774 1_555
Co1 O4 1.874840 1_545
Co1 O5 1.882117 1_555
O0 Si1 1.639448 1_656
O1 Si1 1.645257 1_546
O2 Si0 1.644507 1_555
O3 Si0 1.652539 1_545
O4 Si0 1.639448 1_455
O5 Si0 1.645257 1_545
O6 Si1 1.644507 1_555
O7 Si1 1.652539 1_545
