# generated using pymatgen
data_Li4CrP6(H4O11)2
_symmetry_space_group_name_H-M   'P 1'
_cell_length_a   15.38047000
_cell_length_b   7.48544900
_cell_length_c   8.15866127
_cell_angle_alpha   85.83253606
_cell_angle_beta   90.00000000
_cell_angle_gamma   90.00000000
_symmetry_Int_Tables_number   1
_chemical_formula_structural   Li4CrP6(H4O11)2
_chemical_formula_sum   'Li8 Cr2 P12 H16 O44'
_cell_volume   936.82080895
_cell_formula_units_Z   2
loop_
 _symmetry_equiv_pos_site_id
 _symmetry_equiv_pos_as_xyz
  1  'x, y, z'
loop_
 _atom_site_type_symbol
 _atom_site_label
 _atom_site_symmetry_multiplicity
 _atom_site_fract_x
 _atom_site_fract_y
 _atom_site_fract_z
 _atom_site_occupancy
  Li  Li0  1  0.27572500  0.46736700  0.65750900  1
  Li  Li1  1  0.38677900  0.35942700  0.11036200  1
  Li  Li2  1  0.88677900  0.14057300  0.88963800  1
  Li  Li3  1  0.77572500  0.03263300  0.34249100  1
  Li  Li4  1  0.22427500  0.96736700  0.65750900  1
  Li  Li5  1  0.11322100  0.85942700  0.11036200  1
  Li  Li6  1  0.61322100  0.64057300  0.88963800  1
  Li  Li7  1  0.72427500  0.53263300  0.34249100  1
  Cr  Cr0  1  0.50000000  0.50000000  0.50000000  1
  Cr  Cr1  1  0.00000000  0.00000000  0.50000000  1
  P  P0  1  0.06329600  0.43626200  0.19172100  1
  P  P1  1  0.67774600  0.26012000  0.02743500  1
  P  P2  1  0.68335200  0.33601800  0.68149800  1
  P  P3  1  0.18335200  0.16398200  0.31850200  1
  P  P4  1  0.17774600  0.23988000  0.97256500  1
  P  P5  1  0.56329600  0.06373800  0.80827900  1
  P  P6  1  0.43670400  0.93626200  0.19172100  1
  P  P7  1  0.82225400  0.76012000  0.02743500  1
  P  P8  1  0.81664800  0.83601800  0.68149800  1
  P  P9  1  0.31664800  0.66398200  0.31850200  1
  P  P10  1  0.32225400  0.73988000  0.97256500  1
  P  P11  1  0.93670400  0.56373800  0.80827900  1
  H  H0  1  0.57910800  0.37107700  0.24822100  1
  H  H1  1  0.35536000  0.26784300  0.50987400  1
  H  H2  1  0.41440900  0.25019900  0.67619200  1
  H  H3  1  0.50871000  0.22922400  0.30952300  1
  H  H4  1  0.00871000  0.27077600  0.69047700  1
  H  H5  1  0.91440900  0.24980100  0.32380800  1
  H  H6  1  0.85536000  0.23215700  0.49012600  1
  H  H7  1  0.07910800  0.12892300  0.75177900  1
  H  H8  1  0.92089200  0.87107700  0.24822100  1
  H  H9  1  0.14464000  0.76784300  0.50987400  1
  H  H10  1  0.08559100  0.75019900  0.67619200  1
  H  H11  1  0.99129000  0.72922400  0.30952300  1
  H  H12  1  0.49129000  0.77077600  0.69047700  1
  H  H13  1  0.58559100  0.74980100  0.32380800  1
  H  H14  1  0.64464000  0.73215700  0.49012600  1
  H  H15  1  0.42089200  0.62892300  0.75177900  1
  O  O0  1  0.11270800  0.39621100  0.02338600  1
  O  O1  1  0.62672000  0.42732800  0.05895500  1
  O  O2  1  0.61913900  0.48420400  0.70573500  1
  O  O3  1  0.97766600  0.34263900  0.20211000  1
  O  O4  1  0.13112700  0.35054500  0.33018200  1
  O  O5  1  0.93471100  0.36442300  0.79519500  1
  O  O6  1  0.55135600  0.31762000  0.35105200  1
  O  O7  1  0.38739500  0.33733400  0.58874100  1
  O  O8  1  0.74646400  0.35595900  0.54172300  1
  O  O9  1  0.73527600  0.29518800  0.85698700  1
  O  O10  1  0.73577200  0.18380600  0.16006100  1
  O  O11  1  0.23577200  0.31619400  0.83993900  1
  O  O12  1  0.23527600  0.20481200  0.14301300  1
  O  O13  1  0.24646400  0.14404100  0.45827700  1
  O  O14  1  0.88739500  0.16266600  0.41125900  1
  O  O15  1  0.05135600  0.18238000  0.64894800  1
  O  O16  1  0.43471100  0.13557700  0.20480500  1
  O  O17  1  0.63112700  0.14945500  0.66981800  1
  O  O18  1  0.47766600  0.15736100  0.79789000  1
  O  O19  1  0.11913900  0.01579600  0.29426500  1
  O  O20  1  0.12672000  0.07267200  0.94104500  1
  O  O21  1  0.61270800  0.10378900  0.97661400  1
  O  O22  1  0.38729200  0.89621100  0.02338600  1
  O  O23  1  0.87328000  0.92732800  0.05895500  1
  O  O24  1  0.88086100  0.98420400  0.70573500  1
  O  O25  1  0.52233400  0.84263900  0.20211000  1
  O  O26  1  0.36887300  0.85054500  0.33018200  1
  O  O27  1  0.56528900  0.86442300  0.79519500  1
  O  O28  1  0.94864400  0.81762000  0.35105200  1
  O  O29  1  0.11260500  0.83733400  0.58874100  1
  O  O30  1  0.75353600  0.85595900  0.54172300  1
  O  O31  1  0.76472400  0.79518800  0.85698700  1
  O  O32  1  0.76422800  0.68380600  0.16006100  1
  O  O33  1  0.26422800  0.81619400  0.83993900  1
  O  O34  1  0.26472400  0.70481200  0.14301300  1
  O  O35  1  0.25353600  0.64404100  0.45827700  1
  O  O36  1  0.61260500  0.66266600  0.41125900  1
  O  O37  1  0.44864400  0.68238000  0.64894800  1
  O  O38  1  0.06528900  0.63557700  0.20480500  1
  O  O39  1  0.86887300  0.64945500  0.66981800  1
  O  O40  1  0.02233400  0.65736100  0.79789000  1
  O  O41  1  0.38086100  0.51579600  0.29426500  1
  O  O42  1  0.37328000  0.57267200  0.94104500  1
  O  O43  1  0.88729200  0.60378900  0.97661400  1
loop_
_geom_bond_atom_site_label_1
_geom_bond_atom_site_label_2
_geom_bond_distance
_geom_bond_site_symmetry_2
Li0 O11 1.904892 1_555
Li0 O35 2.048203 1_555
Li0 O7 2.071596 1_555
Li1 O16 1.938361 1_555
Li1 O41 1.970989 1_555
Li1 O42 2.044223 1_554
Li1 O12 2.606801 1_555
Li2 O5 1.938361 1_555
Li2 O24 1.970989 1_545
Li2 O23 2.044223 1_546
Li2 O9 2.606801 1_555
Li3 O10 1.904892 1_555
Li3 O30 2.048203 1_545
Li3 O14 2.071596 1_555
Li4 O33 1.904892 1_555
Li4 O13 2.048203 1_565
Li4 O29 2.071596 1_555
Li5 O38 1.938361 1_555
Li5 O19 1.970989 1_565
Li5 O20 2.044223 1_564
Li5 O34 2.606801 1_555
Li6 O27 1.938361 1_555
Li6 O2 1.970989 1_555
Li6 O1 2.044223 1_556
Li6 O31 2.606801 1_555
Li7 O32 1.904892 1_555
Li7 O8 2.048203 1_555
Li7 O36 2.071596 1_555
Cr0 O6 2.050743 1_555
Cr0 O37 2.050743 1_555
Cr0 O36 2.208668 1_555
Cr0 O7 2.208668 1_555
Cr0 O2 2.481998 1_555
Cr0 O41 2.481998 1_555
Cr1 O15 2.050743 1_555
Cr1 O28 2.050743 1_445
Cr1 O29 2.208668 1_545
Cr1 O14 2.208668 1_455
Cr1 O19 2.481998 1_555
Cr1 O24 2.481998 1_445
H0 O6 0.998688 1_555
H0 O1 1.733053 1_555
H1 O7 0.987937 1_555
H2 O7 1.019546 1_555
H2 O18 1.521532 1_555
H3 O6 1.007688 1_555
H3 O16 1.613605 1_555
H4 O15 1.007688 1_555
H4 O5 1.613605 1_455
H5 O14 1.019546 1_555
H5 O3 1.521532 1_555
H6 O14 0.987937 1_555
H7 O15 0.998688 1_555
H7 O20 1.733053 1_555
H8 O28 0.998688 1_555
H8 O23 1.733053 1_555
H9 O29 0.987937 1_555
H10 O29 1.019546 1_555
H10 O40 1.521532 1_555
H11 O28 1.007688 1_555
H11 O38 1.613605 1_655
H12 O37 1.007688 1_555
H12 O27 1.613605 1_555
H13 O36 1.019546 1_555
H13 O25 1.521532 1_555
H14 O36 0.987937 1_555
H15 O37 0.998688 1_555
H15 O42 1.733053 1_555
O0 P4 1.616310 1_554
O0 P0 1.616629 1_555
O1 P1 1.515058 1_555
O2 P2 1.508906 1_555
O3 P0 1.491393 1_655
O4 P3 1.619833 1_555
O4 P0 1.634283 1_555
O5 P11 1.503807 1_555
O8 P2 1.496744 1_555
O9 P2 1.648490 1_555
O9 P1 1.653068 1_556
O10 P1 1.484524 1_555
O11 P4 1.484524 1_555
O12 P3 1.648490 1_555
O12 P4 1.653068 1_554
O13 P3 1.496744 1_555
O16 P6 1.503807 1_545
O17 P2 1.619833 1_555
O17 P5 1.634283 1_555
O18 P5 1.491393 1_555
O19 P3 1.508906 1_555
O20 P4 1.515058 1_555
O21 P1 1.616310 1_556
O21 P5 1.616629 1_555
O22 P10 1.616310 1_554
O22 P6 1.616629 1_555
O23 P7 1.515058 1_555
O24 P8 1.508906 1_555
O25 P6 1.491393 1_555
O26 P9 1.619833 1_555
O26 P6 1.634283 1_555
O27 P5 1.503807 1_565
O30 P8 1.496744 1_555
O31 P8 1.648490 1_555
O31 P7 1.653068 1_556
O32 P7 1.484524 1_555
O33 P10 1.484524 1_555
O34 P9 1.648490 1_555
O34 P10 1.653068 1_554
O35 P9 1.496744 1_555
O38 P0 1.503807 1_555
O39 P8 1.619833 1_555
O39 P11 1.634283 1_555
O40 P11 1.491393 1_455
O41 P9 1.508906 1_555
O42 P10 1.515058 1_555
O43 P7 1.616310 1_556
O43 P11 1.616629 1_555
