# generated using pymatgen
data_Li4Co2Ni3Sn(PO4)6
_symmetry_space_group_name_H-M   'P 1'
_cell_length_a   8.40767834
_cell_length_b   8.51473397
_cell_length_c   8.51447850
_cell_angle_alpha   62.70720697
_cell_angle_beta   63.10660707
_cell_angle_gamma   63.07882783
_symmetry_Int_Tables_number   1
_chemical_formula_structural   Li4Co2Ni3Sn(PO4)6
_chemical_formula_sum   'Li4 Co2 Ni3 Sn1 P6 O24'
_cell_volume   459.37169141
_cell_formula_units_Z   1
loop_
 _symmetry_equiv_pos_site_id
 _symmetry_equiv_pos_as_xyz
  1  'x, y, z'
loop_
 _atom_site_type_symbol
 _atom_site_label
 _atom_site_symmetry_multiplicity
 _atom_site_fract_x
 _atom_site_fract_y
 _atom_site_fract_z
 _atom_site_occupancy
  Li  Li0  1  0.74666700  0.14790400  0.35208300  1
  Li  Li1  1  0.29494900  0.84438800  0.64017400  1
  Li  Li2  1  0.63617900  0.29466400  0.84821000  1
  Li  Li3  1  0.84894800  0.63694000  0.29786300  1
  Co  Co0  1  0.01658100  0.00116200  0.99881400  1
  Co  Co1  1  0.48774900  0.50346300  0.49884000  1
  Ni  Ni0  1  0.14293900  0.14756300  0.14508100  1
  Ni  Ni1  1  0.35563900  0.35586700  0.35253300  1
  Ni  Ni2  1  0.64608900  0.64684800  0.65018000  1
  Sn  Sn0  1  0.85275600  0.84792400  0.85191300  1
  P  P0  1  0.25043700  0.54282400  0.95350800  1
  P  P1  1  0.55156800  0.95429000  0.25166800  1
  P  P2  1  0.94487600  0.24830900  0.54291000  1
  P  P3  1  0.05704100  0.74468300  0.44088300  1
  P  P4  1  0.43921700  0.05536500  0.74743800  1
  P  P5  1  0.74628700  0.44080300  0.05443300  1
  O  O0  1  0.10989500  0.30366500  0.49855200  1
  O  O1  1  0.31410700  0.51517500  0.10564300  1
  O  O2  1  0.05639400  0.91046300  0.25783200  1
  O  O3  1  0.54530900  0.10191100  0.30986100  1
  O  O4  1  0.02115800  0.80969800  0.60322200  1
  O  O5  1  0.25128300  0.59586200  0.42728900  1
  O  O6  1  0.24862200  0.07551400  0.90178500  1
  O  O7  1  0.44635100  0.24059600  0.58639600  1
  O  O8  1  0.17302200  0.39835100  0.98762900  1
  O  O9  1  0.59949700  0.42458400  0.25072700  1
  O  O10  1  0.10045300  0.75207500  0.91951800  1
  O  O11  1  0.39345900  0.00457500  0.18372700  1
  O  O12  1  0.60045800  0.01565600  0.81950800  1
  O  O13  1  0.89821400  0.24682200  0.07696700  1
  O  O14  1  0.40490600  0.56533200  0.75492100  1
  O  O15  1  0.81266700  0.60104200  0.02063800  1
  O  O16  1  0.56518400  0.75707300  0.40749200  1
  O  O17  1  0.75758700  0.91532100  0.09875100  1
  O  O18  1  0.74878200  0.40614200  0.56997800  1
  O  O19  1  0.95629500  0.17820900  0.40185500  1
  O  O20  1  0.47580000  0.89592700  0.68602900  1
  O  O21  1  0.92142400  0.09660100  0.74988900  1
  O  O22  1  0.68261800  0.47718600  0.89658100  1
  O  O23  1  0.89858500  0.67621800  0.48167800  1
loop_
_geom_bond_atom_site_label_1
_geom_bond_atom_site_label_2
_geom_bond_distance
_geom_bond_site_symmetry_2
Li0 O13 2.069382 1_555
Li0 O9 2.070690 1_555
Li0 O3 2.104461 1_555
Li0 O19 2.130808 1_555
Li0 O7 2.461881 1_555
Li0 O2 2.518464 1_645
Li1 O20 1.988840 1_555
Li1 O14 2.038147 1_555
Li1 O10 2.209033 1_555
Li1 O16 2.321416 1_555
Li1 O4 2.615594 1_555
Li2 O22 2.004825 1_555
Li2 O18 2.032736 1_555
Li2 O21 2.261096 1_555
Li2 O14 2.320307 1_555
Li3 O23 1.983135 1_555
Li3 O16 2.064154 1_555
Li3 O17 2.219635 1_555
Li3 O18 2.344599 1_555
Co0 O6 2.017451 1_555
Co0 O2 2.108097 1_546
Co0 O13 2.144973 1_456
Co0 O10 2.231493 1_545
Co0 O21 2.271201 1_455
Co0 O17 2.279161 1_446
Co1 O5 2.045133 1_555
Co1 O7 2.151073 1_555
Co1 O9 2.175062 1_555
Co1 O14 2.205448 1_555
Co1 O18 2.228371 1_555
Co1 O16 2.228588 1_555
Ni0 O11 1.991106 1_555
Ni0 O8 1.994518 1_554
Ni0 O13 2.083162 1_455
Ni0 O19 2.087858 1_455
Ni0 O2 2.108954 1_545
Ni0 O6 2.112775 1_554
Ni1 O1 2.000261 1_555
Ni1 O0 2.003287 1_555
Ni1 O9 2.076236 1_555
Ni1 O7 2.100878 1_555
Ni1 O5 2.101161 1_555
Ni1 O3 2.103492 1_555
Ni2 O22 1.996110 1_555
Ni2 O23 2.005984 1_555
Ni2 O20 2.022301 1_555
Ni2 O14 2.111834 1_555
Ni2 O16 2.127992 1_555
Ni2 O18 2.135453 1_555
O0 P2 1.498207 1_455
O1 P0 1.501148 1_554
O2 P3 1.550758 1_555
O3 P1 1.521800 1_545
O4 P3 1.575209 1_555
O4 Sn0 2.024062 1_455
O5 P3 1.541354 1_555
O6 P4 1.541771 1_555
O7 P4 1.548954 1_555
O8 P0 1.499179 1_555
O9 P5 1.553132 1_555
O10 P0 1.634377 1_555
O10 Sn0 2.109274 1_455
O11 P1 1.496067 1_545
O12 P4 1.573510 1_555
O12 Sn0 2.010047 1_545
O13 P5 1.554719 1_555
O14 P0 1.588720 1_555
O15 P5 1.562066 1_555
O15 Sn0 2.007597 1_554
O16 P1 1.585370 1_555
O17 P1 1.625156 1_555
O17 Sn0 2.134391 1_554
O18 P2 1.584715 1_555
O19 P2 1.519580 1_555
O20 P4 1.529169 1_565
O21 P2 1.625376 1_555
O21 Sn0 2.130217 1_545
O22 P5 1.519146 1_556
O23 P3 1.527848 1_655
