# generated using pymatgen
data_Ta2Pb2O7
_symmetry_space_group_name_H-M   'P 1'
_cell_length_a   7.65718579
_cell_length_b   7.65718579
_cell_length_c   7.65718579
_cell_angle_alpha   60.00000000
_cell_angle_beta   60.00000000
_cell_angle_gamma   60.00000000
_symmetry_Int_Tables_number   1
_chemical_formula_structural   Ta2Pb2O7
_chemical_formula_sum   'Ta4 Pb4 O14'
_cell_volume   317.46259144
_cell_formula_units_Z   2
loop_
 _symmetry_equiv_pos_site_id
 _symmetry_equiv_pos_as_xyz
  1  'x, y, z'
loop_
 _atom_site_type_symbol
 _atom_site_label
 _atom_site_symmetry_multiplicity
 _atom_site_fract_x
 _atom_site_fract_y
 _atom_site_fract_z
 _atom_site_occupancy
  Ta  Ta0  1  0.12500000  0.62500000  0.12500000  1
  Ta  Ta1  1  0.12500000  0.12500000  0.62500000  1
  Ta  Ta2  1  0.62500000  0.12500000  0.12500000  1
  Ta  Ta3  1  0.12500000  0.12500000  0.12500000  1
  Pb  Pb0  1  0.62500000  0.62500000  0.62500000  1
  Pb  Pb1  1  0.12500000  0.62500000  0.62500000  1
  Pb  Pb2  1  0.62500000  0.12500000  0.62500000  1
  Pb  Pb3  1  0.62500000  0.62500000  0.12500000  1
  O  O0  1  0.75000000  0.75000000  0.75000000  1
  O  O1  1  0.18433000  0.81567000  0.81567000  1
  O  O2  1  0.18433000  0.81567000  0.18433000  1
  O  O3  1  0.81567000  0.18433000  0.81567000  1
  O  O4  1  0.18433000  0.18433000  0.81567000  1
  O  O5  1  0.81567000  0.81567000  0.18433000  1
  O  O6  1  0.43433000  0.06567000  0.06567000  1
  O  O7  1  0.81567000  0.18433000  0.18433000  1
  O  O8  1  0.06567000  0.43433000  0.06567000  1
  O  O9  1  0.06567000  0.06567000  0.43433000  1
  O  O10  1  0.43433000  0.43433000  0.06567000  1
  O  O11  1  0.43433000  0.06567000  0.43433000  1
  O  O12  1  0.06567000  0.43433000  0.43433000  1
  O  O13  1  0.50000000  0.50000000  0.50000000  1
loop_
_geom_bond_atom_site_label_1
_geom_bond_atom_site_label_2
_geom_bond_distance
_geom_bond_site_symmetry_2
O0 Pb3 2.344525 1_556
O0 Pb1 2.344525 1_655
O0 Pb0 2.344525 1_555
O0 Pb2 2.344525 1_565
O1 Ta1 2.019235 1_565
O1 Ta0 2.019235 1_556
O2 Ta3 2.019235 1_565
O2 Ta0 2.019235 1_555
O3 Ta1 2.019235 1_655
O3 Ta2 2.019235 1_556
O4 Ta1 2.019235 1_555
O4 Ta3 2.019235 1_556
O5 Ta0 2.019235 1_655
O5 Ta2 2.019235 1_565
O6 Ta2 2.019235 1_555
O6 Ta3 2.019235 1_555
O7 Ta3 2.019235 1_655
O7 Ta2 2.019235 1_555
O8 Ta3 2.019235 1_555
O8 Ta0 2.019235 1_555
O9 Ta3 2.019235 1_555
O9 Ta1 2.019235 1_555
O10 Ta2 2.019235 1_555
O10 Ta0 2.019235 1_555
O11 Ta2 2.019235 1_555
O11 Ta1 2.019235 1_555
O12 Ta1 2.019235 1_555
O12 Ta0 2.019235 1_555
O13 Pb2 2.344525 1_555
O13 Pb3 2.344525 1_555
O13 Pb1 2.344525 1_555
O13 Pb0 2.344525 1_555
