# generated using pymatgen
data_Ba2CaI6
_symmetry_space_group_name_H-M   'P 1'
_cell_length_a   7.69766000
_cell_length_b   8.53641300
_cell_length_c   28.20774500
_cell_angle_alpha   90.00000000
_cell_angle_beta   90.00000000
_cell_angle_gamma   90.00000000
_symmetry_Int_Tables_number   1
_chemical_formula_structural   Ba2CaI6
_chemical_formula_sum   'Ba8 Ca4 I24'
_cell_volume   1853.54234508
_cell_formula_units_Z   4
loop_
 _symmetry_equiv_pos_site_id
 _symmetry_equiv_pos_as_xyz
  1  'x, y, z'
loop_
 _atom_site_type_symbol
 _atom_site_label
 _atom_site_symmetry_multiplicity
 _atom_site_fract_x
 _atom_site_fract_y
 _atom_site_fract_z
 _atom_site_occupancy
  Ba  Ba0  1  0.00000000  0.25000000  0.04907200  1
  Ba  Ba1  1  0.00000000  0.75000000  0.28404100  1
  Ba  Ba2  1  0.00000000  0.25000000  0.71595900  1
  Ba  Ba3  1  0.00000000  0.75000000  0.95092800  1
  Ba  Ba4  1  0.50000000  0.25000000  0.21595900  1
  Ba  Ba5  1  0.50000000  0.25000000  0.54907200  1
  Ba  Ba6  1  0.50000000  0.75000000  0.78404100  1
  Ba  Ba7  1  0.50000000  0.75000000  0.45092800  1
  Ca  Ca0  1  0.00000000  0.25000000  0.38211500  1
  Ca  Ca1  1  0.00000000  0.75000000  0.61788500  1
  Ca  Ca2  1  0.50000000  0.25000000  0.88211500  1
  Ca  Ca3  1  0.50000000  0.75000000  0.11788500  1
  I  I0  1  0.25158200  0.58938800  0.04153900  1
  I  I1  1  0.25158200  0.08938800  0.95846100  1
  I  I2  1  0.26923900  0.59090700  0.19830200  1
  I  I3  1  0.26923900  0.09090700  0.80169800  1
  I  I4  1  0.22959100  0.55386100  0.37238800  1
  I  I5  1  0.22959100  0.05386100  0.62761200  1
  I  I6  1  0.27040900  0.55386100  0.87238800  1
  I  I7  1  0.27040900  0.05386100  0.12761200  1
  I  I8  1  0.23076100  0.09090700  0.30169800  1
  I  I9  1  0.23076100  0.59090700  0.69830200  1
  I  I10  1  0.24841800  0.08938800  0.45846100  1
  I  I11  1  0.24841800  0.58938800  0.54153900  1
  I  I12  1  0.75158200  0.41061200  0.45846100  1
  I  I13  1  0.75158200  0.91061200  0.54153900  1
  I  I14  1  0.76923900  0.40909300  0.30169800  1
  I  I15  1  0.76923900  0.90909300  0.69830200  1
  I  I16  1  0.72959100  0.44613900  0.12761200  1
  I  I17  1  0.72959100  0.94613900  0.87238800  1
  I  I18  1  0.77040900  0.44613900  0.62761200  1
  I  I19  1  0.77040900  0.94613900  0.37238800  1
  I  I20  1  0.73076100  0.90909300  0.19830200  1
  I  I21  1  0.73076100  0.40909300  0.80169800  1
  I  I22  1  0.74841800  0.91061200  0.04153900  1
  I  I23  1  0.74841800  0.41061200  0.95846100  1
loop_
_geom_bond_atom_site_label_1
_geom_bond_atom_site_label_2
_geom_bond_distance
_geom_bond_site_symmetry_2
Ba0 I16 3.470480 1_455
Ba0 I7 3.470480 1_555
Ba0 I1 3.487543 1_554
Ba0 I23 3.487543 1_454
Ba0 I0 3.491283 1_555
Ba0 I22 3.491283 1_445
Ba1 I14 3.445605 1_455
Ba1 I8 3.445605 1_565
Ba1 I20 3.462492 1_455
Ba1 I2 3.462492 1_555
Ba1 I19 3.483844 1_455
Ba1 I4 3.483844 1_555
Ba2 I9 3.445605 1_555
Ba2 I15 3.445605 1_445
Ba2 I21 3.462492 1_455
Ba2 I3 3.462492 1_555
Ba2 I18 3.483844 1_455
Ba2 I5 3.483844 1_555
Ba3 I17 3.470480 1_455
Ba3 I6 3.470480 1_555
Ba3 I0 3.487543 1_556
Ba3 I22 3.487543 1_456
Ba3 I1 3.491283 1_565
Ba3 I23 3.491283 1_455
Ba4 I2 3.445605 1_555
Ba4 I20 3.445605 1_545
Ba4 I8 3.462492 1_555
Ba4 I14 3.462492 1_555
Ba4 I16 3.483844 1_555
Ba4 I7 3.483844 1_555
Ba5 I18 3.470480 1_555
Ba5 I5 3.470480 1_555
Ba5 I10 3.487543 1_555
Ba5 I12 3.487543 1_555
Ba5 I11 3.491283 1_555
Ba5 I13 3.491283 1_545
Ba6 I21 3.445605 1_555
Ba6 I3 3.445605 1_565
Ba6 I15 3.462492 1_555
Ba6 I9 3.462492 1_555
Ba6 I17 3.483844 1_555
Ba6 I6 3.483844 1_555
Ba7 I19 3.470480 1_555
Ba7 I4 3.470480 1_555
Ba7 I11 3.487543 1_555
Ba7 I13 3.487543 1_555
Ba7 I10 3.491283 1_565
Ba7 I12 3.491283 1_555
Ca0 I4 3.150700 1_555
Ca0 I19 3.150700 1_445
Ca0 I14 3.185163 1_455
Ca0 I8 3.185163 1_555
Ca0 I12 3.189702 1_455
Ca0 I10 3.189702 1_555
Ca1 I5 3.150700 1_565
Ca1 I18 3.150700 1_455
Ca1 I15 3.185163 1_455
Ca1 I9 3.185163 1_555
Ca1 I11 3.189702 1_555
Ca1 I13 3.189702 1_455
Ca2 I6 3.150700 1_555
Ca2 I17 3.150700 1_545
Ca2 I21 3.185163 1_555
Ca2 I3 3.185163 1_555
Ca2 I23 3.189702 1_555
Ca2 I1 3.189702 1_555
Ca3 I7 3.150700 1_565
Ca3 I16 3.150700 1_555
Ca3 I20 3.185163 1_555
Ca3 I2 3.185163 1_555
Ca3 I22 3.189702 1_555
Ca3 I0 3.189702 1_555
