# generated using pymatgen
data_CrH14N4Cl3O
_symmetry_space_group_name_H-M   'P 1'
_cell_length_a   13.06239570
_cell_length_b   10.50231062
_cell_length_c   6.63577142
_cell_angle_alpha   90.00000000
_cell_angle_beta   90.00000399
_cell_angle_gamma   90.00000000
_symmetry_Int_Tables_number   1
_chemical_formula_structural   CrH14N4Cl3O
_chemical_formula_sum   'Cr4 H56 N16 Cl12 O4'
_cell_volume   910.33053906
_cell_formula_units_Z   4
loop_
 _symmetry_equiv_pos_site_id
 _symmetry_equiv_pos_as_xyz
  1  'x, y, z'
loop_
 _atom_site_type_symbol
 _atom_site_label
 _atom_site_symmetry_multiplicity
 _atom_site_fract_x
 _atom_site_fract_y
 _atom_site_fract_z
 _atom_site_occupancy
  Cr  Cr0  1  0.58843316  0.75000000  0.81985947  1
  Cr  Cr1  1  0.08843316  0.75000000  0.68014053  1
  Cr  Cr2  1  0.41161298  0.25000000  0.17991560  1
  Cr  Cr3  1  0.91161298  0.25000000  0.32008340  1
  H  H0  1  0.68419385  0.82558981  0.13754536  1
  H  H1  1  0.18419485  0.67441019  0.36245464  1
  H  H2  1  0.31592476  0.32558697  0.86227679  1
  H  H3  1  0.81592476  0.17441303  0.63772221  1
  H  H4  1  0.31592476  0.17441303  0.86227679  1
  H  H5  1  0.81592476  0.32558697  0.63772221  1
  H  H6  1  0.68419385  0.67441019  0.13754536  1
  H  H7  1  0.18419485  0.82558981  0.36245464  1
  H  H8  1  0.77764145  0.75000000  0.69358304  1
  H  H9  1  0.27764145  0.75000000  0.80641696  1
  H  H10  1  0.22225784  0.25000000  0.30608883  1
  H  H11  1  0.72225884  0.25000000  0.19391117  1
  H  H12  1  0.70840196  0.67165116  0.52882569  1
  H  H13  1  0.20840196  0.82834884  0.97117431  1
  H  H14  1  0.29143398  0.17166138  0.47092698  1
  H  H15  1  0.79143398  0.32833862  0.02907302  1
  H  H16  1  0.29143398  0.32833862  0.47092698  1
  H  H17  1  0.79143398  0.17166138  0.02907302  1
  H  H18  1  0.70840196  0.82834884  0.52882569  1
  H  H19  1  0.20840196  0.67165116  0.97117431  1
  H  H20  1  0.51458398  0.75000000  0.44104574  1
  H  H21  1  0.01458398  0.75000000  0.05895426  1
  H  H22  1  0.48521061  0.25000000  0.55906067  1
  H  H23  1  0.98521061  0.25000000  0.94093833  1
  H  H24  1  0.43830898  0.67178443  0.59438107  1
  H  H25  1  0.93830898  0.82821557  0.90561893  1
  H  H26  1  0.56157176  0.17177897  0.40586106  1
  H  H27  1  0.06157176  0.32822103  0.09413894  1
  H  H28  1  0.56157176  0.32822103  0.40586106  1
  H  H29  1  0.06157176  0.17177897  0.09413894  1
  H  H30  1  0.43830898  0.82821557  0.59438107  1
  H  H31  1  0.93830898  0.67178443  0.90561893  1
  H  H32  1  0.52227454  0.98534055  0.78081196  1
  H  H33  1  0.02227454  0.51465945  0.71918804  1
  H  H34  1  0.47774182  0.48536785  0.21939947  1
  H  H35  1  0.97774182  0.01463215  0.28060053  1
  H  H36  1  0.47774182  0.01463215  0.21939947  1
  H  H37  1  0.97774182  0.48536785  0.28060053  1
  H  H38  1  0.52227454  0.51465945  0.78081196  1
  H  H39  1  0.02227454  0.98534055  0.71918804  1
  H  H40  1  0.60948231  0.98325544  0.95867958  1
  H  H41  1  0.10948231  0.51674456  0.54132042  1
  H  H42  1  0.39071016  0.48327464  0.04120688  1
  H  H43  1  0.89071016  0.01672536  0.45879312  1
  H  H44  1  0.39071016  0.01672536  0.04120688  1
  H  H45  1  0.89071016  0.48327464  0.45879312  1
  H  H46  1  0.60948231  0.51674456  0.95867958  1
  H  H47  1  0.10948231  0.98325544  0.54132042  1
  H  H48  1  0.64459653  0.98474043  0.72280208  1
  H  H49  1  0.14459653  0.51525957  0.77719892  1
  H  H50  1  0.35535718  0.48469933  0.27692907  1
  H  H51  1  0.85535718  0.01530067  0.22307093  1
  H  H52  1  0.35535718  0.01530067  0.27692907  1
  H  H53  1  0.85535718  0.48469933  0.22307093  1
  H  H54  1  0.64459653  0.51525957  0.72280208  1
  H  H55  1  0.14459653  0.98474043  0.77719892  1
  N  N0  1  0.59180416  0.94749868  0.81946142  1
  N  N1  1  0.09180416  0.55250132  0.68053858  1
  N  N2  1  0.40826210  0.44749888  0.18047802  1
  N  N3  1  0.90826210  0.05250112  0.31952198  1
  N  N4  1  0.40826210  0.05250112  0.18047802  1
  N  N5  1  0.90826210  0.44749888  0.31952198  1
  N  N6  1  0.59180416  0.55250132  0.81946142  1
  N  N7  1  0.09180416  0.94749868  0.68053858  1
  N  N8  1  0.70905120  0.75000000  0.62096418  1
  N  N9  1  0.20905120  0.75000000  0.87903582  1
  N  N10  1  0.29082641  0.25000000  0.37880150  1
  N  N11  1  0.79082641  0.25000000  0.12119850  1
  N  N12  1  0.48494293  0.75000000  0.58343182  1
  N  N13  1  0.98494293  0.75000000  0.91656818  1
  N  N14  1  0.51495005  0.25000000  0.41673540  1
  N  N15  1  0.01495005  0.25000000  0.08326360  1
  Cl  Cl0  1  0.45412517  0.75000000  0.04883900  1
  Cl  Cl1  1  0.95412517  0.75000000  0.45116100  1
  Cl  Cl2  1  0.54594530  0.25000000  0.95143891  1
  Cl  Cl3  1  0.04594530  0.25000000  0.54856209  1
  Cl  Cl4  1  0.84608919  0.01552883  0.81246863  1
  Cl  Cl5  1  0.34608919  0.48447117  0.68753137  1
  Cl  Cl6  1  0.15398707  0.51552549  0.18756469  1
  Cl  Cl7  1  0.65398707  0.98447451  0.31243531  1
  Cl  Cl8  1  0.15398707  0.98447451  0.18756469  1
  Cl  Cl9  1  0.65398707  0.51552549  0.31243531  1
  Cl  Cl10  1  0.84608919  0.48447117  0.81246863  1
  Cl  Cl11  1  0.34608919  0.01552883  0.68753137  1
  O  O0  1  0.69195647  0.75000000  0.04923352  1
  O  O1  1  0.19195647  0.75000000  0.45076648  1
  O  O2  1  0.30817472  0.25000000  0.95057484  1
  O  O3  1  0.80817472  0.25000000  0.54942516  1
loop_
_geom_bond_atom_site_label_1
_geom_bond_atom_site_label_2
_geom_bond_distance
_geom_bond_site_symmetry_2
Cr0 O0 2.036006 1_556
Cr0 N8 2.055317 1_555
Cr0 N12 2.070949 1_555
Cr0 N6 2.074662 1_555
Cr0 N0 2.074662 1_555
Cr1 O1 2.036007 1_555
Cr1 N9 2.055316 1_555
Cr1 N13 2.070949 1_455
Cr1 N7 2.074662 1_555
Cr1 N1 2.074662 1_555
Cr2 O2 2.035103 1_554
Cr2 N10 2.056965 1_555
Cr2 N14 2.071617 1_555
Cr2 N4 2.074660 1_555
Cr2 N2 2.074660 1_555
Cr3 O3 2.035109 1_555
Cr3 N11 2.056960 1_555
Cr3 N15 2.071617 1_655
Cr3 N3 2.074660 1_555
Cr3 N5 2.074660 1_555
H0 O0 0.991929 1_555
H1 O1 0.991928 1_555
H2 O2 0.991835 1_555
H3 O3 0.991831 1_555
H4 O2 0.991835 1_555
H5 O3 0.991831 1_555
H6 O0 0.991929 1_555
H7 O1 0.991928 1_555
H8 N8 1.017321 1_555
H9 N9 1.017321 1_555
H10 N10 1.017367 1_555
H11 N11 1.017355 1_555
H12 N8 1.025166 1_555
H13 N9 1.025166 1_555
H14 N10 1.025024 1_555
H15 N11 1.025024 1_555
H16 N10 1.025024 1_555
H17 N11 1.025024 1_555
H18 N8 1.025166 1_555
H19 N9 1.025166 1_555
H20 N12 1.021096 1_555
H21 N13 1.021096 1_454
H22 N14 1.021210 1_555
H23 N15 1.021210 1_656
H24 N12 1.025239 1_555
H25 N13 1.025239 1_555
H26 N14 1.025155 1_555
H27 N15 1.025155 1_555
H28 N14 1.025155 1_555
H29 N15 1.025155 1_555
H30 N12 1.025239 1_555
H31 N13 1.025239 1_555
H32 N0 1.024009 1_555
H33 N1 1.024009 1_555
H34 N2 1.023995 1_555
H35 N3 1.023995 1_555
H36 N4 1.023995 1_555
H37 N5 1.023995 1_555
H38 N6 1.024009 1_555
H39 N7 1.024009 1_555
H40 N0 1.023615 1_555
H41 N1 1.023615 1_555
H42 N2 1.023635 1_555
H43 N3 1.023635 1_555
H44 N4 1.023635 1_555
H45 N5 1.023635 1_555
H46 N6 1.023615 1_555
H47 N7 1.023615 1_555
H48 N0 1.019767 1_555
H49 N1 1.019771 1_555
H50 N2 1.019728 1_555
H51 N3 1.019728 1_555
H52 N4 1.019728 1_555
H53 N5 1.019728 1_555
H54 N6 1.019767 1_555
H55 N7 1.019771 1_555
Cl0 Cr0 2.320907 1_554
Cl1 Cr1 2.320907 1_655
Cl2 Cr2 2.318964 1_556
Cl3 Cr3 2.318973 1_455
Cl4 H3 2.069847 1_555
Cl5 H2 2.069844 1_555
Cl6 H1 2.070493 1_555
Cl7 H0 2.070491 1_555
Cl8 H7 2.070493 1_555
Cl9 H6 2.070491 1_555
Cl10 H5 2.069847 1_555
Cl11 H4 2.069844 1_555
