# generated using pymatgen
data_LiFePO4
_symmetry_space_group_name_H-M   'P 1'
_cell_length_a   7.81624800
_cell_length_b   8.89536100
_cell_length_c   17.65568877
_cell_angle_alpha   60.69961767
_cell_angle_beta   90.00000000
_cell_angle_gamma   90.00000000
_symmetry_Int_Tables_number   1
_chemical_formula_structural   LiFePO4
_chemical_formula_sum   'Li12 Fe12 P12 O48'
_cell_volume   1070.52282329
_cell_formula_units_Z   12
loop_
 _symmetry_equiv_pos_site_id
 _symmetry_equiv_pos_as_xyz
  1  'x, y, z'
loop_
 _atom_site_type_symbol
 _atom_site_label
 _atom_site_symmetry_multiplicity
 _atom_site_fract_x
 _atom_site_fract_y
 _atom_site_fract_z
 _atom_site_occupancy
  Li  Li0  1  0.00535900  0.78414100  0.92913200  1
  Li  Li1  1  0.98843000  0.15488200  0.58141400  1
  Li  Li2  1  0.15586400  0.49865200  0.24971900  1
  Li  Li3  1  0.65586400  0.50134800  0.25028100  1
  Li  Li4  1  0.48843000  0.84511800  0.91858600  1
  Li  Li5  1  0.50535900  0.21585900  0.57086800  1
  Li  Li6  1  0.49464100  0.78414100  0.42913200  1
  Li  Li7  1  0.51157000  0.15488200  0.08141400  1
  Li  Li8  1  0.34413600  0.49865200  0.74971900  1
  Li  Li9  1  0.84413600  0.50134800  0.75028100  1
  Li  Li10  1  0.01157000  0.84511800  0.41858600  1
  Li  Li11  1  0.99464100  0.21585900  0.07086800  1
  Fe  Fe0  1  0.66879200  0.13656600  0.40666900  1
  Fe  Fe1  1  0.83193000  0.81146400  0.76897500  1
  Fe  Fe2  1  0.66784100  0.52742500  0.07545300  1
  Fe  Fe3  1  0.16784100  0.47257500  0.42454700  1
  Fe  Fe4  1  0.33193000  0.18853600  0.73102500  1
  Fe  Fe5  1  0.16879200  0.86343400  0.09333100  1
  Fe  Fe6  1  0.83120800  0.13656600  0.90666900  1
  Fe  Fe7  1  0.66807000  0.81146400  0.26897500  1
  Fe  Fe8  1  0.83215900  0.52742500  0.57545300  1
  Fe  Fe9  1  0.33215900  0.47257500  0.92454700  1
  Fe  Fe10  1  0.16807000  0.18853600  0.23102500  1
  Fe  Fe11  1  0.33120800  0.86343400  0.59333100  1
  P  P0  1  0.24724500  0.14171000  0.40666500  1
  P  P1  1  0.24342500  0.80617000  0.77551100  1
  P  P2  1  0.25063700  0.54719000  0.07057500  1
  P  P3  1  0.75063700  0.45281000  0.42942500  1
  P  P4  1  0.74342500  0.19383000  0.72448900  1
  P  P5  1  0.74724500  0.85829000  0.09333500  1
  P  P6  1  0.25275500  0.14171000  0.90666500  1
  P  P7  1  0.25657500  0.80617000  0.27551100  1
  P  P8  1  0.24936300  0.54719000  0.57057500  1
  P  P9  1  0.74936300  0.45281000  0.92942500  1
  P  P10  1  0.75657500  0.19383000  0.22448900  1
  P  P11  1  0.75275500  0.85829000  0.59333500  1
  O  O0  1  0.42399300  0.07688400  0.39412300  1
  O  O1  1  0.88709100  0.92112700  0.63690200  1
  O  O2  1  0.38482800  0.73703000  0.84684500  1
  O  O3  1  0.20794200  0.07299200  0.50482000  1
  O  O4  1  0.79828700  0.57321400  0.96716600  1
  O  O5  1  0.74042200  0.28499600  0.28047100  1
  O  O6  1  0.24888600  0.43540000  0.17159600  1
  O  O7  1  0.07017400  0.76167600  0.82519100  1
  O  O8  1  0.42988800  0.62904500  0.03679400  1
  O  O9  1  0.25640900  0.00154000  0.70960600  1
  O  O10  1  0.12236700  0.69865400  0.04145400  1
  O  O11  1  0.23803200  0.34267500  0.36137200  1
  O  O12  1  0.73803200  0.65732500  0.13862800  1
  O  O13  1  0.62236700  0.30134600  0.45854600  1
  O  O14  1  0.75640900  0.99846000  0.79039400  1
  O  O15  1  0.92988800  0.37095500  0.46320600  1
  O  O16  1  0.57017400  0.23832400  0.67480900  1
  O  O17  1  0.74888600  0.56460000  0.32840400  1
  O  O18  1  0.24042200  0.71500400  0.21952900  1
  O  O19  1  0.29828700  0.42678600  0.53283400  1
  O  O20  1  0.70794200  0.92700800  0.99518000  1
  O  O21  1  0.88482800  0.26297000  0.65315500  1
  O  O22  1  0.38709100  0.07887300  0.86309800  1
  O  O23  1  0.92399300  0.92311600  0.10587700  1
  O  O24  1  0.07600700  0.07688400  0.89412300  1
  O  O25  1  0.61290900  0.92112700  0.13690200  1
  O  O26  1  0.11517200  0.73703000  0.34684500  1
  O  O27  1  0.29205800  0.07299200  0.00482000  1
  O  O28  1  0.70171300  0.57321400  0.46716600  1
  O  O29  1  0.75957800  0.28499600  0.78047100  1
  O  O30  1  0.25111400  0.43540000  0.67159600  1
  O  O31  1  0.42982600  0.76167600  0.32519100  1
  O  O32  1  0.07011200  0.62904500  0.53679400  1
  O  O33  1  0.24359100  0.00154000  0.20960600  1
  O  O34  1  0.37763300  0.69865400  0.54145400  1
  O  O35  1  0.26196800  0.34267500  0.86137200  1
  O  O36  1  0.76196800  0.65732500  0.63862800  1
  O  O37  1  0.74359100  0.99846000  0.29039400  1
  O  O38  1  0.87763300  0.30134600  0.95854600  1
  O  O39  1  0.57011200  0.37095500  0.96320600  1
  O  O40  1  0.92982600  0.23832400  0.17480900  1
  O  O41  1  0.75111400  0.56460000  0.82840400  1
  O  O42  1  0.25957800  0.71500400  0.71952900  1
  O  O43  1  0.20171300  0.42678600  0.03283400  1
  O  O44  1  0.79205800  0.92700800  0.49518000  1
  O  O45  1  0.61517200  0.26297000  0.15315500  1
  O  O46  1  0.11290900  0.07887300  0.36309800  1
  O  O47  1  0.57600700  0.92311600  0.60587700  1
loop_
_geom_bond_atom_site_label_1
_geom_bond_atom_site_label_2
_geom_bond_distance
_geom_bond_site_symmetry_2
Li0 O10 1.967595 1_556
Li0 O7 2.005818 1_555
Li0 O4 2.314681 1_455
Li0 O24 2.427480 1_565
Li1 O1 1.979133 1_545
Li1 O15 2.081618 1_555
Li1 O21 2.092023 1_555
Li1 O3 2.503479 1_655
Li2 O18 1.849514 1_555
Li2 O6 1.872788 1_555
Li2 O11 1.883224 1_555
Li3 O5 1.849514 1_555
Li3 O17 1.872788 1_555
Li3 O12 1.883224 1_555
Li4 O22 1.979133 1_565
Li4 O8 2.081618 1_556
Li4 O2 2.092023 1_555
Li4 O20 2.503479 1_555
Li5 O13 1.967595 1_555
Li5 O16 2.005818 1_555
Li5 O19 2.314681 1_555
Li5 O47 2.427480 1_545
Li6 O34 1.967595 1_555
Li6 O31 2.005818 1_555
Li6 O28 2.314681 1_555
Li6 O0 2.427480 1_565
Li7 O25 1.979133 1_545
Li7 O39 2.081618 1_554
Li7 O45 2.092023 1_555
Li7 O27 2.503479 1_555
Li8 O42 1.849514 1_555
Li8 O30 1.872788 1_555
Li8 O35 1.883224 1_555
Li9 O29 1.849514 1_555
Li9 O41 1.872788 1_555
Li9 O36 1.883224 1_555
Li10 O46 1.979133 1_565
Li10 O32 2.081618 1_555
Li10 O26 2.092023 1_555
Li10 O44 2.503479 1_455
Li11 O38 1.967595 1_554
Li11 O40 2.005818 1_555
Li11 O43 2.314681 1_655
Li11 O23 2.427480 1_545
Fe0 O44 1.998500 1_545
Fe0 O0 2.026611 1_555
Fe0 O5 2.035145 1_555
Fe0 O13 2.105503 1_555
Fe1 O14 1.968257 1_555
Fe1 O41 2.016661 1_555
Fe1 O7 2.053950 1_655
Fe1 O1 2.085315 1_555
Fe2 O4 2.024493 1_554
Fe2 O8 2.034288 1_555
Fe2 O12 2.035142 1_555
Fe2 O45 2.103967 1_555
Fe3 O19 2.024493 1_555
Fe3 O15 2.034288 1_455
Fe3 O11 2.035142 1_555
Fe3 O26 2.103967 1_555
Fe4 O9 1.968257 1_555
Fe4 O30 2.016661 1_555
Fe4 O16 2.053950 1_555
Fe4 O22 2.085315 1_555
Fe5 O27 1.998500 1_565
Fe5 O23 2.026611 1_455
Fe5 O18 2.035145 1_555
Fe5 O10 2.105503 1_555
Fe6 O20 1.998500 1_545
Fe6 O24 2.026611 1_655
Fe6 O29 2.035145 1_555
Fe6 O38 2.105503 1_555
Fe7 O37 1.968257 1_555
Fe7 O17 2.016661 1_555
Fe7 O31 2.053950 1_555
Fe7 O25 2.085315 1_555
Fe8 O28 2.024493 1_555
Fe8 O32 2.034288 1_655
Fe8 O36 2.035142 1_555
Fe8 O21 2.103967 1_555
Fe9 O43 2.024493 1_556
Fe9 O39 2.034288 1_555
Fe9 O35 2.035142 1_555
Fe9 O2 2.103967 1_555
Fe10 O33 1.968257 1_555
Fe10 O6 2.016661 1_555
Fe10 O40 2.053950 1_455
Fe10 O46 2.085315 1_555
Fe11 O3 1.998500 1_565
Fe11 O47 2.026611 1_555
Fe11 O42 2.035145 1_555
Fe11 O34 2.105503 1_555
O0 P0 1.554060 1_555
O1 P11 1.558026 1_555
O2 P1 1.558164 1_555
O3 P0 1.560272 1_555
O4 P9 1.560736 1_555
O5 P10 1.560468 1_555
O6 P2 1.560214 1_555
O7 P1 1.555637 1_555
O8 P2 1.556868 1_555
O9 P1 1.550879 1_545
O10 P2 1.551387 1_555
O11 P0 1.562426 1_555
O12 P5 1.562426 1_555
O13 P3 1.551387 1_555
O14 P4 1.550879 1_565
O15 P3 1.556868 1_555
O16 P4 1.555637 1_555
O17 P3 1.560214 1_555
O18 P7 1.560468 1_555
O19 P8 1.560736 1_555
O20 P5 1.560272 1_556
O21 P4 1.558164 1_555
O22 P6 1.558026 1_555
O23 P5 1.554060 1_555
O24 P6 1.554060 1_555
O25 P5 1.558026 1_555
O26 P7 1.558164 1_555
O27 P6 1.560272 1_554
O28 P3 1.560736 1_555
O29 P4 1.560468 1_555
O30 P8 1.560214 1_555
O31 P7 1.555637 1_555
O32 P8 1.556868 1_555
O33 P7 1.550879 1_545
O34 P8 1.551387 1_555
O35 P6 1.562426 1_555
O36 P11 1.562426 1_555
O37 P10 1.550879 1_565
O38 P9 1.551387 1_555
O39 P9 1.556868 1_555
O40 P10 1.555637 1_555
O41 P9 1.560214 1_555
O42 P1 1.560468 1_555
O43 P2 1.560736 1_555
O44 P11 1.560272 1_555
O45 P10 1.558164 1_555
O46 P0 1.558026 1_555
O47 P11 1.554060 1_555
