# generated using pymatgen
data_Li2V2(SiO3)3
_symmetry_space_group_name_H-M   'P 1'
_cell_length_a   10.08846837
_cell_length_b   10.08846837
_cell_length_c   12.57626800
_cell_angle_alpha   90.00000000
_cell_angle_beta   90.00000000
_cell_angle_gamma   120.00000242
_symmetry_Int_Tables_number   1
_chemical_formula_structural   Li2V2(SiO3)3
_chemical_formula_sum   'Li12 V12 Si18 O54'
_cell_volume   1108.49280379
_cell_formula_units_Z   6
loop_
 _symmetry_equiv_pos_site_id
 _symmetry_equiv_pos_as_xyz
  1  'x, y, z'
loop_
 _atom_site_type_symbol
 _atom_site_label
 _atom_site_symmetry_multiplicity
 _atom_site_fract_x
 _atom_site_fract_y
 _atom_site_fract_z
 _atom_site_occupancy
  Li  Li0  1  0.47440500  0.63647800  0.18487600  1
  Li  Li1  1  0.62745600  0.49221100  0.01538400  1
  Li  Li2  1  0.50778900  0.13524400  0.68205000  1
  Li  Li3  1  0.36352200  0.83792700  0.85154300  1
  Li  Li4  1  0.86475600  0.37254400  0.34871700  1
  Li  Li5  1  0.49786400  0.69814300  0.67977600  1
  Li  Li6  1  0.67369700  0.99583200  0.74765200  1
  Li  Li7  1  0.16207300  0.52559500  0.51821000  1
  Li  Li8  1  0.20028000  0.50213600  0.01310900  1
  Li  Li9  1  0.00416800  0.67786500  0.41431800  1
  Li  Li10  1  0.32213500  0.32630300  0.08098500  1
  Li  Li11  1  0.30185700  0.79972000  0.34644200  1
  V  V0  1  0.66923400  0.49780500  0.49350700  1
  V  V1  1  0.50219500  0.17142900  0.16017300  1
  V  V2  1  0.82857100  0.33076600  0.82684000  1
  V  V3  1  0.67248500  0.99404200  0.24442000  1
  V  V4  1  0.70381800  0.00185400  0.00234300  1
  V  V5  1  0.82059200  0.82601400  0.83936400  1
  V  V6  1  0.00542200  0.17940800  0.17269700  1
  V  V7  1  0.32155600  0.32751500  0.57775300  1
  V  V8  1  0.29803600  0.29618200  0.33567600  1
  V  V9  1  0.99814600  0.70196400  0.66900900  1
  V  V10  1  0.00595800  0.67844400  0.91108600  1
  V  V11  1  0.17398600  0.99457800  0.50603100  1
  Si  Si0  1  0.46963200  0.62295700  0.91648900  1
  Si  Si1  1  0.62221000  0.48270200  0.76226900  1
  Si  Si2  1  0.51051100  0.18089900  0.90187500  1
  Si  Si3  1  0.67038800  0.48948900  0.23520800  1
  Si  Si4  1  0.37704300  0.84667500  0.58315600  1
  Si  Si5  1  0.51729800  0.13950900  0.42893600  1
  Si  Si6  1  0.50670400  0.67504500  0.43679800  1
  Si  Si7  1  0.81910100  0.32961200  0.56854200  1
  Si  Si8  1  0.86049100  0.37779000  0.09560200  1
  Si  Si9  1  0.95357200  0.16106800  0.44798900  1
  Si  Si10  1  0.80291800  0.85662300  0.57091000  1
  Si  Si11  1  0.15332500  0.53036800  0.24982300  1
  Si  Si12  1  0.16834100  0.49329600  0.77013100  1
  Si  Si13  1  0.05370500  0.19708200  0.90424400  1
  Si  Si14  1  0.83893200  0.79250300  0.11465600  1
  Si  Si15  1  0.20749700  0.04642800  0.78132300  1
  Si  Si16  1  0.14337700  0.94629500  0.23757700  1
  Si  Si17  1  0.32495500  0.83165900  0.10346500  1
  O  O0  1  0.42512100  0.48782300  0.43929000  1
  O  O1  1  0.42978000  0.55457000  0.03526000  1
  O  O2  1  0.52020000  0.51727800  0.84675400  1
  O  O3  1  0.48717900  0.36595800  0.23209300  1
  O  O4  1  0.39045100  0.19211800  0.44651400  1
  O  O5  1  0.35580600  0.04518400  0.84145200  1
  O  O6  1  0.55230700  0.45338800  0.64356400  1
  O  O7  1  0.47723200  0.25046100  0.00683700  1
  O  O8  1  0.68937800  0.64419400  0.17478500  1
  O  O9  1  0.59966800  0.31795500  0.80870300  1
  O  O10  1  0.48272200  0.00292200  0.51342100  1
  O  O11  1  0.77322900  0.52276800  0.34017000  1
  O  O12  1  0.44543000  0.87521000  0.70192600  1
  O  O13  1  0.54661200  0.09891900  0.31023100  1
  O  O14  1  0.80166600  0.60954900  0.77984700  1
  O  O15  1  0.71828700  0.40033200  0.14203600  1
  O  O16  1  0.63404200  0.12122100  0.89875900  1
  O  O17  1  0.51217700  0.93729700  0.10595600  1
  O  O18  1  0.40961300  0.71573500  0.52599400  1
  O  O19  1  0.68204500  0.28171300  0.47536900  1
  O  O20  1  0.52739800  0.76540900  0.32725900  1
  O  O21  1  0.74953900  0.22677100  0.67350400  1
  O  O22  1  0.87877900  0.51282100  0.56542600  1
  O  O23  1  0.90108100  0.44769300  0.97689800  1
  O  O24  1  0.59592500  0.80121100  0.89816800  1
  O  O25  1  0.80788200  0.19833400  0.11318000  1
  O  O26  1  0.99707800  0.47980000  0.18008700  1
  O  O27  1  0.95481600  0.31062200  0.50811900  1
  O  O28  1  0.67199700  0.71472800  0.49496600  1
  O  O29  1  0.06270300  0.57487900  0.77262300  1
  O  O30  1  0.89125800  0.15484200  0.32733000  1
  O  O31  1  0.72881000  0.84334400  0.68727900  1
  O  O32  1  0.12479000  0.57022000  0.36859300  1
  O  O33  1  0.82586800  0.01139800  0.51253900  1
  O  O34  1  0.81276000  0.93861000  0.13086700  1
  O  O35  1  0.88547400  0.04826400  0.89542500  1
  O  O36  1  0.04273100  0.32800300  0.82829900  1
  O  O37  1  0.84515800  0.73641600  0.99399700  1
  O  O38  1  0.11453400  0.27119000  0.02061300  1
  O  O39  1  0.23801200  0.47260200  0.66059200  1
  O  O40  1  0.20528600  0.40407500  0.23150100  1
  O  O41  1  0.95173600  0.83721100  0.56209100  1
  O  O42  1  0.12584900  0.18724000  0.46420000  1
  O  O43  1  0.30612200  0.59038700  0.85932800  1
  O  O44  1  0.98860200  0.81447000  0.17920600  1
  O  O45  1  0.18553000  0.17413200  0.84587200  1
  O  O46  1  0.16278900  0.11452600  0.22875800  1
  O  O47  1  0.06139000  0.87415100  0.79753300  1
  O  O48  1  0.15665600  0.88546600  0.35394600  1
  O  O49  1  0.26358400  0.10874200  0.66066400  1
  O  O50  1  0.19878900  0.79471400  0.56483500  1
  O  O51  1  0.28527200  0.95726900  0.16163300  1
  O  O52  1  0.23459100  0.76198800  0.99392600  1
  O  O53  1  0.28426500  0.69387800  0.19266100  1
loop_
_geom_bond_atom_site_label_1
_geom_bond_atom_site_label_2
_geom_bond_distance
_geom_bond_site_symmetry_2
Li0 O1 2.013440 1_555
Li0 O20 2.118657 1_555
Li0 O8 2.134669 1_555
Li0 O53 2.266118 1_555
Li0 O40 2.616599 1_555
Li1 O7 2.135497 1_555
Li1 O15 2.255058 1_555
Li1 O37 2.356843 1_554
Li1 O1 2.385347 1_555
Li1 O8 2.408744 1_555
Li1 O2 2.450702 1_554
Li2 O21 2.135495 1_555
Li2 O9 2.255073 1_555
Li2 O49 2.356845 1_555
Li2 O12 2.385337 1_545
Li2 O5 2.408754 1_555
Li2 O10 2.450686 1_555
Li3 O12 2.013452 1_555
Li3 O52 2.118658 1_555
Li3 O5 2.134669 1_565
Li3 O43 2.266118 1_555
Li3 O24 2.616599 1_555
Li4 O11 2.135505 1_555
Li4 O19 2.255064 1_555
Li4 O30 2.356837 1_555
Li4 O32 2.385340 1_655
Li4 O27 2.408749 1_555
Li4 O26 2.450699 1_555
Li5 O31 2.042093 1_555
Li5 O12 2.119750 1_555
Li5 O18 2.173141 1_555
Li5 O39 2.478489 1_555
Li6 O31 2.026710 1_555
Li6 O12 2.076625 1_555
Li6 O21 2.258415 1_565
Li6 O16 2.424391 1_565
Li6 O24 2.552121 1_555
Li7 O32 2.013452 1_555
Li7 O39 2.118652 1_555
Li7 O27 2.134669 1_455
Li7 O18 2.266117 1_555
Li7 O50 2.616599 1_555
Li8 O38 2.042092 1_555
Li8 O1 2.119742 1_555
Li8 O43 2.173127 1_554
Li8 O52 2.478488 1_554
Li9 O48 2.026706 1_555
Li9 O32 2.076621 1_555
Li9 O11 2.258415 1_455
Li9 O22 2.424401 1_455
Li9 O50 2.552130 1_555
Li10 O38 2.026706 1_555
Li10 O1 2.076621 1_555
Li10 O7 2.258415 1_555
Li10 O3 2.424401 1_555
Li10 O40 2.552121 1_555
Li11 O48 2.042102 1_555
Li11 O32 2.119745 1_555
Li11 O53 2.173126 1_555
Li11 O20 2.478488 1_555
O0 Si6 1.640528 1_555
O0 V8 2.144975 1_555
O0 V7 2.247160 1_555
O0 V0 2.508401 1_555
O1 Si0 1.609776 1_554
O2 Si1 1.633606 1_555
O2 Si0 1.646191 1_555
O3 Si3 1.633227 1_555
O3 V8 2.119053 1_555
O3 V1 2.233773 1_555
O4 Si5 1.627071 1_555
O4 V8 2.212068 1_555
O4 V11 2.224579 1_545
O4 V7 2.454066 1_555
O5 Si2 1.658625 1_555
O5 Si15 1.682087 1_555
O6 Si1 1.613964 1_555
O6 V0 2.150595 1_555
O6 V7 2.181892 1_555
O7 Si2 1.607263 1_554
O7 V1 2.149099 1_555
O8 Si3 1.658625 1_555
O8 Si14 1.682092 1_555
O9 Si1 1.666480 1_555
O9 Si2 1.688250 1_555
O9 V2 2.258993 1_555
O10 Si5 1.633614 1_555
O10 Si4 1.646191 1_545
O11 Si3 1.607263 1_555
O11 V0 2.149111 1_555
O12 Si4 1.609764 1_555
O13 Si5 1.613967 1_555
O13 V1 2.150606 1_555
O13 V3 2.181885 1_545
O14 Si1 1.627071 1_555
O14 V9 2.212075 1_555
O14 V5 2.224575 1_555
O14 V10 2.454066 1_655
O15 Si8 1.666470 1_555
O15 Si3 1.688250 1_555
O15 V1 2.258993 1_555
O16 Si2 1.633227 1_555
O16 V4 2.119060 1_556
O16 V2 2.233768 1_555
O17 Si17 1.640527 1_555
O17 V4 2.144966 1_565
O17 V3 2.247167 1_555
O17 V1 2.508410 1_565
O18 Si6 1.669833 1_555
O18 Si4 1.674458 1_555
O19 Si5 1.666472 1_555
O19 Si7 1.688259 1_555
O19 V0 2.258994 1_555
O20 Si6 1.606891 1_555
O20 V3 2.274176 1_555
O21 Si7 1.607263 1_555
O21 V2 2.149099 1_555
O22 Si7 1.633227 1_555
O22 V9 2.119053 1_555
O22 V0 2.233768 1_555
O23 Si8 1.613952 1_556
O23 V2 2.150606 1_555
O23 V10 2.181898 1_655
O24 Si0 1.618367 1_555
O24 V4 2.189809 1_566
O24 V5 2.275876 1_555
O25 Si8 1.627071 1_555
O25 V4 2.212067 1_555
O25 V6 2.224584 1_655
O25 V3 2.454074 1_545
O26 Si8 1.633612 1_555
O26 Si11 1.646197 1_655
O27 Si7 1.658625 1_555
O27 Si9 1.682102 1_555
O28 Si6 1.675877 1_555
O28 Si10 1.677849 1_555
O28 V0 2.174695 1_555
O29 Si12 1.640519 1_555
O29 V9 2.144981 1_455
O29 V10 2.247169 1_555
O29 V2 2.508405 1_455
O30 Si9 1.631652 1_555
O30 V6 2.210061 1_655
O30 V3 2.238229 1_545
O31 Si10 1.618192 1_555
O31 V5 2.169814 1_555
O32 Si11 1.609764 1_555
O33 Si9 1.628938 1_555
O33 Si10 1.633730 1_545
O34 Si14 1.634971 1_555
O34 V4 2.220101 1_565
O34 V3 2.268522 1_555
O34 V6 2.287855 1_665
O35 Si13 1.612058 1_655
O35 V5 2.117826 1_545
O35 V4 2.127847 1_556
O36 Si12 1.675877 1_555
O36 Si13 1.677856 1_555
O36 V2 2.174695 1_455
O37 Si14 1.631648 1_556
O37 V5 2.210061 1_555
O37 V10 2.238229 1_655
O38 Si13 1.618192 1_554
O38 V6 2.169802 1_555
O39 Si12 1.606896 1_555
O39 V7 2.274162 1_555
O40 Si11 1.618369 1_555
O40 V8 2.189809 1_555
O40 V6 2.275875 1_555
O41 Si10 1.612052 1_555
O41 V11 2.117820 1_655
O41 V9 2.127854 1_555
O42 Si9 1.634951 1_455
O42 V8 2.220107 1_555
O42 V7 2.268522 1_555
O42 V11 2.287864 1_545
O43 Si12 1.669842 1_555
O43 Si0 1.674453 1_555
O44 Si14 1.628934 1_555
O44 Si16 1.633730 1_655
O45 Si15 1.628937 1_555
O45 Si13 1.633736 1_555
O46 Si16 1.612062 1_545
O46 V6 2.117817 1_555
O46 V8 2.127849 1_555
O47 Si15 1.634957 1_565
O47 V9 2.220108 1_455
O47 V10 2.268522 1_555
O47 V5 2.287855 1_455
O48 Si16 1.618192 1_555
O48 V11 2.169814 1_555
O49 Si15 1.631650 1_555
O49 V11 2.210061 1_545
O49 V7 2.238237 1_555
O50 Si4 1.618367 1_555
O50 V9 2.189801 1_455
O50 V11 2.275876 1_555
O51 Si17 1.675877 1_555
O51 Si16 1.677849 1_555
O51 V1 2.174695 1_565
O52 Si17 1.606893 1_556
O52 V10 2.274185 1_555
O53 Si17 1.669833 1_555
O53 Si11 1.674458 1_555
