# generated using pymatgen
data_Li5FeO3F
_symmetry_space_group_name_H-M   'P 1'
_cell_length_a   6.66700000
_cell_length_b   8.00747233
_cell_length_c   7.43947824
_cell_angle_alpha   89.98456997
_cell_angle_beta   90.00056756
_cell_angle_gamma   89.99792975
_symmetry_Int_Tables_number   1
_chemical_formula_structural   Li5FeO3F
_chemical_formula_sum   'Li20 Fe4 O12 F4'
_cell_volume   397.16261690
_cell_formula_units_Z   4
loop_
 _symmetry_equiv_pos_site_id
 _symmetry_equiv_pos_as_xyz
  1  'x, y, z'
loop_
 _atom_site_type_symbol
 _atom_site_label
 _atom_site_symmetry_multiplicity
 _atom_site_fract_x
 _atom_site_fract_y
 _atom_site_fract_z
 _atom_site_occupancy
  Li  Li0  1  0.24997900  0.44814300  0.45741800  1
  Li  Li1  1  0.24998700  0.94818800  0.95738000  1
  Li  Li2  1  0.24999000  0.15867200  0.50243900  1
  Li  Li3  1  0.24997300  0.65872500  0.00240800  1
  Li  Li4  1  0.74999200  0.86552600  0.50412300  1
  Li  Li5  1  0.74998200  0.36547800  0.00417700  1
  Li  Li6  1  0.74999200  0.57718000  0.45699000  1
  Li  Li7  1  0.74997900  0.07709300  0.95689500  1
  Li  Li8  1  0.99965300  0.01229100  0.18290400  1
  Li  Li9  1  0.99961500  0.51230200  0.68282700  1
  Li  Li10  1  0.50036300  0.01229100  0.18288900  1
  Li  Li11  1  0.50029300  0.51231200  0.68285000  1
  Li  Li12  1  0.02077800  0.16069200  0.75439800  1
  Li  Li13  1  0.02071000  0.66070700  0.25441100  1
  Li  Li14  1  0.47919100  0.16068600  0.75438100  1
  Li  Li15  1  0.47925700  0.66071000  0.25444200  1
  Li  Li16  1  0.97982300  0.86651300  0.75501500  1
  Li  Li17  1  0.97977300  0.36649600  0.25509300  1
  Li  Li18  1  0.52017300  0.86650800  0.75501400  1
  Li  Li19  1  0.52014900  0.36648300  0.25507300  1
  Fe  Fe0  1  0.75014800  0.71162400  0.01777400  1
  Fe  Fe1  1  0.25007600  0.81205600  0.51977300  1
  Fe  Fe2  1  0.74995100  0.21205500  0.51784700  1
  Fe  Fe3  1  0.24999700  0.31222300  0.01954800  1
  O  O0  1  0.74999800  0.02002400  0.70964400  1
  O  O1  1  0.74997800  0.51991100  0.20999500  1
  O  O2  1  0.24992000  0.00557600  0.70935300  1
  O  O3  1  0.24992800  0.50530500  0.20930900  1
  O  O4  1  0.48537600  0.31205700  0.51924100  1
  O  O5  1  0.48561000  0.81185600  0.01928900  1
  O  O6  1  0.01456700  0.31202700  0.51923300  1
  O  O7  1  0.01456700  0.81205900  0.01921400  1
  O  O8  1  0.98530700  0.71277200  0.51987400  1
  O  O9  1  0.98529500  0.21257500  0.01986600  1
  O  O10  1  0.51495100  0.71283700  0.52029100  1
  O  O11  1  0.51460200  0.21266500  0.01976800  1
  F  F0  1  0.74999600  0.01225700  0.30424000  1
  F  F1  1  0.74998900  0.51230600  0.80429800  1
  F  F2  1  0.25031500  0.01087000  0.30401000  1
  F  F3  1  0.24978100  0.51138900  0.80370800  1
loop_
_geom_bond_atom_site_label_1
_geom_bond_atom_site_label_2
_geom_bond_distance
_geom_bond_site_symmetry_2
Li0 O3 1.901588 1_555
Li0 O4 1.965089 1_555
Li0 O6 1.965359 1_555
Li1 O2 1.901432 1_565
Li1 O7 1.965492 1_556
Li1 O5 1.967535 1_556
Li2 O2 1.967584 1_555
Li2 O6 1.996758 1_555
Li2 O4 1.996783 1_555
Li3 O3 1.969126 1_555
Li3 O7 1.996571 1_555
Li3 O5 1.996886 1_555
Li4 O0 1.967048 1_565
Li4 O10 1.991220 1_555
Li4 O8 1.992722 1_555
Li5 O1 1.968439 1_555
Li5 O11 1.993355 1_555
Li5 O9 1.993417 1_555
Li6 O1 1.893992 1_555
Li6 O10 1.964044 1_555
Li6 O8 1.964527 1_555
Li7 O0 1.895453 1_555
Li7 O9 1.964200 1_556
Li7 O11 1.964694 1_556
Li8 O9 2.012795 1_555
Li8 O7 2.016092 1_645
Li9 O8 2.013586 1_555
Li9 O6 2.015947 1_655
Li10 O11 2.013710 1_555
Li10 O5 2.016933 1_545
Li11 O10 2.012293 1_555
Li11 O4 2.015880 1_555
Li12 O2 1.997251 1_555
Li12 O9 2.032095 1_456
Li12 O6 2.128338 1_555
Li12 O0 2.153841 1_455
Li13 O3 1.999135 1_555
Li13 O8 2.032295 1_455
Li13 O7 2.128602 1_555
Li13 O1 2.153721 1_455
Li14 O2 1.997922 1_555
Li14 O11 2.031610 1_556
Li14 O4 2.128348 1_555
Li14 O0 2.153884 1_555
Li15 O3 1.999818 1_555
Li15 O10 2.035413 1_555
Li15 O5 2.127424 1_555
Li15 O1 2.153645 1_555
Li16 O0 1.993075 1_565
Li16 O7 2.026452 1_656
Li16 O8 2.139670 1_555
Li16 O2 2.144290 1_665
Li17 O1 1.992105 1_555
Li17 O6 2.026091 1_655
Li17 O9 2.141027 1_555
Li17 O3 2.143704 1_655
Li18 O0 1.993172 1_565
Li18 O5 2.027212 1_556
Li18 O10 2.136777 1_555
Li18 O2 2.145110 1_565
Li19 O1 1.992392 1_555
Li19 O4 2.026211 1_555
Li19 O11 2.141031 1_555
Li19 O3 2.144031 1_555
Fe0 O5 1.937719 1_555
Fe0 O7 1.937720 1_655
Fe0 O1 2.097721 1_555
Fe1 O8 1.936009 1_455
Fe1 O10 1.936391 1_555
Fe1 O2 2.095619 1_565
Fe2 O4 1.937176 1_555
Fe2 O6 1.937378 1_655
Fe2 O0 2.097437 1_555
Fe3 O11 1.935863 1_555
Fe3 O9 1.936802 1_455
Fe3 O3 2.093934 1_555
F0 Li10 1.893384 1_555
F0 Li8 1.893487 1_555
F0 Li4 1.894940 1_545
F0 Fe2 2.255281 1_555
F1 Li9 1.893784 1_555
F1 Li11 1.894097 1_555
F1 Li5 1.895398 1_556
F1 Fe0 2.251868 1_556
F2 Li2 1.892315 1_555
F2 Li10 1.895051 1_555
F2 Li8 1.898583 1_455
F2 Fe1 2.260450 1_545
F3 Li3 1.891558 1_556
F3 Li9 1.894859 1_455
F3 Li11 1.896825 1_555
F3 Fe3 2.262842 1_556
