# generated using pymatgen
data_Ca5TaTi3Al(SiO5)5
_symmetry_space_group_name_H-M   'P 1'
_cell_length_a   5.43485389
_cell_length_b   7.04506974
_cell_length_c   24.91214263
_cell_angle_alpha   84.71605786
_cell_angle_beta   86.02385171
_cell_angle_gamma   76.18960535
_symmetry_Int_Tables_number   1
_chemical_formula_structural   Ca5TaTi3Al(SiO5)5
_chemical_formula_sum   'Ca10 Ta2 Ti6 Al2 Si10 O50'
_cell_volume   921.24096944
_cell_formula_units_Z   2
loop_
 _symmetry_equiv_pos_site_id
 _symmetry_equiv_pos_as_xyz
  1  'x, y, z'
loop_
 _atom_site_type_symbol
 _atom_site_label
 _atom_site_symmetry_multiplicity
 _atom_site_fract_x
 _atom_site_fract_y
 _atom_site_fract_z
 _atom_site_occupancy
  Ca  Ca0  1  0.84328070  0.88907699  0.66633039  1
  Ca  Ca1  1  0.24474877  0.69050623  0.46791607  1
  Ca  Ca2  1  0.63836761  0.51153639  0.26733241  1
  Ca  Ca3  1  0.03715245  0.31292562  0.06550958  1
  Ca  Ca4  1  0.75525123  0.30949377  0.53208393  1
  Ca  Ca5  1  0.43656129  0.11756019  0.86586350  1
  Ca  Ca6  1  0.15671930  0.11092301  0.33366961  1
  Ca  Ca7  1  0.56343871  0.88243981  0.13413650  1
  Ca  Ca8  1  0.96284755  0.68707438  0.93449042  1
  Ca  Ca9  1  0.36163239  0.48846361  0.73266759  1
  Ta  Ta0  1  0.29817118  0.10111977  0.59956611  1
  Ta  Ta1  1  0.70182882  0.89888023  0.40043389  1
  Ti  Ti0  1  0.10207582  0.69804593  0.20081062  1
  Ti  Ti1  1  0.09992497  0.20021814  0.19909414  1
  Ti  Ti2  1  0.50000000  0.50000000  0.00000000  1
  Ti  Ti3  1  0.50000000  -0.00000000  0.00000000  1
  Ti  Ti4  1  0.89792418  0.30195407  0.79918938  1
  Ti  Ti5  1  0.90007503  0.79978186  0.80090586  1
  Al  Al0  1  0.30147776  0.59912813  0.60057387  1
  Al  Al1  1  0.69852224  0.40087187  0.39942613  1
  Si  Si0  1  0.85034167  0.42070382  0.66319588  1
  Si  Si1  1  0.24860081  0.22341709  0.46200717  1
  Si  Si2  1  0.65354386  0.01568878  0.26274545  1
  Si  Si3  1  0.75139919  0.77658291  0.53799283  1
  Si  Si4  1  0.05443953  0.81239037  0.06407505  1
  Si  Si5  1  0.14965833  0.57929618  0.33680412  1
  Si  Si6  1  0.45423890  0.61313807  0.86390327  1
  Si  Si7  1  0.54576110  0.38686193  0.13609673  1
  Si  Si8  1  0.94556047  0.18760963  0.93592495  1
  Si  Si9  1  0.34645614  0.98431122  0.73725455  1
  O  O0  1  0.02306908  0.63361487  0.55215331  1
  O  O1  1  0.94101539  0.23901482  0.62285929  1
  O  O2  1  0.20342570  0.85727610  0.61299873  1
  O  O3  1  0.42126919  0.43531196  0.35139835  1
  O  O4  1  0.19677774  0.12327989  0.52300569  1
  O  O5  1  0.06998187  0.54392660  0.66173059  1
  O  O6  1  0.34052623  0.03936808  0.42297982  1
  O  O7  1  0.53159639  0.65474484  0.53845757  1
  O  O8  1  0.40339955  0.08085716  0.67644350  1
  O  O9  1  0.60083592  0.65767622  0.41307636  1
  O  O10  1  0.81796548  0.23759155  0.15001975  1
  O  O11  1  0.39916408  0.34232378  0.58692364  1
  O  O12  1  0.59660045  0.91914284  0.32355650  1
  O  O13  1  0.46840361  0.34525516  0.46154243  1
  O  O14  1  0.74142412  0.83878332  0.22259280  1
  O  O15  1  0.65947377  0.96063192  0.57702018  1
  O  O16  1  0.93001813  0.45607340  0.33826941  1
  O  O17  1  0.80322226  0.87672011  0.47699431  1
  O  O18  1  -0.00076084  0.46322375  0.21371268  1
  O  O19  1  0.21840121  0.04028553  0.95023268  1
  O  O20  1  0.57873081  0.56468804  0.64860165  1
  O  O21  1  0.79657430  0.14272390  0.38700127  1
  O  O22  1  0.00280055  0.71406076  0.12441761  1
  O  O23  1  0.86640674  0.14492125  0.26295634  1
  O  O24  1  0.14184236  0.63811237  0.02260166  1
  O  O25  1  0.05898461  0.76098518  0.37714071  1
  O  O26  1  0.33410384  0.25544240  0.13665349  1
  O  O27  1  0.19866890  0.68022608  0.27623485  1
  O  O28  1  0.40238326  0.26352975  0.01418672  1
  O  O29  1  0.61758942  0.83526045  0.75110394  1
  O  O30  1  0.97693092  0.36638513  0.44784669  1
  O  O31  1  0.19964400  0.93558083  0.18646233  1
  O  O32  1  0.40075481  0.51334491  0.92408599  1
  O  O33  1  0.26527730  0.94473541  0.06289447  1
  O  O34  1  0.54099186  0.43981294  0.82224149  1
  O  O35  1  0.45900814  0.56018706  0.17775851  1
  O  O36  1  0.73472270  0.05526459  0.93710553  1
  O  O37  1  0.59924519  0.48665509  0.07591401  1
  O  O38  1  0.80035600  0.06441917  0.81353767  1
  O  O39  1  0.38241058  0.16473955  0.24889606  1
  O  O40  1  0.59761674  0.73647025  0.98581328  1
  O  O41  1  0.80133110  0.31977392  0.72376515  1
  O  O42  1  0.66589616  0.74455760  0.86334651  1
  O  O43  1  0.85815764  0.36188763  0.97739834  1
  O  O44  1  0.13359326  0.85507875  0.73704366  1
  O  O45  1  0.99719945  0.28593924  0.87558239  1
  O  O46  1  0.78159879  0.95971447  0.04976732  1
  O  O47  1  0.00076084  0.53677625  0.78628732  1
  O  O48  1  0.25857588  0.16121668  0.77740720  1
  O  O49  1  0.18203452  0.76240845  0.84998025  1
loop_
_geom_bond_atom_site_label_1
_geom_bond_atom_site_label_2
_geom_bond_distance
_geom_bond_site_symmetry_2
Ca0 O2 2.265252 1_655
Ca0 O44 2.403637 1_655
Ca0 O29 2.413230 1_555
Ca0 O8 2.457930 1_565
Ca0 O5 2.458720 1_655
Ca0 O15 2.462419 1_555
Ca0 O1 2.754360 1_565
Ca0 O20 3.054143 1_555
Ca1 O9 2.267835 1_555
Ca1 O7 2.386001 1_555
Ca1 O0 2.396038 1_555
Ca1 O17 2.450894 1_455
Ca1 O13 2.460030 1_555
Ca1 O25 2.500059 1_555
Ca1 O6 2.754620 1_565
Ca2 O18 2.269033 1_655
Ca2 O16 2.398691 1_555
Ca2 O27 2.406531 1_555
Ca2 O3 2.412291 1_555
Ca2 O35 2.459365 1_555
Ca2 O23 2.593026 1_555
Ca2 O14 2.632074 1_555
Ca3 O28 2.257466 1_555
Ca3 O37 2.410730 1_455
Ca3 O26 2.421219 1_555
Ca3 O43 2.424876 1_454
Ca3 O10 2.425159 1_455
Ca3 O33 2.598922 1_545
Ca3 O24 2.608022 1_555
Ca4 O11 2.267835 1_555
Ca4 O13 2.386001 1_555
Ca4 O30 2.396038 1_555
Ca4 O4 2.450894 1_655
Ca4 O7 2.460030 1_555
Ca4 O1 2.500059 1_555
Ca4 O15 2.754620 1_545
Ca5 O38 2.264435 1_555
Ca5 O45 2.405845 1_455
Ca5 O19 2.423145 1_555
Ca5 O36 2.425748 1_555
Ca5 O48 2.432092 1_555
Ca5 O34 2.594714 1_555
Ca5 O42 2.630350 1_545
Ca6 O21 2.265252 1_455
Ca6 O23 2.403637 1_455
Ca6 O39 2.413230 1_555
Ca6 O12 2.457930 1_545
Ca6 O16 2.458720 1_455
Ca6 O6 2.462419 1_555
Ca6 O25 2.754360 1_545
Ca6 O3 3.054143 1_555
Ca7 O31 2.264435 1_555
Ca7 O22 2.405845 1_655
Ca7 O46 2.423145 1_555
Ca7 O33 2.425748 1_555
Ca7 O14 2.432092 1_555
Ca7 O35 2.594714 1_555
Ca7 O26 2.630350 1_565
Ca8 O40 2.257466 1_555
Ca8 O32 2.410730 1_655
Ca8 O42 2.421219 1_555
Ca8 O24 2.424876 1_656
Ca8 O49 2.425159 1_655
Ca8 O36 2.598922 1_565
Ca8 O43 2.608022 1_555
Ca9 O47 2.269033 1_555
Ca9 O5 2.398691 1_555
Ca9 O41 2.406531 1_555
Ca9 O20 2.412291 1_555
Ca9 O34 2.459365 1_555
Ca9 O44 2.593026 1_555
Ca9 O48 2.632074 1_555
Al0 O11 1.816708 1_555
Al0 O2 1.818092 1_555
Al0 O20 1.944986 1_555
Al0 O0 1.956330 1_555
Al0 O5 1.978383 1_555
Al0 O7 1.991523 1_555
Al1 O9 1.816708 1_555
Al1 O21 1.818092 1_555
Al1 O3 1.944986 1_555
Al1 O30 1.956330 1_555
Al1 O16 1.978383 1_555
Al1 O13 1.991523 1_555
O0 Si3 1.617327 1_455
O1 Si0 1.660760 1_555
O1 Ta0 2.023776 1_655
O2 Ta0 1.902851 1_565
O3 Si5 1.622293 1_555
O4 Si1 1.650536 1_555
O4 Ta0 2.003900 1_555
O5 Si0 1.631797 1_455
O6 Si1 1.652788 1_555
O6 Ta1 2.042663 1_545
O7 Si3 1.627810 1_555
O8 Si9 1.642902 1_545
O8 Ta0 2.019389 1_555
O9 Ta1 1.900218 1_555
O10 Si7 1.635861 1_555
O10 Ti1 1.979930 1_655
O11 Ta0 1.900218 1_555
O12 Si2 1.642902 1_565
O12 Ta1 2.019389 1_555
O13 Si1 1.627810 1_555
O14 Si2 1.631306 1_565
O14 Ti0 2.035497 1_655
O15 Si3 1.652788 1_555
O15 Ta0 2.042663 1_565
O16 Si5 1.631797 1_655
O17 Si3 1.650536 1_555
O17 Ta1 2.003900 1_555
O18 Ti0 1.863088 1_555
O18 Ti1 1.864902 1_555
O19 Si8 1.635092 1_455
O19 Ti3 1.987691 1_556
O20 Si0 1.622293 1_555
O21 Ta1 1.902851 1_545
O22 Si4 1.631244 1_555
O22 Ti0 1.999868 1_555
O23 Si2 1.634595 1_555
O23 Ti1 2.033581 1_655
O24 Si4 1.639439 1_555
O24 Ti2 2.024218 1_555
O25 Si5 1.660760 1_555
O25 Ta1 2.023776 1_455
O26 Si7 1.638460 1_555
O26 Ti1 2.010287 1_555
O27 Si5 1.640254 1_555
O27 Ti0 1.970736 1_555
O28 Ti2 1.862599 1_555
O28 Ti3 1.864908 1_555
O29 Si9 1.630380 1_555
O29 Ti5 1.995652 1_555
O30 Si1 1.617327 1_655
O31 Ti1 1.862982 1_565
O31 Ti0 1.869915 1_555
O32 Si6 1.633891 1_555
O32 Ti2 1.990187 1_556
O33 Si4 1.638159 1_555
O33 Ti3 2.020272 1_565
O34 Si6 1.637454 1_555
O34 Ti4 2.021123 1_555
O35 Si7 1.637454 1_555
O35 Ti0 2.021123 1_555
O36 Si8 1.638159 1_555
O36 Ti3 2.020272 1_556
O37 Si7 1.633891 1_555
O37 Ti2 1.990187 1_555
O38 Ti5 1.862982 1_545
O38 Ti4 1.869915 1_555
O39 Si2 1.630380 1_555
O39 Ti1 1.995652 1_555
O40 Ti2 1.862599 1_556
O40 Ti3 1.864908 1_566
O41 Si0 1.640254 1_555
O41 Ti4 1.970736 1_555
O42 Si6 1.638460 1_555
O42 Ti5 2.010287 1_555
O43 Si8 1.639439 1_555
O43 Ti2 2.024218 1_556
O44 Si9 1.634595 1_555
O44 Ti5 2.033581 1_455
O45 Si8 1.631244 1_555
O45 Ti4 1.999868 1_555
O46 Si4 1.635092 1_655
O46 Ti3 1.987691 1_565
O47 Ti4 1.863088 1_455
O47 Ti5 1.864902 1_455
O48 Si9 1.631306 1_545
O48 Ti4 2.035497 1_455
O49 Si6 1.635861 1_555
O49 Ti5 1.979930 1_455
