# generated using pymatgen
data_Li4Mn3Cu2Sb3O16
_symmetry_space_group_name_H-M   'P 1'
_cell_length_a   6.07972200
_cell_length_b   6.10985769
_cell_length_c   9.91240000
_cell_angle_alpha   90.83033167
_cell_angle_beta   90.63804462
_cell_angle_gamma   119.15625308
_symmetry_Int_Tables_number   1
_chemical_formula_structural   Li4Mn3Cu2Sb3O16
_chemical_formula_sum   'Li4 Mn3 Cu2 Sb3 O16'
_cell_volume   321.45068161
_cell_formula_units_Z   1
loop_
 _symmetry_equiv_pos_site_id
 _symmetry_equiv_pos_as_xyz
  1  'x, y, z'
loop_
 _atom_site_type_symbol
 _atom_site_label
 _atom_site_symmetry_multiplicity
 _atom_site_fract_x
 _atom_site_fract_y
 _atom_site_fract_z
 _atom_site_occupancy
  Li  Li0  1  0.31894900  0.65536100  0.12429100  1
  Li  Li1  1  0.98332000  0.99876200  0.00527500  1
  Li  Li2  1  0.99877000  0.00020500  0.49420100  1
  Li  Li3  1  0.65166100  0.32166000  0.60608600  1
  Mn  Mn0  1  0.66651500  0.83456500  0.78238500  1
  Mn  Mn1  1  0.83064900  0.16583100  0.28619600  1
  Mn  Mn2  1  0.83149500  0.66278100  0.28292200  1
  Cu  Cu0  1  0.35812100  0.67922400  0.47869300  1
  Cu  Cu1  1  0.68615700  0.34179500  0.01676200  1
  Sb  Sb0  1  0.17160000  0.34146900  0.78557200  1
  Sb  Sb1  1  0.17086400  0.83225900  0.78554700  1
  Sb  Sb2  1  0.34197500  0.16859200  0.28362000  1
  O  O0  1  0.16247700  0.31865100  0.39534200  1
  O  O1  1  0.01816000  0.51000600  0.67371400  1
  O  O2  1  0.31061100  0.65721400  0.90524300  1
  O  O3  1  0.02644100  0.01432100  0.67630700  1
  O  O4  1  0.00691300  0.02327500  0.18419200  1
  O  O5  1  0.16216000  0.84825300  0.39062400  1
  O  O6  1  0.47867100  0.51212400  0.67656800  1
  O  O7  1  0.47729200  0.96294500  0.67639100  1
  O  O8  1  0.31671700  0.16014800  0.90085800  1
  O  O9  1  0.69630000  0.85034600  0.38834300  1
  O  O10  1  0.51053300  0.02231800  0.17029700  1
  O  O11  1  0.51077500  0.47684500  0.17101400  1
  O  O12  1  0.65967300  0.30840200  0.39947100  1
  O  O13  1  0.85198000  0.16216400  0.89006700  1
  O  O14  1  0.94726100  0.46756600  0.17192900  1
  O  O15  1  0.85395800  0.70261900  0.89024700  1
loop_
_geom_bond_atom_site_label_1
_geom_bond_atom_site_label_2
_geom_bond_distance
_geom_bond_site_symmetry_2
Li0 O10 2.001353 1_565
Li0 O11 2.001584 1_555
Li0 O14 2.039376 1_455
Li0 O2 2.171641 1_554
Li1 O4 1.775951 1_665
Li1 O15 1.930323 1_554
Li1 O13 1.930804 1_564
Li1 O8 2.069046 1_664
Li2 O3 1.807966 1_655
Li2 O9 1.899901 1_545
Li2 O5 1.948468 1_645
Li2 O0 1.981551 1_655
Li3 O6 2.033180 1_555
Li3 O1 2.045598 1_655
Li3 O12 2.050537 1_555
Li3 O7 2.051785 1_545
Mn0 O7 1.979604 1_555
Mn0 O15 1.996186 1_555
Mn0 O6 2.001694 1_555
Mn0 O13 2.032049 1_565
Mn0 O3 2.200738 1_665
Mn0 O2 2.269711 1_555
Mn1 O4 1.958944 1_655
Mn1 O9 1.987148 1_545
Mn1 O12 1.994995 1_555
Mn1 O14 1.997278 1_555
Mn1 O10 2.033379 1_555
Mn1 O0 2.049142 1_655
Mn2 O14 1.981321 1_555
Mn2 O9 1.995776 1_555
Mn2 O11 2.019911 1_555
Mn2 O5 2.040283 1_655
Mn2 O4 2.177919 1_665
Mn2 O12 2.238194 1_555
Cu0 O9 2.023869 1_555
Cu0 O0 2.079159 1_555
Cu0 O5 2.109478 1_555
Cu0 O7 2.452824 1_555
Cu0 O6 2.486321 1_555
Cu0 O1 2.672561 1_555
Cu1 O14 2.049123 1_555
Cu1 O13 2.205556 1_554
Cu1 O11 2.238902 1_555
Cu1 O8 2.252385 1_554
Cu1 O10 2.314711 1_555
Cu1 O15 2.321809 1_554
O0 Sb2 2.056779 1_555
O1 Sb1 2.024874 1_555
O1 Sb0 2.026344 1_555
O2 Sb0 2.041015 1_555
O2 Sb1 2.042825 1_555
O3 Sb0 2.035769 1_555
O3 Sb1 2.036249 1_545
O4 Sb2 2.019148 1_555
O5 Sb2 2.037645 1_565
O6 Sb0 1.980109 1_555
O7 Sb1 1.974720 1_555
O8 Sb0 2.068393 1_555
O8 Sb1 2.070342 1_545
O10 Sb2 1.999916 1_555
O11 Sb2 2.012297 1_555
O12 Sb2 2.023282 1_555
O13 Sb0 2.013081 1_655
O15 Sb1 1.999500 1_655
