# generated using pymatgen
data_TbGdO3
_symmetry_space_group_name_H-M   'P 1'
_cell_length_a   5.78441400
_cell_length_b   6.03343600
_cell_length_c   8.49043800
_cell_angle_alpha   90.00000000
_cell_angle_beta   90.00000000
_cell_angle_gamma   90.00000000
_symmetry_Int_Tables_number   1
_chemical_formula_structural   TbGdO3
_chemical_formula_sum   'Tb4 Gd4 O12'
_cell_volume   296.31536640
_cell_formula_units_Z   4
loop_
 _symmetry_equiv_pos_site_id
 _symmetry_equiv_pos_as_xyz
  1  'x, y, z'
loop_
 _atom_site_type_symbol
 _atom_site_label
 _atom_site_symmetry_multiplicity
 _atom_site_fract_x
 _atom_site_fract_y
 _atom_site_fract_z
 _atom_site_occupancy
  Tb  Tb0  1  0.50000000  0.00000000  0.00000000  1
  Tb  Tb1  1  0.50000000  0.00000000  0.50000000  1
  Tb  Tb2  1  0.00000000  0.50000000  0.00000000  1
  Tb  Tb3  1  0.00000000  0.50000000  0.50000000  1
  Gd  Gd0  1  0.98892300  0.04822300  0.25000000  1
  Gd  Gd1  1  0.48892300  0.45177700  0.75000000  1
  Gd  Gd2  1  0.51107700  0.54822300  0.25000000  1
  Gd  Gd3  1  0.01107700  0.95177700  0.75000000  1
  O  O0  1  0.64577600  0.07989800  0.75000000  1
  O  O1  1  0.17660800  0.18017500  0.57503600  1
  O  O2  1  0.17660800  0.18017500  0.92496400  1
  O  O3  1  0.67660800  0.31982500  0.42496400  1
  O  O4  1  0.67660800  0.31982500  0.07503600  1
  O  O5  1  0.14577600  0.42010200  0.25000000  1
  O  O6  1  0.85422400  0.57989800  0.75000000  1
  O  O7  1  0.32339200  0.68017500  0.57503600  1
  O  O8  1  0.32339200  0.68017500  0.92496400  1
  O  O9  1  0.82339200  0.81982500  0.07503600  1
  O  O10  1  0.82339200  0.81982500  0.42496400  1
  O  O11  1  0.35422400  0.92010200  0.25000000  1
loop_
_geom_bond_atom_site_label_1
_geom_bond_atom_site_label_2
_geom_bond_distance
_geom_bond_site_symmetry_2
Gd0 O10 2.241100 1_545
Gd0 O9 2.241100 1_545
Gd0 O11 2.250008 1_645
Gd0 O5 2.420212 1_655
Gd0 O3 2.855826 1_555
Gd0 O4 2.855826 1_555
Gd0 O2 3.070566 1_654
Gd0 O1 3.070566 1_655
Gd1 O7 2.241100 1_555
Gd1 O8 2.241100 1_555
Gd1 O6 2.250008 1_555
Gd1 O0 2.420212 1_555
Gd1 O1 2.855826 1_555
Gd1 O2 2.855826 1_555
Gd1 O3 3.070566 1_555
Gd1 O4 3.070566 1_556
Gd2 O3 2.241100 1_555
Gd2 O4 2.241100 1_555
Gd2 O5 2.250008 1_555
Gd2 O11 2.420212 1_555
Gd2 O9 2.855826 1_555
Gd2 O10 2.855826 1_555
Gd2 O7 3.070566 1_555
Gd2 O8 3.070566 1_554
Gd3 O2 2.241100 1_565
Gd3 O1 2.241100 1_565
Gd3 O0 2.250008 1_465
Gd3 O6 2.420212 1_455
Gd3 O7 2.855826 1_555
Gd3 O8 2.855826 1_555
Gd3 O10 3.070566 1_455
Gd3 O9 3.070566 1_456
O0 Tb1 2.334285 1_555
O0 Tb0 2.334285 1_556
O1 Tb1 2.255411 1_555
O1 Tb3 2.274427 1_555
O2 Tb0 2.255411 1_556
O2 Tb2 2.274427 1_556
O3 Tb3 2.255411 1_655
O3 Tb1 2.274427 1_555
O4 Tb2 2.255411 1_655
O4 Tb0 2.274427 1_555
O5 Tb2 2.334285 1_555
O5 Tb3 2.334285 1_555
O6 Tb3 2.334285 1_655
O6 Tb2 2.334285 1_656
O7 Tb3 2.255411 1_555
O7 Tb1 2.274427 1_565
O8 Tb2 2.255411 1_556
O8 Tb0 2.274427 1_566
O9 Tb0 2.255411 1_565
O9 Tb2 2.274427 1_655
O10 Tb1 2.255411 1_565
O10 Tb3 2.274427 1_655
O11 Tb0 2.334285 1_565
O11 Tb1 2.334285 1_565
