# generated using pymatgen
data_Zn2Hg2H2S2O11
_symmetry_space_group_name_H-M   'P 1'
_cell_length_a   6.20824700
_cell_length_b   11.41969800
_cell_length_c   13.27055400
_cell_angle_alpha   90.00000000
_cell_angle_beta   90.00000000
_cell_angle_gamma   90.00000000
_symmetry_Int_Tables_number   1
_chemical_formula_structural   Zn2Hg2H2S2O11
_chemical_formula_sum   'Zn8 Hg8 H8 S8 O44'
_cell_volume   940.83325518
_cell_formula_units_Z   4
loop_
 _symmetry_equiv_pos_site_id
 _symmetry_equiv_pos_as_xyz
  1  'x, y, z'
loop_
 _atom_site_type_symbol
 _atom_site_label
 _atom_site_symmetry_multiplicity
 _atom_site_fract_x
 _atom_site_fract_y
 _atom_site_fract_z
 _atom_site_occupancy
  Zn  Zn0  1  0.01695700  0.16600200  0.12473700  1
  Zn  Zn1  1  0.01695700  0.16600200  0.37526300  1
  Zn  Zn2  1  0.01695700  0.33399800  0.62473700  1
  Zn  Zn3  1  0.01695700  0.33399800  0.87526300  1
  Zn  Zn4  1  0.98304300  0.66600200  0.12473700  1
  Zn  Zn5  1  0.98304300  0.66600200  0.37526300  1
  Zn  Zn6  1  0.98304300  0.83399800  0.87526300  1
  Zn  Zn7  1  0.98304300  0.83399800  0.62473700  1
  Hg  Hg0  1  0.20260700  0.41862300  0.25000000  1
  Hg  Hg1  1  0.20260700  0.08137700  0.75000000  1
  Hg  Hg2  1  0.47771200  0.66952900  0.25000000  1
  Hg  Hg3  1  0.47771200  0.83047100  0.75000000  1
  Hg  Hg4  1  0.52228800  0.16952900  0.25000000  1
  Hg  Hg5  1  0.52228800  0.33047100  0.75000000  1
  Hg  Hg6  1  0.79739300  0.58137700  0.75000000  1
  Hg  Hg7  1  0.79739300  0.91862300  0.25000000  1
  H  H0  1  0.30592800  0.30782000  0.03070200  1
  H  H1  1  0.30592800  0.30782000  0.46929800  1
  H  H2  1  0.30592800  0.19218000  0.53070200  1
  H  H3  1  0.30592800  0.19218000  0.96929800  1
  H  H4  1  0.69407200  0.69218000  0.53070200  1
  H  H5  1  0.69407200  0.80782000  0.03070200  1
  H  H6  1  0.69407200  0.80782000  0.46929800  1
  H  H7  1  0.69407200  0.69218000  0.96929800  1
  S  S0  1  0.26908100  0.91014200  0.07759500  1
  S  S1  1  0.26908100  0.58985800  0.57759500  1
  S  S2  1  0.26908100  0.58985800  0.92240500  1
  S  S3  1  0.26908100  0.91014200  0.42240500  1
  S  S4  1  0.73091900  0.41014200  0.42240500  1
  S  S5  1  0.73091900  0.41014200  0.07759500  1
  S  S6  1  0.73091900  0.08985800  0.57759500  1
  S  S7  1  0.73091900  0.08985800  0.92240500  1
  O  O0  1  0.11216400  0.83574100  0.13494700  1
  O  O1  1  0.11216400  0.83574100  0.36505300  1
  O  O2  1  0.11216400  0.66425900  0.86505300  1
  O  O3  1  0.11216400  0.66425900  0.63494700  1
  O  O4  1  0.16732400  0.60167600  0.25000000  1
  O  O5  1  0.16732400  0.89832400  0.75000000  1
  O  O6  1  0.20383700  0.25000000  0.00000000  1
  O  O7  1  0.20383700  0.25000000  0.50000000  1
  O  O8  1  0.21137900  0.23300700  0.25000000  1
  O  O9  1  0.21137900  0.26699300  0.75000000  1
  O  O10  1  0.22214100  0.59592700  0.03234500  1
  O  O11  1  0.22214100  0.59592700  0.46765500  1
  O  O12  1  0.22214100  0.90407300  0.96765500  1
  O  O13  1  0.22214100  0.90407300  0.53234500  1
  O  O14  1  0.24687100  0.03315000  0.11475000  1
  O  O15  1  0.24687100  0.03315000  0.38525000  1
  O  O16  1  0.24687100  0.46685000  0.61475000  1
  O  O17  1  0.24687100  0.46685000  0.88525000  1
  O  O18  1  0.49088300  0.86928000  0.09860400  1
  O  O19  1  0.49088300  0.86928000  0.40139600  1
  O  O20  1  0.49088300  0.63072000  0.59860400  1
  O  O21  1  0.49088300  0.63072000  0.90139600  1
  O  O22  1  0.50911700  0.13072000  0.59860400  1
  O  O23  1  0.50911700  0.13072000  0.90139600  1
  O  O24  1  0.50911700  0.36928000  0.09860400  1
  O  O25  1  0.50911700  0.36928000  0.40139600  1
  O  O26  1  0.75312900  0.53315000  0.11475000  1
  O  O27  1  0.75312900  0.53315000  0.38525000  1
  O  O28  1  0.75312900  0.96685000  0.61475000  1
  O  O29  1  0.75312900  0.96685000  0.88525000  1
  O  O30  1  0.77785900  0.09592700  0.03234500  1
  O  O31  1  0.77785900  0.09592700  0.46765500  1
  O  O32  1  0.77785900  0.40407300  0.53234500  1
  O  O33  1  0.77785900  0.40407300  0.96765500  1
  O  O34  1  0.78862100  0.73300700  0.25000000  1
  O  O35  1  0.78862100  0.76699300  0.75000000  1
  O  O36  1  0.79616300  0.75000000  0.50000000  1
  O  O37  1  0.79616300  0.75000000  0.00000000  1
  O  O38  1  0.83267600  0.10167600  0.25000000  1
  O  O39  1  0.83267600  0.39832400  0.75000000  1
  O  O40  1  0.88783600  0.33574100  0.13494700  1
  O  O41  1  0.88783600  0.33574100  0.36505300  1
  O  O42  1  0.88783600  0.16425900  0.63494700  1
  O  O43  1  0.88783600  0.16425900  0.86505300  1
loop_
_geom_bond_atom_site_label_1
_geom_bond_atom_site_label_2
_geom_bond_distance
_geom_bond_site_symmetry_2
Hg0 O4 2.101855 1_555
Hg0 O8 2.120378 1_555
Hg1 O5 2.101855 1_545
Hg1 O9 2.120378 1_555
Hg2 O34 2.061832 1_555
Hg2 O4 2.076922 1_555
Hg3 O35 2.061832 1_555
Hg3 O5 2.076922 1_555
Hg4 O8 2.061832 1_555
Hg4 O38 2.076922 1_555
Hg5 O9 2.061832 1_555
Hg5 O39 2.076922 1_555
Hg6 O39 2.101855 1_555
Hg6 O35 2.120378 1_555
Hg7 O38 2.101855 1_565
Hg7 O34 2.120378 1_555
H0 O6 1.001843 1_555
H0 O24 1.701713 1_555
H1 O7 1.001843 1_555
H1 O25 1.701713 1_555
H2 O7 1.001843 1_555
H2 O22 1.701713 1_555
H3 O6 1.001843 1_556
H3 O23 1.701713 1_555
H4 O36 1.001843 1_555
H4 O20 1.701713 1_555
H5 O37 1.001843 1_555
H5 O18 1.701713 1_555
H6 O36 1.001843 1_555
H6 O19 1.701713 1_555
H7 O37 1.001843 1_556
H7 O21 1.701713 1_555
O0 S0 1.500057 1_555
O0 Zn4 2.101955 1_455
O1 S3 1.500057 1_555
O1 Zn5 2.101955 1_455
O2 S2 1.500057 1_555
O2 Zn6 2.101955 1_455
O3 S1 1.500057 1_555
O3 Zn7 2.101955 1_455
O4 Zn5 2.147502 1_455
O4 Zn4 2.147502 1_455
O5 Zn6 2.147502 1_455
O5 Zn7 2.147502 1_455
O6 Zn3 2.237476 1_554
O6 Zn0 2.237476 1_555
O7 Zn2 2.237476 1_555
O7 Zn1 2.237476 1_555
O8 Zn1 2.192183 1_555
O8 Zn0 2.192183 1_555
O9 Zn3 2.192183 1_555
O9 Zn2 2.192183 1_555
O10 S2 1.489397 1_554
O10 Zn4 2.084961 1_455
O11 S1 1.489397 1_555
O11 Zn5 2.084961 1_455
O12 S0 1.489397 1_556
O12 Zn6 2.084961 1_455
O13 S3 1.489397 1_555
O13 Zn7 2.084961 1_455
O14 S0 1.495109 1_545
O14 Zn0 2.087250 1_555
O15 S3 1.495109 1_545
O15 Zn1 2.087250 1_555
O16 S1 1.495109 1_555
O16 Zn2 2.087250 1_555
O17 S2 1.495109 1_555
O17 Zn3 2.087250 1_555
O18 S0 1.480408 1_555
O19 S3 1.480408 1_555
O20 S1 1.480408 1_555
O21 S2 1.480408 1_555
O22 S6 1.480408 1_555
O23 S7 1.480408 1_555
O24 S5 1.480408 1_555
O25 S4 1.480408 1_555
O26 S5 1.495109 1_555
O26 Zn4 2.087250 1_555
O27 S4 1.495109 1_555
O27 Zn5 2.087250 1_555
O28 S6 1.495109 1_565
O28 Zn7 2.087250 1_555
O29 S7 1.495109 1_565
O29 Zn6 2.087250 1_555
O30 S7 1.489397 1_554
O30 Zn0 2.084961 1_655
O31 S6 1.489397 1_555
O31 Zn1 2.084961 1_655
O32 S4 1.489397 1_555
O32 Zn2 2.084961 1_655
O33 S5 1.489397 1_556
O33 Zn3 2.084961 1_655
O34 Zn5 2.192183 1_555
O34 Zn4 2.192183 1_555
O35 Zn7 2.192183 1_555
O35 Zn6 2.192183 1_555
O36 Zn7 2.237476 1_555
O36 Zn5 2.237476 1_555
O37 Zn6 2.237476 1_554
O37 Zn4 2.237476 1_555
O38 Zn1 2.147502 1_655
O38 Zn0 2.147502 1_655
O39 Zn2 2.147502 1_655
O39 Zn3 2.147502 1_655
O40 S5 1.500057 1_555
O40 Zn0 2.101955 1_655
O41 S4 1.500057 1_555
O41 Zn1 2.101955 1_655
O42 S6 1.500057 1_555
O42 Zn2 2.101955 1_655
O43 S7 1.500057 1_555
O43 Zn3 2.101955 1_655
