# generated using pymatgen
data_Li4Cr3Fe5O16
_symmetry_space_group_name_H-M   'P 1'
_cell_length_a   5.88893200
_cell_length_b   5.90102996
_cell_length_c   9.56526393
_cell_angle_alpha   89.98854908
_cell_angle_beta   90.56084518
_cell_angle_gamma   119.57893323
_symmetry_Int_Tables_number   1
_chemical_formula_structural   Li4Cr3Fe5O16
_chemical_formula_sum   'Li4 Cr3 Fe5 O16'
_cell_volume   289.06271517
_cell_formula_units_Z   1
loop_
 _symmetry_equiv_pos_site_id
 _symmetry_equiv_pos_as_xyz
  1  'x, y, z'
loop_
 _atom_site_type_symbol
 _atom_site_label
 _atom_site_symmetry_multiplicity
 _atom_site_fract_x
 _atom_site_fract_y
 _atom_site_fract_z
 _atom_site_occupancy
  Li  Li0  1  0.32988100  0.66823300  0.89245000  1
  Li  Li1  1  0.00397000  0.99970600  0.99631700  1
  Li  Li2  1  0.00440000  0.00043000  0.49620400  1
  Li  Li3  1  0.66386700  0.33222400  0.39421200  1
  Cr  Cr0  1  0.17384300  0.83171700  0.21826600  1
  Cr  Cr1  1  0.16515400  0.33526600  0.21154800  1
  Cr  Cr2  1  0.34465400  0.16996200  0.71505500  1
  Fe  Fe0  1  0.33134600  0.66056600  0.49221100  1
  Fe  Fe1  1  0.66012900  0.82417000  0.21308800  1
  Fe  Fe2  1  0.66822900  0.34156800  0.98966800  1
  Fe  Fe3  1  0.83213900  0.66301900  0.71469500  1
  Fe  Fe4  1  0.83297900  0.16972400  0.71304500  1
  O  O0  1  0.16696700  0.83533200  0.60070200  1
  O  O1  1  0.03759900  0.51235200  0.33404600  1
  O  O2  1  0.31843400  0.66632700  0.10504200  1
  O  O3  1  0.00796800  0.99871200  0.30919300  1
  O  O4  1  0.01619000  0.00907200  0.81011700  1
  O  O5  1  0.17273400  0.32486200  0.59977100  1
  O  O6  1  0.46801300  0.95866900  0.33881100  1
  O  O7  1  0.47225900  0.51221500  0.33503800  1
  O  O8  1  0.32754700  0.17422500  0.10676600  1
  O  O9  1  0.67778900  0.83387300  0.60014100  1
  O  O10  1  0.51587000  0.48169700  0.83773100  1
  O  O11  1  0.50635000  0.03874400  0.83932100  1
  O  O12  1  0.65120300  0.32574200  0.60342200  1
  O  O13  1  0.84632800  0.67723700  0.09987700  1
  O  O14  1  0.96009400  0.48402200  0.83780800  1
  O  O15  1  0.84406500  0.17063400  0.10329700  1
loop_
_geom_bond_atom_site_label_1
_geom_bond_atom_site_label_2
_geom_bond_distance
_geom_bond_site_symmetry_2
Li0 O14 1.959067 1_455
Li0 O11 1.971116 1_565
Li0 O10 1.971534 1_555
Li0 O2 2.035120 1_556
Li1 O4 1.782954 1_565
Li1 O13 1.933218 1_456
Li1 O8 1.957396 1_566
Li1 O15 1.976923 1_466
Li2 O3 1.789228 1_545
Li2 O5 1.933188 1_555
Li2 O0 1.940733 1_545
Li2 O9 1.955654 1_445
Li3 O7 1.972854 1_555
Li3 O6 1.987152 1_545
Li3 O12 2.002922 1_555
Li3 O1 2.004973 1_655
Cr0 O6 1.889913 1_555
Cr0 O3 1.910246 1_555
Cr0 O2 1.920775 1_555
Cr0 O1 1.986368 1_555
Cr0 O13 2.013752 1_455
Cr0 O8 2.062463 1_565
Cr1 O8 1.933527 1_555
Cr1 O15 1.933878 1_455
Cr1 O1 1.954957 1_555
Cr1 O7 1.962311 1_555
Cr1 O3 1.968430 1_545
Cr1 O2 1.986324 1_555
Cr2 O11 1.903822 1_555
Cr2 O12 1.908709 1_555
Cr2 O4 1.921142 1_555
Cr2 O10 1.980935 1_555
Cr2 O5 1.991956 1_555
Cr2 O0 2.032044 1_545
Fe0 O5 2.011608 1_555
Fe0 O0 2.020699 1_555
Fe0 O9 2.042881 1_555
Fe0 O7 2.111239 1_555
Fe0 O1 2.121750 1_555
Fe0 O6 2.125935 1_555
Fe1 O3 1.995614 1_655
Fe1 O7 1.996798 1_555
Fe1 O13 2.022132 1_555
Fe1 O2 2.023369 1_555
Fe1 O6 2.066298 1_555
Fe1 O15 2.071526 1_565
Fe2 O13 2.015701 1_556
Fe2 O15 2.068744 1_556
Fe2 O10 2.075424 1_555
Fe2 O8 2.083847 1_556
Fe2 O14 2.095900 1_555
Fe2 O11 2.112488 1_555
Fe3 O14 1.959119 1_555
Fe3 O9 1.981953 1_555
Fe3 O4 1.993535 1_665
Fe3 O10 2.018352 1_555
Fe3 O12 2.028403 1_555
Fe3 O0 2.042799 1_655
Fe4 O4 1.978574 1_655
Fe4 O14 2.009261 1_555
Fe4 O12 2.010881 1_555
Fe4 O9 2.030449 1_545
Fe4 O5 2.061302 1_655
Fe4 O11 2.081716 1_555
