# generated using pymatgen
data_MnOF
_symmetry_space_group_name_H-M   'P 1'
_cell_length_a   4.80265002
_cell_length_b   14.19443806
_cell_length_c   3.08233000
_cell_angle_alpha   90.00000404
_cell_angle_beta   89.99996948
_cell_angle_gamma   90.01026909
_symmetry_Int_Tables_number   1
_chemical_formula_structural   MnOF
_chemical_formula_sum   'Mn6 O6 F6'
_cell_volume   210.12526295
_cell_formula_units_Z   6
loop_
 _symmetry_equiv_pos_site_id
 _symmetry_equiv_pos_as_xyz
  1  'x, y, z'
loop_
 _atom_site_type_symbol
 _atom_site_label
 _atom_site_symmetry_multiplicity
 _atom_site_fract_x
 _atom_site_fract_y
 _atom_site_fract_z
 _atom_site_occupancy
  Mn  Mn0  1  0.96668200  0.99914900  0.99999900  1
  Mn  Mn1  1  0.10467000  0.33146600  0.00000500  1
  Mn  Mn2  1  0.95764300  0.66695100  0.00000100  1
  Mn  Mn3  1  0.54247300  0.16719400  0.50000400  1
  Mn  Mn4  1  0.53346200  0.49885800  0.49999700  1
  Mn  Mn5  1  0.39535600  0.83153600  0.50000000  1
  O  O0  1  0.27011300  0.26780000  0.50000500  1
  O  O1  1  0.14122500  0.93537100  0.49999700  1
  O  O2  1  0.22987000  0.76778000  0.00000200  1
  O  O3  1  0.35844800  0.43522400  0.99999600  1
  O  O4  1  0.69536500  0.56592200  0.99999400  1
  O  O5  1  0.80442100  0.06614700  0.49999600  1
  F  F0  1  0.17006600  0.60576900  0.50000300  1
  F  F1  1  0.32986900  0.10600400  0.00000200  1
  F  F2  1  0.76221300  0.23440800  0.99999900  1
  F  F3  1  0.61867500  0.89312200  0.99999900  1
  F  F4  1  0.88144800  0.39308100  0.50000000  1
  F  F5  1  0.73800100  0.73421900  0.49999900  1
loop_
_geom_bond_atom_site_label_1
_geom_bond_atom_site_label_2
_geom_bond_distance
_geom_bond_site_symmetry_2
Mn0 O5 1.971574 1_566
Mn0 O5 1.971590 1_565
Mn0 O1 1.974258 1_656
Mn0 O1 1.974267 1_655
Mn1 O3 1.911530 1_554
Mn1 O0 1.955366 1_554
Mn1 O0 1.955367 1_555
Mn2 O4 1.908538 1_554
Mn2 O2 1.938303 1_655
Mn3 O5 1.908024 1_555
Mn3 O0 1.936744 1_555
Mn4 O4 1.971214 1_555
Mn4 O4 1.971228 1_554
Mn4 O3 1.974147 1_555
Mn4 O3 1.974153 1_554
Mn5 O1 1.913790 1_555
Mn5 O2 1.955905 1_555
Mn5 O2 1.955914 1_556
F0 Mn2 2.042174 1_456
F0 Mn2 2.042185 1_455
F0 Mn4 2.312969 1_555
F1 Mn3 2.042502 1_554
F1 Mn3 2.042512 1_555
F1 Mn0 2.311280 1_444
F2 Mn3 2.097320 1_555
F2 Mn3 2.097342 1_556
F2 Mn1 2.145284 1_656
F3 Mn5 2.071072 1_555
F3 Mn5 2.071076 1_556
F3 Mn0 2.248896 1_555
F4 Mn1 2.071157 1_655
F4 Mn1 2.071181 1_656
F4 Mn4 2.246849 1_555
F5 Mn2 2.097611 1_555
F5 Mn2 2.097621 1_556
F5 Mn5 2.148717 1_555
