# generated using pymatgen
data_Li4Mn3Ni3(SnO8)2
_symmetry_space_group_name_H-M   'P 1'
_cell_length_a   5.92104684
_cell_length_b   5.92104684
_cell_length_c   9.65890241
_cell_angle_alpha   88.32201722
_cell_angle_beta   88.32201722
_cell_angle_gamma   58.76501311
_symmetry_Int_Tables_number   1
_chemical_formula_structural   Li4Mn3Ni3(SnO8)2
_chemical_formula_sum   'Li4 Mn3 Ni3 Sn2 O16'
_cell_volume   289.38085191
_cell_formula_units_Z   1
loop_
 _symmetry_equiv_pos_site_id
 _symmetry_equiv_pos_as_xyz
  1  'x, y, z'
loop_
 _atom_site_type_symbol
 _atom_site_label
 _atom_site_symmetry_multiplicity
 _atom_site_fract_x
 _atom_site_fract_y
 _atom_site_fract_z
 _atom_site_occupancy
  Li  Li0  1  0.66171900  0.66171900  0.10935800  1
  Li  Li1  1  0.99730800  0.99730800  0.00688400  1
  Li  Li2  1  0.00239100  0.00239100  0.50434400  1
  Li  Li3  1  0.33162100  0.33162100  0.60879700  1
  Mn  Mn0  1  0.33864000  0.83164900  0.78484200  1
  Mn  Mn1  1  0.83164900  0.33864000  0.78484200  1
  Mn  Mn2  1  0.16990700  0.16990700  0.28332400  1
  Ni  Ni0  1  0.83047800  0.83047800  0.78482700  1
  Ni  Ni1  1  0.16869000  0.66232000  0.28573700  1
  Ni  Ni2  1  0.66232000  0.16869000  0.28573700  1
  Sn  Sn0  1  0.67190300  0.67190300  0.50680400  1
  Sn  Sn1  1  0.33499000  0.33499000  0.00971400  1
  O  O0  1  0.32560200  0.85045300  0.39944800  1
  O  O1  1  0.51638300  0.51638300  0.66917200  1
  O  O2  1  0.65498500  0.65498500  0.89048200  1
  O  O3  1  0.00960700  0.00960700  0.69099100  1
  O  O4  1  0.00246100  0.00246100  0.19511400  1
  O  O5  1  0.85045300  0.32560200  0.39944800  1
  O  O6  1  0.50363200  0.96577600  0.66159300  1
  O  O7  1  0.96577600  0.50363200  0.66159300  1
  O  O8  1  0.15908900  0.15908900  0.89460700  1
  O  O9  1  0.84824900  0.84824900  0.39989900  1
  O  O10  1  0.02759900  0.47187700  0.16060400  1
  O  O11  1  0.47187700  0.02759900  0.16060400  1
  O  O12  1  0.33123000  0.33123000  0.38421700  1
  O  O13  1  0.16709800  0.68348400  0.90077100  1
  O  O14  1  0.47942500  0.47942500  0.16757200  1
  O  O15  1  0.68348400  0.16709800  0.90077100  1
loop_
_geom_bond_atom_site_label_1
_geom_bond_atom_site_label_2
_geom_bond_distance
_geom_bond_site_symmetry_2
Li0 O11 1.925225 1_565
Li0 O10 1.925225 1_655
Li0 O14 1.945103 1_555
Li0 O2 2.117576 1_554
Li1 O4 1.820658 1_665
Li1 O13 1.904674 1_654
Li1 O15 1.904674 1_564
Li1 O8 1.959907 1_664
Li2 O3 1.806841 1_555
Li2 O0 1.911174 1_545
Li2 O5 1.911174 1_455
Li2 O9 1.911920 1_445
Li3 O6 1.915038 1_545
Li3 O7 1.915038 1_455
Li3 O1 2.012362 1_555
Li3 O12 2.169336 1_555
Mn0 O3 1.909470 1_565
Mn0 O2 1.913434 1_555
Mn0 O6 1.919223 1_555
Mn0 O13 1.963448 1_555
Mn0 O1 1.963734 1_555
Mn0 O8 1.982399 1_565
Mn1 O3 1.909470 1_655
Mn1 O2 1.913434 1_555
Mn1 O7 1.919223 1_555
Mn1 O15 1.963448 1_555
Mn1 O1 1.963734 1_555
Mn1 O8 1.982399 1_655
Mn2 O10 1.919324 1_555
Mn2 O11 1.919324 1_555
Mn2 O4 1.951995 1_555
Mn2 O0 1.952838 1_545
Mn2 O5 1.952838 1_455
Mn2 O12 1.956984 1_555
Ni0 O3 2.031115 1_665
Ni0 O2 2.048535 1_555
Ni0 O15 2.063694 1_565
Ni0 O13 2.063694 1_655
Ni0 O6 2.067621 1_555
Ni0 O7 2.067621 1_555
Ni1 O12 1.913609 1_555
Ni1 O4 1.918982 1_565
Ni1 O14 1.934833 1_555
Ni1 O9 1.951946 1_455
Ni1 O0 2.124885 1_555
Ni1 O10 2.132178 1_555
Ni2 O12 1.913609 1_555
Ni2 O4 1.918982 1_655
Ni2 O14 1.934833 1_555
Ni2 O9 1.951946 1_545
Ni2 O5 2.124885 1_555
Ni2 O11 2.132178 1_555
O0 Sn0 2.051699 1_555
O1 Sn0 2.205835 1_555
O5 Sn0 2.051699 1_555
O6 Sn0 2.126700 1_555
O7 Sn0 2.126700 1_555
O8 Sn1 2.160155 1_556
O9 Sn0 2.061834 1_555
O10 Sn1 2.116040 1_555
O11 Sn1 2.116040 1_555
O13 Sn1 2.039622 1_556
O14 Sn1 2.167675 1_555
O15 Sn1 2.039622 1_556
