# generated using pymatgen
data_Li3(FeO3)2
_symmetry_space_group_name_H-M   'P 1'
_cell_length_a   6.53965509
_cell_length_b   5.86876598
_cell_length_c   6.00960841
_cell_angle_alpha   90.89054340
_cell_angle_beta   104.31336418
_cell_angle_gamma   76.96642298
_symmetry_Int_Tables_number   1
_chemical_formula_structural   Li3(FeO3)2
_chemical_formula_sum   'Li6 Fe4 O12'
_cell_volume   217.53217815
_cell_formula_units_Z   2
loop_
 _symmetry_equiv_pos_site_id
 _symmetry_equiv_pos_as_xyz
  1  'x, y, z'
loop_
 _atom_site_type_symbol
 _atom_site_label
 _atom_site_symmetry_multiplicity
 _atom_site_fract_x
 _atom_site_fract_y
 _atom_site_fract_z
 _atom_site_occupancy
  Li  Li0  1  0.00141600  0.49102300  0.48421100  1
  Li  Li1  1  0.33336100  0.16666400  0.83334000  1
  Li  Li2  1  0.33330700  0.66667100  0.83332300  1
  Li  Li3  1  0.33329800  0.16667300  0.33332700  1
  Li  Li4  1  0.33328900  0.66667400  0.33332500  1
  Li  Li5  1  0.66523500  0.84230800  0.18244400  1
  Fe  Fe0  1  0.00685600  0.49815900  0.00574200  1
  Fe  Fe1  1  0.00931400  0.99731400  0.01492600  1
  Fe  Fe2  1  0.65736200  0.33603000  0.65174100  1
  Fe  Fe3  1  0.65982600  0.83516200  0.66092400  1
  O  O0  1  0.36801100  0.40563500  0.59201300  1
  O  O1  1  0.37588700  0.90656700  0.60213700  1
  O  O2  1  0.69141000  0.06219700  0.89971700  1
  O  O3  1  0.68042700  0.59119000  0.88692800  1
  O  O4  1  0.29081000  0.42675900  0.06454500  1
  O  O5  1  0.29865800  0.92769900  0.07465500  1
  O  O6  1  0.66812900  0.06594100  0.45800200  1
  O  O7  1  0.67066500  0.60426700  0.44786700  1
  O  O8  1  0.97530700  0.27112700  0.76696200  1
  O  O9  1  0.98624000  0.74214000  0.77974300  1
  O  O10  1  0.99851700  0.26740800  0.20865000  1
  O  O11  1  0.99600700  0.72905600  0.21880800  1
loop_
_geom_bond_atom_site_label_1
_geom_bond_atom_site_label_2
_geom_bond_distance
_geom_bond_site_symmetry_2
Li0 O7 2.071349 1_455
Li0 O10 2.095980 1_455
Li0 O11 2.125029 1_455
Li0 O8 2.212003 1_455
Li0 O0 2.262440 1_555
Li0 O9 2.296930 1_455
Li1 O1 2.066782 1_545
Li1 O4 2.066804 1_556
Li1 O0 2.119110 1_555
Li1 O5 2.119181 1_546
Li1 O2 2.217199 1_555
Li1 O8 2.217229 1_455
Li2 O4 2.102090 1_556
Li2 O1 2.102113 1_555
Li2 O0 2.106723 1_555
Li2 O5 2.106742 1_556
Li2 O9 2.154306 1_455
Li2 O3 2.154624 1_555
Li3 O10 2.079192 1_455
Li3 O6 2.079484 1_555
Li3 O5 2.082357 1_545
Li3 O0 2.082404 1_555
Li3 O4 2.163237 1_555
Li3 O1 2.163297 1_545
Li4 O11 2.089461 1_455
Li4 O7 2.090037 1_555
Li4 O4 2.133678 1_555
Li4 O1 2.133799 1_555
Li4 O0 2.134929 1_555
Li4 O5 2.134934 1_555
Li5 O11 2.071466 1_555
Li5 O6 2.096032 1_565
Li5 O7 2.125107 1_555
Li5 O2 2.212035 1_564
Li5 O5 2.262327 1_555
Li5 O3 2.296869 1_554
Fe0 O4 1.754406 1_555
Fe0 O11 1.851602 1_455
Fe0 O10 1.855087 1_455
Fe0 O8 1.948121 1_454
Fe0 O9 1.948300 1_454
Fe0 O3 2.024293 1_454
Fe1 O5 1.787807 1_555
Fe1 O10 1.950836 1_465
Fe1 O2 1.971280 1_464
Fe1 O11 2.040061 1_455
Fe1 O9 2.047854 1_454
Fe1 O8 2.145159 1_464
Fe2 O0 1.787852 1_555
Fe2 O6 1.950866 1_555
Fe2 O8 1.971530 1_555
Fe2 O7 2.039924 1_555
Fe2 O3 2.047805 1_555
Fe2 O2 2.145231 1_555
Fe3 O1 1.754317 1_555
Fe3 O7 1.851554 1_555
Fe3 O6 1.855183 1_565
Fe3 O2 1.948205 1_565
Fe3 O3 1.948309 1_555
Fe3 O9 2.024205 1_555
