# generated using pymatgen
data_Li4Cr3FeO8
_symmetry_space_group_name_H-M   'P 1'
_cell_length_a   5.13594823
_cell_length_b   5.95273499
_cell_length_c   5.91122080
_cell_angle_alpha   119.76837143
_cell_angle_beta   90.00041343
_cell_angle_gamma   73.32456484
_symmetry_Int_Tables_number   1
_chemical_formula_structural   Li4Cr3FeO8
_chemical_formula_sum   'Li4 Cr3 Fe1 O8'
_cell_volume   148.05588877
_cell_formula_units_Z   1
loop_
 _symmetry_equiv_pos_site_id
 _symmetry_equiv_pos_as_xyz
  1  'x, y, z'
loop_
 _atom_site_type_symbol
 _atom_site_label
 _atom_site_symmetry_multiplicity
 _atom_site_fract_x
 _atom_site_fract_y
 _atom_site_fract_z
 _atom_site_occupancy
  Li  Li0  1  0.00101100  0.99979700  0.00006600  1
  Li  Li1  1  0.99899300  0.00020300  0.50027200  1
  Li  Li2  1  0.49985000  0.00000600  0.24980700  1
  Li  Li3  1  0.50015000  0.99999300  0.74980100  1
  Cr  Cr0  1  0.00000200  0.50000400  0.00216900  1
  Cr  Cr1  1  0.49999900  0.49999300  0.24776800  1
  Cr  Cr2  1  0.99999900  0.50000000  0.50140400  1
  Fe  Fe0  1  0.49999900  0.49999800  0.74839400  1
  O  O0  1  0.24079300  0.27215400  0.63717900  1
  O  O1  1  0.75920400  0.72785000  0.86501300  1
  O  O2  1  0.24287300  0.27411500  0.13844700  1
  O  O3  1  0.75712400  0.72588700  0.36432200  1
  O  O4  1  0.74342400  0.27343800  0.38371400  1
  O  O5  1  0.25603900  0.72800600  0.11468800  1
  O  O6  1  0.25657600  0.72655900  0.61026200  1
  O  O7  1  0.74396400  0.27199600  0.88669500  1
loop_
_geom_bond_atom_site_label_1
_geom_bond_atom_site_label_2
_geom_bond_distance
_geom_bond_site_symmetry_2
Li0 O4 2.154463 1_465
Li0 O5 2.159776 1_555
Li0 O7 2.160571 1_464
Li0 O1 2.161191 1_454
Li0 O2 2.171722 1_565
Li0 O6 2.175098 1_554
Li1 O6 2.154347 1_645
Li1 O7 2.159872 1_555
Li1 O5 2.160678 1_645
Li1 O0 2.161180 1_655
Li1 O3 2.171742 1_545
Li1 O4 2.175007 1_555
Li2 O2 2.160632 1_555
Li2 O1 2.162208 1_544
Li2 O5 2.169556 1_545
Li2 O0 2.171988 1_555
Li2 O3 2.173991 1_545
Li2 O4 2.174860 1_555
Li3 O3 2.160718 1_555
Li3 O0 2.162118 1_565
Li3 O7 2.169582 1_565
Li3 O1 2.171858 1_555
Li3 O2 2.174100 1_566
Li3 O6 2.174870 1_555
Cr0 O2 2.031255 1_555
Cr0 O3 2.031260 1_455
Cr0 O5 2.035077 1_555
Cr0 O7 2.035106 1_454
Cr0 O0 2.038525 1_554
Cr0 O1 2.038543 1_454
Cr1 O7 2.028590 1_554
Cr1 O5 2.028613 1_555
Cr1 O2 2.031181 1_555
Cr1 O3 2.031241 1_555
Cr1 O4 2.033746 1_555
Cr1 O6 2.033758 1_555
Cr2 O6 2.031649 1_655
Cr2 O4 2.031652 1_555
Cr2 O1 2.032597 1_555
Cr2 O0 2.032599 1_655
Cr2 O2 2.034700 1_655
Cr2 O3 2.034705 1_555
Fe0 O4 2.043143 1_555
Fe0 O6 2.043146 1_555
Fe0 O0 2.048127 1_555
Fe0 O1 2.048155 1_555
Fe0 O5 2.050909 1_556
Fe0 O7 2.050911 1_555
