# generated using pymatgen
data_Li2VNi(PO4)2
_symmetry_space_group_name_H-M   'P 1'
_cell_length_a   4.75252922
_cell_length_b   10.33504864
_cell_length_c   6.01944600
_cell_angle_alpha   90.00002062
_cell_angle_beta   89.99999047
_cell_angle_gamma   90.10960952
_symmetry_Int_Tables_number   1
_chemical_formula_structural   Li2VNi(PO4)2
_chemical_formula_sum   'Li4 V2 Ni2 P4 O16'
_cell_volume   295.66032383
_cell_formula_units_Z   2
loop_
 _symmetry_equiv_pos_site_id
 _symmetry_equiv_pos_as_xyz
  1  'x, y, z'
loop_
 _atom_site_type_symbol
 _atom_site_label
 _atom_site_symmetry_multiplicity
 _atom_site_fract_x
 _atom_site_fract_y
 _atom_site_fract_z
 _atom_site_occupancy
  Li  Li0  1  0.00005200  0.99996800  0.99993300  1
  Li  Li1  1  0.00005300  0.99996800  0.50006800  1
  Li  Li2  1  0.50002400  0.50001800  0.99989900  1
  Li  Li3  1  0.50002500  0.50001800  0.50010100  1
  V  V0  1  0.48439700  0.22656400  0.74999800  1
  V  V1  1  0.51578600  0.77317300  0.25001100  1
  Ni  Ni0  1  0.01754000  0.72279200  0.75002100  1
  Ni  Ni1  1  0.98205100  0.27721900  0.24996200  1
  P  P0  1  0.41006900  0.09594000  0.24999900  1
  P  P1  1  0.58955900  0.90391600  0.75000200  1
  P  P2  1  0.92029700  0.41038300  0.75000100  1
  P  P3  1  0.08024000  0.58986700  0.24999900  1
  O  O0  1  0.70502800  0.04456600  0.75000200  1
  O  O1  1  0.29492100  0.95519500  0.24999900  1
  O  O2  1  0.73339400  0.10379300  0.24999800  1
  O  O3  1  0.26634100  0.89627000  0.75000300  1
  O  O4  1  0.24330400  0.40763000  0.75000100  1
  O  O5  1  0.75709900  0.59250200  0.24999800  1
  O  O6  1  0.20357000  0.45059500  0.25000100  1
  O  O7  1  0.79654700  0.54952200  0.74999900  1
  O  O8  1  0.26777200  0.16539200  0.04640700  1
  O  O9  1  0.26777300  0.16539200  0.45359200  1
  O  O10  1  0.73162600  0.83447500  0.54617300  1
  O  O11  1  0.73162700  0.83447500  0.95382900  1
  O  O12  1  0.78501300  0.33893000  0.54384900  1
  O  O13  1  0.78501500  0.33893000  0.95615400  1
  O  O14  1  0.21543900  0.66125300  0.04379100  1
  O  O15  1  0.21543700  0.66125400  0.45621100  1
loop_
_geom_bond_atom_site_label_1
_geom_bond_atom_site_label_2
_geom_bond_distance
_geom_bond_site_symmetry_2
Li0 O0 2.108126 1_465
Li0 O1 2.108614 1_556
Li0 O8 2.147500 1_566
Li0 O11 2.149760 1_455
Li0 O3 2.240252 1_555
Li0 O2 2.242419 1_466
Li1 O0 2.108141 1_465
Li1 O1 2.108623 1_555
Li1 O9 2.147502 1_565
Li1 O10 2.149766 1_455
Li1 O3 2.240270 1_555
Li1 O2 2.242443 1_465
Li2 O7 2.123144 1_555
Li2 O6 2.123588 1_556
Li2 O4 2.158375 1_555
Li2 O5 2.160608 1_556
Li2 O13 2.164295 1_555
Li2 O14 2.164365 1_556
Li3 O7 2.123132 1_555
Li3 O6 2.123583 1_555
Li3 O4 2.158386 1_555
Li3 O5 2.160622 1_555
Li3 O12 2.164289 1_555
Li3 O15 2.164380 1_555
Ni0 O7 2.074291 1_455
Ni0 O14 2.101993 1_556
Ni0 O15 2.102188 1_555
Ni0 O3 2.145820 1_555
Ni0 O11 2.165576 1_455
Ni0 O10 2.165716 1_455
Ni1 O6 2.076498 1_655
Ni1 O13 2.100892 1_554
Ni1 O12 2.101296 1_555
Ni1 O2 2.144995 1_555
Ni1 O8 2.164936 1_655
Ni1 O9 2.165196 1_655
O0 P1 1.552778 1_545
O0 V0 2.155230 1_555
O1 P0 1.553161 1_565
O1 V1 2.155990 1_555
O2 P0 1.538598 1_555
O3 P1 1.537983 1_555
O4 P2 1.535418 1_455
O4 V0 2.196116 1_555
O5 P3 1.536031 1_655
O5 V1 2.193183 1_555
O6 P3 1.555184 1_555
O7 P2 1.554669 1_555
O8 P0 1.573626 1_555
O8 V0 2.154192 1_554
O9 P0 1.573628 1_555
O9 V0 2.154175 1_555
O10 P1 1.574215 1_555
O10 V1 2.151576 1_555
O11 P1 1.574208 1_555
O11 V1 2.151678 1_556
O12 P2 1.580120 1_555
O12 V0 2.218845 1_555
O13 P2 1.580121 1_555
O13 V0 2.218874 1_555
O14 P3 1.579898 1_555
O14 V1 2.215858 1_555
O15 P3 1.579918 1_555
O15 V1 2.215792 1_555
