# generated using pymatgen
data_Co2OF3
_symmetry_space_group_name_H-M   'P 1'
_cell_length_a   4.73540250
_cell_length_b   4.73540250
_cell_length_c   12.23669600
_cell_angle_alpha   90.00000000
_cell_angle_beta   90.00000000
_cell_angle_gamma   92.90879035
_symmetry_Int_Tables_number   1
_chemical_formula_structural   Co2OF3
_chemical_formula_sum   'Co8 O4 F12'
_cell_volume   274.04258523
_cell_formula_units_Z   4
loop_
 _symmetry_equiv_pos_site_id
 _symmetry_equiv_pos_as_xyz
  1  'x, y, z'
loop_
 _atom_site_type_symbol
 _atom_site_label
 _atom_site_symmetry_multiplicity
 _atom_site_fract_x
 _atom_site_fract_y
 _atom_site_fract_z
 _atom_site_occupancy
  Co  Co0  1  0.95976400  0.95976400  0.00000000  1
  Co  Co1  1  0.02255800  0.02255800  0.24946900  1
  Co  Co2  1  0.02417000  0.02417000  0.50000000  1
  Co  Co3  1  0.02255800  0.02255800  0.75053100  1
  Co  Co4  1  0.49226900  0.49226900  0.12487700  1
  Co  Co5  1  0.48873600  0.48873600  0.62556400  1
  Co  Co6  1  0.48873600  0.48873600  0.37443600  1
  Co  Co7  1  0.49226900  0.49226900  0.87512300  1
  O  O0  1  0.31854700  0.31854700  0.24849400  1
  O  O1  1  0.31854700  0.31854700  0.75150600  1
  O  O2  1  0.31653300  0.31653300  0.50000000  1
  O  O3  1  0.66339400  0.66339400  0.00000000  1
  F  F0  1  0.78980800  0.19366800  0.12529800  1
  F  F1  1  0.81299100  0.20442400  0.62183900  1
  F  F2  1  0.81299100  0.20442400  0.37816100  1
  F  F3  1  0.78980800  0.19366800  0.87470200  1
  F  F4  1  0.27767600  0.27767600  0.00000000  1
  F  F5  1  0.70616600  0.70616600  0.25147900  1
  F  F6  1  0.70012600  0.70012600  0.50000000  1
  F  F7  1  0.70616600  0.70616600  0.74852100  1
  F  F8  1  0.19366800  0.78980800  0.12529800  1
  F  F9  1  0.20442400  0.81299100  0.62183900  1
  F  F10  1  0.20442400  0.81299100  0.37816100  1
  F  F11  1  0.19366800  0.78980800  0.87470200  1
loop_
_geom_bond_atom_site_label_1
_geom_bond_atom_site_label_2
_geom_bond_distance
_geom_bond_site_symmetry_2
Co0 O3 1.933737 1_555
Co0 F4 2.074293 1_665
Co0 F11 2.077460 1_654
Co0 F0 2.077460 1_565
Co0 F8 2.077460 1_655
Co0 F3 2.077460 1_564
Co1 O0 1.931288 1_555
Co1 F5 2.064521 1_445
Co1 F8 2.066557 1_545
Co1 F0 2.066557 1_455
Co1 F10 2.071987 1_545
Co1 F2 2.071987 1_455
Co2 O2 1.907592 1_555
Co2 F2 2.009493 1_455
Co2 F10 2.009493 1_545
Co2 F1 2.009493 1_455
Co2 F9 2.009493 1_545
Co2 F6 2.114302 1_445
Co3 O1 1.931288 1_555
Co3 F7 2.064521 1_445
Co3 F11 2.066557 1_545
Co3 F3 2.066557 1_455
Co3 F1 2.071987 1_455
Co3 F9 2.071987 1_545
Co4 O0 1.890225 1_555
Co4 O3 1.892540 1_555
Co4 F0 2.046167 1_555
Co4 F8 2.046167 1_555
Co4 F4 2.072557 1_555
Co4 F5 2.085126 1_555
Co5 O1 1.899502 1_555
Co5 O2 1.903478 1_555
Co5 F6 2.064744 1_555
Co5 F7 2.067950 1_555
Co5 F9 2.093368 1_555
Co5 F1 2.093368 1_555
Co6 O0 1.899502 1_555
Co6 O2 1.903478 1_555
Co6 F6 2.064744 1_555
Co6 F5 2.067950 1_555
Co6 F10 2.093368 1_555
Co6 F2 2.093368 1_555
Co7 O1 1.890225 1_555
Co7 O3 1.892540 1_556
Co7 F3 2.046167 1_555
Co7 F11 2.046167 1_555
Co7 F4 2.072557 1_556
Co7 F7 2.085126 1_555
