# generated using pymatgen
data_Tb5O9
_symmetry_space_group_name_H-M   'P 1'
_cell_length_a   6.63138629
_cell_length_b   6.63138629
_cell_length_c   6.63138629
_cell_angle_alpha   100.46569867
_cell_angle_beta   100.46569867
_cell_angle_gamma   129.54665325
_symmetry_Int_Tables_number   1
_chemical_formula_structural   Tb5O9
_chemical_formula_sum   'Tb5 O9'
_cell_volume   203.42188234
_cell_formula_units_Z   1
loop_
 _symmetry_equiv_pos_site_id
 _symmetry_equiv_pos_as_xyz
  1  'x, y, z'
loop_
 _atom_site_type_symbol
 _atom_site_label
 _atom_site_symmetry_multiplicity
 _atom_site_fract_x
 _atom_site_fract_y
 _atom_site_fract_z
 _atom_site_occupancy
  Tb  Tb0  1  0.55697900  0.89086800  0.89859000  1
  Tb  Tb1  1  0.99227800  0.65838900  0.10141000  1
  Tb  Tb2  1  0.34161100  0.44302100  0.33388900  1
  Tb  Tb3  1  0.10913200  0.00772200  0.66611100  1
  Tb  Tb4  1  0.75000000  0.25000000  0.50000000  1
  O  O0  1  0.00000000  0.00000000  0.00000000  1
  O  O1  1  0.90922700  0.30888900  0.21478900  1
  O  O2  1  0.69111100  0.90590000  0.60033800  1
  O  O3  1  0.30556200  0.09077300  0.39966200  1
  O  O4  1  0.23118000  0.41422800  0.64522000  1
  O  O5  1  0.76900700  0.58596000  0.35478000  1
  O  O6  1  0.41404000  0.76882000  0.18304800  1
  O  O7  1  0.09410000  0.69443800  0.78521100  1
  O  O8  1  0.58577200  0.23099300  0.81695200  1
loop_
_geom_bond_atom_site_label_1
_geom_bond_atom_site_label_2
_geom_bond_distance
_geom_bond_site_symmetry_2
O0 Tb3 2.450497 1_554
O0 Tb2 2.450497 1_555
O0 Tb0 2.450497 1_444
O0 Tb1 2.450497 1_445
O1 Tb2 2.304504 1_655
O1 Tb4 2.305074 1_555
O1 Tb1 2.323416 1_555
O1 Tb0 2.323944 1_544
O2 Tb0 2.304504 1_555
O2 Tb4 2.305074 1_565
O2 Tb2 2.323416 1_555
O2 Tb3 2.323944 1_665
O3 Tb1 2.304504 1_445
O3 Tb4 2.305074 1_555
O3 Tb3 2.323416 1_555
O3 Tb2 2.323944 1_555
O4 Tb3 2.310661 1_555
O4 Tb2 2.312908 1_555
O4 Tb0 2.353139 1_555
O4 Tb4 2.524413 1_455
O5 Tb2 2.310655 1_555
O5 Tb3 2.312909 1_665
O5 Tb1 2.353143 1_555
O5 Tb4 2.524416 1_555
O6 Tb0 2.310661 1_554
O6 Tb1 2.312908 1_455
O6 Tb2 2.353139 1_555
O6 Tb4 2.524413 1_565
O7 Tb3 2.304504 1_565
O7 Tb4 2.305074 1_455
O7 Tb0 2.323416 1_555
O7 Tb1 2.323944 1_456
O8 Tb1 2.310659 1_556
O8 Tb0 2.312915 1_545
O8 Tb3 2.353137 1_555
O8 Tb4 2.524413 1_555
