# generated using pymatgen
data_La8Cu3O16
_symmetry_space_group_name_H-M   'P 1'
_cell_length_a   8.42926704
_cell_length_b   7.54050316
_cell_length_c   8.87654663
_cell_angle_alpha   102.22054660
_cell_angle_beta   131.58908425
_cell_angle_gamma   63.36381439
_symmetry_Int_Tables_number   1
_chemical_formula_structural   La8Cu3O16
_chemical_formula_sum   'La8 Cu3 O16'
_cell_volume   374.06829759
_cell_formula_units_Z   1
loop_
 _symmetry_equiv_pos_site_id
 _symmetry_equiv_pos_as_xyz
  1  'x, y, z'
loop_
 _atom_site_type_symbol
 _atom_site_label
 _atom_site_symmetry_multiplicity
 _atom_site_fract_x
 _atom_site_fract_y
 _atom_site_fract_z
 _atom_site_occupancy
  La  La0  1  0.05350700  0.16322100  0.73018300  1
  La  La1  1  0.94895200  0.85260500  0.27630200  1
  La  La2  1  0.05487400  0.64685900  0.72518200  1
  La  La3  1  0.53166600  0.40530900  0.72066700  1
  La  La4  1  0.53604900  0.92290600  0.72219500  1
  La  La5  1  0.95017300  0.33707300  0.27165200  1
  La  La6  1  0.46878200  0.09555300  0.27883100  1
  La  La7  1  0.46352600  0.57828100  0.27778700  1
  Cu  Cu0  1  0.49900600  0.75001600  0.99899100  1
  Cu  Cu1  1  0.99895500  0.49936100  0.99904100  1
  Cu  Cu2  1  0.00107800  0.99894100  0.00362300  1
  O  O0  1  0.25375400  0.87470500  0.00563700  1
  O  O1  1  0.77858700  0.70520600  0.36776900  1
  O  O2  1  0.24380100  0.37867000  0.99891500  1
  O  O3  1  0.49713100  0.99367000  0.99609700  1
  O  O4  1  0.77569100  0.20138600  0.37576900  1
  O  O5  1  0.27029300  0.44974100  0.36283800  1
  O  O6  1  0.26490900  0.95340500  0.36717400  1
  O  O7  1  0.22066100  0.29843300  0.62660800  1
  O  O8  1  0.75509900  0.12286800  0.00016900  1
  O  O9  1  0.50307400  0.50706600  0.00406200  1
  O  O10  1  0.00344100  0.74847200  0.00282800  1
  O  O11  1  0.00300900  0.24811800  0.00218200  1
  O  O12  1  0.21769500  0.79374000  0.63454500  1
  O  O13  1  0.72411300  0.53934100  0.63307200  1
  O  O14  1  0.71825900  0.04435800  0.63516200  1
  O  O15  1  0.74498800  0.62697000  0.99396200  1
loop_
_geom_bond_atom_site_label_1
_geom_bond_atom_site_label_2
_geom_bond_distance
_geom_bond_site_symmetry_2
La0 O4 2.337196 1_455
La0 O3 2.542117 1_545
La0 O2 2.553182 1_555
La0 O11 2.624134 1_556
La0 O0 2.653458 1_546
La0 O7 2.697164 1_555
La0 O13 2.700505 1_455
La0 O12 2.738505 1_545
La0 O14 2.878739 1_455
La1 O12 2.360829 1_655
La1 O8 2.577359 1_565
La1 O3 2.595114 1_554
La1 O6 2.650475 1_655
La1 O10 2.658976 1_655
La1 O4 2.667231 1_565
La1 O15 2.688696 1_554
La1 O1 2.705154 1_555
La1 O5 2.828933 1_655
La2 O1 2.354983 1_455
La2 O2 2.566168 1_555
La2 O9 2.574957 1_556
La2 O12 2.638891 1_555
La2 O7 2.641827 1_555
La2 O10 2.677719 1_556
La2 O0 2.681599 1_556
La2 O13 2.796249 1_455
La2 O14 2.837563 1_465
La3 O5 2.356582 1_555
La3 O8 2.583690 1_556
La3 O9 2.607073 1_556
La3 O7 2.631121 1_555
La3 O15 2.664455 1_555
La3 O11 2.699189 1_656
La3 O14 2.707332 1_555
La3 O12 2.734768 1_555
La3 O13 2.781138 1_555
La4 O6 2.341215 1_555
La4 O8 2.577601 1_566
La4 O3 2.579971 1_555
La4 O14 2.632584 1_565
La4 O15 2.648692 1_555
La4 O7 2.660539 1_565
La4 O10 2.677474 1_656
La4 O12 2.829499 1_555
La4 O13 2.844156 1_555
La5 O7 2.338111 1_655
La5 O9 2.561564 1_555
La5 O8 2.567696 1_555
La5 O11 2.614752 1_655
La5 O15 2.660278 1_554
La5 O6 2.701336 1_645
La5 O5 2.742814 1_655
La5 O1 2.749747 1_555
La5 O4 2.760112 1_555
La6 O14 2.352549 1_555
La6 O4 2.583628 1_555
La6 O2 2.586043 1_554
La6 O3 2.600235 1_544
La6 O0 2.664733 1_545
La6 O11 2.667380 1_555
La6 O5 2.700896 1_555
La6 O1 2.731519 1_545
La6 O6 2.917808 1_545
La7 O13 2.339701 1_555
La7 O2 2.580551 1_554
La7 O9 2.581765 1_555
La7 O10 2.634691 1_555
La7 O0 2.651382 1_555
La7 O4 2.657080 1_555
La7 O5 2.742317 1_555
La7 O1 2.783209 1_555
La7 O6 2.828559 1_555
Cu0 O9 1.826427 1_556
Cu0 O3 1.835726 1_555
Cu0 O15 1.882130 1_555
Cu0 O0 1.885948 1_556
Cu0 O12 2.400751 1_555
Cu0 O1 2.428259 1_556
Cu1 O2 1.845613 1_655
Cu1 O15 1.885202 1_555
Cu1 O11 1.885237 1_656
Cu1 O10 1.888465 1_656
Cu1 O5 2.395459 1_656
Cu1 O13 2.410029 1_555
Cu2 O8 1.834037 1_465
Cu2 O10 1.878378 1_555
Cu2 O11 1.889085 1_565
Cu2 O0 1.892555 1_555
Cu2 O6 2.394686 1_555
Cu2 O14 2.426666 1_464
