# generated using pymatgen
data_Li4FeF8
_symmetry_space_group_name_H-M   'P 1'
_cell_length_a   5.65480200
_cell_length_b   9.62650900
_cell_length_c   9.87156900
_cell_angle_alpha   90.00000000
_cell_angle_beta   90.00000000
_cell_angle_gamma   90.00000000
_symmetry_Int_Tables_number   1
_chemical_formula_structural   Li4FeF8
_chemical_formula_sum   'Li16 Fe4 F32'
_cell_volume   537.36875324
_cell_formula_units_Z   4
loop_
 _symmetry_equiv_pos_site_id
 _symmetry_equiv_pos_as_xyz
  1  'x, y, z'
loop_
 _atom_site_type_symbol
 _atom_site_label
 _atom_site_symmetry_multiplicity
 _atom_site_fract_x
 _atom_site_fract_y
 _atom_site_fract_z
 _atom_site_occupancy
  Li  Li0  1  0.12331600  0.11719700  0.92372500  1
  Li  Li1  1  0.12331600  0.11719700  0.57627500  1
  Li  Li2  1  0.62473500  0.13057400  0.94480900  1
  Li  Li3  1  0.62473500  0.13057400  0.55519100  1
  Li  Li4  1  0.12473500  0.36942600  0.05519100  1
  Li  Li5  1  0.12473500  0.36942600  0.44480900  1
  Li  Li6  1  0.62331600  0.38280300  0.07627500  1
  Li  Li7  1  0.62331600  0.38280300  0.42372500  1
  Li  Li8  1  0.37668400  0.61719700  0.92372500  1
  Li  Li9  1  0.37668400  0.61719700  0.57627500  1
  Li  Li10  1  0.87526500  0.63057400  0.55519100  1
  Li  Li11  1  0.87526500  0.63057400  0.94480900  1
  Li  Li12  1  0.37526500  0.86942600  0.05519100  1
  Li  Li13  1  0.37526500  0.86942600  0.44480900  1
  Li  Li14  1  0.87668400  0.88280300  0.07627500  1
  Li  Li15  1  0.87668400  0.88280300  0.42372500  1
  Fe  Fe0  1  0.36492800  0.10881400  0.25000000  1
  Fe  Fe1  1  0.86492800  0.39118600  0.75000000  1
  Fe  Fe2  1  0.13507200  0.60881400  0.25000000  1
  Fe  Fe3  1  0.63507200  0.89118600  0.75000000  1
  F  F0  1  0.15005900  0.01708000  0.11692500  1
  F  F1  1  0.15005900  0.01708000  0.38307500  1
  F  F2  1  0.59669300  0.01665600  0.12396600  1
  F  F3  1  0.59669300  0.01665600  0.37603400  1
  F  F4  1  0.08696700  0.23174700  0.75000000  1
  F  F5  1  0.64599800  0.23389900  0.75000000  1
  F  F6  1  0.37201900  0.24413600  0.00758800  1
  F  F7  1  0.37201900  0.24413600  0.49241200  1
  F  F8  1  0.87201900  0.25586400  0.50758800  1
  F  F9  1  0.87201900  0.25586400  0.99241200  1
  F  F10  1  0.14599800  0.26610100  0.25000000  1
  F  F11  1  0.58696700  0.26825300  0.25000000  1
  F  F12  1  0.09669300  0.48334400  0.62396600  1
  F  F13  1  0.09669300  0.48334400  0.87603400  1
  F  F14  1  0.65005900  0.48292000  0.61692500  1
  F  F15  1  0.65005900  0.48292000  0.88307500  1
  F  F16  1  0.34994100  0.51708000  0.11692500  1
  F  F17  1  0.34994100  0.51708000  0.38307500  1
  F  F18  1  0.90330700  0.51665600  0.12396600  1
  F  F19  1  0.90330700  0.51665600  0.37603400  1
  F  F20  1  0.41303300  0.73174700  0.75000000  1
  F  F21  1  0.85400200  0.73389900  0.75000000  1
  F  F22  1  0.12798100  0.74413600  0.00758800  1
  F  F23  1  0.12798100  0.74413600  0.49241200  1
  F  F24  1  0.62798100  0.75586400  0.50758800  1
  F  F25  1  0.62798100  0.75586400  0.99241200  1
  F  F26  1  0.35400200  0.76610100  0.25000000  1
  F  F27  1  0.91303300  0.76825300  0.25000000  1
  F  F28  1  0.40330700  0.98334400  0.62396600  1
  F  F29  1  0.40330700  0.98334400  0.87603400  1
  F  F30  1  0.84994100  0.98292000  0.61692500  1
  F  F31  1  0.84994100  0.98292000  0.88307500  1
loop_
_geom_bond_atom_site_label_1
_geom_bond_atom_site_label_2
_geom_bond_distance
_geom_bond_site_symmetry_2
F0 Fe0 1.995458 1_555
F0 Li12 2.003380 1_545
F0 Li14 2.054662 1_445
F0 Li0 2.142218 1_554
F1 Fe0 1.995458 1_555
F1 Li13 2.003380 1_545
F1 Li15 2.054662 1_445
F1 Li1 2.142218 1_555
F2 Li12 2.009361 1_545
F2 Fe0 2.013108 1_555
F2 Li2 2.086997 1_554
F2 Li14 2.094943 1_545
F3 Li13 2.009361 1_545
F3 Fe0 2.013108 1_555
F3 Li3 2.086997 1_555
F3 Li15 2.094943 1_545
F4 Fe1 1.982986 1_455
F4 Li0 2.049206 1_555
F4 Li1 2.049206 1_555
F5 Fe1 1.955820 1_555
F5 Li2 2.168410 1_555
F5 Li3 2.168410 1_555
F6 Li2 1.902990 1_554
F6 Li4 1.905485 1_555
F6 Li0 2.038738 1_554
F6 Li6 2.064217 1_555
F7 Li3 1.902990 1_555
F7 Li5 1.905485 1_555
F7 Li1 2.038738 1_555
F7 Li7 2.064217 1_555
F8 Li5 1.902990 1_655
F8 Li3 1.905485 1_555
F8 Li7 2.038738 1_555
F8 Li1 2.064217 1_655
F9 Li4 1.902990 1_656
F9 Li2 1.905485 1_555
F9 Li6 2.038738 1_556
F9 Li0 2.064217 1_655
F10 Fe0 1.955820 1_555
F10 Li5 2.168410 1_555
F10 Li4 2.168410 1_555
F11 Fe0 1.982986 1_555
F11 Li7 2.049206 1_555
F11 Li6 2.049206 1_555
F12 Li10 2.009361 1_455
F12 Fe1 2.013108 1_455
F12 Li5 2.086997 1_555
F12 Li9 2.094943 1_555
F13 Li11 2.009361 1_455
F13 Fe1 2.013108 1_455
F13 Li4 2.086997 1_556
F13 Li8 2.094943 1_555
F14 Fe1 1.995458 1_555
F14 Li10 2.003380 1_555
F14 Li9 2.054662 1_555
F14 Li7 2.142218 1_555
F15 Fe1 1.995458 1_555
F15 Li11 2.003380 1_555
F15 Li8 2.054662 1_555
F15 Li6 2.142218 1_556
F16 Fe2 1.995458 1_555
F16 Li4 2.003380 1_555
F16 Li6 2.054662 1_555
F16 Li8 2.142218 1_554
F17 Fe2 1.995458 1_555
F17 Li5 2.003380 1_555
F17 Li7 2.054662 1_555
F17 Li9 2.142218 1_555
F18 Li4 2.009361 1_655
F18 Fe2 2.013108 1_655
F18 Li11 2.086997 1_554
F18 Li6 2.094943 1_555
F19 Li5 2.009361 1_655
F19 Fe2 2.013108 1_655
F19 Li10 2.086997 1_555
F19 Li7 2.094943 1_555
F20 Fe3 1.982986 1_555
F20 Li9 2.049206 1_555
F20 Li8 2.049206 1_555
F21 Fe3 1.955820 1_555
F21 Li11 2.168410 1_555
F21 Li10 2.168410 1_555
F22 Li11 1.902990 1_454
F22 Li12 1.905485 1_555
F22 Li8 2.038738 1_554
F22 Li14 2.064217 1_455
F23 Li10 1.902990 1_455
F23 Li13 1.905485 1_555
F23 Li9 2.038738 1_555
F23 Li15 2.064217 1_455
F24 Li13 1.902990 1_555
F24 Li10 1.905485 1_555
F24 Li15 2.038738 1_555
F24 Li9 2.064217 1_555
F25 Li12 1.902990 1_556
F25 Li11 1.905485 1_555
F25 Li14 2.038738 1_556
F25 Li8 2.064217 1_555
F26 Fe2 1.955820 1_555
F26 Li12 2.168410 1_555
F26 Li13 2.168410 1_555
F27 Fe2 1.982986 1_655
F27 Li14 2.049206 1_555
F27 Li15 2.049206 1_555
F28 Li3 2.009361 1_565
F28 Fe3 2.013108 1_555
F28 Li13 2.086997 1_555
F28 Li1 2.094943 1_565
F29 Li2 2.009361 1_565
F29 Fe3 2.013108 1_555
F29 Li12 2.086997 1_556
F29 Li0 2.094943 1_565
F30 Fe3 1.995458 1_555
F30 Li3 2.003380 1_565
F30 Li1 2.054662 1_665
F30 Li15 2.142218 1_555
F31 Fe3 1.995458 1_555
F31 Li2 2.003380 1_565
F31 Li0 2.054662 1_665
F31 Li14 2.142218 1_556
