# generated using pymatgen
data_Li3V2(CO3)4
_symmetry_space_group_name_H-M   'P 1'
_cell_length_a   6.36346772
_cell_length_b   6.36309154
_cell_length_c   12.51910008
_cell_angle_alpha   105.26493678
_cell_angle_beta   105.27007579
_cell_angle_gamma   91.05666177
_symmetry_Int_Tables_number   1
_chemical_formula_structural   Li3V2(CO3)4
_chemical_formula_sum   'Li6 V4 C8 O24'
_cell_volume   469.66194991
_cell_formula_units_Z   2
loop_
 _symmetry_equiv_pos_site_id
 _symmetry_equiv_pos_as_xyz
  1  'x, y, z'
loop_
 _atom_site_type_symbol
 _atom_site_label
 _atom_site_symmetry_multiplicity
 _atom_site_fract_x
 _atom_site_fract_y
 _atom_site_fract_z
 _atom_site_occupancy
  Li  Li0  1  0.31602900  0.68335800  0.37479400  1
  Li  Li1  1  0.31742500  0.68308000  0.87523800  1
  Li  Li2  1  0.67906400  0.50541800  0.02668900  1
  Li  Li3  1  0.67955200  0.50565200  0.52593500  1
  Li  Li4  1  0.49433200  0.32028800  0.22410000  1
  Li  Li5  1  0.49446500  0.32109000  0.72335300  1
  V  V0  1  0.82940500  0.17076700  0.87498300  1
  V  V1  1  0.82967200  0.17032500  0.37497700  1
  V  V2  1  0.18885300  0.81090500  0.12489700  1
  V  V3  1  0.18901000  0.81120900  0.62514000  1
  C  C0  1  0.87540800  0.68174400  0.38552000  1
  C  C1  1  0.87566500  0.68150700  0.88537100  1
  C  C2  1  0.31824200  0.12456900  0.36447400  1
  C  C3  1  0.31856400  0.12440700  0.86461400  1
  C  C4  1  0.68241900  0.88153100  0.13439400  1
  C  C5  1  0.68252400  0.88162000  0.63462600  1
  C  C6  1  0.11844300  0.31734500  0.11539900  1
  C  C7  1  0.11839200  0.31763000  0.61558200  1
  O  O0  1  0.92115900  0.30966800  0.04611900  1
  O  O1  1  0.92141300  0.30982200  0.54618300  1
  O  O2  1  0.69019200  0.07847800  0.20374500  1
  O  O3  1  0.69031700  0.07901900  0.70386800  1
  O  O4  1  0.85466300  0.78933200  0.12304200  1
  O  O5  1  0.85461800  0.78931500  0.62344900  1
  O  O6  1  0.21069800  0.14527100  0.12654700  1
  O  O7  1  0.21057900  0.14537400  0.62698200  1
  O  O8  1  0.75688100  0.49154000  0.34925600  1
  O  O9  1  0.75636300  0.49170000  0.84887100  1
  O  O10  1  0.50837700  0.24313500  0.40064300  1
  O  O11  1  0.50839900  0.24371100  0.90110200  1
  O  O12  1  0.77733700  0.84931300  0.36733000  1
  O  O13  1  0.77850700  0.84994400  0.86775000  1
  O  O14  1  0.15068500  0.22262600  0.38266700  1
  O  O15  1  0.15016300  0.22164400  0.88221300  1
  O  O16  1  0.49456600  0.77258800  0.07524800  1
  O  O17  1  0.49465900  0.77289400  0.57557200  1
  O  O18  1  0.22703200  0.50524700  0.17454700  1
  O  O19  1  0.22736400  0.50548300  0.67469600  1
  O  O20  1  0.30579500  0.92172600  0.31011400  1
  O  O21  1  0.30711300  0.92158900  0.81049700  1
  O  O22  1  0.07824500  0.69420700  0.43992000  1
  O  O23  1  0.07842200  0.69291500  0.93955300  1
loop_
_geom_bond_atom_site_label_1
_geom_bond_atom_site_label_2
_geom_bond_distance
_geom_bond_site_symmetry_2
Li0 O20 1.892893 1_555
Li0 O22 1.892913 1_555
Li0 O18 2.371122 1_555
Li0 O17 2.377338 1_555
Li1 O23 1.894020 1_555
Li1 O21 1.894163 1_555
Li1 O16 2.367155 1_556
Li1 O19 2.373376 1_555
Li2 O0 2.004217 1_555
Li2 O4 2.008842 1_555
Li2 O11 2.019834 1_554
Li2 O16 2.131527 1_555
Li2 O9 2.383534 1_554
Li3 O1 2.004318 1_555
Li3 O5 2.009603 1_555
Li3 O10 2.022471 1_555
Li3 O17 2.136488 1_555
Li3 O8 2.369155 1_555
Li4 O2 2.004334 1_555
Li4 O6 2.009477 1_555
Li4 O8 2.022045 1_555
Li4 O18 2.136745 1_555
Li4 O10 2.367007 1_555
Li5 O3 2.004604 1_555
Li5 O7 2.009062 1_555
Li5 O9 2.020103 1_555
Li5 O19 2.131006 1_555
Li5 O11 2.382577 1_555
C0 O22 1.280971 1_655
C0 O12 1.286766 1_555
C0 O8 1.317733 1_555
C1 O23 1.280513 1_655
C1 O13 1.287137 1_555
C1 O9 1.317833 1_555
C2 O20 1.280878 1_545
C2 O14 1.286733 1_555
C2 O10 1.317572 1_555
C3 O21 1.280608 1_545
C3 O15 1.287152 1_555
C3 O11 1.318014 1_555
C4 O4 1.275779 1_555
C4 O16 1.300273 1_555
C4 O2 1.314876 1_565
C5 O5 1.274752 1_555
C5 O17 1.299611 1_555
C5 O3 1.316554 1_565
C6 O6 1.274359 1_555
C6 O18 1.299678 1_555
C6 O0 1.316276 1_455
C7 O7 1.275884 1_555
C7 O19 1.300252 1_555
C7 O1 1.315230 1_455
O0 V0 2.009279 1_554
O1 V1 2.010631 1_555
O2 V1 2.010880 1_555
O3 V0 2.009213 1_555
O4 V2 2.122117 1_655
O5 V3 2.124045 1_655
O6 V2 2.123882 1_545
O7 V3 2.121878 1_545
O8 V1 2.190609 1_555
O9 V0 2.190816 1_555
O10 V1 2.191041 1_555
O11 V0 2.191325 1_555
O12 V1 2.036555 1_565
O13 V0 2.035522 1_565
O14 V1 2.036502 1_455
O15 V0 2.035216 1_455
O16 V2 2.192022 1_555
O17 V3 2.191134 1_555
O18 V2 2.191481 1_555
O19 V3 2.191383 1_555
O20 V2 2.153693 1_555
O21 V3 2.155591 1_555
O22 V3 2.153737 1_555
O23 V2 2.155417 1_556
