# generated using pymatgen
data_Li4V2OF7
_symmetry_space_group_name_H-M   'P 1'
_cell_length_a   5.99745353
_cell_length_b   5.99745353
_cell_length_c   5.93453491
_cell_angle_alpha   60.57642088
_cell_angle_beta   60.57642088
_cell_angle_gamma   61.73174548
_symmetry_Int_Tables_number   1
_chemical_formula_structural   Li4V2OF7
_chemical_formula_sum   'Li4 V2 O1 F7'
_cell_volume   154.16943065
_cell_formula_units_Z   1
loop_
 _symmetry_equiv_pos_site_id
 _symmetry_equiv_pos_as_xyz
  1  'x, y, z'
loop_
 _atom_site_type_symbol
 _atom_site_label
 _atom_site_symmetry_multiplicity
 _atom_site_fract_x
 _atom_site_fract_y
 _atom_site_fract_z
 _atom_site_occupancy
  Li  Li0  1  0.50184000  0.50184000  0.99903200  1
  Li  Li1  1  0.50724100  0.50724100  0.49073200  1
  Li  Li2  1  0.87375300  0.87375300  0.89059000  1
  Li  Li3  1  0.11838200  0.11838200  0.12499100  1
  V  V0  1  0.50857300  0.99079800  0.48587000  1
  V  V1  1  0.99079800  0.50857300  0.48587000  1
  O  O0  1  0.74818500  0.74818500  0.28951000  1
  F  F0  1  0.25631800  0.72358800  0.26173800  1
  F  F1  1  0.72358800  0.25631800  0.26173800  1
  F  F2  1  0.25619900  0.25619900  0.72060900  1
  F  F3  1  0.25651200  0.25651200  0.25082500  1
  F  F4  1  0.74275200  0.74275200  0.74690700  1
  F  F5  1  0.74863200  0.27017800  0.74571400  1
  F  F6  1  0.27017800  0.74863200  0.74571400  1
loop_
_geom_bond_atom_site_label_1
_geom_bond_atom_site_label_2
_geom_bond_distance
_geom_bond_site_symmetry_2
Li1 O0 2.046789 1_555
Li2 O0 1.942336 1_556
O0 V0 1.892164 1_555
O0 V1 1.892164 1_555
F0 Li3 1.966107 1_565
F0 V1 2.036349 1_455
F0 Li1 2.054859 1_555
F0 Li0 2.072255 1_554
F1 Li3 1.966107 1_655
F1 V0 2.036349 1_545
F1 Li1 2.054859 1_555
F1 Li0 2.072255 1_554
F2 Li3 1.968452 1_556
F2 Li1 2.122695 1_555
F2 V1 2.142458 1_455
F2 V0 2.142458 1_545
F3 Li3 1.948324 1_555
F3 Li0 2.071900 1_554
F3 V0 2.092003 1_545
F3 V1 2.092003 1_455
F4 Li2 1.965399 1_555
F4 Li0 2.035487 1_555
F4 V0 2.116560 1_555
F4 V1 2.116560 1_555
F5 Li2 1.972455 1_545
F5 V1 2.032664 1_555
F5 Li0 2.073457 1_555
F5 Li1 2.120393 1_555
F6 Li2 1.972455 1_455
F6 V0 2.032664 1_555
F6 Li0 2.073457 1_555
F6 Li1 2.120393 1_555
