# generated using pymatgen
data_Li4Co7(OF7)2
_symmetry_space_group_name_H-M   'P 1'
_cell_length_a   6.05168100
_cell_length_b   6.09062750
_cell_length_c   10.58025400
_cell_angle_alpha   91.41736229
_cell_angle_beta   105.89577629
_cell_angle_gamma   118.55341489
_symmetry_Int_Tables_number   1
_chemical_formula_structural   Li4Co7(OF7)2
_chemical_formula_sum   'Li4 Co7 O2 F14'
_cell_volume   323.80279498
_cell_formula_units_Z   1
loop_
 _symmetry_equiv_pos_site_id
 _symmetry_equiv_pos_as_xyz
  1  'x, y, z'
loop_
 _atom_site_type_symbol
 _atom_site_label
 _atom_site_symmetry_multiplicity
 _atom_site_fract_x
 _atom_site_fract_y
 _atom_site_fract_z
 _atom_site_occupancy
  Li  Li0  1  0.64064600  0.34898800  0.44475700  1
  Li  Li1  1  0.37635300  0.16879000  0.05646300  1
  Li  Li2  1  0.62498700  0.82522300  0.94734000  1
  Li  Li3  1  0.37402600  0.66590500  0.55838200  1
  Co  Co0  1  0.00390800  0.48810500  0.99408400  1
  Co  Co1  1  0.52460400  0.74969100  0.25034200  1
  Co  Co2  1  0.98965200  0.23516200  0.24410900  1
  Co  Co3  1  0.99694800  0.74940800  0.74963300  1
  Co  Co4  1  0.97976200  0.99007600  0.49972200  1
  Co  Co5  1  0.98123200  0.75652600  0.25127300  1
  Co  Co6  1  0.49577600  0.24460100  0.74810800  1
  O  O0  1  0.76960000  0.66365400  0.37520100  1
  O  O1  1  0.76592800  0.89258500  0.14206200  1
  F  F0  1  0.24342900  0.37535100  0.12152700  1
  F  F1  1  0.74447300  0.39324600  0.63907200  1
  F  F2  1  0.23848100  0.84405400  0.13068200  1
  F  F3  1  0.24609100  0.87437900  0.62948600  1
  F  F4  1  0.75903100  0.85664500  0.62577400  1
  F  F5  1  0.77043000  0.38388000  0.12154700  1
  F  F6  1  0.23384500  0.64447500  0.88116600  1
  F  F7  1  0.24344400  0.13832600  0.37579700  1
  F  F8  1  0.76237600  0.14077200  0.37627500  1
  F  F9  1  0.73883000  0.14705600  0.87883800  1
  F  F10  1  0.23382800  0.61451700  0.35224400  1
  F  F11  1  0.25207500  0.33942000  0.61772800  1
  F  F12  1  0.25525300  0.10541300  0.86408700  1
  F  F13  1  0.75499500  0.61375400  0.87430200  1
loop_
_geom_bond_atom_site_label_1
_geom_bond_atom_site_label_2
_geom_bond_distance
_geom_bond_site_symmetry_2
Li0 O0 1.943764 1_555
Li2 O1 1.949711 1_556
Co0 F6 1.992659 1_555
Co0 F9 1.998179 1_455
Co0 F0 2.077881 1_556
Co0 F5 2.108732 1_456
Co0 F13 2.136608 1_455
Co0 F2 2.140813 1_556
Co1 O0 1.980411 1_555
Co1 O1 1.988340 1_555
Co1 F10 2.152889 1_555
Co1 F2 2.172059 1_555
Co1 F0 2.195079 1_555
Co1 F8 2.244040 1_565
Co2 O1 1.933805 1_545
Co2 F7 2.093421 1_655
Co2 F10 2.123743 1_655
Co2 F8 2.124861 1_555
Co2 F5 2.127557 1_555
Co2 F0 2.159175 1_655
Co3 F4 2.030932 1_555
Co3 F1 2.033591 1_555
Co3 F12 2.050484 1_665
Co3 F6 2.056076 1_655
Co3 F3 2.114048 1_655
Co3 F13 2.126453 1_555
Co4 O0 1.959914 1_555
Co4 F11 2.047281 1_665
Co4 F4 2.053088 1_555
Co4 F8 2.133391 1_565
Co4 F3 2.213743 1_655
Co4 F7 2.215406 1_665
Co5 O0 1.985817 1_555
Co5 O1 1.993586 1_555
Co5 F10 2.154334 1_655
Co5 F2 2.159625 1_655
Co5 F5 2.186655 1_555
Co5 F7 2.199331 1_665
Co6 F1 2.028749 1_555
Co6 F11 2.037312 1_555
Co6 F9 2.047240 1_555
Co6 F12 2.047765 1_555
Co6 F3 2.122951 1_545
Co6 F13 2.152018 1_555
F0 Li1 1.982848 1_555
F1 Li0 1.948655 1_555
F2 Li1 2.020602 1_565
F3 Li3 1.997288 1_555
F4 Li3 1.935989 1_555
F5 Li1 1.986701 1_555
F6 Li2 1.966750 1_555
F7 Li0 2.000310 1_555
F8 Li0 1.953436 1_555
F9 Li2 1.973579 1_545
F10 Li3 2.067193 1_555
F11 Li3 1.950832 1_555
F12 Li1 1.924187 1_556
F13 Li2 2.031640 1_555
