# generated using pymatgen
data_CuSiH12(OF)6
_symmetry_space_group_name_H-M   'P 1'
_cell_length_a   11.05998218
_cell_length_b   11.05998218
_cell_length_c   11.05998215
_cell_angle_alpha   111.41839530
_cell_angle_beta   111.41839530
_cell_angle_gamma   111.41839882
_symmetry_Int_Tables_number   1
_chemical_formula_structural   CuSiH12(OF)6
_chemical_formula_sum   'Cu4 Si4 H48 O24 F24'
_cell_volume   959.07132023
_cell_formula_units_Z   4
loop_
 _symmetry_equiv_pos_site_id
 _symmetry_equiv_pos_as_xyz
  1  'x, y, z'
loop_
 _atom_site_type_symbol
 _atom_site_label
 _atom_site_symmetry_multiplicity
 _atom_site_fract_x
 _atom_site_fract_y
 _atom_site_fract_z
 _atom_site_occupancy
  Cu  Cu0  1  0.00000000  0.00000000  0.00000000  1
  Cu  Cu1  1  0.00000000  0.50000000  0.50000000  1
  Cu  Cu2  1  0.50000000  0.50000000  0.00000000  1
  Cu  Cu3  1  0.50000000  0.00000000  0.50000000  1
  Si  Si0  1  0.50000000  0.50000000  0.50000000  1
  Si  Si1  1  0.50000000  0.00000000  0.00000000  1
  Si  Si2  1  0.00000000  0.00000000  0.50000000  1
  Si  Si3  1  0.00000000  0.50000000  0.00000000  1
  H  H0  1  0.13415700  0.30903500  0.20776400  1
  H  H1  1  0.30903500  0.20776400  0.13415700  1
  H  H2  1  0.20776400  0.13415700  0.30903500  1
  H  H3  1  0.86584300  0.69096500  0.79223600  1
  H  H4  1  0.69096500  0.79223600  0.86584300  1
  H  H5  1  0.79223600  0.86584300  0.69096500  1
  H  H6  1  0.99506400  0.24853200  0.04103000  1
  H  H7  1  0.24853200  0.04103000  0.99506400  1
  H  H8  1  0.04103000  0.99506400  0.24853200  1
  H  H9  1  0.00493600  0.75146800  0.95897000  1
  H  H10  1  0.75146800  0.95897000  0.00493600  1
  H  H11  1  0.95897000  0.00493600  0.75146800  1
  H  H12  1  0.11593000  0.77221300  0.72808600  1
  H  H13  1  0.77221300  0.72808600  0.11593000  1
  H  H14  1  0.72808600  0.11593000  0.77221300  1
  H  H15  1  0.88407000  0.22778700  0.27191400  1
  H  H16  1  0.22778700  0.27191400  0.88407000  1
  H  H17  1  0.27191400  0.88407000  0.22778700  1
  H  H18  1  0.01719400  0.75647300  0.56948800  1
  H  H19  1  0.75647300  0.56948800  0.01719400  1
  H  H20  1  0.56948800  0.01719400  0.75647300  1
  H  H21  1  0.98280600  0.24352700  0.43051200  1
  H  H22  1  0.24352700  0.43051200  0.98280600  1
  H  H23  1  0.43051200  0.98280600  0.24352700  1
  H  H24  1  0.04761300  0.49319000  0.74427600  1
  H  H25  1  0.49319000  0.74427600  0.04761300  1
  H  H26  1  0.74427600  0.04761300  0.49319000  1
  H  H27  1  0.95238700  0.50681000  0.25572400  1
  H  H28  1  0.50681000  0.25572400  0.95238700  1
  H  H29  1  0.25572400  0.95238700  0.50681000  1
  H  H30  1  0.18263200  0.48955300  0.72285300  1
  H  H31  1  0.48955300  0.72285300  0.18263200  1
  H  H32  1  0.72285300  0.18263200  0.48955300  1
  H  H33  1  0.81736800  0.51044700  0.27714700  1
  H  H34  1  0.51044700  0.27714700  0.81736800  1
  H  H35  1  0.27714700  0.81736800  0.51044700  1
  H  H36  1  0.32611500  0.72052900  0.66516200  1
  H  H37  1  0.72052900  0.66516200  0.32611500  1
  H  H38  1  0.66516200  0.32611500  0.72052900  1
  H  H39  1  0.67388500  0.27947100  0.33483800  1
  H  H40  1  0.27947100  0.33483800  0.67388500  1
  H  H41  1  0.33483800  0.67388500  0.27947100  1
  H  H42  1  0.27926700  0.60070200  0.49788300  1
  H  H43  1  0.60070200  0.49788300  0.27926700  1
  H  H44  1  0.49788300  0.27926700  0.60070200  1
  H  H45  1  0.72073300  0.39929800  0.50211700  1
  H  H46  1  0.39929800  0.50211700  0.72073300  1
  H  H47  1  0.50211700  0.72073300  0.39929800  1
  O  O0  1  0.02881500  0.21598800  0.11199000  1
  O  O1  1  0.21598800  0.11199000  0.02881500  1
  O  O2  1  0.11199000  0.02881500  0.21598800  1
  O  O3  1  0.97118500  0.78401200  0.88801000  1
  O  O4  1  0.78401200  0.88801000  0.97118500  1
  O  O5  1  0.88801000  0.97118500  0.78401200  1
  O  O6  1  0.01761600  0.69767200  0.61944900  1
  O  O7  1  0.69767200  0.61944900  0.01761600  1
  O  O8  1  0.61944900  0.01761600  0.69767200  1
  O  O9  1  0.98238400  0.30232800  0.38055100  1
  O  O10  1  0.30232800  0.38055100  0.98238400  1
  O  O11  1  0.38055100  0.98238400  0.30232800  1
  O  O12  1  0.11371900  0.52878000  0.70838400  1
  O  O13  1  0.52878000  0.70838400  0.11371900  1
  O  O14  1  0.70838400  0.11371900  0.52878000  1
  O  O15  1  0.88628100  0.47122000  0.29161600  1
  O  O16  1  0.47122000  0.29161600  0.88628100  1
  O  O17  1  0.29161600  0.88628100  0.47122000  1
  O  O18  1  0.25613800  0.67296400  0.55158800  1
  O  O19  1  0.67296400  0.55158800  0.25613800  1
  O  O20  1  0.55158800  0.25613800  0.67296400  1
  O  O21  1  0.74386200  0.32703600  0.44841200  1
  O  O22  1  0.32703600  0.44841200  0.74386200  1
  O  O23  1  0.44841200  0.74386200  0.32703600  1
  F  F0  1  0.32789300  0.48107400  0.39214900  1
  F  F1  1  0.48107400  0.39214900  0.32789300  1
  F  F2  1  0.39214900  0.32789300  0.48107400  1
  F  F3  1  0.67210700  0.51892600  0.60785100  1
  F  F4  1  0.51892600  0.60785100  0.67210700  1
  F  F5  1  0.60785100  0.67210700  0.51892600  1
  F  F6  1  0.07930400  0.69927600  0.08153300  1
  F  F7  1  0.69927600  0.08153300  0.07930400  1
  F  F8  1  0.08153300  0.07930400  0.69927600  1
  F  F9  1  0.92069600  0.30072400  0.91846700  1
  F  F10  1  0.30072400  0.91846700  0.92069600  1
  F  F11  1  0.91846700  0.92069600  0.30072400  1
  F  F12  1  0.10116400  0.54268000  0.18550800  1
  F  F13  1  0.54268000  0.18550800  0.10116400  1
  F  F14  1  0.18550800  0.10116400  0.54268000  1
  F  F15  1  0.89883600  0.45732000  0.81449200  1
  F  F16  1  0.45732000  0.81449200  0.89883600  1
  F  F17  1  0.81449200  0.89883600  0.45732000  1
  F  F18  1  0.15786000  0.52504600  0.98993300  1
  F  F19  1  0.52504600  0.98993300  0.15786000  1
  F  F20  1  0.98993300  0.15786000  0.52504600  1
  F  F21  1  0.84214000  0.47495400  0.01006700  1
  F  F22  1  0.47495400  0.01006700  0.84214000  1
  F  F23  1  0.01006700  0.84214000  0.47495400  1
loop_
_geom_bond_atom_site_label_1
_geom_bond_atom_site_label_2
_geom_bond_distance
_geom_bond_site_symmetry_2
Cu0 O1 2.082523 1_555
Cu0 O4 2.082523 1_444
Cu0 O0 2.082523 1_555
Cu0 O3 2.082523 1_444
Cu0 O2 2.082523 1_555
Cu0 O5 2.082523 1_444
Cu1 O9 1.988575 1_455
Cu1 O6 1.988575 1_555
Cu1 O12 2.012383 1_555
Cu1 O15 2.012383 1_455
Cu1 O18 2.464679 1_555
Cu1 O21 2.464679 1_455
Cu2 O10 1.988575 1_554
Cu2 O7 1.988575 1_555
Cu2 O16 2.012383 1_554
Cu2 O13 2.012383 1_555
Cu2 O19 2.464679 1_555
Cu2 O22 2.464679 1_554
Cu3 O11 1.988575 1_545
Cu3 O8 1.988575 1_555
Cu3 O14 2.012383 1_555
Cu3 O17 2.012383 1_545
Cu3 O20 2.464679 1_555
Cu3 O23 2.464679 1_545
H0 O0 0.982508 1_555
H1 O1 0.982508 1_555
H2 O2 0.982508 1_555
H3 O3 0.982508 1_555
H4 O4 0.982508 1_555
H5 O5 0.982508 1_555
H6 O0 0.987578 1_655
H7 O1 0.987578 1_556
H8 O2 0.987578 1_565
H9 O3 0.987578 1_455
H10 O4 0.987578 1_554
H11 O5 0.987578 1_545
H12 O6 0.986561 1_555
H13 O7 0.986561 1_555
H14 O8 0.986561 1_555
H15 O9 0.986561 1_555
H16 O10 0.986561 1_555
H17 O11 0.986561 1_555
H18 O6 0.995531 1_555
H19 O7 0.995531 1_555
H20 O8 0.995531 1_555
H21 O9 0.995531 1_555
H22 O10 0.995531 1_555
H23 O11 0.995531 1_555
H24 O12 0.981315 1_555
H25 O13 0.981315 1_555
H26 O14 0.981315 1_555
H27 O15 0.981315 1_555
H28 O16 0.981315 1_555
H29 O17 0.981315 1_555
H30 O12 0.998939 1_555
H31 O13 0.998939 1_555
H32 O14 0.998939 1_555
H33 O15 0.998939 1_555
H34 O16 0.998939 1_555
H35 O17 0.998939 1_555
H36 O18 0.981622 1_555
H37 O19 0.981622 1_555
H38 O20 0.981622 1_555
H39 O21 0.981622 1_555
H40 O22 0.981622 1_555
H41 O23 0.981622 1_555
H42 O18 0.985175 1_555
H43 O19 0.985175 1_555
H44 O20 0.985175 1_555
H45 O21 0.985175 1_555
H46 O22 0.985175 1_555
H47 O23 0.985175 1_555
F0 Si0 1.719974 1_555
F1 Si0 1.719974 1_555
F2 Si0 1.719974 1_555
F3 Si0 1.719974 1_555
F4 Si0 1.719974 1_555
F5 Si0 1.719974 1_555
F6 Si3 1.731756 1_555
F7 Si1 1.731756 1_555
F8 Si2 1.731756 1_555
F9 Si3 1.731756 1_656
F10 Si1 1.731756 1_566
F11 Si2 1.731756 1_665
F12 Si3 1.707207 1_555
F13 Si1 1.707207 1_555
F14 Si2 1.707207 1_555
F15 Si3 1.707207 1_656
F16 Si1 1.707207 1_566
F17 Si2 1.707207 1_665
F18 H22 1.647710 1_555
F18 Si3 1.717170 1_556
F19 H23 1.647709 1_555
F19 Si1 1.717170 1_565
F20 H21 1.647710 1_555
F20 Si2 1.717170 1_655
F21 H19 1.647710 1_555
F21 Si3 1.717170 1_655
F22 H20 1.647709 1_555
F22 Si1 1.717170 1_556
F23 H18 1.647710 1_555
F23 Si2 1.717170 1_565
