# generated using pymatgen
data_BaRhO3
_symmetry_space_group_name_H-M   'P 1'
_cell_length_a   5.77151052
_cell_length_b   5.77151040
_cell_length_c   9.65416446
_cell_angle_alpha   89.99994841
_cell_angle_beta   90.00004596
_cell_angle_gamma   119.99995595
_symmetry_Int_Tables_number   1
_chemical_formula_structural   BaRhO3
_chemical_formula_sum   'Ba4 Rh4 O12'
_cell_volume   278.49954569
_cell_formula_units_Z   4
loop_
 _symmetry_equiv_pos_site_id
 _symmetry_equiv_pos_as_xyz
  1  'x, y, z'
loop_
 _atom_site_type_symbol
 _atom_site_label
 _atom_site_symmetry_multiplicity
 _atom_site_fract_x
 _atom_site_fract_y
 _atom_site_fract_z
 _atom_site_occupancy
  Ba  Ba0  1  0.66666655  0.33333359  0.75001728  1
  Ba  Ba1  1  0.33333342  0.66666677  0.24998310  1
  Ba  Ba2  1  -0.00000004  0.00000008  0.49996354  1
  Ba  Ba3  1  0.00000000  0.00000015  0.00003161  1
  Rh  Rh0  1  0.33333300  0.66666705  0.88649837  1
  Rh  Rh1  1  0.66666722  0.33333256  0.38633263  1
  Rh  Rh2  1  0.66666703  0.33333267  0.11357109  1
  Rh  Rh3  1  0.33333279  0.66666727  0.61361908  1
  O  O0  1  0.18277272  0.36554686  0.75004643  1
  O  O1  1  0.81722412  0.18277610  0.24995832  1
  O  O2  1  0.36555307  0.18277518  0.24995783  1
  O  O3  1  0.63445317  0.81722702  0.75004644  1
  O  O4  1  0.18277298  0.81722714  0.75004637  1
  O  O5  1  0.81722454  0.63444693  0.24995784  1
  O  O6  1  0.50001378  0.00002800  0.49997282  1
  O  O7  1  0.49999953  0.50000042  0.00001723  1
  O  O8  1  0.49999945  -0.00000076  0.00001717  1
  O  O9  1  0.50001383  0.49998616  0.49997282  1
  O  O10  1  -0.00002795  0.49998628  0.49997287  1
  O  O11  1  0.00000078  0.50000052  0.00001717  1
loop_
_geom_bond_atom_site_label_1
_geom_bond_atom_site_label_2
_geom_bond_distance
_geom_bond_site_symmetry_2
Ba0 O0 2.890241 1_655
Ba0 O3 2.890243 1_545
Ba0 O3 2.890244 1_555
Ba0 O4 2.890245 1_655
Ba0 O4 2.890245 1_545
Ba0 O0 2.890246 1_555
Ba0 O11 2.932755 1_656
Ba0 O8 2.932755 1_556
Ba0 O7 2.932755 1_556
Ba0 O9 2.933025 1_555
Ba0 O10 2.933028 1_655
Ba0 O6 2.933029 1_555
Ba1 O2 2.890237 1_565
Ba1 O5 2.890240 1_455
Ba1 O1 2.890247 1_455
Ba1 O1 2.890247 1_565
Ba1 O5 2.890251 1_555
Ba1 O2 2.890253 1_555
Ba1 O8 2.932480 1_565
Ba1 O11 2.932481 1_555
Ba1 O7 2.932481 1_555
Ba1 O9 2.932749 1_555
Ba1 O6 2.932752 1_565
Ba1 O10 2.932753 1_555
Ba2 O10 2.885754 1_545
Ba2 O6 2.885754 1_555
Ba2 O6 2.885756 1_455
Ba2 O10 2.885756 1_555
Ba2 O9 2.885757 1_555
Ba2 O9 2.885757 1_445
Ba2 O1 3.027179 1_455
Ba2 O2 3.027189 1_555
Ba2 O5 3.027190 1_445
Ba2 O4 3.027759 1_545
Ba2 O3 3.027764 1_445
Ba2 O0 3.027765 1_555
Ba3 O8 2.885755 1_555
Ba3 O11 2.885755 1_555
Ba3 O11 2.885755 1_545
Ba3 O8 2.885756 1_455
Ba3 O7 2.885757 1_555
Ba3 O7 2.885758 1_445
Ba3 O2 3.026576 1_555
Ba3 O5 3.026576 1_445
Ba3 O1 3.026578 1_455
Ba3 O4 3.027010 1_544
Ba3 O0 3.027011 1_554
Ba3 O3 3.027011 1_444
O0 Rh3 2.000001 1_555
O0 Rh0 2.000158 1_555
O1 Rh1 1.999638 1_555
O1 Rh2 1.999720 1_555
O2 Rh1 1.999644 1_555
O2 Rh2 1.999720 1_555
O3 Rh3 2.000001 1_555
O3 Rh0 2.000158 1_555
O4 Rh3 1.999999 1_555
O4 Rh0 2.000156 1_555
O5 Rh1 1.999644 1_555
O5 Rh2 1.999721 1_555
O6 Rh1 1.994746 1_555
O6 Rh3 1.995013 1_545
O7 Rh0 1.994220 1_554
O7 Rh2 1.994415 1_555
O8 Rh0 1.994218 1_544
O8 Rh2 1.994410 1_555
O9 Rh1 1.994757 1_555
O9 Rh3 1.995019 1_555
O10 Rh1 1.994748 1_455
O10 Rh3 1.995013 1_555
O11 Rh0 1.994218 1_554
O11 Rh2 1.994411 1_455
