# generated using pymatgen
data_La5(Mo2O7)3
_symmetry_space_group_name_H-M   'P 1'
_cell_length_a   5.91046000
_cell_length_b   11.33710000
_cell_length_c   25.77772600
_cell_angle_alpha   90.00000000
_cell_angle_beta   90.00000000
_cell_angle_gamma   90.00000000
_symmetry_Int_Tables_number   1
_chemical_formula_structural   La5(Mo2O7)3
_chemical_formula_sum   'La20 Mo24 O84'
_cell_volume   1727.30035798
_cell_formula_units_Z   4
loop_
 _symmetry_equiv_pos_site_id
 _symmetry_equiv_pos_as_xyz
  1  'x, y, z'
loop_
 _atom_site_type_symbol
 _atom_site_label
 _atom_site_symmetry_multiplicity
 _atom_site_fract_x
 _atom_site_fract_y
 _atom_site_fract_z
 _atom_site_occupancy
  La  La0  1  0.25307800  0.47514000  0.96935200  1
  La  La1  1  0.25964300  0.06761300  0.81381800  1
  La  La2  1  0.75964300  0.43238700  0.18618200  1
  La  La3  1  0.77844900  0.68646100  0.05097000  1
  La  La4  1  0.27844900  0.81353900  0.94903000  1
  La  La5  1  0.22155100  0.18646100  0.44903000  1
  La  La6  1  0.75207100  0.27865800  0.89976500  1
  La  La7  1  0.25687700  0.43791300  0.81610000  1
  La  La8  1  0.24792900  0.77865800  0.60023500  1
  La  La9  1  0.24312300  0.56208700  0.31610000  1
  La  La10  1  0.24692200  0.52486000  0.46935200  1
  La  La11  1  0.24035700  0.93238700  0.31381800  1
  La  La12  1  0.74312300  0.93791300  0.68390000  1
  La  La13  1  0.25207100  0.22134200  0.10023500  1
  La  La14  1  0.75687700  0.06208700  0.18390000  1
  La  La15  1  0.74692200  0.97514000  0.53064800  1
  La  La16  1  0.72155100  0.31353900  0.55097000  1
  La  La17  1  0.74035700  0.56761300  0.68618200  1
  La  La18  1  0.75307800  0.02486000  0.03064800  1
  La  La19  1  0.74792900  0.72134200  0.39976500  1
  Mo  Mo0  1  0.50205700  0.25074800  0.68883100  1
  Mo  Mo1  1  0.73653700  0.80083800  0.27787000  1
  Mo  Mo2  1  0.74735700  0.97404500  0.89452400  1
  Mo  Mo3  1  0.49794300  0.75074800  0.81116900  1
  Mo  Mo4  1  0.26056600  0.92531300  0.08094500  1
  Mo  Mo5  1  0.26346300  0.30083800  0.22213000  1
  Mo  Mo6  1  0.24266700  0.83764400  0.46070700  1
  Mo  Mo7  1  0.74266700  0.66235600  0.53929300  1
  Mo  Mo8  1  0.23943400  0.07468700  0.58094500  1
  Mo  Mo9  1  0.00600700  0.75206700  0.81579500  1
  Mo  Mo10  1  0.23653700  0.69916200  0.72213000  1
  Mo  Mo11  1  0.99794300  0.74925200  0.18883100  1
  Mo  Mo12  1  0.24735700  0.52595500  0.10547600  1
  Mo  Mo13  1  0.25733300  0.16235600  0.96070700  1
  Mo  Mo14  1  0.73943400  0.42531300  0.41905500  1
  Mo  Mo15  1  0.25264300  0.47404500  0.60547600  1
  Mo  Mo16  1  0.49399300  0.24793300  0.31579500  1
  Mo  Mo17  1  0.76056600  0.57468700  0.91905500  1
  Mo  Mo18  1  0.99399300  0.25206700  0.68420500  1
  Mo  Mo19  1  0.50600700  0.74793300  0.18420500  1
  Mo  Mo20  1  0.75733300  0.33764400  0.03929300  1
  Mo  Mo21  1  0.00205700  0.24925200  0.31116900  1
  Mo  Mo22  1  0.75264300  0.02595500  0.39452400  1
  Mo  Mo23  1  0.76346300  0.19916200  0.77787000  1
  O  O0  1  0.47290100  0.02767800  0.11402700  1
  O  O1  1  0.25565600  0.67321800  0.85604800  1
  O  O2  1  0.51246500  0.33306000  0.45526400  1
  O  O3  1  0.74434400  0.17321800  0.64395200  1
  O  O4  1  0.45060900  0.41623900  0.05967900  1
  O  O5  1  0.16844500  0.60205000  0.04461500  1
  O  O6  1  0.31912400  0.71037500  0.42047800  1
  O  O7  1  0.48820300  0.39967200  0.26420500  1
  O  O8  1  0.23735300  0.85100100  0.77331200  1
  O  O9  1  0.75565600  0.82678200  0.14395200  1
  O  O10  1  0.02168000  0.88675600  0.87367100  1
  O  O11  1  0.80698600  0.45567900  0.98428400  1
  O  O12  1  0.25046200  0.32679300  0.72700300  1
  O  O13  1  0.48967300  0.60097200  0.76180900  1
  O  O14  1  0.28612800  0.43076900  0.16624700  1
  O  O15  1  0.98607300  0.54032400  0.39527800  1
  O  O16  1  0.24866300  0.82395100  0.14279400  1
  O  O17  1  0.94819800  0.41081400  0.09395300  1
  O  O18  1  0.97290100  0.47232200  0.88597300  1
  O  O19  1  0.49167600  0.73411200  0.32042500  1
  O  O20  1  0.48621900  0.88761500  0.86083700  1
  O  O21  1  0.52168000  0.61324400  0.12632900  1
  O  O22  1  0.94474000  0.75376600  0.48181700  1
  O  O23  1  0.51378100  0.38761500  0.63916300  1
  O  O24  1  0.98967300  0.89902800  0.23819100  1
  O  O25  1  0.55180200  0.58918600  0.59395300  1
  O  O26  1  0.75133700  0.32395100  0.35720600  1
  O  O27  1  0.00832400  0.26588800  0.82042500  1
  O  O28  1  0.74953800  0.82679300  0.77299700  1
  O  O29  1  0.01032700  0.39902800  0.26180900  1
  O  O30  1  0.18087600  0.28962500  0.92047800  1
  O  O31  1  0.74866300  0.67604900  0.85720600  1
  O  O32  1  0.66844500  0.89795000  0.95538500  1
  O  O33  1  0.99167600  0.76588800  0.67957500  1
  O  O34  1  0.48790400  0.76390400  0.67813800  1
  O  O35  1  0.98790400  0.73609600  0.32186200  1
  O  O36  1  0.69301400  0.54432100  0.48428400  1
  O  O37  1  0.76264700  0.35100100  0.72668800  1
  O  O38  1  0.05526000  0.25376600  0.01818300  1
  O  O39  1  0.52709900  0.52767800  0.38597300  1
  O  O40  1  0.48607300  0.95967600  0.60472200  1
  O  O41  1  0.30698600  0.04432100  0.01571600  1
  O  O42  1  0.81912400  0.78962500  0.57952200  1
  O  O43  1  0.26264700  0.14899900  0.27331200  1
  O  O44  1  0.51392700  0.45967600  0.89527800  1
  O  O45  1  0.71387200  0.93076900  0.33375300  1
  O  O46  1  0.44474000  0.74623400  0.51818300  1
  O  O47  1  0.44819800  0.08918600  0.90604700  1
  O  O48  1  0.98188600  0.35508500  0.46438100  1
  O  O49  1  0.98753500  0.66694000  0.95526400  1
  O  O50  1  0.51032700  0.10097200  0.73819100  1
  O  O51  1  0.95060900  0.08376100  0.94032100  1
  O  O52  1  0.48188600  0.14491500  0.53561900  1
  O  O53  1  0.24953800  0.67320700  0.22700300  1
  O  O54  1  0.54939100  0.91623900  0.44032100  1
  O  O55  1  0.05180200  0.91081400  0.40604700  1
  O  O56  1  0.01392700  0.04032400  0.10472200  1
  O  O57  1  0.97832000  0.38675600  0.62632900  1
  O  O58  1  0.02709900  0.97232200  0.61402700  1
  O  O59  1  0.75046200  0.17320700  0.27299700  1
  O  O60  1  0.83155500  0.10205000  0.45538500  1
  O  O61  1  0.98820300  0.10032800  0.73579500  1
  O  O62  1  0.78612800  0.06923100  0.83375300  1
  O  O63  1  0.01811400  0.85508500  0.03561900  1
  O  O64  1  0.47832000  0.11324400  0.37367100  1
  O  O65  1  0.01209600  0.23609600  0.17813800  1
  O  O66  1  0.73735300  0.64899900  0.22668800  1
  O  O67  1  0.04939100  0.58376100  0.55967900  1
  O  O68  1  0.24434400  0.32678200  0.35604800  1
  O  O69  1  0.55526000  0.24623400  0.98181700  1
  O  O70  1  0.01246500  0.16694000  0.54473600  1
  O  O71  1  0.51179700  0.89967200  0.23579500  1
  O  O72  1  0.01179700  0.60032800  0.76420500  1
  O  O73  1  0.01378100  0.11238500  0.36083700  1
  O  O74  1  0.98621900  0.61238500  0.13916300  1
  O  O75  1  0.51209600  0.26390400  0.82186200  1
  O  O76  1  0.33155500  0.39795000  0.54461500  1
  O  O77  1  0.50832400  0.23411200  0.17957500  1
  O  O78  1  0.21387200  0.56923100  0.66624700  1
  O  O79  1  0.25133700  0.17604900  0.64279400  1
  O  O80  1  0.51811400  0.64491500  0.96438100  1
  O  O81  1  0.68087600  0.21037500  0.07952200  1
  O  O82  1  0.19301400  0.95567900  0.51571600  1
  O  O83  1  0.48753500  0.83306000  0.04473600  1
loop_
_geom_bond_atom_site_label_1
_geom_bond_atom_site_label_2
_geom_bond_distance
_geom_bond_site_symmetry_2
La0 O44 2.460432 1_555
La0 O5 2.466650 1_556
La0 O80 2.484951 1_555
La0 O30 2.488538 1_555
La0 O11 2.673676 1_455
La0 O4 2.688964 1_556
La0 O49 2.706180 1_455
La0 O18 2.713458 1_455
La1 O50 2.477672 1_555
La1 O61 2.599346 1_455
La1 O47 2.637062 1_555
La1 O8 2.671765 1_545
La1 O75 2.687317 1_555
La1 O27 2.699693 1_555
La1 O20 2.725196 1_545
La1 O62 2.845537 1_455
La1 O10 2.926215 1_545
La1 O62 3.153968 1_555
La2 O29 2.477672 1_655
La2 O7 2.599346 1_555
La2 O17 2.637062 1_555
La2 O66 2.671765 1_555
La2 O65 2.687317 1_655
La2 O77 2.699693 1_555
La2 O74 2.725196 1_555
La2 O14 2.845537 1_555
La2 O21 2.926215 1_555
La2 O14 3.153968 1_655
La3 O83 2.396779 1_555
La3 O63 2.412006 1_655
La3 O5 2.501184 1_655
La3 O21 2.601120 1_555
La3 O74 2.716931 1_555
La3 O80 2.751649 1_554
La3 O49 2.768152 1_554
La3 O9 2.879906 1_555
La3 O11 3.135123 1_554
La4 O49 2.396779 1_455
La4 O80 2.412006 1_555
La4 O32 2.501184 1_555
La4 O10 2.601120 1_555
La4 O20 2.716931 1_555
La4 O63 2.751649 1_556
La4 O83 2.768152 1_556
La4 O1 2.879906 1_555
La4 O41 3.135123 1_566
La5 O2 2.396779 1_555
La5 O48 2.412006 1_455
La5 O60 2.501184 1_455
La5 O64 2.601120 1_555
La5 O73 2.716931 1_555
La5 O52 2.751649 1_555
La5 O70 2.768152 1_555
La5 O68 2.879906 1_555
La5 O82 3.135123 1_545
La6 O69 2.441714 1_555
La6 O75 2.464233 1_555
La6 O44 2.491215 1_555
La6 O27 2.549069 1_655
La6 O18 2.578870 1_555
La6 O30 2.593049 1_655
La6 O51 2.711479 1_555
La6 O47 2.804660 1_555
La6 O62 2.928032 1_555
La6 O11 2.979896 1_555
La7 O27 2.444199 1_555
La7 O75 2.487828 1_555
La7 O18 2.492690 1_455
La7 O44 2.556344 1_555
La7 O12 2.619808 1_555
La7 O13 2.696139 1_555
La7 O72 2.697820 1_555
La7 O1 2.859541 1_555
La8 O46 2.441714 1_555
La8 O34 2.464233 1_555
La8 O40 2.491215 1_555
La8 O33 2.549069 1_455
La8 O58 2.578870 1_555
La8 O42 2.593049 1_455
La8 O67 2.711479 1_555
La8 O25 2.804660 1_555
La8 O78 2.928032 1_555
La8 O82 2.979896 1_555
La9 O19 2.444199 1_555
La9 O35 2.487828 1_455
La9 O39 2.492690 1_555
La9 O15 2.556344 1_455
La9 O53 2.619808 1_555
La9 O29 2.696139 1_555
La9 O7 2.697820 1_555
La9 O68 2.859541 1_555
La10 O15 2.460432 1_455
La10 O76 2.466650 1_555
La10 O48 2.484951 1_455
La10 O6 2.488538 1_555
La10 O36 2.673676 1_555
La10 O67 2.688964 1_555
La10 O2 2.706180 1_555
La10 O39 2.713458 1_555
La11 O24 2.477672 1_455
La11 O71 2.599346 1_555
La11 O55 2.637062 1_555
La11 O43 2.671765 1_565
La11 O35 2.687317 1_455
La11 O19 2.699693 1_555
La11 O73 2.725196 1_565
La11 O45 2.845537 1_555
La11 O64 2.926215 1_565
La11 O45 3.153968 1_455
La12 O33 2.444199 1_555
La12 O34 2.487828 1_555
La12 O58 2.492690 1_655
La12 O40 2.556344 1_555
La12 O28 2.619808 1_555
La12 O50 2.696139 1_565
La12 O61 2.697820 1_565
La12 O3 2.859541 1_565
La13 O38 2.441714 1_555
La13 O65 2.464233 1_555
La13 O56 2.491215 1_555
La13 O77 2.549069 1_555
La13 O0 2.578870 1_555
La13 O81 2.593049 1_555
La13 O4 2.711479 1_555
La13 O17 2.804660 1_455
La13 O14 2.928032 1_555
La13 O41 2.979896 1_555
La14 O77 2.444199 1_555
La14 O65 2.487828 1_655
La14 O0 2.492690 1_555
La14 O56 2.556344 1_655
La14 O59 2.619808 1_555
La14 O24 2.696139 1_545
La14 O71 2.697820 1_545
La14 O9 2.859541 1_545
La15 O40 2.460432 1_555
La15 O60 2.466650 1_565
La15 O52 2.484951 1_565
La15 O42 2.488538 1_555
La15 O82 2.673676 1_655
La15 O54 2.688964 1_555
La15 O70 2.706180 1_665
La15 O58 2.713458 1_655
La16 O70 2.396779 1_655
La16 O52 2.412006 1_555
La16 O76 2.501184 1_555
La16 O57 2.601120 1_555
La16 O23 2.716931 1_555
La16 O48 2.751649 1_555
La16 O2 2.768152 1_555
La16 O3 2.879906 1_555
La16 O36 3.135123 1_555
La17 O13 2.477672 1_555
La17 O72 2.599346 1_655
La17 O25 2.637062 1_555
La17 O37 2.671765 1_555
La17 O34 2.687317 1_555
La17 O33 2.699693 1_555
La17 O23 2.725196 1_555
La17 O78 2.845537 1_655
La17 O57 2.926215 1_555
La17 O78 3.153968 1_555
La18 O56 2.460432 1_655
La18 O32 2.466650 1_544
La18 O63 2.484951 1_645
La18 O81 2.488538 1_555
La18 O41 2.673676 1_555
La18 O51 2.688964 1_554
La18 O83 2.706180 1_545
La18 O0 2.713458 1_555
La19 O22 2.441714 1_555
La19 O35 2.464233 1_555
La19 O15 2.491215 1_555
La19 O19 2.549069 1_555
La19 O39 2.578870 1_555
La19 O6 2.593049 1_555
La19 O54 2.711479 1_555
La19 O55 2.804660 1_655
La19 O45 2.928032 1_555
La19 O36 2.979896 1_555
Mo0 O12 1.980604 1_555
Mo0 O23 2.012893 1_555
Mo0 O3 2.040013 1_555
Mo0 O79 2.078811 1_555
Mo0 O50 2.122417 1_555
Mo0 O37 2.148573 1_555
Mo1 O19 1.967260 1_555
Mo1 O35 2.007987 1_555
Mo1 O71 2.048482 1_555
Mo1 O45 2.064689 1_555
Mo1 O24 2.126934 1_555
Mo1 O66 2.168868 1_555
Mo2 O32 1.850161 1_555
Mo2 O62 1.916007 1_565
Mo2 O10 1.974114 1_655
Mo2 O20 2.023965 1_555
Mo2 O51 2.093806 1_565
Mo2 O47 2.217797 1_565
Mo3 O28 1.980604 1_555
Mo3 O20 2.012893 1_555
Mo3 O1 2.040013 1_555
Mo3 O31 2.078811 1_555
Mo3 O13 2.122417 1_555
Mo3 O8 2.148573 1_555
Mo4 O0 1.910252 1_565
Mo4 O83 1.940277 1_555
Mo4 O16 1.966564 1_555
Mo4 O63 2.013098 1_555
Mo4 O56 2.049594 1_565
Mo4 O41 2.173229 1_565
Mo5 O77 1.967260 1_555
Mo5 O65 2.007987 1_555
Mo5 O7 2.048482 1_555
Mo5 O14 2.064689 1_555
Mo5 O29 2.126934 1_555
Mo5 O43 2.168868 1_555
Mo6 O6 1.833427 1_555
Mo6 O82 1.971695 1_555
Mo6 O55 1.986467 1_555
Mo6 O22 2.073912 1_455
Mo6 O54 2.087257 1_555
Mo6 O46 2.166926 1_555
Mo7 O42 1.833427 1_555
Mo7 O36 1.971695 1_555
Mo7 O25 1.986467 1_555
Mo7 O46 2.073912 1_555
Mo7 O67 2.087257 1_655
Mo7 O22 2.166926 1_555
Mo8 O58 1.910252 1_545
Mo8 O70 1.940277 1_555
Mo8 O79 1.966564 1_555
Mo8 O52 2.013098 1_555
Mo8 O40 2.049594 1_545
Mo8 O82 2.173229 1_545
Mo9 O1 2.013204 1_555
Mo9 O31 2.048356 1_455
Mo9 O28 2.057337 1_455
Mo9 O8 2.080143 1_555
Mo9 O10 2.136834 1_555
Mo9 O72 2.174649 1_555
Mo10 O33 1.967260 1_455
Mo10 O34 2.007987 1_555
Mo10 O72 2.048482 1_555
Mo10 O78 2.064689 1_555
Mo10 O13 2.126934 1_555
Mo10 O8 2.168868 1_555
Mo11 O53 1.980604 1_655
Mo11 O74 2.012893 1_555
Mo11 O9 2.040013 1_555
Mo11 O16 2.078811 1_655
Mo11 O24 2.122417 1_555
Mo11 O66 2.148573 1_555
Mo12 O5 1.850161 1_555
Mo12 O14 1.916007 1_555
Mo12 O21 1.974114 1_555
Mo12 O74 2.023965 1_455
Mo12 O4 2.093806 1_555
Mo12 O17 2.217797 1_455
Mo13 O30 1.833427 1_555
Mo13 O41 1.971695 1_556
Mo13 O47 1.986467 1_555
Mo13 O69 2.073912 1_555
Mo13 O51 2.087257 1_455
Mo13 O38 2.166926 1_556
Mo14 O39 1.910252 1_555
Mo14 O2 1.940277 1_555
Mo14 O26 1.966564 1_555
Mo14 O48 2.013098 1_555
Mo14 O15 2.049594 1_555
Mo14 O36 2.173229 1_555
Mo15 O76 1.850161 1_555
Mo15 O78 1.916007 1_555
Mo15 O57 1.974114 1_455
Mo15 O23 2.023965 1_555
Mo15 O67 2.093806 1_555
Mo15 O25 2.217797 1_555
Mo16 O68 2.013204 1_555
Mo16 O26 2.048356 1_555
Mo16 O59 2.057337 1_555
Mo16 O43 2.080143 1_555
Mo16 O64 2.136834 1_555
Mo16 O7 2.174649 1_555
Mo17 O18 1.910252 1_555
Mo17 O49 1.940277 1_555
Mo17 O31 1.966564 1_555
Mo17 O80 2.013098 1_555
Mo17 O44 2.049594 1_555
Mo17 O11 2.173229 1_555
Mo18 O3 2.013204 1_555
Mo18 O79 2.048356 1_655
Mo18 O12 2.057337 1_655
Mo18 O37 2.080143 1_555
Mo18 O57 2.136834 1_555
Mo18 O61 2.174649 1_555
Mo19 O9 2.013204 1_555
Mo19 O16 2.048356 1_555
Mo19 O53 2.057337 1_555
Mo19 O66 2.080143 1_555
Mo19 O21 2.136834 1_555
Mo19 O71 2.174649 1_555
Mo20 O81 1.833427 1_555
Mo20 O11 1.971695 1_554
Mo20 O17 1.986467 1_555
Mo20 O38 2.073912 1_655
Mo20 O4 2.087257 1_555
Mo20 O69 2.166926 1_554
Mo21 O59 1.980604 1_455
Mo21 O73 2.012893 1_555
Mo21 O68 2.040013 1_555
Mo21 O26 2.078811 1_455
Mo21 O29 2.122417 1_555
Mo21 O43 2.148573 1_555
Mo22 O60 1.850161 1_555
Mo22 O45 1.916007 1_545
Mo22 O64 1.974114 1_555
Mo22 O73 2.023965 1_655
Mo22 O54 2.093806 1_545
Mo22 O55 2.217797 1_645
Mo23 O27 1.967260 1_655
Mo23 O75 2.007987 1_555
Mo23 O61 2.048482 1_555
Mo23 O62 2.064689 1_555
Mo23 O50 2.126934 1_555
Mo23 O37 2.168868 1_555
