# generated using pymatgen
data_Li2SbP(OF3)2
_symmetry_space_group_name_H-M   'P 1'
_cell_length_a   6.08697400
_cell_length_b   7.87126346
_cell_length_c   8.17248677
_cell_angle_alpha   88.15737459
_cell_angle_beta   85.61715143
_cell_angle_gamma   77.78729571
_symmetry_Int_Tables_number   1
_chemical_formula_structural   Li2SbP(OF3)2
_chemical_formula_sum   'Li4 Sb2 P2 O4 F12'
_cell_volume   381.52969990
_cell_formula_units_Z   2
loop_
 _symmetry_equiv_pos_site_id
 _symmetry_equiv_pos_as_xyz
  1  'x, y, z'
loop_
 _atom_site_type_symbol
 _atom_site_label
 _atom_site_symmetry_multiplicity
 _atom_site_fract_x
 _atom_site_fract_y
 _atom_site_fract_z
 _atom_site_occupancy
  Li  Li0  1  0.92724300  0.38597600  0.95580100  1
  Li  Li1  1  0.70722200  0.06414800  0.41887500  1
  Li  Li2  1  0.30051400  0.91477800  0.59008000  1
  Li  Li3  1  0.10257800  0.64743600  0.41458600  1
  Sb  Sb0  1  0.58762600  0.74005200  0.21424700  1
  Sb  Sb1  1  0.43001700  0.24121100  0.76808000  1
  P  P0  1  0.75710100  0.81263700  0.79104900  1
  P  P1  1  0.22335400  0.19669400  0.23132100  1
  O  O0  1  0.73694500  0.83322500  0.97307200  1
  O  O1  1  0.58535400  0.91699900  0.68624000  1
  O  O2  1  0.43262200  0.07544600  0.28028300  1
  O  O3  1  0.17261000  0.22697600  0.05595500  1
  F  F0  1  0.86455900  0.82553300  0.39243600  1
  F  F1  1  0.78569400  0.61634200  0.74780500  1
  F  F2  1  0.01064700  0.14273100  0.32608200  1
  F  F3  1  0.76459300  0.49693500  0.15244300  1
  F  F4  1  0.72629400  0.29443800  0.85886000  1
  F  F5  1  0.58990100  0.27172000  0.54698000  1
  F  F6  1  0.35644900  0.72531700  0.44495100  1
  F  F7  1  0.32478000  0.70538300  0.10113900  1
  F  F8  1  0.22410900  0.47642600  0.76279100  1
  F  F9  1  0.99713600  0.84441000  0.72738200  1
  F  F10  1  0.20601900  0.37969400  0.31494000  1
  F  F11  1  0.20032700  0.15015000  0.62231900  1
loop_
_geom_bond_atom_site_label_1
_geom_bond_atom_site_label_2
_geom_bond_distance
_geom_bond_site_symmetry_2
Li0 O3 1.948612 1_656
Li1 O2 2.074761 1_555
Li2 O1 1.961112 1_555
O0 P0 1.494458 1_555
O0 Sb0 2.272455 1_556
O1 P0 1.493205 1_555
O2 P1 1.494169 1_555
O2 Sb0 2.666625 1_545
O3 P1 1.490220 1_555
F0 Li3 1.805959 1_655
F0 Li1 1.930019 1_565
F0 Sb0 2.516539 1_555
F1 P0 1.566663 1_555
F2 P1 1.585809 1_555
F2 Li1 2.146621 1_455
F3 Li0 1.951119 1_554
F3 Sb0 2.045568 1_555
F4 Li0 1.789035 1_555
F4 Sb1 2.126607 1_555
F5 Li1 1.943610 1_555
F5 Sb1 2.017926 1_555
F6 Li3 1.815085 1_555
F6 Li2 1.893105 1_555
F6 Sb0 2.279887 1_555
F7 Sb0 1.978817 1_555
F8 Sb1 2.005483 1_555
F8 Li0 2.509327 1_455
F9 P0 1.580534 1_555
F9 Li2 2.247686 1_655
F10 P1 1.594046 1_555
F10 Li3 2.229716 1_555
F11 Li2 1.844599 1_545
F11 Sb1 2.149641 1_555
