# generated using pymatgen
data_Fe5(O4F)2
_symmetry_space_group_name_H-M   'P 1'
_cell_length_a   4.65671400
_cell_length_b   4.65672823
_cell_length_c   15.06924948
_cell_angle_alpha   89.60087442
_cell_angle_beta   89.59687589
_cell_angle_gamma   88.39399931
_symmetry_Int_Tables_number   1
_chemical_formula_structural   Fe5(O4F)2
_chemical_formula_sum   'Fe10 O16 F4'
_cell_volume   326.63351463
_cell_formula_units_Z   2
loop_
 _symmetry_equiv_pos_site_id
 _symmetry_equiv_pos_as_xyz
  1  'x, y, z'
loop_
 _atom_site_type_symbol
 _atom_site_label
 _atom_site_symmetry_multiplicity
 _atom_site_fract_x
 _atom_site_fract_y
 _atom_site_fract_z
 _atom_site_occupancy
  Fe  Fe0  1  0.99655200  0.99859200  0.00217100  1
  Fe  Fe1  1  0.00227400  0.00860600  0.20573100  1
  Fe  Fe2  1  0.01880200  0.97927200  0.40002700  1
  Fe  Fe3  1  0.98970100  0.99577400  0.59467400  1
  Fe  Fe4  1  0.98689300  0.98858800  0.79712600  1
  Fe  Fe5  1  0.47191300  0.47551000  0.09967300  1
  Fe  Fe6  1  0.48992500  0.50187300  0.50384200  1
  Fe  Fe7  1  0.49635100  0.50865000  0.29651400  1
  Fe  Fe8  1  0.51842600  0.52140200  0.70043600  1
  Fe  Fe9  1  0.52220000  0.52299300  0.90007700  1
  O  O0  1  0.81234000  0.80724100  0.30271700  1
  O  O1  1  0.80910100  0.80078500  0.49517900  1
  O  O2  1  0.81323300  0.81828600  0.69557600  1
  O  O3  1  0.81702500  0.81835200  0.90202800  1
  O  O4  1  0.30004600  0.69260100  0.00083600  1
  O  O5  1  0.29625400  0.68990700  0.19693100  1
  O  O6  1  0.31922200  0.67964600  0.40006900  1
  O  O7  1  0.30589800  0.69799800  0.60388500  1
  O  O8  1  0.31302000  0.70286900  0.79841100  1
  O  O9  1  0.69064000  0.30298300  0.00106900  1
  O  O10  1  0.68457800  0.30481200  0.19919200  1
  O  O11  1  0.69113000  0.31099600  0.60167400  1
  O  O12  1  0.70057800  0.31510100  0.79803700  1
  O  O13  1  0.17528400  0.18036100  0.10117900  1
  O  O14  1  0.19029700  0.18467200  0.49820300  1
  O  O15  1  0.19729700  0.18941400  0.30519900  1
  F  F0  1  0.79121000  0.79772300  0.10280600  1
  F  F1  1  0.69996400  0.29902500  0.40028000  1
  F  F2  1  0.20218500  0.20289000  0.89785300  1
  F  F3  1  0.19766300  0.20307800  0.69860400  1
loop_
_geom_bond_atom_site_label_1
_geom_bond_atom_site_label_2
_geom_bond_distance
_geom_bond_site_symmetry_2
Fe0 O13 1.926073 1_665
Fe0 O3 1.937893 1_554
Fe0 O4 1.978708 1_655
Fe0 O9 1.981321 1_565
Fe1 O13 1.942101 1_555
Fe1 O0 1.951096 1_445
Fe1 O15 1.964691 1_555
Fe1 O5 1.995128 1_545
Fe1 O10 1.996691 1_455
Fe2 O15 1.923513 1_565
Fe2 O1 1.926030 1_455
Fe2 O6 1.947948 1_555
Fe2 O0 1.948279 1_455
Fe2 O14 1.954620 1_565
Fe3 O2 1.916603 1_555
Fe3 O14 1.941356 1_665
Fe3 O1 1.964492 1_555
Fe3 O11 1.996162 1_565
Fe3 O7 1.998980 1_655
Fe4 O2 1.922221 1_555
Fe4 O3 1.937310 1_555
Fe4 O8 1.990937 1_655
Fe4 O12 1.994019 1_565
Fe5 O5 1.942069 1_555
Fe5 O10 1.954939 1_555
Fe5 O4 1.957365 1_555
Fe5 O9 1.959654 1_555
Fe5 O13 1.975638 1_555
Fe6 O6 1.930076 1_555
Fe6 O11 1.948303 1_555
Fe6 O7 1.948951 1_555
Fe6 O14 2.062730 1_555
Fe6 O1 2.067462 1_555
Fe7 O6 1.926644 1_555
Fe7 O10 1.942884 1_555
Fe7 O5 1.946934 1_555
Fe7 O0 2.055666 1_555
Fe7 O15 2.068144 1_555
Fe8 O7 1.931477 1_555
Fe8 O12 1.938500 1_555
Fe8 O8 1.939332 1_555
Fe8 O11 1.944494 1_555
Fe8 O2 1.976087 1_555
Fe9 O3 1.970909 1_555
Fe9 O9 1.982683 1_556
Fe9 O4 1.987020 1_556
Fe9 O12 1.987287 1_555
Fe9 O8 1.988715 1_555
F0 Fe0 2.024607 1_555
F0 Fe1 2.105416 1_665
F0 Fe5 2.142762 1_555
F1 Fe6 2.057109 1_555
F1 Fe7 2.060272 1_555
F1 Fe2 2.073082 1_645
F2 Fe0 2.074186 1_446
F2 Fe4 2.098468 1_445
F2 Fe9 2.137703 1_555
F3 Fe4 2.044250 1_445
F3 Fe3 2.101756 1_445
F3 Fe8 2.134133 1_555
