# generated using pymatgen
data_V2P2H6PbO14
_symmetry_space_group_name_H-M   'P 1'
_cell_length_a   6.32151644
_cell_length_b   6.32151644
_cell_length_c   14.00075707
_cell_angle_alpha   81.48961061
_cell_angle_beta   81.48961061
_cell_angle_gamma   89.77469990
_symmetry_Int_Tables_number   1
_chemical_formula_structural   V2P2H6PbO14
_chemical_formula_sum   'V4 P4 H12 Pb2 O28'
_cell_volume   547.14662992
_cell_formula_units_Z   2
loop_
 _symmetry_equiv_pos_site_id
 _symmetry_equiv_pos_as_xyz
  1  'x, y, z'
loop_
 _atom_site_type_symbol
 _atom_site_label
 _atom_site_symmetry_multiplicity
 _atom_site_fract_x
 _atom_site_fract_y
 _atom_site_fract_z
 _atom_site_occupancy
  V  V0  1  0.25796500  0.04925500  0.46800100  1
  V  V1  1  0.04925500  0.25796500  0.96800100  1
  V  V2  1  0.73028100  0.50730000  0.56933300  1
  V  V3  1  0.50730000  0.73028100  0.06933300  1
  P  P0  1  0.74146100  0.02427500  0.52144400  1
  P  P1  1  0.02427500  0.74146100  0.02144400  1
  P  P2  1  0.24074600  0.52460000  0.52459100  1
  P  P3  1  0.52460000  0.24074600  0.02459100  1
  H  H0  1  0.28017500  0.08607000  0.25776300  1
  H  H1  1  0.08607000  0.28017500  0.75776300  1
  H  H2  1  0.81013000  0.40808600  0.78284000  1
  H  H3  1  0.40808600  0.81013000  0.28284000  1
  H  H4  1  0.60412200  0.54564500  0.78136400  1
  H  H5  1  0.54564500  0.60412200  0.28136400  1
  H  H6  1  0.90274000  0.98309400  0.71405100  1
  H  H7  1  0.98309400  0.90274000  0.21405100  1
  H  H8  1  0.21790600  0.56550000  0.78671800  1
  H  H9  1  0.56550000  0.21790600  0.28671800  1
  H  H10  1  0.11445700  0.78817400  0.78601700  1
  H  H11  1  0.78817400  0.11445700  0.28601700  1
  Pb  Pb0  1  0.49618300  0.04138400  0.77756500  1
  Pb  Pb1  1  0.04138400  0.49618300  0.27756500  1
  O  O0  1  0.21056700  0.03017400  0.58675400  1
  O  O1  1  0.03017400  0.21056700  0.08675400  1
  O  O2  1  0.56387000  0.04326000  0.45740200  1
  O  O3  1  0.04326000  0.56387000  0.95740200  1
  O  O4  1  0.95480200  0.06265400  0.45271800  1
  O  O5  1  0.06265400  0.95480200  0.95271800  1
  O  O6  1  0.26428800  0.36626600  0.44916700  1
  O  O7  1  0.36626600  0.26428800  0.94916700  1
  O  O8  1  0.25157400  0.74589300  0.46106300  1
  O  O9  1  0.74589300  0.25157400  0.96106300  1
  O  O10  1  0.77525100  0.53136200  0.45221600  1
  O  O11  1  0.53136200  0.77525100  0.95221600  1
  O  O12  1  0.72570600  0.80047100  0.58659200  1
  O  O13  1  0.80047100  0.72570600  0.08659200  1
  O  O14  1  0.02302100  0.48723800  0.59408000  1
  O  O15  1  0.48723800  0.02302100  0.09408000  1
  O  O16  1  0.42035800  0.49650300  0.58997000  1
  O  O17  1  0.49650300  0.42035800  0.08997000  1
  O  O18  1  0.71059200  0.18898200  0.59559700  1
  O  O19  1  0.18898200  0.71059200  0.09559700  1
  O  O20  1  0.33564300  0.09844500  0.31758100  1
  O  O21  1  0.09844500  0.33564300  0.81758100  1
  O  O22  1  0.68311100  0.43688300  0.74858900  1
  O  O23  1  0.43688300  0.68311100  0.24858900  1
  O  O24  1  0.82662100  0.92393500  0.77827100  1
  O  O25  1  0.92393500  0.82662100  0.27827100  1
  O  O26  1  0.25629200  0.72430500  0.76968400  1
  O  O27  1  0.72430500  0.25629200  0.26968400  1
loop_
_geom_bond_atom_site_label_1
_geom_bond_atom_site_label_2
_geom_bond_distance
_geom_bond_site_symmetry_2
H0 O20 0.967985 1_555
H1 O21 0.967985 1_555
H2 O22 0.997401 1_555
H3 O23 0.997401 1_555
H4 O22 0.977482 1_555
H5 O23 0.977482 1_555
H6 O24 0.976560 1_555
H7 O25 0.976560 1_555
H8 O26 1.018566 1_555
H8 O21 1.610763 1_555
H9 O27 1.018566 1_555
H9 O20 1.610763 1_555
H10 O26 0.991470 1_555
H11 O27 0.991470 1_555
O0 V0 1.631610 1_555
O1 V1 1.631610 1_554
O2 P0 1.530919 1_555
O2 V0 1.918106 1_555
O3 P1 1.530919 1_556
O3 V1 1.918106 1_555
O4 P0 1.533930 1_555
O4 V0 1.959712 1_655
O5 P1 1.533930 1_556
O5 V1 1.959712 1_565
O6 P2 1.550562 1_555
O6 V0 1.981972 1_555
O7 P3 1.550562 1_556
O7 V1 1.981972 1_555
O8 P2 1.538569 1_555
O8 V0 1.935349 1_565
O9 P3 1.538569 1_556
O9 V1 1.935349 1_655
O10 V2 1.606613 1_555
O10 Pb1 2.792749 1_655
O11 V3 1.606613 1_556
O11 Pb0 2.792749 1_565
O12 P0 1.560694 1_565
O12 V2 1.903667 1_555
O13 P1 1.560694 1_655
O13 V3 1.903667 1_555
O14 P2 1.560409 1_555
O14 V2 1.932777 1_455
O15 P3 1.560409 1_555
O15 V3 1.932777 1_545
O16 P2 1.554512 1_555
O16 V2 1.937578 1_555
O17 P3 1.554512 1_555
O17 V3 1.937578 1_555
O18 P0 1.567932 1_555
O18 V2 1.992306 1_555
O18 Pb0 2.735454 1_555
O19 P1 1.567932 1_555
O19 V3 1.992306 1_555
O19 Pb1 2.735454 1_555
O20 V0 2.067443 1_555
O21 V1 2.067443 1_555
O22 V2 2.456551 1_555
O22 Pb0 2.718976 1_555
O23 V3 2.456551 1_555
O23 Pb1 2.718976 1_555
O24 Pb0 2.215052 1_565
O25 Pb1 2.215052 1_655
O26 Pb0 2.543317 1_565
O27 Pb1 2.543317 1_655
