# generated using pymatgen
data_TiO2
_symmetry_space_group_name_H-M   'P 1'
_cell_length_a   8.88288353
_cell_length_b   10.66477464
_cell_length_c   2.96844593
_cell_angle_alpha   90.00000000
_cell_angle_beta   90.00000000
_cell_angle_gamma   90.00000000
_symmetry_Int_Tables_number   1
_chemical_formula_structural   TiO2
_chemical_formula_sum   'Ti8 O16'
_cell_volume   281.21261128
_cell_formula_units_Z   8
loop_
 _symmetry_equiv_pos_site_id
 _symmetry_equiv_pos_as_xyz
  1  'x, y, z'
loop_
 _atom_site_type_symbol
 _atom_site_label
 _atom_site_symmetry_multiplicity
 _atom_site_fract_x
 _atom_site_fract_y
 _atom_site_fract_z
 _atom_site_occupancy
  Ti  Ti0  1  0.05050738  0.11804352  0.75000000  1
  Ti  Ti1  1  0.08898848  0.60047322  0.75000000  1
  Ti  Ti2  1  0.41101152  0.10047322  0.25000000  1
  Ti  Ti3  1  0.44949262  0.61804352  0.25000000  1
  Ti  Ti4  1  0.55050738  0.38195648  0.75000000  1
  Ti  Ti5  1  0.58898848  0.89952678  0.75000000  1
  Ti  Ti6  1  0.91101152  0.39952678  0.25000000  1
  Ti  Ti7  1  0.94949262  0.88195648  0.25000000  1
  O  O0  1  0.02741851  0.71509908  0.25000000  1
  O  O1  1  0.07552784  0.92809814  0.75000000  1
  O  O2  1  0.11311660  0.48689263  0.25000000  1
  O  O3  1  0.20049736  0.14035694  0.25000000  1
  O  O4  1  0.29950264  0.64035694  0.75000000  1
  O  O5  1  0.38688340  0.98689263  0.75000000  1
  O  O6  1  0.42447216  0.42809814  0.25000000  1
  O  O7  1  0.47258249  0.21509908  0.75000000  1
  O  O8  1  0.52741851  0.78490092  0.25000000  1
  O  O9  1  0.57552784  0.57190186  0.75000000  1
  O  O10  1  0.61311660  0.01310737  0.25000000  1
  O  O11  1  0.70049736  0.35964306  0.25000000  1
  O  O12  1  0.79950264  0.85964306  0.75000000  1
  O  O13  1  0.88688340  0.51310737  0.75000000  1
  O  O14  1  0.92447216  0.07190186  0.25000000  1
  O  O15  1  0.97258149  0.28490092  0.75000000  1
loop_
_geom_bond_atom_site_label_1
_geom_bond_atom_site_label_2
_geom_bond_distance
_geom_bond_site_symmetry_2
O0 Ti7 1.909387 1_455
O0 Ti1 1.999111 1_555
O0 Ti1 1.999111 1_554
O1 Ti7 1.923142 1_456
O1 Ti7 1.923142 1_455
O1 Ti0 2.037881 1_565
O2 Ti1 1.927726 1_554
O2 Ti1 1.927726 1_555
O2 Ti6 2.022659 1_455
O3 Ti2 1.917739 1_555
O3 Ti0 2.008653 1_554
O3 Ti0 2.008653 1_555
O4 Ti1 1.917739 1_555
O4 Ti3 2.008653 1_556
O4 Ti3 2.008653 1_555
O5 Ti2 1.927726 1_566
O5 Ti2 1.927726 1_565
O5 Ti5 2.022659 1_555
O6 Ti4 1.923142 1_555
O6 Ti4 1.923142 1_554
O6 Ti3 2.037881 1_555
O7 Ti4 1.909384 1_555
O7 Ti2 1.999113 1_556
O7 Ti2 1.999113 1_555
O8 Ti3 1.909387 1_555
O8 Ti5 1.999111 1_554
O8 Ti5 1.999111 1_555
O9 Ti3 1.923142 1_556
O9 Ti3 1.923142 1_555
O9 Ti4 2.037881 1_555
O10 Ti5 1.927726 1_544
O10 Ti5 1.927726 1_545
O10 Ti2 2.022659 1_555
O11 Ti6 1.917739 1_555
O11 Ti4 2.008653 1_555
O11 Ti4 2.008653 1_554
O12 Ti5 1.917739 1_555
O12 Ti7 2.008653 1_555
O12 Ti7 2.008653 1_556
O13 Ti6 1.927726 1_555
O13 Ti6 1.927726 1_556
O13 Ti1 2.022659 1_655
O14 Ti0 1.923142 1_655
O14 Ti0 1.923142 1_654
O14 Ti7 2.037881 1_545
O15 Ti0 1.909387 1_655
O15 Ti6 1.999111 1_556
O15 Ti6 1.999111 1_555
