# generated using pymatgen
data_VBi(PbO3)2
_symmetry_space_group_name_H-M   'P 1'
_cell_length_a   5.83773700
_cell_length_b   7.88814200
_cell_length_c   30.49561572
_cell_angle_alpha   79.98423943
_cell_angle_beta   90.00000000
_cell_angle_gamma   90.00000000
_symmetry_Int_Tables_number   1
_chemical_formula_structural   VBi(PbO3)2
_chemical_formula_sum   'V8 Bi8 Pb16 O48'
_cell_volume   1382.88806749
_cell_formula_units_Z   8
loop_
 _symmetry_equiv_pos_site_id
 _symmetry_equiv_pos_as_xyz
  1  'x, y, z'
loop_
 _atom_site_type_symbol
 _atom_site_label
 _atom_site_symmetry_multiplicity
 _atom_site_fract_x
 _atom_site_fract_y
 _atom_site_fract_z
 _atom_site_occupancy
  V  V0  1  0.50326400  0.48400200  0.35756000  1
  V  V1  1  0.02739100  0.16994300  0.00226000  1
  V  V2  1  0.49119100  0.42930900  0.09984900  1
  V  V3  1  0.95729800  0.11072000  0.74096000  1
  V  V4  1  0.04270200  0.11072000  0.24096000  1
  V  V5  1  0.50880900  0.42930900  0.59984900  1
  V  V6  1  0.49673600  0.48400200  0.85756000  1
  V  V7  1  0.97260900  0.16994300  0.50226000  1
  Bi  Bi0  1  0.00214200  0.66023500  0.65814100  1
  Bi  Bi1  1  0.48595200  0.93816300  0.44092000  1
  Bi  Bi2  1  0.99785800  0.66023500  0.15814100  1
  Bi  Bi3  1  0.49616800  0.86889500  0.69981600  1
  Bi  Bi4  1  0.98504700  0.72303700  0.40258200  1
  Bi  Bi5  1  0.50383200  0.86889500  0.19981600  1
  Bi  Bi6  1  0.51404800  0.93816300  0.94092000  1
  Bi  Bi7  1  0.01495300  0.72303700  0.90258200  1
  Pb  Pb0  1  0.49953400  0.94640300  0.07596100  1
  Pb  Pb1  1  0.45552700  0.45868300  0.47231600  1
  Pb  Pb2  1  0.04733400  0.61161300  0.27740700  1
  Pb  Pb3  1  0.54308600  0.37920700  0.22551800  1
  Pb  Pb4  1  0.95266600  0.61161300  0.77740700  1
  Pb  Pb5  1  0.99239200  0.13710400  0.12844400  1
  Pb  Pb6  1  0.50046600  0.94640300  0.57596100  1
  Pb  Pb7  1  0.48683400  0.98775300  0.82097400  1
  Pb  Pb8  1  0.02388000  0.21324000  0.37497300  1
  Pb  Pb9  1  0.51316600  0.98775300  0.32097400  1
  Pb  Pb10  1  0.01228500  0.65689900  0.02496400  1
  Pb  Pb11  1  0.97612000  0.21324000  0.87497300  1
  Pb  Pb12  1  0.54447300  0.45868300  0.97231600  1
  Pb  Pb13  1  0.98771500  0.65689900  0.52496400  1
  Pb  Pb14  1  0.45691400  0.37920700  0.72551800  1
  Pb  Pb15  1  0.00760800  0.13710400  0.62844400  1
  O  O0  1  0.31816900  0.12597600  0.00047200  1
  O  O1  1  0.22525600  0.71934300  0.46039300  1
  O  O2  1  0.00081200  0.25196100  0.27738200  1
  O  O3  1  0.72909500  0.61207200  0.71443400  1
  O  O4  1  0.01159400  0.39159700  0.50155800  1
  O  O5  1  0.35995400  0.45822600  0.64832300  1
  O  O6  1  0.74512700  0.44479400  0.39191700  1
  O  O7  1  0.98840600  0.39159700  0.00155800  1
  O  O8  1  0.72025400  0.70660700  0.45889800  1
  O  O9  1  0.26998400  0.48408700  0.39495700  1
  O  O10  1  0.79037000  0.09441600  0.21052100  1
  O  O11  1  0.85948500  0.90811800  0.76798400  1
  O  O12  1  0.24645700  0.97068500  0.88423100  1
  O  O13  1  0.25487300  0.44479400  0.89191700  1
  O  O14  1  0.99918800  0.25196100  0.77738200  1
  O  O15  1  0.68183100  0.12597600  0.50047200  1
  O  O16  1  0.37167400  0.54206400  0.55254400  1
  O  O17  1  0.53487700  0.20983800  0.59743200  1
  O  O18  1  0.26726600  0.93996300  0.37977100  1
  O  O19  1  0.77179200  0.89185200  0.64291200  1
  O  O20  1  0.45793500  0.31753800  0.32842600  1
  O  O21  1  0.20963000  0.09441600  0.71052100  1
  O  O22  1  0.54206500  0.31753800  0.82842600  1
  O  O23  1  0.73273400  0.93996300  0.87977100  1
  O  O24  1  0.78367100  0.51287400  0.60086800  1
  O  O25  1  0.77474400  0.71934300  0.96039300  1
  O  O26  1  0.46758400  0.68057300  0.82165100  1
  O  O27  1  0.91217600  0.04759500  0.05127500  1
  O  O28  1  0.27974600  0.70660700  0.95889800  1
  O  O29  1  0.10342400  0.11482500  0.45486900  1
  O  O30  1  0.22820800  0.89185200  0.14291200  1
  O  O31  1  0.27090500  0.61207200  0.21443400  1
  O  O32  1  0.08782400  0.04759500  0.55127500  1
  O  O33  1  0.72936500  0.88293800  0.14048600  1
  O  O34  1  0.62832600  0.54206400  0.05254400  1
  O  O35  1  0.73001600  0.48408700  0.89495700  1
  O  O36  1  0.89657600  0.11482500  0.95486900  1
  O  O37  1  0.25001900  0.18898800  0.20057100  1
  O  O38  1  0.46512300  0.20983800  0.09743200  1
  O  O39  1  0.21719300  0.65918500  0.72068600  1
  O  O40  1  0.27063500  0.88293800  0.64048600  1
  O  O41  1  0.53241600  0.68057300  0.32165100  1
  O  O42  1  0.75354300  0.97068500  0.38423100  1
  O  O43  1  0.21632900  0.51287400  0.10086800  1
  O  O44  1  0.14051500  0.90811800  0.26798400  1
  O  O45  1  0.78280700  0.65918500  0.22068600  1
  O  O46  1  0.74998100  0.18898800  0.70057100  1
  O  O47  1  0.64004600  0.45822600  0.14832300  1
loop_
_geom_bond_atom_site_label_1
_geom_bond_atom_site_label_2
_geom_bond_distance
_geom_bond_site_symmetry_2
Bi0 O19 2.250967 1_455
Bi0 O39 2.282238 1_555
Bi0 O3 2.324922 1_455
Bi0 O40 2.345984 1_555
Bi0 O24 2.595089 1_455
Bi0 O5 2.675425 1_555
Bi1 O18 2.257913 1_555
Bi1 O8 2.271428 1_555
Bi1 O1 2.300342 1_555
Bi1 O42 2.310934 1_555
Bi1 O29 2.704775 1_565
Bi1 O15 2.781436 1_565
Bi2 O30 2.250967 1_655
Bi2 O45 2.282238 1_555
Bi2 O31 2.324922 1_655
Bi2 O33 2.345984 1_555
Bi2 O43 2.595089 1_655
Bi2 O47 2.675425 1_555
Bi3 O40 2.224766 1_555
Bi3 O39 2.329717 1_555
Bi3 O19 2.350272 1_555
Bi3 O3 2.416123 1_555
Bi3 O21 2.504246 1_565
Bi4 O1 2.248881 1_655
Bi4 O8 2.297451 1_555
Bi4 O42 2.361240 1_555
Bi4 O18 2.390021 1_655
Bi4 O9 2.554627 1_655
Bi4 O6 2.670761 1_555
Bi5 O33 2.224766 1_555
Bi5 O45 2.329717 1_555
Bi5 O30 2.350272 1_555
Bi5 O31 2.416123 1_555
Bi5 O10 2.504246 1_565
Bi6 O23 2.257913 1_555
Bi6 O28 2.271428 1_555
Bi6 O25 2.300342 1_555
Bi6 O12 2.310934 1_555
Bi6 O36 2.704775 1_565
Bi6 O0 2.781436 1_566
Bi7 O25 2.248881 1_455
Bi7 O28 2.297451 1_555
Bi7 O12 2.361240 1_555
Bi7 O23 2.390021 1_455
Bi7 O35 2.554627 1_455
Bi7 O13 2.670761 1_555
O0 V1 1.735307 1_555
O0 Pb0 2.700512 1_545
O1 Pb13 2.388654 1_455
O1 Pb1 2.430399 1_555
O2 V4 1.721977 1_555
O3 Pb4 2.321410 1_555
O3 Pb14 2.407707 1_555
O4 V7 1.759622 1_455
O4 Pb13 2.329820 1_455
O4 Pb1 2.761760 1_555
O5 V5 1.763418 1_555
O5 Pb14 2.395900 1_555
O6 V0 1.753353 1_555
O6 Pb8 2.565066 1_655
O7 V1 1.759622 1_655
O7 Pb10 2.329820 1_655
O7 Pb12 2.761760 1_554
O8 Pb1 2.470217 1_555
O8 Pb13 2.525062 1_555
O9 V0 1.776360 1_555
O9 Pb1 2.571835 1_555
O9 Pb8 2.730003 1_555
O10 V4 1.757724 1_655
O10 Pb5 2.734235 1_555
O10 Pb3 2.774363 1_555
O11 V3 1.761017 1_565
O11 Pb4 2.369604 1_555
O11 Pb7 2.844567 1_555
O12 Pb7 2.370273 1_555
O12 Pb11 2.458280 1_465
O13 V6 1.753353 1_555
O13 Pb11 2.565066 1_455
O14 V3 1.721977 1_555
O15 V7 1.735307 1_555
O15 Pb6 2.700512 1_545
O16 V5 1.751214 1_555
O16 Pb13 2.507395 1_455
O16 Pb1 2.686599 1_555
O17 V5 1.752168 1_555
O17 Pb6 2.293576 1_545
O18 Pb9 2.276551 1_555
O18 Pb8 2.564616 1_565
O19 Pb15 2.352763 1_665
O19 Pb6 2.560662 1_555
O20 V0 1.728985 1_555
O20 Pb9 2.669919 1_545
O21 V3 1.757724 1_455
O21 Pb15 2.734235 1_555
O21 Pb14 2.774363 1_555
O22 V6 1.728985 1_555
O22 Pb7 2.669919 1_545
O23 Pb7 2.276551 1_555
O23 Pb11 2.564616 1_565
O24 V5 1.737024 1_555
O24 Pb13 2.674479 1_555
O25 Pb10 2.388654 1_656
O25 Pb12 2.430399 1_555
O26 V6 1.744078 1_555
O26 Pb7 2.422182 1_555
O27 V1 1.765297 1_655
O27 Pb0 2.607228 1_545
O27 Pb5 2.614166 1_555
O28 Pb12 2.470217 1_555
O28 Pb10 2.525062 1_556
O29 V7 1.754831 1_455
O29 Pb8 2.469167 1_555
O30 Pb5 2.352763 1_465
O30 Pb0 2.560662 1_555
O31 Pb2 2.321410 1_555
O31 Pb3 2.407707 1_555
O32 V7 1.765297 1_455
O32 Pb6 2.607228 1_545
O32 Pb15 2.614166 1_555
O33 Pb0 2.362217 1_555
O33 Pb5 2.501216 1_565
O34 V2 1.751214 1_555
O34 Pb10 2.507395 1_655
O34 Pb12 2.686599 1_554
O35 V6 1.776360 1_555
O35 Pb12 2.571835 1_555
O35 Pb11 2.730003 1_555
O36 V1 1.754831 1_656
O36 Pb11 2.469167 1_555
O37 V4 1.760242 1_555
O37 Pb3 2.480780 1_555
O37 Pb5 2.753284 1_455
O38 V2 1.752168 1_555
O38 Pb0 2.293576 1_545
O39 Pb4 2.300373 1_455
O39 Pb14 2.597001 1_555
O40 Pb6 2.362217 1_555
O40 Pb15 2.501216 1_565
O41 V0 1.744078 1_555
O41 Pb9 2.422182 1_555
O42 Pb9 2.370273 1_555
O42 Pb8 2.458280 1_665
O43 V2 1.737024 1_555
O43 Pb10 2.674479 1_555
O44 V4 1.761017 1_565
O44 Pb2 2.369604 1_555
O44 Pb9 2.844567 1_555
O45 Pb2 2.300373 1_655
O45 Pb3 2.597001 1_555
O46 V3 1.760242 1_555
O46 Pb14 2.480780 1_555
O46 Pb15 2.753284 1_655
O47 V2 1.763418 1_555
O47 Pb3 2.395900 1_555
