# generated using pymatgen
data_Li2CrH8Cl5O4
_symmetry_space_group_name_H-M   'P 1'
_cell_length_a   8.49730336
_cell_length_b   8.49730336
_cell_length_c   13.60380270
_cell_angle_alpha   68.13869890
_cell_angle_beta   68.13869890
_cell_angle_gamma   43.98086174
_symmetry_Int_Tables_number   1
_chemical_formula_structural   Li2CrH8Cl5O4
_chemical_formula_sum   'Li4 Cr2 H16 Cl10 O8'
_cell_volume   624.67791540
_cell_formula_units_Z   2
loop_
 _symmetry_equiv_pos_site_id
 _symmetry_equiv_pos_as_xyz
  1  'x, y, z'
loop_
 _atom_site_type_symbol
 _atom_site_label
 _atom_site_symmetry_multiplicity
 _atom_site_fract_x
 _atom_site_fract_y
 _atom_site_fract_z
 _atom_site_occupancy
  Li  Li0  1  0.39572600  0.12453600  0.88948100  1
  Li  Li1  1  0.87546400  0.60427400  0.61051900  1
  Li  Li2  1  0.12453600  0.39572600  0.38948100  1
  Li  Li3  1  0.60427400  0.87546400  0.11051900  1
  Cr  Cr0  1  0.00000000  0.00000000  0.00000000  1
  Cr  Cr1  1  0.00000000  0.00000000  0.50000000  1
  H  H0  1  0.32426900  0.65956200  0.38261400  1
  H  H1  1  0.88680100  0.36045700  0.02792500  1
  H  H2  1  0.72272800  0.20096600  0.36089200  1
  H  H3  1  0.25001500  0.56209600  0.49595600  1
  H  H4  1  0.43790400  0.74998500  0.00404400  1
  H  H5  1  0.79903400  0.27727200  0.13910800  1
  H  H6  1  0.63954300  0.11319900  0.47207500  1
  H  H7  1  0.34043800  0.67573100  0.11738600  1
  H  H8  1  0.65956200  0.32426900  0.88261400  1
  H  H9  1  0.36045700  0.88680100  0.52792500  1
  H  H10  1  0.20096600  0.72272800  0.86089200  1
  H  H11  1  0.56209600  0.25001500  0.99595600  1
  H  H12  1  0.74998500  0.43790400  0.50404400  1
  H  H13  1  0.27727200  0.79903400  0.63910800  1
  H  H14  1  0.11319900  0.63954300  0.97207500  1
  H  H15  1  0.67573100  0.34043800  0.61738600  1
  Cl  Cl0  1  0.86841200  0.85568500  0.65772600  1
  Cl  Cl1  1  0.70105000  0.73212000  0.95822800  1
  Cl  Cl2  1  0.26788000  0.29895000  0.54177200  1
  Cl  Cl3  1  0.50838300  0.49161700  0.25000000  1
  Cl  Cl4  1  0.14431500  0.13158800  0.84227400  1
  Cl  Cl5  1  0.85568500  0.86841200  0.15772600  1
  Cl  Cl6  1  0.49161700  0.50838300  0.75000000  1
  Cl  Cl7  1  0.73212000  0.70105000  0.45822800  1
  Cl  Cl8  1  0.29895000  0.26788000  0.04177200  1
  Cl  Cl9  1  0.13158800  0.14431500  0.34227400  1
  O  O0  1  0.25558900  0.68507500  0.45864400  1
  O  O1  1  0.78045700  0.07495000  0.42394400  1
  O  O2  1  0.92505000  0.21954300  0.07605600  1
  O  O3  1  0.31492500  0.74441100  0.04135600  1
  O  O4  1  0.68507500  0.25558900  0.95864400  1
  O  O5  1  0.07495000  0.78045700  0.92394400  1
  O  O6  1  0.21954300  0.92505000  0.57605600  1
  O  O7  1  0.74441100  0.31492500  0.54135600  1
loop_
_geom_bond_atom_site_label_1
_geom_bond_atom_site_label_2
_geom_bond_distance
_geom_bond_site_symmetry_2
Cr0 O3 2.010366 1_545
Cr0 O4 2.010366 1_454
Cr0 O2 2.047718 1_455
Cr0 O5 2.047718 1_544
Cr1 O7 2.010366 1_455
Cr1 O0 2.010366 1_545
Cr1 O6 2.047718 1_545
Cr1 O1 2.047718 1_455
H0 O0 0.996363 1_555
H1 O2 0.991281 1_555
H2 O1 0.998183 1_555
H3 O0 1.005087 1_555
H4 O3 1.005087 1_555
H5 O2 0.998183 1_555
H6 O1 0.991281 1_555
H7 O3 0.996363 1_555
H8 O4 0.996363 1_555
H9 O6 0.991281 1_555
H10 O5 0.998183 1_555
H11 O4 1.005087 1_555
H12 O7 1.005087 1_555
H13 O6 0.998183 1_555
H14 O5 0.991281 1_555
H15 O7 0.996363 1_555
Cl0 Cr1 2.363262 1_665
Cl0 Li1 2.405965 1_555
Cl1 H4 1.988825 1_556
Cl1 Li3 2.370857 1_556
Cl1 Li0 2.399768 1_565
Cl2 H3 1.988825 1_555
Cl2 Li2 2.370857 1_555
Cl2 Li1 2.399768 1_455
Cl3 H0 2.083527 1_555
Cl3 H7 2.083527 1_555
Cl3 H2 2.119104 1_555
Cl3 H5 2.119104 1_555
Cl4 Cr0 2.363262 1_556
Cl4 Li0 2.405965 1_555
Cl5 Cr0 2.363262 1_665
Cl5 Li3 2.405965 1_555
Cl6 H15 2.083527 1_555
Cl6 H8 2.083527 1_555
Cl6 H13 2.119104 1_555
Cl6 H10 2.119104 1_555
Cl7 H12 1.988825 1_555
Cl7 Li1 2.370857 1_555
Cl7 Li2 2.399768 1_655
Cl8 H11 1.988825 1_554
Cl8 Li0 2.370857 1_554
Cl8 Li3 2.399768 1_545
Cl9 Cr1 2.363262 1_555
Cl9 Li2 2.405965 1_555
