# generated using pymatgen
data_Tl3Co3O8
_symmetry_space_group_name_H-M   'P 1'
_cell_length_a   5.59026534
_cell_length_b   11.33167788
_cell_length_c   5.58089506
_cell_angle_alpha   90.13084938
_cell_angle_beta   90.00543966
_cell_angle_gamma   90.03993314
_symmetry_Int_Tables_number   1
_chemical_formula_structural   Tl3Co3O8
_chemical_formula_sum   'Tl6 Co6 O16'
_cell_volume   353.53242998
_cell_formula_units_Z   2
loop_
 _symmetry_equiv_pos_site_id
 _symmetry_equiv_pos_as_xyz
  1  'x, y, z'
loop_
 _atom_site_type_symbol
 _atom_site_label
 _atom_site_symmetry_multiplicity
 _atom_site_fract_x
 _atom_site_fract_y
 _atom_site_fract_z
 _atom_site_occupancy
  Tl  Tl0  1  0.79929300  0.50210600  0.27172000  1
  Tl  Tl1  1  0.29966700  0.49839900  0.72828900  1
  Tl  Tl2  1  0.70071400  0.17957600  0.26781900  1
  Tl  Tl3  1  0.20094600  0.82020800  0.73201400  1
  Tl  Tl4  1  0.69676000  0.82108000  0.26427800  1
  Tl  Tl5  1  0.19758300  0.17885900  0.73527700  1
  Co  Co0  1  0.69265600  0.99748700  0.80067600  1
  Co  Co1  1  0.24974200  0.67091000  0.24136600  1
  Co  Co2  1  0.75021800  0.32960000  0.75944000  1
  Co  Co3  1  0.19241300  0.00256100  0.19867100  1
  Co  Co4  1  0.24869300  0.33441700  0.23547700  1
  Co  Co5  1  0.74870000  0.66671200  0.76413700  1
  O  O0  1  0.95964600  0.27903900  0.05159400  1
  O  O1  1  0.45920600  0.72074000  0.94937200  1
  O  O2  1  0.45213100  0.28350200  0.95345700  1
  O  O3  1  0.95212200  0.71661900  0.04660700  1
  O  O4  1  0.83955400  0.99954000  0.12920500  1
  O  O5  1  0.33963900  0.99982200  0.87066600  1
  O  O6  1  0.18524500  0.49572800  0.13329400  1
  O  O7  1  0.68602600  0.50469400  0.86609600  1
  O  O8  1  0.30481700  0.15046000  0.35010900  1
  O  O9  1  0.80168100  0.84827400  0.65215100  1
  O  O10  1  0.30347900  0.85603500  0.35041500  1
  O  O11  1  0.80513100  0.14360100  0.64877200  1
  O  O12  1  0.55121200  0.36744900  0.43722800  1
  O  O13  1  0.05132700  0.63250000  0.56161200  1
  O  O14  1  0.05937900  0.36482600  0.55122800  1
  O  O15  1  0.55842200  0.63525600  0.44902900  1
loop_
_geom_bond_atom_site_label_1
_geom_bond_atom_site_label_2
_geom_bond_distance
_geom_bond_site_symmetry_2
Co0 O11 1.964816 1_565
Co0 O9 1.978028 1_555
Co0 O4 2.008998 1_556
Co0 O5 2.011960 1_555
Co1 O3 2.054574 1_455
Co1 O1 2.085470 1_554
Co1 O6 2.104261 1_555
Co1 O15 2.118212 1_555
Co1 O13 2.148791 1_555
Co1 O10 2.203304 1_555
Co2 O2 2.055201 1_555
Co2 O0 2.088598 1_556
Co2 O7 2.101287 1_555
Co2 O14 2.120880 1_655
Co2 O12 2.158481 1_555
Co2 O11 2.216531 1_555
Co3 O10 1.966552 1_545
Co3 O8 1.977344 1_555
Co3 O5 2.007327 1_544
Co3 O4 2.010528 1_445
Co4 O6 1.948833 1_555
Co4 O0 2.013266 1_455
Co4 O2 2.024995 1_554
Co4 O12 2.065122 1_555
Co4 O14 2.083774 1_555
Co4 O8 2.204540 1_555
Co5 O7 1.954767 1_555
Co5 O1 2.015286 1_555
Co5 O3 2.023079 1_556
Co5 O13 2.071027 1_655
Co5 O15 2.085041 1_555
Co5 O9 2.171701 1_555
O0 Tl2 2.196823 1_555
O0 Tl5 2.483493 1_654
O1 Tl3 2.198752 1_555
O1 Tl4 2.476561 1_556
O2 Tl5 2.214577 1_555
O2 Tl2 2.531252 1_556
O3 Tl4 2.216059 1_555
O3 Tl3 2.530390 1_654
O4 Tl4 2.302129 1_555
O4 Tl2 2.314739 1_565
O5 Tl5 2.307961 1_565
O5 Tl3 2.309320 1_555
O6 Tl0 2.292913 1_455
O6 Tl1 2.349370 1_554
O7 Tl1 2.293633 1_555
O7 Tl0 2.350828 1_556
O8 Tl5 2.254103 1_555
O8 Tl2 2.284240 1_555
O9 Tl4 2.263024 1_555
O9 Tl3 2.298491 1_655
O10 Tl3 2.243365 1_555
O10 Tl4 2.285199 1_555
O11 Tl2 2.243010 1_555
O11 Tl5 2.281149 1_655
O12 Tl0 2.260217 1_555
O12 Tl2 2.473478 1_555
O12 Tl1 2.609648 1_555
O13 Tl1 2.260736 1_555
O13 Tl3 2.473142 1_555
O13 Tl0 2.602222 1_455
O14 Tl1 2.249873 1_555
O14 Tl5 2.470780 1_555
O14 Tl0 2.642160 1_455
O15 Tl0 2.250584 1_555
O15 Tl4 2.470413 1_555
O15 Tl1 2.633393 1_555
