# generated using pymatgen
data_Na9Cu2O7
_symmetry_space_group_name_H-M   'P 1'
_cell_length_a   9.53569900
_cell_length_b   9.92635500
_cell_length_c   10.21998500
_cell_angle_alpha   90.00000000
_cell_angle_beta   90.00000000
_cell_angle_gamma   90.00000000
_symmetry_Int_Tables_number   1
_chemical_formula_structural   Na9Cu2O7
_chemical_formula_sum   'Na36 Cu8 O28'
_cell_volume   967.36995601
_cell_formula_units_Z   4
loop_
 _symmetry_equiv_pos_site_id
 _symmetry_equiv_pos_as_xyz
  1  'x, y, z'
loop_
 _atom_site_type_symbol
 _atom_site_label
 _atom_site_symmetry_multiplicity
 _atom_site_fract_x
 _atom_site_fract_y
 _atom_site_fract_z
 _atom_site_occupancy
  Na  Na0  1  0.01339000  0.74343900  0.13073400  1
  Na  Na1  1  0.02054100  0.16246700  0.88486900  1
  Na  Na2  1  0.07050200  0.66749900  0.85671300  1
  Na  Na3  1  0.07205400  0.04554700  0.15303600  1
  Na  Na4  1  0.08907200  0.51413000  0.59054200  1
  Na  Na5  1  0.15431700  0.55397500  0.29787600  1
  Na  Na6  1  0.16402200  0.10784800  0.48248500  1
  Na  Na7  1  0.21375200  0.77386200  0.55621300  1
  Na  Na8  1  0.22372800  0.28895400  0.22700400  1
  Na  Na9  1  0.27627200  0.28895400  0.72700400  1
  Na  Na10  1  0.28624800  0.77386200  0.05621300  1
  Na  Na11  1  0.33597800  0.10784800  0.98248500  1
  Na  Na12  1  0.34568300  0.55397500  0.79787600  1
  Na  Na13  1  0.41092800  0.51413000  0.09054200  1
  Na  Na14  1  0.42794600  0.04554700  0.65303600  1
  Na  Na15  1  0.42949800  0.66749900  0.35671300  1
  Na  Na16  1  0.47945900  0.16246700  0.38486900  1
  Na  Na17  1  0.48661100  0.74343900  0.63073400  1
  Na  Na18  1  0.51339000  0.25656100  0.13073400  1
  Na  Na19  1  0.52054100  0.83753300  0.88486900  1
  Na  Na20  1  0.57050200  0.33250100  0.85671300  1
  Na  Na21  1  0.57205400  0.95445300  0.15303600  1
  Na  Na22  1  0.58907200  0.48587000  0.59054200  1
  Na  Na23  1  0.65431700  0.44602500  0.29787600  1
  Na  Na24  1  0.66402200  0.89215200  0.48248500  1
  Na  Na25  1  0.71375200  0.22613800  0.55621300  1
  Na  Na26  1  0.72372800  0.71104600  0.22700400  1
  Na  Na27  1  0.77627200  0.71104600  0.72700400  1
  Na  Na28  1  0.78624800  0.22613800  0.05621300  1
  Na  Na29  1  0.83597800  0.89215200  0.98248500  1
  Na  Na30  1  0.84568300  0.44602500  0.79787600  1
  Na  Na31  1  0.91092800  0.48587000  0.09054200  1
  Na  Na32  1  0.92794600  0.95445300  0.65303600  1
  Na  Na33  1  0.92949800  0.33250100  0.35671300  1
  Na  Na34  1  0.97945900  0.83753300  0.38486900  1
  Na  Na35  1  0.98661000  0.25656100  0.63073400  1
  Cu  Cu0  1  0.15536100  0.39588100  0.97389500  1
  Cu  Cu1  1  0.18952900  0.93299100  0.80598200  1
  Cu  Cu2  1  0.31047100  0.93299100  0.30598200  1
  Cu  Cu3  1  0.34463900  0.39588100  0.47389500  1
  Cu  Cu4  1  0.65536100  0.60411900  0.97389500  1
  Cu  Cu5  1  0.68952900  0.06700900  0.80598200  1
  Cu  Cu6  1  0.81047100  0.06700900  0.30598200  1
  Cu  Cu7  1  0.84463900  0.60411900  0.47389500  1
  O  O0  1  0.03275700  0.27647600  0.08600500  1
  O  O1  1  0.08283500  0.92262100  0.96404100  1
  O  O2  1  0.09479400  0.42604700  0.79730900  1
  O  O3  1  0.15470000  0.33687800  0.44436200  1
  O  O4  1  0.15398400  0.08691800  0.70744000  1
  O  O5  1  0.16296000  0.56661500  0.06178600  1
  O  O6  1  0.19741800  0.78287700  0.29757200  1
  O  O7  1  0.30258200  0.78287700  0.79757200  1
  O  O8  1  0.33704000  0.56661500  0.56178600  1
  O  O9  1  0.34601600  0.08691800  0.20744000  1
  O  O10  1  0.34530000  0.33687800  0.94436200  1
  O  O11  1  0.40520600  0.42604700  0.29730900  1
  O  O12  1  0.41716500  0.92262100  0.46404100  1
  O  O13  1  0.46724300  0.27647600  0.58600500  1
  O  O14  1  0.53275700  0.72352400  0.08600500  1
  O  O15  1  0.58283500  0.07737900  0.96404100  1
  O  O16  1  0.59479400  0.57395300  0.79730900  1
  O  O17  1  0.65470000  0.66312200  0.44436200  1
  O  O18  1  0.65398400  0.91308200  0.70744000  1
  O  O19  1  0.66296000  0.43338500  0.06178600  1
  O  O20  1  0.69741800  0.21712300  0.29757200  1
  O  O21  1  0.80258200  0.21712300  0.79757200  1
  O  O22  1  0.83704000  0.43338500  0.56178600  1
  O  O23  1  0.84601600  0.91308200  0.20744000  1
  O  O24  1  0.84530000  0.66312200  0.94436200  1
  O  O25  1  0.90520600  0.57395300  0.29730900  1
  O  O26  1  0.91716500  0.07737900  0.46404100  1
  O  O27  1  0.96724300  0.72352400  0.58600500  1
loop_
_geom_bond_atom_site_label_1
_geom_bond_atom_site_label_2
_geom_bond_distance
_geom_bond_site_symmetry_2
Na0 O5 2.368865 1_555
Na0 O23 2.448980 1_455
Na0 O6 2.477903 1_555
Na0 O1 2.550348 1_554
Na0 O25 2.606293 1_455
Na0 O24 2.613947 1_454
Na1 O21 2.325947 1_455
Na1 O4 2.338741 1_555
Na1 O0 2.349430 1_556
Na1 O1 2.583747 1_545
Na1 O2 2.854402 1_555
Na2 O24 2.327203 1_455
Na2 O2 2.483262 1_555
Na2 O5 2.484490 1_556
Na2 O7 2.564091 1_555
Na2 O1 2.762283 1_555
Na3 O1 2.286978 1_544
Na3 O0 2.421628 1_555
Na3 O23 2.585338 1_445
Na3 O9 2.702318 1_555
Na4 O2 2.287549 1_555
Na4 O27 2.381595 1_455
Na4 O3 2.391499 1_555
Na4 O8 2.439033 1_555
Na4 O22 2.550418 1_455
Na5 O6 2.309037 1_555
Na5 O25 2.383718 1_455
Na5 O5 2.417502 1_555
Na5 O3 2.623971 1_555
Na5 O11 2.708535 1_555
Na6 O3 2.308290 1_555
Na6 O4 2.310389 1_555
Na6 O26 2.380778 1_455
Na7 O8 2.370120 1_555
Na7 O27 2.422368 1_455
Na7 O7 2.609607 1_555
Na7 O12 2.613462 1_555
Na7 O6 2.649404 1_555
Na8 O11 2.315779 1_555
Na8 O0 2.325519 1_555
Na8 O9 2.328460 1_555
Na8 O3 2.365199 1_555
Na9 O2 2.315779 1_555
Na9 O13 2.325519 1_555
Na9 O4 2.328460 1_555
Na9 O10 2.365199 1_555
Na10 O5 2.370120 1_555
Na10 O14 2.422368 1_555
Na10 O6 2.609607 1_555
Na10 O1 2.613462 1_554
Na10 O7 2.649404 1_554
Na11 O10 2.308290 1_555
Na11 O9 2.310389 1_556
Na11 O15 2.380778 1_555
Na12 O7 2.309037 1_555
Na12 O16 2.383718 1_555
Na12 O8 2.417502 1_555
Na12 O10 2.623971 1_555
Na12 O2 2.708535 1_555
Na13 O11 2.287549 1_555
Na13 O14 2.381595 1_555
Na13 O10 2.391499 1_554
Na13 O5 2.439033 1_555
Na13 O19 2.550418 1_555
Na14 O12 2.286978 1_545
Na14 O13 2.421628 1_555
Na14 O18 2.585338 1_545
Na14 O4 2.702318 1_555
Na15 O17 2.327203 1_555
Na15 O11 2.483262 1_555
Na15 O8 2.484490 1_555
Na15 O6 2.564091 1_555
Na15 O12 2.762283 1_555
Na16 O20 2.325947 1_555
Na16 O9 2.338741 1_555
Na16 O13 2.349430 1_555
Na16 O12 2.583747 1_545
Na16 O11 2.854402 1_555
Na17 O8 2.368870 1_555
Na17 O18 2.448973 1_555
Na17 O7 2.477910 1_555
Na17 O12 2.550350 1_555
Na17 O16 2.606289 1_555
Na17 O17 2.613941 1_555
Na18 O19 2.368865 1_555
Na18 O9 2.448980 1_555
Na18 O20 2.477903 1_555
Na18 O15 2.550348 1_554
Na18 O11 2.606293 1_555
Na18 O10 2.613947 1_554
Na19 O7 2.325947 1_555
Na19 O18 2.338741 1_555
Na19 O14 2.349430 1_556
Na19 O15 2.583747 1_565
Na19 O16 2.854402 1_555
Na20 O10 2.327203 1_555
Na20 O16 2.483262 1_555
Na20 O19 2.484490 1_556
Na20 O21 2.564091 1_555
Na20 O15 2.762283 1_555
Na21 O15 2.286978 1_564
Na21 O14 2.421628 1_555
Na21 O9 2.585338 1_565
Na21 O23 2.702318 1_555
Na22 O16 2.287549 1_555
Na22 O13 2.381595 1_555
Na22 O17 2.391499 1_555
Na22 O22 2.439033 1_555
Na22 O8 2.550418 1_555
Na23 O20 2.309037 1_555
Na23 O11 2.383718 1_555
Na23 O19 2.417502 1_555
Na23 O17 2.623971 1_555
Na23 O25 2.708535 1_555
Na24 O17 2.308290 1_555
Na24 O18 2.310389 1_555
Na24 O12 2.380778 1_555
Na25 O22 2.370120 1_555
Na25 O13 2.422368 1_555
Na25 O21 2.609607 1_555
Na25 O26 2.613462 1_555
Na25 O20 2.649404 1_555
Na26 O25 2.315779 1_555
Na26 O14 2.325519 1_555
Na26 O23 2.328460 1_555
Na26 O17 2.365199 1_555
Na27 O16 2.315779 1_555
Na27 O27 2.325519 1_555
Na27 O18 2.328460 1_555
Na27 O24 2.365199 1_555
Na28 O19 2.370120 1_555
Na28 O0 2.422368 1_655
Na28 O20 2.609607 1_555
Na28 O15 2.613462 1_554
Na28 O21 2.649404 1_554
Na29 O24 2.308290 1_555
Na29 O23 2.310389 1_556
Na29 O1 2.380778 1_655
Na30 O21 2.309037 1_555
Na30 O2 2.383718 1_655
Na30 O22 2.417502 1_555
Na30 O24 2.623971 1_555
Na30 O16 2.708535 1_555
Na31 O25 2.287549 1_555
Na31 O0 2.381595 1_655
Na31 O24 2.391499 1_554
Na31 O19 2.439033 1_555
Na31 O5 2.550418 1_655
Na32 O26 2.286978 1_565
Na32 O27 2.421628 1_555
Na32 O4 2.585338 1_665
Na32 O18 2.702318 1_555
Na33 O3 2.327203 1_655
Na33 O25 2.483262 1_555
Na33 O22 2.484490 1_555
Na33 O20 2.564091 1_555
Na33 O26 2.762283 1_555
Na34 O6 2.325947 1_655
Na34 O23 2.338741 1_555
Na34 O27 2.349430 1_555
Na34 O26 2.583747 1_565
Na34 O25 2.854402 1_555
Na35 O22 2.368865 1_555
Na35 O4 2.448980 1_655
Na35 O21 2.477903 1_555
Na35 O26 2.550348 1_555
Na35 O2 2.606293 1_655
Na35 O3 2.613947 1_655
Cu0 O2 1.918382 1_555
Cu0 O5 1.919460 1_556
Cu0 O10 1.927323 1_555
Cu0 O0 2.020998 1_556
Cu1 O7 1.841171 1_555
Cu1 O4 1.861105 1_565
Cu1 O1 1.911830 1_555
Cu2 O6 1.841171 1_555
Cu2 O9 1.861105 1_565
Cu2 O12 1.911830 1_555
Cu3 O11 1.918382 1_555
Cu3 O8 1.919460 1_555
Cu3 O3 1.927323 1_555
Cu3 O13 2.020998 1_555
Cu4 O16 1.918382 1_555
Cu4 O19 1.919460 1_556
Cu4 O24 1.927323 1_555
Cu4 O14 2.020998 1_556
Cu5 O21 1.841171 1_555
Cu5 O18 1.861105 1_545
Cu5 O15 1.911830 1_555
Cu6 O20 1.841171 1_555
Cu6 O23 1.861105 1_545
Cu6 O26 1.911830 1_555
Cu7 O25 1.918382 1_555
Cu7 O22 1.919460 1_555
Cu7 O17 1.927323 1_555
Cu7 O27 2.020998 1_555
