# generated using pymatgen
data_Bi5O7F
_symmetry_space_group_name_H-M   'P 1'
_cell_length_a   12.52540500
_cell_length_b   6.92169300
_cell_length_c   13.49488082
_cell_angle_alpha   61.87650097
_cell_angle_beta   90.00000000
_cell_angle_gamma   90.00000000
_symmetry_Int_Tables_number   1
_chemical_formula_structural   Bi5O7F
_chemical_formula_sum   'Bi20 O28 F4'
_cell_volume   1031.83215806
_cell_formula_units_Z   4
loop_
 _symmetry_equiv_pos_site_id
 _symmetry_equiv_pos_as_xyz
  1  'x, y, z'
loop_
 _atom_site_type_symbol
 _atom_site_label
 _atom_site_symmetry_multiplicity
 _atom_site_fract_x
 _atom_site_fract_y
 _atom_site_fract_z
 _atom_site_occupancy
  Bi  Bi0  1  0.24935000  0.99111400  0.42984700  1
  Bi  Bi1  1  0.27743300  0.64937200  0.76659400  1
  Bi  Bi2  1  0.23484000  0.32758200  0.08063100  1
  Bi  Bi3  1  0.52195000  0.31462700  0.91685400  1
  Bi  Bi4  1  0.49036100  0.62414700  0.60848700  1
  Bi  Bi5  1  0.99036100  0.37585300  0.89151300  1
  Bi  Bi6  1  0.02195000  0.68537300  0.58314600  1
  Bi  Bi7  1  0.73484000  0.67241800  0.41936900  1
  Bi  Bi8  1  0.77743300  0.35062800  0.73340600  1
  Bi  Bi9  1  0.74935000  0.00888600  0.07015300  1
  Bi  Bi10  1  0.25065000  0.99111400  0.92984700  1
  Bi  Bi11  1  0.22256700  0.64937200  0.26659400  1
  Bi  Bi12  1  0.26516000  0.32758200  0.58063100  1
  Bi  Bi13  1  0.97805000  0.31462700  0.41685400  1
  Bi  Bi14  1  0.00963900  0.62414700  0.10848700  1
  Bi  Bi15  1  0.50963900  0.37585300  0.39151300  1
  Bi  Bi16  1  0.47805000  0.68537300  0.08314600  1
  Bi  Bi17  1  0.76516000  0.67241800  0.91936900  1
  Bi  Bi18  1  0.72256700  0.35062800  0.23340600  1
  Bi  Bi19  1  0.75065000  0.00888600  0.57015300  1
  O  O0  1  0.10491000  0.00001900  0.50717100  1
  O  O1  1  0.89813600  0.47853900  0.00164200  1
  O  O2  1  0.34388000  0.88404000  0.57618800  1
  O  O3  1  0.66649200  0.38572700  0.99327200  1
  O  O4  1  0.85750700  0.57891800  0.77836000  1
  O  O5  1  0.10360000  0.61787900  0.73649800  1
  O  O6  1  0.74175400  0.67752700  0.58187600  1
  O  O7  1  0.24175400  0.32247300  0.91812400  1
  O  O8  1  0.60360000  0.38212100  0.76350200  1
  O  O9  1  0.35750700  0.42108200  0.72164000  1
  O  O10  1  0.16649200  0.61427300  0.50672800  1
  O  O11  1  0.84388000  0.11596000  0.92381200  1
  O  O12  1  0.39813600  0.52146100  0.49835800  1
  O  O13  1  0.60491000  0.99998100  0.99282900  1
  O  O14  1  0.39509000  0.00001900  0.00717100  1
  O  O15  1  0.60186400  0.47853900  0.50164200  1
  O  O16  1  0.15612000  0.88404000  0.07618800  1
  O  O17  1  0.83350800  0.38572700  0.49327200  1
  O  O18  1  0.64249300  0.57891800  0.27836000  1
  O  O19  1  0.39640000  0.61787900  0.23649800  1
  O  O20  1  0.75824600  0.67752700  0.08187600  1
  O  O21  1  0.25824600  0.32247300  0.41812400  1
  O  O22  1  0.89640000  0.38212100  0.26350200  1
  O  O23  1  0.14249300  0.42108200  0.22164000  1
  O  O24  1  0.33350800  0.61427300  0.00672800  1
  O  O25  1  0.65612000  0.11596000  0.42381200  1
  O  O26  1  0.10186400  0.52146100  0.99835800  1
  O  O27  1  0.89509000  0.99998100  0.49282900  1
  F  F0  1  0.52198500  0.28667200  0.22694600  1
  F  F1  1  0.02198500  0.71332800  0.27305400  1
  F  F2  1  0.97801500  0.28667200  0.72694600  1
  F  F3  1  0.47801500  0.71332800  0.77305400  1
loop_
_geom_bond_atom_site_label_1
_geom_bond_atom_site_label_2
_geom_bond_distance
_geom_bond_site_symmetry_2
Bi0 O0 2.103895 1_565
Bi0 O2 2.114572 1_555
Bi0 O21 2.226166 1_565
Bi0 O10 2.530983 1_555
Bi1 O9 2.185074 1_555
Bi1 O5 2.244258 1_555
Bi1 O7 2.266936 1_555
Bi1 O2 2.449224 1_555
Bi1 F3 2.559679 1_555
Bi2 O26 2.098353 1_554
Bi2 O24 2.143366 1_555
Bi2 O7 2.211598 1_554
Bi2 O23 2.557106 1_555
Bi3 O8 2.153000 1_555
Bi3 O13 2.183809 1_545
Bi3 O3 2.249855 1_555
Bi3 O14 2.500043 1_556
Bi3 F3 2.575995 1_555
Bi4 O12 2.245914 1_555
Bi4 O9 2.247877 1_555
Bi4 O8 2.427024 1_555
Bi4 O2 2.460300 1_555
Bi4 O15 2.532837 1_555
Bi4 F3 2.574751 1_555
Bi5 O1 2.245914 1_556
Bi5 O4 2.247877 1_555
Bi5 O5 2.427024 1_655
Bi5 O11 2.460300 1_555
Bi5 O26 2.532837 1_655
Bi5 F2 2.574751 1_555
Bi6 O5 2.153000 1_555
Bi6 O0 2.183809 1_565
Bi6 O10 2.249855 1_555
Bi6 O27 2.500043 1_455
Bi6 F2 2.575995 1_455
Bi7 O15 2.098353 1_555
Bi7 O17 2.143366 1_555
Bi7 O6 2.211598 1_555
Bi7 O18 2.557106 1_555
Bi8 O4 2.185074 1_555
Bi8 O8 2.244258 1_555
Bi8 O6 2.266936 1_555
Bi8 O11 2.449224 1_555
Bi8 F2 2.559679 1_555
Bi9 O13 2.103895 1_544
Bi9 O11 2.114572 1_554
Bi9 O20 2.226166 1_545
Bi9 O3 2.530983 1_554
Bi10 O14 2.103895 1_566
Bi10 O16 2.114572 1_556
Bi10 O7 2.226166 1_565
Bi10 O24 2.530983 1_556
Bi11 O23 2.185074 1_555
Bi11 O19 2.244258 1_555
Bi11 O21 2.266936 1_555
Bi11 O16 2.449224 1_555
Bi11 F1 2.559679 1_555
Bi12 O12 2.098353 1_555
Bi12 O10 2.143366 1_555
Bi12 O21 2.211598 1_555
Bi12 O9 2.557106 1_555
Bi13 O22 2.153000 1_555
Bi13 O27 2.183809 1_545
Bi13 O17 2.249855 1_555
Bi13 O0 2.500043 1_655
Bi13 F1 2.575995 1_655
Bi14 O26 2.245914 1_554
Bi14 O23 2.247877 1_555
Bi14 O22 2.427024 1_455
Bi14 O16 2.460300 1_555
Bi14 O1 2.532837 1_455
Bi14 F1 2.574751 1_555
Bi15 O15 2.245914 1_555
Bi15 O18 2.247877 1_555
Bi15 O19 2.427024 1_555
Bi15 O25 2.460300 1_555
Bi15 O12 2.532837 1_555
Bi15 F0 2.574751 1_555
Bi16 O19 2.153000 1_555
Bi16 O14 2.183809 1_565
Bi16 O24 2.249855 1_555
Bi16 O13 2.500043 1_554
Bi16 F0 2.575995 1_555
Bi17 O1 2.098353 1_556
Bi17 O3 2.143366 1_555
Bi17 O20 2.211598 1_556
Bi17 O4 2.557106 1_555
Bi18 O18 2.185074 1_555
Bi18 O22 2.244258 1_555
Bi18 O20 2.266936 1_555
Bi18 O25 2.449224 1_555
Bi18 F0 2.559679 1_555
Bi19 O27 2.103895 1_545
Bi19 O25 2.114572 1_555
Bi19 O6 2.226166 1_545
Bi19 O17 2.530983 1_555
