# generated using pymatgen
data_Li4V3P8O29
_symmetry_space_group_name_H-M   'P 1'
_cell_length_a   9.73758000
_cell_length_b   9.76507607
_cell_length_c   14.15267601
_cell_angle_alpha   90.14817978
_cell_angle_beta   90.07395225
_cell_angle_gamma   119.90257404
_symmetry_Int_Tables_number   1
_chemical_formula_structural   Li4V3P8O29
_chemical_formula_sum   'Li8 V6 P16 O58'
_cell_volume   1166.58936413
_cell_formula_units_Z   2
loop_
 _symmetry_equiv_pos_site_id
 _symmetry_equiv_pos_as_xyz
  1  'x, y, z'
loop_
 _atom_site_type_symbol
 _atom_site_label
 _atom_site_symmetry_multiplicity
 _atom_site_fract_x
 _atom_site_fract_y
 _atom_site_fract_z
 _atom_site_occupancy
  Li  Li0  1  0.76598200  0.09619500  0.05456700  1
  Li  Li1  1  0.32313200  0.23394800  0.05586000  1
  Li  Li2  1  0.67159800  0.90586900  0.44462900  1
  Li  Li3  1  0.32907400  0.09322200  0.56215300  1
  Li  Li4  1  0.23230500  0.89849500  0.94022000  1
  Li  Li5  1  0.23254200  0.33151500  0.45175200  1
  Li  Li6  1  0.95135800  0.95842800  0.98812900  1
  Li  Li7  1  0.96317800  0.94739100  0.51010800  1
  V  V0  1  0.56806800  0.00169300  0.25279200  1
  V  V1  1  0.43469200  0.99814900  0.74989100  1
  V  V2  1  0.56993000  0.56685100  0.75420600  1
  V  V3  1  0.44025900  0.44260900  0.24681400  1
  V  V4  1  0.99879200  0.56388300  0.25012300  1
  V  V5  1  0.00091300  0.43836300  0.74638200  1
  P  P0  1  0.91908900  0.69712100  0.84040200  1
  P  P1  1  0.78083200  0.69564700  0.33875100  1
  P  P2  1  0.92002300  0.22627700  0.34446400  1
  P  P3  1  0.66678100  0.33155200  0.13232000  1
  P  P4  1  0.66277300  0.33390600  0.63146900  1
  P  P5  1  0.78005300  0.09267300  0.83848900  1
  P  P6  1  0.68882200  0.90851700  0.65929400  1
  P  P7  1  0.31297600  0.22454700  0.84455700  1
  P  P8  1  0.69610200  0.78084000  0.15398900  1
  P  P9  1  0.31610700  0.09429300  0.34240400  1
  P  P10  1  0.22559200  0.91176900  0.16227200  1
  P  P11  1  0.33286300  0.66445600  0.36717600  1
  P  P12  1  0.33119600  0.66463500  0.86800700  1
  P  P13  1  0.08234800  0.77833600  0.65423300  1
  P  P14  1  0.22654300  0.31310500  0.66286700  1
  P  P15  1  0.08180500  0.30570800  0.15745500  1
  O  O0  1  0.00633400  0.79902700  0.56943300  1
  O  O1  1  0.91502700  0.65583200  0.33477300  1
  O  O2  1  0.78635200  0.79361700  0.06758300  1
  O  O3  1  0.74405200  0.65792800  0.83725400  1
  O  O4  1  0.92613900  0.54344900  0.82968400  1
  O  O5  1  0.81109000  0.47895700  0.17990300  1
  O  O6  1  0.92010600  0.38404500  0.32909600  1
  O  O7  1  0.99355900  0.20560400  0.07458200  1
  O  O8  1  0.91639100  0.26495600  0.82888200  1
  O  O9  1  0.66328400  0.47936500  0.68128600  1
  O  O10  1  0.61883500  0.53932700  0.32538100  1
  O  O11  1  0.81136500  0.33635600  0.67790300  1
  O  O12  1  0.66014100  0.33185600  0.02746300  1
  O  O13  1  0.66258900  0.33999100  0.52696700  1
  O  O14  1  0.67341100  0.18573500  0.17108400  1
  O  O15  1  0.46960300  0.38126500  0.82979500  1
  O  O16  1  0.51287400  0.32745300  0.17483600  1
  O  O17  1  0.74765300  0.08556600  0.34212600  1
  O  O18  1  0.79971800  0.00167900  0.74922000  1
  O  O19  1  0.77666900  0.97657100  0.56938500  1
  O  O20  1  0.79297600  0.02070600  0.92860400  1
  O  O21  1  0.61892600  0.08677700  0.82581700  1
  O  O22  1  0.51126700  0.18493000  0.66972100  1
  O  O23  1  0.65834300  0.91769200  0.16306600  1
  O  O24  1  0.47299900  0.09253300  0.32703000  1
  O  O25  1  0.34540800  0.26626400  0.33363200  1
  O  O26  1  0.80137200  0.79918100  0.24617700  1
  O  O27  1  0.78695800  0.79124700  0.42272900  1
  O  O28  1  0.22308100  0.22363700  0.57493400  1
  O  O29  1  0.65729300  0.73729800  0.67151400  1
  O  O30  1  0.53436900  0.91182200  0.67013000  1
  O  O31  1  0.34055900  0.08115800  0.83851200  1
  O  O32  1  0.48868900  0.81413800  0.33420800  1
  O  O33  1  0.38035500  0.91025800  0.17609400  1
  O  O34  1  0.22231400  0.99430800  0.07322900  1
  O  O35  1  0.23561000  0.02507700  0.43366500  1
  O  O36  1  0.20451600  0.00202900  0.25301700  1
  O  O37  1  0.25894700  0.91490200  0.66226200  1
  O  O38  1  0.47898200  0.66499200  0.82351500  1
  O  O39  1  0.53843300  0.62020000  0.16934400  1
  O  O40  1  0.32743800  0.81470500  0.83077200  1
  O  O41  1  0.32582300  0.65822100  0.97260900  1
  O  O42  1  0.32457700  0.64283000  0.47143000  1
  O  O43  1  0.18934100  0.66711600  0.31962400  1
  O  O44  1  0.38390700  0.46812600  0.67516200  1
  O  O45  1  0.33073200  0.51490600  0.31910200  1
  O  O46  1  0.08306400  0.74122700  0.16821600  1
  O  O47  1  0.99891800  0.79971800  0.74697900  1
  O  O48  1  0.00568500  0.80081600  0.92300500  1
  O  O49  1  0.07643600  0.61783300  0.66654000  1
  O  O50  1  0.18566200  0.52209500  0.81677200  1
  O  O51  1  0.07779800  0.46150700  0.17038900  1
  O  O52  1  0.25774200  0.34218900  0.15924600  1
  O  O53  1  0.22789000  0.21672800  0.93356700  1
  O  O54  1  0.20301400  0.20371700  0.75330200  1
  O  O55  1  0.08571300  0.34462300  0.66447200  1
  O  O56  1  0.00987400  0.22072900  0.42811200  1
  O  O57  1  0.00233100  0.20346200  0.25109400  1
loop_
_geom_bond_atom_site_label_1
_geom_bond_atom_site_label_2
_geom_bond_distance
_geom_bond_site_symmetry_2
Li0 O7 1.941329 1_555
Li0 O20 1.994534 1_554
Li0 O23 2.165935 1_545
Li0 O14 2.253571 1_555
Li1 O53 1.929464 1_554
Li1 O34 2.052638 1_545
Li1 O52 2.080628 1_555
Li1 O16 2.320491 1_555
Li2 O27 1.965573 1_555
Li2 O19 1.981327 1_555
Li2 O17 2.110062 1_565
Li2 O32 2.193562 1_555
Li3 O35 1.990854 1_555
Li3 O28 2.007397 1_555
Li3 O37 2.082185 1_545
Li3 O22 2.160782 1_555
Li4 O48 1.933280 1_555
Li4 O31 2.123039 1_565
Li4 O34 2.123800 1_556
Li4 O40 2.163298 1_555
Li5 O56 1.908162 1_555
Li5 O28 2.017586 1_555
Li5 O25 2.259641 1_555
Li5 O45 2.441414 1_555
Li6 O2 1.967747 1_556
Li6 O48 2.074579 1_655
Li6 O20 2.095844 1_565
Li6 O7 2.546823 1_566
Li7 O0 1.895504 1_655
Li7 O27 2.043220 1_555
Li7 O19 2.145240 1_555
O0 P13 1.475512 1_555
O1 P1 1.539000 1_555
O1 V4 1.906295 1_555
O2 P8 1.475652 1_555
O3 P0 1.550122 1_555
O3 V2 1.879676 1_555
O4 P0 1.543095 1_555
O4 V5 1.927182 1_655
O5 P3 1.573493 1_555
O5 V4 1.869718 1_555
O6 P2 1.556052 1_555
O6 V4 1.895005 1_555
O7 P15 1.491155 1_655
O8 P5 1.544690 1_555
O8 V5 1.879144 1_655
O9 P4 1.581918 1_555
O9 V2 1.842125 1_555
O10 P1 1.565627 1_555
O10 V3 1.871968 1_555
O11 P4 1.577651 1_555
O11 V5 1.869628 1_655
O12 P3 1.485407 1_555
O13 P4 1.480364 1_555
O14 P3 1.558295 1_555
O14 V0 1.948090 1_555
O15 P7 1.545021 1_555
O15 V2 1.905418 1_555
O16 P3 1.597608 1_555
O16 V3 1.894976 1_555
O17 P2 1.551284 1_555
O17 V0 1.971861 1_555
O18 P5 1.608368 1_555
O18 P6 1.620010 1_545
O19 P6 1.494287 1_555
O20 P5 1.492874 1_555
O21 P5 1.551242 1_555
O21 V1 1.887926 1_545
O22 P4 1.565942 1_555
O22 V1 1.956262 1_545
O23 P8 1.557794 1_555
O23 V0 1.942831 1_565
O24 P9 1.551989 1_555
O24 V0 1.887917 1_555
O25 P9 1.562159 1_555
O25 V3 1.938097 1_555
O26 P1 1.607674 1_555
O26 P8 1.611646 1_555
O27 P1 1.492038 1_555
O28 P14 1.509328 1_555
O29 P6 1.552245 1_555
O29 V2 1.861325 1_555
O30 P6 1.528247 1_555
O30 V1 1.934087 1_555
O31 P7 1.553849 1_555
O31 V1 1.951632 1_545
O32 P11 1.565429 1_555
O32 V0 1.970083 1_565
O33 P10 1.526764 1_555
O33 V0 1.918130 1_565
O34 P10 1.506503 1_555
O35 P9 1.489410 1_555
O36 P9 1.614718 1_555
O36 P10 1.625898 1_545
O37 P13 1.568666 1_555
O37 V1 1.931264 1_555
O38 P12 1.569969 1_555
O38 V2 1.873111 1_555
O39 P8 1.570493 1_555
O39 V3 1.866279 1_555
O40 P12 1.576066 1_555
O40 V1 1.938636 1_555
O41 P12 1.481773 1_555
O42 P11 1.487635 1_555
O43 P11 1.562245 1_555
O43 V4 1.884613 1_455
O44 P14 1.534620 1_555
O44 V2 1.926165 1_555
O45 P11 1.600195 1_555
O45 V3 1.852669 1_555
O46 P10 1.550231 1_555
O46 V4 1.900558 1_455
O47 P0 1.609093 1_555
O47 P13 1.611519 1_655
O48 P0 1.497687 1_455
O49 P13 1.549720 1_555
O49 V5 1.901689 1_555
O50 P12 1.580162 1_555
O50 V5 1.849850 1_555
O51 P15 1.551586 1_555
O51 V4 1.904711 1_455
O52 P15 1.566504 1_555
O52 V3 1.976504 1_555
O53 P7 1.489742 1_555
O54 P14 1.611042 1_555
O54 P7 1.622899 1_555
O55 P14 1.548125 1_555
O55 V5 1.901118 1_555
O56 P2 1.488235 1_455
O57 P15 1.609701 1_555
O57 P2 1.617852 1_455
