# generated using pymatgen
data_CsY3O5
_symmetry_space_group_name_H-M   'P 1'
_cell_length_a   3.48978387
_cell_length_b   10.43625230
_cell_length_c   17.41089429
_cell_angle_alpha   90.00000000
_cell_angle_beta   90.00000000
_cell_angle_gamma   90.00000000
_symmetry_Int_Tables_number   1
_chemical_formula_structural   CsY3O5
_chemical_formula_sum   'Cs4 Y12 O20'
_cell_volume   634.10938288
_cell_formula_units_Z   4
loop_
 _symmetry_equiv_pos_site_id
 _symmetry_equiv_pos_as_xyz
  1  'x, y, z'
loop_
 _atom_site_type_symbol
 _atom_site_label
 _atom_site_symmetry_multiplicity
 _atom_site_fract_x
 _atom_site_fract_y
 _atom_site_fract_z
 _atom_site_occupancy
  Cs  Cs0  1  0.75000000  0.02990041  0.62463084  1
  Cs  Cs1  1  0.25000000  0.47009959  0.12463084  1
  Cs  Cs2  1  0.75000000  0.52990041  0.87536916  1
  Cs  Cs3  1  0.25000000  0.97009959  0.37536916  1
  Y  Y0  1  0.75000000  0.10525595  0.16047982  1
  Y  Y1  1  0.25000000  0.15069501  0.98630109  1
  Y  Y2  1  0.75000000  0.18684352  0.81446456  1
  Y  Y3  1  0.25000000  0.31315648  0.31446456  1
  Y  Y4  1  0.75000000  0.34930499  0.48630109  1
  Y  Y5  1  0.25000000  0.39474405  0.66047982  1
  Y  Y6  1  0.75000000  0.60525595  0.33952018  1
  Y  Y7  1  0.25000000  0.65069501  0.51369891  1
  Y  Y8  1  0.75000000  0.68684352  0.68553544  1
  Y  Y9  1  0.25000000  0.81315648  0.18553544  1
  Y  Y10  1  0.75000000  0.84930499  0.01369891  1
  Y  Y11  1  0.25000000  0.89474405  0.83952018  1
  O  O0  1  0.75000000  0.02168049  0.91989490  1
  O  O1  1  0.25000000  0.06982299  0.77145068  1
  O  O2  1  0.25000000  0.19010823  0.21355163  1
  O  O3  1  0.75000000  0.22111790  0.05058564  1
  O  O4  1  0.75000000  0.22959799  0.38440270  1
  O  O5  1  0.25000000  0.27040201  0.88440270  1
  O  O6  1  0.25000000  0.27888210  0.55058564  1
  O  O7  1  0.75000000  0.30989177  0.71355163  1
  O  O8  1  0.75000000  0.43017701  0.27145068  1
  O  O9  1  0.25000000  0.47831951  0.41989490  1
  O  O10  1  0.75000000  0.52168049  0.58010510  1
  O  O11  1  0.25000000  0.56982299  0.72854932  1
  O  O12  1  0.25000000  0.69010823  0.28644837  1
  O  O13  1  0.75000000  0.72111790  0.44941436  1
  O  O14  1  0.75000000  0.72959799  0.11559730  1
  O  O15  1  0.25000000  0.77040201  0.61559730  1
  O  O16  1  0.25000000  0.77888210  0.94941436  1
  O  O17  1  0.75000000  0.80989177  0.78644837  1
  O  O18  1  0.75000000  0.93017701  0.22854932  1
  O  O19  1  0.25000000  0.97831951  0.08010510  1
loop_
_geom_bond_atom_site_label_1
_geom_bond_atom_site_label_2
_geom_bond_distance
_geom_bond_site_symmetry_2
Cs0 O1 3.122936 1_555
Cs0 O1 3.122936 1_655
Cs0 O15 3.225474 1_545
Cs0 O15 3.225474 1_645
Cs0 O7 3.306861 1_555
Cs0 O6 3.385046 1_555
Cs0 O6 3.385046 1_655
Cs1 O8 3.122936 1_455
Cs1 O8 3.122936 1_555
Cs1 O14 3.225474 1_455
Cs1 O14 3.225474 1_555
Cs1 O2 3.306861 1_555
Cs1 O3 3.385046 1_555
Cs1 O3 3.385046 1_455
Cs2 O11 3.122936 1_555
Cs2 O11 3.122936 1_655
Cs2 O5 3.225474 1_555
Cs2 O5 3.225474 1_655
Cs2 O17 3.306861 1_555
Cs2 O16 3.385046 1_555
Cs2 O16 3.385046 1_655
Cs3 O18 3.122936 1_555
Cs3 O18 3.122936 1_455
Cs3 O4 3.225474 1_565
Cs3 O4 3.225474 1_465
Cs3 O12 3.306861 1_555
Cs3 O13 3.385046 1_555
Cs3 O13 3.385046 1_455
O0 Y10 2.429736 1_546
O0 Y1 2.488834 1_655
O0 Y1 2.488834 1_555
O0 Y2 2.518064 1_555
O0 Y11 2.599595 1_645
O0 Y11 2.599595 1_545
O1 Y11 2.177872 1_545
O1 Y2 2.257649 1_455
O1 Y2 2.257649 1_555
O2 Y0 2.163944 1_455
O2 Y0 2.163944 1_555
O2 Y3 2.176251 1_555
O3 Y1 2.199437 1_654
O3 Y1 2.199437 1_554
O3 Y0 2.263407 1_555
O4 Y4 2.169864 1_555
O4 Y3 2.299534 1_655
O4 Y3 2.299534 1_555
O5 Y1 2.169864 1_555
O5 Y2 2.299534 1_455
O5 Y2 2.299534 1_555
O6 Y4 2.199437 1_455
O6 Y4 2.199437 1_555
O6 Y5 2.263407 1_555
O7 Y5 2.163944 1_655
O7 Y5 2.163944 1_555
O7 Y2 2.176251 1_555
O8 Y6 2.177872 1_555
O8 Y3 2.257649 1_655
O8 Y3 2.257649 1_555
O9 Y7 2.429736 1_555
O9 Y4 2.488834 1_455
O9 Y4 2.488834 1_555
O9 Y3 2.518064 1_555
O9 Y6 2.599595 1_555
O9 Y6 2.599595 1_455
O10 Y4 2.429736 1_555
O10 Y7 2.488834 1_655
O10 Y7 2.488834 1_555
O10 Y8 2.518064 1_555
O10 Y5 2.599595 1_655
O10 Y5 2.599595 1_555
O11 Y5 2.177872 1_555
O11 Y8 2.257649 1_455
O11 Y8 2.257649 1_555
O12 Y6 2.163944 1_455
O12 Y6 2.163944 1_555
O12 Y9 2.176251 1_555
O13 Y7 2.199437 1_655
O13 Y7 2.199437 1_555
O13 Y6 2.263407 1_555
O14 Y10 2.169864 1_555
O14 Y9 2.299534 1_655
O14 Y9 2.299534 1_555
O15 Y7 2.169864 1_555
O15 Y8 2.299534 1_455
O15 Y8 2.299534 1_555
O16 Y10 2.199437 1_456
O16 Y10 2.199437 1_556
O16 Y11 2.263407 1_555
O17 Y11 2.163944 1_555
O17 Y11 2.163944 1_655
O17 Y8 2.176251 1_555
O18 Y0 2.177872 1_565
O18 Y9 2.257649 1_555
O18 Y9 2.257649 1_655
O19 Y1 2.429736 1_564
O19 Y10 2.488834 1_555
O19 Y10 2.488834 1_455
O19 Y9 2.518064 1_555
O19 Y0 2.599595 1_565
O19 Y0 2.599595 1_465
