# generated using pymatgen
data_Fe3(O2F)2
_symmetry_space_group_name_H-M   'P 1'
_cell_length_a   3.05320300
_cell_length_b   4.71034300
_cell_length_c   14.02858700
_cell_angle_alpha   90.00000000
_cell_angle_beta   90.00000000
_cell_angle_gamma   90.00000000
_symmetry_Int_Tables_number   1
_chemical_formula_structural   Fe3(O2F)2
_chemical_formula_sum   'Fe6 O8 F4'
_cell_volume   201.75399505
_cell_formula_units_Z   2
loop_
 _symmetry_equiv_pos_site_id
 _symmetry_equiv_pos_as_xyz
  1  'x, y, z'
loop_
 _atom_site_type_symbol
 _atom_site_label
 _atom_site_symmetry_multiplicity
 _atom_site_fract_x
 _atom_site_fract_y
 _atom_site_fract_z
 _atom_site_occupancy
  Fe  Fe0  1  0.50000000  0.93409000  0.67563900  1
  Fe  Fe1  1  0.50000000  0.00000000  0.00000000  1
  Fe  Fe2  1  0.50000000  0.06591000  0.32436100  1
  Fe  Fe3  1  0.00000000  0.43409000  0.82436100  1
  Fe  Fe4  1  0.00000000  0.56591000  0.17563900  1
  Fe  Fe5  1  0.00000000  0.50000000  0.50000000  1
  O  O0  1  0.00000000  0.16796800  0.93390600  1
  O  O1  1  0.00000000  0.24705000  0.26590200  1
  O  O2  1  0.50000000  0.25295000  0.76590200  1
  O  O3  1  0.50000000  0.33203200  0.43390600  1
  O  O4  1  0.50000000  0.74705000  0.23409800  1
  O  O5  1  0.50000000  0.66796800  0.56609400  1
  O  O6  1  0.00000000  0.75295000  0.73409800  1
  O  O7  1  0.00000000  0.83203200  0.06609400  1
  F  F0  1  0.00000000  0.15650900  0.60081500  1
  F  F1  1  0.50000000  0.34349100  0.10081500  1
  F  F2  1  0.50000000  0.65650900  0.89918500  1
  F  F3  1  0.00000000  0.84349100  0.39918500  1
loop_
_geom_bond_atom_site_label_1
_geom_bond_atom_site_label_2
_geom_bond_distance
_geom_bond_site_symmetry_2
Fe0 O6 1.931599 1_555
Fe0 O6 1.931599 1_655
Fe0 O2 1.964496 1_565
Fe0 O5 1.983170 1_555
Fe1 O7 1.953509 1_545
Fe1 O7 1.953509 1_645
Fe1 O0 1.953509 1_554
Fe1 O0 1.953509 1_654
Fe2 O1 1.931599 1_655
Fe2 O1 1.931599 1_555
Fe2 O4 1.964496 1_545
Fe2 O3 1.983170 1_555
Fe3 O2 1.931599 1_455
Fe3 O2 1.931599 1_555
Fe3 O6 1.964496 1_555
Fe3 O0 1.983170 1_555
Fe4 O4 1.931599 1_555
Fe4 O4 1.931599 1_455
Fe4 O1 1.964496 1_555
Fe4 O7 1.983170 1_555
Fe5 O5 1.953509 1_455
Fe5 O5 1.953509 1_555
Fe5 O3 1.953509 1_555
Fe5 O3 1.953509 1_455
F0 Fe0 2.128366 1_445
F0 Fe0 2.128366 1_545
F0 Fe5 2.148957 1_555
F1 Fe4 2.128366 1_555
F1 Fe4 2.128366 1_655
F1 Fe1 2.148957 1_555
F2 Fe3 2.128366 1_655
F2 Fe3 2.128366 1_555
F2 Fe1 2.148957 1_566
F3 Fe2 2.128366 1_465
F3 Fe2 2.128366 1_565
F3 Fe5 2.148957 1_555
