# generated using pymatgen
data_KH(IO3)2
_symmetry_space_group_name_H-M   'P 1'
_cell_length_a   6.92833955
_cell_length_b   8.12471448
_cell_length_c   21.71135339
_cell_angle_alpha   90.00000000
_cell_angle_beta   97.69313910
_cell_angle_gamma   90.00000000
_symmetry_Int_Tables_number   1
_chemical_formula_structural   KH(IO3)2
_chemical_formula_sum   'K8 H8 I16 O48'
_cell_volume   1211.14875807
_cell_formula_units_Z   8
loop_
 _symmetry_equiv_pos_site_id
 _symmetry_equiv_pos_as_xyz
  1  'x, y, z'
loop_
 _atom_site_type_symbol
 _atom_site_label
 _atom_site_symmetry_multiplicity
 _atom_site_fract_x
 _atom_site_fract_y
 _atom_site_fract_z
 _atom_site_occupancy
  K  K0  1  0.25017733  0.62397003  0.00440670  1
  K  K1  1  0.74982267  0.12397003  0.49559330  1
  K  K2  1  0.74982267  0.37602997  0.99559330  1
  K  K3  1  0.25017733  0.87602997  0.50440670  1
  K  K4  1  0.14835255  0.88321417  0.17222974  1
  K  K5  1  0.85164745  0.38321417  0.32777026  1
  K  K6  1  0.85164745  0.11678583  0.82777026  1
  K  K7  1  0.14835255  0.61678583  0.67222974  1
  H  H0  1  0.52957019  0.16881193  0.24941268  1
  H  H1  1  0.47042981  0.66881193  0.25058832  1
  H  H2  1  0.47042981  0.83118807  0.75058732  1
  H  H3  1  0.52957019  0.33118807  0.74941268  1
  H  H4  1  0.78264487  0.64812174  0.24967991  1
  H  H5  1  0.21735513  0.14812174  0.25032009  1
  H  H6  1  0.21735513  0.35187826  0.75032009  1
  H  H7  1  0.78264487  0.85187826  0.74967991  1
  I  I0  1  0.17885871  0.39097366  0.15639154  1
  I  I1  1  0.82114129  0.89097366  0.34360846  1
  I  I2  1  0.82114129  0.60902634  0.84360846  1
  I  I3  1  0.17885871  0.10902634  0.65639154  1
  I  I4  1  0.23070246  0.11144978  0.00123305  1
  I  I5  1  0.76929754  0.61144978  0.49876695  1
  I  I6  1  0.76929754  0.88855022  -0.00123305  1
  I  I7  1  0.23070246  0.38855022  0.50123305  1
  I  I8  1  0.67187092  0.13094800  0.15448345  1
  I  I9  1  0.32812908  0.63094800  0.34551655  1
  I  I10  1  0.32812908  0.86905200  0.84551655  1
  I  I11  1  0.67187092  0.36905200  0.65448345  1
  I  I12  1  0.65849742  0.63675925  0.13600783  1
  I  I13  1  0.34150258  0.13675925  0.36399217  1
  I  I14  1  0.34150258  0.36324075  0.86399217  1
  I  I15  1  0.65849742  0.86324075  0.63600783  1
  O  O0  1  0.05681546  0.22326173  0.19244993  1
  O  O1  1  0.94318454  0.72326173  0.30755007  1
  O  O2  1  0.94318454  0.77673827  0.80755007  1
  O  O3  1  0.05681546  0.27673827  0.69244993  1
  O  O4  1  0.01824179  0.56059130  0.16760882  1
  O  O5  1  0.98175821  0.06059130  0.33239118  1
  O  O6  1  0.98175821  0.43940870  0.83239118  1
  O  O7  1  0.01824179  0.93940870  0.66760882  1
  O  O8  1  0.10250317  0.35240179  0.07434695  1
  O  O9  1  0.89749683  0.85240179  0.42565305  1
  O  O10  1  0.89749683  0.64759821  0.92565305  1
  O  O11  1  0.10250317  0.14759821  0.57434695  1
  O  O12  1  0.99231744  0.13814769  0.95632057  1
  O  O13  1  0.00768256  0.63814769  0.54367943  1
  O  O14  1  0.00768256  0.86185231  0.04367943  1
  O  O15  1  0.99231744  0.36185231  0.45632057  1
  O  O16  1  0.32348291  0.94878863  0.95437688  1
  O  O17  1  0.67651709  0.44878863  0.54562312  1
  O  O18  1  0.67651709  0.05121137  0.04562312  1
  O  O19  1  0.32348291  0.55121137  0.45437688  1
  O  O20  1  0.35092672  0.29247286  0.97275927  1
  O  O21  1  0.64907328  0.79247286  0.52724073  1
  O  O22  1  0.64907328  0.70752714  0.02724073  1
  O  O23  1  0.35092672  0.20752714  0.47275927  1
  O  O24  1  0.41168289  0.10927084  0.13522173  1
  O  O25  1  0.58831711  0.60927084  0.36477727  1
  O  O26  1  0.58831711  0.89072916  0.86477727  1
  O  O27  1  0.41168289  0.39072916  0.63522273  1
  O  O28  1  0.64846414  0.21835329  0.23507202  1
  O  O29  1  0.35153586  0.71835329  0.26492798  1
  O  O30  1  0.35153586  0.78164671  0.76492798  1
  O  O31  1  0.64846414  0.28164671  0.73507202  1
  O  O32  1  0.74270264  0.92616730  0.18243613  1
  O  O33  1  0.25729736  0.42616730  0.31756387  1
  O  O34  1  0.25729736  0.07383270  0.81756387  1
  O  O35  1  0.74270264  0.57383270  0.68243613  1
  O  O36  1  0.40236372  0.68264662  0.12755630  1
  O  O37  1  0.59763628  0.18264662  0.37244370  1
  O  O38  1  0.59763628  0.31735338  0.87244370  1
  O  O39  1  0.40236372  0.81735338  0.62755630  1
  O  O40  1  0.66562752  0.59395072  0.22551745  1
  O  O41  1  0.33437248  0.09395072  0.27448255  1
  O  O42  1  0.33437248  0.40604928  0.77448255  1
  O  O43  1  0.66562752  0.90604928  0.72551745  1
  O  O44  1  0.62684875  0.42559559  0.11032905  1
  O  O45  1  0.37315125  0.92559559  0.38967095  1
  O  O46  1  0.37315125  0.57440441  0.88967095  1
  O  O47  1  0.62684875  0.07440441  0.61032905  1
loop_
_geom_bond_atom_site_label_1
_geom_bond_atom_site_label_2
_geom_bond_distance
_geom_bond_site_symmetry_2
K0 O46 2.767986 1_554
K0 O14 2.769241 1_555
K0 O36 2.780853 1_555
K0 O10 2.795082 1_454
K0 O22 2.824497 1_555
K0 O20 2.888207 1_554
K0 O16 2.924063 1_554
K0 O8 2.938855 1_555
K1 O47 2.767986 1_555
K1 O15 2.769241 1_555
K1 O37 2.780853 1_555
K1 O11 2.795082 1_655
K1 O23 2.824497 1_555
K1 O21 2.888207 1_545
K1 O17 2.924063 1_555
K1 O9 2.938855 1_545
K2 O44 2.767986 1_556
K2 O12 2.769241 1_555
K2 O38 2.780853 1_555
K2 O8 2.795082 1_656
K2 O20 2.824497 1_555
K2 O22 2.888207 1_556
K2 O18 2.924063 1_556
K2 O10 2.938855 1_555
K3 O45 2.767986 1_555
K3 O13 2.769241 1_555
K3 O39 2.780853 1_555
K3 O9 2.795082 1_455
K3 O21 2.824497 1_555
K3 O23 2.888207 1_565
K3 O19 2.924063 1_555
K3 O11 2.938855 1_565
K4 O29 2.658540 1_555
K4 O36 2.674016 1_555
K4 O4 2.769342 1_555
K4 O24 2.782075 1_565
K4 O14 2.835736 1_555
K4 O32 2.869919 1_455
K4 O0 2.881403 1_565
K4 O41 2.958907 1_565
K5 O28 2.658540 1_555
K5 O37 2.674016 1_555
K5 O5 2.769342 1_555
K5 O25 2.782067 1_555
K5 O15 2.835736 1_555
K5 O33 2.869919 1_655
K5 O1 2.881403 1_555
K5 O40 2.958907 1_555
K6 O31 2.658540 1_555
K6 O38 2.674016 1_555
K6 O6 2.769342 1_555
K6 O26 2.782067 1_545
K6 O12 2.835736 1_555
K6 O34 2.869919 1_655
K6 O2 2.881403 1_545
K6 O43 2.958907 1_545
K7 O30 2.658540 1_555
K7 O39 2.674016 1_555
K7 O7 2.769342 1_555
K7 O27 2.782067 1_555
K7 O13 2.835736 1_555
K7 O35 2.869919 1_455
K7 O3 2.881403 1_555
K7 O42 2.958907 1_555
H0 O28 1.003079 1_555
H0 O41 1.640811 1_555
H1 O29 1.003070 1_555
H1 O40 1.640820 1_555
H2 O30 1.003079 1_555
H2 O43 1.640811 1_555
H3 O31 1.003079 1_555
H3 O42 1.640811 1_555
H4 O40 1.006149 1_555
H4 O1 1.677597 1_555
H4 K5 2.741983 1_555
H5 O41 1.006149 1_555
H5 O0 1.677597 1_555
H5 K4 2.741983 1_545
H6 O42 1.006149 1_555
H6 O3 1.677597 1_555
H6 K7 2.741983 1_555
H7 O43 1.006149 1_555
H7 O2 1.677597 1_555
H7 K6 2.741983 1_565
I0 O4 1.808138 1_555
I0 O8 1.816260 1_555
I0 O0 1.833522 1_555
I1 O5 1.808138 1_565
I1 O9 1.816260 1_555
I1 O1 1.833522 1_555
I2 O6 1.808138 1_555
I2 O10 1.816260 1_555
I2 O2 1.833522 1_555
I3 O7 1.808138 1_545
I3 O11 1.816260 1_555
I3 O3 1.833522 1_555
I4 O12 1.815083 1_454
I4 O16 1.835695 1_544
I4 O20 1.837660 1_554
I5 O13 1.815083 1_655
I5 O17 1.835695 1_555
I5 O21 1.837660 1_555
I6 O14 1.815083 1_655
I6 O18 1.835695 1_565
I6 O22 1.837660 1_555
I7 O15 1.815083 1_455
I7 O19 1.835695 1_555
I7 O23 1.837660 1_555
I8 O24 1.803799 1_555
I8 O32 1.815926 1_545
I8 O28 1.915196 1_555
I8 O18 2.455047 1_555
I8 O44 2.582081 1_555
I9 O25 1.803797 1_555
I9 O33 1.815926 1_555
I9 O29 1.915196 1_555
I9 O19 2.455047 1_555
I9 O45 2.582081 1_555
I10 O26 1.803797 1_555
I10 O34 1.815926 1_565
I10 O30 1.915196 1_555
I10 O16 2.455047 1_555
I10 O46 2.582081 1_555
I11 O27 1.803797 1_555
I11 O35 1.815926 1_555
I11 O31 1.915196 1_555
I11 O17 2.455047 1_555
I11 O47 2.582081 1_555
I12 O36 1.798506 1_555
I12 O44 1.808208 1_555
I12 O40 1.968353 1_555
I12 O22 2.422842 1_555
I12 O4 2.570617 1_655
I12 O32 2.593819 1_555
I13 O37 1.798506 1_555
I13 O45 1.808208 1_545
I13 O41 1.968353 1_555
I13 O23 2.422842 1_555
I13 O5 2.570617 1_455
I13 O33 2.593819 1_555
I14 O38 1.798506 1_555
I14 O46 1.808208 1_555
I14 O42 1.968353 1_555
I14 O20 2.422842 1_555
I14 O6 2.570617 1_455
I14 O34 2.593819 1_555
I15 O39 1.798506 1_555
I15 O47 1.808208 1_565
I15 O43 1.968353 1_555
I15 O21 2.422842 1_555
I15 O7 2.570617 1_655
I15 O35 2.593819 1_555
