# generated using pymatgen
data_CaU2Si2H12O17
_symmetry_space_group_name_H-M   'P 1'
_cell_length_a   7.05082400
_cell_length_b   6.72066700
_cell_length_c   16.07511649
_cell_angle_alpha   82.27454744
_cell_angle_beta   90.00000000
_cell_angle_gamma   90.00000000
_symmetry_Int_Tables_number   1
_chemical_formula_structural   CaU2Si2H12O17
_chemical_formula_sum   'Ca2 U4 Si4 H24 O34'
_cell_volume   754.82546570
_cell_formula_units_Z   2
loop_
 _symmetry_equiv_pos_site_id
 _symmetry_equiv_pos_as_xyz
  1  'x, y, z'
loop_
 _atom_site_type_symbol
 _atom_site_label
 _atom_site_symmetry_multiplicity
 _atom_site_fract_x
 _atom_site_fract_y
 _atom_site_fract_z
 _atom_site_occupancy
  Ca  Ca0  1  0.17855500  0.23027100  0.76726200  1
  Ca  Ca1  1  0.67855500  0.76972900  0.23273800  1
  U  U0  1  0.28887900  0.36148800  0.00651600  1
  U  U1  1  0.78887900  0.63851200  0.99348400  1
  U  U2  1  0.72345600  0.63561800  0.49523800  1
  U  U3  1  0.22345600  0.36438200  0.50476200  1
  Si  Si0  1  0.78835700  0.15873900  0.03666100  1
  Si  Si1  1  0.28835700  0.84126100  0.96333900  1
  Si  Si2  1  0.22609900  0.84149100  0.46758000  1
  Si  Si3  1  0.72609900  0.15850900  0.53242000  1
  H  H0  1  0.85861200  0.15149100  0.17472900  1
  H  H1  1  0.35861200  0.84850900  0.82527100  1
  H  H2  1  0.86175800  0.03047400  0.65727400  1
  H  H3  1  0.36175800  0.96952600  0.34272600  1
  H  H4  1  0.83660000  0.07747800  0.87458300  1
  H  H5  1  0.33660000  0.92252200  0.12541700  1
  H  H6  1  0.74484400  0.20761200  0.79588200  1
  H  H7  1  0.24484400  0.79238800  0.20411800  1
  H  H8  1  0.02845400  0.54202100  0.26361300  1
  H  H9  1  0.52845400  0.45797900  0.73638700  1
  H  H10  1  0.57788600  0.27033800  0.68957300  1
  H  H11  1  0.07788600  0.72966200  0.31042700  1
  H  H12  1  0.66111900  0.03341500  0.37281600  1
  H  H13  1  0.16111900  0.96658500  0.62718400  1
  H  H14  1  0.60047500  0.18759000  0.29154300  1
  H  H15  1  0.10047500  0.81241000  0.70845700  1
  H  H16  1  0.94200800  0.58503400  0.79335400  1
  H  H17  1  0.44200800  0.41496600  0.20664600  1
  H  H18  1  0.92196400  0.57043200  0.69605000  1
  H  H19  1  0.42196400  0.42956800  0.30395000  1
  H  H20  1  0.62182600  0.70234700  0.80450300  1
  H  H21  1  0.12182600  0.29765300  0.19549700  1
  H  H22  1  0.57212500  0.81158000  0.71463500  1
  H  H23  1  0.07212500  0.18842000  0.28536500  1
  O  O0  1  0.29827400  0.35912700  0.12251600  1
  O  O1  1  0.79827400  0.64087300  0.87748400  1
  O  O2  1  0.69963400  0.64421500  0.38016000  1
  O  O3  1  0.19963400  0.35578500  0.61984000  1
  O  O4  1  0.27172300  0.36883300  0.89131500  1
  O  O5  1  0.77172300  0.63116700  0.10868500  1
  O  O6  1  0.75031700  0.62031800  0.61021600  1
  O  O7  1  0.25031700  0.37968200  0.38978400  1
  O  O8  1  0.96603400  0.31691800  0.01814700  1
  O  O9  1  0.46603400  0.68308200  0.98185300  1
  O  O10  1  0.04422000  0.68792700  0.47999000  1
  O  O11  1  0.54422000  0.31207300  0.52001000  1
  O  O12  1  0.61193700  0.31488800  0.01059800  1
  O  O13  1  0.11193700  0.68511200  0.98940200  1
  O  O14  1  0.39825700  0.68331600  0.49836800  1
  O  O15  1  0.89825700  0.31668400  0.50163200  1
  O  O16  1  0.79052000  0.97332700  0.98133600  1
  O  O17  1  0.29052000  0.02667300  0.01866400  1
  O  O18  1  0.21465800  0.02633400  0.52305300  1
  O  O19  1  0.71465800  0.97366600  0.47694700  1
  O  O20  1  0.78650000  0.06795900  0.13853700  1
  O  O21  1  0.28650000  0.93204100  0.86146300  1
  O  O22  1  0.23612200  0.92189900  0.36514300  1
  O  O23  1  0.73612200  0.07810100  0.63485700  1
  O  O24  1  0.86579000  0.14728100  0.81768800  1
  O  O25  1  0.36579000  0.85271900  0.18231200  1
  O  O26  1  0.52346300  0.30921200  0.74150900  1
  O  O27  1  0.02346300  0.69078800  0.25849100  1
  O  O28  1  0.11097800  0.95711600  0.68594000  1
  O  O29  1  0.61097800  0.04288400  0.31406000  1
  O  O30  1  0.01530900  0.56275000  0.74264000  1
  O  O31  1  0.51530900  0.43725000  0.25736000  1
  O  O32  1  0.51750700  0.72444100  0.76251500  1
  O  O33  1  0.01750700  0.27555900  0.23748500  1
loop_
_geom_bond_atom_site_label_1
_geom_bond_atom_site_label_2
_geom_bond_distance
_geom_bond_site_symmetry_2
Ca0 O24 2.389507 1_455
Ca0 O4 2.403058 1_555
Ca0 O3 2.410866 1_555
Ca0 O28 2.439522 1_545
Ca0 O21 2.464467 1_545
Ca0 O30 2.497325 1_555
Ca0 O26 2.511547 1_555
Ca1 O25 2.389507 1_555
Ca1 O5 2.403058 1_555
Ca1 O2 2.410866 1_555
Ca1 O29 2.439522 1_565
Ca1 O20 2.464467 1_565
Ca1 O31 2.497325 1_555
Ca1 O27 2.511547 1_655
H0 O20 0.999985 1_555
H1 O21 0.999985 1_555
H2 O23 0.992979 1_555
H3 O22 0.992979 1_555
H4 O24 0.991748 1_555
H5 O25 0.991748 1_555
H6 O24 0.988068 1_555
H7 O25 0.988068 1_555
H8 O27 0.992730 1_555
H9 O26 0.992730 1_555
H10 O26 0.985477 1_555
H11 O27 0.985477 1_555
H12 O29 1.002485 1_555
H12 O19 1.710273 1_545
H13 O28 1.002485 1_555
H13 O18 1.710273 1_565
H14 O29 0.993810 1_555
H15 O28 0.993810 1_555
H16 O30 0.993466 1_655
H17 O31 0.993466 1_555
H18 O30 0.993154 1_655
H19 O31 0.993154 1_555
H20 O32 0.995836 1_555
H21 O33 0.995836 1_555
H22 O32 0.981064 1_555
H23 O33 0.981064 1_555
O0 U0 1.863824 1_555
O1 U1 1.863824 1_555
O2 U2 1.850653 1_555
O3 U3 1.850653 1_555
O4 U0 1.849841 1_556
O5 U1 1.849841 1_554
O6 U2 1.847025 1_555
O7 U3 1.847025 1_555
O8 Si0 1.644098 1_555
O8 U0 2.300277 1_655
O8 U1 2.481604 1_554
O9 Si1 1.644098 1_555
O9 U1 2.300277 1_555
O9 U0 2.481604 1_556
O10 Si2 1.641377 1_555
O10 U2 2.296860 1_455
O10 U3 2.500210 1_555
O11 Si3 1.641377 1_555
O11 U3 2.296860 1_555
O11 U2 2.500210 1_555
O12 Si0 1.644969 1_555
O12 U0 2.298989 1_555
O12 U1 2.490337 1_554
O13 Si1 1.644969 1_555
O13 U1 2.298989 1_455
O13 U0 2.490337 1_556
O14 Si2 1.645296 1_555
O14 U2 2.316703 1_555
O14 U3 2.462670 1_555
O15 Si3 1.645296 1_555
O15 U3 2.316703 1_655
O15 U2 2.462670 1_555
O16 Si0 1.625386 1_566
O16 U1 2.232362 1_555
O17 Si1 1.625386 1_544
O17 U0 2.232362 1_555
O18 Si2 1.625656 1_545
O18 U3 2.252170 1_555
O19 Si3 1.625656 1_565
O19 U2 2.252170 1_555
O20 Si0 1.669051 1_555
O21 Si1 1.669051 1_555
O22 Si2 1.664138 1_555
O23 Si3 1.664138 1_555
