# generated using pymatgen
data_LiTi(PO3)4
_symmetry_space_group_name_H-M   'P 1'
_cell_length_a   8.59914406
_cell_length_b   8.59914406
_cell_length_c   9.51905118
_cell_angle_alpha   60.04856244
_cell_angle_beta   60.04856244
_cell_angle_gamma   50.19719015
_symmetry_Int_Tables_number   1
_chemical_formula_structural   LiTi(PO3)4
_chemical_formula_sum   'Li2 Ti2 P8 O24'
_cell_volume   451.15546622
_cell_formula_units_Z   2
loop_
 _symmetry_equiv_pos_site_id
 _symmetry_equiv_pos_as_xyz
  1  'x, y, z'
loop_
 _atom_site_type_symbol
 _atom_site_label
 _atom_site_symmetry_multiplicity
 _atom_site_fract_x
 _atom_site_fract_y
 _atom_site_fract_z
 _atom_site_occupancy
  Li  Li0  1  0.69488400  0.30511600  0.75000000  1
  Li  Li1  1  0.30511600  0.69488400  0.25000000  1
  Ti  Ti0  1  0.15245200  0.84754800  0.75000000  1
  Ti  Ti1  1  0.84754800  0.15245200  0.25000000  1
  P  P0  1  0.01708300  0.70238200  0.17445000  1
  P  P1  1  0.43040300  0.30591300  0.13021100  1
  P  P2  1  0.69408700  0.56959700  0.36978900  1
  P  P3  1  0.29761800  0.98291700  0.32555000  1
  P  P4  1  0.70238200  0.01708300  0.67445000  1
  P  P5  1  0.30591300  0.43040300  0.63021100  1
  P  P6  1  0.56959700  0.69408700  0.86978900  1
  P  P7  1  0.98291700  0.29761800  0.82555000  1
  O  O0  1  0.60035500  0.19031700  0.21413900  1
  O  O1  1  0.22381600  0.48492600  0.22487400  1
  O  O2  1  0.01595200  0.74535800  0.00117100  1
  O  O3  1  0.83664800  0.66204100  0.31836200  1
  O  O4  1  0.98805100  0.14032500  0.79182900  1
  O  O5  1  0.33795900  0.16335200  0.18163800  1
  O  O6  1  0.25464200  0.98404800  0.49882900  1
  O  O7  1  0.61160200  0.52666500  0.55604400  1
  O  O8  1  0.47333500  0.38839800  0.94395600  1
  O  O9  1  0.51507400  0.77618400  0.27512600  1
  O  O10  1  0.80968300  0.39964500  0.28586100  1
  O  O11  1  0.85967500  0.01194900  0.70817100  1
  O  O12  1  0.14032500  0.98805100  0.29182900  1
  O  O13  1  0.19031700  0.60035500  0.71413900  1
  O  O14  1  0.48492600  0.22381600  0.72487400  1
  O  O15  1  0.52666500  0.61160200  0.05604400  1
  O  O16  1  0.38839800  0.47333500  0.44395600  1
  O  O17  1  0.74535800  0.01595200  0.50117100  1
  O  O18  1  0.66204100  0.83664800  0.81836200  1
  O  O19  1  0.01194900  0.85967500  0.20817100  1
  O  O20  1  0.16335200  0.33795900  0.68163800  1
  O  O21  1  0.98404800  0.25464200  0.99882900  1
  O  O22  1  0.77618400  0.51507400  0.77512600  1
  O  O23  1  0.39964500  0.80968300  0.78586100  1
loop_
_geom_bond_atom_site_label_1
_geom_bond_atom_site_label_2
_geom_bond_distance
_geom_bond_site_symmetry_2
Li0 O8 1.900629 1_555
Li0 O7 1.900629 1_555
Li0 O4 2.094556 1_555
Li0 O11 2.094556 1_555
Li0 O14 2.453529 1_555
Li0 O22 2.453529 1_555
Li1 O16 1.900629 1_555
Li1 O15 1.900629 1_555
Li1 O12 2.094556 1_555
Li1 O19 2.094556 1_555
Li1 O1 2.453529 1_555
Li1 O9 2.453529 1_555
O0 P1 1.508358 1_555
O0 Ti1 2.113852 1_555
O1 P0 1.608467 1_555
O1 P1 1.619563 1_555
O2 P0 1.503364 1_555
O2 Ti0 2.070453 1_554
O3 P0 1.580058 1_655
O3 P2 1.623040 1_555
O4 P7 1.509106 1_555
O4 Ti0 2.092288 1_645
O5 P3 1.580058 1_545
O5 P1 1.623040 1_555
O6 P3 1.503364 1_555
O6 Ti0 2.070453 1_555
O7 P2 1.486196 1_555
O8 P1 1.486196 1_556
O9 P3 1.608467 1_555
O9 P2 1.619563 1_555
O10 P2 1.508358 1_555
O10 Ti1 2.113852 1_555
O11 P4 1.509106 1_555
O11 Ti0 2.092288 1_645
O12 P3 1.509106 1_555
O12 Ti1 2.092288 1_465
O13 P5 1.508358 1_555
O13 Ti0 2.113852 1_555
O14 P4 1.608467 1_555
O14 P5 1.619563 1_555
O15 P6 1.486196 1_554
O16 P5 1.486196 1_555
O17 P4 1.503364 1_555
O17 Ti1 2.070453 1_555
O18 P4 1.580058 1_565
O18 P6 1.623040 1_555
O19 P0 1.509106 1_555
O19 Ti1 2.092288 1_465
O20 P7 1.580058 1_455
O20 P5 1.623040 1_555
O21 P7 1.503364 1_555
O21 Ti1 2.070453 1_556
O22 P7 1.608467 1_555
O22 P6 1.619563 1_555
O23 P6 1.508358 1_555
O23 Ti0 2.113852 1_555
