# generated using pymatgen
data_Li2Co2(SiO3)3
_symmetry_space_group_name_H-M   'P 1'
_cell_length_a   6.15880100
_cell_length_b   9.63144400
_cell_length_c   12.40588700
_cell_angle_alpha   90.00000000
_cell_angle_beta   90.00000000
_cell_angle_gamma   90.00000000
_symmetry_Int_Tables_number   1
_chemical_formula_structural   Li2Co2(SiO3)3
_chemical_formula_sum   'Li8 Co8 Si12 O36'
_cell_volume   735.89422797
_cell_formula_units_Z   4
loop_
 _symmetry_equiv_pos_site_id
 _symmetry_equiv_pos_as_xyz
  1  'x, y, z'
loop_
 _atom_site_type_symbol
 _atom_site_label
 _atom_site_symmetry_multiplicity
 _atom_site_fract_x
 _atom_site_fract_y
 _atom_site_fract_z
 _atom_site_occupancy
  Li  Li0  1  0.14885300  0.55725100  0.08731200  1
  Li  Li1  1  0.14885300  0.94274900  0.08731200  1
  Li  Li2  1  0.64885300  0.05725100  0.41268800  1
  Li  Li3  1  0.64885300  0.44274900  0.41268800  1
  Li  Li4  1  0.35114700  0.55725100  0.58731200  1
  Li  Li5  1  0.35114700  0.94274900  0.58731200  1
  Li  Li6  1  0.85114700  0.05725100  0.91268800  1
  Li  Li7  1  0.85114700  0.44274900  0.91268800  1
  Co  Co0  1  0.70000000  0.50005900  0.16438800  1
  Co  Co1  1  0.70000000  0.99994100  0.16438800  1
  Co  Co2  1  0.20000000  0.00005900  0.33561200  1
  Co  Co3  1  0.20000000  0.49994100  0.33561200  1
  Co  Co4  1  0.80000000  0.50005900  0.66438800  1
  Co  Co5  1  0.80000000  0.99994100  0.66438800  1
  Co  Co6  1  0.30000000  0.00005900  0.83561200  1
  Co  Co7  1  0.30000000  0.49994100  0.83561200  1
  Si  Si0  1  0.54232800  0.75000000  0.03850000  1
  Si  Si1  1  0.02358000  0.25000000  0.07771400  1
  Si  Si2  1  0.42465800  0.25000000  0.21170100  1
  Si  Si3  1  0.92465800  0.75000000  0.28829900  1
  Si  Si4  1  0.52358000  0.75000000  0.42228600  1
  Si  Si5  1  0.04232800  0.25000000  0.46150000  1
  Si  Si6  1  0.95767200  0.75000000  0.53850000  1
  Si  Si7  1  0.47642000  0.25000000  0.57771400  1
  Si  Si8  1  0.07534200  0.25000000  0.71170100  1
  Si  Si9  1  0.57534200  0.75000000  0.78829900  1
  Si  Si10  1  0.97642000  0.75000000  0.92228600  1
  Si  Si11  1  0.45767200  0.25000000  0.96150000  1
  O  O0  1  0.81188800  0.75000000  0.02911400  1
  O  O1  1  0.90291700  0.10106800  0.06948100  1
  O  O2  1  0.90291700  0.39893200  0.06948100  1
  O  O3  1  0.46446900  0.60849000  0.09822300  1
  O  O4  1  0.46446900  0.89151000  0.09822300  1
  O  O5  1  0.53137200  0.25000000  0.09059400  1
  O  O6  1  0.99178500  0.60408500  0.22849900  1
  O  O7  1  0.99178500  0.89591500  0.22849900  1
  O  O8  1  0.16027000  0.25000000  0.19301900  1
  O  O9  1  0.66027000  0.75000000  0.30698100  1
  O  O10  1  0.49178500  0.10408500  0.27150100  1
  O  O11  1  0.49178500  0.39591500  0.27150100  1
  O  O12  1  0.03137200  0.75000000  0.40940600  1
  O  O13  1  0.96446900  0.10849000  0.40177700  1
  O  O14  1  0.96446900  0.39151000  0.40177700  1
  O  O15  1  0.40291700  0.60106800  0.43051900  1
  O  O16  1  0.40291700  0.89893200  0.43051900  1
  O  O17  1  0.31188800  0.25000000  0.47088600  1
  O  O18  1  0.68811200  0.75000000  0.52911400  1
  O  O19  1  0.59708300  0.10106800  0.56948100  1
  O  O20  1  0.59708300  0.39893200  0.56948100  1
  O  O21  1  0.03553100  0.60849000  0.59822300  1
  O  O22  1  0.03553100  0.89151000  0.59822300  1
  O  O23  1  0.96862800  0.25000000  0.59059400  1
  O  O24  1  0.50821500  0.60408500  0.72849900  1
  O  O25  1  0.50821500  0.89591500  0.72849900  1
  O  O26  1  0.33973000  0.25000000  0.69301900  1
  O  O27  1  0.83973000  0.75000000  0.80698100  1
  O  O28  1  0.00821500  0.10408500  0.77150100  1
  O  O29  1  0.00821500  0.39591500  0.77150100  1
  O  O30  1  0.46862800  0.75000000  0.90940600  1
  O  O31  1  0.53553100  0.10849000  0.90177700  1
  O  O32  1  0.53553100  0.39151000  0.90177700  1
  O  O33  1  0.09708300  0.60106800  0.93051900  1
  O  O34  1  0.09708300  0.89893200  0.93051900  1
  O  O35  1  0.18811200  0.25000000  0.97088600  1
loop_
_geom_bond_atom_site_label_1
_geom_bond_atom_site_label_2
_geom_bond_distance
_geom_bond_site_symmetry_2
Li0 O3 2.010048 1_555
Li0 O33 2.015786 1_554
Li0 O6 2.051138 1_455
Li0 O2 2.160625 1_455
Li1 O4 2.010048 1_555
Li1 O34 2.015786 1_554
Li1 O7 2.051138 1_455
Li1 O1 2.160625 1_465
Li2 O13 2.010048 1_555
Li2 O19 2.015786 1_555
Li2 O10 2.051138 1_555
Li2 O16 2.160625 1_545
Li3 O14 2.010048 1_555
Li3 O20 2.015786 1_555
Li3 O11 2.051138 1_555
Li3 O15 2.160625 1_555
Li4 O21 2.010048 1_555
Li4 O15 2.015786 1_555
Li4 O24 2.051138 1_555
Li4 O20 2.160625 1_555
Li5 O22 2.010048 1_555
Li5 O16 2.015786 1_555
Li5 O25 2.051138 1_555
Li5 O19 2.160625 1_565
Li6 O31 2.010048 1_555
Li6 O1 2.015786 1_556
Li6 O28 2.051138 1_655
Li6 O34 2.160625 1_645
Li7 O32 2.010048 1_555
Li7 O2 2.015786 1_556
Li7 O29 2.051138 1_655
Li7 O33 2.160625 1_655
Co0 O3 1.966886 1_555
Co0 O2 1.974024 1_555
Co0 O11 2.101512 1_555
Co0 O6 2.205857 1_555
Co1 O4 1.966886 1_555
Co1 O1 1.974024 1_565
Co1 O10 2.101512 1_565
Co1 O7 2.205857 1_555
Co2 O13 1.966886 1_455
Co2 O16 1.974024 1_545
Co2 O7 2.101512 1_445
Co2 O10 2.205857 1_555
Co3 O14 1.966886 1_455
Co3 O15 1.974024 1_555
Co3 O6 2.101512 1_455
Co3 O11 2.205857 1_555
Co4 O21 1.966886 1_655
Co4 O20 1.974024 1_555
Co4 O29 2.101512 1_655
Co4 O24 2.205857 1_555
Co5 O22 1.966886 1_655
Co5 O19 1.974024 1_565
Co5 O28 2.101512 1_665
Co5 O25 2.205857 1_555
Co6 O31 1.966886 1_555
Co6 O34 1.974024 1_545
Co6 O25 2.101512 1_545
Co6 O28 2.205857 1_555
Co7 O32 1.966886 1_555
Co7 O33 1.974024 1_555
Co7 O24 2.101512 1_555
Co7 O29 2.205857 1_555
O0 Si0 1.664245 1_555
O0 Si10 1.668301 1_554
O1 Si1 1.618727 1_655
O2 Si1 1.618727 1_655
O3 Si0 1.623735 1_555
O4 Si0 1.623735 1_555
O5 Si2 1.639901 1_555
O5 Si11 1.664606 1_554
O6 Si3 1.642060 1_555
O7 Si3 1.642060 1_555
O8 Si2 1.644725 1_555
O8 Si1 1.659796 1_555
O9 Si3 1.644725 1_555
O9 Si4 1.659796 1_555
O10 Si2 1.642060 1_555
O11 Si2 1.642060 1_555
O12 Si3 1.639901 1_455
O12 Si6 1.664606 1_455
O13 Si5 1.623735 1_655
O14 Si5 1.623735 1_655
O15 Si4 1.618727 1_555
O16 Si4 1.618727 1_555
O17 Si5 1.664245 1_555
O17 Si7 1.668301 1_555
O18 Si6 1.664245 1_555
O18 Si4 1.668301 1_555
O19 Si7 1.618727 1_555
O20 Si7 1.618727 1_555
O21 Si6 1.623735 1_455
O22 Si6 1.623735 1_455
O23 Si8 1.639901 1_655
O23 Si5 1.664606 1_655
O24 Si9 1.642060 1_555
O25 Si9 1.642060 1_555
O26 Si8 1.644725 1_555
O26 Si7 1.659796 1_555
O27 Si9 1.644725 1_555
O27 Si10 1.659796 1_555
O28 Si8 1.642060 1_555
O29 Si8 1.642060 1_555
O30 Si9 1.639901 1_555
O30 Si0 1.664606 1_556
O31 Si11 1.623735 1_555
O32 Si11 1.623735 1_555
O33 Si10 1.618727 1_455
O34 Si10 1.618727 1_455
O35 Si11 1.664245 1_555
O35 Si1 1.668301 1_556
