# generated using pymatgen
data_MnZn2Si(HO3)2
_symmetry_space_group_name_H-M   'P 1'
_cell_length_a   5.31766200
_cell_length_b   8.89154600
_cell_length_c   11.66706966
_cell_angle_alpha   80.71893950
_cell_angle_beta   90.00000000
_cell_angle_gamma   90.00000000
_symmetry_Int_Tables_number   1
_chemical_formula_structural   MnZn2Si(HO3)2
_chemical_formula_sum   'Mn4 Zn8 Si4 H8 O24'
_cell_volume   544.42360270
_cell_formula_units_Z   4
loop_
 _symmetry_equiv_pos_site_id
 _symmetry_equiv_pos_as_xyz
  1  'x, y, z'
loop_
 _atom_site_type_symbol
 _atom_site_label
 _atom_site_symmetry_multiplicity
 _atom_site_fract_x
 _atom_site_fract_y
 _atom_site_fract_z
 _atom_site_occupancy
  Mn  Mn0  1  0.85948600  0.01026700  0.61066700  1
  Mn  Mn1  1  0.35948600  0.48973300  0.38933300  1
  Mn  Mn2  1  0.14051400  0.98973300  0.38933300  1
  Mn  Mn3  1  0.64051400  0.51026700  0.61066700  1
  Zn  Zn0  1  0.61063900  0.58878700  0.10608400  1
  Zn  Zn1  1  0.11063900  0.91121300  0.89391600  1
  Zn  Zn2  1  0.38936100  0.41121300  0.89391600  1
  Zn  Zn3  1  0.88936100  0.08878700  0.10608400  1
  Zn  Zn4  1  0.64459600  0.80505900  0.33040400  1
  Zn  Zn5  1  0.14459600  0.69494100  0.66959600  1
  Zn  Zn6  1  0.35540400  0.19494100  0.66959600  1
  Zn  Zn7  1  0.85540400  0.30505900  0.33040400  1
  Si  Si0  1  0.66164500  0.69284000  0.84498600  1
  Si  Si1  1  0.16164500  0.80716000  0.15501400  1
  Si  Si2  1  0.33835500  0.30716000  0.15501400  1
  Si  Si3  1  0.83835500  0.19284000  0.84498600  1
  H  H0  1  0.87153900  0.55469000  0.38472800  1
  H  H1  1  0.37153900  0.94531000  0.61527200  1
  H  H2  1  0.12846100  0.44531000  0.61527200  1
  H  H3  1  0.62846100  0.05469000  0.38472800  1
  H  H4  1  0.40905400  0.09152700  0.07560100  1
  H  H5  1  0.90905400  0.40847300  0.92439900  1
  H  H6  1  0.59094600  0.90847300  0.92439900  1
  H  H7  1  0.09094600  0.59152700  0.07560100  1
  O  O0  1  0.52029200  0.37718000  0.24802000  1
  O  O1  1  0.02029200  0.12282000  0.75198000  1
  O  O2  1  0.47970800  0.62282000  0.75198000  1
  O  O3  1  0.97970800  0.87718000  0.24802000  1
  O  O4  1  0.49574200  0.99609500  0.66414400  1
  O  O5  1  0.99574200  0.50390500  0.33585600  1
  O  O6  1  0.50425800  0.00390500  0.33585600  1
  O  O7  1  0.00425800  0.49609500  0.66414400  1
  O  O8  1  0.51131300  0.18245300  0.09255800  1
  O  O9  1  0.01131300  0.31754700  0.90744200  1
  O  O10  1  0.48868700  0.81754700  0.90744200  1
  O  O11  1  0.98868700  0.68245300  0.09255800  1
  O  O12  1  0.57356000  0.27724400  0.80030200  1
  O  O13  1  0.07356000  0.22275600  0.19969800  1
  O  O14  1  0.42644000  0.72275600  0.19969800  1
  O  O15  1  0.92644000  0.77724400  0.80030200  1
  O  O16  1  0.63825000  0.62530100  0.44114900  1
  O  O17  1  0.13825000  0.87469900  0.55885100  1
  O  O18  1  0.36175000  0.37469900  0.55885100  1
  O  O19  1  0.86175000  0.12530100  0.44114900  1
  O  O20  1  0.71289000  0.54112700  0.94575600  1
  O  O21  1  0.21289000  0.95887300  0.05424400  1
  O  O22  1  0.28711000  0.45887300  0.05424400  1
  O  O23  1  0.78711000  0.04112700  0.94575600  1
loop_
_geom_bond_atom_site_label_1
_geom_bond_atom_site_label_2
_geom_bond_distance
_geom_bond_site_symmetry_2
Mn0 O4 2.030071 1_545
Mn0 O17 2.061786 1_645
Mn0 O19 2.074952 1_555
Mn0 O1 2.232310 1_655
Mn1 O5 2.030071 1_455
Mn1 O16 2.061786 1_555
Mn1 O18 2.074952 1_555
Mn1 O0 2.232310 1_555
Mn2 O6 2.030071 1_565
Mn2 O19 2.061786 1_465
Mn2 O17 2.074952 1_555
Mn2 O3 2.232310 1_455
Mn3 O7 2.030071 1_655
Mn3 O18 2.061786 1_555
Mn3 O16 2.074952 1_555
Mn3 O2 2.232310 1_555
H0 O5 1.023862 1_555
H0 O16 1.581069 1_555
H1 O4 1.023862 1_555
H1 O17 1.581069 1_555
H2 O7 1.023862 1_555
H2 O18 1.581069 1_555
H3 O6 1.023862 1_555
H3 O19 1.581069 1_555
H4 O8 1.019831 1_555
H4 O21 1.623648 1_545
H5 O9 1.019831 1_655
H5 O20 1.623648 1_555
H6 O10 1.019831 1_555
H6 O23 1.623648 1_565
H7 O11 1.019831 1_455
H7 O22 1.623648 1_555
O0 Si2 1.648938 1_555
O0 Zn7 2.076498 1_555
O0 Zn0 2.346949 1_555
O1 Si3 1.648938 1_455
O1 Zn6 2.076498 1_555
O1 Zn1 2.346949 1_545
O2 Si0 1.648938 1_555
O2 Zn5 2.076498 1_555
O2 Zn2 2.346949 1_555
O3 Si1 1.648938 1_655
O3 Zn4 2.076498 1_555
O3 Zn3 2.346949 1_565
O4 Zn6 1.929569 1_565
O5 Zn7 1.929569 1_555
O6 Zn4 1.929569 1_545
O7 Zn5 1.929569 1_555
O8 Si2 1.693228 1_555
O8 Zn3 2.171994 1_555
O9 Si3 1.693228 1_455
O9 Zn2 2.171994 1_555
O10 Si0 1.693228 1_555
O10 Zn1 2.171994 1_555
O11 Si1 1.693228 1_655
O11 Zn0 2.171994 1_555
O12 Si3 1.640588 1_555
O12 Zn2 1.997731 1_555
O12 Zn6 2.137000 1_555
O13 Si2 1.640588 1_555
O13 Zn3 1.997731 1_455
O13 Zn7 2.137000 1_455
O14 Si1 1.640588 1_555
O14 Zn0 1.997731 1_555
O14 Zn4 2.137000 1_555
O15 Si0 1.640588 1_555
O15 Zn1 1.997731 1_655
O15 Zn5 2.137000 1_655
O16 Zn4 1.886559 1_555
O17 Zn5 1.886559 1_555
O18 Zn6 1.886559 1_555
O19 Zn7 1.886559 1_555
O20 Si0 1.662723 1_555
O20 Zn0 2.056673 1_556
O20 Zn2 2.210280 1_555
O21 Si1 1.662723 1_555
O21 Zn1 2.056673 1_554
O21 Zn3 2.210280 1_465
O22 Si2 1.662723 1_555
O22 Zn2 2.056673 1_554
O22 Zn0 2.210280 1_555
O23 Si3 1.662723 1_555
O23 Zn3 2.056673 1_556
O23 Zn1 2.210280 1_645
