# generated using pymatgen
data_Li4Mn2Ni3Sb3O16
_symmetry_space_group_name_H-M   'P 1'
_cell_length_a   6.07506757
_cell_length_b   6.07506757
_cell_length_c   9.69804755
_cell_angle_alpha   87.52942501
_cell_angle_beta   87.52942501
_cell_angle_gamma   60.27489285
_symmetry_Int_Tables_number   1
_chemical_formula_structural   Li4Mn2Ni3Sb3O16
_chemical_formula_sum   'Li4 Mn2 Ni3 Sb3 O16'
_cell_volume   310.43691085
_cell_formula_units_Z   1
loop_
 _symmetry_equiv_pos_site_id
 _symmetry_equiv_pos_as_xyz
  1  'x, y, z'
loop_
 _atom_site_type_symbol
 _atom_site_label
 _atom_site_symmetry_multiplicity
 _atom_site_fract_x
 _atom_site_fract_y
 _atom_site_fract_z
 _atom_site_occupancy
  Li  Li0  1  0.66752200  0.66752200  0.11329300  1
  Li  Li1  1  0.97400500  0.97400500  0.01645600  1
  Li  Li2  1  0.98076900  0.98076900  0.49687000  1
  Li  Li3  1  0.33064300  0.33064300  0.59448100  1
  Mn  Mn0  1  0.67280000  0.67280000  0.49856900  1
  Mn  Mn1  1  0.34943100  0.34943100  0.02583400  1
  Ni  Ni0  1  0.83148200  0.83148200  0.78596400  1
  Ni  Ni1  1  0.17327500  0.66300700  0.28586500  1
  Ni  Ni2  1  0.66300700  0.17327500  0.28586500  1
  Sb  Sb0  1  0.33940700  0.83513300  0.78671400  1
  Sb  Sb1  1  0.83513300  0.33940700  0.78671400  1
  Sb  Sb2  1  0.17039300  0.17039300  0.28759100  1
  O  O0  1  0.32391700  0.84732800  0.40270500  1
  O  O1  1  0.51997900  0.51997900  0.66227900  1
  O  O2  1  0.66079400  0.66079400  0.90047300  1
  O  O3  1  0.00568100  0.00568100  0.68464400  1
  O  O4  1  0.00596900  0.00596900  0.19363400  1
  O  O5  1  0.84732800  0.32391700  0.40270500  1
  O  O6  1  0.51199000  0.97186800  0.66545700  1
  O  O7  1  0.97186800  0.51199000  0.66545700  1
  O  O8  1  0.15276900  0.15276900  0.90183000  1
  O  O9  1  0.82795400  0.82795400  0.39622500  1
  O  O10  1  0.04673200  0.47409300  0.14832700  1
  O  O11  1  0.47409300  0.04673200  0.14832700  1
  O  O12  1  0.32902600  0.32902600  0.39192900  1
  O  O13  1  0.17580300  0.67205000  0.90305200  1
  O  O14  1  0.48511400  0.48511400  0.15792300  1
  O  O15  1  0.67205000  0.17580300  0.90305200  1
loop_
_geom_bond_atom_site_label_1
_geom_bond_atom_site_label_2
_geom_bond_distance
_geom_bond_site_symmetry_2
Li0 O14 1.943797 1_555
Li0 O10 2.037629 1_655
Li0 O11 2.037629 1_565
Li0 O2 2.068668 1_554
Li1 O4 1.767153 1_665
Li1 O13 1.976117 1_654
Li1 O15 1.976117 1_564
Li1 O8 2.134478 1_664
Li2 O3 1.852629 1_665
Li2 O9 1.920241 1_555
Li2 O5 2.015120 1_565
Li2 O0 2.015120 1_655
Li3 O12 1.965279 1_555
Li3 O6 1.998222 1_545
Li3 O7 1.998222 1_455
Li3 O1 2.126215 1_555
Mn0 O9 1.865944 1_555
Mn0 O5 2.082571 1_555
Mn0 O0 2.082571 1_555
Mn0 O1 2.201166 1_555
Mn0 O6 2.287333 1_555
Mn0 O7 2.287333 1_555
Mn1 O14 1.963598 1_555
Mn1 O11 1.968381 1_555
Mn1 O10 1.968381 1_555
Mn1 O15 2.056395 1_554
Mn1 O13 2.056395 1_554
Mn1 O8 2.442186 1_554
Ni0 O3 2.033890 1_665
Ni0 O2 2.061912 1_555
Ni0 O6 2.080500 1_555
Ni0 O7 2.080500 1_555
Ni0 O13 2.168836 1_655
Ni0 O15 2.168836 1_565
Ni1 O4 1.997954 1_565
Ni1 O12 2.017465 1_555
Ni1 O14 2.044273 1_555
Ni1 O9 2.089210 1_455
Ni1 O0 2.142515 1_555
Ni1 O10 2.186914 1_555
Ni2 O4 1.997954 1_655
Ni2 O12 2.017465 1_555
Ni2 O14 2.044273 1_555
Ni2 O9 2.089210 1_545
Ni2 O5 2.142515 1_555
Ni2 O11 2.186914 1_555
O0 Sb2 2.013392 1_565
O1 Sb1 2.080284 1_555
O1 Sb0 2.080284 1_555
O2 Sb0 2.045782 1_555
O2 Sb1 2.045782 1_555
O3 Sb0 2.040889 1_545
O3 Sb1 2.040889 1_455
O4 Sb2 1.993049 1_555
O5 Sb2 2.013392 1_655
O6 Sb0 1.960947 1_555
O7 Sb1 1.960947 1_555
O8 Sb1 2.040198 1_455
O8 Sb0 2.040198 1_545
O10 Sb2 2.071379 1_555
O11 Sb2 2.071379 1_555
O12 Sb2 1.992609 1_555
O13 Sb0 2.006447 1_555
O15 Sb1 2.006447 1_555
