# generated using pymatgen
data_Fe4O3F5
_symmetry_space_group_name_H-M   'P 1'
_cell_length_a   5.88137480
_cell_length_b   5.88137480
_cell_length_c   9.29526294
_cell_angle_alpha   88.57140333
_cell_angle_beta   88.57140333
_cell_angle_gamma   64.30253492
_symmetry_Int_Tables_number   1
_chemical_formula_structural   Fe4O3F5
_chemical_formula_sum   'Fe8 O6 F10'
_cell_volume   289.60241427
_cell_formula_units_Z   2
loop_
 _symmetry_equiv_pos_site_id
 _symmetry_equiv_pos_as_xyz
  1  'x, y, z'
loop_
 _atom_site_type_symbol
 _atom_site_label
 _atom_site_symmetry_multiplicity
 _atom_site_fract_x
 _atom_site_fract_y
 _atom_site_fract_z
 _atom_site_occupancy
  Fe  Fe0  1  0.00000000  0.50000000  0.00000000  1
  Fe  Fe1  1  0.00000000  0.50000000  0.50000000  1
  Fe  Fe2  1  0.01864100  0.01864100  0.73594400  1
  Fe  Fe3  1  0.53719600  0.53719600  0.75908700  1
  Fe  Fe4  1  0.98135900  0.98135900  0.26405600  1
  Fe  Fe5  1  0.46280400  0.46280400  0.24091300  1
  Fe  Fe6  1  0.50000000  0.00000000  0.50000000  1
  Fe  Fe7  1  0.50000000  0.00000000  0.00000000  1
  O  O0  1  0.14404600  0.64872100  0.35656800  1
  O  O1  1  0.35127900  0.85595400  0.64343200  1
  O  O2  1  0.65726800  0.65726800  0.90751000  1
  O  O3  1  0.34273200  0.34273200  0.09249000  1
  O  O4  1  0.64872100  0.14404600  0.35656800  1
  O  O5  1  0.85595400  0.35127900  0.64343200  1
  F  F0  1  0.16279500  0.66906100  0.83711200  1
  F  F1  1  0.33093900  0.83720500  0.16288800  1
  F  F2  1  0.65766600  0.65766600  0.40207300  1
  F  F3  1  0.14106400  0.14106400  0.89834600  1
  F  F4  1  0.15426800  0.15426800  0.39733900  1
  F  F5  1  0.34233400  0.34233400  0.59792700  1
  F  F6  1  0.84573200  0.84573200  0.60266100  1
  F  F7  1  0.85893600  0.85893600  0.10165400  1
  F  F8  1  0.66906100  0.16279500  0.83711200  1
  F  F9  1  0.83720500  0.33093900  0.16288800  1
loop_
_geom_bond_atom_site_label_1
_geom_bond_atom_site_label_2
_geom_bond_distance
_geom_bond_site_symmetry_2
Fe0 O2 2.021799 1_454
Fe0 O3 2.021799 1_555
Fe1 O0 1.946407 1_555
Fe1 O5 1.946407 1_455
Fe2 O1 1.953488 1_545
Fe2 O5 1.953488 1_455
Fe3 O2 1.852144 1_555
Fe3 O5 2.011548 1_555
Fe3 O1 2.011548 1_555
Fe4 O4 1.953488 1_565
Fe4 O0 1.953488 1_655
Fe5 O3 1.852144 1_555
Fe5 O0 2.011548 1_555
Fe5 O4 2.011548 1_555
Fe6 O1 1.946407 1_545
Fe6 O4 1.946407 1_555
Fe7 O2 2.021799 1_544
Fe7 O3 2.021799 1_555
F0 Fe2 2.064447 1_565
F0 Fe3 2.107994 1_555
F0 Fe0 2.208192 1_556
F1 Fe4 2.064447 1_455
F1 Fe5 2.107994 1_555
F1 Fe7 2.208192 1_565
F2 Fe1 2.042634 1_655
F2 Fe6 2.042634 1_565
F2 Fe5 2.486212 1_555
F3 Fe2 1.968154 1_555
F3 Fe0 2.139885 1_556
F3 Fe7 2.139885 1_556
F4 Fe1 2.078958 1_555
F4 Fe6 2.078958 1_555
F4 Fe4 2.150752 1_445
F5 Fe1 2.042634 1_555
F5 Fe6 2.042634 1_555
F5 Fe3 2.486212 1_555
F6 Fe6 2.078958 1_565
F6 Fe1 2.078958 1_655
F6 Fe2 2.150752 1_665
F7 Fe4 1.968154 1_555
F7 Fe0 2.139885 1_655
F7 Fe7 2.139885 1_565
F8 Fe2 2.064447 1_655
F8 Fe3 2.107994 1_555
F8 Fe7 2.208192 1_556
F9 Fe4 2.064447 1_545
F9 Fe5 2.107994 1_555
F9 Fe0 2.208192 1_655
