# generated using pymatgen
data_LiCrPO4
_symmetry_space_group_name_H-M   'P 1'
_cell_length_a   5.02936800
_cell_length_b   8.30133500
_cell_length_c   16.71032300
_cell_angle_alpha   90.00000000
_cell_angle_beta   90.00000000
_cell_angle_gamma   90.00000000
_symmetry_Int_Tables_number   1
_chemical_formula_structural   LiCrPO4
_chemical_formula_sum   'Li8 Cr8 P8 O32'
_cell_volume   697.66381581
_cell_formula_units_Z   8
loop_
 _symmetry_equiv_pos_site_id
 _symmetry_equiv_pos_as_xyz
  1  'x, y, z'
loop_
 _atom_site_type_symbol
 _atom_site_label
 _atom_site_symmetry_multiplicity
 _atom_site_fract_x
 _atom_site_fract_y
 _atom_site_fract_z
 _atom_site_occupancy
  Li  Li0  1  0.94130600  0.03071900  0.94353300  1
  Li  Li1  1  0.46650400  0.14049900  0.36335000  1
  Li  Li2  1  0.96650400  0.35950100  0.86335000  1
  Li  Li3  1  0.44130600  0.46928100  0.44353300  1
  Li  Li4  1  0.94130600  0.53071900  0.55646700  1
  Li  Li5  1  0.46650400  0.64049900  0.13665000  1
  Li  Li6  1  0.96650400  0.85950100  0.63665000  1
  Li  Li7  1  0.44130600  0.96928100  0.05646700  1
  Cr  Cr0  1  0.52307800  0.13118600  0.74895300  1
  Cr  Cr1  1  0.47747200  0.14994900  0.55296100  1
  Cr  Cr2  1  0.97747200  0.35005100  0.05296100  1
  Cr  Cr3  1  0.02307800  0.36881400  0.24895300  1
  Cr  Cr4  1  0.52307800  0.63118600  0.75104700  1
  Cr  Cr5  1  0.47747200  0.64994900  0.94703900  1
  Cr  Cr6  1  0.97747200  0.85005100  0.44703900  1
  Cr  Cr7  1  0.02307800  0.86881400  0.25104700  1
  P  P0  1  0.94881000  0.22826900  0.67684300  1
  P  P1  1  0.43606200  0.24058600  0.93447100  1
  P  P2  1  0.93606200  0.25941400  0.43447100  1
  P  P3  1  0.44881000  0.27173100  0.17684300  1
  P  P4  1  0.94881000  0.72826900  0.82315700  1
  P  P5  1  0.43606200  0.74058600  0.56552900  1
  P  P6  1  0.93606200  0.75941400  0.06552900  1
  P  P7  1  0.44881000  0.77173100  0.32315700  1
  O  O0  1  0.75689000  0.08668000  0.64470500  1
  O  O1  1  0.31864400  0.08222900  0.96378500  1
  O  O2  1  0.77385700  0.11303600  0.46917400  1
  O  O3  1  0.36694500  0.11217900  0.14255600  1
  O  O4  1  0.23985100  0.17551600  0.65749900  1
  O  O5  1  0.73948300  0.25699300  0.95651900  1
  O  O6  1  0.90483900  0.21603600  0.76891800  1
  O  O7  1  0.89743000  0.24113100  0.34271800  1
  O  O8  1  0.39743000  0.25886900  0.84271800  1
  O  O9  1  0.40483900  0.28396400  0.26891800  1
  O  O10  1  0.23948300  0.24300700  0.45651900  1
  O  O11  1  0.73985100  0.32448400  0.15749900  1
  O  O12  1  0.86694500  0.38782100  0.64255600  1
  O  O13  1  0.27385700  0.38696400  0.96917400  1
  O  O14  1  0.81864400  0.41777100  0.46378500  1
  O  O15  1  0.25689000  0.41332000  0.14470500  1
  O  O16  1  0.75689000  0.58668000  0.85529500  1
  O  O17  1  0.31864400  0.58222900  0.53621500  1
  O  O18  1  0.77385700  0.61303600  0.03082600  1
  O  O19  1  0.36694500  0.61217900  0.35744400  1
  O  O20  1  0.23985100  0.67551600  0.84250100  1
  O  O21  1  0.73948300  0.75699300  0.54348100  1
  O  O22  1  0.90483900  0.71603600  0.73108200  1
  O  O23  1  0.89743000  0.74113100  0.15728200  1
  O  O24  1  0.39743000  0.75886900  0.65728200  1
  O  O25  1  0.40483900  0.78396400  0.23108200  1
  O  O26  1  0.23948300  0.74300700  0.04348100  1
  O  O27  1  0.73985100  0.82448400  0.34250100  1
  O  O28  1  0.86694500  0.88782100  0.85744400  1
  O  O29  1  0.27385700  0.88696400  0.53082600  1
  O  O30  1  0.81864400  0.91777100  0.03621500  1
  O  O31  1  0.25689000  0.91332000  0.35529500  1
loop_
_geom_bond_atom_site_label_1
_geom_bond_atom_site_label_2
_geom_bond_distance
_geom_bond_site_symmetry_2
Li0 O28 1.901721 1_545
Li0 O30 1.912675 1_546
Li0 O1 1.974565 1_655
Li0 O5 2.146089 1_555
Li1 O9 2.001149 1_555
Li1 O10 2.109894 1_555
Li1 O31 2.164737 1_545
Li1 O7 2.348159 1_555
Li1 O2 2.359771 1_555
Li2 O6 2.001149 1_555
Li2 O5 2.109894 1_555
Li2 O16 2.164737 1_555
Li2 O8 2.348159 1_655
Li2 O13 2.359771 1_655
Li3 O19 1.901721 1_555
Li3 O17 1.912675 1_555
Li3 O14 1.974565 1_555
Li3 O10 2.146089 1_555
Li4 O12 1.901721 1_555
Li4 O14 1.912675 1_555
Li4 O17 1.974565 1_655
Li4 O21 2.146089 1_555
Li5 O25 2.001149 1_555
Li5 O26 2.109894 1_555
Li5 O15 2.164737 1_555
Li5 O23 2.348159 1_555
Li5 O18 2.359771 1_555
Li6 O22 2.001149 1_555
Li6 O21 2.109894 1_555
Li6 O0 2.164737 1_565
Li6 O24 2.348159 1_655
Li6 O29 2.359771 1_655
Li7 O3 1.901721 1_565
Li7 O1 1.912675 1_564
Li7 O30 1.974565 1_555
Li7 O26 2.146089 1_555
Cr0 O8 1.994444 1_555
Cr0 O6 2.072173 1_555
Cr0 O4 2.121312 1_555
Cr0 O0 2.133994 1_555
Cr1 O2 2.067891 1_555
Cr1 O4 2.127159 1_555
Cr1 O0 2.144999 1_555
Cr1 O10 2.150953 1_555
Cr1 O29 2.439579 1_545
Cr2 O13 2.067891 1_654
Cr2 O11 2.127159 1_555
Cr2 O15 2.144999 1_655
Cr2 O5 2.150953 1_554
Cr2 O18 2.439579 1_555
Cr3 O7 1.994444 1_455
Cr3 O9 2.072173 1_555
Cr3 O11 2.121312 1_455
Cr3 O15 2.133994 1_555
Cr4 O24 1.994444 1_555
Cr4 O22 2.072173 1_555
Cr4 O20 2.121312 1_555
Cr4 O16 2.133994 1_555
Cr5 O18 2.067891 1_556
Cr5 O20 2.127159 1_555
Cr5 O16 2.144999 1_555
Cr5 O26 2.150953 1_556
Cr5 O13 2.439579 1_555
Cr6 O29 2.067891 1_655
Cr6 O27 2.127159 1_555
Cr6 O31 2.144999 1_655
Cr6 O21 2.150953 1_555
Cr6 O2 2.439579 1_565
Cr7 O23 1.994444 1_455
Cr7 O25 2.072173 1_555
Cr7 O27 2.121312 1_455
Cr7 O31 2.133994 1_555
O0 P0 1.612948 1_555
O1 P1 1.522101 1_555
O2 P2 1.574275 1_555
O3 P3 1.500692 1_555
O4 P0 1.561676 1_455
O5 P1 1.575759 1_555
O6 P0 1.557728 1_555
O7 P2 1.552919 1_555
O8 P1 1.552919 1_555
O9 P3 1.557728 1_555
O10 P2 1.575759 1_455
O11 P3 1.561676 1_555
O12 P0 1.500692 1_555
O13 P1 1.574275 1_555
O14 P2 1.522101 1_555
O15 P3 1.612948 1_555
O16 P4 1.612948 1_555
O17 P5 1.522101 1_555
O18 P6 1.574275 1_555
O19 P7 1.500692 1_555
O20 P4 1.561676 1_455
O21 P5 1.575759 1_555
O22 P4 1.557728 1_555
O23 P6 1.552919 1_555
O24 P5 1.552919 1_555
O25 P7 1.557728 1_555
O26 P6 1.575759 1_455
O27 P7 1.561676 1_555
O28 P4 1.500692 1_555
O29 P5 1.574275 1_555
O30 P6 1.522101 1_555
O31 P7 1.612948 1_555
