# generated using pymatgen
data_Li10Fe5Co3O16
_symmetry_space_group_name_H-M   'P 1'
_cell_length_a   5.89948414
_cell_length_b   5.89948414
_cell_length_c   9.72895381
_cell_angle_alpha   89.96227240
_cell_angle_beta   89.96227240
_cell_angle_gamma   59.91191719
_symmetry_Int_Tables_number   1
_chemical_formula_structural   Li10Fe5Co3O16
_chemical_formula_sum   'Li10 Fe5 Co3 O16'
_cell_volume   292.98040043
_cell_formula_units_Z   1
loop_
 _symmetry_equiv_pos_site_id
 _symmetry_equiv_pos_as_xyz
  1  'x, y, z'
loop_
 _atom_site_type_symbol
 _atom_site_label
 _atom_site_symmetry_multiplicity
 _atom_site_fract_x
 _atom_site_fract_y
 _atom_site_fract_z
 _atom_site_occupancy
  Li  Li0  1  0.38352800  0.80638400  0.94548500  1
  Li  Li1  1  0.80638400  0.38352800  0.94548500  1
  Li  Li2  1  0.80285400  0.80285400  0.94621400  1
  Li  Li3  1  0.66934900  0.66934900  0.72393200  1
  Li  Li4  1  0.00152300  0.00152300  0.02158200  1
  Li  Li5  1  0.00441500  0.00441500  0.51451000  1
  Li  Li6  1  0.19428500  0.19428500  0.44663700  1
  Li  Li7  1  0.60986100  0.18613900  0.44287800  1
  Li  Li8  1  0.33048000  0.33048000  0.22378400  1
  Li  Li9  1  0.18613900  0.60986100  0.44287800  1
  Fe  Fe0  1  0.66307100  0.66307100  0.47069300  1
  Fe  Fe1  1  0.33565700  0.33565700  0.97350900  1
  Fe  Fe2  1  0.82528100  0.82528100  0.21622900  1
  Fe  Fe3  1  0.16766500  0.66506500  0.71577800  1
  Fe  Fe4  1  0.66506500  0.16766500  0.71577800  1
  Co  Co0  1  0.33524500  0.83065000  0.21148400  1
  Co  Co1  1  0.17115300  0.17115300  0.71225300  1
  Co  Co2  1  0.83065000  0.33524500  0.21148400  1
  O  O0  1  0.33184200  0.84588700  0.59233600  1
  O  O1  1  0.50973500  0.50973500  0.32825800  1
  O  O2  1  0.65827000  0.65827000  0.10101100  1
  O  O3  1  0.49725800  0.98039900  0.33265000  1
  O  O4  1  0.84588700  0.33184200  0.59233600  1
  O  O5  1  0.01135500  0.01135500  0.82759300  1
  O  O6  1  0.00570800  0.00570800  0.31870400  1
  O  O7  1  0.98039900  0.49725800  0.33265000  1
  O  O8  1  0.16377900  0.16377900  0.10012600  1
  O  O9  1  0.83755900  0.83755900  0.58362300  1
  O  O10  1  0.01632000  0.48764500  0.83489700  1
  O  O11  1  0.48764500  0.01632000  0.83489700  1
  O  O12  1  0.33007000  0.33007000  0.59233800  1
  O  O13  1  0.17037300  0.67055400  0.09457300  1
  O  O14  1  0.49458300  0.49458300  0.83865500  1
  O  O15  1  0.67055400  0.17037300  0.09457300  1
loop_
_geom_bond_atom_site_label_1
_geom_bond_atom_site_label_2
_geom_bond_distance
_geom_bond_site_symmetry_2
Li0 O14 1.919992 1_555
Li0 O11 1.956762 1_565
Li0 O2 2.064354 1_556
Li0 O5 2.222151 1_565
Li0 O13 2.309487 1_556
Li0 O8 2.377110 1_566
Li1 O14 1.919992 1_555
Li1 O10 1.956762 1_655
Li1 O2 2.064354 1_556
Li1 O5 2.222151 1_655
Li1 O15 2.309487 1_556
Li1 O8 2.377110 1_656
Li2 O11 1.967134 1_565
Li2 O10 1.967134 1_655
Li2 O2 2.109338 1_556
Li2 O15 2.387334 1_566
Li2 O13 2.387334 1_656
Li2 O5 2.423055 1_665
Li3 O10 2.075061 1_655
Li3 O11 2.075061 1_565
Li3 O14 2.105854 1_555
Li3 O4 2.147265 1_555
Li3 O0 2.147265 1_555
Li3 O9 2.194705 1_555
Li4 O8 1.826784 1_555
Li4 O15 1.832466 1_455
Li4 O13 1.832466 1_545
Li4 O5 1.889908 1_554
Li5 O9 1.832996 1_445
Li5 O4 1.835450 1_455
Li5 O0 1.835450 1_545
Li5 O6 1.905023 1_555
Li6 O3 1.937686 1_545
Li6 O7 1.937686 1_455
Li6 O12 1.984731 1_555
Li6 O0 2.284223 1_545
Li6 O4 2.284223 1_455
Li6 O6 2.295457 1_555
Li7 O3 1.968668 1_545
Li7 O1 2.025910 1_555
Li7 O12 2.037914 1_555
Li7 O9 2.266570 1_545
Li7 O6 2.356199 1_655
Li7 O4 2.448764 1_555
Li8 O7 2.077583 1_455
Li8 O3 2.077583 1_545
Li8 O8 2.086761 1_555
Li8 O1 2.096167 1_555
Li8 O13 2.143761 1_555
Li8 O15 2.143761 1_555
Li9 O7 1.968668 1_455
Li9 O1 2.025910 1_555
Li9 O12 2.037914 1_555
Li9 O9 2.266570 1_455
Li9 O6 2.356199 1_565
Li9 O0 2.448764 1_555
Fe0 O0 2.065847 1_555
Fe0 O4 2.065847 1_555
Fe0 O1 2.093009 1_555
Fe0 O9 2.095673 1_555
Fe0 O3 2.104162 1_555
Fe0 O7 2.104162 1_555
Fe1 O13 2.076406 1_556
Fe1 O15 2.076406 1_556
Fe1 O14 2.087484 1_555
Fe1 O11 2.116547 1_555
Fe1 O10 2.116547 1_555
Fe1 O8 2.145097 1_556
Fe2 O3 2.021899 1_555
Fe2 O7 2.021899 1_555
Fe2 O2 2.043122 1_555
Fe2 O6 2.097327 1_665
Fe2 O15 2.124568 1_565
Fe2 O13 2.124568 1_655
Fe3 O10 2.042027 1_555
Fe3 O14 2.053510 1_555
Fe3 O5 2.078470 1_565
Fe3 O12 2.090227 1_555
Fe3 O9 2.120322 1_455
Fe3 O0 2.133339 1_555
Fe4 O11 2.042027 1_555
Fe4 O14 2.053510 1_555
Fe4 O5 2.078470 1_655
Fe4 O12 2.090227 1_555
Fe4 O9 2.120322 1_545
Fe4 O4 2.133339 1_555
Co0 O2 1.968902 1_555
Co0 O6 1.979865 1_565
Co0 O3 1.983208 1_555
Co0 O1 1.994823 1_555
Co0 O13 2.013907 1_555
Co0 O8 2.016111 1_565
Co1 O5 1.981153 1_555
Co1 O12 1.999351 1_555
Co1 O10 2.008916 1_555
Co1 O11 2.008916 1_555
Co1 O0 2.029663 1_545
Co1 O4 2.029663 1_455
Co2 O2 1.968902 1_555
Co2 O6 1.979865 1_655
Co2 O7 1.983208 1_555
Co2 O1 1.994823 1_555
Co2 O15 2.013907 1_555
Co2 O8 2.016111 1_655
