# generated using pymatgen
data_Ba3Y2F12
_symmetry_space_group_name_H-M   'P 1'
_cell_length_a   9.83222000
_cell_length_b   9.83222000
_cell_length_c   5.80475900
_cell_angle_alpha   90.00000000
_cell_angle_beta   90.00000000
_cell_angle_gamma   90.00000000
_symmetry_Int_Tables_number   1
_chemical_formula_structural   Ba3Y2F12
_chemical_formula_sum   'Ba6 Y4 F24'
_cell_volume   561.16085541
_cell_formula_units_Z   2
loop_
 _symmetry_equiv_pos_site_id
 _symmetry_equiv_pos_as_xyz
  1  'x, y, z'
loop_
 _atom_site_type_symbol
 _atom_site_label
 _atom_site_symmetry_multiplicity
 _atom_site_fract_x
 _atom_site_fract_y
 _atom_site_fract_z
 _atom_site_occupancy
  Ba  Ba0  1  0.00000000  0.00000000  0.00000000  1
  Ba  Ba1  1  0.67927600  0.17927600  0.50000000  1
  Ba  Ba2  1  0.17927600  0.32072400  0.50000000  1
  Ba  Ba3  1  0.50000000  0.50000000  0.00000000  1
  Ba  Ba4  1  0.82072400  0.67927600  0.50000000  1
  Ba  Ba5  1  0.32072400  0.82072400  0.50000000  1
  Y  Y0  1  0.36692600  0.13307400  0.00000000  1
  Y  Y1  1  0.86692600  0.36692600  0.00000000  1
  Y  Y2  1  0.13307400  0.63307400  0.00000000  1
  Y  Y3  1  0.63307400  0.86692600  0.00000000  1
  F  F0  1  0.50000000  0.00000000  0.23327100  1
  F  F1  1  0.50000000  0.00000000  0.76672900  1
  F  F2  1  0.22089400  0.05544200  0.26024600  1
  F  F3  1  0.22089400  0.05544200  0.73975400  1
  F  F4  1  0.70346300  0.20346300  0.00000000  1
  F  F5  1  0.94455800  0.22089400  0.26024600  1
  F  F6  1  0.94455800  0.22089400  0.73975400  1
  F  F7  1  0.44455800  0.27910600  0.26024600  1
  F  F8  1  0.44455800  0.27910600  0.73975400  1
  F  F9  1  0.20346300  0.29653700  0.00000000  1
  F  F10  1  0.72089400  0.44455800  0.26024600  1
  F  F11  1  0.72089400  0.44455800  0.73975400  1
  F  F12  1  0.00000000  0.50000000  0.23327100  1
  F  F13  1  0.00000000  0.50000000  0.76672900  1
  F  F14  1  0.27910600  0.55544200  0.26024600  1
  F  F15  1  0.27910600  0.55544200  0.73975400  1
  F  F16  1  0.79653700  0.70346300  0.00000000  1
  F  F17  1  0.55544200  0.72089400  0.26024600  1
  F  F18  1  0.55544200  0.72089400  0.73975400  1
  F  F19  1  0.05544200  0.77910600  0.26024600  1
  F  F20  1  0.05544200  0.77910600  0.73975400  1
  F  F21  1  0.29653700  0.79653700  0.00000000  1
  F  F22  1  0.77910600  0.94455800  0.26024600  1
  F  F23  1  0.77910600  0.94455800  0.73975400  1
loop_
_geom_bond_atom_site_label_1
_geom_bond_atom_site_label_2
_geom_bond_distance
_geom_bond_site_symmetry_2
Ba0 F22 2.701170 1_445
Ba0 F23 2.701170 1_444
Ba0 F20 2.701170 1_544
Ba0 F19 2.701170 1_545
Ba0 F5 2.701170 1_455
Ba0 F2 2.701170 1_555
Ba0 F6 2.701170 1_454
Ba0 F3 2.701170 1_554
Ba1 F7 2.868143 1_555
Ba1 F23 2.868143 1_545
Ba1 F8 2.868143 1_555
Ba1 F22 2.868143 1_545
Ba1 F4 2.921800 1_555
Ba1 F4 2.921800 1_556
Ba1 F1 2.934504 1_555
Ba1 F0 2.934504 1_555
Ba1 F10 2.984560 1_555
Ba1 F11 2.984560 1_555
Ba1 F5 2.984560 1_555
Ba1 F6 2.984560 1_555
Ba2 F5 2.868143 1_455
Ba2 F14 2.868143 1_555
Ba2 F15 2.868143 1_555
Ba2 F6 2.868143 1_455
Ba2 F9 2.921800 1_555
Ba2 F9 2.921800 1_556
Ba2 F12 2.934504 1_555
Ba2 F13 2.934504 1_555
Ba2 F7 2.984560 1_555
Ba2 F8 2.984560 1_555
Ba2 F2 2.984560 1_555
Ba2 F3 2.984560 1_555
Ba3 F8 2.701170 1_554
Ba3 F7 2.701170 1_555
Ba3 F17 2.701170 1_555
Ba3 F11 2.701170 1_554
Ba3 F10 2.701170 1_555
Ba3 F15 2.701170 1_554
Ba3 F18 2.701170 1_554
Ba3 F14 2.701170 1_555
Ba4 F10 2.868143 1_555
Ba4 F19 2.868143 1_655
Ba4 F11 2.868143 1_555
Ba4 F20 2.868143 1_655
Ba4 F16 2.921800 1_555
Ba4 F16 2.921800 1_556
Ba4 F13 2.934504 1_655
Ba4 F12 2.934504 1_655
Ba4 F23 2.984560 1_555
Ba4 F18 2.984560 1_555
Ba4 F22 2.984560 1_555
Ba4 F17 2.984560 1_555
Ba5 F3 2.868143 1_565
Ba5 F17 2.868143 1_555
Ba5 F2 2.868143 1_565
Ba5 F18 2.868143 1_555
Ba5 F21 2.921800 1_556
Ba5 F21 2.921800 1_555
Ba5 F1 2.934504 1_565
Ba5 F0 2.934504 1_565
Ba5 F20 2.984560 1_555
Ba5 F15 2.984560 1_555
Ba5 F14 2.984560 1_555
Ba5 F19 2.984560 1_555
F0 Y0 2.292908 1_555
F0 Y3 2.292908 1_545
F1 Y0 2.292908 1_556
F1 Y3 2.292908 1_546
F2 Y0 2.219528 1_555
F3 Y0 2.219528 1_556
F4 Y1 2.272930 1_555
F5 Y1 2.219528 1_555
F6 Y1 2.219528 1_556
F7 Y0 2.219528 1_555
F8 Y0 2.219528 1_556
F9 Y0 2.272930 1_555
F10 Y1 2.219528 1_555
F11 Y1 2.219528 1_556
F12 Y2 2.292908 1_555
F12 Y1 2.292908 1_455
F13 Y2 2.292908 1_556
F13 Y1 2.292908 1_456
F14 Y2 2.219528 1_555
F15 Y2 2.219528 1_556
F16 Y3 2.272930 1_555
F17 Y3 2.219528 1_555
F18 Y3 2.219528 1_556
F19 Y2 2.219528 1_555
F20 Y2 2.219528 1_556
F21 Y2 2.272930 1_555
F22 Y3 2.219528 1_555
F23 Y3 2.219528 1_556
