# generated using pymatgen
data_K3H2S2NO7
_symmetry_space_group_name_H-M   'P 1'
_cell_length_a   6.81868000
_cell_length_b   8.05423302
_cell_length_c   8.21978717
_cell_angle_alpha   97.63848092
_cell_angle_beta   90.89203314
_cell_angle_gamma   103.24889385
_symmetry_Int_Tables_number   1
_chemical_formula_structural   K3H2S2NO7
_chemical_formula_sum   'K6 H4 S4 N2 O14'
_cell_volume   435.01406500
_cell_formula_units_Z   2
loop_
 _symmetry_equiv_pos_site_id
 _symmetry_equiv_pos_as_xyz
  1  'x, y, z'
loop_
 _atom_site_type_symbol
 _atom_site_label
 _atom_site_symmetry_multiplicity
 _atom_site_fract_x
 _atom_site_fract_y
 _atom_site_fract_z
 _atom_site_occupancy
  K  K0  1  0.31308300  0.94455800  0.24086200  1
  K  K1  1  0.68691700  0.05544200  0.75913800  1
  K  K2  1  0.80123300  0.65559700  0.93623600  1
  K  K3  1  0.19876700  0.34440300  0.06376400  1
  K  K4  1  0.33158700  0.32608400  0.57656700  1
  K  K5  1  0.66841300  0.67391600  0.42343300  1
  H  H0  1  0.09971300  0.54520400  0.33974300  1
  H  H1  1  0.90028700  0.45479600  0.66025700  1
  H  H2  1  0.21928700  0.68348900  0.48058500  1
  H  H3  1  0.78071300  0.31651100  0.51941500  1
  S  S0  1  0.15079900  0.93785300  0.72281500  1
  S  S1  1  0.84920100  0.06214700  0.27718500  1
  S  S2  1  0.31939500  0.69327200  0.85402400  1
  S  S3  1  0.68060500  0.30672800  0.14597600  1
  N  N0  1  0.24884800  0.87277900  0.87730700  1
  N  N1  1  0.75115200  0.12722100  0.12269300  1
  O  O0  1  0.95909200  0.81417200  0.66225600  1
  O  O1  1  0.04090800  0.18582800  0.33774400  1
  O  O2  1  0.11359300  0.10708500  0.79073300  1
  O  O3  1  0.88640700  0.89291500  0.20926700  1
  O  O4  1  0.29532800  0.95766300  0.58855400  1
  O  O5  1  0.70467200  0.04233700  0.41144600  1
  O  O6  1  0.14536300  0.54246500  0.80223300  1
  O  O7  1  0.85463700  0.45753500  0.19776700  1
  O  O8  1  0.47893800  0.69368900  0.73201300  1
  O  O9  1  0.52106200  0.30631100  0.26798700  1
  O  O10  1  0.39985700  0.68213000  0.01965300  1
  O  O11  1  0.60014300  0.31787000  0.98034700  1
  O  O12  1  0.23613600  0.59846000  0.38855200  1
  O  O13  1  0.76386400  0.40154000  0.61144800  1
loop_
_geom_bond_atom_site_label_1
_geom_bond_atom_site_label_2
_geom_bond_distance
_geom_bond_site_symmetry_2
K0 O10 2.776481 1_555
K0 O3 2.845689 1_455
K0 O4 2.851339 1_555
K0 O5 2.888223 1_565
K0 O9 2.910957 1_565
K0 N0 2.973243 1_554
K0 O1 3.023626 1_565
K1 O11 2.776481 1_555
K1 O2 2.845689 1_655
K1 O5 2.851339 1_555
K1 O4 2.888223 1_545
K1 O8 2.910957 1_545
K1 N1 2.973243 1_556
K1 O0 3.023626 1_545
K2 O3 2.708816 1_556
K2 O11 2.824673 1_555
K2 O0 2.841058 1_555
K2 O8 2.841252 1_555
K2 O10 2.879886 1_556
K2 O6 2.888483 1_655
K2 O7 2.907280 1_556
K2 N0 3.230193 1_655
K3 O2 2.708816 1_554
K3 O10 2.824673 1_555
K3 O1 2.841058 1_555
K3 O9 2.841252 1_555
K3 O11 2.879886 1_554
K3 O7 2.888483 1_455
K3 O6 2.907280 1_554
K3 N1 3.230193 1_455
K4 O1 2.705793 1_555
K4 O2 2.850421 1_555
K4 O9 2.866556 1_555
K4 O13 2.871573 1_555
K4 O6 2.884221 1_555
K4 O4 2.935678 1_545
K4 O8 2.999846 1_555
K4 O12 3.024751 1_555
K5 O0 2.705793 1_555
K5 O3 2.850421 1_555
K5 O8 2.866556 1_555
K5 O12 2.871573 1_555
K5 O7 2.884221 1_555
K5 O5 2.935678 1_565
K5 O9 2.999846 1_555
K5 O13 3.024751 1_555
H0 O12 0.984889 1_555
H0 K3 2.791227 1_555
H1 O13 0.984889 1_555
H1 K2 2.791227 1_555
H2 O12 0.977513 1_555
H3 O13 0.977513 1_555
N0 S2 1.614443 1_555
N0 S0 1.626476 1_555
N1 S3 1.614443 1_555
N1 S1 1.626476 1_555
O0 S0 1.483208 1_655
O1 S1 1.483208 1_455
O2 S0 1.481387 1_545
O3 S1 1.481387 1_565
O4 S0 1.491036 1_555
O5 S1 1.491036 1_555
O6 S2 1.500295 1_555
O7 S3 1.500295 1_555
O8 S2 1.490801 1_555
O9 S3 1.490801 1_555
O10 S2 1.481337 1_554
O11 S3 1.481337 1_556
