# generated using pymatgen
data_Li4CrFe(WO6)2
_symmetry_space_group_name_H-M   'P 1'
_cell_length_a   5.10489900
_cell_length_b   5.40782337
_cell_length_c   7.50704271
_cell_angle_alpha   85.90474757
_cell_angle_beta   89.94588720
_cell_angle_gamma   89.95914575
_symmetry_Int_Tables_number   1
_chemical_formula_structural   Li4CrFe(WO6)2
_chemical_formula_sum   'Li4 Cr1 Fe1 W2 O12'
_cell_volume   206.71307816
_cell_formula_units_Z   1
loop_
 _symmetry_equiv_pos_site_id
 _symmetry_equiv_pos_as_xyz
  1  'x, y, z'
loop_
 _atom_site_type_symbol
 _atom_site_label
 _atom_site_symmetry_multiplicity
 _atom_site_fract_x
 _atom_site_fract_y
 _atom_site_fract_z
 _atom_site_occupancy
  Li  Li0  1  0.99714700  0.43723100  0.70606200  1
  Li  Li1  1  0.49259300  0.91510800  0.21463000  1
  Li  Li2  1  0.00066600  0.45464300  0.22778300  1
  Li  Li3  1  0.51264900  0.92553000  0.70881900  1
  Cr  Cr0  1  0.00497000  0.98026700  0.98121100  1
  Fe  Fe0  1  0.50211600  0.49674400  0.50174600  1
  W  W0  1  0.98980900  0.00345100  0.47775400  1
  W  W1  1  0.50474300  0.47979300  0.00229700  1
  O  O0  1  0.70682400  0.19811300  0.57468600  1
  O  O1  1  0.87587300  0.01481200  0.24493300  1
  O  O2  1  0.69790000  0.81959300  0.94851800  1
  O  O3  1  0.81005400  0.71383200  0.57302500  1
  O  O4  1  0.19267900  0.70840600  0.06664900  1
  O  O5  1  0.61486000  0.52449700  0.24455100  1
  O  O6  1  0.37745900  0.52559300  0.76527300  1
  O  O7  1  0.81235000  0.31154200  0.94597600  1
  O  O8  1  0.17770700  0.31492300  0.45661000  1
  O  O9  1  0.30310800  0.19687900  0.06851700  1
  O  O10  1  0.11892000  0.00767200  0.76878800  1
  O  O11  1  0.30757300  0.82897100  0.45097500  1
loop_
_geom_bond_atom_site_label_1
_geom_bond_atom_site_label_2
_geom_bond_distance
_geom_bond_site_symmetry_2
Li0 O3 1.983297 1_555
Li0 O6 2.056320 1_655
Li0 O7 2.102038 1_555
Li0 O8 2.228602 1_655
Li0 O0 2.242540 1_555
Li0 O10 2.417987 1_655
Li1 O11 2.033830 1_555
Li1 O1 2.047104 1_565
Li1 O9 2.054716 1_565
Li1 O5 2.198338 1_555
Li1 O4 2.238451 1_555
Li1 O2 2.344946 1_554
Li2 O5 2.010657 1_455
Li2 O4 2.017384 1_555
Li2 O8 2.038424 1_555
Li2 O9 2.446998 1_555
Li2 O1 2.457251 1_455
Li2 O7 2.497451 1_454
Li3 O0 1.989373 1_565
Li3 O2 2.077421 1_555
Li3 O10 2.113163 1_565
Li3 O3 2.194564 1_555
Li3 O6 2.281272 1_555
Li3 O11 2.294416 1_555
Cr0 O10 1.693495 1_565
Cr0 O2 1.818129 1_455
Cr0 O4 1.831797 1_556
Cr0 O7 2.043659 1_465
Cr0 O9 2.057231 1_566
Cr0 O1 2.106870 1_466
Fe0 O0 1.967815 1_555
Fe0 O8 1.968542 1_555
Fe0 O5 2.009553 1_555
Fe0 O3 2.056610 1_555
Fe0 O11 2.063925 1_555
Fe0 O6 2.093935 1_555
O0 W0 1.956996 1_555
O1 W0 1.839401 1_555
O2 W1 2.099487 1_556
O3 W0 1.909814 1_565
O4 W1 2.093008 1_555
O5 W1 1.935641 1_555
O6 W1 1.894371 1_556
O7 W1 1.877268 1_556
O8 W0 1.935522 1_455
O9 W1 1.881497 1_555
O10 W0 2.284331 1_455
O11 W0 1.893776 1_465
