# generated using pymatgen
data_Li3CrPCO7
_symmetry_space_group_name_H-M   'P 1'
_cell_length_a   6.47610900
_cell_length_b   9.51209900
_cell_length_c   9.98235425
_cell_angle_alpha   63.71185407
_cell_angle_beta   90.00000000
_cell_angle_gamma   90.00000000
_symmetry_Int_Tables_number   1
_chemical_formula_structural   Li3CrPCO7
_chemical_formula_sum   'Li12 Cr4 P4 C4 O28'
_cell_volume   551.32997593
_cell_formula_units_Z   4
loop_
 _symmetry_equiv_pos_site_id
 _symmetry_equiv_pos_as_xyz
  1  'x, y, z'
loop_
 _atom_site_type_symbol
 _atom_site_label
 _atom_site_symmetry_multiplicity
 _atom_site_fract_x
 _atom_site_fract_y
 _atom_site_fract_z
 _atom_site_occupancy
  Li  Li0  1  0.24222700  0.10997500  0.55883000  1
  Li  Li1  1  0.25777300  0.10997500  0.05883000  1
  Li  Li2  1  0.47844400  0.29475400  0.73655900  1
  Li  Li3  1  0.02155600  0.29475400  0.23655900  1
  Li  Li4  1  0.74442500  0.35610100  0.93392700  1
  Li  Li5  1  0.75557500  0.35610100  0.43392700  1
  Li  Li6  1  0.24442500  0.64389900  0.56607300  1
  Li  Li7  1  0.25557500  0.64389900  0.06607300  1
  Li  Li8  1  0.97844400  0.70524600  0.76344100  1
  Li  Li9  1  0.52155600  0.70524600  0.26344100  1
  Li  Li10  1  0.74222700  0.89002500  0.94117000  1
  Li  Li11  1  0.75777300  0.89002500  0.44117000  1
  Cr  Cr0  1  0.98570400  0.25901100  0.74654200  1
  Cr  Cr1  1  0.51429600  0.25901100  0.24654200  1
  Cr  Cr2  1  0.48570400  0.74098900  0.75345800  1
  Cr  Cr3  1  0.01429600  0.74098900  0.25345800  1
  P  P0  1  0.24927200  0.41131200  0.93269900  1
  P  P1  1  0.25072800  0.41131200  0.43269900  1
  P  P2  1  0.74927200  0.58868800  0.56730100  1
  P  P3  1  0.75072800  0.58868800  0.06730100  1
  C  C0  1  0.74731200  0.03834900  0.62783800  1
  C  C1  1  0.75268800  0.03834900  0.12783800  1
  C  C2  1  0.24731200  0.96165100  0.87216200  1
  C  C3  1  0.25268800  0.96165100  0.37216200  1
  O  O0  1  0.75661500  0.06251000  0.99147600  1
  O  O1  1  0.74338500  0.06251000  0.49147600  1
  O  O2  1  0.22968800  0.10619600  0.76295500  1
  O  O3  1  0.76549200  0.15198400  0.66503100  1
  O  O4  1  0.27031200  0.10619600  0.26295500  1
  O  O5  1  0.73450800  0.15198400  0.16503100  1
  O  O6  1  0.05912500  0.31516800  0.92264900  1
  O  O7  1  0.43834200  0.31301500  0.93026000  1
  O  O8  1  0.06165800  0.31301500  0.43026000  1
  O  O9  1  0.44087500  0.31516800  0.42264900  1
  O  O10  1  0.74884500  0.42074200  0.70053000  1
  O  O11  1  0.26053800  0.42595200  0.58122500  1
  O  O12  1  0.75115500  0.42074200  0.20053000  1
  O  O13  1  0.23946200  0.42595200  0.08122500  1
  O  O14  1  0.76053800  0.57404800  0.91877500  1
  O  O15  1  0.24884500  0.57925800  0.79947000  1
  O  O16  1  0.73946200  0.57404800  0.41877500  1
  O  O17  1  0.25115500  0.57925800  0.29947000  1
  O  O18  1  0.93834200  0.68698500  0.56974000  1
  O  O19  1  0.55912500  0.68483200  0.57735100  1
  O  O20  1  0.94087500  0.68483200  0.07735100  1
  O  O21  1  0.56165800  0.68698500  0.06974000  1
  O  O22  1  0.26549200  0.84801600  0.83496900  1
  O  O23  1  0.72968800  0.89380400  0.73704500  1
  O  O24  1  0.23450800  0.84801600  0.33496900  1
  O  O25  1  0.77031200  0.89380400  0.23704500  1
  O  O26  1  0.25661500  0.93749000  0.50852400  1
  O  O27  1  0.24338500  0.93749000  0.00852400  1
loop_
_geom_bond_atom_site_label_1
_geom_bond_atom_site_label_2
_geom_bond_distance
_geom_bond_site_symmetry_2
Li0 O26 1.918993 1_545
Li0 O2 2.023615 1_555
Li0 O8 2.132867 1_555
Li0 O9 2.227631 1_555
Li1 O27 1.918993 1_545
Li1 O4 2.023615 1_555
Li1 O7 2.132867 1_554
Li1 O6 2.227631 1_554
Li2 O7 2.033199 1_555
Li2 O11 2.058923 1_555
Li2 O10 2.061619 1_555
Li2 O2 2.337302 1_555
Li2 O3 2.582385 1_555
Li3 O8 2.033199 1_555
Li3 O13 2.058923 1_555
Li3 O12 2.061619 1_455
Li3 O4 2.337302 1_555
Li3 O5 2.582385 1_455
Li4 O14 2.013430 1_555
Li4 O7 2.027762 1_555
Li4 O6 2.087265 1_655
Li4 O10 2.130299 1_555
Li4 O5 2.264604 1_556
Li5 O16 2.013430 1_555
Li5 O8 2.027762 1_655
Li5 O9 2.087265 1_555
Li5 O12 2.130299 1_555
Li5 O3 2.264604 1_555
Li6 O11 2.013430 1_555
Li6 O18 2.027762 1_455
Li6 O19 2.087265 1_555
Li6 O15 2.130299 1_555
Li6 O24 2.264604 1_555
Li7 O13 2.013430 1_555
Li7 O21 2.027762 1_555
Li7 O20 2.087265 1_455
Li7 O17 2.130299 1_555
Li7 O22 2.264604 1_554
Li8 O18 2.033199 1_555
Li8 O14 2.058923 1_555
Li8 O15 2.061619 1_655
Li8 O23 2.337302 1_555
Li8 O22 2.582385 1_655
Li9 O21 2.033199 1_555
Li9 O16 2.058923 1_555
Li9 O17 2.061619 1_555
Li9 O25 2.337302 1_555
Li9 O24 2.582385 1_555
Li10 O0 1.918993 1_565
Li10 O23 2.023615 1_555
Li10 O21 2.132867 1_556
Li10 O20 2.227631 1_556
Li11 O1 1.918993 1_565
Li11 O25 2.023615 1_555
Li11 O18 2.132867 1_555
Li11 O19 2.227631 1_555
Cr0 O10 2.074773 1_555
Cr0 O2 2.103671 1_655
Cr0 O6 2.105621 1_655
Cr0 O3 2.113300 1_555
Cr0 O11 2.468124 1_655
Cr1 O12 2.074773 1_555
Cr1 O4 2.103671 1_555
Cr1 O9 2.105621 1_555
Cr1 O5 2.113300 1_555
Cr1 O13 2.468124 1_555
Cr2 O15 2.074773 1_555
Cr2 O23 2.103671 1_555
Cr2 O19 2.105621 1_555
Cr2 O22 2.113300 1_555
Cr2 O14 2.468124 1_555
Cr3 O17 2.074773 1_555
Cr3 O25 2.103671 1_455
Cr3 O20 2.105621 1_455
Cr3 O24 2.113300 1_555
Cr3 O16 2.468124 1_455
C0 O1 1.276427 1_555
C0 O3 1.294426 1_555
C0 O23 1.328235 1_545
C1 O0 1.276427 1_554
C1 O5 1.294426 1_555
C1 O25 1.328235 1_545
C2 O27 1.276427 1_556
C2 O22 1.294426 1_555
C2 O2 1.328235 1_565
C3 O26 1.276427 1_555
C3 O24 1.294426 1_555
C3 O4 1.328235 1_565
O6 P0 1.563354 1_555
O7 P0 1.547337 1_555
O8 P1 1.547337 1_555
O9 P1 1.563354 1_555
O10 P2 1.561698 1_555
O11 P1 1.550655 1_555
O12 P3 1.561698 1_555
O13 P0 1.550655 1_554
O14 P3 1.550655 1_556
O15 P0 1.561698 1_555
O16 P2 1.550655 1_555
O17 P1 1.561698 1_555
O18 P2 1.547337 1_555
O19 P2 1.563354 1_555
O20 P3 1.563354 1_555
O21 P3 1.547337 1_555
