# generated using pymatgen
data_Li4Ti2Ni5O12
_symmetry_space_group_name_H-M   'P 1'
_cell_length_a   8.93522600
_cell_length_b   5.00766100
_cell_length_c   9.84684496
_cell_angle_alpha   78.64491376
_cell_angle_beta   90.00000000
_cell_angle_gamma   90.00000000
_symmetry_Int_Tables_number   1
_chemical_formula_structural   Li4Ti2Ni5O12
_chemical_formula_sum   'Li8 Ti4 Ni10 O24'
_cell_volume   431.96872123
_cell_formula_units_Z   2
loop_
 _symmetry_equiv_pos_site_id
 _symmetry_equiv_pos_as_xyz
  1  'x, y, z'
loop_
 _atom_site_type_symbol
 _atom_site_label
 _atom_site_symmetry_multiplicity
 _atom_site_fract_x
 _atom_site_fract_y
 _atom_site_fract_z
 _atom_site_occupancy
  Li  Li0  1  0.92620500  0.00430500  0.73723100  1
  Li  Li1  1  0.93218300  0.50160900  0.26097100  1
  Li  Li2  1  0.58084300  0.75713300  0.50177000  1
  Li  Li3  1  0.42620500  0.99569500  0.26276900  1
  Li  Li4  1  0.57775500  0.49716700  0.25493100  1
  Li  Li5  1  0.43218300  0.49839100  0.73902900  1
  Li  Li6  1  0.08084300  0.24286700  0.49823000  1
  Li  Li7  1  0.07775500  0.50283300  0.74506900  1
  Ti  Ti0  1  0.74055900  0.25479000  0.49622900  1
  Ti  Ti1  1  0.75141800  0.76754800  0.98358100  1
  Ti  Ti2  1  0.25141800  0.23245200  0.01641900  1
  Ti  Ti3  1  0.24055900  0.74521000  0.50377100  1
  Ni  Ni0  1  0.91730900  0.24868300  0.00408600  1
  Ni  Ni1  1  0.91883300  0.75205400  0.49757400  1
  Ni  Ni2  1  0.75352400  0.98988900  0.25527500  1
  Ni  Ni3  1  0.58104100  0.24675800  0.99988300  1
  Ni  Ni4  1  0.74374200  0.50359100  0.74176400  1
  Ni  Ni5  1  0.41883300  0.24794600  0.50242600  1
  Ni  Ni6  1  0.41730900  0.75131700  0.99591400  1
  Ni  Ni7  1  0.25352400  0.01011100  0.74472500  1
  Ni  Ni8  1  0.24374200  0.49640900  0.25823600  1
  Ni  Ni9  1  0.08104100  0.75324200  0.00011700  1
  O  O0  1  0.90345300  0.11006300  0.38617900  1
  O  O1  1  0.90899400  0.84991200  0.10880600  1
  O  O2  1  0.76996000  0.87636800  0.60962000  1
  O  O3  1  0.75361600  0.11944400  0.87792900  1
  O  O4  1  0.90454900  0.62686800  0.87828000  1
  O  O5  1  0.90371400  0.39218200  0.61587300  1
  O  O6  1  0.75561000  0.60662300  0.37294300  1
  O  O7  1  0.59397400  0.12716000  0.37874100  1
  O  O8  1  0.59316600  0.88319400  0.11198000  1
  O  O9  1  0.73618200  0.36532400  0.11025200  1
  O  O10  1  0.58820900  0.60031500  0.88699500  1
  O  O11  1  0.58667100  0.37172700  0.60991000  1
  O  O12  1  0.40899400  0.15008800  0.89119400  1
  O  O13  1  0.40345300  0.88993700  0.61382100  1
  O  O14  1  0.26996000  0.12363200  0.39038000  1
  O  O15  1  0.40371400  0.60781800  0.38412700  1
  O  O16  1  0.25361600  0.88055600  0.12207100  1
  O  O17  1  0.40454900  0.37313200  0.12172000  1
  O  O18  1  0.09316600  0.11680600  0.88802000  1
  O  O19  1  0.25561000  0.39337700  0.62705700  1
  O  O20  1  0.23618200  0.63467600  0.88974800  1
  O  O21  1  0.09397400  0.87284000  0.62125900  1
  O  O22  1  0.08667100  0.62827300  0.39009000  1
  O  O23  1  0.08820900  0.39968500  0.11300500  1
loop_
_geom_bond_atom_site_label_1
_geom_bond_atom_site_label_2
_geom_bond_distance
_geom_bond_site_symmetry_2
Li0 O2 2.062878 1_545
Li0 O21 2.068978 1_645
Li0 O5 2.080179 1_555
Li0 O4 2.122530 1_545
Li0 O3 2.223635 1_555
Li0 O18 2.253211 1_655
Li1 O6 2.051761 1_555
Li1 O22 2.059574 1_655
Li1 O1 2.073898 1_555
Li1 O0 2.116246 1_555
Li1 O23 2.149367 1_655
Li1 O9 2.476747 1_555
Li2 O7 2.007716 1_565
Li2 O11 2.012999 1_555
Li2 O13 2.112080 1_555
Li2 O2 2.142300 1_555
Li2 O15 2.178757 1_555
Li2 O6 2.234344 1_555
Li3 O14 2.062878 1_565
Li3 O7 2.068978 1_565
Li3 O15 2.080179 1_555
Li3 O17 2.122530 1_565
Li3 O16 2.223635 1_555
Li3 O8 2.253211 1_555
Li4 O7 2.012690 1_555
Li4 O6 2.104061 1_555
Li4 O15 2.149734 1_555
Li4 O8 2.160024 1_555
Li4 O17 2.195990 1_555
Li4 O9 2.199937 1_555
Li5 O19 2.051761 1_555
Li5 O11 2.059574 1_555
Li5 O12 2.073898 1_555
Li5 O13 2.116246 1_555
Li5 O10 2.149367 1_555
Li5 O20 2.476747 1_555
Li6 O21 2.007716 1_545
Li6 O22 2.012999 1_555
Li6 O0 2.112080 1_455
Li6 O14 2.142300 1_555
Li6 O5 2.178757 1_455
Li6 O19 2.234344 1_555
Li7 O21 2.012690 1_555
Li7 O19 2.104061 1_555
Li7 O5 2.149734 1_455
Li7 O18 2.160024 1_555
Li7 O4 2.195990 1_455
Li7 O20 2.199937 1_555
Ni0 O4 2.051912 1_554
Ni0 O1 2.060491 1_545
Ni0 O9 2.072132 1_555
Ni0 O23 2.091228 1_655
Ni0 O3 2.101883 1_554
Ni0 O18 2.123338 1_654
Ni1 O2 1.909118 1_555
Ni1 O0 1.913578 1_565
Ni1 O5 1.948376 1_555
Ni1 O22 2.002930 1_655
Ni1 O6 2.124952 1_555
Ni1 O21 2.142012 1_655
Ni2 O0 2.030706 1_565
Ni2 O6 2.037338 1_555
Ni2 O7 2.076546 1_565
Ni2 O9 2.130880 1_565
Ni2 O8 2.150879 1_555
Ni2 O1 2.213438 1_555
Ni3 O10 1.897209 1_555
Ni3 O9 1.925961 1_556
Ni3 O8 1.937366 1_546
Ni3 O12 1.986707 1_555
Ni3 O3 2.127855 1_555
Ni3 O17 2.150737 1_556
Ni4 O5 2.040443 1_555
Ni4 O2 2.067907 1_555
Ni4 O11 2.104531 1_555
Ni4 O10 2.117495 1_555
Ni4 O3 2.119056 1_555
Ni4 O4 2.139956 1_555
Ni5 O14 1.909118 1_555
Ni5 O13 1.913578 1_545
Ni5 O15 1.948376 1_555
Ni5 O11 2.002930 1_555
Ni5 O19 2.124952 1_555
Ni5 O7 2.142012 1_555
Ni6 O17 2.051912 1_556
Ni6 O12 2.060491 1_565
Ni6 O20 2.072132 1_555
Ni6 O10 2.091228 1_555
Ni6 O16 2.101883 1_556
Ni6 O8 2.123338 1_556
Ni7 O13 2.030706 1_545
Ni7 O19 2.037338 1_555
Ni7 O21 2.076546 1_545
Ni7 O20 2.130880 1_545
Ni7 O18 2.150879 1_555
Ni7 O12 2.213438 1_555
Ni8 O15 2.040443 1_555
Ni8 O14 2.067907 1_555
Ni8 O22 2.104531 1_555
Ni8 O23 2.117495 1_555
Ni8 O16 2.119056 1_555
Ni8 O17 2.139956 1_555
Ni9 O23 1.897209 1_555
Ni9 O20 1.925961 1_554
Ni9 O18 1.937366 1_564
Ni9 O1 1.986707 1_455
Ni9 O16 2.127855 1_555
Ni9 O4 2.150737 1_454
O0 Ti0 2.031567 1_555
O1 Ti1 1.968057 1_554
O2 Ti0 2.018307 1_565
O3 Ti1 1.861735 1_545
O4 Ti1 1.931629 1_555
O5 Ti0 2.075032 1_555
O6 Ti0 1.937459 1_555
O7 Ti0 1.937402 1_555
O8 Ti1 2.054668 1_554
O9 Ti1 2.154535 1_554
O10 Ti1 2.011503 1_555
O11 Ti0 1.935141 1_555
O12 Ti2 1.968057 1_556
O13 Ti3 2.031567 1_555
O14 Ti3 2.018307 1_545
O15 Ti3 2.075032 1_555
O16 Ti2 1.861735 1_565
O17 Ti2 1.931629 1_555
O18 Ti2 2.054668 1_556
O19 Ti3 1.937459 1_555
O20 Ti2 2.154535 1_556
O21 Ti3 1.937402 1_555
O22 Ti3 1.935141 1_555
O23 Ti2 2.011503 1_555
