# generated using pymatgen
data_VOF
_symmetry_space_group_name_H-M   'P 1'
_cell_length_a   7.84285652
_cell_length_b   7.84285652
_cell_length_c   4.70906782
_cell_angle_alpha   89.78904171
_cell_angle_beta   89.78904171
_cell_angle_gamma   105.84646271
_symmetry_Int_Tables_number   1
_chemical_formula_structural   VOF
_chemical_formula_sum   'V8 O8 F8'
_cell_volume   278.64358455
_cell_formula_units_Z   8
loop_
 _symmetry_equiv_pos_site_id
 _symmetry_equiv_pos_as_xyz
  1  'x, y, z'
loop_
 _atom_site_type_symbol
 _atom_site_label
 _atom_site_symmetry_multiplicity
 _atom_site_fract_x
 _atom_site_fract_y
 _atom_site_fract_z
 _atom_site_occupancy
  V  V0  1  0.61861400  0.61861400  0.56174400  1
  V  V1  1  0.36409900  0.86517400  0.47633100  1
  V  V2  1  0.13648900  0.13648900  0.45224700  1
  V  V3  1  0.86517400  0.36409900  0.47633100  1
  V  V4  1  0.51323200  0.24566600  0.01038400  1
  V  V5  1  0.76116800  0.99597000  0.01052100  1
  V  V6  1  0.24566600  0.51323200  0.01038400  1
  V  V7  1  0.99597000  0.76116800  0.01052100  1
  O  O0  1  0.97960400  0.97960400  0.20482300  1
  O  O1  1  0.72642900  0.21170000  0.19018600  1
  O  O2  1  0.21170000  0.72642900  0.19018600  1
  O  O3  1  0.35670200  0.09569000  0.29702900  1
  O  O4  1  0.09569000  0.35670200  0.29702900  1
  O  O5  1  0.65244700  0.39457200  0.69845100  1
  O  O6  1  0.39457200  0.65244700  0.69845100  1
  O  O7  1  0.78009000  0.78009000  0.81288000  1
  F  F0  1  0.47670300  0.47670300  0.20640600  1
  F  F1  1  0.59853000  0.83918600  0.30384100  1
  F  F2  1  0.83918600  0.59853000  0.30384100  1
  F  F3  1  0.90961800  0.15152800  0.69783000  1
  F  F4  1  0.15152800  0.90961800  0.69783000  1
  F  F5  1  0.01763200  0.53048000  0.79357300  1
  F  F6  1  0.53048000  0.01763200  0.79357300  1
  F  F7  1  0.27867700  0.27867700  0.80560700  1
loop_
_geom_bond_atom_site_label_1
_geom_bond_atom_site_label_2
_geom_bond_distance
_geom_bond_site_symmetry_2
O0 V2 1.892024 1_665
O0 V5 1.979737 1_555
O0 V7 1.979737 1_555
O1 V3 1.934102 1_555
O1 V4 1.958498 1_555
O1 V5 1.978204 1_545
O2 V1 1.934102 1_555
O2 V6 1.958498 1_555
O2 V7 1.978204 1_455
O3 V4 1.974891 1_555
O3 V2 1.978321 1_555
O3 V1 2.007785 1_545
O4 V6 1.974891 1_555
O4 V2 1.978321 1_555
O4 V3 2.007785 1_455
O5 V0 1.954456 1_555
O5 V4 1.998223 1_556
O5 V3 2.035056 1_555
O6 V0 1.954456 1_555
O6 V6 1.998223 1_556
O6 V1 2.035056 1_555
O7 V0 1.937123 1_555
O7 V7 1.975521 1_556
O7 V5 1.975521 1_556
F0 V4 2.123990 1_555
F0 V6 2.123990 1_555
F0 V0 2.151366 1_555
F1 V5 2.040799 1_555
F1 V1 2.068014 1_555
F1 V0 2.151077 1_555
F2 V7 2.040799 1_555
F2 V3 2.068014 1_555
F2 V0 2.151077 1_555
F3 V5 2.051975 1_546
F3 V3 2.072711 1_555
F3 V2 2.148898 1_655
F4 V7 2.051975 1_456
F4 V1 2.072711 1_555
F4 V2 2.148898 1_565
F5 V6 2.098513 1_556
F5 V7 2.127480 1_456
F5 V3 2.130650 1_455
F6 V4 2.098513 1_556
F6 V5 2.127480 1_546
F6 V1 2.130650 1_545
F7 V2 2.145747 1_555
F7 V4 2.156920 1_556
F7 V6 2.156920 1_556
