# generated using pymatgen
data_SmTmO3
_symmetry_space_group_name_H-M   'P 1'
_cell_length_a   5.73125500
_cell_length_b   5.99296500
_cell_length_c   8.40330300
_cell_angle_alpha   90.00000000
_cell_angle_beta   90.00000000
_cell_angle_gamma   90.00000000
_symmetry_Int_Tables_number   1
_chemical_formula_structural   SmTmO3
_chemical_formula_sum   'Sm4 Tm4 O12'
_cell_volume   288.63001805
_cell_formula_units_Z   4
loop_
 _symmetry_equiv_pos_site_id
 _symmetry_equiv_pos_as_xyz
  1  'x, y, z'
loop_
 _atom_site_type_symbol
 _atom_site_label
 _atom_site_symmetry_multiplicity
 _atom_site_fract_x
 _atom_site_fract_y
 _atom_site_fract_z
 _atom_site_occupancy
  Sm  Sm0  1  0.98315400  0.05266400  0.25000000  1
  Sm  Sm1  1  0.48315400  0.44733600  0.75000000  1
  Sm  Sm2  1  0.51684600  0.55266400  0.25000000  1
  Sm  Sm3  1  0.01684600  0.94733600  0.75000000  1
  Tm  Tm0  1  0.50000000  0.00000000  0.00000000  1
  Tm  Tm1  1  0.50000000  0.00000000  0.50000000  1
  Tm  Tm2  1  0.00000000  0.50000000  0.00000000  1
  Tm  Tm3  1  0.00000000  0.50000000  0.50000000  1
  O  O0  1  0.63526700  0.06695700  0.75000000  1
  O  O1  1  0.18722500  0.19026800  0.57191900  1
  O  O2  1  0.18722500  0.19026800  0.92808100  1
  O  O3  1  0.68722500  0.30973200  0.42808100  1
  O  O4  1  0.68722500  0.30973200  0.07191900  1
  O  O5  1  0.13526700  0.43304300  0.25000000  1
  O  O6  1  0.86473300  0.56695700  0.75000000  1
  O  O7  1  0.31277500  0.69026800  0.92808100  1
  O  O8  1  0.31277500  0.69026800  0.57191900  1
  O  O9  1  0.81277500  0.80973200  0.07191900  1
  O  O10  1  0.81277500  0.80973200  0.42808100  1
  O  O11  1  0.36473300  0.93304300  0.25000000  1
loop_
_geom_bond_atom_site_label_1
_geom_bond_atom_site_label_2
_geom_bond_distance
_geom_bond_site_symmetry_2
O0 Tm1 2.274972 1_555
O0 Tm0 2.274972 1_556
O0 Sm3 2.301428 1_645
O0 Sm1 2.440615 1_555
O1 Tm1 2.208813 1_555
O1 Tm3 2.227594 1_555
O1 Sm3 2.304894 1_545
O1 Sm1 2.736683 1_555
O1 Sm0 3.060392 1_455
O2 Tm0 2.208813 1_556
O2 Tm2 2.227594 1_556
O2 Sm3 2.304894 1_545
O2 Sm1 2.736683 1_555
O2 Sm0 3.060392 1_456
O3 Tm3 2.208813 1_655
O3 Tm1 2.227594 1_555
O3 Sm2 2.304894 1_555
O3 Sm0 2.736683 1_555
O3 Sm1 3.060392 1_555
O4 Tm2 2.208813 1_655
O4 Tm0 2.227594 1_555
O4 Sm2 2.304894 1_555
O4 Sm0 2.736683 1_555
O4 Sm1 3.060392 1_554
O5 Tm2 2.274972 1_555
O5 Tm3 2.274972 1_555
O5 Sm2 2.301428 1_555
O5 Sm0 2.440615 1_455
O6 Tm2 2.274972 1_656
O6 Tm3 2.274972 1_655
O6 Sm1 2.301428 1_555
O6 Sm3 2.440615 1_655
O7 Tm2 2.208813 1_556
O7 Tm0 2.227594 1_566
O7 Sm1 2.304894 1_555
O7 Sm3 2.736683 1_555
O7 Sm2 3.060392 1_556
O8 Tm3 2.208813 1_555
O8 Tm1 2.227594 1_565
O8 Sm1 2.304894 1_555
O8 Sm3 2.736683 1_555
O8 Sm2 3.060392 1_555
O9 Tm0 2.208813 1_565
O9 Tm2 2.227594 1_655
O9 Sm0 2.304894 1_565
O9 Sm2 2.736683 1_555
O9 Sm3 3.060392 1_654
O10 Tm1 2.208813 1_565
O10 Tm3 2.227594 1_655
O10 Sm0 2.304894 1_565
O10 Sm2 2.736683 1_555
O10 Sm3 3.060392 1_655
O11 Tm1 2.274972 1_565
O11 Tm0 2.274972 1_565
O11 Sm0 2.301428 1_465
O11 Sm2 2.440615 1_555
