# generated using pymatgen
data_LiMnO2
_symmetry_space_group_name_H-M   'P 1'
_cell_length_a   5.95948263
_cell_length_b   5.95948263
_cell_length_c   5.91679459
_cell_angle_alpha   60.29294375
_cell_angle_beta   60.29294375
_cell_angle_gamma   59.59160903
_symmetry_Int_Tables_number   1
_chemical_formula_structural   LiMnO2
_chemical_formula_sum   'Li4 Mn4 O8'
_cell_volume   148.77414924
_cell_formula_units_Z   4
loop_
 _symmetry_equiv_pos_site_id
 _symmetry_equiv_pos_as_xyz
  1  'x, y, z'
loop_
 _atom_site_type_symbol
 _atom_site_label
 _atom_site_symmetry_multiplicity
 _atom_site_fract_x
 _atom_site_fract_y
 _atom_site_fract_z
 _atom_site_occupancy
  Li  Li0  1  0.50000000  0.50000000  0.00000000  1
  Li  Li1  1  0.00000000  0.50000000  0.00000000  1
  Li  Li2  1  0.50000000  0.00000000  0.00000000  1
  Li  Li3  1  0.00000000  0.00000000  0.50000000  1
  Mn  Mn0  1  0.00000000  0.00000000  0.00000000  1
  Mn  Mn1  1  0.50000000  0.00000000  0.50000000  1
  Mn  Mn2  1  0.00000000  0.50000000  0.50000000  1
  Mn  Mn3  1  0.50000000  0.50000000  0.50000000  1
  O  O0  1  0.75006500  0.75006500  0.71495700  1
  O  O1  1  0.23049400  0.74111400  0.25896000  1
  O  O2  1  0.74111400  0.23049400  0.25896000  1
  O  O3  1  0.24993500  0.24993500  0.28504300  1
  O  O4  1  0.25889100  0.25889100  0.75371000  1
  O  O5  1  0.76950600  0.25888600  0.74104000  1
  O  O6  1  0.25888600  0.76950600  0.74104000  1
  O  O7  1  0.74110900  0.74110900  0.24629000  1
loop_
_geom_bond_atom_site_label_1
_geom_bond_atom_site_label_2
_geom_bond_distance
_geom_bond_site_symmetry_2
Li0 O1 2.097325 1_555
Li0 O2 2.097325 1_555
Li0 O5 2.097325 1_554
Li0 O6 2.097325 1_554
Li0 O3 2.133590 1_555
Li0 O0 2.133590 1_554
Li1 O4 2.042385 1_554
Li1 O7 2.042385 1_455
Li1 O6 2.243664 1_554
Li1 O2 2.243664 1_455
Li1 O3 2.243990 1_555
Li1 O0 2.243990 1_454
Li2 O4 2.042385 1_554
Li2 O7 2.042385 1_545
Li2 O5 2.243664 1_554
Li2 O1 2.243664 1_545
Li2 O3 2.243990 1_555
Li2 O0 2.243990 1_544
Li3 O5 2.096416 1_455
Li3 O6 2.096416 1_545
Li3 O1 2.096416 1_545
Li3 O2 2.096416 1_455
Li3 O3 2.131998 1_555
Li3 O0 2.131998 1_445
Mn0 O1 2.052440 1_545
Mn0 O2 2.052440 1_455
Mn0 O5 2.052440 1_454
Mn0 O6 2.052440 1_544
Mn0 O7 2.199397 1_445
Mn0 O4 2.199397 1_554
Mn1 O0 1.952169 1_545
Mn1 O3 1.952169 1_555
Mn1 O2 2.002716 1_555
Mn1 O6 2.002716 1_545
Mn1 O7 2.147544 1_545
Mn1 O4 2.147544 1_555
Mn2 O0 1.952169 1_455
Mn2 O3 1.952169 1_555
Mn2 O1 2.002716 1_555
Mn2 O5 2.002716 1_455
Mn2 O7 2.147544 1_455
Mn2 O4 2.147544 1_555
Mn3 O4 2.048683 1_555
Mn3 O7 2.048683 1_555
Mn3 O5 2.140379 1_555
Mn3 O6 2.140379 1_555
Mn3 O1 2.140379 1_555
Mn3 O2 2.140379 1_555
