# generated using pymatgen
data_Mn6O7F5
_symmetry_space_group_name_H-M   'P 1'
_cell_length_a   5.63129365
_cell_length_b   5.63129365
_cell_length_c   7.57700471
_cell_angle_alpha   69.48024804
_cell_angle_beta   69.48024804
_cell_angle_gamma   69.25135738
_symmetry_Int_Tables_number   1
_chemical_formula_structural   Mn6O7F5
_chemical_formula_sum   'Mn6 O7 F5'
_cell_volume   203.28844557
_cell_formula_units_Z   1
loop_
 _symmetry_equiv_pos_site_id
 _symmetry_equiv_pos_as_xyz
  1  'x, y, z'
loop_
 _atom_site_type_symbol
 _atom_site_label
 _atom_site_symmetry_multiplicity
 _atom_site_fract_x
 _atom_site_fract_y
 _atom_site_fract_z
 _atom_site_occupancy
  Mn  Mn0  1  0.69098900  0.68119000  0.84483600  1
  Mn  Mn1  1  0.33825700  0.32923900  0.67877700  1
  Mn  Mn2  1  0.67076100  0.66174300  0.32122300  1
  Mn  Mn3  1  0.31881000  0.30901100  0.15516400  1
  Mn  Mn4  1  0.00567900  0.99432100  0.50000000  1
  Mn  Mn5  1  0.97500400  0.02499600  0.00000000  1
  O  O0  1  0.64656700  0.02554100  0.66926100  1
  O  O1  1  0.97445900  0.35343300  0.33073900  1
  O  O2  1  0.21760300  0.22602600  0.95658500  1
  O  O3  1  0.77397400  0.78239700  0.04341500  1
  O  O4  1  0.36439200  0.96273500  0.33181900  1
  O  O5  1  0.03726500  0.63560800  0.66818100  1
  O  O6  1  0.67710700  0.32289300  0.00000000  1
  F  F0  1  0.90615400  0.89754200  0.30188400  1
  F  F1  1  0.57830900  0.57365700  0.61666500  1
  F  F2  1  0.10245800  0.09384600  0.69811600  1
  F  F3  1  0.42634300  0.42169100  0.38333500  1
  F  F4  1  0.29587100  0.70412900  0.00000000  1
loop_
_geom_bond_atom_site_label_1
_geom_bond_atom_site_label_2
_geom_bond_distance
_geom_bond_site_symmetry_2
Mn0 O0 1.916692 1_565
Mn0 O5 1.927781 1_655
Mn0 O6 1.960525 1_556
Mn0 O3 2.022362 1_556
Mn1 O2 1.910427 1_555
Mn1 O5 1.944796 1_555
Mn1 O0 1.959395 1_555
Mn2 O3 1.910427 1_555
Mn2 O4 1.944796 1_555
Mn2 O1 1.959395 1_555
Mn3 O1 1.916692 1_455
Mn3 O4 1.927781 1_545
Mn3 O6 1.960525 1_555
Mn3 O2 2.022362 1_554
Mn4 O4 1.958489 1_555
Mn4 O5 1.958489 1_555
Mn4 O1 1.962953 1_465
Mn4 O0 1.962953 1_465
Mn5 O6 1.906405 1_555
Mn5 O2 1.943139 1_654
Mn5 O3 1.943139 1_545
F0 Mn4 2.060163 1_655
F0 Mn5 2.078951 1_565
F0 Mn2 2.125171 1_555
F1 Mn2 2.028728 1_555
F1 Mn1 2.088418 1_555
F1 Mn0 2.352345 1_555
F2 Mn4 2.060163 1_545
F2 Mn5 2.078951 1_456
F2 Mn1 2.125171 1_555
F3 Mn1 2.028728 1_555
F3 Mn2 2.088418 1_555
F3 Mn3 2.352345 1_555
F4 Mn5 2.053402 1_465
F4 Mn3 2.102035 1_555
F4 Mn0 2.102035 1_554
