# generated using pymatgen
data_Na8FeO6
_symmetry_space_group_name_H-M   'P 1'
_cell_length_a   6.21437647
_cell_length_b   6.21437647
_cell_length_c   12.53624568
_cell_angle_alpha   87.93001802
_cell_angle_beta   87.93001802
_cell_angle_gamma   60.93940854
_symmetry_Int_Tables_number   1
_chemical_formula_structural   Na8FeO6
_chemical_formula_sum   'Na16 Fe2 O12'
_cell_volume   422.81002218
_cell_formula_units_Z   2
loop_
 _symmetry_equiv_pos_site_id
 _symmetry_equiv_pos_as_xyz
  1  'x, y, z'
loop_
 _atom_site_type_symbol
 _atom_site_label
 _atom_site_symmetry_multiplicity
 _atom_site_fract_x
 _atom_site_fract_y
 _atom_site_fract_z
 _atom_site_occupancy
  Na  Na0  1  0.71001787  0.28544075  0.77146343  1
  Na  Na1  1  0.60863404  0.39930349  0.12461788  1
  Na  Na2  1  0.39930349  0.60863404  0.62461788  1
  Na  Na3  1  0.28544075  0.71001787  0.27146343  1
  Na  Na4  1  0.65944249  0.67236254  0.41143554  1
  Na  Na5  1  0.67236254  0.65944249  0.91143554  1
  Na  Na6  1  0.30073602  0.98847533  0.77198000  1
  Na  Na7  1  0.38727607  0.00763080  0.12468489  1
  Na  Na8  1  0.61551402  0.00040652  0.62312883  1
  Na  Na9  1  0.98847533  0.30073602  0.27198000  1
  Na  Na10  1  0.69990683  0.00708346  0.26528230  1
  Na  Na11  1  0.00763080  0.38727607  0.62468489  1
  Na  Na12  1  0.32702924  0.33322261  0.91166153  1
  Na  Na13  1  0.33322261  0.32702924  0.41166153  1
  Na  Na14  1  0.00040652  0.61551402  0.12312883  1
  Na  Na15  1  0.00708346  0.69990683  0.76528230  1
  Fe  Fe0  1  0.99917116  0.00390727  0.99585594  1
  Fe  Fe1  1  0.00390727  0.99917116  0.49585594  1
  O  O0  1  0.71368616  0.26272752  0.95599316  1
  O  O1  1  0.26272752  0.71368616  0.45599316  1
  O  O2  1  0.66165449  0.67314701  0.22216919  1
  O  O3  1  0.99547102  0.02048439  0.14368110  1
  O  O4  1  0.02048439  0.99547102  0.64368110  1
  O  O5  1  0.67314701  0.66165449  0.72216919  1
  O  O6  1  0.28976124  0.97610265  0.95620918  1
  O  O7  1  0.97610265  0.28976124  0.45620918  1
  O  O8  1  0.73687440  0.00113875  0.44476168  1
  O  O9  1  0.33898309  0.32578876  0.72241634  1
  O  O10  1  0.32578876  0.33898309  0.22241634  1
  O  O11  1  0.00113875  0.73687440  0.94476168  1
loop_
_geom_bond_atom_site_label_1
_geom_bond_atom_site_label_2
_geom_bond_distance
_geom_bond_site_symmetry_2
Na0 O5 2.299080 1_555
Na0 O9 2.299358 1_555
Na0 O0 2.312778 1_555
Na0 O4 2.478600 1_645
Na1 O0 2.259833 1_554
Na1 O10 2.276927 1_555
Na1 O2 2.285671 1_555
Na1 O3 2.425102 1_555
Na2 O1 2.259833 1_555
Na2 O9 2.276927 1_555
Na2 O5 2.285671 1_555
Na2 O4 2.425102 1_555
Na3 O2 2.299080 1_555
Na3 O10 2.299358 1_555
Na3 O1 2.312778 1_555
Na3 O3 2.478600 1_465
Na4 O7 2.297532 1_555
Na4 O8 2.368920 1_565
Na4 O2 2.372075 1_555
Na4 O1 2.398268 1_555
Na5 O6 2.297532 1_555
Na5 O11 2.368920 1_655
Na5 O5 2.372075 1_555
Na5 O0 2.398268 1_555
Na6 O9 2.283820 1_565
Na6 O5 2.300400 1_555
Na6 O6 2.307691 1_555
Na6 O4 2.397015 1_555
Na7 O6 2.259221 1_544
Na7 O2 2.290278 1_545
Na7 O10 2.295919 1_555
Na7 O3 2.400419 1_455
Na8 O5 2.283040 1_545
Na8 O9 2.289690 1_555
Na8 O8 2.334421 1_555
Na8 O4 2.524297 1_645
Na9 O10 2.283820 1_655
Na9 O2 2.300400 1_555
Na9 O7 2.307691 1_555
Na9 O3 2.397015 1_555
Na10 O8 2.267095 1_555
Na10 O2 2.285748 1_545
Na10 O10 2.302141 1_555
Na10 O3 2.375204 1_555
Na11 O7 2.259221 1_455
Na11 O5 2.290278 1_455
Na11 O9 2.295919 1_555
Na11 O4 2.400419 1_545
Na12 O0 2.308820 1_555
Na12 O9 2.372320 1_555
Na12 O11 2.375973 1_555
Na12 O6 2.385613 1_545
Na13 O1 2.308820 1_555
Na13 O10 2.372320 1_555
Na13 O8 2.375973 1_555
Na13 O7 2.385613 1_455
Na14 O2 2.283040 1_455
Na14 O10 2.289690 1_555
Na14 O11 2.334421 1_554
Na14 O3 2.524297 1_465
Na15 O11 2.267095 1_555
Na15 O5 2.285748 1_455
Na15 O9 2.302141 1_555
Na15 O4 2.375204 1_555
Fe0 O6 1.782182 1_645
Fe0 O0 1.793900 1_555
Fe0 O11 1.794627 1_645
Fe0 O3 1.858441 1_556
Fe1 O7 1.782182 1_465
Fe1 O1 1.793900 1_555
Fe1 O8 1.794627 1_465
Fe1 O4 1.858441 1_555
