# generated using pymatgen
data_LiVSiO4
_symmetry_space_group_name_H-M   'P 1'
_cell_length_a   10.24638816
_cell_length_b   10.24638816
_cell_length_c   17.51428406
_cell_angle_alpha   71.62818862
_cell_angle_beta   71.62818862
_cell_angle_gamma   58.69529899
_symmetry_Int_Tables_number   1
_chemical_formula_structural   LiVSiO4
_chemical_formula_sum   'Li16 V16 Si16 O64'
_cell_volume   1464.79524839
_cell_formula_units_Z   16
loop_
 _symmetry_equiv_pos_site_id
 _symmetry_equiv_pos_as_xyz
  1  'x, y, z'
loop_
 _atom_site_type_symbol
 _atom_site_label
 _atom_site_symmetry_multiplicity
 _atom_site_fract_x
 _atom_site_fract_y
 _atom_site_fract_z
 _atom_site_occupancy
  Li  Li0  1  0.43749000  0.37312800  0.18447100  1
  Li  Li1  1  0.36628100  0.93524500  0.68731200  1
  Li  Li2  1  0.26433900  0.18206900  0.43605500  1
  Li  Li3  1  0.76524000  0.61799900  0.43670800  1
  Li  Li4  1  0.68439000  0.26298900  0.93602200  1
  Li  Li5  1  0.11791700  0.76485100  0.93724500  1
  Li  Li6  1  0.49595800  0.88109700  0.18796600  1
  Li  Li7  1  0.93524500  0.36628100  0.18731200  1
  Li  Li8  1  0.87295100  0.99444600  0.68788200  1
  Li  Li9  1  0.37312800  0.43749000  0.68447100  1
  Li  Li10  1  0.26298900  0.68439000  0.43602200  1
  Li  Li11  1  0.76485100  0.11791700  0.43724500  1
  Li  Li12  1  0.18206900  0.26433900  0.93605500  1
  Li  Li13  1  0.61799900  0.76524000  0.93670800  1
  Li  Li14  1  0.99444600  0.87295100  0.18788200  1
  Li  Li15  1  0.88109700  0.49595800  0.68796600  1
  V  V0  1  0.12770100  0.50152800  0.31255800  1
  V  V1  1  0.56186000  0.62559300  0.81359600  1
  V  V2  1  0.00096200  0.13064600  0.81328400  1
  V  V3  1  0.38099600  0.23591900  0.06257700  1
  V  V4  1  0.81210300  0.73840200  0.06448000  1
  V  V5  1  0.23937900  0.87920700  0.56313900  1
  V  V6  1  0.73818200  0.31247300  0.56364600  1
  V  V7  1  0.62559300  0.56186000  0.31359600  1
  V  V8  1  0.13064600  0.00096200  0.31328400  1
  V  V9  1  0.06338200  0.62979700  0.81292200  1
  V  V10  1  0.50152800  0.12770100  0.81255800  1
  V  V11  1  0.87920700  0.23937900  0.06313900  1
  V  V12  1  0.31247300  0.73818200  0.06364600  1
  V  V13  1  0.23591900  0.38099600  0.56257700  1
  V  V14  1  0.73840200  0.81210300  0.56448000  1
  V  V15  1  0.62979700  0.06338200  0.31292200  1
  Si  Si0  1  0.68923500  0.06110900  0.12216800  1
  Si  Si1  1  0.12678400  0.55909800  0.12396600  1
  Si  Si2  1  0.05912300  0.18704500  0.62294400  1
  Si  Si3  1  0.56315200  0.62653500  0.62440600  1
  Si  Si4  1  0.43934900  0.87481100  0.37381600  1
  Si  Si5  1  0.93672500  0.31441500  0.37478500  1
  Si  Si6  1  0.37335500  0.43663700  0.87374300  1
  Si  Si7  1  0.81451000  0.93845900  0.87540300  1
  Si  Si8  1  0.18704500  0.05912300  0.12294400  1
  Si  Si9  1  0.62653500  0.56315200  0.12440600  1
  Si  Si10  1  0.06110900  0.68923500  0.62216800  1
  Si  Si11  1  0.55909800  0.12678400  0.62396600  1
  Si  Si12  1  0.43663700  0.37335500  0.37374300  1
  Si  Si13  1  0.93845900  0.81451000  0.37540300  1
  Si  Si14  1  0.87481100  0.43934900  0.87381600  1
  Si  Si15  1  0.31441500  0.93672500  0.87478500  1
  O  O0  1  0.96924200  0.63539000  0.38888600  1
  O  O1  1  0.17521100  0.67675200  0.04579900  1
  O  O2  1  0.58193900  0.14043200  0.20359100  1
  O  O3  1  0.08349500  0.62999600  0.20616500  1
  O  O4  1  0.60033900  0.17781700  0.04477900  1
  O  O5  1  0.27547900  0.38374700  0.13496300  1
  O  O6  1  0.46667300  0.01239400  0.38366500  1
  O  O7  1  0.13474200  0.96841600  0.88873500  1
  O  O8  1  0.67697200  0.67709300  0.54432200  1
  O  O9  1  0.64293600  0.58532700  0.70304600  1
  O  O10  1  0.12791000  0.07876100  0.70738200  1
  O  O11  1  0.70142600  0.88901000  0.13583800  1
  O  O12  1  0.18105600  0.09833300  0.54639500  1
  O  O13  1  0.10420800  0.31428600  0.35715000  1
  O  O14  1  0.38624200  0.77261500  0.63614100  1
  O  O15  1  0.97957000  0.55086000  0.11072000  1
  O  O16  1  0.51457200  0.45983100  0.88301500  1
  O  O17  1  0.60974000  0.72146900  0.35848000  1
  O  O18  1  0.88760600  0.19952100  0.63486700  1
  O  O19  1  0.81766200  0.39415800  0.45454200  1
  O  O20  1  0.81398300  0.10663200  0.85765800  1
  O  O21  1  0.35345800  0.92830900  0.29573700  1
  O  O22  1  0.84697800  0.42156500  0.29656900  1
  O  O23  1  0.32096300  0.83299300  0.45428000  1
  O  O24  1  0.35962000  0.04760200  0.10663500  1
  O  O25  1  0.55438200  0.47920500  0.61199200  1
  O  O26  1  0.22321600  0.60986400  0.85904000  1
  O  O27  1  0.89380100  0.81912300  0.95523800  1
  O  O28  1  0.96841600  0.13474200  0.38873500  1
  O  O29  1  0.67709300  0.67697200  0.04432200  1
  O  O30  1  0.58532700  0.64293600  0.20304600  1
  O  O31  1  0.07876100  0.12791000  0.20738200  1
  O  O32  1  0.92288600  0.85246200  0.79585400  1
  O  O33  1  0.42146200  0.35087000  0.79663000  1
  O  O34  1  0.04856100  0.86230100  0.60514800  1
  O  O35  1  0.33015700  0.32048500  0.95489900  1
  O  O36  1  0.09833300  0.18105600  0.04639500  1
  O  O37  1  0.77261500  0.38624200  0.13614100  1
  O  O38  1  0.63539000  0.96924200  0.88888600  1
  O  O39  1  0.45983100  0.51457200  0.38301500  1
  O  O40  1  0.67675200  0.17521100  0.54579900  1
  O  O41  1  0.14043200  0.58193900  0.70359100  1
  O  O42  1  0.62999600  0.08349500  0.70616500  1
  O  O43  1  0.19952100  0.88760600  0.13486700  1
  O  O44  1  0.10663200  0.81398300  0.35765800  1
  O  O45  1  0.17781700  0.60033900  0.54477900  1
  O  O46  1  0.47920500  0.55438200  0.11199200  1
  O  O47  1  0.38374700  0.27547900  0.63496300  1
  O  O48  1  0.01239400  0.46667300  0.88366500  1
  O  O49  1  0.60986400  0.22321600  0.35904000  1
  O  O50  1  0.88901000  0.70142600  0.63583800  1
  O  O51  1  0.81912300  0.89380100  0.45523800  1
  O  O52  1  0.31428600  0.10420800  0.85715000  1
  O  O53  1  0.85246200  0.92288600  0.29585400  1
  O  O54  1  0.35087000  0.42146200  0.29663000  1
  O  O55  1  0.86230100  0.04856100  0.10514800  1
  O  O56  1  0.32048500  0.33015700  0.45489900  1
  O  O57  1  0.55086000  0.97957000  0.61072000  1
  O  O58  1  0.72146900  0.60974000  0.85848000  1
  O  O59  1  0.39415800  0.81766200  0.95454200  1
  O  O60  1  0.92830900  0.35345800  0.79573700  1
  O  O61  1  0.42156500  0.84697800  0.79656900  1
  O  O62  1  0.83299300  0.32096300  0.95428000  1
  O  O63  1  0.04760200  0.35962000  0.60663500  1
loop_
_geom_bond_atom_site_label_1
_geom_bond_atom_site_label_2
_geom_bond_distance
_geom_bond_site_symmetry_2
Li0 O54 1.987276 1_555
Li0 O2 2.032131 1_555
Li0 O5 2.044399 1_555
Li0 O46 2.059144 1_555
Li1 O61 1.964818 1_555
Li1 O14 2.023247 1_555
Li1 O10 2.074555 1_565
Li1 O57 2.119425 1_555
Li2 O12 1.968532 1_555
Li2 O56 2.021087 1_555
Li2 O6 2.055119 1_555
Li2 O13 2.092015 1_555
Li3 O8 1.952634 1_555
Li3 O19 2.005107 1_555
Li3 O17 2.060313 1_555
Li3 O0 2.071699 1_555
Li4 O4 1.957208 1_556
Li4 O62 2.034738 1_555
Li4 O16 2.036787 1_555
Li4 O20 2.059175 1_555
Li5 O1 1.960930 1_556
Li5 O27 2.002291 1_455
Li5 O26 2.054546 1_555
Li5 O7 2.065528 1_555
Li6 O21 2.008235 1_555
Li6 O24 2.033968 1_565
Li6 O11 2.047319 1_555
Li6 O30 2.070586 1_555
Li7 O22 1.964818 1_555
Li7 O37 2.023247 1_555
Li7 O31 2.074555 1_655
Li7 O15 2.119425 1_555
Li8 O32 2.014086 1_555
Li8 O34 2.057215 1_655
Li8 O18 2.076097 1_565
Li8 O42 2.110335 1_565
Li9 O33 1.987276 1_555
Li9 O41 2.032131 1_555
Li9 O47 2.044399 1_555
Li9 O25 2.059144 1_555
Li10 O45 1.957208 1_555
Li10 O23 2.034738 1_555
Li10 O39 2.036787 1_555
Li10 O44 2.059175 1_555
Li11 O40 1.960930 1_555
Li11 O51 2.002291 1_545
Li11 O49 2.054546 1_555
Li11 O28 2.065528 1_555
Li12 O36 1.968532 1_556
Li12 O35 2.021087 1_555
Li12 O48 2.055119 1_555
Li12 O52 2.092015 1_555
Li13 O29 1.952634 1_556
Li13 O59 2.005107 1_555
Li13 O58 2.060313 1_555
Li13 O38 2.071699 1_555
Li14 O53 2.014086 1_555
Li14 O55 2.057215 1_565
Li14 O43 2.076097 1_655
Li14 O3 2.110335 1_655
Li15 O60 2.008235 1_555
Li15 O63 2.033968 1_655
Li15 O50 2.047319 1_555
Li15 O9 2.070586 1_555
O0 Si13 1.641912 1_555
O0 V0 1.943702 1_655
O1 Si1 1.651309 1_555
O1 V12 1.947577 1_555
O2 Si0 1.648245 1_555
O2 V15 1.940892 1_555
O3 Si1 1.648928 1_555
O3 V0 1.943298 1_555
O4 Si0 1.649679 1_555
O4 V3 1.946193 1_555
O5 Si1 1.645824 1_555
O5 V3 1.927485 1_555
O6 Si4 1.639926 1_545
O6 V15 1.948266 1_555
O7 Si15 1.643064 1_555
O7 V2 1.943641 1_565
O8 Si3 1.653623 1_555
O8 V14 1.946109 1_555
O9 Si3 1.651690 1_555
O9 V1 1.934604 1_555
O10 Si2 1.650740 1_555
O10 V2 1.948590 1_555
O11 Si0 1.645082 1_565
O11 V4 1.932142 1_555
O12 Si2 1.648280 1_555
O12 V5 1.945600 1_545
O13 Si5 1.644435 1_455
O13 V0 1.940526 1_555
O14 Si3 1.645608 1_555
O14 V5 1.927884 1_555
O15 Si1 1.643624 1_655
O15 V4 1.939426 1_555
O16 Si6 1.645100 1_555
O16 V1 1.944196 1_555
O17 Si4 1.645831 1_555
O17 V7 1.942369 1_555
O18 Si2 1.643331 1_655
O18 V6 1.921463 1_555
O19 Si5 1.648212 1_555
O19 V6 1.932456 1_555
O20 Si7 1.649158 1_545
O20 V2 1.940570 1_655
O21 Si4 1.652226 1_555
O21 V8 1.948486 1_565
O22 Si5 1.650602 1_555
O22 V7 1.938093 1_555
O23 Si4 1.650140 1_555
O23 V5 1.926444 1_555
O24 Si8 1.645677 1_555
O24 V3 1.939257 1_555
O25 Si3 1.641470 1_555
O25 V6 1.935348 1_555
O26 Si6 1.645433 1_555
O26 V9 1.938695 1_555
O27 Si7 1.648127 1_555
O27 V4 1.938527 1_556
O28 Si5 1.643064 1_555
O28 V8 1.943641 1_655
O29 Si9 1.653623 1_555
O29 V4 1.946109 1_555
O30 Si9 1.651690 1_555
O30 V7 1.934604 1_555
O31 Si8 1.650740 1_555
O31 V8 1.948590 1_555
O32 Si7 1.653021 1_555
O32 V9 1.948152 1_655
O33 Si6 1.648544 1_555
O33 V10 1.942277 1_555
O34 Si10 1.644385 1_555
O34 V5 1.938799 1_555
O35 Si6 1.648384 1_555
O35 V3 1.923257 1_556
O36 Si8 1.648280 1_555
O36 V11 1.945600 1_455
O37 Si9 1.645608 1_555
O37 V11 1.927884 1_555
O38 Si7 1.641912 1_555
O38 V10 1.943702 1_565
O39 Si12 1.645100 1_555
O39 V7 1.944196 1_555
O40 Si11 1.651309 1_555
O40 V6 1.947577 1_555
O41 Si10 1.648245 1_555
O41 V9 1.940892 1_555
O42 Si11 1.648928 1_555
O42 V10 1.943298 1_555
O43 Si8 1.643331 1_565
O43 V12 1.921463 1_555
O44 Si13 1.649158 1_455
O44 V8 1.940570 1_565
O45 Si10 1.649679 1_555
O45 V13 1.946193 1_555
O46 Si9 1.641470 1_555
O46 V12 1.935348 1_555
O47 Si11 1.645824 1_555
O47 V13 1.927485 1_555
O48 Si14 1.639926 1_455
O48 V9 1.948266 1_555
O49 Si12 1.645433 1_555
O49 V15 1.938695 1_555
O50 Si10 1.645082 1_655
O50 V14 1.932142 1_555
O51 Si13 1.648127 1_555
O51 V14 1.938527 1_555
O52 Si15 1.644435 1_545
O52 V10 1.940526 1_555
O53 Si13 1.653021 1_555
O53 V15 1.948152 1_565
O54 Si12 1.648544 1_555
O54 V0 1.942277 1_555
O55 Si0 1.644385 1_555
O55 V11 1.938799 1_555
O56 Si12 1.648384 1_555
O56 V13 1.923257 1_555
O57 Si11 1.643624 1_565
O57 V14 1.939426 1_555
O58 Si14 1.645831 1_555
O58 V1 1.942369 1_555
O59 Si15 1.648212 1_555
O59 V12 1.932456 1_556
O60 Si14 1.652226 1_555
O60 V2 1.948486 1_655
O61 Si15 1.650602 1_555
O61 V1 1.938093 1_555
O62 Si14 1.650140 1_555
O62 V11 1.926444 1_556
O63 Si2 1.645677 1_555
O63 V13 1.939257 1_555
