# generated using pymatgen
data_Li7Mn3(WO8)2
_symmetry_space_group_name_H-M   'P 1'
_cell_length_a   5.90760436
_cell_length_b   5.90760436
_cell_length_c   9.65178665
_cell_angle_alpha   89.83414023
_cell_angle_beta   89.83414023
_cell_angle_gamma   59.49062151
_symmetry_Int_Tables_number   1
_chemical_formula_structural   Li7Mn3(WO8)2
_chemical_formula_sum   'Li7 Mn3 W2 O16'
_cell_volume   290.20614915
_cell_formula_units_Z   1
loop_
 _symmetry_equiv_pos_site_id
 _symmetry_equiv_pos_as_xyz
  1  'x, y, z'
loop_
 _atom_site_type_symbol
 _atom_site_label
 _atom_site_symmetry_multiplicity
 _atom_site_fract_x
 _atom_site_fract_y
 _atom_site_fract_z
 _atom_site_occupancy
  Li  Li0  1  0.82673800  0.33503200  0.20747900  1
  Li  Li1  1  0.67390300  0.67390300  0.90315300  1
  Li  Li2  1  0.99304600  0.99304600  0.99768500  1
  Li  Li3  1  0.99821900  0.99821900  0.48416000  1
  Li  Li4  1  0.33503200  0.82673800  0.20747900  1
  Li  Li5  1  0.17062600  0.17062600  0.71517000  1
  Li  Li6  1  0.33379100  0.33379100  0.40841100  1
  Mn  Mn0  1  0.82114100  0.82114100  0.23285700  1
  Mn  Mn1  1  0.66009400  0.16333300  0.71660200  1
  Mn  Mn2  1  0.16333300  0.66009400  0.71660200  1
  W  W0  1  0.64683900  0.64683900  0.48495900  1
  W  W1  1  0.32859100  0.32859100  0.99237700  1
  O  O0  1  0.82795600  0.33760900  0.59016000  1
  O  O1  1  0.51722500  0.51722500  0.35632000  1
  O  O2  1  0.69233800  0.69233800  0.11200800  1
  O  O3  1  0.98338300  0.98338300  0.29223900  1
  O  O4  1  0.99295500  0.99295500  0.80520800  1
  O  O5  1  0.33760900  0.82795600  0.59016000  1
  O  O6  1  0.96143500  0.53804900  0.35560600  1
  O  O7  1  0.53804900  0.96143500  0.35560600  1
  O  O8  1  0.16907200  0.16907200  0.07331000  1
  O  O9  1  0.83480500  0.83480500  0.60323200  1
  O  O10  1  0.50141800  0.04340300  0.84228300  1
  O  O11  1  0.04340300  0.50141800  0.84228300  1
  O  O12  1  0.34482800  0.34482800  0.61208600  1
  O  O13  1  0.64925700  0.17166800  0.08863200  1
  O  O14  1  0.48345000  0.48345000  0.83312300  1
  O  O15  1  0.17166800  0.64925700  0.08863200  1
loop_
_geom_bond_atom_site_label_1
_geom_bond_atom_site_label_2
_geom_bond_distance
_geom_bond_site_symmetry_2
Li0 O3 1.970742 1_545
Li0 O2 2.055811 1_555
Li0 O13 2.094595 1_555
Li0 O1 2.135664 1_555
Li0 O8 2.169591 1_655
Li0 O6 2.258577 1_555
Li1 O11 1.971281 1_655
Li1 O10 1.971281 1_565
Li1 O2 2.025303 1_556
Li1 O14 2.069493 1_555
Li2 O4 1.857750 1_555
Li2 O8 1.949949 1_666
Li2 O15 1.956494 1_656
Li2 O13 1.956494 1_566
Li3 O3 1.859128 1_555
Li3 O5 2.009137 1_655
Li3 O0 2.009137 1_565
Li3 O9 2.029327 1_555
Li4 O3 1.970742 1_455
Li4 O2 2.055811 1_555
Li4 O15 2.094595 1_555
Li4 O1 2.135664 1_555
Li4 O8 2.169591 1_565
Li4 O7 2.258577 1_555
Li5 O4 2.016584 1_445
Li5 O12 2.042442 1_555
Li5 O11 2.099091 1_555
Li5 O10 2.099091 1_555
Li5 O0 2.122869 1_455
Li5 O5 2.122869 1_545
Li6 O1 1.946133 1_555
Li6 O6 1.965310 1_455
Li6 O7 1.965310 1_545
Li6 O12 1.969462 1_555
Mn0 O3 1.762075 1_555
Mn0 O2 1.765408 1_555
Mn0 O7 1.863944 1_555
Mn0 O6 1.863944 1_555
Mn0 O15 2.261288 1_655
Mn0 O13 2.261288 1_565
Mn1 O10 1.874819 1_555
Mn1 O4 1.899041 1_545
Mn1 O12 1.900793 1_555
Mn1 O14 1.982897 1_555
Mn1 O9 2.000298 1_545
Mn1 O0 2.134268 1_555
Mn2 O11 1.874819 1_555
Mn2 O4 1.899041 1_455
Mn2 O12 1.900793 1_555
Mn2 O14 1.982897 1_555
Mn2 O9 2.000298 1_455
Mn2 O5 2.134268 1_555
O0 W0 1.877220 1_555
O1 W0 1.822224 1_555
O5 W0 1.877220 1_555
O6 W0 2.050427 1_555
O7 W0 2.050427 1_555
O8 W1 1.810945 1_554
O9 W0 2.244081 1_555
O10 W1 2.058778 1_555
O11 W1 2.058778 1_555
O13 W1 1.879684 1_554
O14 W1 2.206815 1_555
O15 W1 1.879684 1_554
