# generated using pymatgen
data_VCrO3
_symmetry_space_group_name_H-M   'P 1'
_cell_length_a   5.01823175
_cell_length_b   5.40527168
_cell_length_c   8.91547172
_cell_angle_alpha   85.18651830
_cell_angle_beta   73.64886520
_cell_angle_gamma   117.59964689
_symmetry_Int_Tables_number   1
_chemical_formula_structural   VCrO3
_chemical_formula_sum   'V4 Cr4 O12'
_cell_volume   199.00476310
_cell_formula_units_Z   4
loop_
 _symmetry_equiv_pos_site_id
 _symmetry_equiv_pos_as_xyz
  1  'x, y, z'
loop_
 _atom_site_type_symbol
 _atom_site_label
 _atom_site_symmetry_multiplicity
 _atom_site_fract_x
 _atom_site_fract_y
 _atom_site_fract_z
 _atom_site_occupancy
  V  V0  1  0.14720175  0.87049451  0.57564956  1
  V  V1  1  0.35308468  0.87865262  0.17441305  1
  V  V2  1  0.85032901  0.12474046  0.42810904  1
  V  V3  1  0.85215537  0.63116442  0.92214309  1
  Cr  Cr0  1  0.15101321  0.37781244  0.07473529  1
  Cr  Cr1  1  0.34607217  0.36880571  0.67475766  1
  Cr  Cr2  1  0.65392701  0.62777562  0.32397274  1
  Cr  Cr3  1  0.64759577  0.12831677  0.82756576  1
  O  O0  1  0.05342340  0.52392064  0.72191989  1
  O  O1  1  0.05369308  0.02762044  0.22174320  1
  O  O2  1  0.44589937  0.87204201  0.37547721  1
  O  O3  1  0.55543020  0.62211120  0.12453084  1
  O  O4  1  0.25353984  0.77828520  0.97243793  1
  O  O5  1  0.25393526  0.27973702  0.47137082  1
  O  O6  1  0.74760920  0.71630804  0.52736682  1
  O  O7  1  0.75384392  0.22667755  0.02634467  1
  O  O8  1  0.44251667  0.37319716  0.87456917  1
  O  O9  1  0.55161284  0.12441000  0.62844222  1
  O  O10  1  0.94290972  0.97704276  0.77761121  1
  O  O11  1  0.94420855  0.47088343  0.27683984  1
loop_
_geom_bond_atom_site_label_1
_geom_bond_atom_site_label_2
_geom_bond_distance
_geom_bond_site_symmetry_2
Cr0 O7 1.964822 1_455
Cr0 O8 1.973991 1_554
Cr0 O1 1.976357 1_555
Cr0 O4 2.038331 1_554
Cr0 O11 2.039559 1_455
Cr0 O3 2.045006 1_555
Cr1 O0 1.972029 1_555
Cr1 O8 1.972341 1_555
Cr1 O6 1.975625 1_555
Cr1 O10 2.019428 1_445
Cr1 O9 2.023308 1_555
Cr1 O5 2.036147 1_555
Cr2 O11 1.969146 1_555
Cr2 O5 1.973849 1_555
Cr2 O3 1.974063 1_555
Cr2 O1 2.036856 1_665
Cr2 O2 2.037863 1_555
Cr2 O6 2.038489 1_555
Cr3 O4 1.960466 1_545
Cr3 O9 1.965296 1_555
Cr3 O10 1.968610 1_545
Cr3 O8 2.024655 1_555
Cr3 O7 2.033509 1_556
Cr3 O0 2.038142 1_655
O0 V0 1.964439 1_555
O0 V3 2.060022 1_455
O1 V1 1.976029 1_545
O1 V2 2.074467 1_455
O2 V1 1.976445 1_555
O2 V0 1.977747 1_555
O2 V2 2.068816 1_565
O3 V3 1.969846 1_554
O3 V1 2.075002 1_555
O4 V3 1.993694 1_455
O4 V1 2.050781 1_556
O5 V2 1.968417 1_455
O5 V0 2.078729 1_545
O6 V0 1.974491 1_655
O6 V2 2.069672 1_565
O7 V1 1.977109 1_545
O7 V3 2.070807 1_554
O8 V3 2.069828 1_555
O9 V2 1.981570 1_555
O9 V0 2.071037 1_545
O10 V3 1.959450 1_555
O10 V0 2.075225 1_655
O11 V2 1.985814 1_555
O11 V1 2.078175 1_655
