# generated using pymatgen
data_Na5FeHO4
_symmetry_space_group_name_H-M   'P 1'
_cell_length_a   9.98621700
_cell_length_b   10.29993300
_cell_length_c   12.04829900
_cell_angle_alpha   90.00000000
_cell_angle_beta   90.00000000
_cell_angle_gamma   90.00000000
_symmetry_Int_Tables_number   1
_chemical_formula_structural   Na5FeHO4
_chemical_formula_sum   'Na40 Fe8 H8 O32'
_cell_volume   1239.25630020
_cell_formula_units_Z   8
loop_
 _symmetry_equiv_pos_site_id
 _symmetry_equiv_pos_as_xyz
  1  'x, y, z'
loop_
 _atom_site_type_symbol
 _atom_site_label
 _atom_site_symmetry_multiplicity
 _atom_site_fract_x
 _atom_site_fract_y
 _atom_site_fract_z
 _atom_site_occupancy
  Na  Na0  1  0.98336500  0.59123200  0.20945100  1
  Na  Na1  1  0.98336500  0.90876800  0.20945100  1
  Na  Na2  1  0.07160800  0.06607000  0.41374500  1
  Na  Na3  1  0.07160800  0.43393000  0.41374500  1
  Na  Na4  1  0.08235500  0.75000000  0.44719600  1
  Na  Na5  1  0.11592300  0.25000000  0.98230700  1
  Na  Na6  1  0.13036200  0.56553300  0.99096000  1
  Na  Na7  1  0.13036200  0.93446700  0.99096000  1
  Na  Na8  1  0.21795500  0.58130100  0.67673300  1
  Na  Na9  1  0.21795500  0.91869900  0.67673300  1
  Na  Na10  1  0.28204500  0.08130100  0.17673300  1
  Na  Na11  1  0.28204500  0.41869900  0.17673300  1
  Na  Na12  1  0.36963800  0.06553300  0.49096000  1
  Na  Na13  1  0.36963800  0.43446700  0.49096000  1
  Na  Na14  1  0.38407700  0.75000000  0.48230700  1
  Na  Na15  1  0.41764500  0.25000000  0.94719600  1
  Na  Na16  1  0.42839200  0.56607000  0.91374500  1
  Na  Na17  1  0.42839200  0.93393000  0.91374500  1
  Na  Na18  1  0.51663500  0.09123200  0.70945100  1
  Na  Na19  1  0.51663500  0.40876800  0.70945100  1
  Na  Na20  1  0.48336500  0.59123200  0.29054900  1
  Na  Na21  1  0.48336500  0.90876800  0.29054900  1
  Na  Na22  1  0.57160800  0.06607000  0.08625500  1
  Na  Na23  1  0.57160800  0.43393000  0.08625500  1
  Na  Na24  1  0.58235500  0.75000000  0.05280400  1
  Na  Na25  1  0.61592300  0.25000000  0.51769300  1
  Na  Na26  1  0.63036200  0.56553300  0.50904000  1
  Na  Na27  1  0.63036200  0.93446700  0.50904000  1
  Na  Na28  1  0.71795500  0.58130100  0.82326700  1
  Na  Na29  1  0.71795500  0.91869900  0.82326700  1
  Na  Na30  1  0.78204500  0.08130100  0.32326700  1
  Na  Na31  1  0.78204500  0.41869900  0.32326700  1
  Na  Na32  1  0.86963800  0.06553300  0.00904000  1
  Na  Na33  1  0.86963800  0.43446700  0.00904000  1
  Na  Na34  1  0.88407700  0.75000000  0.01769300  1
  Na  Na35  1  0.91764500  0.25000000  0.55280400  1
  Na  Na36  1  0.92839200  0.93393000  0.58625500  1
  Na  Na37  1  0.92839200  0.56607000  0.58625500  1
  Na  Na38  1  0.01663500  0.09123200  0.79054900  1
  Na  Na39  1  0.01663500  0.40876800  0.79054900  1
  Fe  Fe0  1  0.01369400  0.25000000  0.20622100  1
  Fe  Fe1  1  0.20369600  0.25000000  0.61878300  1
  Fe  Fe2  1  0.29630400  0.75000000  0.11878300  1
  Fe  Fe3  1  0.48630600  0.75000000  0.70622100  1
  Fe  Fe4  1  0.51369400  0.25000000  0.29377900  1
  Fe  Fe5  1  0.70369600  0.25000000  0.88121700  1
  Fe  Fe6  1  0.79630400  0.75000000  0.38121700  1
  Fe  Fe7  1  0.98630600  0.75000000  0.79377900  1
  H  H0  1  0.23148200  0.62629200  0.31026800  1
  H  H1  1  0.23148200  0.87370800  0.31026800  1
  H  H2  1  0.26851800  0.12629200  0.81026800  1
  H  H3  1  0.26851800  0.37370800  0.81026800  1
  H  H4  1  0.73148200  0.62629200  0.18973200  1
  H  H5  1  0.73148200  0.87370800  0.18973200  1
  H  H6  1  0.76851800  0.12629200  0.68973200  1
  H  H7  1  0.76851800  0.37370800  0.68973200  1
  O  O0  1  0.05960600  0.75000000  0.64719800  1
  O  O1  1  0.05909100  0.40412600  0.12578600  1
  O  O2  1  0.05909100  0.09587400  0.12578600  1
  O  O3  1  0.09874900  0.40460600  0.60708900  1
  O  O4  1  0.09874900  0.09539400  0.60708900  1
  O  O5  1  0.10497700  0.75000000  0.11639700  1
  O  O6  1  0.24727200  0.08171800  0.87966200  1
  O  O7  1  0.24727200  0.41828200  0.87966200  1
  O  O8  1  0.25272800  0.58171800  0.37966200  1
  O  O9  1  0.25272800  0.91828200  0.37966200  1
  O  O10  1  0.39502300  0.25000000  0.61639700  1
  O  O11  1  0.40125100  0.59539400  0.10708900  1
  O  O12  1  0.40125100  0.90460600  0.10708900  1
  O  O13  1  0.44090900  0.59587400  0.62578600  1
  O  O14  1  0.44090900  0.90412600  0.62578600  1
  O  O15  1  0.44039400  0.25000000  0.14719800  1
  O  O16  1  0.55960600  0.75000000  0.85280200  1
  O  O17  1  0.55909100  0.09587400  0.37421400  1
  O  O18  1  0.55909100  0.40412600  0.37421400  1
  O  O19  1  0.59874900  0.09539400  0.89291100  1
  O  O20  1  0.59874900  0.40460600  0.89291100  1
  O  O21  1  0.60497700  0.75000000  0.38360300  1
  O  O22  1  0.74727200  0.08171800  0.62033800  1
  O  O23  1  0.74727200  0.41828200  0.62033800  1
  O  O24  1  0.75272800  0.58171800  0.12033800  1
  O  O25  1  0.75272800  0.91828200  0.12033800  1
  O  O26  1  0.89502300  0.25000000  0.88360300  1
  O  O27  1  0.90125100  0.90460600  0.39291100  1
  O  O28  1  0.90125100  0.59539400  0.39291100  1
  O  O29  1  0.94090900  0.90412600  0.87421400  1
  O  O30  1  0.94090900  0.59587400  0.87421400  1
  O  O31  1  0.94039400  0.25000000  0.35280200  1
loop_
_geom_bond_atom_site_label_1
_geom_bond_atom_site_label_2
_geom_bond_distance
_geom_bond_site_symmetry_2
Na0 O1 2.302605 1_655
Na0 O5 2.325089 1_655
Na0 O28 2.357973 1_555
Na1 O2 2.302605 1_665
Na1 O5 2.325089 1_655
Na1 O27 2.357973 1_555
Na2 O4 2.364551 1_555
Na2 O27 2.392271 1_445
Na2 O9 2.399406 1_545
Na2 O31 2.417666 1_455
Na3 O3 2.364551 1_555
Na3 O28 2.392271 1_455
Na3 O8 2.399406 1_555
Na3 O31 2.417666 1_455
Na4 O0 2.420369 1_555
Na4 O27 2.496886 1_455
Na4 O28 2.496886 1_455
Na4 O8 2.561457 1_555
Na4 O9 2.561457 1_555
Na5 O1 2.414651 1_556
Na5 O2 2.414651 1_556
Na5 O6 2.500846 1_555
Na5 O7 2.500846 1_555
Na5 O26 2.506087 1_455
Na6 O7 2.336982 1_555
Na6 O30 2.378133 1_455
Na6 O1 2.430875 1_556
Na6 O5 2.440961 1_556
Na7 O6 2.336982 1_565
Na7 O29 2.378133 1_455
Na7 O2 2.430875 1_566
Na7 O5 2.440961 1_556
Na8 O13 2.314404 1_555
Na8 O3 2.330960 1_555
Na8 O0 2.376210 1_555
Na9 O14 2.314404 1_555
Na9 O4 2.330960 1_565
Na9 O0 2.376210 1_555
Na10 O2 2.314404 1_555
Na10 O12 2.330960 1_545
Na10 O15 2.376210 1_555
Na11 O1 2.314404 1_555
Na11 O11 2.330960 1_555
Na11 O15 2.376210 1_555
Na12 O9 2.336982 1_545
Na12 O17 2.378133 1_555
Na12 O14 2.430875 1_545
Na12 O10 2.440961 1_555
Na13 O8 2.336982 1_555
Na13 O18 2.378133 1_555
Na13 O13 2.430875 1_555
Na13 O10 2.440961 1_555
Na14 O13 2.414651 1_555
Na14 O14 2.414651 1_555
Na14 O8 2.500846 1_555
Na14 O9 2.500846 1_555
Na14 O21 2.506087 1_555
Na15 O15 2.420369 1_556
Na15 O19 2.496886 1_555
Na15 O20 2.496886 1_555
Na15 O6 2.561457 1_555
Na15 O7 2.561457 1_555
Na16 O11 2.364551 1_556
Na16 O20 2.392271 1_555
Na16 O7 2.399406 1_555
Na16 O16 2.417666 1_555
Na17 O12 2.364551 1_556
Na17 O19 2.392271 1_565
Na17 O6 2.399406 1_565
Na17 O16 2.417666 1_555
Na18 O14 2.302605 1_545
Na18 O10 2.325089 1_555
Na18 O19 2.357973 1_555
Na19 O13 2.302605 1_555
Na19 O10 2.325089 1_555
Na19 O20 2.357973 1_555
Na20 O18 2.302605 1_555
Na20 O21 2.325089 1_555
Na20 O11 2.357973 1_555
Na21 O17 2.302605 1_565
Na21 O21 2.325089 1_555
Na21 O12 2.357973 1_555
Na22 O19 2.364551 1_554
Na22 O12 2.392271 1_545
Na22 O25 2.399406 1_545
Na22 O15 2.417666 1_555
Na23 O20 2.364551 1_554
Na23 O11 2.392271 1_555
Na23 O24 2.399406 1_555
Na23 O15 2.417666 1_555
Na24 O16 2.420369 1_554
Na24 O12 2.496886 1_555
Na24 O11 2.496886 1_555
Na24 O24 2.561457 1_555
Na24 O25 2.561457 1_555
Na25 O17 2.414651 1_555
Na25 O18 2.414651 1_555
Na25 O23 2.500846 1_555
Na25 O22 2.500846 1_555
Na25 O10 2.506087 1_555
Na26 O23 2.336982 1_555
Na26 O13 2.378133 1_555
Na26 O18 2.430875 1_555
Na26 O21 2.440961 1_555
Na27 O22 2.336982 1_565
Na27 O14 2.378133 1_555
Na27 O17 2.430875 1_565
Na27 O21 2.440961 1_555
Na28 O30 2.314404 1_555
Na28 O20 2.330960 1_555
Na28 O16 2.376210 1_555
Na29 O29 2.314404 1_555
Na29 O19 2.330960 1_565
Na29 O16 2.376210 1_555
Na30 O17 2.314404 1_555
Na30 O27 2.330960 1_545
Na30 O31 2.376210 1_555
Na31 O18 2.314404 1_555
Na31 O28 2.330960 1_555
Na31 O31 2.376210 1_555
Na32 O25 2.336982 1_545
Na32 O2 2.378133 1_655
Na32 O29 2.430875 1_544
Na32 O26 2.440961 1_554
Na33 O24 2.336982 1_555
Na33 O1 2.378133 1_655
Na33 O30 2.430875 1_554
Na33 O26 2.440961 1_554
Na34 O29 2.414651 1_554
Na34 O30 2.414651 1_554
Na34 O24 2.500846 1_555
Na34 O25 2.500846 1_555
Na34 O5 2.506087 1_655
Na35 O31 2.420369 1_555
Na35 O3 2.496886 1_655
Na35 O4 2.496886 1_655
Na35 O22 2.561457 1_555
Na35 O23 2.561457 1_555
Na36 O27 2.364551 1_555
Na36 O4 2.392271 1_665
Na36 O22 2.399406 1_565
Na36 O0 2.417666 1_655
Na37 O28 2.364551 1_555
Na37 O3 2.392271 1_655
Na37 O23 2.399406 1_555
Na37 O0 2.417666 1_655
Na38 O29 2.302605 1_445
Na38 O26 2.325089 1_455
Na38 O4 2.357973 1_555
Na39 O30 2.302605 1_455
Na39 O26 2.325089 1_455
Na39 O3 2.357973 1_555
Fe0 O31 1.911739 1_455
Fe0 O1 1.914367 1_555
Fe0 O2 1.914367 1_555
Fe1 O10 1.910849 1_555
Fe1 O4 1.911555 1_555
Fe1 O3 1.911555 1_555
Fe2 O5 1.910849 1_555
Fe2 O12 1.911555 1_555
Fe2 O11 1.911555 1_555
Fe3 O16 1.911739 1_555
Fe3 O13 1.914367 1_555
Fe3 O14 1.914367 1_555
Fe4 O15 1.911739 1_555
Fe4 O18 1.914367 1_555
Fe4 O17 1.914367 1_555
Fe5 O26 1.910849 1_555
Fe5 O19 1.911555 1_555
Fe5 O20 1.911555 1_555
Fe6 O21 1.910849 1_555
Fe6 O28 1.911555 1_555
Fe6 O27 1.911555 1_555
Fe7 O0 1.911739 1_655
Fe7 O30 1.914367 1_555
Fe7 O29 1.914367 1_555
H0 O8 0.977152 1_555
H0 Na4 2.561831 1_555
H1 O9 0.977152 1_555
H1 Na4 2.561831 1_555
H2 O6 0.977152 1_555
H2 Na15 2.561831 1_555
H3 O7 0.977152 1_555
H3 Na15 2.561831 1_555
H4 O24 0.977152 1_555
H4 Na24 2.561831 1_555
H5 O25 0.977152 1_555
H5 Na24 2.561831 1_555
H6 O22 0.977152 1_555
H6 Na35 2.561831 1_555
H7 O23 0.977152 1_555
H7 Na35 2.561831 1_555
