# generated using pymatgen
data_YNb2NO5
_symmetry_space_group_name_H-M   'P 1'
_cell_length_a   5.28401100
_cell_length_b   5.96342600
_cell_length_c   15.02774456
_cell_angle_alpha   89.69453914
_cell_angle_beta   90.00000000
_cell_angle_gamma   90.00000000
_symmetry_Int_Tables_number   1
_chemical_formula_structural   YNb2NO5
_chemical_formula_sum   'Y4 Nb8 N4 O20'
_cell_volume   473.52965280
_cell_formula_units_Z   4
loop_
 _symmetry_equiv_pos_site_id
 _symmetry_equiv_pos_as_xyz
  1  'x, y, z'
loop_
 _atom_site_type_symbol
 _atom_site_label
 _atom_site_symmetry_multiplicity
 _atom_site_fract_x
 _atom_site_fract_y
 _atom_site_fract_z
 _atom_site_occupancy
  Y  Y0  1  0.74378600  0.54883500  0.74705900  1
  Y  Y1  1  0.24404500  0.94775400  0.75127400  1
  Y  Y2  1  0.24378600  0.45116500  0.25294100  1
  Y  Y3  1  0.74404500  0.05224600  0.24872600  1
  Nb  Nb0  1  0.27849200  0.41765800  0.58522300  1
  Nb  Nb1  1  0.74880800  0.07118400  0.58405500  1
  Nb  Nb2  1  0.77849200  0.58234200  0.41477700  1
  Nb  Nb3  1  0.24880800  0.92881600  0.41594500  1
  Nb  Nb4  1  0.73930800  0.57371700  0.08199500  1
  Nb  Nb5  1  0.22508800  0.94206800  0.08574200  1
  Nb  Nb6  1  0.23930800  0.42628300  0.91800500  1
  Nb  Nb7  1  0.72508800  0.05793200  0.91425800  1
  N  N0  1  0.45678100  0.16464900  0.65061500  1
  N  N1  1  0.95678100  0.83535100  0.34938500  1
  N  N2  1  0.10807500  0.14004100  0.16750900  1
  N  N3  1  0.60807500  0.85995900  0.83249100  1
  O  O0  1  0.89595200  0.86417500  0.66565800  1
  O  O1  1  0.38988700  0.63634300  0.66679800  1
  O  O2  1  0.95810100  0.33923400  0.64782200  1
  O  O3  1  0.59226300  0.38300700  0.50571000  1
  O  O4  1  0.09243600  0.12467100  0.50377300  1
  O  O5  1  0.59243600  0.87532900  0.49622700  1
  O  O6  1  0.09226300  0.61699300  0.49429000  1
  O  O7  1  0.45810100  0.66076600  0.35217800  1
  O  O8  1  0.88988700  0.36365700  0.33320200  1
  O  O9  1  0.39595200  0.13582500  0.33434200  1
  O  O10  1  0.60674000  0.37563900  0.16756400  1
  O  O11  1  0.04595700  0.66008300  0.14906500  1
  O  O12  1  0.54695400  0.83812500  0.14706300  1
  O  O13  1  0.42166100  0.60870800  0.00353400  1
  O  O14  1  0.90566500  0.87445500  0.00714600  1
  O  O15  1  0.92166100  0.39129200  0.99646600  1
  O  O16  1  0.40566500  0.12554500  0.99285400  1
  O  O17  1  0.54595700  0.33991700  0.85093500  1
  O  O18  1  0.04695400  0.16187500  0.85293700  1
  O  O19  1  0.10674000  0.62436100  0.83243600  1
loop_
_geom_bond_atom_site_label_1
_geom_bond_atom_site_label_2
_geom_bond_distance
_geom_bond_site_symmetry_2
Nb0 O1 1.888656 1_555
Nb0 O2 1.991247 1_455
Nb0 O3 2.054747 1_555
Nb0 O6 2.057044 1_555
Nb0 O4 2.353776 1_555
Nb1 O0 1.901621 1_545
Nb1 O5 1.950725 1_545
Nb1 O2 2.170908 1_555
Nb1 O4 2.202287 1_655
Nb1 O3 2.346254 1_555
Nb2 O8 1.888656 1_555
Nb2 O7 1.991247 1_555
Nb2 O6 2.054747 1_655
Nb2 O3 2.057044 1_555
Nb2 O5 2.353776 1_555
Nb3 O9 1.901621 1_565
Nb3 O4 1.950725 1_565
Nb3 O7 2.170908 1_555
Nb3 O5 2.202287 1_555
Nb3 O6 2.346254 1_555
Nb4 O10 1.877057 1_555
Nb4 O15 1.943925 1_554
Nb4 O11 1.977922 1_655
Nb4 O13 2.061158 1_555
Nb4 O12 2.119405 1_555
Nb4 O14 2.287526 1_555
Nb5 O16 2.009939 1_564
Nb5 O12 2.029742 1_555
Nb5 O14 2.100353 1_455
Nb5 O11 2.147596 1_555
Nb5 O13 2.565795 1_555
Nb6 O19 1.877057 1_555
Nb6 O13 1.943925 1_556
Nb6 O17 1.977922 1_555
Nb6 O15 2.061158 1_455
Nb6 O18 2.119405 1_555
Nb6 O16 2.287526 1_555
Nb7 O14 2.009939 1_546
Nb7 O18 2.029742 1_655
Nb7 O16 2.100353 1_555
Nb7 O17 2.147596 1_555
Nb7 O15 2.565795 1_555
N0 Nb1 1.923065 1_555
N0 Nb0 2.028269 1_555
N0 Y1 2.281208 1_545
N1 Nb3 1.923065 1_655
N1 Nb2 2.028269 1_555
N1 Y3 2.281208 1_565
N2 Nb5 1.816991 1_545
N2 Y3 2.336010 1_455
N2 Y2 2.372821 1_555
N3 Nb7 1.816991 1_565
N3 Y1 2.336010 1_555
N3 Y0 2.372821 1_555
O0 Y1 2.300817 1_655
O0 Y0 2.377954 1_555
O1 Y0 2.284144 1_555
O1 Y1 2.383135 1_555
O2 Y0 2.255804 1_555
O7 Y2 2.255804 1_555
O8 Y2 2.284144 1_655
O8 Y3 2.383135 1_555
O9 Y3 2.300817 1_555
O9 Y2 2.377954 1_555
O10 Y2 2.352302 1_555
O10 Y3 2.389174 1_555
O11 Y2 2.249656 1_555
O12 Y3 2.251645 1_565
O17 Y0 2.249656 1_555
O18 Y1 2.251645 1_545
O19 Y0 2.352302 1_455
O19 Y1 2.389174 1_555
