# generated using pymatgen
data_RbNbO3
_symmetry_space_group_name_H-M   'P 1'
_cell_length_a   6.52622208
_cell_length_b   6.52622208
_cell_length_c   8.33204364
_cell_angle_alpha   86.59608804
_cell_angle_beta   86.59608804
_cell_angle_gamma   82.93079755
_symmetry_Int_Tables_number   1
_chemical_formula_structural   RbNbO3
_chemical_formula_sum   'Rb4 Nb4 O12'
_cell_volume   351.06995002
_cell_formula_units_Z   4
loop_
 _symmetry_equiv_pos_site_id
 _symmetry_equiv_pos_as_xyz
  1  'x, y, z'
loop_
 _atom_site_type_symbol
 _atom_site_label
 _atom_site_symmetry_multiplicity
 _atom_site_fract_x
 _atom_site_fract_y
 _atom_site_fract_z
 _atom_site_occupancy
  Rb  Rb0  1  0.66254800  0.66254800  0.76383000  1
  Rb  Rb1  1  0.76587700  0.23412300  0.50000000  1
  Rb  Rb2  1  0.23412300  0.76587700  0.50000000  1
  Rb  Rb3  1  0.33745200  0.33745200  0.23617000  1
  Nb  Nb0  1  0.74170300  0.74170300  0.19602200  1
  Nb  Nb1  1  0.81064900  0.18935100  0.00000000  1
  Nb  Nb2  1  0.18935100  0.81064900  0.00000000  1
  Nb  Nb3  1  0.25829700  0.25829700  0.80397800  1
  O  O0  1  0.87725300  0.87725300  0.94768700  1
  O  O1  1  0.67145000  0.67145000  0.40747100  1
  O  O2  1  0.95171900  0.28713700  0.78877700  1
  O  O3  1  0.28713700  0.95171900  0.78877700  1
  O  O4  1  0.45279200  0.77336500  0.10226000  1
  O  O5  1  0.77336500  0.45279200  0.10226000  1
  O  O6  1  0.54720800  0.22663500  0.89774000  1
  O  O7  1  0.22663500  0.54720800  0.89774000  1
  O  O8  1  0.04828100  0.71286300  0.21122300  1
  O  O9  1  0.71286300  0.04828100  0.21122300  1
  O  O10  1  0.32855000  0.32855000  0.59252900  1
  O  O11  1  0.12274700  0.12274700  0.05231300  1
loop_
_geom_bond_atom_site_label_1
_geom_bond_atom_site_label_2
_geom_bond_distance
_geom_bond_site_symmetry_2
Nb0 O1 1.839637 1_555
Nb0 O8 1.997304 1_655
Nb0 O9 1.997304 1_565
Nb0 O5 2.065906 1_555
Nb0 O4 2.065906 1_555
Nb0 O0 2.367355 1_554
Nb1 O6 1.946135 1_554
Nb1 O5 1.946135 1_555
Nb1 O2 2.042308 1_554
Nb1 O9 2.042308 1_555
Nb1 O11 2.095847 1_655
Nb1 O0 2.095847 1_544
Nb2 O7 1.946135 1_554
Nb2 O4 1.946135 1_555
Nb2 O3 2.042308 1_554
Nb2 O8 2.042308 1_555
Nb2 O11 2.095847 1_565
Nb2 O0 2.095847 1_454
Nb3 O10 1.839637 1_555
Nb3 O3 1.997304 1_545
Nb3 O2 1.997304 1_455
Nb3 O7 2.065906 1_555
Nb3 O6 2.065906 1_555
Nb3 O11 2.367355 1_556
O0 Rb0 2.695660 1_555
O1 Rb1 2.912421 1_555
O1 Rb2 2.912421 1_555
O1 Rb0 2.963571 1_555
O2 Rb1 2.815796 1_555
O2 Rb0 2.907807 1_555
O3 Rb2 2.815796 1_555
O3 Rb0 2.907807 1_555
O4 Rb0 3.144587 1_554
O4 Rb3 3.155182 1_555
O5 Rb0 3.144587 1_554
O5 Rb3 3.155182 1_555
O6 Rb3 3.144587 1_556
O6 Rb0 3.155182 1_555
O7 Rb3 3.144587 1_556
O7 Rb0 3.155182 1_555
O8 Rb2 2.815796 1_555
O8 Rb3 2.907807 1_555
O9 Rb1 2.815796 1_555
O9 Rb3 2.907807 1_555
O10 Rb2 2.912421 1_555
O10 Rb1 2.912421 1_555
O10 Rb3 2.963571 1_555
O11 Rb3 2.695660 1_555
