# generated using pymatgen
data_VOF3
_symmetry_space_group_name_H-M   'P 1'
_cell_length_a   8.07873528
_cell_length_b   8.07873528
_cell_length_c   3.90662956
_cell_angle_alpha   90.00000000
_cell_angle_beta   90.00000000
_cell_angle_gamma   90.00000000
_symmetry_Int_Tables_number   1
_chemical_formula_structural   VOF3
_chemical_formula_sum   'V4 O4 F12'
_cell_volume   254.96994315
_cell_formula_units_Z   4
loop_
 _symmetry_equiv_pos_site_id
 _symmetry_equiv_pos_as_xyz
  1  'x, y, z'
loop_
 _atom_site_type_symbol
 _atom_site_label
 _atom_site_symmetry_multiplicity
 _atom_site_fract_x
 _atom_site_fract_y
 _atom_site_fract_z
 _atom_site_occupancy
  V  V0  1  0.86296705  0.63703295  0.16920241  1
  V  V1  1  0.36296705  0.86296705  0.83079759  1
  V  V2  1  0.63703295  0.13703295  0.83079759  1
  V  V3  1  0.13703295  0.36296705  0.16920241  1
  O  O0  1  0.87175365  0.62824635  0.76004325  1
  O  O1  1  0.37175365  0.87175365  0.23995675  1
  O  O2  1  0.62824635  0.12824635  0.23995675  1
  O  O3  1  0.12824635  0.37175365  0.76004325  1
  F  F0  1  0.10122952  0.60122952  0.24919057  1
  F  F1  1  0.65468862  0.61141164  0.25238600  1
  F  F2  1  0.38858836  0.65468862  0.74761400  1
  F  F3  1  0.88858836  0.84531138  0.25238600  1
  F  F4  1  0.15468862  0.88858836  0.74761400  1
  F  F5  1  0.60122952  0.89877048  0.75080943  1
  F  F6  1  0.39877048  0.10122952  0.75080943  1
  F  F7  1  0.84531138  0.11141164  0.74761400  1
  F  F8  1  0.11141164  0.15468862  0.25238600  1
  F  F9  1  0.61141164  0.34531138  0.74761400  1
  F  F10  1  0.34531138  0.38858836  0.25238600  1
  F  F11  1  0.89877048  0.39877048  0.24919057  1
loop_
_geom_bond_atom_site_label_1
_geom_bond_atom_site_label_2
_geom_bond_distance
_geom_bond_site_symmetry_2
O0 V0 1.601583 1_556
O0 V0 2.310378 1_555
O1 V1 1.601583 1_554
O1 V1 2.310378 1_555
O2 V2 1.601583 1_554
O2 V2 2.310378 1_555
O3 V3 1.601583 1_556
O3 V3 2.310378 1_555
F0 V3 1.971394 1_555
F0 V0 1.971394 1_455
F1 V0 1.726175 1_555
F2 V1 1.726175 1_555
F3 V0 1.726175 1_555
F4 V1 1.726175 1_555
F5 V1 1.971394 1_555
F5 V2 1.971394 1_565
F6 V1 1.971394 1_545
F6 V2 1.971394 1_555
F7 V2 1.726175 1_555
F8 V3 1.726175 1_555
F9 V2 1.726175 1_555
F10 V3 1.726175 1_555
F11 V3 1.971394 1_655
F11 V0 1.971394 1_555
