# generated using pymatgen
data_Ti3Fe3(SbO8)2
_symmetry_space_group_name_H-M   'P 1'
_cell_length_a   6.02327181
_cell_length_b   6.02327181
_cell_length_c   9.36533972
_cell_angle_alpha   89.60305571
_cell_angle_beta   89.60305571
_cell_angle_gamma   59.68413417
_symmetry_Int_Tables_number   1
_chemical_formula_structural   Ti3Fe3(SbO8)2
_chemical_formula_sum   'Ti3 Fe3 Sb2 O16'
_cell_volume   293.30138690
_cell_formula_units_Z   1
loop_
 _symmetry_equiv_pos_site_id
 _symmetry_equiv_pos_as_xyz
  1  'x, y, z'
loop_
 _atom_site_type_symbol
 _atom_site_label
 _atom_site_symmetry_multiplicity
 _atom_site_fract_x
 _atom_site_fract_y
 _atom_site_fract_z
 _atom_site_occupancy
  Ti  Ti0  1  0.33644400  0.83249200  0.78958900  1
  Ti  Ti1  1  0.83249200  0.33644400  0.78958900  1
  Ti  Ti2  1  0.16442900  0.16442900  0.28625400  1
  Fe  Fe0  1  0.83102600  0.83102600  0.79116400  1
  Fe  Fe1  1  0.16850100  0.66169600  0.29245900  1
  Fe  Fe2  1  0.66169600  0.16850100  0.29245900  1
  Sb  Sb0  1  0.66912000  0.66912000  0.51038700  1
  Sb  Sb1  1  0.33533700  0.33533700  0.01270700  1
  O  O0  1  0.34579600  0.83486700  0.39602300  1
  O  O1  1  0.52398100  0.52398100  0.66048900  1
  O  O2  1  0.65907700  0.65907700  0.89661100  1
  O  O3  1  0.00392000  0.00392000  0.69758500  1
  O  O4  1  0.00038700  0.00038700  0.19715000  1
  O  O5  1  0.83486700  0.34579600  0.39602300  1
  O  O6  1  0.51605900  0.95367400  0.65958000  1
  O  O7  1  0.95367400  0.51605900  0.65958000  1
  O  O8  1  0.17430100  0.17430100  0.89348500  1
  O  O9  1  0.83169500  0.83169500  0.39979100  1
  O  O10  1  0.04316000  0.47063600  0.15828000  1
  O  O11  1  0.47063600  0.04316000  0.15828000  1
  O  O12  1  0.33100600  0.33100600  0.39570100  1
  O  O13  1  0.17555300  0.65792500  0.89609100  1
  O  O14  1  0.47769000  0.47769000  0.15897300  1
  O  O15  1  0.65792500  0.17555300  0.89609100  1
loop_
_geom_bond_atom_site_label_1
_geom_bond_atom_site_label_2
_geom_bond_distance
_geom_bond_site_symmetry_2
Fe0 O3 2.001646 1_665
Fe0 O2 2.043313 1_555
Fe0 O13 2.046678 1_655
Fe0 O15 2.046678 1_565
Fe0 O6 2.066013 1_555
Fe0 O7 2.066013 1_555
Fe1 O12 1.969411 1_555
Fe1 O4 1.971212 1_565
Fe1 O9 2.015778 1_455
Fe1 O14 2.040270 1_555
Fe1 O0 2.078932 1_555
Fe1 O10 2.093736 1_555
Fe2 O12 1.969411 1_555
Fe2 O4 1.971212 1_655
Fe2 O9 2.015778 1_545
Fe2 O14 2.040270 1_555
Fe2 O5 2.078932 1_555
Fe2 O11 2.093736 1_555
O0 Sb0 1.996946 1_555
O0 Ti2 1.997178 1_565
O1 Ti1 2.020898 1_555
O1 Ti0 2.020898 1_555
O1 Sb0 2.059640 1_555
O2 Ti0 1.958410 1_555
O2 Ti1 1.958410 1_555
O3 Ti1 1.934924 1_455
O3 Ti0 1.934924 1_545
O4 Ti2 1.912426 1_555
O5 Sb0 1.996946 1_555
O5 Ti2 1.997178 1_655
O6 Ti0 1.988050 1_555
O6 Sb0 2.039604 1_555
O7 Ti1 1.988050 1_555
O7 Sb0 2.039604 1_555
O8 Sb1 2.026861 1_556
O8 Ti1 2.030762 1_455
O8 Ti0 2.030762 1_545
O9 Sb0 1.982561 1_555
O10 Ti2 1.998286 1_555
O10 Sb1 2.038194 1_555
O11 Ti2 1.998286 1_555
O11 Sb1 2.038194 1_555
O12 Ti2 2.027018 1_555
O13 Sb1 1.997935 1_556
O13 Ti0 2.010057 1_555
O14 Sb1 2.030162 1_555
O15 Sb1 1.997935 1_556
O15 Ti1 2.010057 1_555
