# generated using pymatgen
data_Li3V2P4(HO8)2
_symmetry_space_group_name_H-M   'P 1'
_cell_length_a   7.88549200
_cell_length_b   8.07677043
_cell_length_c   9.76563146
_cell_angle_alpha   90.05255462
_cell_angle_beta   111.99475473
_cell_angle_gamma   90.04445036
_symmetry_Int_Tables_number   1
_chemical_formula_structural   Li3V2P4(HO8)2
_chemical_formula_sum   'Li6 V4 P8 H4 O32'
_cell_volume   576.69779054
_cell_formula_units_Z   2
loop_
 _symmetry_equiv_pos_site_id
 _symmetry_equiv_pos_as_xyz
  1  'x, y, z'
loop_
 _atom_site_type_symbol
 _atom_site_label
 _atom_site_symmetry_multiplicity
 _atom_site_fract_x
 _atom_site_fract_y
 _atom_site_fract_z
 _atom_site_occupancy
  Li  Li0  1  0.34687900  0.63057400  0.72473100  1
  Li  Li1  1  0.65342900  0.36991800  0.77156000  1
  Li  Li2  1  0.85188800  0.86557100  0.72907000  1
  Li  Li3  1  0.15535300  0.13304300  0.27566500  1
  Li  Li4  1  0.35469700  0.63692400  0.22295800  1
  Li  Li5  1  0.84493000  0.86962300  0.22697000  1
  V  V0  1  0.00257100  0.49528800  0.75205200  1
  V  V1  1  0.48994700  0.00192600  0.74934300  1
  V  V2  1  0.99785600  0.49982200  0.25088300  1
  V  V3  1  0.50169700  0.00632900  0.25008000  1
  P  P0  1  0.23258200  0.85193200  0.93162600  1
  P  P1  1  0.73246200  0.65522600  0.93300300  1
  P  P2  1  0.26852500  0.34499900  0.56627000  1
  P  P3  1  0.23142200  0.84758100  0.43114900  1
  P  P4  1  0.76009500  0.14955400  0.56870200  1
  P  P5  1  0.73991700  0.65105600  0.43251600  1
  P  P6  1  0.26362600  0.35333800  0.06728900  1
  P  P7  1  0.76506300  0.15960700  0.06405600  1
  H  H0  1  0.48864300  0.50115800  0.00691900  1
  H  H1  1  0.51679500  0.50521200  0.48835800  1
  H  H2  1  0.98244400  0.00778600  0.51453700  1
  H  H3  1  0.99500700  0.00892300  0.00367000  1
  O  O0  1  0.05334300  0.94202500  0.90908100  1
  O  O1  1  0.14001900  0.33104000  0.90506100  1
  O  O2  1  0.19114500  0.68503400  0.85020400  1
  O  O3  1  0.35180800  0.95291000  0.86005000  1
  O  O4  1  0.55373700  0.55909100  0.90561800  1
  O  O5  1  0.64415000  0.17714100  0.89773900  1
  O  O6  1  0.68614800  0.82612800  0.85523600  1
  O  O7  1  0.84024200  0.55099300  0.85985000  1
  O  O8  1  0.16218400  0.44596600  0.64252200  1
  O  O9  1  0.31794100  0.16987700  0.63298400  1
  O  O10  1  0.35085300  0.82634000  0.59929300  1
  O  O11  1  0.44543000  0.44404700  0.59334600  1
  O  O12  1  0.65410800  0.04340000  0.64712100  1
  O  O13  1  0.80790100  0.31650300  0.64715800  1
  O  O14  1  0.05275000  0.94233000  0.40279000  1
  O  O15  1  0.14481900  0.32708600  0.39874400  1
  O  O16  1  0.85187600  0.67147900  0.59887400  1
  O  O17  1  0.93746600  0.04440600  0.59753400  1
  O  O18  1  0.18998200  0.67504700  0.35521000  1
  O  O19  1  0.34104800  0.95134600  0.35926200  1
  O  O20  1  0.55635300  0.55723200  0.40466700  1
  O  O21  1  0.64338800  0.16847500  0.40494200  1
  O  O22  1  0.68959800  0.81545700  0.34975200  1
  O  O23  1  0.85664000  0.55012900  0.36259600  1
  O  O24  1  0.15738300  0.45993400  0.14689600  1
  O  O25  1  0.31087200  0.18753500  0.14769100  1
  O  O26  1  0.35444000  0.83136000  0.09710400  1
  O  O27  1  0.43781400  0.45915400  0.09122300  1
  O  O28  1  0.66510500  0.05446600  0.14160800  1
  O  O29  1  0.82157900  0.33060900  0.13528100  1
  O  O30  1  0.85224500  0.67630600  0.10060800  1
  O  O31  1  0.94566500  0.05941200  0.09038400  1
loop_
_geom_bond_atom_site_label_1
_geom_bond_atom_site_label_2
_geom_bond_distance
_geom_bond_site_symmetry_2
Li0 O4 1.989855 1_555
Li0 O10 2.008444 1_555
Li0 O8 2.026689 1_555
Li0 O2 2.080852 1_555
Li0 O11 2.294547 1_555
Li1 O11 1.985653 1_555
Li1 O5 2.004717 1_555
Li1 O7 2.023693 1_555
Li1 O13 2.062536 1_555
Li1 O4 2.331409 1_555
Li2 O0 1.974810 1_655
Li2 O16 2.017502 1_555
Li2 O12 2.050948 1_565
Li2 O6 2.129288 1_555
Li2 O17 2.200663 1_565
Li3 O15 1.994829 1_555
Li3 O19 2.018509 1_545
Li3 O31 2.029062 1_455
Li3 O25 2.099443 1_555
Li3 O14 2.307036 1_545
Li4 O26 1.994602 1_555
Li4 O20 1.995452 1_555
Li4 O24 2.035934 1_555
Li4 O18 2.169400 1_555
Li4 O27 2.185357 1_555
Li5 O14 1.966596 1_655
Li5 O30 2.003476 1_555
Li5 O28 2.013618 1_565
Li5 O22 2.056608 1_555
Li5 O31 2.356982 1_565
H0 O27 1.095906 1_555
H0 O4 1.357166 1_554
H1 O20 1.064516 1_555
H1 O11 1.429894 1_555
H2 O17 1.041760 1_555
H2 O14 1.493423 1_645
H3 O31 1.131896 1_555
H3 O0 1.294051 1_644
O0 P0 1.531153 1_555
O1 P6 1.528038 1_556
O1 V0 1.989993 1_555
O2 P0 1.535853 1_555
O2 V0 2.098745 1_555
O3 P0 1.590513 1_555
O3 V1 1.842378 1_565
O4 P1 1.541506 1_555
O5 P7 1.551708 1_556
O5 V1 2.062776 1_555
O6 P1 1.552551 1_555
O6 V1 2.070456 1_565
O7 P1 1.547968 1_555
O7 V0 1.989604 1_655
O8 P2 1.546079 1_555
O8 V0 1.973664 1_555
O9 P2 1.545726 1_555
O9 V1 1.955052 1_555
O10 P3 1.566866 1_555
O10 V1 2.037480 1_565
O11 P2 1.541903 1_555
O12 P4 1.581003 1_555
O12 V1 1.937092 1_555
O13 P4 1.525879 1_555
O13 V0 2.075308 1_655
O14 P3 1.535307 1_555
O15 P2 1.566188 1_555
O15 V2 2.031557 1_455
O16 P5 1.539767 1_555
O16 V0 2.085633 1_655
O17 P4 1.569732 1_555
O18 P3 1.553870 1_555
O18 V2 2.043048 1_455
O19 P3 1.548234 1_555
O19 V3 1.987602 1_565
O20 P5 1.564129 1_555
O21 P4 1.525142 1_555
O21 V3 1.994745 1_555
O22 P5 1.528527 1_555
O22 V3 2.108429 1_565
O23 P5 1.564862 1_555
O23 V2 1.872198 1_555
O24 P6 1.592238 1_555
O24 V2 1.916861 1_455
O25 P6 1.527161 1_555
O25 V3 2.070063 1_555
O26 P0 1.549196 1_554
O26 V3 2.066742 1_565
O27 P6 1.558544 1_555
O28 P7 1.537297 1_555
O28 V3 1.988977 1_555
O29 P7 1.534621 1_555
O29 V2 1.973146 1_555
O30 P1 1.562493 1_554
O30 V2 2.061086 1_555
O31 P7 1.573867 1_555
