# generated using pymatgen
data_LiMnPO4
_symmetry_space_group_name_H-M   'P 1'
_cell_length_a   7.97037700
_cell_length_b   8.83785500
_cell_length_c   17.63800917
_cell_angle_alpha   60.77301366
_cell_angle_beta   90.00000000
_cell_angle_gamma   90.00000000
_symmetry_Int_Tables_number   1
_chemical_formula_structural   LiMnPO4
_chemical_formula_sum   'Li12 Mn12 P12 O48'
_cell_volume   1084.26738341
_cell_formula_units_Z   12
loop_
 _symmetry_equiv_pos_site_id
 _symmetry_equiv_pos_as_xyz
  1  'x, y, z'
loop_
 _atom_site_type_symbol
 _atom_site_label
 _atom_site_symmetry_multiplicity
 _atom_site_fract_x
 _atom_site_fract_y
 _atom_site_fract_z
 _atom_site_occupancy
  Li  Li0  1  0.99196600  0.27169800  0.93560100  1
  Li  Li1  1  0.01546200  0.63727200  0.58658400  1
  Li  Li2  1  0.86712100  0.00429900  0.24629800  1
  Li  Li3  1  0.36712100  0.99570100  0.25370200  1
  Li  Li4  1  0.51546200  0.36272800  0.91341600  1
  Li  Li5  1  0.49196600  0.72830200  0.56439900  1
  Li  Li6  1  0.50803400  0.27169800  0.43560100  1
  Li  Li7  1  0.48453800  0.63727200  0.08658400  1
  Li  Li8  1  0.63287900  0.00429900  0.74629800  1
  Li  Li9  1  0.13287900  0.99570100  0.75370200  1
  Li  Li10  1  0.98453800  0.36272800  0.41341600  1
  Li  Li11  1  0.00803400  0.72830200  0.06439900  1
  Mn  Mn0  1  0.66479300  0.65226300  0.40484600  1
  Mn  Mn1  1  0.82308600  0.31486100  0.76302800  1
  Mn  Mn2  1  0.66457100  0.01686800  0.08126100  1
  Mn  Mn3  1  0.16457100  0.98313200  0.41873900  1
  Mn  Mn4  1  0.32308600  0.68513900  0.73697200  1
  Mn  Mn5  1  0.16479300  0.34773700  0.09515400  1
  Mn  Mn6  1  0.83520700  0.65226300  0.90484600  1
  Mn  Mn7  1  0.67691400  0.31486100  0.26302800  1
  Mn  Mn8  1  0.83542900  0.01686800  0.58126100  1
  Mn  Mn9  1  0.33542900  0.98313200  0.91873900  1
  Mn  Mn10  1  0.17691400  0.68513900  0.23697200  1
  Mn  Mn11  1  0.33520700  0.34773700  0.59515400  1
  P  P0  1  0.25800700  0.63883200  0.41264200  1
  P  P1  1  0.22176300  0.31344600  0.77229000  1
  P  P2  1  0.26488500  0.03615700  0.07182500  1
  P  P3  1  0.76488500  0.96384300  0.42817500  1
  P  P4  1  0.72176300  0.68655400  0.72771000  1
  P  P5  1  0.75800700  0.36116800  0.08735800  1
  P  P6  1  0.24199300  0.63883200  0.91264200  1
  P  P7  1  0.27823700  0.31344600  0.27229000  1
  P  P8  1  0.23511500  0.03615700  0.57182500  1
  P  P9  1  0.73511500  0.96384300  0.92817500  1
  P  P10  1  0.77823700  0.68655400  0.22771000  1
  P  P11  1  0.74199300  0.36116800  0.58735800  1
  O  O0  1  0.57336000  0.44108500  0.59622100  1
  O  O1  1  0.88091200  0.41473700  0.63164500  1
  O  O2  1  0.78228200  0.09181200  0.96195200  1
  O  O3  1  0.05476000  0.26389100  0.82531800  1
  O  O4  1  0.36778600  0.25417300  0.83906000  1
  O  O5  1  0.76752300  0.78620000  0.28031300  1
  O  O6  1  0.21569400  0.57716800  0.50941600  1
  O  O7  1  0.28602000  0.93038400  0.17238400  1
  O  O8  1  0.43352000  0.13099700  0.03098800  1
  O  O9  1  0.22621300  0.50978200  0.70468000  1
  O  O10  1  0.27235400  0.84138700  0.36430700  1
  O  O11  1  0.12610700  0.17582700  0.04666000  1
  O  O12  1  0.62610700  0.82417300  0.45334000  1
  O  O13  1  0.77235400  0.15861300  0.13569300  1
  O  O14  1  0.72621300  0.49021800  0.79532000  1
  O  O15  1  0.93352000  0.86900300  0.46901200  1
  O  O16  1  0.78602000  0.06961600  0.32761600  1
  O  O17  1  0.71569400  0.42283200  0.99058400  1
  O  O18  1  0.86778600  0.74582700  0.66094000  1
  O  O19  1  0.26752300  0.21380000  0.21968700  1
  O  O20  1  0.55476000  0.73610900  0.67468200  1
  O  O21  1  0.28228200  0.90818800  0.53804800  1
  O  O22  1  0.38091200  0.58526300  0.86835500  1
  O  O23  1  0.07336000  0.55891500  0.90377900  1
  O  O24  1  0.92664000  0.44108500  0.09622100  1
  O  O25  1  0.61908800  0.41473700  0.13164500  1
  O  O26  1  0.71771800  0.09181200  0.46195200  1
  O  O27  1  0.44524000  0.26389100  0.32531800  1
  O  O28  1  0.73247700  0.78620000  0.78031300  1
  O  O29  1  0.13221400  0.25417300  0.33906000  1
  O  O30  1  0.28430600  0.57716800  0.00941600  1
  O  O31  1  0.21398000  0.93038400  0.67238400  1
  O  O32  1  0.06648000  0.13099700  0.53098800  1
  O  O33  1  0.27378700  0.50978200  0.20468000  1
  O  O34  1  0.22764600  0.84138700  0.86430700  1
  O  O35  1  0.37389300  0.17582700  0.54666000  1
  O  O36  1  0.87389300  0.82417300  0.95334000  1
  O  O37  1  0.72764600  0.15861300  0.63569300  1
  O  O38  1  0.77378700  0.49021800  0.29532000  1
  O  O39  1  0.56648000  0.86900300  0.96901200  1
  O  O40  1  0.71398000  0.06961600  0.82761600  1
  O  O41  1  0.78430600  0.42283200  0.49058400  1
  O  O42  1  0.23247700  0.21380000  0.71968700  1
  O  O43  1  0.63221400  0.74582700  0.16094000  1
  O  O44  1  0.94524000  0.73610900  0.17468200  1
  O  O45  1  0.21771800  0.90818800  0.03804800  1
  O  O46  1  0.11908800  0.58526300  0.36835500  1
  O  O47  1  0.42664000  0.55891500  0.40377900  1
loop_
_geom_bond_atom_site_label_1
_geom_bond_atom_site_label_2
_geom_bond_distance
_geom_bond_site_symmetry_2
Li0 O11 2.019241 1_656
Li0 O3 2.042061 1_655
Li0 O2 2.194320 1_555
Li0 O23 2.405820 1_655
Li1 O1 2.030598 1_455
Li1 O15 2.184917 1_455
Li1 O18 2.292286 1_455
Li1 O6 2.321151 1_555
Li1 O9 2.477505 1_555
Li2 O5 1.891078 1_545
Li2 O16 1.901786 1_555
Li2 O13 1.907391 1_555
Li3 O19 1.891078 1_565
Li3 O7 1.901786 1_555
Li3 O10 1.907391 1_555
Li4 O22 2.030598 1_555
Li4 O8 2.184917 1_556
Li4 O4 2.292286 1_555
Li4 O17 2.321151 1_555
Li4 O14 2.477505 1_555
Li5 O12 2.019241 1_555
Li5 O20 2.042061 1_555
Li5 O21 2.194320 1_555
Li5 O0 2.405820 1_555
Li6 O35 2.019241 1_555
Li6 O27 2.042061 1_555
Li6 O26 2.194320 1_555
Li6 O47 2.405820 1_555
Li7 O25 2.030598 1_555
Li7 O39 2.184917 1_554
Li7 O43 2.292286 1_555
Li7 O30 2.321151 1_555
Li7 O33 2.477505 1_555
Li8 O28 1.891078 1_545
Li8 O40 1.901786 1_555
Li8 O37 1.907391 1_555
Li9 O42 1.891078 1_565
Li9 O31 1.901786 1_555
Li9 O34 1.907391 1_555
Li10 O46 2.030598 1_655
Li10 O32 2.184917 1_655
Li10 O29 2.292286 1_655
Li10 O41 2.321151 1_555
Li10 O38 2.477505 1_555
Li11 O36 2.019241 1_454
Li11 O44 2.042061 1_455
Li11 O45 2.194320 1_555
Li11 O24 2.405820 1_455
Mn0 O47 2.073447 1_555
Mn0 O41 2.076374 1_555
Mn0 O5 2.087398 1_555
Mn0 O12 2.098581 1_555
Mn1 O14 2.045576 1_555
Mn1 O3 2.082394 1_655
Mn1 O40 2.083406 1_555
Mn1 O1 2.089043 1_555
Mn2 O8 2.078845 1_555
Mn2 O2 2.094322 1_554
Mn2 O13 2.098462 1_555
Mn2 O43 2.119467 1_545
Mn3 O15 2.078845 1_455
Mn3 O21 2.094322 1_555
Mn3 O10 2.098462 1_555
Mn3 O29 2.119467 1_565
Mn4 O9 2.045576 1_555
Mn4 O20 2.082394 1_555
Mn4 O31 2.083406 1_555
Mn4 O22 2.089043 1_555
Mn5 O24 2.073447 1_455
Mn5 O30 2.076374 1_555
Mn5 O19 2.087398 1_555
Mn5 O11 2.098581 1_555
Mn6 O23 2.073447 1_655
Mn6 O17 2.076374 1_555
Mn6 O28 2.087398 1_555
Mn6 O36 2.098581 1_555
Mn7 O38 2.045576 1_555
Mn7 O27 2.082394 1_555
Mn7 O16 2.083406 1_555
Mn7 O25 2.089043 1_555
Mn8 O32 2.078845 1_655
Mn8 O26 2.094322 1_555
Mn8 O37 2.098462 1_555
Mn8 O18 2.119467 1_545
Mn9 O39 2.078845 1_555
Mn9 O45 2.094322 1_556
Mn9 O34 2.098462 1_555
Mn9 O4 2.119467 1_565
Mn10 O33 2.045576 1_555
Mn10 O44 2.082394 1_455
Mn10 O7 2.083406 1_555
Mn10 O46 2.089043 1_555
Mn11 O0 2.073447 1_555
Mn11 O6 2.076374 1_555
Mn11 O42 2.087398 1_555
Mn11 O35 2.098581 1_555
O0 P11 1.561292 1_555
O1 P11 1.556093 1_555
O2 P9 1.559915 1_545
O3 P1 1.561524 1_555
O4 P1 1.553537 1_555
O5 P10 1.562562 1_555
O6 P0 1.554300 1_555
O7 P2 1.558518 1_565
O8 P2 1.561523 1_555
O9 P1 1.553553 1_555
O10 P0 1.566579 1_555
O11 P2 1.552147 1_555
O12 P3 1.552147 1_555
O13 P5 1.566579 1_555
O14 P4 1.553553 1_555
O15 P3 1.561523 1_555
O16 P3 1.558518 1_545
O17 P5 1.554300 1_556
O18 P4 1.553537 1_555
O19 P7 1.562562 1_555
O20 P4 1.561524 1_555
O21 P8 1.559915 1_565
O22 P6 1.556093 1_555
O23 P6 1.561292 1_555
O24 P5 1.561292 1_555
O25 P5 1.556093 1_555
O26 P3 1.559915 1_545
O27 P7 1.561524 1_555
O28 P4 1.562562 1_555
O29 P7 1.553537 1_555
O30 P6 1.554300 1_554
O31 P8 1.558518 1_565
O32 P8 1.561523 1_555
O33 P7 1.553553 1_555
O34 P6 1.566579 1_555
O35 P8 1.552147 1_555
O36 P9 1.552147 1_555
O37 P11 1.566579 1_555
O38 P10 1.553553 1_555
O39 P9 1.561523 1_555
O40 P9 1.558518 1_545
O41 P11 1.554300 1_555
O42 P1 1.562562 1_555
O43 P10 1.553537 1_555
O44 P10 1.561524 1_555
O45 P2 1.559915 1_565
O46 P0 1.556093 1_555
O47 P0 1.561292 1_555
