# generated using pymatgen
data_Li6MnV3(PO4)6
_symmetry_space_group_name_H-M   'P 1'
_cell_length_a   8.55458000
_cell_length_b   8.76227543
_cell_length_c   12.10025120
_cell_angle_alpha   89.50681377
_cell_angle_beta   88.91837963
_cell_angle_gamma   89.93618671
_symmetry_Int_Tables_number   1
_chemical_formula_structural   Li6MnV3(PO4)6
_chemical_formula_sum   'Li12 Mn2 V6 P12 O48'
_cell_volume   906.81000515
_cell_formula_units_Z   2
loop_
 _symmetry_equiv_pos_site_id
 _symmetry_equiv_pos_as_xyz
  1  'x, y, z'
loop_
 _atom_site_type_symbol
 _atom_site_label
 _atom_site_symmetry_multiplicity
 _atom_site_fract_x
 _atom_site_fract_y
 _atom_site_fract_z
 _atom_site_occupancy
  Li  Li0  1  0.93517900  0.51470300  0.34737000  1
  Li  Li1  1  0.91977200  0.08671200  0.69051600  1
  Li  Li2  1  0.81972400  0.77998200  0.17717700  1
  Li  Li3  1  0.68040200  0.27910300  0.32116000  1
  Li  Li4  1  0.57967300  0.58626200  0.80948100  1
  Li  Li5  1  0.56530200  0.01226500  0.15383200  1
  Li  Li6  1  0.43510000  0.98552300  0.84616400  1
  Li  Li7  1  0.42039000  0.41425300  0.19073600  1
  Li  Li8  1  0.31919900  0.72083500  0.67866300  1
  Li  Li9  1  0.17931800  0.21850200  0.82210200  1
  Li  Li10  1  0.07923500  0.91484200  0.30889500  1
  Li  Li11  1  0.06504000  0.48554300  0.65329500  1
  Mn  Mn0  1  0.75524000  0.46389400  0.10878600  1
  Mn  Mn1  1  0.24709300  0.97050600  0.10550000  1
  V  V0  1  0.75584100  0.02706800  0.89484300  1
  V  V1  1  0.74504000  0.52814100  0.60531100  1
  V  V2  1  0.74501900  0.96592800  0.39081400  1
  V  V3  1  0.25512800  0.03475800  0.60958400  1
  V  V4  1  0.25503900  0.47229400  0.39476300  1
  V  V5  1  0.24361900  0.53424200  0.89151100  1
  P  P0  1  0.96057500  0.24873200  0.49027900  1
  P  P1  1  0.88510300  0.38281500  0.84861100  1
  P  P2  1  0.88594900  0.11180300  0.14570000  1
  P  P3  1  0.61409400  0.88343700  0.65160800  1
  P  P4  1  0.61425200  0.61004500  0.35273800  1
  P  P5  1  0.54165600  0.74682900  0.00916800  1
  P  P6  1  0.45558600  0.24895300  0.98971000  1
  P  P7  1  0.38559000  0.39003400  0.64691300  1
  P  P8  1  0.38636500  0.11736600  0.35050800  1
  P  P9  1  0.11511300  0.88944700  0.85174800  1
  P  P10  1  0.11617600  0.62008900  0.15280500  1
  P  P11  1  0.04028000  0.75160000  0.50958700  1
  O  O0  1  0.94765000  0.89131500  0.89702000  1
  O  O1  1  0.94867300  0.87188200  0.44500800  1
  O  O2  1  0.94449900  0.66496800  0.60002000  1
  O  O3  1  0.94530000  0.58475400  0.19292600  1
  O  O4  1  0.90112200  0.35902300  0.58181300  1
  O  O5  1  0.87326500  0.20634400  0.83033400  1
  O  O6  1  0.86164700  0.41861400  0.97100900  1
  O  O7  1  0.87235300  0.99514700  0.24576600  1
  O  O8  1  0.82578300  0.27043400  0.18726800  1
  O  O9  1  0.81621700  0.17730500  0.43363300  1
  O  O10  1  0.77020200  0.47196400  0.77508200  1
  O  O11  1  0.76416700  0.05009500  0.06255100  1
  O  O12  1  0.73418100  0.54978200  0.43896800  1
  O  O13  1  0.72917300  0.97204500  0.72350000  1
  O  O14  1  0.68935600  0.67481400  0.06395200  1
  O  O15  1  0.67127700  0.76941000  0.31301800  1
  O  O16  1  0.63964100  0.92227600  0.52972400  1
  O  O17  1  0.62874200  0.49282900  0.25419800  1
  O  O18  1  0.62350000  0.70642300  0.66904600  1
  O  O19  1  0.60046800  0.85936100  0.91732000  1
  O  O20  1  0.55321400  0.16455700  0.90064200  1
  O  O21  1  0.55870000  0.07940100  0.31219800  1
  O  O22  1  0.55354800  0.39016900  0.60335900  1
  O  O23  1  0.54393100  0.36751900  0.05602400  1
  O  O24  1  0.44982600  0.62787800  0.94514600  1
  O  O25  1  0.44670200  0.60862900  0.39634100  1
  O  O26  1  0.44118400  0.92114400  0.68841000  1
  O  O27  1  0.44837300  0.83045900  0.10125900  1
  O  O28  1  0.39542900  0.13537100  0.08234800  1
  O  O29  1  0.37678700  0.29452300  0.33235300  1
  O  O30  1  0.37108200  0.50630100  0.74526600  1
  O  O31  1  0.36409600  0.07985700  0.47296600  1
  O  O32  1  0.32762800  0.23113300  0.68711600  1
  O  O33  1  0.31199400  0.32110900  0.93221200  1
  O  O34  1  0.27005600  0.02790700  0.28107200  1
  O  O35  1  0.26553800  0.45086100  0.56102500  1
  O  O36  1  0.23741100  0.95112900  0.93301800  1
  O  O37  1  0.23305800  0.53111700  0.22480200  1
  O  O38  1  0.18475200  0.82305100  0.56590200  1
  O  O39  1  0.16947200  0.72939700  0.81234700  1
  O  O40  1  0.12474700  0.00552000  0.75117800  1
  O  O41  1  0.14026000  0.58001000  0.03142000  1
  O  O42  1  0.12504600  0.79891300  0.16678900  1
  O  O43  1  0.09998900  0.64078100  0.41846600  1
  O  O44  1  0.05781900  0.42058700  0.81158200  1
  O  O45  1  0.05622300  0.33548400  0.39987900  1
  O  O46  1  0.05201200  0.12766100  0.55409100  1
  O  O47  1  0.05281200  0.11424700  0.10075600  1
loop_
_geom_bond_atom_site_label_1
_geom_bond_atom_site_label_2
_geom_bond_distance
_geom_bond_site_symmetry_2
Li0 O3 1.962389 1_555
Li0 O45 1.986456 1_655
Li0 O43 2.003470 1_655
Li0 O12 2.052363 1_555
Li1 O13 1.949229 1_545
Li1 O46 2.013394 1_655
Li1 O5 2.030664 1_555
Li1 O40 2.038730 1_655
Li2 O14 2.012883 1_555
Li2 O3 2.028459 1_555
Li2 O15 2.059575 1_555
Li2 O7 2.118709 1_555
Li3 O9 2.008528 1_555
Li3 O8 2.025622 1_555
Li3 O21 2.041864 1_555
Li3 O17 2.084340 1_555
Li4 O10 1.952118 1_555
Li4 O24 2.000541 1_555
Li4 O18 2.020587 1_555
Li4 O30 2.084051 1_555
Li5 O27 1.997002 1_545
Li5 O21 2.009123 1_555
Li5 O28 2.012814 1_555
Li5 O11 2.036655 1_555
Li6 O20 1.990709 1_565
Li6 O26 1.994844 1_555
Li6 O36 1.995968 1_555
Li6 O19 1.997685 1_555
Li7 O37 1.940440 1_555
Li7 O23 1.971586 1_555
Li7 O29 2.030266 1_555
Li7 O17 2.074620 1_555
Li8 O38 2.005641 1_555
Li8 O39 2.046100 1_555
Li8 O26 2.048353 1_555
Li8 O30 2.089431 1_555
Li9 O33 1.987886 1_555
Li9 O32 2.051528 1_555
Li9 O44 2.056448 1_555
Li9 O40 2.117027 1_555
Li10 O34 1.933045 1_565
Li10 O1 2.005642 1_455
Li10 O42 2.036153 1_555
Li10 O7 2.061504 1_455
Li11 O2 1.988630 1_455
Li11 O44 1.993246 1_555
Li11 O4 2.002300 1_455
Li11 O35 2.052587 1_555
Mn0 O6 1.928376 1_554
Mn0 O14 2.004881 1_555
Mn0 O8 2.032532 1_555
Mn0 O17 2.065527 1_555
Mn0 O23 2.108223 1_555
Mn0 O3 2.210531 1_555
Mn1 O28 1.938882 1_565
Mn1 O42 1.963611 1_555
Mn1 O47 2.085556 1_565
Mn1 O36 2.098626 1_554
Mn1 O27 2.113373 1_555
Mn1 O34 2.199837 1_565
O0 P9 1.524173 1_655
O0 V0 2.026015 1_565
O1 P11 1.530569 1_655
O1 V2 2.043256 1_555
O2 P11 1.548622 1_655
O2 V1 2.086151 1_555
O3 P10 1.562035 1_655
O4 P0 1.554158 1_555
O4 V1 2.011980 1_555
O5 P1 1.567562 1_555
O5 V0 2.009668 1_555
O6 P1 1.526039 1_555
O7 P2 1.580537 1_565
O7 V2 2.062339 1_555
O8 P2 1.565434 1_555
O9 P0 1.558081 1_555
O9 V2 2.025042 1_545
O10 P1 1.545084 1_555
O10 V1 2.123138 1_555
O11 P2 1.562105 1_555
O11 V0 2.043628 1_554
O12 P4 1.565184 1_555
O12 V1 2.023949 1_555
O13 P3 1.540897 1_555
O13 V0 2.149034 1_565
O14 P5 1.567394 1_555
O15 P4 1.549198 1_555
O15 V2 2.074109 1_555
O16 P3 1.522514 1_555
O16 V2 1.927868 1_555
O17 P4 1.583412 1_555
O18 P3 1.565716 1_555
O18 V1 2.025579 1_555
O19 P5 1.556179 1_556
O19 V0 1.995959 1_565
O20 P6 1.544106 1_555
O20 V0 2.110240 1_555
O21 P8 1.573129 1_555
O21 V2 2.114569 1_545
O22 P7 1.521044 1_555
O22 V1 2.037636 1_555
O23 P6 1.527534 1_554
O24 P5 1.530457 1_556
O24 V5 2.064393 1_555
O25 P4 1.517994 1_555
O25 V4 2.030187 1_555
O26 P3 1.572258 1_555
O26 V3 2.114602 1_565
O27 P5 1.547476 1_555
O28 P6 1.572259 1_554
O29 P8 1.568161 1_555
O29 V4 2.017009 1_555
O30 P7 1.576269 1_555
O30 V5 2.077114 1_555
O31 P8 1.523502 1_555
O31 V3 1.920752 1_555
O32 P7 1.549798 1_555
O32 V3 2.068262 1_555
O33 P6 1.554236 1_555
O33 V5 2.016174 1_555
O34 P8 1.534594 1_555
O35 P7 1.564737 1_555
O35 V4 2.022623 1_555
O36 P9 1.550150 1_555
O37 P10 1.544649 1_555
O37 V4 2.127590 1_555
O38 P11 1.557117 1_555
O38 V3 2.028389 1_565
O39 P9 1.553050 1_555
O39 V5 2.058238 1_555
O40 P9 1.580254 1_545
O40 V3 2.041093 1_555
O41 P10 1.523290 1_555
O41 V5 1.939854 1_554
O42 P10 1.579524 1_555
O43 P11 1.554206 1_555
O43 V4 2.002418 1_555
O44 P1 1.570632 1_455
O44 V5 2.128764 1_555
O45 P0 1.548268 1_455
O45 V4 2.081548 1_555
O46 P0 1.529810 1_455
O46 V3 2.040635 1_555
O47 P2 1.518014 1_455
