# generated using pymatgen
data_Mn12O5F19
_symmetry_space_group_name_H-M   'P 1'
_cell_length_a   4.84539900
_cell_length_b   5.80207928
_cell_length_c   16.07447481
_cell_angle_alpha   89.70317241
_cell_angle_beta   89.89938420
_cell_angle_gamma   87.61303520
_symmetry_Int_Tables_number   1
_chemical_formula_structural   Mn12O5F19
_chemical_formula_sum   'Mn12 O5 F19'
_cell_volume   451.50926380
_cell_formula_units_Z   1
loop_
 _symmetry_equiv_pos_site_id
 _symmetry_equiv_pos_as_xyz
  1  'x, y, z'
loop_
 _atom_site_type_symbol
 _atom_site_label
 _atom_site_symmetry_multiplicity
 _atom_site_fract_x
 _atom_site_fract_y
 _atom_site_fract_z
 _atom_site_occupancy
  Mn  Mn0  1  0.99171000  0.16955100  0.41204000  1
  Mn  Mn1  1  0.02395000  0.83159600  0.23888800  1
  Mn  Mn2  1  0.00129300  0.15813300  0.08174500  1
  Mn  Mn3  1  0.03106800  0.14652200  0.74746000  1
  Mn  Mn4  1  0.00463500  0.84428800  0.58472900  1
  Mn  Mn5  1  0.01273100  0.84235000  0.90976400  1
  Mn  Mn6  1  0.47861700  0.31023300  0.58974600  1
  Mn  Mn7  1  0.52944400  0.33693300  0.92607100  1
  Mn  Mn8  1  0.51541000  0.33353800  0.25692500  1
  Mn  Mn9  1  0.49841300  0.65609200  0.08354300  1
  Mn  Mn10  1  0.52328400  0.64744700  0.41620200  1
  Mn  Mn11  1  0.48726000  0.66898300  0.75355700  1
  O  O0  1  0.20456000  0.09946500  0.64336700  1
  O  O1  1  0.22561900  0.88848900  0.12742700  1
  O  O2  1  0.22416300  0.89211800  0.80291200  1
  O  O3  1  0.72564700  0.38895600  0.03759800  1
  O  O4  1  0.72760400  0.39881100  0.36664900  1
  F  F0  1  0.22014500  0.11005600  0.30419300  1
  F  F1  1  0.21276600  0.12507200  0.97134300  1
  F  F2  1  0.24128200  0.88882000  0.46854000  1
  F  F3  1  0.25504500  0.39166300  0.14624100  1
  F  F4  1  0.27100900  0.61759800  0.31238800  1
  F  F5  1  0.26568000  0.39353000  0.47518800  1
  F  F6  1  0.26560400  0.59668900  0.64277900  1
  F  F7  1  0.28096100  0.39638600  0.81319200  1
  F  F8  1  0.27766200  0.61904900  0.97670300  1
  F  F9  1  0.70948700  0.62457800  0.19230400  1
  F  F10  1  0.72983100  0.61589600  0.53138200  1
  F  F11  1  0.73089800  0.61617900  0.86301300  1
  F  F12  1  0.74037100  0.38296300  0.70117700  1
  F  F13  1  0.77617100  0.11362400  0.18756500  1
  F  F14  1  0.76022000  0.10712400  0.52165000  1
  F  F15  1  0.77033100  0.88857700  0.35441300  1
  F  F16  1  0.75893200  0.89272500  0.01712500  1
  F  F17  1  0.78533700  0.12638300  0.85104400  1
  F  F18  1  0.74286100  0.87958400  0.69113600  1
loop_
_geom_bond_atom_site_label_1
_geom_bond_atom_site_label_2
_geom_bond_distance
_geom_bond_site_symmetry_2
Mn0 O4 1.947004 1_555
Mn1 O1 2.070874 1_555
Mn2 O3 1.981298 1_455
Mn2 O1 2.004389 1_545
Mn3 O0 1.887227 1_555
Mn3 O2 1.929498 1_545
Mn4 O0 2.038637 1_565
Mn5 O2 2.023947 1_555
Mn6 O0 2.030289 1_555
Mn7 O3 2.060172 1_556
Mn8 O4 2.087369 1_555
Mn9 O1 1.980156 1_555
Mn9 O3 2.006717 1_555
Mn10 O4 1.893642 1_555
Mn11 O2 1.949430 1_555
F0 Mn0 2.077798 1_455
F0 Mn8 2.108547 1_555
F0 Mn1 2.182891 1_545
F1 Mn2 2.053512 1_556
F1 Mn7 2.130493 1_555
F1 Mn5 2.182363 1_545
F2 Mn10 2.094028 1_555
F2 Mn0 2.182823 1_465
F2 Mn4 2.209511 1_555
F3 Mn2 2.140161 1_555
F3 Mn8 2.199326 1_555
F3 Mn9 2.211487 1_555
F4 Mn1 2.058286 1_555
F4 Mn10 2.082481 1_555
F4 Mn8 2.182320 1_555
F5 Mn0 2.154883 1_455
F5 Mn6 2.155227 1_555
F5 Mn10 2.182204 1_555
F6 Mn4 2.091030 1_555
F6 Mn6 2.103115 1_555
F6 Mn11 2.133615 1_555
F7 Mn11 2.128917 1_555
F7 Mn7 2.197158 1_555
F7 Mn3 2.202461 1_555
F8 Mn9 2.041855 1_556
F8 Mn5 2.082342 1_555
F8 Mn7 2.161956 1_555
F9 Mn9 2.030587 1_555
F9 Mn1 2.119169 1_655
F9 Mn8 2.219341 1_555
F10 Mn4 2.104071 1_655
F10 Mn10 2.109680 1_555
F10 Mn6 2.380256 1_555
F11 Mn5 2.077190 1_655
F11 Mn11 2.134183 1_555
F11 Mn7 2.171767 1_555
F12 Mn3 2.061944 1_655
F12 Mn11 2.192793 1_555
F12 Mn6 2.248429 1_555
F13 Mn2 2.040183 1_655
F13 Mn8 2.083997 1_555
F13 Mn1 2.150699 1_645
F14 Mn6 2.079159 1_555
F14 Mn0 2.124613 1_555
F14 Mn4 2.143368 1_645
F15 Mn10 2.120775 1_555
F15 Mn0 2.197989 1_565
F15 Mn1 2.243307 1_655
F16 Mn5 2.131631 1_654
F16 Mn9 2.177788 1_555
F16 Mn2 2.236262 1_665
F17 Mn3 2.050943 1_655
F17 Mn7 2.089991 1_555
F17 Mn5 2.158023 1_645
F18 Mn11 2.035368 1_555
F18 Mn4 2.133247 1_655
F18 Mn3 2.316842 1_665
