# generated using pymatgen
data_Ba2Ti6N2O11
_symmetry_space_group_name_H-M   'P 1'
_cell_length_a   7.95663205
_cell_length_b   7.95663205
_cell_length_c   9.24111900
_cell_angle_alpha   81.59884384
_cell_angle_beta   81.59884384
_cell_angle_gamma   28.73505731
_symmetry_Int_Tables_number   1
_chemical_formula_structural   Ba2Ti6N2O11
_chemical_formula_sum   'Ba2 Ti6 N2 O11'
_cell_volume   278.04501170
_cell_formula_units_Z   1
loop_
 _symmetry_equiv_pos_site_id
 _symmetry_equiv_pos_as_xyz
  1  'x, y, z'
loop_
 _atom_site_type_symbol
 _atom_site_label
 _atom_site_symmetry_multiplicity
 _atom_site_fract_x
 _atom_site_fract_y
 _atom_site_fract_z
 _atom_site_occupancy
  Ba  Ba0  1  0.55260200  0.55260200  0.23442400  1
  Ba  Ba1  1  0.45086700  0.45086700  0.77412900  1
  Ti  Ti0  1  0.11923900  0.11923900  0.91118500  1
  Ti  Ti1  1  0.16810300  0.16810300  0.55998500  1
  Ti  Ti2  1  0.24878100  0.24878100  0.22208500  1
  Ti  Ti3  1  0.76328300  0.76328300  0.76687200  1
  Ti  Ti4  1  0.82661900  0.82661900  0.42826700  1
  Ti  Ti5  1  0.87506900  0.87506900  0.10272500  1
  N  N0  1  0.76249700  0.76249700  0.24594900  1
  N  N1  1  0.36116800  0.36116800  0.10294500  1
  O  O0  1  0.07350400  0.07350400  0.70578700  1
  O  O1  1  0.12567900  0.12567900  0.39090000  1
  O  O2  1  0.16422600  0.16422600  0.08863800  1
  O  O3  1  0.63861200  0.63861200  0.88497600  1
  O  O4  1  0.69984900  0.69984900  0.57246800  1
  O  O5  1  0.24015100  0.24015100  0.76019900  1
  O  O6  1  0.29809700  0.29809700  0.43178300  1
  O  O7  1  0.83443100  0.83443100  0.90461800  1
  O  O8  1  0.86521100  0.86521100  0.61677800  1
  O  O9  1  0.92849900  0.92849900  0.29812200  1
  O  O10  1  0.00351200  0.00351200  0.99716300  1
loop_
_geom_bond_atom_site_label_1
_geom_bond_atom_site_label_2
_geom_bond_distance
_geom_bond_site_symmetry_2
Ba0 O9 2.750445 1_545
Ba0 O9 2.750445 1_455
Ba0 O1 2.783791 1_655
Ba0 O1 2.783791 1_565
Ba0 O2 2.823975 1_655
Ba0 O2 2.823975 1_565
Ba0 O10 3.127073 1_564
Ba0 O10 3.127073 1_654
Ba0 N0 3.253416 1_555
Ba0 O3 3.300724 1_554
Ba0 N1 3.356573 1_555
Ba1 O0 2.740601 1_565
Ba1 O0 2.740601 1_655
Ba1 O7 2.814446 1_455
Ba1 O7 2.814446 1_545
Ba1 O8 2.887081 1_455
Ba1 O8 2.887081 1_545
Ba1 O10 3.051123 1_655
Ba1 O10 3.051123 1_565
Ba1 N1 3.142910 1_556
Ba1 O3 3.212463 1_555
Ba1 O5 3.270197 1_555
N0 Ti2 2.001381 1_565
N0 Ti2 2.001381 1_655
N0 Ti5 2.017534 1_555
N0 Ti4 2.077996 1_555
N1 Ti2 1.907456 1_555
N1 Ti5 1.985929 1_455
N1 Ti5 1.985929 1_545
O0 Ti1 1.830126 1_555
O0 Ti0 2.122155 1_555
O1 Ti1 1.782542 1_555
O1 Ti2 2.267585 1_555
O2 Ti0 1.874336 1_554
O2 Ti2 1.924750 1_555
O3 Ti0 2.006029 1_655
O3 Ti0 2.006029 1_565
O3 Ti3 2.062055 1_555
O4 Ti1 2.041556 1_655
O4 Ti1 2.041556 1_565
O4 Ti3 2.171080 1_555
O4 Ti4 2.193003 1_555
O5 Ti3 2.008909 1_545
O5 Ti3 2.008909 1_455
O5 Ti0 2.153265 1_555
O5 Ti1 2.297099 1_555
O6 Ti4 2.021927 1_545
O6 Ti4 2.021927 1_455
O6 Ti1 2.168685 1_555
O6 Ti2 2.185767 1_555
O7 Ti3 1.801225 1_555
O7 Ti5 2.022366 1_556
O8 Ti4 1.923873 1_555
O8 Ti3 1.932714 1_555
O9 Ti4 1.828465 1_555
O9 Ti5 2.094643 1_555
O10 Ti0 1.840209 1_555
O10 Ti5 2.071105 1_446
