# generated using pymatgen
data_Ce6Y2O15
_symmetry_space_group_name_H-M   'P 1'
_cell_length_a   9.43576110
_cell_length_b   9.43576110
_cell_length_c   10.88670822
_cell_angle_alpha   54.76548152
_cell_angle_beta   54.76548152
_cell_angle_gamma   70.61076639
_symmetry_Int_Tables_number   1
_chemical_formula_structural   Ce6Y2O15
_chemical_formula_sum   'Ce12 Y4 O30'
_cell_volume   646.66427213
_cell_formula_units_Z   2
loop_
 _symmetry_equiv_pos_site_id
 _symmetry_equiv_pos_as_xyz
  1  'x, y, z'
loop_
 _atom_site_type_symbol
 _atom_site_label
 _atom_site_symmetry_multiplicity
 _atom_site_fract_x
 _atom_site_fract_y
 _atom_site_fract_z
 _atom_site_occupancy
  Ce  Ce0  1  0.24819600  0.75680800  0.74449000  1
  Ce  Ce1  1  0.26739700  0.24260100  0.48253300  1
  Ce  Ce2  1  0.75066400  0.75246300  0.00074900  1
  Ce  Ce3  1  0.50494600  0.49799300  0.99654400  1
  Ce  Ce4  1  0.24816400  0.72891200  0.25741600  1
  Ce  Ce5  1  0.49799300  0.50494600  0.49654400  1
  Ce  Ce6  1  0.72891200  0.24816400  0.75741600  1
  Ce  Ce7  1  0.49587400  0.99903000  0.75047300  1
  Ce  Ce8  1  0.99903000  0.49587400  0.25047300  1
  Ce  Ce9  1  0.24260100  0.26739700  0.98253300  1
  Ce  Ce10  1  0.75246300  0.75066400  0.50074900  1
  Ce  Ce11  1  0.75680800  0.24819600  0.24449000  1
  Y  Y0  1  0.98109500  0.00448600  0.51995800  1
  Y  Y1  1  0.00043100  0.52617600  0.74467600  1
  Y  Y2  1  0.52617600  0.00043100  0.24467600  1
  Y  Y3  1  0.00448600  0.98109500  0.01995800  1
  O  O0  1  0.25167500  0.51628000  0.73813400  1
  O  O1  1  0.23524900  0.01566800  0.74811600  1
  O  O2  1  0.48535600  0.76511700  0.24930400  1
  O  O3  1  0.00491500  0.25652000  0.97369100  1
  O  O4  1  0.25652000  0.00491500  0.47369100  1
  O  O5  1  0.25690100  0.48941900  0.24367500  1
  O  O6  1  0.47462300  0.23037300  0.01571400  1
  O  O7  1  0.23037300  0.47462300  0.51571400  1
  O  O8  1  0.99349200  0.76043100  0.75619600  1
  O  O9  1  0.77736100  0.02689100  0.97427000  1
  O  O10  1  0.02689100  0.77736100  0.47427000  1
  O  O11  1  0.51628000  0.25167500  0.23813400  1
  O  O12  1  0.00252000  0.73242600  0.25948900  1
  O  O13  1  0.24909500  0.50510800  0.99224900  1
  O  O14  1  0.73242600  0.00252000  0.75948900  1
  O  O15  1  0.50746100  0.74957600  0.50065700  1
  O  O16  1  0.74957600  0.50746100  0.00065700  1
  O  O17  1  0.25040700  0.99429100  0.02656000  1
  O  O18  1  0.49864100  0.74959800  0.75101800  1
  O  O19  1  0.99429100  0.25040700  0.52656000  1
  O  O20  1  0.01566800  0.23524900  0.24811600  1
  O  O21  1  0.49718700  0.74270900  0.00110400  1
  O  O22  1  0.74270900  0.49718700  0.50110400  1
  O  O23  1  0.76511700  0.48535600  0.74930400  1
  O  O24  1  0.48941900  0.25690100  0.74367500  1
  O  O25  1  0.74179400  0.99765300  0.50900600  1
  O  O26  1  0.99765300  0.74179400  0.00900600  1
  O  O27  1  0.76043100  0.99349200  0.25619600  1
  O  O28  1  0.50510800  0.24909500  0.49224900  1
  O  O29  1  0.74959800  0.49864100  0.25101800  1
loop_
_geom_bond_atom_site_label_1
_geom_bond_atom_site_label_2
_geom_bond_distance
_geom_bond_site_symmetry_2
Ce0 O0 2.299110 1_555
Ce0 O8 2.321737 1_455
Ce0 O13 2.353169 1_555
Ce0 O15 2.375087 1_555
Ce0 O18 2.382344 1_555
Ce0 O26 2.407912 1_456
Ce0 O1 2.426944 1_565
Ce0 O4 2.463634 1_565
Ce1 O11 2.294034 1_555
Ce1 O7 2.303187 1_555
Ce1 O1 2.304887 1_555
Ce1 O5 2.313407 1_555
Ce1 O19 2.316337 1_455
Ce1 O28 2.327748 1_555
Ce1 O4 2.337317 1_555
Ce2 O8 2.277827 1_554
Ce2 O16 2.315788 1_555
Ce2 O26 2.350551 1_555
Ce2 O14 2.365727 1_564
Ce2 O29 2.369519 1_555
Ce2 O21 2.421575 1_555
Ce2 O2 2.441611 1_555
Ce2 O9 2.517888 1_564
Ce3 O5 2.309062 1_556
Ce3 O21 2.314198 1_556
Ce3 O11 2.331736 1_556
Ce3 O18 2.356296 1_555
Ce3 O16 2.366198 1_556
Ce3 O23 2.416060 1_555
Ce3 O13 2.419467 1_555
Ce3 O6 2.510934 1_556
Ce4 O10 2.250739 1_555
Ce4 O12 2.294223 1_555
Ce4 O17 2.302056 1_555
Ce4 O2 2.319121 1_555
Ce4 O5 2.321207 1_555
Ce4 O21 2.354359 1_555
Ce4 O7 2.372828 1_555
Ce5 O24 2.309062 1_555
Ce5 O22 2.314198 1_555
Ce5 O0 2.331736 1_555
Ce5 O29 2.356296 1_555
Ce5 O15 2.366198 1_555
Ce5 O2 2.416060 1_555
Ce5 O28 2.419467 1_555
Ce5 O7 2.510934 1_555
Ce6 O9 2.250739 1_555
Ce6 O14 2.294223 1_555
Ce6 O19 2.302056 1_555
Ce6 O23 2.319121 1_555
Ce6 O24 2.321207 1_555
Ce6 O22 2.354359 1_555
Ce6 O6 2.372828 1_556
Ce7 O25 2.296976 1_555
Ce7 O14 2.301756 1_565
Ce7 O18 2.341650 1_555
Ce7 O24 2.372491 1_565
Ce7 O28 2.382887 1_565
Ce7 O21 2.387316 1_556
Ce7 O1 2.425854 1_565
Ce7 O17 2.506337 1_556
Ce8 O26 2.296976 1_555
Ce8 O12 2.301756 1_655
Ce8 O29 2.341650 1_555
Ce8 O5 2.372491 1_655
Ce8 O13 2.382887 1_654
Ce8 O22 2.387316 1_555
Ce8 O20 2.425854 1_655
Ce8 O19 2.506337 1_555
Ce9 O0 2.294034 1_555
Ce9 O6 2.303187 1_556
Ce9 O20 2.304887 1_556
Ce9 O24 2.313407 1_555
Ce9 O17 2.316337 1_546
Ce9 O13 2.327748 1_555
Ce9 O3 2.337317 1_555
Ce10 O27 2.277827 1_555
Ce10 O15 2.315788 1_555
Ce10 O25 2.350551 1_555
Ce10 O12 2.365727 1_655
Ce10 O18 2.369519 1_555
Ce10 O22 2.421575 1_555
Ce10 O23 2.441611 1_555
Ce10 O10 2.517888 1_655
Ce11 O11 2.299110 1_555
Ce11 O27 2.321737 1_545
Ce11 O28 2.353169 1_555
Ce11 O16 2.375087 1_555
Ce11 O29 2.382344 1_555
Ce11 O25 2.407912 1_545
Ce11 O20 2.426944 1_655
Ce11 O3 2.463634 1_654
O0 Y1 2.302126 1_555
O1 Y3 2.351227 1_546
O2 Y2 2.344628 1_565
O3 Y1 2.328613 1_555
O3 Y3 2.345620 1_546
O4 Y2 2.328613 1_555
O4 Y0 2.345620 1_455
O6 Y2 2.369687 1_555
O7 Y1 2.369687 1_555
O8 Y1 2.262756 1_655
O8 Y0 2.294715 1_565
O9 Y3 2.322512 1_646
O9 Y2 2.416633 1_556
O10 Y0 2.322512 1_465
O10 Y1 2.416633 1_555
O11 Y2 2.302126 1_555
O12 Y3 2.284521 1_555
O14 Y0 2.284521 1_555
O15 Y2 2.344912 1_565
O16 Y1 2.344912 1_654
O17 Y3 2.408271 1_555
O19 Y0 2.408271 1_555
O20 Y0 2.351227 1_455
O23 Y1 2.344628 1_655
O25 Y0 2.352244 1_565
O26 Y3 2.352244 1_655
O27 Y2 2.262756 1_565
O27 Y3 2.294715 1_655
