# generated using pymatgen
data_LiFeCoO4
_symmetry_space_group_name_H-M   'P 1'
_cell_length_a   5.84785554
_cell_length_b   5.84785577
_cell_length_c   5.84785554
_cell_angle_alpha   89.97011905
_cell_angle_beta   119.15733700
_cell_angle_gamma   59.18492001
_symmetry_Int_Tables_number   1
_chemical_formula_structural   LiFeCoO4
_chemical_formula_sum   'Li2 Fe2 Co2 O8'
_cell_volume   141.40078833
_cell_formula_units_Z   2
loop_
 _symmetry_equiv_pos_site_id
 _symmetry_equiv_pos_as_xyz
  1  'x, y, z'
loop_
 _atom_site_type_symbol
 _atom_site_label
 _atom_site_symmetry_multiplicity
 _atom_site_fract_x
 _atom_site_fract_y
 _atom_site_fract_z
 _atom_site_occupancy
  Li  Li0  1  0.75000000  0.11955200  0.63044800  1
  Li  Li1  1  0.25000000  0.88044800  0.36955200  1
  Fe  Fe0  1  0.50000000  0.50000000  0.00000000  1
  Fe  Fe1  1  0.00000000  0.50000000  0.50000000  1
  Co  Co0  1  0.50000000  0.00000000  0.00000000  1
  Co  Co1  1  0.00000000  0.50000000  0.00000000  1
  O  O0  1  0.53846900  0.74687200  0.79159800  1
  O  O1  1  0.96153100  0.74687200  0.21465800  1
  O  O2  1  0.98325800  0.28773800  0.22900400  1
  O  O3  1  0.51674200  0.75425500  0.22900400  1
  O  O4  1  0.48325800  0.24574500  0.77099600  1
  O  O5  1  0.01674200  0.71226200  0.77099600  1
  O  O6  1  0.03846900  0.25312800  0.78534200  1
  O  O7  1  0.46153100  0.25312800  0.20840200  1
loop_
_geom_bond_atom_site_label_1
_geom_bond_atom_site_label_2
_geom_bond_distance
_geom_bond_site_symmetry_2
Li0 O5 1.929724 1_645
Li0 O4 1.929724 1_555
Li0 O6 2.034260 1_655
Li0 O7 2.034265 1_555
Li1 O2 1.929724 1_465
Li1 O3 1.929724 1_555
Li1 O1 2.034260 1_455
Li1 O0 2.034265 1_555
Fe0 O2 2.009266 1_555
Fe0 O5 2.009266 1_554
Fe0 O4 2.009270 1_554
Fe0 O3 2.009270 1_555
Fe0 O7 2.053799 1_555
Fe0 O0 2.053799 1_554
Fe1 O5 2.009266 1_555
Fe1 O2 2.009266 1_455
Fe1 O4 2.009266 1_555
Fe1 O3 2.009266 1_455
Fe1 O6 2.053807 1_555
Fe1 O1 2.053807 1_455
Co0 O3 1.895859 1_545
Co0 O4 1.895859 1_554
Co0 O0 1.911770 1_544
Co0 O7 1.911770 1_555
Co0 O1 1.911774 1_545
Co0 O6 1.911774 1_554
Co1 O5 1.895863 1_554
Co1 O2 1.895863 1_455
Co1 O1 1.911770 1_455
Co1 O6 1.911770 1_554
Co1 O7 1.911775 1_555
Co1 O0 1.911775 1_454
