# generated using pymatgen
data_Li3Fe2(CuO4)2
_symmetry_space_group_name_H-M   'P 1'
_cell_length_a   5.58295400
_cell_length_b   5.69707365
_cell_length_c   6.23165968
_cell_angle_alpha   116.93651289
_cell_angle_beta   115.79939652
_cell_angle_gamma   89.91930217
_symmetry_Int_Tables_number   1
_chemical_formula_structural   Li3Fe2(CuO4)2
_chemical_formula_sum   'Li3 Fe2 Cu2 O8'
_cell_volume   154.28675417
_cell_formula_units_Z   1
loop_
 _symmetry_equiv_pos_site_id
 _symmetry_equiv_pos_as_xyz
  1  'x, y, z'
loop_
 _atom_site_type_symbol
 _atom_site_label
 _atom_site_symmetry_multiplicity
 _atom_site_fract_x
 _atom_site_fract_y
 _atom_site_fract_z
 _atom_site_occupancy
  Li  Li0  1  0.00000000  0.00000000  0.50000000  1
  Li  Li1  1  0.50000000  0.50000000  0.00000000  1
  Li  Li2  1  0.00000000  0.50000000  0.50000000  1
  Fe  Fe0  1  0.50000000  0.50000000  0.50000000  1
  Fe  Fe1  1  0.50000000  0.00000000  0.50000000  1
  Cu  Cu0  1  0.00000000  0.00000000  0.00000000  1
  Cu  Cu1  1  0.50000000  0.00000000  0.00000000  1
  O  O0  1  0.28632000  0.28243800  0.54815500  1
  O  O1  1  0.26081100  0.73453400  0.49150000  1
  O  O2  1  0.72177200  0.18630500  0.94378300  1
  O  O3  1  0.72814000  0.76299100  0.95534500  1
  O  O4  1  0.27186000  0.23700900  0.04465500  1
  O  O5  1  0.27822800  0.81369500  0.05621700  1
  O  O6  1  0.73918900  0.26546600  0.50850000  1
  O  O7  1  0.71368000  0.71756200  0.45184500  1
loop_
_geom_bond_atom_site_label_1
_geom_bond_atom_site_label_2
_geom_bond_distance
_geom_bond_site_symmetry_2
Li0 O0 2.094427 1_555
Li0 O7 2.094427 1_445
Li0 O1 2.097299 1_545
Li0 O6 2.097299 1_455
Li1 O4 2.153187 1_555
Li1 O3 2.153187 1_554
Li1 O5 2.157243 1_555
Li1 O2 2.157243 1_554
Li1 O7 2.192294 1_555
Li1 O0 2.192294 1_554
Li2 O1 2.011237 1_555
Li2 O6 2.011237 1_455
Li2 O7 2.023717 1_455
Li2 O0 2.023717 1_555
Fe0 O6 1.889151 1_555
Fe0 O1 1.889151 1_555
Fe0 O7 1.924125 1_555
Fe0 O0 1.924125 1_555
Fe0 O4 2.219562 1_555
Fe0 O3 2.219562 1_555
Fe1 O6 1.986172 1_555
Fe1 O1 1.986172 1_545
Fe1 O0 1.992751 1_555
Fe1 O7 1.992751 1_545
Fe1 O2 2.161344 1_555
Fe1 O5 2.161344 1_545
Cu0 O3 1.871364 1_444
Cu0 O4 1.871364 1_555
Cu0 O5 1.876352 1_545
Cu0 O2 1.876352 1_454
Cu1 O4 1.867131 1_555
Cu1 O3 1.867131 1_544
Cu1 O5 1.870942 1_545
Cu1 O2 1.870942 1_554
Cu1 O1 2.468241 1_544
Cu1 O6 2.468241 1_555
