# generated using pymatgen
data_VOF3
_symmetry_space_group_name_H-M   'P 1'
_cell_length_a   4.91421800
_cell_length_b   5.65022400
_cell_length_c   10.07165900
_cell_angle_alpha   90.00000000
_cell_angle_beta   90.00000000
_cell_angle_gamma   90.00000000
_symmetry_Int_Tables_number   1
_chemical_formula_structural   VOF3
_chemical_formula_sum   'V4 O4 F12'
_cell_volume   279.65403963
_cell_formula_units_Z   4
loop_
 _symmetry_equiv_pos_site_id
 _symmetry_equiv_pos_as_xyz
  1  'x, y, z'
loop_
 _atom_site_type_symbol
 _atom_site_label
 _atom_site_symmetry_multiplicity
 _atom_site_fract_x
 _atom_site_fract_y
 _atom_site_fract_z
 _atom_site_occupancy
  V  V0  1  0.46868300  0.11475200  0.74021200  1
  V  V1  1  0.46868300  0.38524800  0.24021200  1
  V  V2  1  0.96868300  0.61475200  0.75978800  1
  V  V3  1  0.96868300  0.88524800  0.25978800  1
  O  O0  1  0.26090400  0.18769000  0.18442100  1
  O  O1  1  0.26090400  0.31231000  0.68442100  1
  O  O2  1  0.76090400  0.81231000  0.81557900  1
  O  O3  1  0.76090400  0.68769000  0.31557900  1
  F  F0  1  0.17524500  0.55495800  0.90060200  1
  F  F1  1  0.17524500  0.94504200  0.40060200  1
  F  F2  1  0.24526400  0.82517500  0.68943100  1
  F  F3  1  0.24526400  0.67482500  0.18943100  1
  F  F4  1  0.34686600  0.05830400  0.90283300  1
  F  F5  1  0.34686600  0.44169600  0.40283300  1
  F  F6  1  0.67524500  0.05495800  0.59939800  1
  F  F7  1  0.67524500  0.44504200  0.09939800  1
  F  F8  1  0.74526400  0.32517500  0.81056900  1
  F  F9  1  0.74526400  0.17482500  0.31056900  1
  F  F10  1  0.84686600  0.94169600  0.09716700  1
  F  F11  1  0.84686600  0.55830400  0.59716700  1
loop_
_geom_bond_atom_site_label_1
_geom_bond_atom_site_label_2
_geom_bond_distance
_geom_bond_site_symmetry_2
O0 V1 1.613795 1_555
O0 V3 2.357671 1_445
O1 V0 1.613795 1_555
O1 V2 2.357671 1_455
O2 V2 1.613795 1_555
O2 V0 2.357671 1_565
O3 V3 1.613795 1_555
O3 V1 2.357671 1_555
F0 V2 1.776494 1_455
F1 V3 1.776494 1_455
F2 V2 1.939863 1_455
F2 V0 2.035706 1_565
F3 V3 1.939863 1_455
F3 V1 2.035706 1_555
F4 V0 1.772762 1_555
F5 V1 1.772762 1_555
F6 V0 1.776494 1_555
F7 V1 1.776494 1_555
F8 V0 1.939863 1_555
F8 V2 2.035706 1_555
F9 V1 1.939863 1_555
F9 V3 2.035706 1_545
F10 V3 1.772762 1_555
F11 V2 1.772762 1_555
