# generated using pymatgen
data_K4Fe2O7
_symmetry_space_group_name_H-M   'P 1'
_cell_length_a   6.05834400
_cell_length_b   10.50878600
_cell_length_c   23.84153900
_cell_angle_alpha   90.00000000
_cell_angle_beta   90.00000000
_cell_angle_gamma   90.00000000
_symmetry_Int_Tables_number   1
_chemical_formula_structural   K4Fe2O7
_chemical_formula_sum   'K24 Fe12 O42'
_cell_volume   1517.89162188
_cell_formula_units_Z   6
loop_
 _symmetry_equiv_pos_site_id
 _symmetry_equiv_pos_as_xyz
  1  'x, y, z'
loop_
 _atom_site_type_symbol
 _atom_site_label
 _atom_site_symmetry_multiplicity
 _atom_site_fract_x
 _atom_site_fract_y
 _atom_site_fract_z
 _atom_site_occupancy
  K  K0  1  0.50000000  0.04580800  0.00532600  1
  K  K1  1  0.00000000  0.83944000  0.05164600  1
  K  K2  1  0.50000000  0.33436700  0.10308600  1
  K  K3  1  0.00000000  0.53632200  0.16472600  1
  K  K4  1  0.50000000  0.96009000  0.17046800  1
  K  K5  1  0.00000000  0.16906100  0.23085700  1
  K  K6  1  0.50000000  0.67094300  0.27376700  1
  K  K7  1  0.00000000  0.45779000  0.32822600  1
  K  K8  1  0.50000000  0.03947000  0.33454000  1
  K  K9  1  0.00000000  0.83345800  0.38788400  1
  K  K10  1  0.50000000  0.33122700  0.45312100  1
  K  K11  1  0.00000000  0.54049400  0.49639000  1
  K  K12  1  0.50000000  0.95419200  0.50532600  1
  K  K13  1  0.00000000  0.16056000  0.55164600  1
  K  K14  1  0.50000000  0.66563300  0.60308600  1
  K  K15  1  0.00000000  0.46367800  0.66472600  1
  K  K16  1  0.50000000  0.03991000  0.67046800  1
  K  K17  1  0.00000000  0.83093900  0.73085700  1
  K  K18  1  0.50000000  0.32905700  0.77376700  1
  K  K19  1  0.00000000  0.54221000  0.82822600  1
  K  K20  1  0.50000000  0.96053000  0.83454000  1
  K  K21  1  0.00000000  0.16654200  0.88788400  1
  K  K22  1  0.50000000  0.66877300  0.95312100  1
  K  K23  1  0.00000000  0.45950600  0.99639000  1
  Fe  Fe0  1  0.00000000  0.16681000  0.09183300  1
  Fe  Fe1  1  0.50000000  0.67472900  0.09040400  1
  Fe  Fe2  1  0.00000000  0.82702800  0.25791000  1
  Fe  Fe3  1  0.50000000  0.32703900  0.24110900  1
  Fe  Fe4  1  0.00000000  0.17160200  0.41061300  1
  Fe  Fe5  1  0.50000000  0.67242600  0.42325000  1
  Fe  Fe6  1  0.00000000  0.83319000  0.59183300  1
  Fe  Fe7  1  0.50000000  0.32527100  0.59040400  1
  Fe  Fe8  1  0.00000000  0.17297200  0.75791000  1
  Fe  Fe9  1  0.50000000  0.67296100  0.74110900  1
  Fe  Fe10  1  0.00000000  0.82839800  0.91061300  1
  Fe  Fe11  1  0.50000000  0.32757400  0.92325000  1
  O  O0  1  0.27508100  0.60402700  0.06457500  1
  O  O1  1  0.72491900  0.60402700  0.06457500  1
  O  O2  1  0.50000000  0.82430900  0.06686000  1
  O  O3  1  0.00000000  0.32610600  0.09294100  1
  O  O4  1  0.23667500  0.08596100  0.09394700  1
  O  O5  1  0.76332500  0.08596100  0.09394700  1
  O  O6  1  0.50000000  0.67110800  0.15916100  1
  O  O7  1  0.73973500  0.40472500  0.23937500  1
  O  O8  1  0.26026500  0.40472500  0.23937500  1
  O  O9  1  0.50000000  0.16846000  0.23785100  1
  O  O10  1  0.00000000  0.66867300  0.26282100  1
  O  O11  1  0.76098300  0.90496600  0.26187300  1
  O  O12  1  0.23901700  0.90496600  0.26187300  1
  O  O13  1  0.00000000  0.16761500  0.34182900  1
  O  O14  1  0.27421900  0.59999800  0.39926500  1
  O  O15  1  0.72578100  0.59999800  0.39926500  1
  O  O16  1  0.50000000  0.82349000  0.40139600  1
  O  O17  1  0.00000000  0.32218100  0.43339200  1
  O  O18  1  0.77552600  0.09878700  0.43578700  1
  O  O19  1  0.22447400  0.09878700  0.43578700  1
  O  O20  1  0.50000000  0.66968100  0.49251200  1
  O  O21  1  0.27508100  0.39597300  0.56457500  1
  O  O22  1  0.72491900  0.39597300  0.56457500  1
  O  O23  1  0.50000000  0.17569100  0.56686000  1
  O  O24  1  0.00000000  0.67389400  0.59294100  1
  O  O25  1  0.76332500  0.91403900  0.59394700  1
  O  O26  1  0.23667500  0.91403900  0.59394700  1
  O  O27  1  0.50000000  0.32889200  0.65916100  1
  O  O28  1  0.26026500  0.59527500  0.73937500  1
  O  O29  1  0.73973500  0.59527500  0.73937500  1
  O  O30  1  0.50000000  0.83154000  0.73785100  1
  O  O31  1  0.00000000  0.33132700  0.76282100  1
  O  O32  1  0.76098300  0.09503400  0.76187300  1
  O  O33  1  0.23901700  0.09503400  0.76187300  1
  O  O34  1  0.00000000  0.83238500  0.84182900  1
  O  O35  1  0.27421900  0.40000200  0.89926500  1
  O  O36  1  0.72578100  0.40000200  0.89926500  1
  O  O37  1  0.50000000  0.17651000  0.90139600  1
  O  O38  1  0.00000000  0.67781900  0.93339200  1
  O  O39  1  0.77552600  0.90121300  0.93578700  1
  O  O40  1  0.22447400  0.90121300  0.93578700  1
  O  O41  1  0.50000000  0.33031900  0.99251200  1
loop_
_geom_bond_atom_site_label_1
_geom_bond_atom_site_label_2
_geom_bond_distance
_geom_bond_site_symmetry_2
K0 O4 2.680906 1_555
K0 O5 2.680906 1_555
K0 O2 2.751436 1_545
K0 O39 2.800706 1_544
K0 O40 2.800706 1_544
K0 O37 2.833073 1_554
K0 O41 3.005433 1_554
K1 O0 2.998760 1_555
K1 O1 2.998760 1_455
K1 O2 3.054953 1_455
K1 O2 3.054953 1_555
K1 O5 3.128012 1_465
K1 O4 3.128012 1_565
K1 O39 3.146571 1_454
K1 O40 3.146571 1_554
K1 O38 3.291425 1_554
K2 O41 2.636598 1_554
K2 O3 3.040053 1_555
K2 O3 3.040053 1_655
K2 O4 3.067071 1_555
K2 O5 3.067071 1_555
K2 O0 3.275701 1_555
K2 O1 3.275701 1_555
K3 O10 2.721056 1_555
K3 O7 2.750673 1_455
K3 O8 2.750673 1_555
K3 O3 2.794513 1_555
K3 O0 2.997489 1_555
K3 O1 2.997489 1_455
K3 O6 3.346607 1_455
K3 O6 3.346607 1_555
K4 O9 2.715832 1_565
K4 O11 2.754015 1_555
K4 O12 2.754015 1_555
K4 O4 2.760988 1_565
K4 O5 2.760988 1_565
K4 O2 2.852680 1_555
K4 O6 3.048791 1_555
K5 O13 2.645787 1_555
K5 O7 2.942911 1_455
K5 O8 2.942911 1_555
K5 O9 3.033765 1_455
K5 O9 3.033765 1_555
K5 O12 3.216527 1_545
K5 O11 3.216527 1_445
K6 O6 2.732384 1_555
K6 O11 2.937433 1_555
K6 O12 2.937433 1_555
K6 O10 3.040486 1_555
K6 O10 3.040486 1_655
K6 O7 3.257071 1_555
K6 O8 3.257071 1_555
K7 O8 2.698995 1_555
K7 O7 2.698995 1_455
K7 O10 2.709760 1_555
K7 O15 2.803897 1_455
K7 O14 2.803897 1_555
K7 O17 2.884011 1_555
K7 O13 3.066585 1_555
K8 O9 2.674223 1_555
K8 O12 2.738503 1_545
K8 O11 2.738503 1_545
K8 O16 2.773474 1_545
K8 O19 3.000289 1_555
K8 O18 3.000289 1_555
K8 O13 3.319570 1_655
K8 O13 3.319570 1_555
K9 O15 2.975343 1_455
K9 O14 2.975343 1_555
K9 O16 3.048054 1_455
K9 O16 3.048054 1_555
K9 O19 3.305802 1_565
K9 O18 3.305802 1_465
K10 O19 2.987260 1_555
K10 O18 2.987260 1_555
K10 O21 3.062780 1_555
K10 O22 3.062780 1_555
K10 O17 3.066948 1_655
K10 O17 3.066948 1_555
K10 O23 3.166222 1_555
K10 O15 3.390763 1_555
K10 O14 3.390763 1_555
K11 O24 2.695200 1_555
K11 O17 2.742132 1_555
K11 O22 2.779677 1_455
K11 O21 2.779677 1_555
K11 O14 2.917709 1_555
K11 O15 2.917709 1_455
K12 O25 2.680906 1_555
K12 O26 2.680906 1_555
K12 O23 2.751436 1_565
K12 O18 2.800706 1_565
K12 O19 2.800706 1_565
K12 O16 2.833073 1_555
K12 O20 3.005433 1_555
K13 O21 2.998760 1_555
K13 O22 2.998760 1_455
K13 O23 3.054953 1_555
K13 O23 3.054953 1_455
K13 O26 3.128012 1_545
K13 O25 3.128012 1_445
K13 O19 3.146571 1_555
K13 O18 3.146571 1_455
K13 O17 3.291425 1_555
K14 O20 2.636598 1_555
K14 O24 3.040053 1_555
K14 O24 3.040053 1_655
K14 O25 3.067071 1_555
K14 O26 3.067071 1_555
K14 O21 3.275701 1_555
K14 O22 3.275701 1_555
K15 O31 2.721056 1_555
K15 O28 2.750673 1_555
K15 O29 2.750673 1_455
K15 O24 2.794513 1_555
K15 O22 2.997489 1_455
K15 O21 2.997489 1_555
K15 O27 3.346607 1_455
K15 O27 3.346607 1_555
K16 O30 2.715832 1_545
K16 O33 2.754015 1_555
K16 O32 2.754015 1_555
K16 O26 2.760988 1_545
K16 O25 2.760988 1_545
K16 O23 2.852680 1_555
K16 O27 3.048791 1_555
K17 O34 2.645787 1_555
K17 O28 2.942911 1_555
K17 O29 2.942911 1_455
K17 O30 3.033765 1_455
K17 O30 3.033765 1_555
K17 O33 3.216527 1_565
K17 O32 3.216527 1_465
K18 O27 2.732384 1_555
K18 O33 2.937433 1_555
K18 O32 2.937433 1_555
K18 O31 3.040486 1_555
K18 O31 3.040486 1_655
K18 O28 3.257071 1_555
K18 O29 3.257071 1_555
K19 O29 2.698995 1_455
K19 O28 2.698995 1_555
K19 O31 2.709760 1_555
K19 O36 2.803897 1_455
K19 O35 2.803897 1_555
K19 O38 2.884011 1_555
K19 O34 3.066585 1_555
K20 O30 2.674223 1_555
K20 O32 2.738503 1_565
K20 O33 2.738503 1_565
K20 O37 2.773474 1_565
K20 O40 3.000289 1_555
K20 O39 3.000289 1_555
K20 O34 3.319570 1_555
K20 O34 3.319570 1_655
K21 O36 2.975343 1_455
K21 O35 2.975343 1_555
K21 O37 3.048054 1_555
K21 O37 3.048054 1_455
K21 O39 3.305802 1_445
K21 O40 3.305802 1_545
K22 O39 2.987260 1_555
K22 O40 2.987260 1_555
K22 O0 3.062780 1_556
K22 O1 3.062780 1_556
K22 O38 3.066948 1_555
K22 O38 3.066948 1_655
K22 O2 3.166222 1_556
K22 O35 3.390763 1_555
K22 O36 3.390763 1_555
K23 O3 2.695200 1_556
K23 O38 2.742132 1_555
K23 O1 2.779677 1_456
K23 O0 2.779677 1_556
K23 O36 2.917709 1_455
K23 O35 2.917709 1_555
Fe0 O5 1.667439 1_455
Fe0 O4 1.667439 1_555
Fe0 O3 1.674216 1_555
Fe0 K5 3.314631 1_555
Fe1 O6 1.639714 1_555
Fe1 O2 1.669122 1_555
Fe1 O1 1.669739 1_555
Fe1 O0 1.669739 1_555
Fe2 O12 1.666309 1_555
Fe2 O11 1.666309 1_455
Fe2 O10 1.668233 1_555
Fe2 K9 3.099517 1_555
Fe3 O8 1.666629 1_555
Fe3 O7 1.666629 1_555
Fe3 O9 1.668282 1_555
Fe3 K2 3.291582 1_555
Fe4 O13 1.640452 1_555
Fe4 O18 1.671882 1_455
Fe4 O19 1.671882 1_555
Fe4 O17 1.673003 1_555
Fe5 O20 1.651565 1_555
Fe5 O15 1.666541 1_555
Fe5 O14 1.666541 1_555
Fe5 O16 1.670817 1_555
Fe6 O25 1.667439 1_455
Fe6 O26 1.667439 1_555
Fe6 O24 1.674216 1_555
Fe6 K17 3.314631 1_555
Fe7 O27 1.639714 1_555
Fe7 O23 1.669122 1_555
Fe7 O21 1.669739 1_555
Fe7 O22 1.669739 1_555
Fe8 O33 1.666309 1_555
Fe8 O32 1.666309 1_455
Fe8 O31 1.668233 1_555
Fe8 K21 3.099517 1_555
Fe9 O28 1.666629 1_555
Fe9 O29 1.666629 1_555
Fe9 O30 1.668282 1_555
Fe9 K14 3.291582 1_555
Fe10 O34 1.640452 1_555
Fe10 O39 1.671882 1_455
Fe10 O40 1.671882 1_555
Fe10 O38 1.673003 1_555
Fe11 O41 1.651565 1_555
Fe11 O35 1.666541 1_555
Fe11 O36 1.666541 1_555
Fe11 O37 1.670817 1_555
