# generated using pymatgen
data_VOF
_symmetry_space_group_name_H-M   'P 1'
_cell_length_a   3.09800600
_cell_length_b   4.74879000
_cell_length_c   18.99785400
_cell_angle_alpha   87.48756785
_cell_angle_beta   90.00000000
_cell_angle_gamma   90.00000000
_symmetry_Int_Tables_number   1
_chemical_formula_structural   VOF
_chemical_formula_sum   'V8 O8 F8'
_cell_volume   279.22358034
_cell_formula_units_Z   8
loop_
 _symmetry_equiv_pos_site_id
 _symmetry_equiv_pos_as_xyz
  1  'x, y, z'
loop_
 _atom_site_type_symbol
 _atom_site_label
 _atom_site_symmetry_multiplicity
 _atom_site_fract_x
 _atom_site_fract_y
 _atom_site_fract_z
 _atom_site_occupancy
  V  V0  1  0.00000000  0.92227800  0.12425000  1
  V  V1  1  0.00000000  0.07772200  0.87575000  1
  V  V2  1  0.00000000  0.97900700  0.37498300  1
  V  V3  1  0.00000000  0.02099300  0.62501700  1
  V  V4  1  0.50000000  0.50000000  0.00000000  1
  V  V5  1  0.50000000  0.54398400  0.75030500  1
  V  V6  1  0.50000000  0.45601600  0.24969500  1
  V  V7  1  0.50000000  0.50000000  0.50000000  1
  O  O0  1  0.50000000  0.77059400  0.07335100  1
  O  O1  1  0.00000000  0.73527500  0.70075300  1
  O  O2  1  0.00000000  0.69363400  0.45040600  1
  O  O3  1  0.00000000  0.65495900  0.20095000  1
  O  O4  1  0.00000000  0.26472500  0.29924700  1
  O  O5  1  0.00000000  0.34504100  0.79905000  1
  O  O6  1  0.00000000  0.30636600  0.54959400  1
  O  O7  1  0.50000000  0.22940600  0.92664900  1
  F  F0  1  0.50000000  0.77299900  0.32667200  1
  F  F1  1  0.50000000  0.81483300  0.57675900  1
  F  F2  1  0.50000000  0.84172900  0.82900300  1
  F  F3  1  0.00000000  0.71549500  0.94946200  1
  F  F4  1  0.00000000  0.28450500  0.05053800  1
  F  F5  1  0.50000000  0.15827100  0.17099700  1
  F  F6  1  0.50000000  0.18516700  0.42324100  1
  F  F7  1  0.50000000  0.22700100  0.67332800  1
loop_
_geom_bond_atom_site_label_1
_geom_bond_atom_site_label_2
_geom_bond_distance
_geom_bond_site_symmetry_2
O0 V4 1.936511 1_555
O0 V0 1.978475 1_655
O0 V0 1.978475 1_555
O1 V3 1.933908 1_565
O1 V5 2.008937 1_555
O1 V5 2.008937 1_455
O2 V2 1.928573 1_555
O2 V7 2.014122 1_555
O2 V7 2.014122 1_455
O3 V0 1.890120 1_555
O3 V6 2.018120 1_555
O3 V6 2.018120 1_455
O4 V2 1.933908 1_545
O4 V6 2.008937 1_555
O4 V6 2.008937 1_455
O5 V1 1.890120 1_555
O5 V5 2.018120 1_555
O5 V5 2.018120 1_455
O6 V3 1.928573 1_555
O6 V7 2.014122 1_455
O6 V7 2.014122 1_555
O7 V4 1.936511 1_556
O7 V1 1.978475 1_555
O7 V1 1.978475 1_655
F0 V2 2.068223 1_655
F0 V2 2.068223 1_555
F0 V6 2.144175 1_555
F1 V3 2.068111 1_665
F1 V3 2.068111 1_565
F1 V7 2.133754 1_555
F2 V5 2.102340 1_555
F2 V1 2.128686 1_565
F2 V1 2.128686 1_665
F3 V4 2.069375 1_456
F3 V4 2.069375 1_556
F3 V1 2.169961 1_565
F4 V4 2.069375 1_555
F4 V4 2.069375 1_455
F4 V0 2.169961 1_545
F5 V6 2.102340 1_555
F5 V0 2.128686 1_645
F5 V0 2.128686 1_545
F6 V2 2.068111 1_645
F6 V2 2.068111 1_545
F6 V7 2.133754 1_555
F7 V3 2.068223 1_655
F7 V3 2.068223 1_555
F7 V5 2.144175 1_555
