# generated using pymatgen
data_Mn12O5F19
_symmetry_space_group_name_H-M   'P 1'
_cell_length_a   5.32476500
_cell_length_b   5.37737209
_cell_length_c   15.38662711
_cell_angle_alpha   94.04919896
_cell_angle_beta   90.63547649
_cell_angle_gamma   91.31029288
_symmetry_Int_Tables_number   1
_chemical_formula_structural   Mn12O5F19
_chemical_formula_sum   'Mn12 O5 F19'
_cell_volume   439.31869827
_cell_formula_units_Z   1
loop_
 _symmetry_equiv_pos_site_id
 _symmetry_equiv_pos_as_xyz
  1  'x, y, z'
loop_
 _atom_site_type_symbol
 _atom_site_label
 _atom_site_symmetry_multiplicity
 _atom_site_fract_x
 _atom_site_fract_y
 _atom_site_fract_z
 _atom_site_occupancy
  Mn  Mn0  1  0.00520800  0.06097700  0.00901300  1
  Mn  Mn1  1  0.98151100  0.54650800  0.82613500  1
  Mn  Mn2  1  0.99528500  0.05848500  0.66664800  1
  Mn  Mn3  1  0.01964900  0.52813700  0.50553600  1
  Mn  Mn4  1  0.94016700  0.96060000  0.32750300  1
  Mn  Mn5  1  0.06606300  0.50325400  0.16335000  1
  Mn  Mn6  1  0.50123700  0.88986100  0.83295500  1
  Mn  Mn7  1  0.49897100  0.46946100  0.01025200  1
  Mn  Mn8  1  0.43777500  0.50857600  0.32747000  1
  Mn  Mn9  1  0.52916100  0.98966900  0.48104100  1
  Mn  Mn10  1  0.46811900  0.41869800  0.67749200  1
  Mn  Mn11  1  0.46219400  0.98886300  0.16393100  1
  O  O0  1  0.15855300  0.34528100  0.73780800  1
  O  O1  1  0.27292600  0.27544300  0.09868800  1
  O  O2  1  0.30477300  0.70379800  0.23840900  1
  O  O3  1  0.66177100  0.74322300  0.38199900  1
  O  O4  1  0.65398100  0.62468200  0.76299200  1
  F  F0  1  0.17044200  0.85131300  0.76089600  1
  F  F1  1  0.34845200  0.12293200  0.92170100  1
  F  F2  1  0.17667900  0.79522200  0.42261500  1
  F  F3  1  0.30673100  0.15486200  0.58794700  1
  F  F4  1  0.17062700  0.76142900  0.06998400  1
  F  F5  1  0.16752400  0.25088400  0.27720400  1
  F  F6  1  0.30635500  0.61787200  0.90036900  1
  F  F7  1  0.37853400  0.33188400  0.43516600  1
  F  F8  1  0.30191700  0.66156500  0.59340100  1
  F  F9  1  0.65896000  0.82967200  0.05475600  1
  F  F10  1  0.83065100  0.35504100  0.93180400  1
  F  F11  1  0.78144500  0.35807700  0.60371100  1
  F  F12  1  0.65677200  0.20607700  0.26777600  1
  F  F13  1  0.81385300  0.84847800  0.56667000  1
  F  F14  1  0.83608500  0.85128600  0.89947700  1
  F  F15  1  0.82039900  0.73678700  0.21396400  1
  F  F16  1  0.86395400  0.21450100  0.43667400  1
  F  F17  1  0.78615200  0.31895800  0.10074000  1
  F  F18  1  0.66712200  0.11764500  0.74392500  1
loop_
_geom_bond_atom_site_label_1
_geom_bond_atom_site_label_2
_geom_bond_distance
_geom_bond_site_symmetry_2
Mn0 O1 2.218661 1_555
Mn1 O0 1.942676 1_655
Mn1 O4 2.053257 1_555
Mn2 O0 2.003030 1_655
Mn4 O3 2.086553 1_555
Mn5 O1 1.902041 1_555
Mn5 O2 1.959908 1_555
Mn6 O4 1.925978 1_555
Mn7 O1 2.137338 1_555
Mn8 O3 1.864969 1_555
Mn8 O2 1.922781 1_555
Mn9 O3 2.087734 1_555
Mn10 O4 1.911080 1_555
Mn10 O0 1.946839 1_555
Mn11 O2 2.139224 1_555
Mn11 O1 2.159936 1_565
F0 Mn6 2.069386 1_555
F0 Mn2 2.111775 1_465
F0 Mn1 2.210322 1_455
F1 Mn6 1.981619 1_545
F1 Mn0 2.312165 1_556
F1 Mn7 2.349470 1_556
F2 Mn3 2.148777 1_555
F2 Mn4 2.170875 1_455
F2 Mn9 2.272495 1_555
F2 Mn8 2.505281 1_555
F3 Mn10 2.071608 1_555
F3 Mn2 2.139872 1_455
F3 Mn9 2.186916 1_545
F4 Mn0 2.123800 1_565
F4 Mn5 2.136639 1_555
F4 Mn11 2.368400 1_555
F4 Mn7 2.514717 1_555
F5 Mn8 2.078921 1_555
F5 Mn4 2.146197 1_445
F5 Mn5 2.356004 1_555
F5 Mn11 2.701809 1_545
F6 Mn1 2.075512 1_455
F6 Mn6 2.112022 1_555
F6 Mn7 2.176446 1_556
F7 Mn8 1.992089 1_555
F7 Mn9 2.183190 1_545
F7 Mn3 2.432009 1_555
F8 Mn3 2.090505 1_555
F8 Mn10 2.104523 1_555
F9 Mn11 2.128228 1_555
F9 Mn7 2.161213 1_555
F9 Mn0 2.342900 1_665
F10 Mn1 2.139255 1_555
F10 Mn7 2.224143 1_556
F10 Mn0 2.254716 1_656
F11 Mn10 2.047724 1_555
F11 Mn3 2.216180 1_655
F11 Mn2 2.260405 1_555
F12 Mn11 2.152948 1_545
F12 Mn8 2.179203 1_555
F12 Mn4 2.257385 1_545
F13 Mn2 2.060787 1_565
F13 Mn9 2.181735 1_555
F13 Mn3 2.221106 1_655
F14 Mn6 2.067883 1_555
F14 Mn1 2.091734 1_555
F14 Mn0 2.138800 1_666
F15 Mn5 1.963226 1_655
F15 Mn4 2.133162 1_555
F15 Mn11 2.510200 1_555
F16 Mn3 2.078117 1_655
F16 Mn4 2.137053 1_545
F16 Mn9 2.269515 1_545
F17 Mn5 1.974191 1_655
F17 Mn7 2.258400 1_555
F17 Mn0 2.260752 1_655
F17 Mn11 2.685642 1_545
F18 Mn6 2.090794 1_545
F18 Mn2 2.141604 1_555
F18 Mn10 2.253126 1_555
