# generated using pymatgen
data_LiMnF3
_symmetry_space_group_name_H-M   'P 1'
_cell_length_a   10.18673600
_cell_length_b   7.13317700
_cell_length_c   7.88107071
_cell_angle_alpha   65.52644829
_cell_angle_beta   90.00000000
_cell_angle_gamma   90.00000000
_symmetry_Int_Tables_number   1
_chemical_formula_structural   LiMnF3
_chemical_formula_sum   'Li8 Mn8 F24'
_cell_volume   521.21570115
_cell_formula_units_Z   8
loop_
 _symmetry_equiv_pos_site_id
 _symmetry_equiv_pos_as_xyz
  1  'x, y, z'
loop_
 _atom_site_type_symbol
 _atom_site_label
 _atom_site_symmetry_multiplicity
 _atom_site_fract_x
 _atom_site_fract_y
 _atom_site_fract_z
 _atom_site_occupancy
  Li  Li0  1  0.98223200  0.24788500  0.15863200  1
  Li  Li1  1  0.51776800  0.74788500  0.15863200  1
  Li  Li2  1  0.25762200  0.21118000  0.51089500  1
  Li  Li3  1  0.75762200  0.28882000  0.48910500  1
  Li  Li4  1  0.24237800  0.71118000  0.51089500  1
  Li  Li5  1  0.74237800  0.78882000  0.48910500  1
  Li  Li6  1  0.48223200  0.25211500  0.84136800  1
  Li  Li7  1  0.01776800  0.75211500  0.84136800  1
  Mn  Mn0  1  0.76418100  0.03123100  0.01016700  1
  Mn  Mn1  1  0.73581900  0.53123100  0.01016700  1
  Mn  Mn2  1  0.50871100  0.15160700  0.27527000  1
  Mn  Mn3  1  0.99128900  0.65160700  0.27527000  1
  Mn  Mn4  1  0.00871100  0.34839300  0.72473000  1
  Mn  Mn5  1  0.49128900  0.84839300  0.72473000  1
  Mn  Mn6  1  0.26418100  0.46876900  0.98983300  1
  Mn  Mn7  1  0.23581900  0.96876900  0.98983300  1
  F  F0  1  0.39782200  0.08808300  0.07591300  1
  F  F1  1  0.13284400  0.23284700  0.99481200  1
  F  F2  1  0.90187500  0.98249800  0.22002100  1
  F  F3  1  0.10217800  0.58808300  0.07591300  1
  F  F4  1  0.36715600  0.73284700  0.99481200  1
  F  F5  1  0.59812500  0.48249800  0.22002100  1
  F  F6  1  0.33390900  0.32102600  0.26761000  1
  F  F7  1  0.87336900  0.37507600  0.28221100  1
  F  F8  1  0.62495800  0.08892600  0.51037800  1
  F  F9  1  0.16609100  0.82102600  0.26761000  1
  F  F10  1  0.62663100  0.87507600  0.28221100  1
  F  F11  1  0.12495800  0.41107400  0.48962200  1
  F  F12  1  0.87504200  0.58892600  0.51037800  1
  F  F13  1  0.37336900  0.12492400  0.71778900  1
  F  F14  1  0.83390900  0.17897400  0.73239000  1
  F  F15  1  0.37504200  0.91107400  0.48962200  1
  F  F16  1  0.12663100  0.62492400  0.71778900  1
  F  F17  1  0.66609100  0.67897400  0.73239000  1
  F  F18  1  0.40187500  0.51750200  0.77997900  1
  F  F19  1  0.63284400  0.26715300  0.00518800  1
  F  F20  1  0.89782200  0.41191700  0.92408700  1
  F  F21  1  0.09812500  0.01750200  0.77997900  1
  F  F22  1  0.86715600  0.76715300  0.00518800  1
  F  F23  1  0.60217800  0.91191700  0.92408700  1
loop_
_geom_bond_atom_site_label_1
_geom_bond_atom_site_label_2
_geom_bond_distance
_geom_bond_site_symmetry_2
F0 Li6 1.932160 1_554
F0 Mn7 2.094373 1_544
F0 Mn2 2.130653 1_555
F1 Li0 2.036428 1_456
F1 Mn6 2.137488 1_555
F1 Mn7 2.170604 1_545
F1 Mn4 2.314174 1_555
F2 Li0 1.931046 1_565
F2 Mn0 2.085000 1_565
F2 Mn3 2.395565 1_555
F2 Li5 2.572596 1_555
F3 Li7 1.932160 1_554
F3 Mn6 2.094373 1_554
F3 Mn3 2.130653 1_455
F4 Li1 2.036428 1_556
F4 Mn7 2.137488 1_555
F4 Mn6 2.170604 1_555
F4 Mn5 2.314174 1_555
F5 Li1 1.931046 1_555
F5 Mn1 2.085000 1_555
F5 Mn2 2.395565 1_555
F5 Li3 2.572596 1_555
F6 Li2 1.910319 1_555
F6 Mn6 2.120409 1_554
F6 Mn2 2.138788 1_555
F7 Li3 1.896380 1_555
F7 Li0 1.932256 1_555
F7 Mn3 2.290732 1_555
F7 Mn1 2.412899 1_555
F8 Li3 1.920804 1_555
F8 Mn2 2.085430 1_555
F8 Mn5 2.291338 1_545
F8 Li5 2.517703 1_545
F9 Li4 1.910319 1_555
F9 Mn7 2.120409 1_554
F9 Mn3 2.138788 1_455
F10 Li5 1.896380 1_555
F10 Li1 1.932256 1_555
F10 Mn2 2.290732 1_565
F10 Mn0 2.412899 1_565
F11 Li2 1.920804 1_555
F11 Mn4 2.085430 1_555
F11 Mn3 2.291338 1_455
F11 Li4 2.517703 1_555
F12 Li5 1.920804 1_555
F12 Mn3 2.085430 1_555
F12 Mn4 2.291338 1_655
F12 Li3 2.517703 1_555
F13 Li2 1.896380 1_555
F13 Li6 1.932256 1_555
F13 Mn5 2.290732 1_545
F13 Mn7 2.412899 1_545
F14 Li3 1.910319 1_555
F14 Mn0 2.120409 1_556
F14 Mn4 2.138788 1_655
F15 Li4 1.920804 1_555
F15 Mn5 2.085430 1_555
F15 Mn2 2.291338 1_565
F15 Li2 2.517703 1_565
F16 Li4 1.896380 1_555
F16 Li7 1.932256 1_555
F16 Mn4 2.290732 1_555
F16 Mn6 2.412899 1_555
F17 Li5 1.910319 1_555
F17 Mn1 2.120409 1_556
F17 Mn5 2.138788 1_555
F18 Li6 1.931046 1_555
F18 Mn6 2.085000 1_555
F18 Mn5 2.395565 1_555
F18 Li4 2.572596 1_555
F19 Li6 2.036428 1_554
F19 Mn0 2.137488 1_555
F19 Mn1 2.170604 1_555
F19 Mn2 2.314174 1_555
F20 Li0 1.932160 1_556
F20 Mn1 2.094373 1_556
F20 Mn4 2.130653 1_655
F21 Li7 1.931046 1_545
F21 Mn7 2.085000 1_545
F21 Mn4 2.395565 1_555
F21 Li2 2.572596 1_555
F22 Li7 2.036428 1_654
F22 Mn1 2.137488 1_555
F22 Mn0 2.170604 1_565
F22 Mn3 2.314174 1_555
F23 Li1 1.932160 1_556
F23 Mn0 2.094373 1_566
F23 Mn5 2.130653 1_555
