# generated using pymatgen
data_Li2CrP3O10
_symmetry_space_group_name_H-M   'P 1'
_cell_length_a   8.02673600
_cell_length_b   9.70995800
_cell_length_c   12.03625763
_cell_angle_alpha   84.13840541
_cell_angle_beta   90.00000000
_cell_angle_gamma   90.00000000
_symmetry_Int_Tables_number   1
_chemical_formula_structural   Li2CrP3O10
_chemical_formula_sum   'Li8 Cr4 P12 O40'
_cell_volume   933.19228117
_cell_formula_units_Z   4
loop_
 _symmetry_equiv_pos_site_id
 _symmetry_equiv_pos_as_xyz
  1  'x, y, z'
loop_
 _atom_site_type_symbol
 _atom_site_label
 _atom_site_symmetry_multiplicity
 _atom_site_fract_x
 _atom_site_fract_y
 _atom_site_fract_z
 _atom_site_occupancy
  Li  Li0  1  0.54240800  0.61482800  0.14805700  1
  Li  Li1  1  0.95759200  0.11482800  0.14805700  1
  Li  Li2  1  0.88913800  0.09296300  0.44879000  1
  Li  Li3  1  0.61086200  0.59296300  0.44879000  1
  Li  Li4  1  0.38913800  0.40703700  0.55121000  1
  Li  Li5  1  0.11086200  0.90703700  0.55121000  1
  Li  Li6  1  0.04240800  0.88517200  0.85194300  1
  Li  Li7  1  0.45759200  0.38517200  0.85194300  1
  Cr  Cr0  1  0.14326100  0.37088700  0.16919300  1
  Cr  Cr1  1  0.35673900  0.87088700  0.16919300  1
  Cr  Cr2  1  0.64326100  0.12911300  0.83080700  1
  Cr  Cr3  1  0.85673900  0.62911300  0.83080700  1
  P  P0  1  0.43276000  0.19199800  0.06369600  1
  P  P1  1  0.06724000  0.69199800  0.06369600  1
  P  P2  1  0.57589100  0.08508200  0.27463900  1
  P  P3  1  0.92410900  0.58508200  0.27463900  1
  P  P4  1  0.21550700  0.07503200  0.33281700  1
  P  P5  1  0.28449300  0.57503200  0.33281700  1
  P  P6  1  0.71550700  0.42496800  0.66718300  1
  P  P7  1  0.78449300  0.92496800  0.66718300  1
  P  P8  1  0.07589100  0.41491800  0.72536100  1
  P  P9  1  0.42410900  0.91491800  0.72536100  1
  P  P10  1  0.93276000  0.30800200  0.93630400  1
  P  P11  1  0.56724000  0.80800200  0.93630400  1
  O  O0  1  0.33523100  0.05748600  0.08247800  1
  O  O1  1  0.00677600  0.28266600  0.05355600  1
  O  O2  1  0.34134100  0.32458600  0.08293400  1
  O  O3  1  0.16476900  0.55748600  0.08247800  1
  O  O4  1  0.49322400  0.78266600  0.05355600  1
  O  O5  1  0.15865900  0.82458600  0.08293400  1
  O  O6  1  0.58467500  0.18167100  0.15526200  1
  O  O7  1  0.91532500  0.68167100  0.15526200  1
  O  O8  1  0.12083800  0.17738000  0.24857200  1
  O  O9  1  0.94206600  0.43592700  0.24885300  1
  O  O10  1  0.28015400  0.43040000  0.29266200  1
  O  O11  1  0.37916200  0.67738000  0.24857200  1
  O  O12  1  0.55793400  0.93592700  0.24885300  1
  O  O13  1  0.21984600  0.93040000  0.29266200  1
  O  O14  1  0.40870100  0.13196500  0.33628500  1
  O  O15  1  0.72614400  0.12269300  0.33697500  1
  O  O16  1  0.09129900  0.63196500  0.33628500  1
  O  O17  1  0.77385600  0.62269300  0.33697500  1
  O  O18  1  0.14002800  0.07207300  0.44783200  1
  O  O19  1  0.35997200  0.57207300  0.44783200  1
  O  O20  1  0.64002800  0.42792700  0.55216800  1
  O  O21  1  0.85997200  0.92792700  0.55216800  1
  O  O22  1  0.22614400  0.37730700  0.66302500  1
  O  O23  1  0.90870100  0.36803500  0.66371500  1
  O  O24  1  0.27385600  0.87730700  0.66302500  1
  O  O25  1  0.59129900  0.86803500  0.66371500  1
  O  O26  1  0.78015400  0.06960000  0.70733800  1
  O  O27  1  0.44206600  0.06407300  0.75114700  1
  O  O28  1  0.62083800  0.32262000  0.75142800  1
  O  O29  1  0.71984600  0.56960000  0.70733800  1
  O  O30  1  0.05793400  0.56407300  0.75114700  1
  O  O31  1  0.87916200  0.82262000  0.75142800  1
  O  O32  1  0.08467500  0.31832900  0.84473800  1
  O  O33  1  0.41532500  0.81832900  0.84473800  1
  O  O34  1  0.84134100  0.17541400  0.91706600  1
  O  O35  1  0.50677600  0.21733400  0.94644400  1
  O  O36  1  0.83523100  0.44251400  0.91752200  1
  O  O37  1  0.65865900  0.67541400  0.91706600  1
  O  O38  1  0.99322400  0.71733400  0.94644400  1
  O  O39  1  0.66476900  0.94251400  0.91752200  1
loop_
_geom_bond_atom_site_label_1
_geom_bond_atom_site_label_2
_geom_bond_distance
_geom_bond_site_symmetry_2
Li0 O11 1.923445 1_555
Li0 O4 1.930525 1_555
Li1 O8 1.923445 1_655
Li1 O1 1.930525 1_655
Li2 O15 1.878011 1_555
Li2 O21 1.940042 1_545
Li2 O18 2.024168 1_655
Li3 O17 1.878011 1_555
Li3 O20 1.940042 1_555
Li3 O19 2.024168 1_555
Li4 O22 1.878011 1_555
Li4 O19 1.940042 1_555
Li4 O20 2.024168 1_555
Li5 O24 1.878011 1_555
Li5 O18 1.940042 1_565
Li5 O21 2.024168 1_455
Li6 O31 1.923445 1_455
Li6 O38 1.930525 1_455
Li7 O28 1.923445 1_555
Li7 O35 1.930525 1_555
Cr0 O2 1.975675 1_555
Cr0 O10 1.981216 1_555
Cr0 O3 2.003939 1_555
Cr0 O9 2.012426 1_455
Cr0 O8 2.027066 1_555
Cr0 O1 2.028477 1_555
Cr1 O5 1.975675 1_555
Cr1 O13 1.981216 1_555
Cr1 O0 2.003939 1_565
Cr1 O12 2.012426 1_555
Cr1 O11 2.027066 1_555
Cr1 O4 2.028477 1_555
Cr2 O34 1.975675 1_555
Cr2 O26 1.981216 1_555
Cr2 O39 2.003939 1_545
Cr2 O27 2.012426 1_555
Cr2 O28 2.027066 1_555
Cr2 O35 2.028477 1_555
Cr3 O37 1.975675 1_555
Cr3 O29 1.981216 1_555
Cr3 O36 2.003939 1_555
Cr3 O30 2.012426 1_655
Cr3 O31 2.027066 1_555
Cr3 O38 2.028477 1_555
O0 P0 1.519720 1_555
O1 P10 1.527831 1_454
O2 P0 1.520008 1_555
O3 P1 1.519720 1_555
O4 P11 1.527831 1_554
O5 P1 1.520008 1_555
O6 P2 1.635200 1_555
O6 P0 1.639825 1_555
O7 P3 1.635200 1_555
O7 P1 1.639825 1_655
O8 P4 1.545125 1_555
O9 P3 1.518702 1_555
O10 P5 1.531568 1_555
O11 P5 1.545125 1_555
O12 P2 1.518702 1_565
O13 P4 1.531568 1_565
O14 P2 1.621021 1_555
O14 P4 1.648268 1_555
O15 P2 1.485534 1_555
O16 P3 1.621021 1_455
O16 P5 1.648268 1_555
O17 P3 1.485534 1_555
O18 P4 1.508702 1_555
O19 P5 1.508702 1_555
O20 P6 1.508702 1_555
O21 P7 1.508702 1_555
O22 P8 1.485534 1_555
O23 P8 1.621021 1_655
O23 P6 1.648268 1_555
O24 P9 1.485534 1_555
O25 P9 1.621021 1_555
O25 P7 1.648268 1_555
O26 P7 1.531568 1_545
O27 P9 1.518702 1_545
O28 P6 1.545125 1_555
O29 P6 1.531568 1_555
O30 P8 1.518702 1_555
O31 P7 1.545125 1_555
O32 P8 1.635200 1_555
O32 P10 1.639825 1_455
O33 P9 1.635200 1_555
O33 P11 1.639825 1_555
O34 P10 1.520008 1_555
O35 P0 1.527831 1_556
O36 P10 1.519720 1_555
O37 P11 1.520008 1_555
O38 P1 1.527831 1_656
O39 P11 1.519720 1_555
