# generated using pymatgen
data_Er2Pb2O7
_symmetry_space_group_name_H-M   'P 1'
_cell_length_a   7.49669456
_cell_length_b   7.49669456
_cell_length_c   7.49669456
_cell_angle_alpha   60.00000000
_cell_angle_beta   60.00000000
_cell_angle_gamma   60.00000000
_symmetry_Int_Tables_number   1
_chemical_formula_structural   Er2Pb2O7
_chemical_formula_sum   'Er4 Pb4 O14'
_cell_volume   297.91642793
_cell_formula_units_Z   2
loop_
 _symmetry_equiv_pos_site_id
 _symmetry_equiv_pos_as_xyz
  1  'x, y, z'
loop_
 _atom_site_type_symbol
 _atom_site_label
 _atom_site_symmetry_multiplicity
 _atom_site_fract_x
 _atom_site_fract_y
 _atom_site_fract_z
 _atom_site_occupancy
  Er  Er0  1  0.62500000  0.62500000  0.12500000  1
  Er  Er1  1  0.62500000  0.62500000  0.62500000  1
  Er  Er2  1  0.62500000  0.12500000  0.62500000  1
  Er  Er3  1  0.12500000  0.62500000  0.62500000  1
  Pb  Pb0  1  0.62500000  0.12500000  0.12500000  1
  Pb  Pb1  1  0.12500000  0.12500000  0.12500000  1
  Pb  Pb2  1  0.12500000  0.62500000  0.12500000  1
  Pb  Pb3  1  0.12500000  0.12500000  0.62500000  1
  O  O0  1  0.02469866  0.47530134  0.47530134  1
  O  O1  1  0.77469866  0.77469866  0.22530134  1
  O  O2  1  0.77469866  0.22530134  0.22530134  1
  O  O3  1  0.75000000  0.75000000  0.75000000  1
  O  O4  1  0.02469866  0.47530134  0.02469866  1
  O  O5  1  0.47530134  0.02469866  0.47530134  1
  O  O6  1  0.02469866  0.02469866  0.47530134  1
  O  O7  1  0.50000000  0.50000000  0.50000000  1
  O  O8  1  0.22530134  0.22530134  0.77469866  1
  O  O9  1  0.22530134  0.77469866  0.22530134  1
  O  O10  1  0.77469866  0.22530134  0.77469866  1
  O  O11  1  0.47530134  0.02469866  0.02469866  1
  O  O12  1  0.47530134  0.47530134  0.02469866  1
  O  O13  1  0.22530134  0.77469866  0.77469866  1
loop_
_geom_bond_atom_site_label_1
_geom_bond_atom_site_label_2
_geom_bond_distance
_geom_bond_site_symmetry_2
Er0 O3 2.295385 1_554
Er0 O7 2.295385 1_555
Er0 O12 2.455890 1_555
Er0 O1 2.455890 1_555
Er0 O2 2.455890 1_555
Er0 O9 2.455890 1_555
Er0 O4 2.455890 1_655
Er0 O11 2.455890 1_565
Er1 O3 2.295385 1_555
Er1 O7 2.295385 1_555
Er1 O1 2.455890 1_555
Er1 O10 2.455890 1_555
Er1 O13 2.455890 1_555
Er1 O0 2.455890 1_655
Er1 O12 2.455890 1_556
Er1 O5 2.455890 1_565
Er2 O3 2.295385 1_545
Er2 O7 2.295385 1_555
Er2 O5 2.455890 1_555
Er2 O10 2.455890 1_555
Er2 O8 2.455890 1_555
Er2 O2 2.455890 1_555
Er2 O6 2.455890 1_655
Er2 O11 2.455890 1_556
Er3 O3 2.295385 1_455
Er3 O7 2.295385 1_555
Er3 O13 2.455890 1_555
Er3 O8 2.455890 1_555
Er3 O0 2.455890 1_555
Er3 O9 2.455890 1_555
Er3 O6 2.455890 1_565
Er3 O4 2.455890 1_556
O0 Pb3 2.154836 1_555
O0 Pb2 2.154836 1_555
O1 Pb0 2.154836 1_565
O1 Pb2 2.154836 1_655
O2 Pb0 2.154836 1_555
O2 Pb1 2.154836 1_655
O4 Pb1 2.154836 1_555
O4 Pb2 2.154836 1_555
O5 Pb3 2.154836 1_555
O5 Pb0 2.154836 1_555
O6 Pb1 2.154836 1_555
O6 Pb3 2.154836 1_555
O8 Pb3 2.154836 1_555
O8 Pb1 2.154836 1_556
O9 Pb2 2.154836 1_555
O9 Pb1 2.154836 1_565
O10 Pb3 2.154836 1_655
O10 Pb0 2.154836 1_556
O11 Pb0 2.154836 1_555
O11 Pb1 2.154836 1_555
O12 Pb0 2.154836 1_555
O12 Pb2 2.154836 1_555
O13 Pb3 2.154836 1_565
O13 Pb2 2.154836 1_556
