# generated using pymatgen
data_TiFe3Ni2(PO4)6
_symmetry_space_group_name_H-M   'P 1'
_cell_length_a   8.48515777
_cell_length_b   8.48515642
_cell_length_c   8.48515679
_cell_angle_alpha   61.06575562
_cell_angle_beta   61.06575083
_cell_angle_gamma   61.06574995
_symmetry_Int_Tables_number   1
_chemical_formula_structural   TiFe3Ni2(PO4)6
_chemical_formula_sum   'Ti1 Fe3 Ni2 P6 O24'
_cell_volume   442.34648565
_cell_formula_units_Z   1
loop_
 _symmetry_equiv_pos_site_id
 _symmetry_equiv_pos_as_xyz
  1  'x, y, z'
loop_
 _atom_site_type_symbol
 _atom_site_label
 _atom_site_symmetry_multiplicity
 _atom_site_fract_x
 _atom_site_fract_y
 _atom_site_fract_z
 _atom_site_occupancy
  Ti  Ti0  1  0.85519000  0.85519000  0.85519000  1
  Fe  Fe0  1  0.14507900  0.14507900  0.14507900  1
  Fe  Fe1  1  0.35623600  0.35623600  0.35623600  1
  Fe  Fe2  1  0.64395000  0.64395000  0.64395000  1
  Ni  Ni0  1  0.00083900  0.00083900  0.00083900  1
  Ni  Ni1  1  0.50068700  0.50068700  0.50068700  1
  P  P0  1  0.74953200  0.45240700  0.04590600  1
  P  P1  1  0.04590600  0.74953200  0.45240700  1
  P  P2  1  0.45240700  0.04590600  0.74953200  1
  P  P3  1  0.25087500  0.54562800  0.95381100  1
  P  P4  1  0.54562800  0.95381100  0.25087500  1
  P  P5  1  0.95381100  0.25087500  0.54562800  1
  O  O0  1  0.11015400  0.31763900  0.50726100  1
  O  O1  1  0.31763900  0.50726100  0.11015400  1
  O  O2  1  0.06052100  0.90863600  0.25539600  1
  O  O3  1  0.50726100  0.11015400  0.31763900  1
  O  O4  1  0.99265600  0.82225800  0.61463700  1
  O  O5  1  0.24398600  0.59318300  0.44477000  1
  O  O6  1  0.25539600  0.06052100  0.90863600  1
  O  O7  1  0.44477000  0.24398600  0.59318300  1
  O  O8  1  0.18070400  0.39078600  0.99505500  1
  O  O9  1  0.59318300  0.44477000  0.24398600  1
  O  O10  1  0.09000200  0.74619400  0.93678600  1
  O  O11  1  0.39078600  0.99505500  0.18070400  1
  O  O12  1  0.61463700  0.99265600  0.82225800  1
  O  O13  1  0.90863600  0.25539600  0.06052100  1
  O  O14  1  0.40728300  0.56273900  0.75370800  1
  O  O15  1  0.82225800  0.61463700  0.99265600  1
  O  O16  1  0.56273900  0.75370800  0.40728300  1
  O  O17  1  0.74619400  0.93678600  0.09000200  1
  O  O18  1  0.75370800  0.40728300  0.56273900  1
  O  O19  1  0.99505500  0.18070400  0.39078600  1
  O  O20  1  0.49520900  0.89099400  0.67930300  1
  O  O21  1  0.93678600  0.09000200  0.74619400  1
  O  O22  1  0.67930300  0.49520900  0.89099400  1
  O  O23  1  0.89099400  0.67930300  0.49520900  1
loop_
_geom_bond_atom_site_label_1
_geom_bond_atom_site_label_2
_geom_bond_distance
_geom_bond_site_symmetry_2
Fe0 O19 1.930789 1_455
Fe0 O8 1.930789 1_554
Fe0 O11 1.930789 1_545
Fe0 O6 2.083721 1_554
Fe0 O2 2.083721 1_545
Fe0 O13 2.083722 1_455
Fe1 O3 1.943154 1_555
Fe1 O1 1.943155 1_555
Fe1 O0 1.943155 1_555
Fe1 O5 2.104742 1_555
Fe1 O7 2.104742 1_555
Fe1 O9 2.104742 1_555
Fe2 O20 1.938849 1_555
Fe2 O22 1.938850 1_555
Fe2 O23 1.938850 1_555
Fe2 O18 2.069598 1_555
Fe2 O16 2.069598 1_555
Fe2 O14 2.069598 1_555
Ni0 O13 2.138658 1_455
Ni0 O2 2.138658 1_545
Ni0 O6 2.138658 1_554
Ni0 O10 2.166353 1_544
Ni0 O21 2.166354 1_454
Ni0 O17 2.166354 1_445
Ni1 O14 2.134998 1_555
Ni1 O16 2.134998 1_555
Ni1 O18 2.134998 1_555
Ni1 O9 2.137978 1_555
Ni1 O7 2.137978 1_555
Ni1 O5 2.137979 1_555
O0 P5 1.522368 1_455
O1 P3 1.522368 1_554
O2 P1 1.552458 1_555
O3 P4 1.522368 1_545
O4 P1 1.558897 1_655
O4 Ti0 1.880860 1_555
O5 P1 1.552206 1_555
O6 P2 1.552458 1_555
O7 P2 1.552206 1_555
O8 P3 1.521063 1_555
O9 P0 1.552206 1_555
O10 P3 1.576555 1_555
O10 Ti0 2.058305 1_455
O11 P4 1.521063 1_555
O12 P2 1.558898 1_565
O12 Ti0 1.880860 1_555
O13 P0 1.552458 1_555
O14 P3 1.559746 1_555
O15 P0 1.558898 1_556
O15 Ti0 1.880860 1_555
O16 P4 1.559746 1_555
O17 P4 1.576555 1_555
O17 Ti0 2.058305 1_554
O18 P5 1.559746 1_555
O19 P5 1.521063 1_555
O20 P2 1.517027 1_565
O21 P5 1.576555 1_555
O21 Ti0 2.058305 1_545
O22 P0 1.517027 1_556
O23 P1 1.517027 1_655
