# generated using pymatgen
data_Li3CrO4
_symmetry_space_group_name_H-M   'P 1'
_cell_length_a   5.80035035
_cell_length_b   5.80035035
_cell_length_c   9.06364990
_cell_angle_alpha   72.27788133
_cell_angle_beta   72.27788133
_cell_angle_gamma   90.14003112
_symmetry_Int_Tables_number   1
_chemical_formula_structural   Li3CrO4
_chemical_formula_sum   'Li12 Cr4 O16'
_cell_volume   275.15843515
_cell_formula_units_Z   4
loop_
 _symmetry_equiv_pos_site_id
 _symmetry_equiv_pos_as_xyz
  1  'x, y, z'
loop_
 _atom_site_type_symbol
 _atom_site_label
 _atom_site_symmetry_multiplicity
 _atom_site_fract_x
 _atom_site_fract_y
 _atom_site_fract_z
 _atom_site_occupancy
  Li  Li0  1  0.94053100  0.69497700  0.86691600  1
  Li  Li1  1  0.69497700  0.94053100  0.36691600  1
  Li  Li2  1  0.81862300  0.56203100  0.61932500  1
  Li  Li3  1  0.43918200  0.66951700  0.87577700  1
  Li  Li4  1  0.33048300  0.56081800  0.62422300  1
  Li  Li5  1  0.43796900  0.18137700  0.88067500  1
  Li  Li6  1  0.56203100  0.81862300  0.11932500  1
  Li  Li7  1  0.66951700  0.43918200  0.37577700  1
  Li  Li8  1  0.56081800  0.33048300  0.12422300  1
  Li  Li9  1  0.18137700  0.43796900  0.38067500  1
  Li  Li10  1  0.30502300  0.05946900  0.63308400  1
  Li  Li11  1  0.05946900  0.30502300  0.13308400  1
  Cr  Cr0  1  0.93887700  0.21552500  0.87649600  1
  Cr  Cr1  1  0.21552500  0.93887700  0.37649600  1
  Cr  Cr2  1  0.78447500  0.06112300  0.62350400  1
  Cr  Cr3  1  0.06112300  0.78447500  0.12350400  1
  O  O0  1  0.72034600  0.95989300  0.85526400  1
  O  O1  1  0.95989300  0.72034600  0.35526400  1
  O  O2  1  0.57893600  0.82896000  0.63281300  1
  O  O3  1  0.70460400  0.41515000  0.88234100  1
  O  O4  1  0.16782900  0.94402700  0.89514000  1
  O  O5  1  0.82896000  0.57893600  0.13281300  1
  O  O6  1  0.41515000  0.70460400  0.38234100  1
  O  O7  1  0.94402700  0.16782900  0.39514000  1
  O  O8  1  0.05597300  0.83217100  0.60486000  1
  O  O9  1  0.58485000  0.29539600  0.61765900  1
  O  O10  1  0.17104000  0.42106400  0.86718700  1
  O  O11  1  0.83217100  0.05597300  0.10486000  1
  O  O12  1  0.29539600  0.58485000  0.11765900  1
  O  O13  1  0.42106400  0.17104000  0.36718700  1
  O  O14  1  0.04010700  0.27965400  0.64473600  1
  O  O15  1  0.27965400  0.04010700  0.14473600  1
loop_
_geom_bond_atom_site_label_1
_geom_bond_atom_site_label_2
_geom_bond_distance
_geom_bond_site_symmetry_2
Li0 O0 1.999083 1_555
Li0 O3 2.064263 1_555
Li0 O4 2.076400 1_655
Li0 O10 2.078925 1_655
Li0 O8 2.145125 1_655
Li0 O5 2.177325 1_556
Li1 O1 1.999083 1_555
Li1 O6 2.064263 1_555
Li1 O7 2.076400 1_565
Li1 O13 2.078925 1_565
Li1 O11 2.145125 1_565
Li1 O2 2.177325 1_555
Li2 O8 2.030327 1_655
Li2 O9 2.060874 1_555
Li2 O14 2.084920 1_655
Li2 O2 2.089797 1_555
Li2 O3 2.155710 1_555
Li2 O1 2.169608 1_555
Li3 O12 1.993103 1_556
Li3 O2 2.007863 1_555
Li3 O3 2.136354 1_555
Li3 O10 2.152431 1_555
Li3 O4 2.248905 1_555
Li3 O0 2.267681 1_555
Li4 O6 1.993103 1_555
Li4 O10 2.007863 1_555
Li4 O9 2.136354 1_555
Li4 O2 2.152431 1_555
Li4 O8 2.248905 1_555
Li4 O14 2.267681 1_555
Li5 O4 2.030327 1_545
Li5 O3 2.060874 1_555
Li5 O0 2.084920 1_545
Li5 O10 2.089797 1_555
Li5 O9 2.155710 1_555
Li5 O15 2.169608 1_556
Li6 O11 2.030327 1_565
Li6 O12 2.060874 1_555
Li6 O15 2.084920 1_565
Li6 O5 2.089797 1_555
Li6 O6 2.155710 1_555
Li6 O0 2.169608 1_554
Li7 O9 1.993103 1_555
Li7 O5 2.007863 1_555
Li7 O6 2.136354 1_555
Li7 O13 2.152431 1_555
Li7 O7 2.248905 1_555
Li7 O1 2.267681 1_555
Li8 O3 1.993103 1_554
Li8 O13 2.007863 1_555
Li8 O12 2.136354 1_555
Li8 O5 2.152431 1_555
Li8 O11 2.248905 1_555
Li8 O15 2.267681 1_555
Li9 O7 2.030327 1_455
Li9 O6 2.060874 1_555
Li9 O1 2.084920 1_455
Li9 O13 2.089797 1_555
Li9 O12 2.155710 1_555
Li9 O14 2.169608 1_555
Li10 O14 1.999083 1_555
Li10 O9 2.064263 1_555
Li10 O8 2.076400 1_545
Li10 O2 2.078925 1_545
Li10 O4 2.145125 1_545
Li10 O13 2.177325 1_555
Li11 O15 1.999083 1_555
Li11 O12 2.064263 1_555
Li11 O11 2.076400 1_455
Li11 O5 2.078925 1_455
Li11 O7 2.145125 1_455
Li11 O10 2.177325 1_554
Cr0 O10 1.761704 1_655
Cr0 O3 1.786407 1_555
Cr0 O11 1.890708 1_556
Cr0 O14 1.915191 1_655
Cr0 O0 2.038462 1_545
Cr0 O4 2.063231 1_645
Cr1 O13 1.761704 1_565
Cr1 O6 1.786407 1_555
Cr1 O8 1.890708 1_555
Cr1 O15 1.915191 1_565
Cr1 O1 2.038462 1_455
Cr1 O7 2.063231 1_465
Cr2 O2 1.761704 1_545
Cr2 O9 1.786407 1_555
Cr2 O7 1.890708 1_555
Cr2 O0 1.915191 1_545
Cr2 O14 2.038462 1_655
Cr2 O8 2.063231 1_645
Cr3 O5 1.761704 1_455
Cr3 O12 1.786407 1_555
Cr3 O4 1.890708 1_554
Cr3 O1 1.915191 1_455
Cr3 O15 2.038462 1_565
Cr3 O11 2.063231 1_465
