# generated using pymatgen
data_Mn6O7F5
_symmetry_space_group_name_H-M   'P 1'
_cell_length_a   5.60435200
_cell_length_b   4.60070400
_cell_length_c   15.38665177
_cell_angle_alpha   89.83633427
_cell_angle_beta   90.00000000
_cell_angle_gamma   90.00000000
_symmetry_Int_Tables_number   1
_chemical_formula_structural   Mn6O7F5
_chemical_formula_sum   'Mn12 O14 F10'
_cell_volume   396.72726707
_cell_formula_units_Z   2
loop_
 _symmetry_equiv_pos_site_id
 _symmetry_equiv_pos_as_xyz
  1  'x, y, z'
loop_
 _atom_site_type_symbol
 _atom_site_label
 _atom_site_symmetry_multiplicity
 _atom_site_fract_x
 _atom_site_fract_y
 _atom_site_fract_z
 _atom_site_occupancy
  Mn  Mn0  1  0.85412000  0.94517300  0.41139100  1
  Mn  Mn1  1  0.16801400  0.98580700  0.24547500  1
  Mn  Mn2  1  0.85213400  0.01406500  0.07912800  1
  Mn  Mn3  1  0.83198600  0.98580700  0.74547500  1
  Mn  Mn4  1  0.14786600  0.01406500  0.57912800  1
  Mn  Mn5  1  0.14588000  0.94517300  0.91139100  1
  Mn  Mn6  1  0.64941700  0.50265200  0.58563400  1
  Mn  Mn7  1  0.64719900  0.51118100  0.92433800  1
  Mn  Mn8  1  0.63747900  0.51054100  0.25436000  1
  Mn  Mn9  1  0.35058300  0.50265200  0.08563400  1
  Mn  Mn10  1  0.35280100  0.51118100  0.42433800  1
  Mn  Mn11  1  0.36252100  0.51054100  0.75436000  1
  O  O0  1  0.89258600  0.76867000  0.30216200  1
  O  O1  1  0.89128300  0.79378600  0.63493900  1
  O  O2  1  0.88574400  0.76089200  0.96881600  1
  O  O3  1  0.10871700  0.79378600  0.13493900  1
  O  O4  1  0.11425600  0.76089200  0.46881600  1
  O  O5  1  0.10741400  0.76867000  0.80216200  1
  O  O6  1  0.39827600  0.71319800  0.31656000  1
  O  O7  1  0.61365800  0.70657500  0.47589500  1
  O  O8  1  0.60172400  0.71319800  0.81656000  1
  O  O9  1  0.38634200  0.70657500  0.97589500  1
  O  O10  1  0.62370500  0.28175900  0.02985500  1
  O  O11  1  0.38339200  0.28591200  0.19468500  1
  O  O12  1  0.37629500  0.28175900  0.52985500  1
  O  O13  1  0.61660800  0.28591200  0.69468500  1
  F  F0  1  0.61542300  0.77245300  0.14191600  1
  F  F1  1  0.38457700  0.77245300  0.64191600  1
  F  F2  1  0.61815800  0.23469400  0.36791100  1
  F  F3  1  0.38184200  0.23469400  0.86791100  1
  F  F4  1  0.87619500  0.26310100  0.19328200  1
  F  F5  1  0.88358900  0.21888500  0.51496600  1
  F  F6  1  0.12903500  0.23065600  0.35868500  1
  F  F7  1  0.11641100  0.21888500  0.01496600  1
  F  F8  1  0.87096500  0.23065600  0.85868500  1
  F  F9  1  0.12380500  0.26310100  0.69328200  1
loop_
_geom_bond_atom_site_label_1
_geom_bond_atom_site_label_2
_geom_bond_distance
_geom_bond_site_symmetry_2
Mn0 O0 1.881043 1_555
Mn0 O4 1.902811 1_655
Mn0 O7 1.999984 1_555
Mn1 O3 1.947337 1_555
Mn1 O11 1.991948 1_565
Mn1 O0 2.033826 1_455
Mn1 O6 2.103993 1_555
Mn2 O10 1.930064 1_555
Mn2 O3 1.956353 1_645
Mn2 O2 2.069882 1_544
Mn3 O1 1.947337 1_555
Mn3 O13 1.991948 1_565
Mn3 O5 2.033826 1_655
Mn3 O8 2.103993 1_555
Mn4 O12 1.930064 1_555
Mn4 O1 1.956353 1_445
Mn4 O4 2.069882 1_545
Mn5 O5 1.881043 1_555
Mn5 O2 1.902811 1_455
Mn5 O9 1.999984 1_555
Mn6 O7 1.939690 1_555
Mn6 O13 1.958065 1_555
Mn6 O12 2.029120 1_555
Mn6 O1 2.052504 1_555
Mn7 O9 1.891757 1_555
Mn7 O2 1.892082 1_555
Mn7 O8 1.915743 1_555
Mn7 O10 1.938442 1_556
Mn8 O6 1.894068 1_555
Mn8 O11 1.986023 1_555
Mn8 O0 2.000093 1_555
Mn9 O9 1.939690 1_554
Mn9 O11 1.958065 1_555
Mn9 O10 2.029120 1_555
Mn9 O3 2.052504 1_555
Mn10 O7 1.891757 1_555
Mn10 O4 1.892082 1_555
Mn10 O6 1.915743 1_555
Mn10 O12 1.938442 1_555
Mn11 O8 1.894068 1_555
Mn11 O13 1.986023 1_555
Mn11 O5 2.000093 1_555
F0 Mn2 1.980588 1_565
F0 Mn8 2.109198 1_555
F0 Mn9 2.121288 1_555
F1 Mn4 1.980588 1_565
F1 Mn11 2.109198 1_555
F1 Mn6 2.121288 1_555
F2 Mn0 1.991354 1_545
F2 Mn10 2.142386 1_555
F2 Mn8 2.159224 1_555
F3 Mn5 1.991354 1_545
F3 Mn7 2.142386 1_555
F3 Mn11 2.159224 1_555
F4 Mn8 1.993765 1_555
F4 Mn2 2.104165 1_555
F4 Mn1 2.222910 1_645
F5 Mn4 2.012696 1_655
F5 Mn0 2.040659 1_545
F5 Mn6 2.148762 1_555
F6 Mn10 2.065494 1_555
F6 Mn1 2.088583 1_545
F6 Mn0 2.179561 1_445
F7 Mn2 2.012696 1_455
F7 Mn5 2.040659 1_544
F7 Mn9 2.148762 1_555
F8 Mn7 2.065494 1_555
F8 Mn3 2.088583 1_545
F8 Mn5 2.179561 1_645
F9 Mn11 1.993765 1_555
F9 Mn4 2.104165 1_555
F9 Mn3 2.222910 1_445
