# generated using pymatgen
data_Li2VOF5
_symmetry_space_group_name_H-M   'P 1'
_cell_length_a   4.94173744
_cell_length_b   4.94173744
_cell_length_c   13.42587600
_cell_angle_alpha   90.00000000
_cell_angle_beta   90.00000000
_cell_angle_gamma   119.99999250
_symmetry_Int_Tables_number   1
_chemical_formula_structural   Li2VOF5
_chemical_formula_sum   'Li6 V3 O3 F15'
_cell_volume   283.94395714
_cell_formula_units_Z   3
loop_
 _symmetry_equiv_pos_site_id
 _symmetry_equiv_pos_as_xyz
  1  'x, y, z'
loop_
 _atom_site_type_symbol
 _atom_site_label
 _atom_site_symmetry_multiplicity
 _atom_site_fract_x
 _atom_site_fract_y
 _atom_site_fract_z
 _atom_site_occupancy
  Li  Li0  1  0.67134500  0.33942400  0.17249800  1
  Li  Li1  1  0.66057600  0.33192200  0.50583100  1
  Li  Li2  1  0.66807800  0.32865500  0.83916500  1
  Li  Li3  1  0.01421200  0.01454900  0.50563800  1
  Li  Li4  1  0.00033600  0.98578800  0.17230400  1
  Li  Li5  1  0.98545100  0.99966400  0.83897100  1
  V  V0  1  0.33410300  0.68889000  0.67261500  1
  V  V1  1  0.31111000  0.64521400  0.00594800  1
  V  V2  1  0.35478600  0.66589700  0.33928200  1
  O  O0  1  0.33340100  0.95948500  0.74243100  1
  O  O1  1  0.62608400  0.66659900  0.40909800  1
  O  O2  1  0.04051500  0.37391600  0.07576500  1
  F  F0  1  0.32697200  0.35730600  0.25028200  1
  F  F1  1  0.33892300  0.36502400  0.91719100  1
  F  F2  1  0.33509700  0.35434100  0.58351300  1
  F  F3  1  0.34073200  0.98419800  0.07759700  1
  F  F4  1  0.32659000  0.97595400  0.41162600  1
  F  F5  1  0.64269400  0.96966600  0.58361500  1
  F  F6  1  0.63497600  0.97389900  0.25052400  1
  F  F7  1  0.64565900  0.98075500  0.91684600  1
  F  F8  1  0.64936400  0.67341000  0.07829200  1
  F  F9  1  0.64346600  0.65926800  0.74426300  1
  F  F10  1  0.01580200  0.35653400  0.41093000  1
  F  F11  1  0.02404600  0.35063600  0.74495900  1
  F  F12  1  0.03033400  0.67302800  0.91694900  1
  F  F13  1  0.01924500  0.66490300  0.25018000  1
  F  F14  1  0.02610100  0.66107700  0.58385800  1
loop_
_geom_bond_atom_site_label_1
_geom_bond_atom_site_label_2
_geom_bond_distance
_geom_bond_site_symmetry_2
Li0 O2 2.175546 1_655
Li1 O1 2.175542 1_555
Li2 O0 2.175553 1_545
Li3 O1 2.239953 1_445
Li4 O2 2.239943 1_565
Li5 O0 2.239955 1_655
O0 V0 1.634438 1_555
O1 V2 1.634442 1_555
O2 V1 1.634448 1_555
F0 V2 1.887493 1_555
F0 Li4 2.027000 1_545
F0 Li0 2.035908 1_555
F1 V1 1.883187 1_556
F1 Li2 2.016894 1_555
F1 Li5 2.064006 1_445
F2 Li3 1.940253 1_555
F2 Li1 1.966028 1_555
F2 V0 2.042660 1_555
F3 V1 1.872900 1_555
F3 Li4 2.111794 1_555
F3 Li0 2.122789 1_565
F4 V2 1.877231 1_555
F4 Li3 2.075310 1_565
F4 Li1 2.124812 1_565
F5 V0 1.887491 1_555
F5 Li3 2.026991 1_665
F5 Li1 2.035912 1_565
F6 V2 1.883194 1_555
F6 Li0 2.016898 1_565
F6 Li4 2.064004 1_655
F7 Li5 1.940249 1_555
F7 Li2 1.966029 1_565
F7 V1 2.042656 1_556
F8 V1 1.877235 1_555
F8 Li4 2.075308 1_655
F8 Li0 2.124818 1_555
F9 V0 1.872897 1_555
F9 Li5 2.111800 1_555
F9 Li2 2.122794 1_555
F10 V2 1.872895 1_555
F10 Li3 2.111798 1_555
F10 Li1 2.122790 1_455
F11 V0 1.877234 1_555
F11 Li5 2.075306 1_445
F11 Li2 2.124822 1_455
F12 V1 1.887481 1_556
F12 Li5 2.027003 1_455
F12 Li2 2.035910 1_455
F13 Li4 1.940265 1_555
F13 Li0 1.966033 1_455
F13 V2 2.042652 1_555
F14 V0 1.883184 1_555
F14 Li1 2.016903 1_455
F14 Li3 2.064008 1_565
