# generated using pymatgen
data_Li8Mn5Fe3(BO3)8
_symmetry_space_group_name_H-M   'P 1'
_cell_length_a   5.23596800
_cell_length_b   5.24888994
_cell_length_c   20.94930555
_cell_angle_alpha   90.70817569
_cell_angle_beta   90.92956776
_cell_angle_gamma   119.89517390
_symmetry_Int_Tables_number   1
_chemical_formula_structural   Li8Mn5Fe3(BO3)8
_chemical_formula_sum   'Li8 Mn5 Fe3 B8 O24'
_cell_volume   498.93559454
_cell_formula_units_Z   1
loop_
 _symmetry_equiv_pos_site_id
 _symmetry_equiv_pos_as_xyz
  1  'x, y, z'
loop_
 _atom_site_type_symbol
 _atom_site_label
 _atom_site_symmetry_multiplicity
 _atom_site_fract_x
 _atom_site_fract_y
 _atom_site_fract_z
 _atom_site_occupancy
  Li  Li0  1  0.67841200  0.65077900  0.33339000  1
  Li  Li1  1  0.65258000  0.67756700  0.08380600  1
  Li  Li2  1  0.67721400  0.65204200  0.83432400  1
  Li  Li3  1  0.65151000  0.67895900  0.58411700  1
  Li  Li4  1  0.35111200  0.33773500  0.20808400  1
  Li  Li5  1  0.33762200  0.34804300  0.45867500  1
  Li  Li6  1  0.34649900  0.33717700  0.70843800  1
  Li  Li7  1  0.33700400  0.34625000  0.95867800  1
  Mn  Mn0  1  0.67069500  0.00297100  0.44141700  1
  Mn  Mn1  1  0.67186800  0.00655800  0.94192900  1
  Mn  Mn2  1  0.32272400  0.00292100  0.56675300  1
  Mn  Mn3  1  0.00278400  0.32552000  0.31594400  1
  Mn  Mn4  1  0.00305700  0.66817300  0.69266700  1
  Fe  Fe0  1  0.31558100  0.99803300  0.06721800  1
  Fe  Fe1  1  0.00584900  0.31927800  0.81652600  1
  Fe  Fe2  1  0.00272700  0.66745800  0.19086800  1
  B  B0  1  0.99668600  0.33758200  0.06364100  1
  B  B1  1  0.99780500  0.34152600  0.56301600  1
  B  B2  1  0.66746100  0.00819700  0.18689900  1
  B  B3  1  0.66615800  0.00421400  0.68867900  1
  B  B4  1  0.34002700  0.99631900  0.31185300  1
  B  B5  1  0.33905700  0.99674600  0.81330300  1
  B  B6  1  0.00401600  0.66589800  0.43784300  1
  B  B7  1  0.00513000  0.66745000  0.93790500  1
  O  O0  1  0.93165100  0.25771800  0.20676000  1
  O  O1  1  0.92942300  0.24593700  0.70963800  1
  O  O2  1  0.74133400  0.07257400  0.04944300  1
  O  O3  1  0.97867000  0.58442500  0.08258200  1
  O  O4  1  0.74672000  0.07050200  0.54789800  1
  O  O5  1  0.96682000  0.57870800  0.58385100  1
  O  O6  1  0.41820900  0.03117800  0.17285200  1
  O  O7  1  0.73081300  0.64143600  0.43042400  1
  O  O8  1  0.42187700  0.03641500  0.67336900  1
  O  O9  1  0.73084900  0.64321000  0.93077800  1
  O  O10  1  0.65562400  0.73988700  0.18077300  1
  O  O11  1  0.64209500  0.73026600  0.68103500  1
  O  O12  1  0.36879700  0.27187400  0.30503700  1
  O  O13  1  0.35923800  0.27019400  0.80650600  1
  O  O14  1  0.27057400  0.35818600  0.05707200  1
  O  O15  1  0.57821700  0.96708600  0.33283400  1
  O  O16  1  0.27266600  0.37108700  0.55575100  1
  O  O17  1  0.58507100  0.97819200  0.83212500  1
  O  O18  1  0.03769900  0.42290100  0.42239500  1
  O  O19  1  0.03753200  0.42382200  0.92237300  1
  O  O20  1  0.24713600  0.92983700  0.45905600  1
  O  O21  1  0.24747500  0.92993600  0.95927200  1
  O  O22  1  0.06889700  0.74661200  0.29663700  1
  O  O23  1  0.07023300  0.74182200  0.79937200  1
loop_
_geom_bond_atom_site_label_1
_geom_bond_atom_site_label_2
_geom_bond_distance
_geom_bond_site_symmetry_2
Li0 O12 1.913621 1_555
Li0 O15 1.974929 1_555
Li0 O22 2.015332 1_655
Li0 O7 2.051273 1_555
Li1 O14 1.929417 1_555
Li1 O3 1.997016 1_555
Li1 O2 2.029841 1_565
Li1 O10 2.052104 1_555
Li2 O13 1.934415 1_555
Li2 O17 1.997528 1_555
Li2 O23 2.020805 1_655
Li2 O9 2.039828 1_555
Li3 O16 1.908391 1_555
Li3 O5 1.966923 1_555
Li3 O4 2.019278 1_565
Li3 O11 2.049464 1_555
Li4 O6 1.949336 1_555
Li4 O10 2.007425 1_555
Li4 O0 2.019667 1_455
Li4 O12 2.072825 1_555
Li5 O18 1.944712 1_555
Li5 O7 1.965176 1_555
Li5 O20 2.001729 1_545
Li5 O16 2.079304 1_555
Li6 O8 1.946671 1_555
Li6 O11 1.963922 1_555
Li6 O1 1.989600 1_455
Li6 O13 2.094192 1_555
Li7 O19 1.951495 1_555
Li7 O9 1.970080 1_555
Li7 O21 1.993664 1_545
Li7 O14 2.101333 1_556
Mn0 O7 2.083318 1_545
Mn0 O20 2.093741 1_545
Mn0 O18 2.129364 1_655
Mn0 O4 2.251916 1_555
Mn0 O15 2.303721 1_545
Mn1 O9 2.089424 1_545
Mn1 O21 2.090567 1_545
Mn1 O19 2.120854 1_655
Mn1 O2 2.270222 1_556
Mn1 O17 2.326012 1_545
Mn2 O16 2.090497 1_555
Mn2 O4 2.111231 1_555
Mn2 O5 2.112834 1_445
Mn2 O8 2.269534 1_555
Mn2 O20 2.278689 1_545
Mn3 O12 2.086804 1_555
Mn3 O22 2.105386 1_555
Mn3 O15 2.116483 1_445
Mn3 O18 2.265693 1_555
Mn3 O0 2.305939 1_455
Mn4 O11 2.082954 1_455
Mn4 O1 2.087837 1_455
Mn4 O8 2.128667 1_565
Mn4 O23 2.255601 1_555
Mn4 O5 2.307351 1_455
Fe0 O14 2.031432 1_565
Fe0 O3 2.036359 1_455
Fe0 O2 2.102928 1_565
Fe0 O6 2.252757 1_565
Fe0 O21 2.279391 1_554
Fe1 O13 2.005154 1_555
Fe1 O17 2.066876 1_445
Fe1 O23 2.107163 1_555
Fe1 O19 2.261158 1_555
Fe1 O1 2.262417 1_455
Fe2 O0 2.024510 1_455
Fe2 O10 2.042188 1_455
Fe2 O6 2.103380 1_565
Fe2 O22 2.238573 1_555
Fe2 O3 2.294242 1_455
B0 O2 1.390660 1_555
B0 O14 1.392609 1_655
B0 O3 1.398357 1_555
B1 O16 1.379683 1_655
B1 O5 1.398898 1_555
B1 O4 1.401233 1_555
B2 O10 1.382740 1_545
B2 O6 1.396321 1_555
B2 O0 1.401370 1_555
B3 O11 1.386434 1_545
B3 O1 1.387766 1_555
B3 O8 1.403898 1_555
B4 O12 1.386957 1_565
B4 O15 1.395268 1_555
B4 O22 1.398232 1_555
B5 O17 1.390589 1_555
B5 O13 1.394948 1_565
B5 O23 1.398712 1_555
B6 O7 1.376999 1_455
B6 O20 1.394883 1_555
B6 O18 1.406601 1_555
B7 O9 1.382523 1_455
B7 O21 1.390086 1_555
B7 O19 1.406306 1_555
