# generated using pymatgen
data_Ba2CaI6
_symmetry_space_group_name_H-M   'P 1'
_cell_length_a   9.21973899
_cell_length_b   9.21973899
_cell_length_c   10.20515559
_cell_angle_alpha   88.64684546
_cell_angle_beta   88.64684546
_cell_angle_gamma   119.26140957
_symmetry_Int_Tables_number   1
_chemical_formula_structural   Ba2CaI6
_chemical_formula_sum   'Ba4 Ca2 I12'
_cell_volume   755.95790016
_cell_formula_units_Z   2
loop_
 _symmetry_equiv_pos_site_id
 _symmetry_equiv_pos_as_xyz
  1  'x, y, z'
loop_
 _atom_site_type_symbol
 _atom_site_label
 _atom_site_symmetry_multiplicity
 _atom_site_fract_x
 _atom_site_fract_y
 _atom_site_fract_z
 _atom_site_occupancy
  Ba  Ba0  1  0.39339300  0.72020000  0.51277000  1
  Ba  Ba1  1  0.27980000  0.60660700  0.98723000  1
  Ba  Ba2  1  0.72020000  0.39339300  0.01277000  1
  Ba  Ba3  1  0.60660700  0.27980000  0.48723000  1
  Ca  Ca0  1  0.04798600  0.95201400  0.75000000  1
  Ca  Ca1  1  0.95201400  0.04798600  0.25000000  1
  I  I0  1  0.65635300  0.69736200  0.84274200  1
  I  I1  1  0.43783600  0.01001600  0.78557000  1
  I  I2  1  0.18312900  0.94692200  0.45065500  1
  I  I3  1  0.05307800  0.81687100  0.04934500  1
  I  I4  1  0.98998400  0.56216400  0.71443000  1
  I  I5  1  0.30263800  0.34364700  0.65725800  1
  I  I6  1  0.69736200  0.65635300  0.34274200  1
  I  I7  1  0.01001600  0.43783600  0.28557000  1
  I  I8  1  0.94692200  0.18312900  0.95065500  1
  I  I9  1  0.81687100  0.05307800  0.54934500  1
  I  I10  1  0.56216400  0.98998400  0.21443000  1
  I  I11  1  0.34364700  0.30263800  0.15725800  1
loop_
_geom_bond_atom_site_label_1
_geom_bond_atom_site_label_2
_geom_bond_distance
_geom_bond_site_symmetry_2
Ba0 I5 3.433267 1_555
Ba0 I2 3.533586 1_555
Ba0 I6 3.555657 1_555
Ba0 I9 3.634719 1_565
Ba0 I10 3.675955 1_555
Ba0 I4 3.793507 1_455
Ba0 I1 3.793807 1_565
Ba0 I7 4.040231 1_555
Ba1 I0 3.433267 1_555
Ba1 I3 3.533586 1_556
Ba1 I11 3.555657 1_556
Ba1 I8 3.634719 1_455
Ba1 I7 3.675955 1_556
Ba1 I1 3.793507 1_565
Ba1 I4 3.793807 1_455
Ba1 I10 4.040231 1_556
Ba2 I11 3.433267 1_555
Ba2 I8 3.533586 1_554
Ba2 I0 3.555657 1_554
Ba2 I3 3.634719 1_655
Ba2 I4 3.675955 1_554
Ba2 I10 3.793507 1_545
Ba2 I7 3.793807 1_655
Ba2 I1 4.040231 1_554
Ba3 I6 3.433267 1_555
Ba3 I9 3.533586 1_555
Ba3 I5 3.555657 1_555
Ba3 I2 3.634719 1_545
Ba3 I1 3.675955 1_555
Ba3 I7 3.793507 1_655
Ba3 I10 3.793807 1_545
Ba3 I4 4.040231 1_555
Ca0 I3 3.281928 1_556
Ca0 I2 3.281928 1_555
Ca0 I0 3.300272 1_455
Ca0 I5 3.300272 1_565
Ca0 I4 3.395379 1_455
Ca0 I1 3.395379 1_565
Ca0 I9 3.414482 1_465
Ca0 I8 3.414482 1_465
Ca1 I9 3.281928 1_555
Ca1 I8 3.281928 1_554
Ca1 I6 3.300272 1_545
Ca1 I11 3.300272 1_655
Ca1 I10 3.395379 1_545
Ca1 I7 3.395379 1_655
Ca1 I3 3.414482 1_645
Ca1 I2 3.414482 1_645
