# generated using pymatgen
data_Cs4SiO4
_symmetry_space_group_name_H-M   'P 1'
_cell_length_a   6.83531482
_cell_length_b   11.37060340
_cell_length_c   11.58889440
_cell_angle_alpha   68.25775038
_cell_angle_beta   90.00000000
_cell_angle_gamma   90.00000000
_symmetry_Int_Tables_number   1
_chemical_formula_structural   Cs4SiO4
_chemical_formula_sum   'Cs16 Si4 O16'
_cell_volume   836.63137265
_cell_formula_units_Z   4
loop_
 _symmetry_equiv_pos_site_id
 _symmetry_equiv_pos_as_xyz
  1  'x, y, z'
loop_
 _atom_site_type_symbol
 _atom_site_label
 _atom_site_symmetry_multiplicity
 _atom_site_fract_x
 _atom_site_fract_y
 _atom_site_fract_z
 _atom_site_occupancy
  Cs  Cs0  1  0.57928044  0.28729429  0.07389981  1
  Cs  Cs1  1  0.12848394  0.42948608  0.14706132  1
  Cs  Cs2  1  0.92071956  0.78729429  0.07389981  1
  Cs  Cs3  1  0.30159017  0.08893715  0.38230183  1
  Cs  Cs4  1  0.37151606  0.92948608  0.14706132  1
  Cs  Cs5  1  0.80599317  0.23426954  0.40211449  1
  Cs  Cs6  1  0.19840983  0.58893715  0.38230183  1
  Cs  Cs7  1  0.30599317  0.26573046  0.59788551  1
  Cs  Cs8  1  0.69400683  0.73426954  0.40211449  1
  Cs  Cs9  1  0.80159017  0.41106285  0.61769817  1
  Cs  Cs10  1  0.19400683  0.76573046  0.59788551  1
  Cs  Cs11  1  0.62848394  0.07051392  0.85293868  1
  Cs  Cs12  1  0.69840983  0.91106285  0.61769817  1
  Cs  Cs13  1  0.07928044  0.21270571  0.92610019  1
  Cs  Cs14  1  0.87151606  0.57051392  0.85293868  1
  Cs  Cs15  1  0.42071956  0.71270571  0.92610019  1
  Si  Si0  1  0.87756169  0.02638704  0.23699485  1
  Si  Si1  1  0.62243831  0.52638704  0.23699485  1
  Si  Si2  1  0.37756169  0.47361296  0.76300515  1
  Si  Si3  1  0.12243831  0.97361296  0.76300515  1
  O  O0  1  0.79535134  0.01520300  0.10768213  1
  O  O1  1  0.99419323  0.16356672  0.20290264  1
  O  O2  1  0.70464866  0.51520300  0.10768213  1
  O  O3  1  0.47140756  0.40784787  0.31271951  1
  O  O4  1  0.50580677  0.66356672  0.20290264  1
  O  O5  1  0.81384056  0.52227899  0.32717835  1
  O  O6  1  0.02859244  0.90784787  0.31271951  1
  O  O7  1  0.31384056  0.97772101  0.67282165  1
  O  O8  1  0.68615944  0.02227899  0.32717835  1
  O  O9  1  0.97140756  0.09215213  0.68728049  1
  O  O10  1  0.18615944  0.47772101  0.67282165  1
  O  O11  1  0.49419323  0.33643328  0.79709736  1
  O  O12  1  0.52859244  0.59215213  0.68728049  1
  O  O13  1  0.29535134  0.48479700  0.89231787  1
  O  O14  1  0.00580677  0.83643328  0.79709736  1
  O  O15  1  0.20464866  0.98479700  0.89231787  1
loop_
_geom_bond_atom_site_label_1
_geom_bond_atom_site_label_2
_geom_bond_distance
_geom_bond_site_symmetry_2
Cs0 O2 2.890487 1_555
Cs0 O11 3.100446 1_554
Cs0 O13 3.120393 1_554
Cs0 O1 3.270976 1_555
Cs0 O0 3.317987 1_555
Cs0 O8 3.417133 1_555
Cs0 O3 3.590724 1_555
Cs1 O3 2.981694 1_555
Cs1 O1 2.992363 1_455
Cs1 O13 3.006058 1_554
Cs1 O2 3.036703 1_455
Cs1 O5 3.424536 1_455
Cs2 O0 2.890487 1_565
Cs2 O14 3.100446 1_654
Cs2 O15 3.120393 1_654
Cs2 O4 3.270976 1_555
Cs2 O2 3.317987 1_555
Cs2 O5 3.417133 1_555
Cs2 O6 3.590724 1_655
Cs3 O1 2.854871 1_455
Cs3 O8 2.872473 1_555
Cs3 O6 3.098760 1_545
Cs3 O7 3.128457 1_545
Cs3 O3 3.602863 1_555
Cs4 O6 2.981694 1_555
Cs4 O4 2.992363 1_555
Cs4 O15 3.006058 1_554
Cs4 O0 3.036703 1_565
Cs4 O8 3.424536 1_565
Cs5 O3 2.946901 1_555
Cs5 O8 2.964164 1_555
Cs5 O1 3.001006 1_555
Cs5 O5 3.061804 1_555
Cs5 O9 3.294643 1_555
Cs6 O4 2.854871 1_555
Cs6 O5 2.872473 1_455
Cs6 O3 3.098760 1_555
Cs6 O10 3.128457 1_555
Cs6 O6 3.602863 1_555
Cs7 O9 2.946901 1_455
Cs7 O10 2.964164 1_555
Cs7 O11 3.001006 1_555
Cs7 O7 3.061804 1_545
Cs7 O3 3.294643 1_555
Cs8 O6 2.946901 1_655
Cs8 O5 2.964164 1_555
Cs8 O4 3.001006 1_555
Cs8 O8 3.061804 1_565
Cs8 O12 3.294643 1_555
Cs9 O11 2.854871 1_555
Cs9 O10 2.872473 1_655
Cs9 O12 3.098760 1_555
Cs9 O5 3.128457 1_555
Cs9 O9 3.602863 1_555
Cs10 O12 2.946901 1_555
Cs10 O7 2.964164 1_555
Cs10 O14 3.001006 1_555
Cs10 O10 3.061804 1_555
Cs10 O6 3.294643 1_555
Cs11 O9 2.981694 1_555
Cs11 O11 2.992363 1_555
Cs11 O0 3.006058 1_556
Cs11 O15 3.036703 1_545
Cs11 O7 3.424536 1_545
Cs12 O14 2.854871 1_655
Cs12 O7 2.872473 1_555
Cs12 O9 3.098760 1_565
Cs12 O8 3.128457 1_565
Cs12 O12 3.602863 1_555
Cs13 O15 2.890487 1_545
Cs13 O1 3.100446 1_456
Cs13 O0 3.120393 1_456
Cs13 O11 3.270976 1_555
Cs13 O13 3.317987 1_555
Cs13 O10 3.417133 1_555
Cs13 O9 3.590724 1_455
Cs14 O12 2.981694 1_555
Cs14 O14 2.992363 1_655
Cs14 O2 3.006058 1_556
Cs14 O13 3.036703 1_655
Cs14 O10 3.424536 1_655
Cs15 O13 2.890487 1_555
Cs15 O4 3.100446 1_556
Cs15 O2 3.120393 1_556
Cs15 O14 3.270976 1_555
Cs15 O15 3.317987 1_555
Cs15 O7 3.417133 1_555
Cs15 O12 3.590724 1_555
O0 Si0 1.648911 1_555
O1 Si0 1.663761 1_555
O2 Si1 1.648911 1_555
O3 Si1 1.666212 1_555
O4 Si1 1.663761 1_555
O5 Si1 1.664313 1_555
O6 Si0 1.666212 1_465
O7 Si3 1.664313 1_555
O8 Si0 1.664313 1_555
O9 Si3 1.666212 1_645
O10 Si2 1.664313 1_555
O11 Si2 1.663761 1_555
O12 Si2 1.666212 1_555
O13 Si2 1.648911 1_555
O14 Si3 1.663761 1_555
O15 Si3 1.648911 1_555
