# generated using pymatgen
data_LiFeBO3
_symmetry_space_group_name_H-M   'P 1'
_cell_length_a   5.20576590
_cell_length_b   5.22159097
_cell_length_c   10.37197101
_cell_angle_alpha   90.88422031
_cell_angle_beta   91.77158694
_cell_angle_gamma   60.09120780
_symmetry_Int_Tables_number   1
_chemical_formula_structural   LiFeBO3
_chemical_formula_sum   'Li4 Fe4 B4 O12'
_cell_volume   244.27003063
_cell_formula_units_Z   4
loop_
 _symmetry_equiv_pos_site_id
 _symmetry_equiv_pos_as_xyz
  1  'x, y, z'
loop_
 _atom_site_type_symbol
 _atom_site_label
 _atom_site_symmetry_multiplicity
 _atom_site_fract_x
 _atom_site_fract_y
 _atom_site_fract_z
 _atom_site_occupancy
  Li  Li0  1  0.34412100  0.98176400  0.33295700  1
  Li  Li1  1  0.32594800  0.01820200  0.83295200  1
  Li  Li2  1  0.66667700  0.98234500  0.58402600  1
  Li  Li3  1  0.64893700  0.01767700  0.08404400  1
  Fe  Fe0  1  0.99859900  0.68068700  0.86756600  1
  Fe  Fe1  1  0.67937500  0.31930300  0.36755300  1
  Fe  Fe2  1  0.99872400  0.33266100  0.11570200  1
  Fe  Fe3  1  0.33118500  0.66747800  0.61572800  1
  B  B0  1  0.66652100  0.33667100  0.87349000  1
  B  B1  1  0.00312800  0.66337300  0.37349900  1
  B  B2  1  0.99409000  0.33299800  0.62465700  1
  B  B3  1  0.32709000  0.66693500  0.12466700  1
  O  O0  1  0.74527800  0.31618900  0.58398500  1
  O  O1  1  0.06142100  0.68379100  0.08398400  1
  O  O2  1  0.93733000  0.32156200  0.90311100  1
  O  O3  1  0.25885300  0.67840600  0.40313700  1
  O  O4  1  0.42071500  0.60136600  0.83428200  1
  O  O5  1  0.02202300  0.39870900  0.33427400  1
  O  O6  1  0.97160000  0.60511700  0.65383700  1
  O  O7  1  0.57674200  0.39478000  0.15383200  1
  O  O8  1  0.34414300  0.92312400  0.13791300  1
  O  O9  1  0.26743000  0.07679700  0.63788600  1
  O  O10  1  0.72689200  0.91564200  0.38656400  1
  O  O11  1  0.64257800  0.08442500  0.88655600  1
loop_
_geom_bond_atom_site_label_1
_geom_bond_atom_site_label_2
_geom_bond_distance
_geom_bond_site_symmetry_2
Li0 O10 1.910554 1_555
Li0 O5 1.977782 1_565
Li0 O3 1.998178 1_555
Li0 O8 2.041349 1_555
Li1 O11 1.910858 1_555
Li1 O4 1.977531 1_545
Li1 O2 1.997781 1_455
Li1 O9 2.041538 1_555
Li2 O6 1.943899 1_555
Li2 O9 1.978907 1_565
Li2 O0 1.979269 1_565
Li2 O10 2.079174 1_555
Li3 O7 1.943525 1_555
Li3 O1 1.979172 1_645
Li3 O8 1.979406 1_545
Li3 O11 2.079568 1_554
Fe0 O11 2.007840 1_565
Fe0 O4 2.062600 1_655
Fe0 O2 2.092629 1_555
Fe0 O6 2.258023 1_555
Fe0 O1 2.259333 1_656
Fe1 O10 2.008124 1_545
Fe1 O5 2.062240 1_655
Fe1 O3 2.092748 1_555
Fe1 O7 2.257947 1_555
Fe1 O0 2.259459 1_555
Fe2 O8 2.003577 1_645
Fe2 O1 2.048985 1_655
Fe2 O7 2.103918 1_555
Fe2 O2 2.222258 1_554
Fe2 O5 2.296437 1_655
Fe3 O9 2.003289 1_565
Fe3 O0 2.049867 1_555
Fe3 O6 2.103310 1_455
Fe3 O3 2.222191 1_555
Fe3 O4 2.296370 1_555
B0 O4 1.390871 1_555
B0 O11 1.392476 1_555
B0 O2 1.396823 1_555
B1 O5 1.390895 1_555
B1 O10 1.392458 1_455
B1 O3 1.396794 1_555
B2 O9 1.388707 1_655
B2 O0 1.393483 1_555
B2 O6 1.395446 1_555
B3 O8 1.388609 1_555
B3 O1 1.393625 1_555
B3 O7 1.395418 1_555
