# generated using pymatgen
data_Fe3O5F
_symmetry_space_group_name_H-M   'P 1'
_cell_length_a   4.63641640
_cell_length_b   4.63641640
_cell_length_c   9.03492600
_cell_angle_alpha   90.00000000
_cell_angle_beta   90.00000000
_cell_angle_gamma   92.60712893
_symmetry_Int_Tables_number   1
_chemical_formula_structural   Fe3O5F
_chemical_formula_sum   'Fe6 O10 F2'
_cell_volume   194.01696314
_cell_formula_units_Z   2
loop_
 _symmetry_equiv_pos_site_id
 _symmetry_equiv_pos_as_xyz
  1  'x, y, z'
loop_
 _atom_site_type_symbol
 _atom_site_label
 _atom_site_symmetry_multiplicity
 _atom_site_fract_x
 _atom_site_fract_y
 _atom_site_fract_z
 _atom_site_occupancy
  Fe  Fe0  1  0.98913700  0.01086300  0.66043200  1
  Fe  Fe1  1  0.98913700  0.01086300  0.33956800  1
  Fe  Fe2  1  0.98633300  0.01366700  0.00000000  1
  Fe  Fe3  1  0.49606800  0.50393200  0.50000000  1
  Fe  Fe4  1  0.51759800  0.48240200  0.83317100  1
  Fe  Fe5  1  0.51759800  0.48240200  0.16682900  1
  O  O0  1  0.79465700  0.20534300  0.50000000  1
  O  O1  1  0.81582500  0.18417500  0.17209300  1
  O  O2  1  0.81582500  0.18417500  0.82790700  1
  O  O3  1  0.30403100  0.30972200  0.66979900  1
  O  O4  1  0.30403100  0.30972200  0.33020100  1
  O  O5  1  0.31237400  0.30152400  0.00000000  1
  O  O6  1  0.69027800  0.69596900  0.66979900  1
  O  O7  1  0.69027800  0.69596900  0.33020100  1
  O  O8  1  0.69847600  0.68762600  0.00000000  1
  O  O9  1  0.18248700  0.81751300  0.50000000  1
  F  F0  1  0.19793300  0.80206700  0.83517100  1
  F  F1  1  0.19793300  0.80206700  0.16482900  1
loop_
_geom_bond_atom_site_label_1
_geom_bond_atom_site_label_2
_geom_bond_distance
_geom_bond_site_symmetry_2
Fe0 O2 1.907789 1_555
Fe0 O9 1.944578 1_645
Fe0 O0 1.949636 1_555
Fe0 O6 1.968412 1_545
Fe0 O3 1.968412 1_655
Fe1 O1 1.907789 1_555
Fe1 O9 1.944578 1_645
Fe1 O0 1.949636 1_555
Fe1 O7 1.968412 1_545
Fe1 O4 1.968412 1_655
Fe2 O1 1.929853 1_555
Fe2 O2 1.929853 1_554
Fe2 O8 1.970483 1_545
Fe2 O5 1.970483 1_655
Fe3 O3 1.970819 1_555
Fe3 O6 1.970819 1_555
Fe3 O4 1.970819 1_555
Fe3 O7 1.970819 1_555
Fe3 O0 2.001846 1_555
Fe3 O9 2.102357 1_555
Fe4 O6 1.930821 1_555
Fe4 O3 1.930821 1_555
Fe4 O8 1.951403 1_556
Fe4 O5 1.951403 1_556
Fe4 O2 1.999984 1_555
Fe5 O7 1.930821 1_555
Fe5 O4 1.930821 1_555
Fe5 O8 1.951403 1_555
Fe5 O5 1.951403 1_555
Fe5 O1 1.999984 1_555
F0 Fe2 2.056772 1_466
F0 Fe0 2.109981 1_465
F0 Fe4 2.143223 1_555
F1 Fe2 2.056772 1_465
F1 Fe1 2.109981 1_465
F1 Fe5 2.143223 1_555
