# generated using pymatgen
data_Zr11VO24
_symmetry_space_group_name_H-M   'P 1'
_cell_length_a   5.30115100
_cell_length_b   7.29651700
_cell_length_c   10.86537400
_cell_angle_alpha   90.00000000
_cell_angle_beta   90.00000000
_cell_angle_gamma   90.00000000
_symmetry_Int_Tables_number   1
_chemical_formula_structural   Zr11VO24
_chemical_formula_sum   'Zr11 V1 O24'
_cell_volume   420.27199692
_cell_formula_units_Z   1
loop_
 _symmetry_equiv_pos_site_id
 _symmetry_equiv_pos_as_xyz
  1  'x, y, z'
loop_
 _atom_site_type_symbol
 _atom_site_label
 _atom_site_symmetry_multiplicity
 _atom_site_fract_x
 _atom_site_fract_y
 _atom_site_fract_z
 _atom_site_occupancy
  Zr  Zr0  1  0.75454900  0.74552900  0.00000000  1
  Zr  Zr1  1  0.74701700  0.75312600  0.33317200  1
  Zr  Zr2  1  0.74701700  0.75312600  0.66682800  1
  Zr  Zr3  1  0.25469200  0.00000000  0.83561100  1
  Zr  Zr4  1  0.25469200  0.00000000  0.16438900  1
  Zr  Zr5  1  0.22890300  0.00000000  0.50000000  1
  Zr  Zr6  1  0.75454900  0.25447100  0.00000000  1
  Zr  Zr7  1  0.74701700  0.24687400  0.33317200  1
  Zr  Zr8  1  0.74701700  0.24687400  0.66682800  1
  Zr  Zr9  1  0.25278300  0.50000000  0.82775400  1
  Zr  Zr10  1  0.25278300  0.50000000  0.17224600  1
  V  V0  1  0.26741900  0.50000000  0.50000000  1
  O  O0  1  0.44987000  0.75467900  0.83329500  1
  O  O1  1  0.95058000  0.73593200  0.83145900  1
  O  O2  1  0.44987000  0.75467900  0.16670500  1
  O  O3  1  0.95058000  0.73593200  0.16854100  1
  O  O4  1  0.42348700  0.72813200  0.50000000  1
  O  O5  1  0.92564400  0.78421800  0.50000000  1
  O  O6  1  0.04636800  0.00000000  0.67522200  1
  O  O7  1  0.54046200  0.00000000  0.65413300  1
  O  O8  1  0.56269900  0.00000000  0.00000000  1
  O  O9  1  0.05173300  0.00000000  0.00000000  1
  O  O10  1  0.04636800  0.00000000  0.32477800  1
  O  O11  1  0.54046200  0.00000000  0.34586700  1
  O  O12  1  0.44987000  0.24532100  0.83329500  1
  O  O13  1  0.95058000  0.26406800  0.83145900  1
  O  O14  1  0.95058000  0.26406800  0.16854100  1
  O  O15  1  0.44987000  0.24532100  0.16670500  1
  O  O16  1  0.42348700  0.27186800  0.50000000  1
  O  O17  1  0.92564400  0.21578200  0.50000000  1
  O  O18  1  0.55372400  0.50000000  0.00000000  1
  O  O19  1  0.06301100  0.50000000  0.00000000  1
  O  O20  1  0.07298800  0.50000000  0.35197500  1
  O  O21  1  0.57034800  0.50000000  0.31995500  1
  O  O22  1  0.07298800  0.50000000  0.64802500  1
  O  O23  1  0.57034800  0.50000000  0.68004500  1
loop_
_geom_bond_atom_site_label_1
_geom_bond_atom_site_label_2
_geom_bond_distance
_geom_bond_site_symmetry_2
O0 Zr3 2.067663 1_565
O0 Zr9 2.132691 1_555
O0 Zr2 2.398529 1_555
O0 Zr0 2.427760 1_556
O1 Zr2 2.092835 1_555
O1 Zr0 2.106736 1_556
O1 Zr9 2.351935 1_655
O1 Zr3 2.512670 1_665
O2 Zr4 2.067663 1_565
O2 Zr10 2.132691 1_555
O2 Zr1 2.398529 1_555
O2 Zr0 2.427760 1_555
O3 Zr1 2.092835 1_555
O3 Zr0 2.106736 1_555
O3 Zr10 2.351935 1_655
O3 Zr4 2.512670 1_665
O4 V0 1.858839 1_555
O4 Zr5 2.235857 1_565
O4 Zr2 2.502091 1_555
O4 Zr1 2.502091 1_555
O5 Zr2 2.057629 1_555
O5 Zr1 2.057629 1_555
O5 Zr5 2.250192 1_665
O6 Zr3 2.063143 1_555
O6 Zr5 2.135648 1_555
O6 Zr8 2.402361 1_455
O6 Zr2 2.402361 1_445
O7 Zr8 2.112525 1_555
O7 Zr2 2.112525 1_545
O7 Zr5 2.352130 1_555
O7 Zr3 2.486574 1_555
O8 Zr0 2.117043 1_545
O8 Zr6 2.117043 1_555
O8 Zr3 2.419986 1_554
O8 Zr4 2.419986 1_555
O9 Zr4 2.085167 1_555
O9 Zr3 2.085167 1_554
O9 Zr6 2.435050 1_455
O9 Zr0 2.435050 1_445
O10 Zr4 2.063143 1_555
O10 Zr5 2.135648 1_555
O10 Zr7 2.402361 1_455
O10 Zr1 2.402361 1_445
O11 Zr7 2.112525 1_555
O11 Zr1 2.112525 1_545
O11 Zr5 2.352130 1_555
O11 Zr4 2.486574 1_555
O12 Zr3 2.067663 1_555
O12 Zr9 2.132691 1_555
O12 Zr8 2.398529 1_555
O12 Zr6 2.427760 1_556
O13 Zr8 2.092835 1_555
O13 Zr6 2.106736 1_556
O13 Zr9 2.351935 1_655
O13 Zr3 2.512670 1_655
O14 Zr7 2.092835 1_555
O14 Zr6 2.106736 1_555
O14 Zr10 2.351935 1_655
O14 Zr4 2.512670 1_655
O15 Zr4 2.067663 1_555
O15 Zr10 2.132691 1_555
O15 Zr7 2.398529 1_555
O15 Zr6 2.427760 1_555
O16 V0 1.858839 1_555
O16 Zr5 2.235857 1_555
O16 Zr8 2.502091 1_555
O16 Zr7 2.502091 1_555
O17 Zr7 2.057629 1_555
O17 Zr8 2.057629 1_555
O17 Zr5 2.250192 1_655
O18 Zr6 2.083957 1_555
O18 Zr0 2.083957 1_555
O18 Zr9 2.459200 1_554
O18 Zr10 2.459200 1_555
O19 Zr9 2.124767 1_554
O19 Zr10 2.124767 1_555
O19 Zr0 2.425569 1_455
O19 Zr6 2.425569 1_455
O20 V0 1.910272 1_555
O20 Zr10 2.173006 1_555
O20 Zr1 2.537514 1_455
O20 Zr7 2.537514 1_455
O21 Zr1 2.075796 1_555
O21 Zr7 2.075796 1_555
O21 Zr10 2.325894 1_555
O21 V0 2.530961 1_555
O22 V0 1.910272 1_555
O22 Zr9 2.173006 1_555
O22 Zr2 2.537514 1_455
O22 Zr8 2.537514 1_455
O23 Zr8 2.075796 1_555
O23 Zr2 2.075796 1_555
O23 Zr9 2.325894 1_555
O23 V0 2.530961 1_555
