# generated using pymatgen
data_LiMn(CO3)2
_symmetry_space_group_name_H-M   'P 1'
_cell_length_a   5.82249458
_cell_length_b   5.82249458
_cell_length_c   5.82249378
_cell_angle_alpha   47.86761055
_cell_angle_beta   47.86761055
_cell_angle_gamma   47.86760915
_symmetry_Int_Tables_number   1
_chemical_formula_structural   LiMn(CO3)2
_chemical_formula_sum   'Li1 Mn1 C2 O6'
_cell_volume   99.42401323
_cell_formula_units_Z   1
loop_
 _symmetry_equiv_pos_site_id
 _symmetry_equiv_pos_as_xyz
  1  'x, y, z'
loop_
 _atom_site_type_symbol
 _atom_site_label
 _atom_site_symmetry_multiplicity
 _atom_site_fract_x
 _atom_site_fract_y
 _atom_site_fract_z
 _atom_site_occupancy
  Li  Li0  1  0.00000000  0.00000000  0.00000000  1
  Mn  Mn0  1  0.50000000  0.50000000  0.50000000  1
  C  C0  1  0.75463400  0.75463400  0.75463400  1
  C  C1  1  0.24536600  0.24536600  0.24536600  1
  O  O0  1  0.96829500  0.25400200  0.51560500  1
  O  O1  1  0.48439500  0.03170500  0.74599800  1
  O  O2  1  0.74599800  0.48439500  0.03170500  1
  O  O3  1  0.25400200  0.51560500  0.96829500  1
  O  O4  1  0.51560500  0.96829500  0.25400200  1
  O  O5  1  0.03170500  0.74599800  0.48439500  1
loop_
_geom_bond_atom_site_label_1
_geom_bond_atom_site_label_2
_geom_bond_distance
_geom_bond_site_symmetry_2
Li0 O5 2.216246 1_545
Li0 O0 2.216246 1_454
Li0 O3 2.216246 1_544
Li0 O2 2.216246 1_455
Li0 O1 2.216246 1_554
Li0 O4 2.216246 1_445
Mn0 O2 2.100545 1_555
Mn0 O3 2.100545 1_555
Mn0 O5 2.100546 1_555
Mn0 O0 2.100546 1_555
Mn0 O4 2.100546 1_555
Mn0 O1 2.100546 1_555
C0 O5 1.293238 1_655
C0 O2 1.293238 1_556
C0 O1 1.293238 1_565
C1 O0 1.293238 1_455
C1 O3 1.293238 1_554
C1 O4 1.293238 1_545
