# generated using pymatgen
data_SrLa7TiGa7O24
_symmetry_space_group_name_H-M   'P 1'
_cell_length_a   5.53913852
_cell_length_b   5.53913852
_cell_length_c   36.67436060
_cell_angle_alpha   85.24897594
_cell_angle_beta   85.24897594
_cell_angle_gamma   60.62630115
_symmetry_Int_Tables_number   1
_chemical_formula_structural   SrLa7TiGa7O24
_chemical_formula_sum   'Sr2 La14 Ti2 Ga14 O48'
_cell_volume   976.05861663
_cell_formula_units_Z   2
loop_
 _symmetry_equiv_pos_site_id
 _symmetry_equiv_pos_as_xyz
  1  'x, y, z'
loop_
 _atom_site_type_symbol
 _atom_site_label
 _atom_site_symmetry_multiplicity
 _atom_site_fract_x
 _atom_site_fract_y
 _atom_site_fract_z
 _atom_site_occupancy
  Sr  Sr0  1  0.72035800  0.65630700  0.43658200  1
  Sr  Sr1  1  0.34369300  0.27964200  0.56341800  1
  La  La0  1  0.96816200  0.90693600  0.68744000  1
  La  La1  1  0.03194000  0.96806000  0.50000000  1
  La  La2  1  0.59369200  0.53131400  0.81250600  1
  La  La3  1  0.65628200  0.59263000  0.62591500  1
  La  La4  1  0.21875500  0.15625400  0.93747900  1
  La  La5  1  0.28103000  0.21896700  0.74992400  1
  La  La6  1  0.84374600  0.78124500  0.06252100  1
  La  La7  1  0.90625800  0.84375400  0.87497600  1
  La  La8  1  0.46868600  0.40630800  0.18749400  1
  La  La9  1  0.53124900  0.46875100  0.00000000  1
  La  La10  1  0.09306400  0.03183800  0.31256000  1
  La  La11  1  0.15624600  0.09374200  0.12502400  1
  La  La12  1  0.78103300  0.71897000  0.25007600  1
  La  La13  1  0.40737000  0.34371800  0.37408500  1
  Ti  Ti0  1  0.68812600  0.62543300  0.53247300  1
  Ti  Ti1  1  0.37456700  0.31187400  0.46752700  1
  Ga  Ga0  1  0.06075000  0.00254400  0.40557000  1
  Ga  Ga1  1  0.31495700  0.24861800  0.65567100  1
  Ga  Ga2  1  0.99745600  0.93925000  0.59443000  1
  Ga  Ga3  1  0.56250200  0.50000700  0.90623900  1
  Ga  Ga4  1  0.62514900  0.56225600  0.71882600  1
  Ga  Ga5  1  0.25000000  0.18750000  0.84374000  1
  Ga  Ga6  1  0.93761300  0.87492100  0.78124100  1
  Ga  Ga7  1  0.18749800  0.12500100  0.03125500  1
  Ga  Ga8  1  0.87499900  0.81250200  0.96874500  1
  Ga  Ga9  1  0.49999300  0.43749800  0.09376100  1
  Ga  Ga10  1  0.43774400  0.37485100  0.28117400  1
  Ga  Ga11  1  0.12507900  0.06238700  0.21875900  1
  Ga  Ga12  1  0.81250000  0.75000000  0.15626000  1
  Ga  Ga13  1  0.75138200  0.68504300  0.34432900  1
  O  O0  1  0.46856500  0.53143500  0.50000000  1
  O  O1  1  0.24459100  0.61536300  0.43056500  1
  O  O2  1  0.99885700  0.48802600  0.49347300  1
  O  O3  1  0.75554400  0.13395000  0.44633800  1
  O  O4  1  0.08839000  0.15842400  0.62544500  1
  O  O5  1  0.51197400  0.00114300  0.50652700  1
  O  O6  1  0.86605000  0.24445600  0.55366200  1
  O  O7  1  0.27159100  0.10440300  0.43861100  1
  O  O8  1  0.62421100  0.11294200  0.61803300  1
  O  O9  1  0.38463700  0.75540900  0.56943500  1
  O  O10  1  0.71560800  0.78433600  0.75000400  1
  O  O11  1  0.13306200  0.63410100  0.63297000  1
  O  O12  1  0.49299800  0.86471000  0.67936200  1
  O  O13  1  0.89559700  0.72840900  0.56138900  1
  O  O14  1  0.24028200  0.74341800  0.74184700  1
  O  O15  1  0.01001500  0.38186700  0.69544600  1
  O  O16  1  0.34073000  0.40927300  0.87500400  1
  O  O17  1  0.75677300  0.25961200  0.75819500  1
  O  O18  1  0.11829900  0.49027300  0.80430600  1
  O  O19  1  0.53353800  0.34195500  0.68747600  1
  O  O20  1  0.86528600  0.36832900  0.86681300  1
  O  O21  1  0.63471800  0.00668300  0.82068900  1
  O  O22  1  0.96572300  0.03427700  0.00000000  1
  O  O23  1  0.38168800  0.88469400  0.88319700  1
  O  O24  1  0.74331400  0.11529800  0.92931100  1
  O  O25  1  0.15925300  0.96576100  0.81250800  1
  O  O26  1  0.49029300  0.99332400  0.99180800  1
  O  O27  1  0.25968700  0.63169000  0.94569400  1
  O  O28  1  0.59072700  0.65927000  0.12499600  1
  O  O29  1  0.00667600  0.50970700  0.00819200  1
  O  O30  1  0.36831000  0.74031300  0.05430600  1
  O  O31  1  0.78427100  0.59073500  0.93750300  1
  O  O32  1  0.11530600  0.61831200  0.11680300  1
  O  O33  1  0.88470200  0.25668600  0.07068900  1
  O  O34  1  0.21566400  0.28439200  0.24999600  1
  O  O35  1  0.63167100  0.13471400  0.13318700  1
  O  O36  1  0.99331700  0.36528200  0.17931100  1
  O  O37  1  0.40926500  0.21572900  0.06249700  1
  O  O38  1  0.74038800  0.24322700  0.24180500  1
  O  O39  1  0.50972700  0.88170100  0.19569400  1
  O  O40  1  0.84157600  0.91161000  0.37455500  1
  O  O41  1  0.25658200  0.75971800  0.25815300  1
  O  O42  1  0.61813300  0.98998500  0.30455400  1
  O  O43  1  0.03423900  0.84074700  0.18749200  1
  O  O44  1  0.36589900  0.86693800  0.36703000  1
  O  O45  1  0.13529000  0.50700200  0.32063800  1
  O  O46  1  0.88705800  0.37578900  0.38196700  1
  O  O47  1  0.65804500  0.46646200  0.31252400  1
loop_
_geom_bond_atom_site_label_1
_geom_bond_atom_site_label_2
_geom_bond_distance
_geom_bond_site_symmetry_2
La0 O19 2.431302 1_565
La0 O14 2.435832 1_655
La0 O11 2.439779 1_655
La0 O4 2.772726 1_665
La0 O12 2.792076 1_655
La0 O15 2.792508 1_665
La0 O15 2.794151 1_655
La0 O12 2.795436 1_555
La0 O10 2.797325 1_555
La1 O6 2.425049 1_465
La1 O3 2.425049 1_465
La1 O0 2.441385 1_555
La1 O7 2.758274 1_565
La1 O13 2.758274 1_455
La1 O5 2.784194 1_565
La1 O2 2.784194 1_455
La1 O2 2.785949 1_465
La1 O5 2.785949 1_465
La2 O25 2.429185 1_555
La2 O20 2.431282 1_555
La2 O17 2.431707 1_555
La2 O21 2.793620 1_565
La2 O18 2.793692 1_655
La2 O21 2.793842 1_555
La2 O18 2.793918 1_555
La2 O16 2.795435 1_555
La2 O10 2.795439 1_555
La3 O12 2.406232 1_555
La3 O4 2.422083 1_655
La3 O9 2.498717 1_555
La3 O19 2.764065 1_555
La3 O11 2.784192 1_555
La3 O8 2.788165 1_555
La3 O8 2.791010 1_565
La3 O11 2.795087 1_655
La3 O13 2.843681 1_555
La4 O31 2.429406 1_455
La4 O23 2.430417 1_545
La4 O26 2.431803 1_545
La4 O24 2.793594 1_555
La4 O24 2.793696 1_455
La4 O27 2.793726 1_545
La4 O27 2.793926 1_555
La4 O16 2.794816 1_555
La4 O22 2.796140 1_456
La5 O10 2.430089 1_545
La5 O18 2.432788 1_555
La5 O15 2.434937 1_555
La5 O17 2.792767 1_455
La5 O14 2.793014 1_545
La5 O14 2.793394 1_555
La5 O19 2.794863 1_555
La5 O17 2.795131 1_555
La5 O25 2.797960 1_545
La6 O37 2.429406 1_565
La6 O32 2.430417 1_655
La6 O29 2.431803 1_655
La6 O33 2.793594 1_555
La6 O33 2.793696 1_565
La6 O30 2.793726 1_655
La6 O30 2.793926 1_555
La6 O28 2.794816 1_555
La6 O22 2.796140 1_565
La7 O16 2.429372 1_655
La7 O21 2.430515 1_565
La7 O24 2.432005 1_565
La7 O20 2.793622 1_555
La7 O20 2.793639 1_565
La7 O23 2.793746 1_555
La7 O23 2.793960 1_655
La7 O25 2.794622 1_655
La7 O31 2.796290 1_555
La8 O43 2.429185 1_555
La8 O35 2.431282 1_555
La8 O38 2.431707 1_555
La8 O36 2.793620 1_455
La8 O39 2.793692 1_545
La8 O36 2.793842 1_555
La8 O39 2.793918 1_555
La8 O28 2.795435 1_555
La8 O34 2.795439 1_555
La9 O22 2.429358 1_555
La9 O30 2.431162 1_555
La9 O27 2.431162 1_554
La9 O29 2.793695 1_555
La9 O26 2.793695 1_554
La9 O29 2.793788 1_655
La9 O26 2.793788 1_544
La9 O31 2.795458 1_554
La9 O37 2.795458 1_555
La10 O47 2.431302 1_455
La10 O41 2.435832 1_545
La10 O44 2.439779 1_545
La10 O40 2.772726 1_445
La10 O45 2.792076 1_545
La10 O42 2.792508 1_445
La10 O42 2.794151 1_545
La10 O45 2.795436 1_555
La10 O34 2.797325 1_555
La11 O28 2.429372 1_545
La11 O36 2.430515 1_455
La11 O33 2.432005 1_455
La11 O35 2.793622 1_555
La11 O35 2.793639 1_455
La11 O32 2.793746 1_555
La11 O32 2.793960 1_545
La11 O43 2.794622 1_545
La11 O37 2.796290 1_555
La12 O34 2.430089 1_655
La12 O39 2.432788 1_555
La12 O42 2.434937 1_555
La12 O38 2.792767 1_565
La12 O41 2.793014 1_655
La12 O41 2.793394 1_555
La12 O47 2.794863 1_555
La12 O38 2.795131 1_555
La12 O43 2.797960 1_655
La13 O45 2.406232 1_555
La13 O40 2.422083 1_545
La13 O1 2.498717 1_555
La13 O47 2.764065 1_555
La13 O44 2.784192 1_555
La13 O46 2.788165 1_555
La13 O46 2.791010 1_455
La13 O44 2.795087 1_545
La13 O7 2.843681 1_555
Ga0 O46 1.959463 1_455
Ga0 O40 1.986188 1_445
Ga0 O44 1.988363 1_545
Ga0 O7 2.035860 1_555
Ga0 O1 2.040416 1_545
Ga0 O3 2.043944 1_455
Ga1 O8 1.980345 1_555
Ga1 O4 1.997667 1_555
Ga1 O11 2.000381 1_555
Ga1 O12 2.007016 1_545
Ga1 O19 2.010394 1_555
Ga1 O15 2.018146 1_555
Ga2 O8 1.959463 1_565
Ga2 O4 1.986188 1_665
Ga2 O11 1.988363 1_655
Ga2 O13 2.035860 1_555
Ga2 O9 2.040416 1_655
Ga2 O6 2.043944 1_565
Ga3 O23 2.001495 1_555
Ga3 O16 2.001997 1_555
Ga3 O24 2.002004 1_555
Ga3 O20 2.002123 1_555
Ga3 O31 2.002649 1_555
Ga3 O27 2.002952 1_555
Ga4 O17 2.000227 1_555
Ga4 O10 2.001077 1_555
Ga4 O19 2.001251 1_555
Ga4 O14 2.002014 1_555
Ga4 O12 2.002018 1_555
Ga4 O15 2.006927 1_655
Ga5 O21 2.001754 1_555
Ga5 O25 2.001826 1_545
Ga5 O20 2.002040 1_455
Ga5 O18 2.002288 1_555
Ga5 O16 2.002673 1_555
Ga5 O23 2.002973 1_545
Ga6 O14 2.000927 1_655
Ga6 O17 2.001569 1_565
Ga6 O18 2.001633 1_655
Ga6 O25 2.002531 1_655
Ga6 O10 2.002561 1_555
Ga6 O21 2.003048 1_565
Ga7 O30 2.001623 1_545
Ga7 O29 2.001867 1_555
Ga7 O37 2.002120 1_555
Ga7 O33 2.002363 1_455
Ga7 O22 2.002449 1_455
Ga7 O26 2.002685 1_544
Ga8 O27 2.001623 1_655
Ga8 O26 2.001867 1_555
Ga8 O31 2.002120 1_555
Ga8 O24 2.002363 1_565
Ga8 O22 2.002449 1_566
Ga8 O29 2.002685 1_656
Ga9 O32 2.001495 1_555
Ga9 O28 2.001997 1_555
Ga9 O33 2.002004 1_555
Ga9 O35 2.002123 1_555
Ga9 O37 2.002649 1_555
Ga9 O30 2.002952 1_555
Ga10 O38 2.000227 1_555
Ga10 O34 2.001077 1_555
Ga10 O47 2.001251 1_555
Ga10 O41 2.002014 1_555
Ga10 O45 2.002018 1_555
Ga10 O42 2.006927 1_545
Ga11 O41 2.000927 1_545
Ga11 O38 2.001569 1_455
Ga11 O39 2.001633 1_545
Ga11 O43 2.002531 1_545
Ga11 O34 2.002561 1_555
Ga11 O36 2.003048 1_455
Ga12 O36 2.001754 1_555
Ga12 O43 2.001826 1_655
Ga12 O35 2.002040 1_565
Ga12 O39 2.002288 1_555
Ga12 O28 2.002673 1_555
Ga12 O32 2.002973 1_655
Ga13 O46 1.980345 1_555
Ga13 O40 1.997667 1_555
Ga13 O44 2.000381 1_555
Ga13 O45 2.007016 1_655
Ga13 O47 2.010394 1_555
Ga13 O42 2.018146 1_555
O0 Ti0 2.032815 1_555
O0 Ti1 2.032815 1_555
O0 Sr1 2.824113 1_555
O0 Sr0 2.824113 1_555
O1 Ti1 1.943897 1_555
O1 Sr0 2.781384 1_555
O1 Sr0 2.790747 1_455
O2 Ti1 2.005554 1_655
O2 Ti0 2.018642 1_555
O2 Sr0 2.530262 1_555
O2 Sr1 3.117574 1_655
O3 Ti1 1.960461 1_555
O3 Sr0 2.797259 1_555
O3 Sr0 2.800021 1_545
O4 Sr1 2.787649 1_555
O5 Ti0 2.005554 1_545
O5 Ti1 2.018642 1_555
O5 Sr1 2.530262 1_555
O5 Sr0 3.117574 1_545
O6 Ti0 1.960461 1_555
O6 Sr1 2.797259 1_555
O6 Sr1 2.800021 1_655
O7 Ti1 1.927638 1_555
O7 Sr0 2.508498 1_545
O7 Sr0 3.084983 1_455
O8 Sr1 2.465879 1_555
O9 Ti0 1.943897 1_555
O9 Sr1 2.781384 1_555
O9 Sr1 2.790747 1_565
O11 Sr1 3.132414 1_555
O13 Ti0 1.927638 1_555
O13 Sr1 2.508498 1_655
O13 Sr1 3.084983 1_565
O40 Sr0 2.787649 1_555
O44 Sr0 3.132414 1_555
O46 Sr0 2.465879 1_555
