# generated using pymatgen
data_BaFeO3
_symmetry_space_group_name_H-M   'P 1'
_cell_length_a   13.05038073
_cell_length_b   13.05038073
_cell_length_c   13.05038115
_cell_angle_alpha   27.40377678
_cell_angle_beta   27.40377678
_cell_angle_gamma   27.40377804
_symmetry_Int_Tables_number   1
_chemical_formula_structural   BaFeO3
_chemical_formula_sum   'Ba4 Fe4 O12'
_cell_volume   415.52427401
_cell_formula_units_Z   4
loop_
 _symmetry_equiv_pos_site_id
 _symmetry_equiv_pos_as_xyz
  1  'x, y, z'
loop_
 _atom_site_type_symbol
 _atom_site_label
 _atom_site_symmetry_multiplicity
 _atom_site_fract_x
 _atom_site_fract_y
 _atom_site_fract_z
 _atom_site_occupancy
  Ba  Ba0  1  0.97151600  0.97151600  0.97151600  1
  Ba  Ba1  1  0.56366200  0.56366200  0.56366200  1
  Ba  Ba2  1  0.38816800  0.38816800  0.38816800  1
  Ba  Ba3  1  0.20069800  0.20069800  0.20069800  1
  Fe  Fe0  1  0.83765100  0.83765100  0.83765100  1
  Fe  Fe1  1  0.76634000  0.76634000  0.76634000  1
  Fe  Fe2  1  0.67131000  0.67131000  0.67131000  1
  Fe  Fe3  1  0.29324900  0.29324900  0.29324900  1
  O  O0  1  0.49471600  0.49471600  0.00851000  1
  O  O1  1  0.49471600  0.00851000  0.49471600  1
  O  O2  1  0.40041600  0.40041600  0.98883200  1
  O  O3  1  0.40041600  0.98883200  0.40041600  1
  O  O4  1  0.98883200  0.40041600  0.40041600  1
  O  O5  1  0.15449300  0.70119800  0.70119800  1
  O  O6  1  0.70119800  0.15449300  0.70119800  1
  O  O7  1  0.70119800  0.70119800  0.15449300  1
  O  O8  1  0.61220300  0.07180400  0.61220300  1
  O  O9  1  0.07180400  0.61220300  0.61220300  1
  O  O10  1  0.61220300  0.61220300  0.07180400  1
  O  O11  1  0.00851000  0.49471600  0.49471600  1
loop_
_geom_bond_atom_site_label_1
_geom_bond_atom_site_label_2
_geom_bond_distance
_geom_bond_site_symmetry_2
Ba0 O11 3.264056 1_665
Ba0 O1 3.264056 1_665
Ba0 O1 3.264057 1_566
Ba0 O11 3.264057 1_656
Ba0 O0 3.264057 1_566
Ba0 O0 3.264057 1_656
Ba0 O4 3.480357 1_556
Ba0 O3 3.480357 1_556
Ba0 O2 3.480358 1_565
Ba0 O2 3.480358 1_655
Ba0 O4 3.480358 1_565
Ba0 O3 3.480358 1_655
Ba1 O3 2.438383 1_555
Ba1 O4 2.438383 1_555
Ba1 O2 2.438383 1_555
Ba1 O5 2.577126 1_555
Ba1 O6 2.577126 1_555
Ba1 O7 2.577127 1_555
Ba2 O10 2.540491 1_555
Ba2 O9 2.540491 1_555
Ba2 O8 2.540491 1_555
Ba2 O1 2.717246 1_555
Ba2 O11 2.717246 1_555
Ba2 O0 2.717246 1_555
Ba3 O2 2.775267 1_554
Ba3 O4 2.775268 1_455
Ba3 O3 2.775268 1_545
Ba3 O6 3.147315 1_455
Ba3 O5 3.147315 1_545
Ba3 O5 3.147315 1_554
Ba3 O6 3.147315 1_554
Ba3 O7 3.147315 1_545
Ba3 O7 3.147315 1_455
Fe0 O5 1.709433 1_655
Fe0 O6 1.709433 1_565
Fe0 O7 1.709433 1_556
Fe1 O10 1.640908 1_556
Fe1 O9 1.640908 1_655
Fe1 O8 1.640908 1_565
Fe2 O0 1.844917 1_556
Fe2 O11 1.844917 1_655
Fe2 O1 1.844917 1_565
Fe3 O3 1.853925 1_545
Fe3 O4 1.853925 1_455
Fe3 O2 1.853925 1_554
Fe3 O0 2.283248 1_555
Fe3 O1 2.283248 1_555
Fe3 O11 2.283248 1_555
