# generated using pymatgen
data_Li3Ti4O8
_symmetry_space_group_name_H-M   'P 1'
_cell_length_a   5.85040026
_cell_length_b   5.85040026
_cell_length_c   5.82602306
_cell_angle_alpha   60.83786627
_cell_angle_beta   60.83786627
_cell_angle_gamma   91.42241128
_symmetry_Int_Tables_number   1
_chemical_formula_structural   Li3Ti4O8
_chemical_formula_sum   'Li3 Ti4 O8'
_cell_volume   142.78345727
_cell_formula_units_Z   1
loop_
 _symmetry_equiv_pos_site_id
 _symmetry_equiv_pos_as_xyz
  1  'x, y, z'
loop_
 _atom_site_type_symbol
 _atom_site_label
 _atom_site_symmetry_multiplicity
 _atom_site_fract_x
 _atom_site_fract_y
 _atom_site_fract_z
 _atom_site_occupancy
  Li  Li0  1  0.00000000  0.00000000  0.50000000  1
  Li  Li1  1  0.50000000  0.00000000  0.50000000  1
  Li  Li2  1  0.00000000  0.50000000  0.50000000  1
  Ti  Ti0  1  0.50000000  0.50000000  0.50000000  1
  Ti  Ti1  1  0.00000000  0.50000000  0.00000000  1
  Ti  Ti2  1  0.00000000  0.00000000  0.00000000  1
  Ti  Ti3  1  0.50000000  0.00000000  0.00000000  1
  O  O0  1  0.74936400  0.25063600  0.50000000  1
  O  O1  1  0.24958300  0.24958300  0.00029800  1
  O  O2  1  0.24354100  0.75645900  0.00000000  1
  O  O3  1  0.75555000  0.75555000  0.46236100  1
  O  O4  1  0.24445000  0.24445000  0.53763900  1
  O  O5  1  0.75645900  0.24354100  0.00000000  1
  O  O6  1  0.75041700  0.75041700  0.99970200  1
  O  O7  1  0.25063600  0.74936400  0.50000000  1
loop_
_geom_bond_atom_site_label_1
_geom_bond_atom_site_label_2
_geom_bond_distance
_geom_bond_site_symmetry_2
Li0 O6 2.085233 1_445
Li0 O1 2.085233 1_555
Li0 O0 2.099271 1_455
Li0 O7 2.099271 1_545
Li0 O3 2.156004 1_445
Li0 O4 2.156004 1_555
Li1 O7 2.042602 1_545
Li1 O0 2.042602 1_555
Li1 O5 2.087187 1_555
Li1 O2 2.087187 1_546
Li1 O4 2.102586 1_555
Li1 O3 2.102586 1_545
Li2 O0 2.042602 1_455
Li2 O7 2.042602 1_555
Li2 O2 2.087187 1_555
Li2 O5 2.087187 1_456
Li2 O4 2.102586 1_555
Li2 O3 2.102586 1_455
O0 Ti3 2.086492 1_556
O0 Ti1 2.086492 1_655
O0 Ti0 2.088617 1_555
O1 Ti2 2.040400 1_555
O1 Ti0 2.087740 1_554
O1 Ti3 2.093946 1_555
O1 Ti1 2.093946 1_555
O2 Ti2 2.039845 1_565
O2 Ti1 2.043311 1_555
O2 Ti3 2.043311 1_565
O3 Ti2 1.932970 1_665
O3 Ti0 1.941279 1_555
O4 Ti2 1.932970 1_556
O4 Ti0 1.941279 1_555
O5 Ti2 2.039845 1_655
O5 Ti3 2.043311 1_555
O5 Ti1 2.043311 1_655
O6 Ti2 2.040400 1_666
O6 Ti0 2.087740 1_556
O6 Ti3 2.093946 1_566
O6 Ti1 2.093946 1_656
O7 Ti1 2.086492 1_556
O7 Ti3 2.086492 1_565
O7 Ti0 2.088617 1_555
