# generated using pymatgen
data_Li2V3O8
_symmetry_space_group_name_H-M   'P 1'
_cell_length_a   8.31496900
_cell_length_b   8.36822300
_cell_length_c   8.38498700
_cell_angle_alpha   90.00000000
_cell_angle_beta   90.00000000
_cell_angle_gamma   90.00000000
_symmetry_Int_Tables_number   1
_chemical_formula_structural   Li2V3O8
_chemical_formula_sum   'Li8 V12 O32'
_cell_volume   583.44009729
_cell_formula_units_Z   4
loop_
 _symmetry_equiv_pos_site_id
 _symmetry_equiv_pos_as_xyz
  1  'x, y, z'
loop_
 _atom_site_type_symbol
 _atom_site_label
 _atom_site_symmetry_multiplicity
 _atom_site_fract_x
 _atom_site_fract_y
 _atom_site_fract_z
 _atom_site_occupancy
  Li  Li0  1  0.74999800  0.74985500  0.75379400  1
  Li  Li1  1  0.75000200  0.25014500  0.25379400  1
  Li  Li2  1  0.49755300  0.50091800  0.49574500  1
  Li  Li3  1  0.50244700  0.00091800  0.00425500  1
  Li  Li4  1  0.25000200  0.24985500  0.74620600  1
  Li  Li5  1  0.24999800  0.75014500  0.24620600  1
  Li  Li6  1  0.99755300  0.99908200  0.50425500  1
  Li  Li7  1  0.00244700  0.49908200  0.99574500  1
  V  V0  1  0.62423300  0.12320100  0.61698800  1
  V  V1  1  0.63542900  0.61111100  0.12500900  1
  V  V2  1  0.64424700  0.86726700  0.38364000  1
  V  V3  1  0.36457100  0.11111100  0.37499100  1
  V  V4  1  0.35575300  0.36726700  0.11636000  1
  V  V5  1  0.37576700  0.62320100  0.88301200  1
  V  V6  1  0.14424700  0.63273300  0.61636000  1
  V  V7  1  0.12423300  0.37679900  0.38301200  1
  V  V8  1  0.13542900  0.88888900  0.87499100  1
  V  V9  1  0.86457100  0.38888900  0.62500900  1
  V  V10  1  0.87576700  0.87679900  0.11698800  1
  V  V11  1  0.85575300  0.13273300  0.88364000  1
  O  O0  1  0.60720700  0.65621500  0.35153600  1
  O  O1  1  0.65526200  0.36569400  0.61332600  1
  O  O2  1  0.61681700  0.10750000  0.38374500  1
  O  O3  1  0.59512700  0.64070100  0.89954400  1
  O  O4  1  0.63455000  0.88583500  0.59406300  1
  O  O5  1  0.60805000  0.40608300  0.14200000  1
  O  O6  1  0.64641300  0.11624800  0.85435500  1
  O  O7  1  0.64215300  0.86381700  0.13609400  1
  O  O8  1  0.35358700  0.61624800  0.64564500  1
  O  O9  1  0.35784700  0.36381700  0.36390600  1
  O  O10  1  0.40487300  0.14070100  0.60045600  1
  O  O11  1  0.39195000  0.90608300  0.35800000  1
  O  O12  1  0.38318300  0.60750000  0.11625500  1
  O  O13  1  0.36545000  0.38583500  0.90593700  1
  O  O14  1  0.39279300  0.15621500  0.14846400  1
  O  O15  1  0.34473800  0.86569400  0.88667400  1
  O  O16  1  0.11681700  0.39250000  0.61625500  1
  O  O17  1  0.13455000  0.61416500  0.40593700  1
  O  O18  1  0.15526200  0.13430600  0.38667400  1
  O  O19  1  0.14641300  0.38375200  0.14564500  1
  O  O20  1  0.10720700  0.84378500  0.64846400  1
  O  O21  1  0.09512700  0.85929900  0.10045600  1
  O  O22  1  0.14215300  0.63618300  0.86390600  1
  O  O23  1  0.10805000  0.09391700  0.85800000  1
  O  O24  1  0.89195000  0.59391700  0.64200000  1
  O  O25  1  0.85784700  0.13618300  0.63609400  1
  O  O26  1  0.90487300  0.35929900  0.39954400  1
  O  O27  1  0.84473800  0.63430600  0.11332600  1
  O  O28  1  0.86545000  0.11416500  0.09406300  1
  O  O29  1  0.85358700  0.88375200  0.35435500  1
  O  O30  1  0.89279300  0.34378500  0.85153600  1
  O  O31  1  0.88318300  0.89250000  0.88374500  1
loop_
_geom_bond_atom_site_label_1
_geom_bond_atom_site_label_2
_geom_bond_distance
_geom_bond_site_symmetry_2
Li0 O31 1.959233 1_555
Li0 O24 1.993665 1_555
Li0 O3 1.996546 1_555
Li0 O4 2.002543 1_555
Li1 O2 1.959233 1_555
Li1 O5 1.993665 1_555
Li1 O26 1.996546 1_555
Li1 O28 2.002543 1_555
Li2 O9 1.971743 1_555
Li2 O8 1.986010 1_555
Li2 O1 1.993023 1_555
Li2 O0 1.995576 1_555
Li3 O7 1.971743 1_545
Li3 O6 1.986010 1_554
Li3 O15 1.993023 1_544
Li3 O14 1.995576 1_555
Li4 O16 1.959233 1_555
Li4 O23 1.993665 1_555
Li4 O10 1.996546 1_555
Li4 O13 2.002543 1_555
Li5 O12 1.959233 1_555
Li5 O11 1.993665 1_555
Li5 O21 1.996546 1_555
Li5 O17 2.002543 1_555
Li6 O25 1.971743 1_565
Li6 O29 1.986010 1_555
Li6 O18 1.993023 1_665
Li6 O20 1.995576 1_655
Li7 O22 1.971743 1_555
Li7 O19 1.986010 1_556
Li7 O27 1.993023 1_456
Li7 O30 1.995576 1_455
O0 V2 1.812880 1_555
O0 V1 1.950730 1_555
O1 V9 1.753926 1_555
O1 V0 2.045802 1_555
O2 V0 1.961118 1_555
O2 V2 2.023220 1_545
O2 V3 2.098919 1_555
O3 V5 1.835084 1_555
O3 V1 1.935893 1_556
O4 V2 1.773057 1_555
O4 V0 1.997454 1_565
O5 V1 1.736612 1_555
O5 V4 2.133699 1_555
O6 V11 1.763295 1_555
O6 V0 1.999692 1_555
O7 V10 1.952113 1_555
O7 V2 2.075944 1_555
O7 V1 2.117480 1_555
O8 V6 1.763295 1_555
O8 V5 1.999692 1_555
O9 V7 1.952113 1_555
O9 V4 2.075944 1_555
O9 V3 2.117480 1_555
O10 V0 1.835084 1_555
O10 V3 1.935893 1_555
O11 V3 1.736612 1_565
O11 V2 2.133699 1_555
O12 V5 1.961118 1_554
O12 V4 2.023220 1_555
O12 V1 2.098919 1_555
O13 V4 1.773057 1_556
O13 V5 1.997454 1_555
O14 V4 1.812880 1_555
O14 V3 1.950730 1_555
O15 V8 1.753926 1_555
O15 V5 2.045802 1_555
O16 V7 1.961118 1_555
O16 V6 2.023220 1_555
O16 V9 2.098919 1_455
O17 V6 1.773057 1_555
O17 V7 1.997454 1_555
O18 V3 1.753926 1_555
O18 V7 2.045802 1_555
O19 V4 1.763295 1_555
O19 V7 1.999692 1_555
O20 V6 1.812880 1_555
O20 V8 1.950730 1_555
O21 V10 1.835084 1_455
O21 V8 1.935893 1_554
O22 V5 1.952113 1_555
O22 V6 2.075944 1_555
O22 V8 2.117480 1_555
O23 V8 1.736612 1_545
O23 V11 2.133699 1_455
O24 V9 1.736612 1_555
O24 V6 2.133699 1_655
O25 V0 1.952113 1_555
O25 V11 2.075944 1_555
O25 V9 2.117480 1_555
O26 V7 1.835084 1_655
O26 V9 1.935893 1_555
O27 V1 1.753926 1_555
O27 V10 2.045802 1_555
O28 V11 1.773057 1_554
O28 V10 1.997454 1_545
O29 V2 1.763295 1_555
O29 V10 1.999692 1_555
O30 V11 1.812880 1_555
O30 V9 1.950730 1_555
O31 V10 1.961118 1_556
O31 V11 2.023220 1_565
O31 V8 2.098919 1_655
