# generated using pymatgen
data_K4Co2O5
_symmetry_space_group_name_H-M   'P 1'
_cell_length_a   7.10233900
_cell_length_b   7.10233900
_cell_length_c   10.40151400
_cell_angle_alpha   90.00000000
_cell_angle_beta   90.00000000
_cell_angle_gamma   90.00000000
_symmetry_Int_Tables_number   1
_chemical_formula_structural   K4Co2O5
_chemical_formula_sum   'K8 Co4 O10'
_cell_volume   524.68585145
_cell_formula_units_Z   2
loop_
 _symmetry_equiv_pos_site_id
 _symmetry_equiv_pos_as_xyz
  1  'x, y, z'
loop_
 _atom_site_type_symbol
 _atom_site_label
 _atom_site_symmetry_multiplicity
 _atom_site_fract_x
 _atom_site_fract_y
 _atom_site_fract_z
 _atom_site_occupancy
  K  K0  1  0.50000000  0.50000000  0.26830000  1
  K  K1  1  0.50000000  0.00000000  0.25000000  1
  K  K2  1  0.50000000  0.50000000  0.73170000  1
  K  K3  1  0.50000000  0.00000000  0.75000000  1
  K  K4  1  0.00000000  0.00000000  0.23170000  1
  K  K5  1  0.00000000  0.00000000  0.76830000  1
  K  K6  1  0.00000000  0.50000000  0.25000000  1
  K  K7  1  0.00000000  0.50000000  0.75000000  1
  Co  Co0  1  0.67581800  0.32418200  0.00000000  1
  Co  Co1  1  0.82418200  0.82418200  0.50000000  1
  Co  Co2  1  0.17581800  0.17581800  0.50000000  1
  Co  Co3  1  0.32418200  0.67581800  0.00000000  1
  O  O0  1  0.50000000  0.50000000  0.00000000  1
  O  O1  1  0.75809400  0.75809400  0.34443100  1
  O  O2  1  0.75809400  0.75809400  0.65556900  1
  O  O3  1  0.74190600  0.25809400  0.84443100  1
  O  O4  1  0.74190600  0.25809400  0.15556900  1
  O  O5  1  0.00000000  0.00000000  0.50000000  1
  O  O6  1  0.25809400  0.74190600  0.15556900  1
  O  O7  1  0.25809400  0.74190600  0.84443100  1
  O  O8  1  0.24190600  0.24190600  0.65556900  1
  O  O9  1  0.24190600  0.24190600  0.34443100  1
loop_
_geom_bond_atom_site_label_1
_geom_bond_atom_site_label_2
_geom_bond_distance
_geom_bond_site_symmetry_2
K0 O4 2.697898 1_555
K0 O6 2.697898 1_555
K0 O9 2.710603 1_555
K0 O1 2.710603 1_555
K0 O0 2.790726 1_555
K1 O4 2.697550 1_555
K1 O1 2.697550 1_545
K1 O9 2.697550 1_555
K1 O6 2.697550 1_545
K2 O3 2.697898 1_555
K2 O7 2.697898 1_555
K2 O8 2.710603 1_555
K2 O2 2.710603 1_555
K2 O0 2.790726 1_556
K3 O3 2.697550 1_555
K3 O2 2.697550 1_545
K3 O7 2.697550 1_545
K3 O8 2.697550 1_555
K4 O1 2.697898 1_445
K4 O9 2.697898 1_555
K4 O4 2.710603 1_455
K4 O6 2.710603 1_545
K4 O5 2.790726 1_555
K5 O2 2.697898 1_445
K5 O8 2.697898 1_555
K5 O3 2.710603 1_455
K5 O7 2.710603 1_545
K5 O5 2.790726 1_555
K6 O6 2.697550 1_555
K6 O9 2.697550 1_555
K6 O1 2.697550 1_455
K6 O4 2.697550 1_455
K7 O7 2.697550 1_555
K7 O2 2.697550 1_455
K7 O3 2.697550 1_455
K7 O8 2.697550 1_555
Co0 O3 1.749015 1_554
Co0 O4 1.749015 1_555
Co0 O0 1.765955 1_555
Co1 O2 1.749015 1_555
Co1 O1 1.749015 1_555
Co1 O5 1.765955 1_665
Co2 O8 1.749015 1_555
Co2 O9 1.749015 1_555
Co2 O5 1.765955 1_555
Co3 O7 1.749015 1_554
Co3 O6 1.749015 1_555
Co3 O0 1.765955 1_555
