# generated using pymatgen
data_In2WO6
_symmetry_space_group_name_H-M   'P 1'
_cell_length_a   5.00392700
_cell_length_b   9.09453300
_cell_length_c   10.28417200
_cell_angle_alpha   90.00000000
_cell_angle_beta   90.00000000
_cell_angle_gamma   90.00000000
_symmetry_Int_Tables_number   1
_chemical_formula_structural   In2WO6
_chemical_formula_sum   'In8 W4 O24'
_cell_volume   468.01599945
_cell_formula_units_Z   4
loop_
 _symmetry_equiv_pos_site_id
 _symmetry_equiv_pos_as_xyz
  1  'x, y, z'
loop_
 _atom_site_type_symbol
 _atom_site_label
 _atom_site_symmetry_multiplicity
 _atom_site_fract_x
 _atom_site_fract_y
 _atom_site_fract_z
 _atom_site_occupancy
  In  In0  1  0.98542500  0.36845800  0.07125600  1
  In  In1  1  0.00630400  0.30913800  0.64707400  1
  In  In2  1  0.49369600  0.69086200  0.14707400  1
  In  In3  1  0.51457500  0.63154200  0.57125600  1
  In  In4  1  0.48542500  0.13154200  0.92874400  1
  In  In5  1  0.50630400  0.19086200  0.35292600  1
  In  In6  1  0.99369600  0.80913800  0.85292600  1
  In  In7  1  0.01457500  0.86845800  0.42874400  1
  W  W0  1  0.01405100  0.99448200  0.13787100  1
  W  W1  1  0.48594900  0.00551800  0.63787100  1
  W  W2  1  0.51405100  0.50551800  0.86212900  1
  W  W3  1  0.98594900  0.49448200  0.36212900  1
  O  O0  1  0.18565900  0.65627700  0.44898600  1
  O  O1  1  0.19861300  0.51519700  0.20678900  1
  O  O2  1  0.23209900  0.84978100  0.67617100  1
  O  O3  1  0.22240400  0.84940700  0.23039900  1
  O  O4  1  0.22441900  0.35123700  0.44274800  1
  O  O5  1  0.28271700  0.03919500  0.47489900  1
  O  O6  1  0.21728300  0.96080500  0.97489900  1
  O  O7  1  0.27558100  0.64876300  0.94274800  1
  O  O8  1  0.27759600  0.15059300  0.73039900  1
  O  O9  1  0.26790100  0.15021900  0.17617100  1
  O  O10  1  0.30138700  0.48480300  0.70678900  1
  O  O11  1  0.31434100  0.34372300  0.94898600  1
  O  O12  1  0.68565900  0.84372300  0.55101400  1
  O  O13  1  0.69861300  0.98480300  0.79321100  1
  O  O14  1  0.73209900  0.65021900  0.32382900  1
  O  O15  1  0.72240400  0.65059300  0.76960100  1
  O  O16  1  0.72441900  0.14876300  0.55725200  1
  O  O17  1  0.78271700  0.46080500  0.52510100  1
  O  O18  1  0.71728300  0.53919500  0.02510100  1
  O  O19  1  0.77558100  0.85123700  0.05725200  1
  O  O20  1  0.77759600  0.34940700  0.26960100  1
  O  O21  1  0.76790100  0.34978100  0.82382900  1
  O  O22  1  0.80138700  0.01519700  0.29321100  1
  O  O23  1  0.81434100  0.15627700  0.05101400  1
loop_
_geom_bond_atom_site_label_1
_geom_bond_atom_site_label_2
_geom_bond_distance
_geom_bond_site_symmetry_2
In0 O11 2.083427 1_654
In0 O18 2.106357 1_555
In0 O23 2.121302 1_555
In0 O1 2.204942 1_655
In0 O20 2.296166 1_555
In1 O8 2.157836 1_555
In1 O17 2.174355 1_455
In1 O21 2.205466 1_455
In1 O16 2.229402 1_455
In1 O10 2.260467 1_555
In1 O4 2.398619 1_555
In2 O3 2.157836 1_555
In2 O18 2.174355 1_555
In2 O14 2.205466 1_555
In2 O19 2.229402 1_555
In2 O1 2.260467 1_555
In2 O7 2.398619 1_554
In3 O0 2.083427 1_555
In3 O17 2.106357 1_555
In3 O12 2.121302 1_555
In3 O10 2.204942 1_555
In3 O15 2.296166 1_555
In4 O23 2.083427 1_556
In4 O6 2.106357 1_545
In4 O11 2.121302 1_555
In4 O13 2.204942 1_545
In4 O8 2.296166 1_555
In5 O20 2.157836 1_555
In5 O5 2.174355 1_555
In5 O9 2.205466 1_555
In5 O4 2.229402 1_555
In5 O22 2.260467 1_555
In5 O16 2.398619 1_555
In6 O15 2.157836 1_555
In6 O6 2.174355 1_655
In6 O2 2.205466 1_655
In6 O7 2.229402 1_655
In6 O13 2.260467 1_555
In6 O19 2.398619 1_556
In7 O12 2.083427 1_455
In7 O5 2.106357 1_565
In7 O0 2.121302 1_555
In7 O22 2.204942 1_465
In7 O3 2.296166 1_555
O0 W3 1.990410 1_455
O1 W3 1.928746 1_455
O2 W1 1.942867 1_565
O3 W0 1.932165 1_555
O4 W3 1.951535 1_455
O5 W1 1.984211 1_555
O6 W0 1.984211 1_556
O7 W2 1.951535 1_555
O8 W1 1.932165 1_555
O9 W0 1.942867 1_545
O10 W2 1.928746 1_555
O11 W2 1.990410 1_555
O12 W1 1.990410 1_565
O13 W1 1.928746 1_565
O14 W3 1.942867 1_555
O15 W2 1.932165 1_555
O16 W1 1.951535 1_555
O17 W3 1.984211 1_555
O18 W2 1.984211 1_554
O19 W0 1.951535 1_655
O20 W3 1.932165 1_555
O21 W2 1.942867 1_555
O22 W0 1.928746 1_645
O23 W0 1.990410 1_645
