# generated using pymatgen
data_La2Nb2N2O5
_symmetry_space_group_name_H-M   'P 1'
_cell_length_a   13.74249388
_cell_length_b   13.74249388
_cell_length_c   5.77335791
_cell_angle_alpha   89.14490992
_cell_angle_beta   89.14490992
_cell_angle_gamma   16.76880419
_symmetry_Int_Tables_number   1
_chemical_formula_structural   La2Nb2N2O5
_chemical_formula_sum   'La4 Nb4 N4 O10'
_cell_volume   314.53706176
_cell_formula_units_Z   2
loop_
 _symmetry_equiv_pos_site_id
 _symmetry_equiv_pos_as_xyz
  1  'x, y, z'
loop_
 _atom_site_type_symbol
 _atom_site_label
 _atom_site_symmetry_multiplicity
 _atom_site_fract_x
 _atom_site_fract_y
 _atom_site_fract_z
 _atom_site_occupancy
  La  La0  1  0.71511000  0.71511000  0.45773800  1
  La  La1  1  0.55390900  0.55390900  0.06368200  1
  La  La2  1  0.45009500  0.45009500  0.52701400  1
  La  La3  1  0.28993600  0.28993600  0.96232400  1
  Nb  Nb0  1  0.93860100  0.93860100  0.02055900  1
  Nb  Nb1  1  0.84445700  0.84445700  0.50582600  1
  Nb  Nb2  1  0.16303300  0.16303300  0.01084100  1
  Nb  Nb3  1  0.05966300  0.05966300  0.55429400  1
  N  N0  1  0.90714700  0.90714700  0.33652400  1
  N  N1  1  0.88492100  0.88492100  0.82300000  1
  N  N2  1  0.21759400  0.21759400  0.21566900  1
  N  N3  1  0.09016400  0.09016400  0.84365000  1
  O  O0  1  0.98709800  0.98709800  0.72217100  1
  O  O1  1  0.78052100  0.78052100  0.72948100  1
  O  O2  1  0.79656300  0.79656300  0.24690600  1
  O  O3  1  0.54387900  0.54387900  0.53692600  1
  O  O4  1  0.65000200  0.65000200  0.04615900  1
  O  O5  1  0.45647600  0.45647600  0.03537800  1
  O  O6  1  0.20322900  0.20322900  0.73514300  1
  O  O7  1  0.34438100  0.34438100  0.54181400  1
  O  O8  1  0.11168100  0.11168100  0.32923800  1
  O  O9  1  0.01155200  0.01155200  0.23482800  1
loop_
_geom_bond_atom_site_label_1
_geom_bond_atom_site_label_2
_geom_bond_distance
_geom_bond_site_symmetry_2
La0 O1 2.389346 1_555
La0 N2 2.443410 1_655
La0 N2 2.443410 1_565
La0 O2 2.511102 1_555
La0 O6 2.582467 1_565
La0 O6 2.582467 1_655
La0 O4 2.984528 1_555
La1 O9 2.506766 1_565
La1 O9 2.506766 1_655
La1 N3 2.561868 1_564
La1 N3 2.561868 1_654
La1 O4 2.613319 1_555
La1 O5 2.656817 1_555
La1 O3 2.741688 1_555
La1 O8 2.984343 1_565
La1 O8 2.984343 1_655
La1 O3 3.057450 1_554
La2 O0 2.516232 1_545
La2 O0 2.516232 1_455
La2 O3 2.551607 1_555
La2 N0 2.574374 1_545
La2 N0 2.574374 1_455
La2 O5 2.841075 1_555
La2 O7 2.874475 1_555
La2 O5 2.942703 1_556
La2 O9 3.093300 1_565
La2 O9 3.093300 1_655
La2 N1 3.159857 1_545
La2 N1 3.159857 1_455
La3 O1 2.428666 1_545
La3 O1 2.428666 1_455
La3 N2 2.433496 1_556
La3 O2 2.599273 1_456
La3 O2 2.599273 1_546
La3 O6 2.715178 1_555
La3 O7 2.824398 1_555
Nb0 O5 2.064026 1_655
Nb0 O5 2.064026 1_565
Nb0 O0 2.153628 1_554
Nb0 O9 2.353531 1_665
Nb1 O2 1.997310 1_555
Nb1 O7 2.014585 1_655
Nb1 O7 2.014585 1_565
Nb1 O1 2.149873 1_555
Nb2 O6 1.917195 1_554
Nb2 O4 2.044587 1_455
Nb2 O4 2.044587 1_545
Nb2 O8 2.291579 1_555
Nb3 O8 1.906156 1_555
Nb3 O3 2.052059 1_545
Nb3 O3 2.052059 1_455
Nb3 O0 2.185161 1_445
Nb3 O9 2.277269 1_555
N0 Nb1 1.952139 1_555
N0 Nb0 2.003011 1_555
N1 Nb0 1.865919 1_556
N1 Nb1 2.150468 1_555
N2 Nb2 1.911114 1_555
N3 Nb3 1.876271 1_555
N3 Nb2 2.217059 1_556
