# generated using pymatgen
data_Li5Mn2Cu3O10
_symmetry_space_group_name_H-M   'P 1'
_cell_length_a   5.05362581
_cell_length_b   10.68881252
_cell_length_c   7.57467815
_cell_angle_alpha   69.36704535
_cell_angle_beta   103.11968902
_cell_angle_gamma   86.87979897
_symmetry_Int_Tables_number   1
_chemical_formula_structural   Li5Mn2Cu3O10
_chemical_formula_sum   'Li10 Mn4 Cu6 O20'
_cell_volume   368.84564599
_cell_formula_units_Z   2
loop_
 _symmetry_equiv_pos_site_id
 _symmetry_equiv_pos_as_xyz
  1  'x, y, z'
loop_
 _atom_site_type_symbol
 _atom_site_label
 _atom_site_symmetry_multiplicity
 _atom_site_fract_x
 _atom_site_fract_y
 _atom_site_fract_z
 _atom_site_occupancy
  Li  Li0  1  0.25010900  0.24988500  0.25009300  1
  Li  Li1  1  0.75012100  0.74988400  0.75008300  1
  Li  Li2  1  0.76196500  0.44826000  0.94563600  1
  Li  Li3  1  0.26196500  0.94826400  0.44567300  1
  Li  Li4  1  0.73814800  0.05162800  0.55490600  1
  Li  Li5  1  0.23815700  0.55161100  0.05489100  1
  Li  Li6  1  0.25930300  0.14248100  0.64649700  1
  Li  Li7  1  0.75926900  0.64249200  0.14649200  1
  Li  Li8  1  0.24122400  0.35719700  0.85372500  1
  Li  Li9  1  0.74124500  0.85718800  0.35372400  1
  Mn  Mn0  1  0.26477600  0.83835000  0.85477200  1
  Mn  Mn1  1  0.23555400  0.66081400  0.64473800  1
  Mn  Mn2  1  0.76468700  0.33835000  0.35473800  1
  Mn  Mn3  1  0.73549800  0.16082700  0.14475500  1
  Cu  Cu0  1  0.25060500  0.74986900  0.25016300  1
  Cu  Cu1  1  0.75527100  0.94380300  0.95534200  1
  Cu  Cu2  1  0.74618800  0.55547000  0.54512700  1
  Cu  Cu3  1  0.75052700  0.24986300  0.75012800  1
  Cu  Cu4  1  0.25529100  0.44378400  0.45534700  1
  Cu  Cu5  1  0.24615900  0.05549700  0.04516800  1
  O  O0  1  0.04865900  0.01048100  0.82599600  1
  O  O1  1  0.54862800  0.51047000  0.32599600  1
  O  O2  1  0.44939100  0.48994600  0.67525100  1
  O  O3  1  0.94942000  0.98996400  0.17524200  1
  O  O4  1  0.00814600  0.33375900  0.59543200  1
  O  O5  1  0.50814100  0.83370800  0.09547300  1
  O  O6  1  0.49083900  0.16894900  0.90224700  1
  O  O7  1  0.99096500  0.66900700  0.40217400  1
  O  O8  1  0.96390000  0.16693900  0.37908400  1
  O  O9  1  0.46392700  0.66693400  0.87908400  1
  O  O10  1  0.53610500  0.33278700  0.12115800  1
  O  O11  1  0.03613800  0.83277600  0.62116400  1
  O  O12  1  0.95245700  0.26360400  0.98178200  1
  O  O13  1  0.45252400  0.76359100  0.48177600  1
  O  O14  1  0.54925800  0.23554400  0.51887300  1
  O  O15  1  0.04931400  0.73555500  0.01891000  1
  O  O16  1  0.00906000  0.43993000  0.22296200  1
  O  O17  1  0.50907500  0.93993100  0.72293900  1
  O  O18  1  0.48896200  0.06031400  0.27622800  1
  O  O19  1  0.98902600  0.56029700  0.77623100  1
loop_
_geom_bond_atom_site_label_1
_geom_bond_atom_site_label_2
_geom_bond_distance
_geom_bond_site_symmetry_2
Li0 O10 1.999574 1_555
Li0 O8 2.000854 1_455
Li0 O12 2.189249 1_454
Li0 O14 2.193521 1_555
Li0 O18 2.223650 1_555
Li0 O16 2.230547 1_555
Li1 O11 1.999572 1_655
Li1 O9 2.000840 1_555
Li1 O13 2.189133 1_555
Li1 O15 2.193930 1_656
Li1 O19 2.223885 1_555
Li1 O17 2.230523 1_555
Li2 O19 2.032842 1_555
Li2 O12 2.046962 1_555
Li2 O10 2.068732 1_556
Li2 O16 2.155282 1_656
Li2 O2 2.167935 1_555
Li2 O9 2.535274 1_555
Li3 O18 2.032825 1_565
Li3 O13 2.047357 1_555
Li3 O11 2.068543 1_555
Li3 O17 2.154922 1_555
Li3 O3 2.168083 1_455
Li3 O8 2.535277 1_465
Li4 O17 2.033222 1_545
Li4 O14 2.037045 1_555
Li4 O8 2.068910 1_555
Li4 O18 2.166266 1_555
Li4 O0 2.167477 1_655
Li4 O11 2.537294 1_645
Li5 O16 2.033402 1_555
Li5 O15 2.037344 1_555
Li5 O9 2.068964 1_554
Li5 O19 2.166054 1_454
Li5 O1 2.167468 1_555
Li5 O10 2.536925 1_555
Li6 O14 2.048228 1_555
Li6 O0 2.107398 1_555
Li6 O6 2.143655 1_555
Li6 O8 2.147428 1_455
Li6 O4 2.208624 1_555
Li6 O17 2.259000 1_545
Li7 O15 2.048466 1_655
Li7 O1 2.107518 1_555
Li7 O7 2.143752 1_555
Li7 O9 2.147296 1_554
Li7 O5 2.208099 1_555
Li7 O16 2.259106 1_655
Li8 O12 2.046692 1_455
Li8 O2 2.098544 1_555
Li8 O10 2.146418 1_556
Li8 O4 2.146950 1_555
Li8 O6 2.183371 1_555
Li8 O19 2.267782 1_455
Li9 O13 2.046493 1_555
Li9 O3 2.098741 1_555
Li9 O11 2.146481 1_655
Li9 O5 2.146943 1_555
Li9 O7 2.183193 1_555
Li9 O18 2.268205 1_565
Mn0 O11 1.903518 1_555
Mn0 O17 1.908352 1_555
Mn0 O15 1.928920 1_556
Mn0 O5 1.936716 1_556
Mn0 O9 1.970082 1_555
Mn0 O0 2.004006 1_565
Mn1 O9 1.909774 1_555
Mn1 O19 1.911397 1_455
Mn1 O13 1.929433 1_555
Mn1 O7 1.937825 1_455
Mn1 O11 1.977710 1_555
Mn1 O2 1.982710 1_555
Mn2 O10 1.903189 1_555
Mn2 O16 1.908443 1_655
Mn2 O14 1.928827 1_555
Mn2 O4 1.937060 1_655
Mn2 O8 1.970083 1_555
Mn2 O1 2.003855 1_555
Mn3 O8 1.909695 1_555
Mn3 O18 1.911340 1_555
Mn3 O12 1.929439 1_554
Mn3 O6 1.937886 1_554
Mn3 O10 1.977579 1_555
Mn3 O3 1.982931 1_545
Cu0 O15 1.877083 1_555
Cu0 O13 1.877659 1_555
Cu0 O7 1.975466 1_455
Cu0 O5 1.987244 1_555
Cu1 O17 1.926469 1_555
Cu1 O3 1.967377 1_556
Cu1 O0 1.987102 1_665
Cu1 O5 1.988149 1_556
Cu1 O15 2.440178 1_656
Cu1 O6 2.542207 1_565
Cu2 O19 1.915302 1_555
Cu2 O1 1.961089 1_555
Cu2 O2 2.002677 1_555
Cu2 O7 2.005207 1_555
Cu2 O13 2.438525 1_555
Cu2 O4 2.511352 1_655
Cu3 O14 1.877082 1_555
Cu3 O12 1.878027 1_555
Cu3 O6 1.976288 1_555
Cu3 O4 1.987781 1_655
Cu4 O16 1.926368 1_555
Cu4 O2 1.967328 1_555
Cu4 O1 1.986915 1_555
Cu4 O4 1.987718 1_555
Cu4 O14 2.439995 1_555
Cu4 O7 2.542508 1_455
Cu5 O18 1.914925 1_555
Cu5 O0 1.961341 1_554
Cu5 O3 2.002236 1_445
Cu5 O6 2.004308 1_554
Cu5 O12 2.438433 1_454
Cu5 O5 2.512124 1_545
