# generated using pymatgen
data_LiMn3O6
_symmetry_space_group_name_H-M   'P 1'
_cell_length_a   5.07270434
_cell_length_b   5.07270434
_cell_length_c   5.31351340
_cell_angle_alpha   79.80065318
_cell_angle_beta   79.80065318
_cell_angle_gamma   117.81964972
_symmetry_Int_Tables_number   1
_chemical_formula_structural   LiMn3O6
_chemical_formula_sum   'Li1 Mn3 O6'
_cell_volume   113.59415499
_cell_formula_units_Z   1
loop_
 _symmetry_equiv_pos_site_id
 _symmetry_equiv_pos_as_xyz
  1  'x, y, z'
loop_
 _atom_site_type_symbol
 _atom_site_label
 _atom_site_symmetry_multiplicity
 _atom_site_fract_x
 _atom_site_fract_y
 _atom_site_fract_z
 _atom_site_occupancy
  Li  Li0  1  0.50000000  0.50000000  0.50000000  1
  Mn  Mn0  1  0.00000000  0.00000000  0.00000000  1
  Mn  Mn1  1  0.66604000  0.33396000  0.00000000  1
  Mn  Mn2  1  0.33396000  0.66604000  0.00000000  1
  O  O0  1  0.69720300  0.69720300  0.78251600  1
  O  O1  1  0.92201700  0.59324600  0.19239700  1
  O  O2  1  0.59324600  0.92201700  0.19239700  1
  O  O3  1  0.40675400  0.07798300  0.80760300  1
  O  O4  1  0.07798300  0.40675400  0.80760300  1
  O  O5  1  0.30279700  0.30279700  0.21748400  1
loop_
_geom_bond_atom_site_label_1
_geom_bond_atom_site_label_2
_geom_bond_distance
_geom_bond_site_symmetry_2
Li0 O5 2.093911 1_555
Li0 O0 2.093911 1_555
Li0 O3 2.240528 1_555
Li0 O2 2.240528 1_555
Li0 O1 2.240528 1_555
Li0 O4 2.240528 1_555
Mn0 O1 1.951123 1_445
Mn0 O2 1.951123 1_445
Mn0 O3 1.951123 1_554
Mn0 O4 1.951123 1_554
Mn0 O5 2.260336 1_555
Mn0 O0 2.260336 1_444
Mn1 O0 1.914419 1_554
Mn1 O5 1.914419 1_555
Mn1 O3 1.952783 1_554
Mn1 O1 1.952783 1_555
Mn1 O4 1.984361 1_654
Mn1 O2 1.984361 1_545
Mn2 O5 1.914419 1_555
Mn2 O0 1.914419 1_554
Mn2 O4 1.952783 1_554
Mn2 O2 1.952783 1_555
Mn2 O3 1.984361 1_564
Mn2 O1 1.984361 1_455
