# generated using pymatgen
data_Li7BiO6
_symmetry_space_group_name_H-M   'P 1'
_cell_length_a   5.96969303
_cell_length_b   5.96969303
_cell_length_c   5.96969276
_cell_angle_alpha   55.99587016
_cell_angle_beta   55.99587012
_cell_angle_gamma   55.99585914
_symmetry_Int_Tables_number   1
_chemical_formula_structural   Li7BiO6
_chemical_formula_sum   'Li7 Bi1 O6'
_cell_volume   136.47729881
_cell_formula_units_Z   1
loop_
 _symmetry_equiv_pos_site_id
 _symmetry_equiv_pos_as_xyz
  1  'x, y, z'
loop_
 _atom_site_type_symbol
 _atom_site_label
 _atom_site_symmetry_multiplicity
 _atom_site_fract_x
 _atom_site_fract_y
 _atom_site_fract_z
 _atom_site_occupancy
  Li  Li0  1  0.26960827  0.50194956  0.87708769  1
  Li  Li1  1  0.06721491  0.77155290  0.50944464  1
  Li  Li2  1  0.50944464  0.06721491  0.77155290  1
  Li  Li3  1  0.34905327  0.34905327  0.34905327  1
  Li  Li4  1  0.87708769  0.26960827  0.50194956  1
  Li  Li5  1  0.50194956  0.87708769  0.26960827  1
  Li  Li6  1  0.77155290  0.50944464  0.06721491  1
  Bi  Bi0  1  0.99807988  0.99807988  0.99807988  1
  O  O0  1  0.12334997  0.36846834  0.75788592  1
  O  O1  1  0.20365339  0.92302576  0.60980948  1
  O  O2  1  0.60980948  0.20365339  0.92302576  1
  O  O3  1  0.36846834  0.75788592  0.12334997  1
  O  O4  1  0.75788592  0.12334997  0.36846834  1
  O  O5  1  0.92302576  0.60980948  0.20365339  1
loop_
_geom_bond_atom_site_label_1
_geom_bond_atom_site_label_2
_geom_bond_distance
_geom_bond_site_symmetry_2
Li0 O2 1.844569 1_555
Li0 O5 1.974415 1_456
Li0 O0 2.002751 1_555
Li0 O1 2.032024 1_555
Li1 O0 1.940209 1_555
Li1 O1 1.953367 1_555
Li1 O4 1.988065 1_465
Li1 O3 1.990787 1_555
Li2 O4 1.940209 1_555
Li2 O2 1.953367 1_555
Li2 O3 1.988065 1_546
Li2 O0 1.990787 1_555
Li3 O4 2.061316 1_555
Li3 O0 2.061316 1_555
Li3 O3 2.061316 1_555
Li3 O5 2.484845 1_455
Li3 O2 2.484845 1_554
Li3 O1 2.484845 1_545
Li4 O5 1.844570 1_555
Li4 O1 1.974415 1_645
Li4 O4 2.002751 1_555
Li4 O2 2.032024 1_555
Li5 O1 1.844570 1_555
Li5 O2 1.974416 1_564
Li5 O3 2.002751 1_555
Li5 O5 2.032024 1_555
Li6 O3 1.940209 1_555
Li6 O5 1.953367 1_555
Li6 O0 1.988065 1_654
Li6 O4 1.990787 1_555
Bi0 O2 2.108135 1_565
Bi0 O1 2.108135 1_655
Bi0 O5 2.108136 1_556
Bi0 O3 2.146664 1_656
Bi0 O4 2.146664 1_566
Bi0 O0 2.146665 1_665
