# generated using pymatgen
data_CaPtO6
_symmetry_space_group_name_H-M   'P 1'
_cell_length_a   6.65554630
_cell_length_b   6.65554630
_cell_length_c   7.17259220
_cell_angle_alpha   89.65124908
_cell_angle_beta   89.65124908
_cell_angle_gamma   120.47375987
_symmetry_Int_Tables_number   1
_chemical_formula_structural   CaPtO6
_chemical_formula_sum   'Ca2 Pt2 O12'
_cell_volume   273.80942578
_cell_formula_units_Z   2
loop_
 _symmetry_equiv_pos_site_id
 _symmetry_equiv_pos_as_xyz
  1  'x, y, z'
loop_
 _atom_site_type_symbol
 _atom_site_label
 _atom_site_symmetry_multiplicity
 _atom_site_fract_x
 _atom_site_fract_y
 _atom_site_fract_z
 _atom_site_occupancy
  Ca  Ca0  1  0.66747600  0.33238400  0.25201600  1
  Ca  Ca1  1  0.33238400  0.66747600  0.75201600  1
  Pt  Pt0  1  0.00016700  0.99919000  0.49988300  1
  Pt  Pt1  1  0.99919000  0.00016700  0.99988300  1
  O  O0  1  0.28347500  0.20496400  0.33425000  1
  O  O1  1  0.91415700  0.71572500  0.33715600  1
  O  O2  1  0.79913100  0.08245500  0.33842900  1
  O  O3  1  0.20496400  0.28347500  0.83425000  1
  O  O4  1  0.08245500  0.79913100  0.83842900  1
  O  O5  1  0.71572500  0.91415700  0.83715600  1
  O  O6  1  0.71590500  0.79744300  0.66552400  1
  O  O7  1  0.09173600  0.28554400  0.66030800  1
  O  O8  1  0.19776000  0.91238800  0.66243400  1
  O  O9  1  0.79744300  0.71590500  0.16552400  1
  O  O10  1  0.91238800  0.19776000  0.16243400  1
  O  O11  1  0.28554400  0.09173600  0.16030800  1
loop_
_geom_bond_atom_site_label_1
_geom_bond_atom_site_label_2
_geom_bond_distance
_geom_bond_site_symmetry_2
Ca0 O10 2.312630 1_555
Ca0 O1 2.315235 1_555
Ca0 O11 2.315863 1_555
Ca0 O0 2.318637 1_555
Ca0 O9 2.320183 1_555
Ca0 O2 2.321922 1_555
Ca1 O8 2.312630 1_555
Ca1 O5 2.315235 1_555
Ca1 O7 2.315863 1_555
Ca1 O3 2.318637 1_555
Ca1 O6 2.320183 1_555
Ca1 O4 2.321922 1_555
O0 O11 1.465059 1_555
O0 Pt0 2.043542 1_545
O1 O9 1.459950 1_555
O1 Pt0 2.046664 1_655
O2 Pt0 2.049771 1_645
O3 O7 1.465059 1_555
O3 Pt1 2.043542 1_455
O4 O8 1.463051 1_555
O4 Pt1 2.049771 1_465
O5 O6 1.459950 1_555
O5 Pt1 2.046664 1_565
O6 Pt0 2.042154 1_655
O7 Pt0 2.045683 1_545
O8 Pt0 2.050276 1_555
O9 Pt1 2.042154 1_564
O10 O2 1.463051 1_555
O10 Pt1 2.050276 1_554
O11 Pt1 2.045683 1_454
