# generated using pymatgen
data_CoPH3O4
_symmetry_space_group_name_H-M   'P 1'
_cell_length_a   7.97227600
_cell_length_b   9.05008000
_cell_length_c   10.21663700
_cell_angle_alpha   90.00000000
_cell_angle_beta   90.00000000
_cell_angle_gamma   90.00000000
_symmetry_Int_Tables_number   1
_chemical_formula_structural   CoPH3O4
_chemical_formula_sum   'Co8 P8 H24 O32'
_cell_volume   737.12765809
_cell_formula_units_Z   8
loop_
 _symmetry_equiv_pos_site_id
 _symmetry_equiv_pos_as_xyz
  1  'x, y, z'
loop_
 _atom_site_type_symbol
 _atom_site_label
 _atom_site_symmetry_multiplicity
 _atom_site_fract_x
 _atom_site_fract_y
 _atom_site_fract_z
 _atom_site_occupancy
  Co  Co0  1  0.87812800  0.59244300  0.07856000  1
  Co  Co1  1  0.12187200  0.40755700  0.57856000  1
  Co  Co2  1  0.87812800  0.90755700  0.57856000  1
  Co  Co3  1  0.12187200  0.09244300  0.07856000  1
  Co  Co4  1  0.12599500  0.40576600  0.93692200  1
  Co  Co5  1  0.87400500  0.59423400  0.43692200  1
  Co  Co6  1  0.12599500  0.09423400  0.43692200  1
  Co  Co7  1  0.87400500  0.90576600  0.93692200  1
  P  P0  1  0.23610300  0.74619500  0.97617200  1
  P  P1  1  0.76389700  0.25380500  0.47617200  1
  P  P2  1  0.23610300  0.75380500  0.47617200  1
  P  P3  1  0.76389700  0.24619500  0.97617200  1
  P  P4  1  0.86598800  0.59327300  0.75603600  1
  P  P5  1  0.13401200  0.40672700  0.25603600  1
  P  P6  1  0.86598800  0.90672700  0.25603600  1
  P  P7  1  0.13401200  0.09327300  0.75603600  1
  H  H0  1  0.26346300  0.72075400  0.84197800  1
  H  H1  1  0.73653700  0.27924600  0.34197800  1
  H  H2  1  0.26346300  0.77924600  0.34197800  1
  H  H3  1  0.73653700  0.22075400  0.84197800  1
  H  H4  1  0.73349800  0.49174800  0.75405100  1
  H  H5  1  0.26650200  0.50825200  0.25405100  1
  H  H6  1  0.73349800  0.00825200  0.25405100  1
  H  H7  1  0.26650200  0.99174800  0.75405100  1
  H  H8  1  0.53644400  0.62491300  0.09443800  1
  H  H9  1  0.46355600  0.37508700  0.59443800  1
  H  H10  1  0.53644400  0.87508700  0.59443800  1
  H  H11  1  0.46355600  0.12491300  0.09443800  1
  H  H12  1  0.59270000  0.45189500  0.10291600  1
  H  H13  1  0.40730000  0.54810500  0.60291600  1
  H  H14  1  0.59270000  0.04810500  0.60291600  1
  H  H15  1  0.40730000  0.95189500  0.10291600  1
  H  H16  1  0.44928500  0.36058200  0.93592300  1
  H  H17  1  0.55071500  0.63941800  0.43592300  1
  H  H18  1  0.44928500  0.13941800  0.43592300  1
  H  H19  1  0.55071500  0.86058200  0.93592300  1
  H  H20  1  0.60711600  0.56290400  0.29882000  1
  H  H21  1  0.39288400  0.43709600  0.79882000  1
  H  H22  1  0.60711600  0.93709600  0.79882000  1
  H  H23  1  0.39288400  0.06290400  0.29882000  1
  O  O0  1  0.61886200  0.55401100  0.13346400  1
  O  O1  1  0.38113800  0.44598900  0.63346400  1
  O  O2  1  0.61886200  0.94598900  0.63346400  1
  O  O3  1  0.38113800  0.05401100  0.13346400  1
  O  O4  1  0.37653500  0.43655500  0.89559100  1
  O  O5  1  0.62346500  0.56344500  0.39559100  1
  O  O6  1  0.37653500  0.06344500  0.39559100  1
  O  O7  1  0.62346500  0.93655500  0.89559100  1
  O  O8  1  0.13657300  0.61213700  0.02949200  1
  O  O9  1  0.86342700  0.38786300  0.52949200  1
  O  O10  1  0.13657300  0.88786300  0.52949200  1
  O  O11  1  0.86342700  0.11213700  0.02949200  1
  O  O12  1  0.40664900  0.76930800  0.04280900  1
  O  O13  1  0.59335100  0.23069200  0.54280900  1
  O  O14  1  0.40664900  0.73069200  0.54280900  1
  O  O15  1  0.59335100  0.26930800  0.04280900  1
  O  O16  1  0.87155900  0.38880100  0.98280400  1
  O  O17  1  0.12844100  0.61119900  0.48280400  1
  O  O18  1  0.87155900  0.11119900  0.48280400  1
  O  O19  1  0.12844100  0.88880100  0.98280400  1
  O  O20  1  0.84567100  0.68555100  0.88221300  1
  O  O21  1  0.15432900  0.31444900  0.38221300  1
  O  O22  1  0.84567100  0.81444900  0.38221300  1
  O  O23  1  0.15432900  0.18555100  0.88221300  1
  O  O24  1  0.84262500  0.81050500  0.13232400  1
  O  O25  1  0.15737500  0.18949500  0.63232400  1
  O  O26  1  0.84262500  0.68949500  0.63232400  1
  O  O27  1  0.15737500  0.31050500  0.13232400  1
  O  O28  1  0.96658000  0.49527400  0.25474700  1
  O  O29  1  0.03342000  0.50472600  0.75474700  1
  O  O30  1  0.96658000  0.00472600  0.75474700  1
  O  O31  1  0.03342000  0.99527400  0.25474700  1
loop_
_geom_bond_atom_site_label_1
_geom_bond_atom_site_label_2
_geom_bond_distance
_geom_bond_site_symmetry_2
Co0 O24 2.067957 1_555
Co0 O16 2.087195 1_554
Co0 O28 2.123845 1_555
Co0 O8 2.127982 1_655
Co0 O0 2.169761 1_555
Co0 O20 2.191129 1_554
Co1 O25 2.067957 1_555
Co1 O17 2.087195 1_555
Co1 O29 2.123845 1_555
Co1 O9 2.127982 1_455
Co1 O1 2.169761 1_555
Co1 O21 2.191129 1_555
Co2 O26 2.067957 1_555
Co2 O18 2.087195 1_565
Co2 O30 2.123845 1_565
Co2 O10 2.127982 1_655
Co2 O2 2.169761 1_555
Co2 O22 2.191129 1_555
Co3 O27 2.067957 1_555
Co3 O19 2.087195 1_544
Co3 O31 2.123845 1_545
Co3 O11 2.127982 1_455
Co3 O3 2.169761 1_555
Co3 O23 2.191129 1_554
Co4 O4 2.060449 1_555
Co4 O23 2.082149 1_555
Co4 O16 2.087547 1_455
Co4 O8 2.095178 1_556
Co4 O27 2.188893 1_556
Co4 O29 2.193379 1_555
Co5 O5 2.060449 1_555
Co5 O22 2.082149 1_555
Co5 O17 2.087547 1_655
Co5 O9 2.095178 1_555
Co5 O26 2.188893 1_555
Co5 O28 2.193379 1_555
Co6 O6 2.060449 1_555
Co6 O21 2.082149 1_555
Co6 O18 2.087547 1_455
Co6 O10 2.095178 1_545
Co6 O25 2.188893 1_555
Co6 O31 2.193379 1_545
Co7 O7 2.060449 1_555
Co7 O20 2.082149 1_555
Co7 O19 2.087547 1_655
Co7 O11 2.095178 1_566
Co7 O24 2.188893 1_556
Co7 O30 2.193379 1_565
H0 P0 1.407217 1_555
H1 P1 1.407217 1_555
H2 P2 1.407217 1_555
H3 P3 1.407217 1_555
H4 P4 1.400100 1_555
H5 P5 1.400100 1_555
H6 P6 1.400100 1_545
H7 P7 1.400100 1_565
H8 O0 1.001219 1_555
H9 O1 1.001219 1_555
H10 O2 1.001219 1_555
H11 O3 1.001219 1_555
H12 O0 0.997484 1_555
H13 O1 0.997484 1_555
H14 O2 0.997484 1_545
H15 O3 0.997484 1_565
H16 O4 0.989400 1_555
H17 O5 0.989400 1_555
H18 O6 0.989400 1_555
H19 O7 0.989400 1_555
H20 O5 0.997241 1_555
H21 O4 0.997241 1_555
H22 O7 0.997241 1_555
H23 O6 0.997241 1_555
O8 P0 1.548646 1_554
O9 P1 1.548646 1_555
O10 P2 1.548646 1_555
O11 P3 1.548646 1_554
O12 P0 1.534885 1_554
O13 P1 1.534885 1_555
O14 P2 1.534885 1_555
O15 P3 1.534885 1_554
O16 P3 1.551427 1_555
O17 P2 1.551427 1_555
O18 P1 1.551427 1_555
O19 P0 1.551427 1_555
O20 P4 1.544492 1_555
O21 P5 1.544492 1_555
O22 P6 1.544492 1_555
O23 P7 1.544492 1_555
O24 P6 1.546127 1_555
O25 P7 1.546127 1_555
O26 P4 1.546127 1_555
O27 P5 1.546127 1_555
O28 P5 1.556944 1_655
O29 P4 1.556944 1_455
O30 P7 1.556944 1_655
O31 P6 1.556944 1_455
