# generated using pymatgen
data_Li5Cu(PO4)2
_symmetry_space_group_name_H-M   'P 1'
_cell_length_a   6.21696400
_cell_length_b   4.97488600
_cell_length_c   5.30782536
_cell_angle_alpha   89.64942203
_cell_angle_beta   90.00000000
_cell_angle_gamma   90.00000000
_symmetry_Int_Tables_number   1
_chemical_formula_structural   Li5Cu(PO4)2
_chemical_formula_sum   'Li5 Cu1 P2 O8'
_cell_volume   164.16099702
_cell_formula_units_Z   1
loop_
 _symmetry_equiv_pos_site_id
 _symmetry_equiv_pos_as_xyz
  1  'x, y, z'
loop_
 _atom_site_type_symbol
 _atom_site_label
 _atom_site_symmetry_multiplicity
 _atom_site_fract_x
 _atom_site_fract_y
 _atom_site_fract_z
 _atom_site_occupancy
  Li  Li0  1  0.00000000  0.49067200  0.84440500  1
  Li  Li1  1  0.75098800  0.99204100  0.67343200  1
  Li  Li2  1  0.74613600  0.49057300  0.32655900  1
  Li  Li3  1  0.25386400  0.49057300  0.32655900  1
  Li  Li4  1  0.24901200  0.99204100  0.67343200  1
  Cu  Cu0  1  0.50000000  0.99357300  0.17210700  1
  P  P0  1  0.00000000  0.99975200  0.17423700  1
  P  P1  1  0.50000000  0.49862900  0.81858300  1
  O  O0  1  0.00000000  0.89887800  0.89686100  1
  O  O1  1  0.00000000  0.31220700  0.18052200  1
  O  O2  1  0.79840700  0.88929000  0.31800900  1
  O  O3  1  0.70699500  0.39030300  0.68695200  1
  O  O4  1  0.50000000  0.81103300  0.80077800  1
  O  O5  1  0.50000000  0.41343600  0.10260200  1
  O  O6  1  0.29300500  0.39030300  0.68695200  1
  O  O7  1  0.20159300  0.88929000  0.31800900  1
loop_
_geom_bond_atom_site_label_1
_geom_bond_atom_site_label_2
_geom_bond_distance
_geom_bond_site_symmetry_2
Li0 O1 1.987893 1_556
Li0 O0 2.051463 1_555
Li0 O6 2.066667 1_555
Li0 O3 2.066667 1_455
Li1 O4 1.922269 1_555
Li1 O2 1.979641 1_555
Li1 O3 2.001818 1_565
Li1 O0 2.002774 1_655
Li2 O1 1.971691 1_655
Li2 O5 1.976735 1_555
Li2 O3 1.988861 1_555
Li2 O2 2.010253 1_555
Li3 O1 1.971691 1_555
Li3 O5 1.976735 1_555
Li3 O6 1.988861 1_555
Li3 O7 2.010253 1_555
Li4 O4 1.922269 1_555
Li4 O7 1.979641 1_555
Li4 O6 2.001818 1_565
Li4 O0 2.002774 1_555
Cu0 O2 2.075012 1_555
Cu0 O7 2.075012 1_555
Cu0 O5 2.118876 1_565
Cu0 O4 2.175137 1_554
O0 P0 1.558346 1_556
O1 P0 1.554990 1_545
O2 P0 1.565234 1_655
O3 P1 1.561806 1_555
O4 P1 1.556468 1_555
O5 P1 1.563469 1_554
O6 P1 1.561806 1_555
O7 P0 1.565234 1_555
