# generated using pymatgen
data_LiCr(PO3)4
_symmetry_space_group_name_H-M   'P 1'
_cell_length_a   8.41058200
_cell_length_b   7.24580200
_cell_length_c   7.64400221
_cell_angle_alpha   88.02448634
_cell_angle_beta   90.00000000
_cell_angle_gamma   90.00000000
_symmetry_Int_Tables_number   1
_chemical_formula_structural   LiCr(PO3)4
_chemical_formula_sum   'Li2 Cr2 P8 O24'
_cell_volume   465.55941743
_cell_formula_units_Z   2
loop_
 _symmetry_equiv_pos_site_id
 _symmetry_equiv_pos_as_xyz
  1  'x, y, z'
loop_
 _atom_site_type_symbol
 _atom_site_label
 _atom_site_symmetry_multiplicity
 _atom_site_fract_x
 _atom_site_fract_y
 _atom_site_fract_z
 _atom_site_occupancy
  Li  Li0  1  0.69673400  0.73141800  0.85528100  1
  Li  Li1  1  0.19673400  0.26858200  0.14471900  1
  Cr  Cr0  1  0.49198800  0.73645100  0.33609800  1
  Cr  Cr1  1  0.99198800  0.26354900  0.66390200  1
  P  P0  1  0.29296700  0.91542800  0.98286400  1
  P  P1  1  0.87513000  0.93390800  0.37064500  1
  P  P2  1  0.07194600  0.64789300  0.80793000  1
  P  P3  1  0.12432300  0.62884200  0.43776500  1
  P  P4  1  0.62432300  0.37115800  0.56223500  1
  P  P5  1  0.57194600  0.35210700  0.19207000  1
  P  P6  1  0.37513000  0.06609200  0.62935500  1
  P  P7  1  0.79296700  0.08457200  0.01713600  1
  O  O0  1  0.39797200  0.93803800  0.80392900  1
  O  O1  1  0.41856200  0.94840100  0.47954100  1
  O  O2  1  0.91145300  0.72896100  0.80940200  1
  O  O3  1  0.68568100  0.92584400  0.00220300  1
  O  O4  1  0.71933400  0.83507400  0.37575300  1
  O  O5  1  0.19373100  0.72685500  0.94609400  1
  O  O6  1  0.40558600  0.86759600  0.12772500  1
  O  O7  1  0.01706100  0.78448400  0.34149700  1
  O  O8  1  0.16153100  0.70903000  0.62554700  1
  O  O9  1  0.27709900  0.61659500  0.33720800  1
  O  O10  1  0.08624400  0.43889800  0.83150400  1
  O  O11  1  0.53633000  0.55310700  0.54543900  1
  O  O12  1  0.03633000  0.44689300  0.45456100  1
  O  O13  1  0.58624400  0.56110200  0.16849600  1
  O  O14  1  0.77709900  0.38340500  0.66279200  1
  O  O15  1  0.66153100  0.29097000  0.37445300  1
  O  O16  1  0.51706100  0.21551600  0.65850300  1
  O  O17  1  0.90558600  0.13240400  0.87227500  1
  O  O18  1  0.69373100  0.27314500  0.05390600  1
  O  O19  1  0.21933400  0.16492600  0.62424700  1
  O  O20  1  0.18568100  0.07415600  0.99779700  1
  O  O21  1  0.41145300  0.27103900  0.19059800  1
  O  O22  1  0.91856200  0.05159900  0.52045900  1
  O  O23  1  0.89797200  0.06196200  0.19607100  1
loop_
_geom_bond_atom_site_label_1
_geom_bond_atom_site_label_2
_geom_bond_distance
_geom_bond_site_symmetry_2
Li0 O3 1.834027 1_556
Li0 O2 1.839852 1_555
Li1 O20 1.834027 1_554
Li1 O21 1.839852 1_555
Cr0 O6 1.965637 1_555
Cr0 O13 1.999075 1_555
Cr0 O9 2.005058 1_555
Cr0 O1 2.014512 1_555
Cr0 O4 2.067280 1_555
Cr0 O11 2.077983 1_555
Cr1 O17 1.965637 1_555
Cr1 O10 1.999075 1_655
Cr1 O14 2.005058 1_555
Cr1 O22 2.014512 1_555
Cr1 O19 2.067280 1_655
Cr1 O12 2.077983 1_655
O0 P6 1.610340 1_565
O0 P0 1.631616 1_555
O1 P6 1.496465 1_565
O2 P2 1.472308 1_655
O3 P7 1.469371 1_565
O4 P1 1.493124 1_555
O5 P2 1.591718 1_555
O5 P0 1.633719 1_555
O6 P0 1.488954 1_554
O7 P3 1.603111 1_555
O7 P1 1.632017 1_455
O8 P3 1.597941 1_555
O8 P2 1.632476 1_555
O9 P3 1.501489 1_555
O10 P2 1.523592 1_555
O11 P4 1.513476 1_555
O12 P3 1.513476 1_555
O13 P5 1.523592 1_555
O14 P4 1.501489 1_555
O15 P4 1.597941 1_555
O15 P5 1.632476 1_555
O16 P4 1.603111 1_555
O16 P6 1.632017 1_555
O17 P7 1.488954 1_556
O18 P5 1.591718 1_555
O18 P7 1.633719 1_555
O19 P6 1.493124 1_555
O20 P0 1.469371 1_545
O21 P5 1.472308 1_555
O22 P1 1.496465 1_545
O23 P1 1.610340 1_545
O23 P7 1.631616 1_555
