# generated using pymatgen
data_Li2VF5
_symmetry_space_group_name_H-M   'P 1'
_cell_length_a   5.17398900
_cell_length_b   7.14502700
_cell_length_c   10.05501856
_cell_angle_alpha   77.16956117
_cell_angle_beta   90.00000000
_cell_angle_gamma   90.00000000
_symmetry_Int_Tables_number   1
_chemical_formula_structural   Li2VF5
_chemical_formula_sum   'Li8 V4 F20'
_cell_volume   362.43564724
_cell_formula_units_Z   4
loop_
 _symmetry_equiv_pos_site_id
 _symmetry_equiv_pos_as_xyz
  1  'x, y, z'
loop_
 _atom_site_type_symbol
 _atom_site_label
 _atom_site_symmetry_multiplicity
 _atom_site_fract_x
 _atom_site_fract_y
 _atom_site_fract_z
 _atom_site_occupancy
  Li  Li0  1  0.24088000  0.13439700  0.00346700  1
  Li  Li1  1  0.75122200  0.48061000  0.93176800  1
  Li  Li2  1  0.25122200  0.51939000  0.56823200  1
  Li  Li3  1  0.74088000  0.86560300  0.49653300  1
  Li  Li4  1  0.25912000  0.13439700  0.50346700  1
  Li  Li5  1  0.74877800  0.48061000  0.43176800  1
  Li  Li6  1  0.24877800  0.51939000  0.06823200  1
  Li  Li7  1  0.75912000  0.86560300  0.99653300  1
  V  V0  1  0.26784000  0.83568500  0.79942800  1
  V  V1  1  0.76784000  0.16431500  0.70057200  1
  V  V2  1  0.23216000  0.83568500  0.29942800  1
  V  V3  1  0.73216000  0.16431500  0.20057200  1
  F  F0  1  0.02989200  0.05322200  0.85786800  1
  F  F1  1  0.51335500  0.04969300  0.85725300  1
  F  F2  1  0.01335500  0.95030700  0.64274700  1
  F  F3  1  0.01164500  0.69154100  0.93476600  1
  F  F4  1  0.50619500  0.69054900  0.94495500  1
  F  F5  1  0.52989200  0.94677800  0.64213200  1
  F  F6  1  0.27766100  0.61306600  0.72736300  1
  F  F7  1  0.77766100  0.38693400  0.77263700  1
  F  F8  1  0.00619500  0.30945100  0.55504500  1
  F  F9  1  0.51164500  0.30845900  0.56523400  1
  F  F10  1  0.48835500  0.69154100  0.43476600  1
  F  F11  1  0.99380500  0.69054900  0.44495500  1
  F  F12  1  0.22233900  0.61306600  0.22736300  1
  F  F13  1  0.72233900  0.38693400  0.27263700  1
  F  F14  1  0.47010800  0.05322200  0.35786800  1
  F  F15  1  0.49380500  0.30945100  0.05504500  1
  F  F16  1  0.98835500  0.30845900  0.06523400  1
  F  F17  1  0.98664500  0.04969300  0.35725300  1
  F  F18  1  0.48664500  0.95030700  0.14274700  1
  F  F19  1  0.97010800  0.94677800  0.14213200  1
loop_
_geom_bond_atom_site_label_1
_geom_bond_atom_site_label_2
_geom_bond_distance
_geom_bond_site_symmetry_2
F0 Li0 2.012092 1_556
F0 V1 2.100554 1_455
F0 V0 2.163912 1_545
F0 Li7 2.207638 1_445
F1 V1 2.076866 1_555
F1 Li7 2.119007 1_545
F1 V0 2.164415 1_545
F1 Li0 2.215940 1_556
F2 V0 2.076866 1_555
F2 Li4 2.119007 1_565
F2 V1 2.164415 1_465
F2 Li3 2.215940 1_455
F3 Li7 1.995649 1_455
F3 V0 2.011762 1_555
F3 Li6 2.021421 1_556
F3 Li1 2.026824 1_455
F4 Li7 1.958058 1_555
F4 Li1 1.990781 1_555
F4 V0 2.015815 1_555
F4 Li6 2.032902 1_556
F5 Li3 2.012092 1_555
F5 V0 2.100554 1_555
F5 V1 2.163912 1_565
F5 Li4 2.207638 1_565
F6 Li2 1.871511 1_555
F6 V0 1.889343 1_555
F7 Li1 1.871511 1_555
F7 V1 1.889343 1_555
F8 Li4 1.958058 1_555
F8 Li2 1.990781 1_555
F8 V1 2.015815 1_455
F8 Li5 2.032902 1_455
F9 Li4 1.995649 1_555
F9 V1 2.011762 1_555
F9 Li5 2.021421 1_555
F9 Li2 2.026824 1_555
F10 Li3 1.995649 1_555
F10 V2 2.011762 1_555
F10 Li2 2.021421 1_555
F10 Li5 2.026824 1_555
F11 Li3 1.958058 1_555
F11 Li5 1.990781 1_555
F11 V2 2.015815 1_655
F11 Li2 2.032902 1_655
F12 Li6 1.871511 1_555
F12 V2 1.889343 1_555
F13 Li5 1.871511 1_555
F13 V3 1.889343 1_555
F14 Li4 2.012092 1_555
F14 V3 2.100554 1_555
F14 V2 2.163912 1_545
F14 Li3 2.207638 1_545
F15 Li0 1.958058 1_555
F15 Li6 1.990781 1_555
F15 V3 2.015815 1_555
F15 Li1 2.032902 1_554
F16 Li0 1.995649 1_655
F16 V3 2.011762 1_555
F16 Li1 2.021421 1_554
F16 Li6 2.026824 1_655
F17 V3 2.076866 1_555
F17 Li3 2.119007 1_545
F17 V2 2.164415 1_645
F17 Li4 2.215940 1_655
F18 V2 2.076866 1_555
F18 Li0 2.119007 1_565
F18 V3 2.164415 1_565
F18 Li7 2.215940 1_554
F19 Li7 2.012092 1_554
F19 V2 2.100554 1_655
F19 V3 2.163912 1_565
F19 Li0 2.207638 1_665
