# generated using pymatgen
data_Sn(CCl)2
_symmetry_space_group_name_H-M   'P 1'
_cell_length_a   7.49155821
_cell_length_b   7.49155821
_cell_length_c   7.49155821
_cell_angle_alpha   129.22339199
_cell_angle_beta   111.06482422
_cell_angle_gamma   90.47157230
_symmetry_Int_Tables_number   1
_chemical_formula_structural   Sn(CCl)2
_chemical_formula_sum   'Sn2 C4 Cl4'
_cell_volume   287.37042800
_cell_formula_units_Z   2
loop_
 _symmetry_equiv_pos_site_id
 _symmetry_equiv_pos_as_xyz
  1  'x, y, z'
loop_
 _atom_site_type_symbol
 _atom_site_label
 _atom_site_symmetry_multiplicity
 _atom_site_fract_x
 _atom_site_fract_y
 _atom_site_fract_z
 _atom_site_occupancy
  Sn  Sn0  1  0.25000000  0.75772300  0.50772300  1
  Sn  Sn1  1  0.75000000  0.24227700  0.49227700  1
  C  C0  1  0.44815400  0.56660700  0.51476100  1
  C  C1  1  0.94815400  0.43339300  0.88154700  1
  C  C2  1  0.55184600  0.43339300  0.48523900  1
  C  C3  1  0.05184600  0.56660700  0.11845300  1
  Cl  Cl0  1  0.42046100  0.16017100  0.73971000  1
  Cl  Cl1  1  0.57953900  0.83982900  0.26029000  1
  Cl  Cl2  1  0.92046100  0.18075100  0.26029000  1
  Cl  Cl3  1  0.07953900  0.81924900  0.73971000  1
loop_
_geom_bond_atom_site_label_1
_geom_bond_atom_site_label_2
_geom_bond_distance
_geom_bond_site_symmetry_2
C0 C2 1.226964 1_555
C0 Sn0 2.081006 1_555
C1 C3 1.226964 1_656
C1 Sn1 2.081006 1_555
C2 Sn1 2.081006 1_555
C3 Sn0 2.081006 1_555
Cl0 Sn0 2.335738 1_545
Cl1 Sn1 2.335738 1_565
Cl2 Sn1 2.335738 1_555
Cl3 Sn0 2.335738 1_555
