# generated using pymatgen
data_Co2(SO4)3
_symmetry_space_group_name_H-M   'P 1'
_cell_length_a   8.57653931
_cell_length_b   8.57653931
_cell_length_c   8.57653936
_cell_angle_alpha   60.15935586
_cell_angle_beta   60.15935586
_cell_angle_gamma   60.15936357
_symmetry_Int_Tables_number   1
_chemical_formula_structural   Co2(SO4)3
_chemical_formula_sum   'Co4 S6 O24'
_cell_volume   447.69884659
_cell_formula_units_Z   2
loop_
 _symmetry_equiv_pos_site_id
 _symmetry_equiv_pos_as_xyz
  1  'x, y, z'
loop_
 _atom_site_type_symbol
 _atom_site_label
 _atom_site_symmetry_multiplicity
 _atom_site_fract_x
 _atom_site_fract_y
 _atom_site_fract_z
 _atom_site_occupancy
  Co  Co0  1  0.36015500  0.36015500  0.36015500  1
  Co  Co1  1  0.13984500  0.13984500  0.13984500  1
  Co  Co2  1  0.63984500  0.63984500  0.63984500  1
  Co  Co3  1  0.86015500  0.86015500  0.86015500  1
  S  S0  1  0.75000000  0.04076400  0.45923600  1
  S  S1  1  0.95923600  0.54076400  0.25000000  1
  S  S2  1  0.54076400  0.25000000  0.95923600  1
  S  S3  1  0.45923600  0.75000000  0.04076400  1
  S  S4  1  0.04076400  0.45923600  0.75000000  1
  S  S5  1  0.25000000  0.95923600  0.54076400  1
  O  O0  1  0.91089700  0.05832800  0.27648100  1
  O  O1  1  0.72351900  0.08910300  0.94167200  1
  O  O2  1  0.88499900  0.49414700  0.69548200  1
  O  O3  1  0.00585300  0.61500100  0.80451800  1
  O  O4  1  0.58910300  0.22351900  0.44167200  1
  O  O5  1  0.77648100  0.55832800  0.41089700  1
  O  O6  1  0.94167200  0.72351900  0.08910300  1
  O  O7  1  0.19548200  0.99414700  0.38499900  1
  O  O8  1  0.50585300  0.30451800  0.11500100  1
  O  O9  1  0.30451800  0.11500100  0.50585300  1
  O  O10  1  0.38499900  0.19548200  0.99414700  1
  O  O11  1  0.55832800  0.41089700  0.77648100  1
  O  O12  1  0.44167200  0.58910300  0.22351900  1
  O  O13  1  0.69548200  0.88499900  0.49414700  1
  O  O14  1  0.61500100  0.80451800  0.00585300  1
  O  O15  1  0.80451800  0.00585300  0.61500100  1
  O  O16  1  0.49414700  0.69548200  0.88499900  1
  O  O17  1  0.05832800  0.27648100  0.91089700  1
  O  O18  1  0.22351900  0.44167200  0.58910300  1
  O  O19  1  0.41089700  0.77648100  0.55832800  1
  O  O20  1  0.11500100  0.50585300  0.30451800  1
  O  O21  1  0.99414700  0.38499900  0.19548200  1
  O  O22  1  0.27648100  0.91089700  0.05832800  1
  O  O23  1  0.08910300  0.94167200  0.72351900  1
loop_
_geom_bond_atom_site_label_1
_geom_bond_atom_site_label_2
_geom_bond_distance
_geom_bond_site_symmetry_2
Co0 O12 1.994642 1_555
Co0 O18 1.994642 1_555
Co0 O4 1.994642 1_555
Co0 O9 2.000088 1_555
Co0 O8 2.000088 1_555
Co0 O20 2.000088 1_555
Co1 O0 1.994642 1_455
Co1 O17 1.994642 1_554
Co1 O22 1.994642 1_545
Co1 O10 2.000088 1_554
Co1 O7 2.000088 1_545
Co1 O21 2.000088 1_455
Co2 O11 1.994642 1_555
Co2 O5 1.994642 1_555
Co2 O19 1.994642 1_555
Co2 O13 2.000088 1_555
Co2 O16 2.000088 1_555
Co2 O2 2.000088 1_555
Co3 O23 1.994642 1_655
Co3 O6 1.994642 1_556
Co3 O1 1.994642 1_565
Co3 O14 2.000088 1_556
Co3 O15 2.000088 1_565
Co3 O3 2.000088 1_655
O0 S0 1.484279 1_555
O1 S2 1.484279 1_555
O2 S4 1.475538 1_655
O3 S4 1.475538 1_555
O4 S0 1.484279 1_555
O5 S1 1.484279 1_555
O6 S1 1.484279 1_555
O7 S5 1.475538 1_555
O8 S2 1.475538 1_554
O9 S5 1.475538 1_545
O10 S2 1.475538 1_555
O11 S2 1.484279 1_555
O12 S3 1.484279 1_555
O13 S0 1.475538 1_565
O14 S3 1.475538 1_555
O15 S0 1.475538 1_555
O16 S3 1.475538 1_556
O17 S4 1.484279 1_555
O18 S4 1.484279 1_555
O19 S5 1.484279 1_555
O20 S1 1.475538 1_455
O21 S1 1.475538 1_555
O22 S3 1.484279 1_555
O23 S5 1.484279 1_555
