# generated using pymatgen
data_Li2Cr3CoO8
_symmetry_space_group_name_H-M   'P 1'
_cell_length_a   5.85986880
_cell_length_b   5.85986880
_cell_length_c   5.97699474
_cell_angle_alpha   60.28169449
_cell_angle_beta   60.28169449
_cell_angle_gamma   59.84393049
_symmetry_Int_Tables_number   1
_chemical_formula_structural   Li2Cr3CoO8
_chemical_formula_sum   'Li2 Cr3 Co1 O8'
_cell_volume   145.56620983
_cell_formula_units_Z   1
loop_
 _symmetry_equiv_pos_site_id
 _symmetry_equiv_pos_as_xyz
  1  'x, y, z'
loop_
 _atom_site_type_symbol
 _atom_site_label
 _atom_site_symmetry_multiplicity
 _atom_site_fract_x
 _atom_site_fract_y
 _atom_site_fract_z
 _atom_site_occupancy
  Li  Li0  1  0.50000000  0.00000000  0.50000000  1
  Li  Li1  1  0.00000000  0.50000000  0.50000000  1
  Cr  Cr0  1  0.50000000  0.00000000  0.00000000  1
  Cr  Cr1  1  0.00000000  0.50000000  0.00000000  1
  Cr  Cr2  1  0.50000000  0.50000000  0.00000000  1
  Co  Co0  1  0.00000000  0.00000000  0.00000000  1
  O  O0  1  0.22885300  0.22885300  0.78834900  1
  O  O1  1  0.74784300  0.23637700  0.79543400  1
  O  O2  1  0.23637700  0.74784300  0.79543400  1
  O  O3  1  0.73038200  0.73038200  0.78713500  1
  O  O4  1  0.26961800  0.26961800  0.21286500  1
  O  O5  1  0.76362300  0.25215700  0.20456600  1
  O  O6  1  0.25215700  0.76362300  0.20456600  1
  O  O7  1  0.77114700  0.77114700  0.21165100  1
loop_
_geom_bond_atom_site_label_1
_geom_bond_atom_site_label_2
_geom_bond_distance
_geom_bond_site_symmetry_2
Li0 O5 2.165568 1_555
Li0 O2 2.165568 1_545
Li0 O0 2.174620 1_555
Li0 O7 2.174620 1_545
Li0 O3 2.174823 1_545
Li0 O4 2.174823 1_555
Li1 O6 2.165568 1_555
Li1 O1 2.165568 1_455
Li1 O0 2.174620 1_555
Li1 O7 2.174620 1_455
Li1 O3 2.174823 1_455
Li1 O4 2.174823 1_555
Cr0 O4 2.021009 1_555
Cr0 O3 2.021009 1_544
Cr0 O7 2.023195 1_545
Cr0 O0 2.023195 1_554
Cr0 O1 2.025891 1_554
Cr0 O6 2.025891 1_545
Cr1 O4 2.021009 1_555
Cr1 O3 2.021009 1_454
Cr1 O7 2.023195 1_455
Cr1 O0 2.023195 1_554
Cr1 O2 2.025891 1_554
Cr1 O5 2.025891 1_455
Cr2 O3 1.920669 1_554
Cr2 O4 1.920669 1_555
Cr2 O5 1.961783 1_555
Cr2 O6 1.961783 1_555
Cr2 O2 1.961783 1_554
Cr2 O1 1.961783 1_554
Co0 O0 1.907882 1_554
Co0 O7 1.907882 1_445
Co0 O6 1.911193 1_545
Co0 O5 1.911193 1_455
Co0 O1 1.911193 1_454
Co0 O2 1.911193 1_544
