# generated using pymatgen
data_V3Fe2Co(PO4)6
_symmetry_space_group_name_H-M   'P 1'
_cell_length_a   8.48289733
_cell_length_b   8.48289733
_cell_length_c   8.48289734
_cell_angle_alpha   60.81662765
_cell_angle_beta   60.81662765
_cell_angle_gamma   60.81662626
_symmetry_Int_Tables_number   1
_chemical_formula_structural   V3Fe2Co(PO4)6
_chemical_formula_sum   'V3 Fe2 Co1 P6 O24'
_cell_volume   439.58546761
_cell_formula_units_Z   1
loop_
 _symmetry_equiv_pos_site_id
 _symmetry_equiv_pos_as_xyz
  1  'x, y, z'
loop_
 _atom_site_type_symbol
 _atom_site_label
 _atom_site_symmetry_multiplicity
 _atom_site_fract_x
 _atom_site_fract_y
 _atom_site_fract_z
 _atom_site_occupancy
  V  V0  1  0.35776000  0.35776000  0.35776000  1
  V  V1  1  0.14146200  0.14146200  0.14146200  1
  V  V2  1  0.64287200  0.64287200  0.64287200  1
  Fe  Fe0  1  0.99840700  0.99840700  0.99840700  1
  Fe  Fe1  1  0.49864800  0.49864800  0.49864800  1
  Co  Co0  1  0.85928900  0.85928900  0.85928900  1
  P  P0  1  0.75339900  0.03965300  0.46509000  1
  P  P1  1  0.03965300  0.46509000  0.75339900  1
  P  P2  1  0.46509000  0.75339900  0.03965300  1
  P  P3  1  0.54255500  0.24866100  0.95566300  1
  P  P4  1  0.95566300  0.54255500  0.24866100  1
  P  P5  1  0.24866100  0.95566300  0.54255500  1
  O  O0  1  0.87878100  0.49925100  0.68966000  1
  O  O1  1  0.49925100  0.68966000  0.87878100  1
  O  O2  1  0.68966000  0.87878100  0.49925100  1
  O  O3  1  0.91658200  0.05181300  0.26434800  1
  O  O4  1  0.81408900  0.00523700  0.62287300  1
  O  O5  1  0.59465200  0.23810900  0.43888600  1
  O  O6  1  0.05181300  0.26434800  0.91658200  1
  O  O7  1  0.23810900  0.43888600  0.59465200  1
  O  O8  1  0.38013700  0.18570100  0.99411100  1
  O  O9  1  0.43888600  0.59465200  0.23810900  1
  O  O10  1  0.73989900  0.08420800  0.94225300  1
  O  O11  1  0.99411100  0.38013700  0.18570100  1
  O  O12  1  0.00523700  0.62287300  0.81408900  1
  O  O13  1  0.26434800  0.91658200  0.05181300  1
  O  O14  1  0.55840300  0.41178100  0.75659400  1
  O  O15  1  0.62287300  0.81408900  0.00523700  1
  O  O16  1  0.75659400  0.55840300  0.41178100  1
  O  O17  1  0.94225300  0.73989900  0.08420800  1
  O  O18  1  0.41178100  0.75659400  0.55840300  1
  O  O19  1  0.18570100  0.99411100  0.38013700  1
  O  O20  1  0.08420800  0.94225300  0.73989900  1
  O  O21  1  0.31957500  0.10893100  0.50067700  1
  O  O22  1  0.50067700  0.31957500  0.10893100  1
  O  O23  1  0.10893100  0.50067700  0.31957500  1
loop_
_geom_bond_atom_site_label_1
_geom_bond_atom_site_label_2
_geom_bond_distance
_geom_bond_site_symmetry_2
Fe0 O10 2.165530 1_565
Fe0 O20 2.165530 1_655
Fe0 O17 2.165530 1_556
Fe0 O13 2.222456 1_656
Fe0 O3 2.222456 1_566
Fe0 O6 2.222456 1_665
Fe1 O18 2.175504 1_555
Fe1 O14 2.175504 1_555
Fe1 O16 2.175504 1_555
Fe1 O5 2.177070 1_555
Fe1 O9 2.177070 1_555
Fe1 O7 2.177070 1_555
Co0 O12 1.888755 1_655
Co0 O4 1.888755 1_565
Co0 O15 1.888755 1_556
Co0 O10 1.972637 1_565
Co0 O17 1.972637 1_556
Co0 O20 1.972637 1_655
O0 P1 1.555550 1_655
O0 V2 1.889963 1_555
O1 P2 1.555550 1_556
O1 V2 1.889963 1_555
O2 P0 1.555550 1_565
O2 V2 1.889963 1_555
O3 P0 1.579797 1_555
O3 V1 2.001610 1_655
O4 P0 1.511982 1_555
O5 P0 1.553411 1_555
O5 V0 2.054357 1_555
O6 P1 1.579797 1_555
O6 V1 2.001610 1_556
O7 P1 1.553411 1_555
O7 V0 2.054357 1_555
O8 P3 1.548998 1_555
O8 V1 1.902097 1_556
O9 P2 1.553411 1_555
O9 V0 2.054357 1_555
O10 P3 1.566232 1_555
O11 P4 1.548997 1_555
O11 V1 1.902097 1_655
O12 P1 1.511982 1_555
O13 P2 1.579797 1_555
O13 V1 2.001610 1_565
O14 P3 1.570251 1_555
O14 V2 2.034310 1_555
O15 P2 1.511982 1_555
O16 P4 1.570251 1_555
O16 V2 2.034310 1_555
O17 P4 1.566233 1_555
O18 P5 1.570251 1_555
O18 V2 2.034310 1_555
O19 P5 1.548997 1_555
O19 V1 1.902097 1_565
O20 P5 1.566233 1_555
O21 P5 1.510754 1_545
O21 V0 1.954067 1_555
O22 P3 1.510754 1_554
O22 V0 1.954067 1_555
O23 P4 1.510754 1_455
O23 V0 1.954067 1_555
