# generated using pymatgen
data_RbNa3Mo2H18O17
_symmetry_space_group_name_H-M   'P 1'
_cell_length_a   9.72382571
_cell_length_b   9.72382571
_cell_length_c   12.29869200
_cell_angle_alpha   90.00000000
_cell_angle_beta   90.00000000
_cell_angle_gamma   119.99999801
_symmetry_Int_Tables_number   1
_chemical_formula_structural   RbNa3Mo2H18O17
_chemical_formula_sum   'Rb2 Na6 Mo4 H36 O34'
_cell_volume   1007.07982909
_cell_formula_units_Z   2
loop_
 _symmetry_equiv_pos_site_id
 _symmetry_equiv_pos_as_xyz
  1  'x, y, z'
loop_
 _atom_site_type_symbol
 _atom_site_label
 _atom_site_symmetry_multiplicity
 _atom_site_fract_x
 _atom_site_fract_y
 _atom_site_fract_z
 _atom_site_occupancy
  Rb  Rb0  1  0.00000000  0.00000000  0.25000000  1
  Rb  Rb1  1  0.00000000  0.00000000  0.75000000  1
  Na  Na0  1  0.16662200  0.70959800  0.75000000  1
  Na  Na1  1  0.54297600  0.83337800  0.75000000  1
  Na  Na2  1  0.29040200  0.45702400  0.75000000  1
  Na  Na3  1  0.83337800  0.29040200  0.25000000  1
  Na  Na4  1  0.45702400  0.16662200  0.25000000  1
  Na  Na5  1  0.70959800  0.54297600  0.25000000  1
  Mo  Mo0  1  0.33333300  0.66666700  0.02396500  1
  Mo  Mo1  1  0.66666700  0.33333300  0.52396500  1
  Mo  Mo2  1  0.66666700  0.33333300  0.97603500  1
  Mo  Mo3  1  0.33333300  0.66666700  0.47603500  1
  H  H0  1  0.42061100  0.04983700  0.81397100  1
  H  H1  1  0.62922700  0.57938900  0.81397100  1
  H  H2  1  0.95016300  0.37077300  0.81397100  1
  H  H3  1  0.57938900  0.95016300  0.31397100  1
  H  H4  1  0.37077300  0.42061100  0.31397100  1
  H  H5  1  0.04983700  0.62922700  0.31397100  1
  H  H6  1  0.57938900  0.95016300  0.18602900  1
  H  H7  1  0.37077300  0.42061100  0.18602900  1
  H  H8  1  0.04983700  0.62922700  0.18602900  1
  H  H9  1  0.42061100  0.04983700  0.68602900  1
  H  H10  1  0.62922700  0.57938900  0.68602900  1
  H  H11  1  0.95016300  0.37077300  0.68602900  1
  H  H12  1  0.74790000  0.66434600  0.04877300  1
  H  H13  1  0.91644600  0.25210000  0.04877300  1
  H  H14  1  0.33565400  0.08355400  0.04877300  1
  H  H15  1  0.25210000  0.33565400  0.54877300  1
  H  H16  1  0.08355400  0.74790000  0.54877300  1
  H  H17  1  0.66434600  0.91644600  0.54877300  1
  H  H18  1  0.25210000  0.33565400  0.95122700  1
  H  H19  1  0.08355400  0.74790000  0.95122700  1
  H  H20  1  0.66434600  0.91644600  0.95122700  1
  H  H21  1  0.74790000  0.66434600  0.45122700  1
  H  H22  1  0.91644600  0.25210000  0.45122700  1
  H  H23  1  0.33565400  0.08355400  0.45122700  1
  H  H24  1  0.67611500  0.76087400  0.10014400  1
  H  H25  1  0.08475800  0.32388500  0.10014400  1
  H  H26  1  0.23912600  0.91524200  0.10014400  1
  H  H27  1  0.32388500  0.23912600  0.60014400  1
  H  H28  1  0.91524200  0.67611500  0.60014400  1
  H  H29  1  0.76087400  0.08475800  0.60014400  1
  H  H30  1  0.32388500  0.23912600  0.89985600  1
  H  H31  1  0.91524200  0.67611500  0.89985600  1
  H  H32  1  0.76087400  0.08475800  0.89985600  1
  H  H33  1  0.67611500  0.76087400  0.39985600  1
  H  H34  1  0.08475800  0.32388500  0.39985600  1
  H  H35  1  0.23912600  0.91524200  0.39985600  1
  O  O0  1  0.33333300  0.66666700  0.87914600  1
  O  O1  1  0.66666700  0.33333300  0.37914600  1
  O  O2  1  0.66666700  0.33333300  0.12085400  1
  O  O3  1  0.33333300  0.66666700  0.62085400  1
  O  O4  1  0.18621000  0.71466700  0.07106500  1
  O  O5  1  0.52845800  0.81379000  0.07106500  1
  O  O6  1  0.28533300  0.47154200  0.07106500  1
  O  O7  1  0.81379000  0.28533300  0.57106500  1
  O  O8  1  0.47154200  0.18621000  0.57106500  1
  O  O9  1  0.71466700  0.52845800  0.57106500  1
  O  O10  1  0.81379000  0.28533300  0.92893500  1
  O  O11  1  0.47154200  0.18621000  0.92893500  1
  O  O12  1  0.71466700  0.52845800  0.92893500  1
  O  O13  1  0.18621000  0.71466700  0.42893500  1
  O  O14  1  0.52845800  0.81379000  0.42893500  1
  O  O15  1  0.28533300  0.47154200  0.42893500  1
  O  O16  1  0.39347000  0.97924500  0.75000000  1
  O  O17  1  0.58577500  0.60653000  0.75000000  1
  O  O18  1  0.02075500  0.41422500  0.75000000  1
  O  O19  1  0.60653000  0.02075500  0.25000000  1
  O  O20  1  0.41422500  0.39347000  0.25000000  1
  O  O21  1  0.97924500  0.58577500  0.25000000  1
  O  O22  1  0.75676900  0.72876300  0.11298300  1
  O  O23  1  0.97199300  0.24323100  0.11298300  1
  O  O24  1  0.27123700  0.02800700  0.11298300  1
  O  O25  1  0.24323100  0.27123700  0.61298300  1
  O  O26  1  0.02800700  0.75676900  0.61298300  1
  O  O27  1  0.72876300  0.97199300  0.61298300  1
  O  O28  1  0.24323100  0.27123700  0.88701700  1
  O  O29  1  0.02800700  0.75676900  0.88701700  1
  O  O30  1  0.72876300  0.97199300  0.88701700  1
  O  O31  1  0.75676900  0.72876300  0.38701700  1
  O  O32  1  0.97199300  0.24323100  0.38701700  1
  O  O33  1  0.27123700  0.02800700  0.38701700  1
loop_
_geom_bond_atom_site_label_1
_geom_bond_atom_site_label_2
_geom_bond_distance
_geom_bond_site_symmetry_2
Na0 O29 2.342017 1_555
Na0 O26 2.342017 1_555
Na0 O16 2.440673 1_555
Na0 O0 2.449823 1_555
Na0 O3 2.449823 1_555
Na0 O18 2.487423 1_555
Na1 O30 2.342022 1_555
Na1 O27 2.342022 1_555
Na1 O17 2.440673 1_555
Na1 O0 2.449828 1_555
Na1 O3 2.449828 1_555
Na1 O16 2.487423 1_555
Na2 O28 2.342024 1_555
Na2 O25 2.342024 1_555
Na2 O18 2.440673 1_555
Na2 O3 2.449831 1_555
Na2 O0 2.449831 1_555
Na2 O17 2.487423 1_555
Na3 O23 2.342017 1_555
Na3 O32 2.342017 1_555
Na3 O19 2.440673 1_555
Na3 O1 2.449823 1_555
Na3 O2 2.449823 1_555
Na3 O21 2.487423 1_555
Na4 O24 2.342022 1_555
Na4 O33 2.342022 1_555
Na4 O20 2.440673 1_555
Na4 O1 2.449828 1_555
Na4 O2 2.449828 1_555
Na4 O19 2.487423 1_555
Na5 O22 2.342024 1_555
Na5 O31 2.342024 1_555
Na5 O21 2.440673 1_555
Na5 O1 2.449831 1_555
Na5 O2 2.449831 1_555
Na5 O20 2.487423 1_555
Mo0 O0 1.781084 1_554
Mo0 O4 1.807688 1_555
Mo0 O5 1.807701 1_555
Mo0 O6 1.807706 1_555
Mo1 O1 1.781084 1_555
Mo1 O7 1.807688 1_555
Mo1 O8 1.807701 1_555
Mo1 O9 1.807706 1_555
Mo2 O2 1.781084 1_556
Mo2 O10 1.807688 1_555
Mo2 O11 1.807701 1_555
Mo2 O12 1.807706 1_555
Mo3 O3 1.781084 1_555
Mo3 O13 1.807688 1_555
Mo3 O14 1.807701 1_555
Mo3 O15 1.807706 1_555
H0 O16 0.989274 1_545
H1 O17 0.989279 1_555
H2 O18 0.989275 1_655
H3 O19 0.989274 1_565
H4 O20 0.989279 1_555
H5 O21 0.989275 1_455
H6 O19 0.989274 1_565
H7 O20 0.989279 1_555
H8 O21 0.989275 1_455
H9 O16 0.989274 1_545
H10 O17 0.989279 1_555
H11 O18 0.989275 1_655
H12 O22 0.984578 1_555
H13 O23 0.984572 1_555
H14 O24 0.984576 1_555
H15 O25 0.984578 1_555
H16 O26 0.984572 1_555
H17 O27 0.984576 1_555
H18 O28 0.984578 1_555
H19 O29 0.984572 1_555
H20 O30 0.984576 1_555
H21 O31 0.984578 1_555
H22 O32 0.984572 1_555
H23 O33 0.984576 1_555
H24 O22 0.991151 1_555
H25 O23 0.991151 1_455
H26 O24 0.991151 1_565
H27 O25 0.991151 1_555
H28 O26 0.991151 1_655
H29 O27 0.991151 1_545
H30 O28 0.991151 1_555
H31 O29 0.991151 1_655
H32 O30 0.991151 1_545
H33 O31 0.991151 1_555
H34 O32 0.991151 1_455
H35 O33 0.991151 1_565
O22 Rb0 3.025191 1_665
O23 Rb0 3.025195 1_655
O24 Rb0 3.025187 1_555
O25 Rb1 3.025191 1_555
O26 Rb1 3.025195 1_565
O27 Rb1 3.025187 1_665
O28 Rb1 3.025191 1_555
O29 Rb1 3.025195 1_565
O30 Rb1 3.025187 1_665
O31 Rb0 3.025191 1_665
O32 Rb0 3.025195 1_655
O33 Rb0 3.025187 1_555
