# generated using pymatgen
data_Li3MnAl2O6
_symmetry_space_group_name_H-M   'P 1'
_cell_length_a   10.33138300
_cell_length_b   5.92341400
_cell_length_c   9.91382181
_cell_angle_alpha   53.65043319
_cell_angle_beta   90.00000000
_cell_angle_gamma   90.00000000
_symmetry_Int_Tables_number   1
_chemical_formula_structural   Li3MnAl2O6
_chemical_formula_sum   'Li12 Mn4 Al8 O24'
_cell_volume   488.64315327
_cell_formula_units_Z   4
loop_
 _symmetry_equiv_pos_site_id
 _symmetry_equiv_pos_as_xyz
  1  'x, y, z'
loop_
 _atom_site_type_symbol
 _atom_site_label
 _atom_site_symmetry_multiplicity
 _atom_site_fract_x
 _atom_site_fract_y
 _atom_site_fract_z
 _atom_site_occupancy
  Li  Li0  1  0.50164600  0.21394500  0.13468100  1
  Li  Li1  1  0.84833300  0.18858400  0.12516600  1
  Li  Li2  1  0.49585600  0.73871500  0.61751100  1
  Li  Li3  1  0.34833300  0.81141600  0.37483400  1
  Li  Li4  1  0.99585600  0.26128500  0.88248900  1
  Li  Li5  1  0.00164600  0.78605500  0.36531900  1
  Li  Li6  1  0.99835400  0.21394500  0.63468100  1
  Li  Li7  1  0.00414400  0.73871500  0.11751100  1
  Li  Li8  1  0.65166700  0.18858400  0.62516600  1
  Li  Li9  1  0.50414400  0.26128500  0.38248900  1
  Li  Li10  1  0.15166700  0.81141600  0.87483400  1
  Li  Li11  1  0.49835400  0.78605500  0.86531900  1
  Mn  Mn0  1  0.16561800  0.71005500  0.62656700  1
  Mn  Mn1  1  0.66561800  0.28994500  0.87343300  1
  Mn  Mn2  1  0.33438200  0.71005500  0.12656700  1
  Mn  Mn3  1  0.83438200  0.28994500  0.37343300  1
  Al  Al0  1  0.16526300  0.21667900  0.11624800  1
  Al  Al1  1  0.84189100  0.70193400  0.62576500  1
  Al  Al2  1  0.66526300  0.78332100  0.38375200  1
  Al  Al3  1  0.34189100  0.29806600  0.87423500  1
  Al  Al4  1  0.65810900  0.70193400  0.12576500  1
  Al  Al5  1  0.33473700  0.21667900  0.61624800  1
  Al  Al6  1  0.15810900  0.29806600  0.37423500  1
  Al  Al7  1  0.83473700  0.78332100  0.88375200  1
  O  O0  1  0.17077300  0.97774600  0.38559600  1
  O  O1  1  0.82878300  0.49881000  0.86311500  1
  O  O2  1  0.52074200  0.93635600  0.37727200  1
  O  O3  1  0.49599900  0.43605300  0.87234200  1
  O  O4  1  0.19041400  0.46996600  0.86863100  1
  O  O5  1  0.81933200  0.92946400  0.38599800  1
  O  O6  1  0.31933200  0.07053600  0.11400200  1
  O  O7  1  0.69041400  0.53003400  0.63136900  1
  O  O8  1  0.99599900  0.56394700  0.62765800  1
  O  O9  1  0.02074200  0.06364400  0.12272800  1
  O  O10  1  0.67077300  0.02225400  0.11440400  1
  O  O11  1  0.32878300  0.50119000  0.63688500  1
  O  O12  1  0.67121700  0.49881000  0.36311500  1
  O  O13  1  0.32922700  0.97774600  0.88559600  1
  O  O14  1  0.97925800  0.93635600  0.87727200  1
  O  O15  1  0.00400100  0.43605300  0.37234200  1
  O  O16  1  0.30958600  0.46996600  0.36863100  1
  O  O17  1  0.68066800  0.92946400  0.88599800  1
  O  O18  1  0.18066800  0.07053600  0.61400200  1
  O  O19  1  0.80958600  0.53003400  0.13136900  1
  O  O20  1  0.50400100  0.56394700  0.12765800  1
  O  O21  1  0.47925800  0.06364400  0.62272800  1
  O  O22  1  0.17121700  0.50119000  0.13688500  1
  O  O23  1  0.82922700  0.02225400  0.61440400  1
loop_
_geom_bond_atom_site_label_1
_geom_bond_atom_site_label_2
_geom_bond_distance
_geom_bond_site_symmetry_2
Li0 O2 1.959305 1_545
Li0 O20 2.032859 1_555
Li0 O3 2.107661 1_554
Li0 O6 2.125524 1_555
Li0 O10 2.157170 1_555
Li1 O9 1.934490 1_655
Li1 O19 2.098137 1_555
Li1 O5 2.104121 1_545
Li1 O10 2.114678 1_555
Li1 O1 2.123124 1_554
Li2 O2 1.950342 1_555
Li2 O21 1.963291 1_565
Li2 O3 2.056093 1_555
Li2 O11 2.162287 1_555
Li2 O7 2.320739 1_555
Li3 O2 1.934490 1_555
Li3 O16 2.098137 1_555
Li3 O6 2.104121 1_565
Li3 O0 2.114678 1_555
Li3 O11 2.123124 1_555
Li4 O9 1.950342 1_656
Li4 O14 1.963291 1_545
Li4 O8 2.056093 1_555
Li4 O1 2.162287 1_555
Li4 O4 2.320739 1_655
Li5 O9 1.959305 1_565
Li5 O15 2.032859 1_555
Li5 O8 2.107661 1_455
Li5 O5 2.125524 1_455
Li5 O0 2.157170 1_555
Li6 O14 1.959305 1_545
Li6 O8 2.032859 1_555
Li6 O15 2.107661 1_655
Li6 O18 2.125524 1_655
Li6 O23 2.157170 1_555
Li7 O14 1.950342 1_454
Li7 O9 1.963291 1_565
Li7 O15 2.056093 1_555
Li7 O22 2.162287 1_555
Li7 O19 2.320739 1_455
Li8 O21 1.934490 1_555
Li8 O7 2.098137 1_555
Li8 O17 2.104121 1_545
Li8 O23 2.114678 1_555
Li8 O12 2.123124 1_555
Li9 O21 1.950342 1_555
Li9 O2 1.963291 1_545
Li9 O20 2.056093 1_555
Li9 O12 2.162287 1_555
Li9 O16 2.320739 1_555
Li10 O14 1.934490 1_455
Li10 O4 2.098137 1_555
Li10 O18 2.104121 1_565
Li10 O13 2.114678 1_555
Li10 O22 2.123124 1_556
Li11 O21 1.959305 1_565
Li11 O3 2.032859 1_555
Li11 O20 2.107661 1_556
Li11 O17 2.125524 1_555
Li11 O13 2.157170 1_555
Mn0 O0 1.932296 1_555
Mn0 O4 1.949723 1_555
Mn0 O8 1.951651 1_455
Mn0 O11 2.057364 1_555
Mn0 O18 2.069735 1_565
Mn1 O10 1.932296 1_556
Mn1 O7 1.949723 1_555
Mn1 O3 1.951651 1_555
Mn1 O1 2.057364 1_555
Mn1 O17 2.069735 1_545
Mn2 O13 1.932296 1_554
Mn2 O16 1.949723 1_555
Mn2 O20 1.951651 1_555
Mn2 O22 2.057364 1_555
Mn2 O6 2.069735 1_565
Mn3 O23 1.932296 1_555
Mn3 O19 1.949723 1_555
Mn3 O15 1.951651 1_655
Mn3 O12 2.057364 1_555
Mn3 O5 2.069735 1_545
Al0 O9 1.728054 1_555
Al0 O22 1.815082 1_555
Al0 O6 1.818344 1_555
Al0 O4 1.994676 1_554
Al0 O0 2.157932 1_545
Al1 O8 1.784706 1_555
Al1 O23 1.837541 1_565
Al1 O7 1.849852 1_555
Al1 O1 1.909637 1_555
Al1 O5 1.929582 1_555
Al2 O2 1.728054 1_555
Al2 O12 1.815082 1_555
Al2 O5 1.818344 1_555
Al2 O7 1.994676 1_555
Al2 O10 2.157932 1_565
Al3 O3 1.784706 1_555
Al3 O13 1.837541 1_545
Al3 O4 1.849852 1_555
Al3 O11 1.909637 1_555
Al3 O6 1.929582 1_556
Al4 O20 1.784706 1_555
Al4 O10 1.837541 1_565
Al4 O19 1.849852 1_555
Al4 O12 1.909637 1_555
Al4 O17 1.929582 1_554
Al5 O21 1.728054 1_555
Al5 O11 1.815082 1_555
Al5 O18 1.818344 1_555
Al5 O16 1.994676 1_555
Al5 O13 2.157932 1_545
Al6 O15 1.784706 1_555
Al6 O0 1.837541 1_545
Al6 O16 1.849852 1_555
Al6 O22 1.909637 1_555
Al6 O18 1.929582 1_555
Al7 O14 1.728054 1_555
Al7 O1 1.815082 1_555
Al7 O17 1.818344 1_555
Al7 O19 1.994676 1_556
Al7 O23 2.157932 1_565
