# generated using pymatgen
data_Na2CoBAsO7
_symmetry_space_group_name_H-M   'P 1'
_cell_length_a   6.41568300
_cell_length_b   5.40222100
_cell_length_c   9.21835208
_cell_angle_alpha   87.11259936
_cell_angle_beta   90.00000000
_cell_angle_gamma   90.00000000
_symmetry_Int_Tables_number   1
_chemical_formula_structural   Na2CoBAsO7
_chemical_formula_sum   'Na4 Co2 B2 As2 O14'
_cell_volume   319.09267165
_cell_formula_units_Z   2
loop_
 _symmetry_equiv_pos_site_id
 _symmetry_equiv_pos_as_xyz
  1  'x, y, z'
loop_
 _atom_site_type_symbol
 _atom_site_label
 _atom_site_symmetry_multiplicity
 _atom_site_fract_x
 _atom_site_fract_y
 _atom_site_fract_z
 _atom_site_occupancy
  Na  Na0  1  0.00029700  0.76491800  0.77895500  1
  Na  Na1  1  0.49970300  0.76491800  0.77895500  1
  Na  Na2  1  0.50029700  0.23508200  0.22104500  1
  Na  Na3  1  0.99970300  0.23508200  0.22104500  1
  Co  Co0  1  0.25000000  0.21789900  0.66603500  1
  Co  Co1  1  0.75000000  0.78210100  0.33396500  1
  B  B0  1  0.25000000  0.27019100  0.92068500  1
  B  B1  1  0.75000000  0.72980900  0.07931500  1
  As  As0  1  0.75000000  0.28638300  0.56579400  1
  As  As1  1  0.25000000  0.71361700  0.43420600  1
  O  O0  1  0.75000000  0.69521600  0.93885100  1
  O  O1  1  0.25000000  0.04701100  0.85139200  1
  O  O2  1  0.25000000  0.45694700  0.80731000  1
  O  O3  1  0.95384200  0.20342500  0.68254400  1
  O  O4  1  0.54615800  0.20342500  0.68254400  1
  O  O5  1  0.25000000  0.87410800  0.58920800  1
  O  O6  1  0.75000000  0.60364900  0.52859700  1
  O  O7  1  0.25000000  0.39635100  0.47140300  1
  O  O8  1  0.75000000  0.12589200  0.41079200  1
  O  O9  1  0.45384200  0.79657500  0.31745600  1
  O  O10  1  0.04615800  0.79657500  0.31745600  1
  O  O11  1  0.75000000  0.54305300  0.19269000  1
  O  O12  1  0.75000000  0.95298900  0.14860800  1
  O  O13  1  0.25000000  0.30478400  0.06114900  1
loop_
_geom_bond_atom_site_label_1
_geom_bond_atom_site_label_2
_geom_bond_distance
_geom_bond_site_symmetry_2
Na0 O0 2.199354 1_455
Na0 O2 2.314941 1_555
Na0 O1 2.331785 1_565
Na0 O5 2.422807 1_555
Na0 O3 2.505661 1_465
Na0 O6 2.977684 1_455
Na1 O0 2.199354 1_555
Na1 O2 2.314941 1_555
Na1 O1 2.331785 1_565
Na1 O5 2.422807 1_555
Na1 O4 2.505661 1_565
Na1 O6 2.977684 1_555
Na2 O13 2.199354 1_555
Na2 O11 2.314941 1_555
Na2 O12 2.331785 1_545
Na2 O8 2.422807 1_555
Na2 O9 2.505661 1_545
Na2 O7 2.977684 1_555
Na3 O13 2.199354 1_655
Na3 O11 2.314941 1_555
Na3 O12 2.331785 1_545
Na3 O8 2.422807 1_555
Na3 O10 2.505661 1_645
Na3 O7 2.977684 1_655
Co0 O2 1.879673 1_555
Co0 O1 1.900774 1_555
Co0 O4 1.907430 1_555
Co0 O3 1.907430 1_455
Co0 O7 1.993543 1_555
Co0 O5 2.020745 1_545
Co1 O11 1.879673 1_555
Co1 O12 1.900774 1_555
Co1 O10 1.907430 1_655
Co1 O9 1.907430 1_555
Co1 O6 1.993543 1_555
Co1 O8 2.020745 1_565
B0 O13 1.317547 1_556
B0 O1 1.392569 1_555
B0 O2 1.415606 1_555
B1 O0 1.317547 1_554
B1 O12 1.392569 1_555
B1 O11 1.415606 1_555
As0 O8 1.708262 1_555
As0 O6 1.730885 1_555
As0 O3 1.738060 1_555
As0 O4 1.738060 1_555
As1 O5 1.708262 1_555
As1 O7 1.730885 1_555
As1 O10 1.738060 1_555
As1 O9 1.738060 1_555
