# generated using pymatgen
data_Li4Mn3Nb2Cu3O16
_symmetry_space_group_name_H-M   'P 1'
_cell_length_a   5.93680984
_cell_length_b   5.89346769
_cell_length_c   9.79279867
_cell_angle_alpha   90.28021490
_cell_angle_beta   87.58984365
_cell_angle_gamma   118.82839633
_symmetry_Int_Tables_number   1
_chemical_formula_structural   Li4Mn3Nb2Cu3O16
_chemical_formula_sum   'Li4 Mn3 Nb2 Cu3 O16'
_cell_volume   299.85902991
_cell_formula_units_Z   1
loop_
 _symmetry_equiv_pos_site_id
 _symmetry_equiv_pos_as_xyz
  1  'x, y, z'
loop_
 _atom_site_type_symbol
 _atom_site_label
 _atom_site_symmetry_multiplicity
 _atom_site_fract_x
 _atom_site_fract_y
 _atom_site_fract_z
 _atom_site_occupancy
  Li  Li0  1  0.34628300  0.67635900  0.90386000  1
  Li  Li1  1  0.98958700  0.99553400  0.99336900  1
  Li  Li2  1  0.99279000  0.99456800  0.48575500  1
  Li  Li3  1  0.67537500  0.33318700  0.40225100  1
  Mn  Mn0  1  0.65691000  0.83087100  0.22044600  1
  Mn  Mn1  1  0.82857700  0.66238200  0.71515000  1
  Mn  Mn2  1  0.82622900  0.16412300  0.71610400  1
  Nb  Nb0  1  0.30964800  0.64441300  0.48510500  1
  Nb  Nb1  1  0.65964700  0.33537100  0.99544700  1
  Cu  Cu0  1  0.16462300  0.83003300  0.21113000  1
  Cu  Cu1  1  0.16350300  0.33549900  0.20960200  1
  Cu  Cu2  1  0.33782900  0.16818300  0.71382200  1
  O  O0  1  0.14575800  0.81609000  0.58773700  1
  O  O1  1  0.04178600  0.49939900  0.35754900  1
  O  O2  1  0.34302200  0.67026900  0.12087400  1
  O  O3  1  0.99284700  0.99968400  0.29602500  1
  O  O4  1  0.99537900  0.99599600  0.80437200  1
  O  O5  1  0.15285500  0.32268800  0.59489500  1
  O  O6  1  0.50261200  0.96991700  0.34571600  1
  O  O7  1  0.53379200  0.55774400  0.35505000  1
  O  O8  1  0.32348600  0.18062600  0.07296600  1
  O  O9  1  0.67892300  0.84124900  0.60950300  1
  O  O10  1  0.54929400  0.51445900  0.84317400  1
  O  O11  1  0.53876000  0.04145000  0.84013700  1
  O  O12  1  0.67587500  0.33742500  0.61564200  1
  O  O13  1  0.81613800  0.66300600  0.09469100  1
  O  O14  1  0.96623800  0.48155300  0.82848800  1
  O  O15  1  0.79223300  0.13822000  0.08897500  1
loop_
_geom_bond_atom_site_label_1
_geom_bond_atom_site_label_2
_geom_bond_distance
_geom_bond_site_symmetry_2
Li0 O10 1.938919 1_555
Li0 O11 1.976571 1_565
Li0 O2 2.124769 1_556
Li0 O14 2.141790 1_455
Li1 O4 1.849674 1_555
Li1 O8 1.939926 1_666
Li1 O15 1.951070 1_566
Li1 O13 1.967847 1_556
Li2 O3 1.858363 1_555
Li2 O0 1.984000 1_655
Li2 O9 1.988523 1_555
Li2 O5 2.019364 1_665
Li3 O1 1.937090 1_655
Li3 O7 1.945008 1_555
Li3 O6 1.964832 1_545
Li3 O12 2.089832 1_555
Mn0 O6 1.906598 1_555
Mn0 O7 1.915171 1_555
Mn0 O3 1.928376 1_555
Mn0 O2 1.939614 1_555
Mn0 O15 2.028902 1_565
Mn0 O13 2.044740 1_555
Mn1 O10 1.876919 1_555
Mn1 O4 1.946299 1_555
Mn1 O12 1.954698 1_555
Mn1 O9 1.990513 1_555
Mn1 O14 1.990813 1_555
Mn1 O0 2.022796 1_655
Mn2 O11 1.885472 1_555
Mn2 O12 1.941827 1_555
Mn2 O4 1.943800 1_545
Mn2 O9 1.981904 1_545
Mn2 O14 1.989745 1_555
Mn2 O5 2.027829 1_655
Nb0 O1 1.914568 1_555
Nb0 O0 1.959003 1_555
Nb0 O5 1.962451 1_555
Nb0 O7 2.039682 1_555
Nb0 O6 2.151842 1_555
Nb0 O9 2.322539 1_555
Nb1 O8 1.874840 1_556
Nb1 O15 1.939464 1_556
Nb1 O13 1.965620 1_556
Nb1 O10 2.128662 1_555
Nb1 O11 2.167019 1_555
Nb1 O14 2.231521 1_555
Cu0 O3 1.906486 1_455
Cu0 O2 1.914241 1_555
Cu0 O13 2.184701 1_455
Cu0 O1 2.225692 1_555
Cu0 O8 2.242786 1_565
Cu0 O6 2.249343 1_555
Cu1 O3 1.915774 1_445
Cu1 O2 1.922101 1_555
Cu1 O1 2.031173 1_555
Cu1 O8 2.059796 1_555
Cu1 O15 2.310772 1_455
Cu1 O7 2.458720 1_555
Cu2 O4 1.953710 1_445
Cu2 O12 1.965609 1_555
Cu2 O5 2.115114 1_555
Cu2 O11 2.122102 1_555
Cu2 O0 2.223089 1_545
Cu2 O10 2.232286 1_555
