# generated using pymatgen
data_Ba2YI7
_symmetry_space_group_name_H-M   'P 1'
_cell_length_a   15.26648300
_cell_length_b   9.45408100
_cell_length_c   17.73307268
_cell_angle_alpha   59.21060072
_cell_angle_beta   90.00000000
_cell_angle_gamma   90.00000000
_symmetry_Int_Tables_number   1
_chemical_formula_structural   Ba2YI7
_chemical_formula_sum   'Ba8 Y4 I28'
_cell_volume   2198.68538121
_cell_formula_units_Z   4
loop_
 _symmetry_equiv_pos_site_id
 _symmetry_equiv_pos_as_xyz
  1  'x, y, z'
loop_
 _atom_site_type_symbol
 _atom_site_label
 _atom_site_symmetry_multiplicity
 _atom_site_fract_x
 _atom_site_fract_y
 _atom_site_fract_z
 _atom_site_occupancy
  Ba  Ba0  1  0.26906400  0.84911100  0.45572300  1
  Ba  Ba1  1  0.29345300  0.43865900  0.74808500  1
  Ba  Ba2  1  0.79345300  0.56134100  0.75191500  1
  Ba  Ba3  1  0.23093600  0.84911100  0.95572300  1
  Ba  Ba4  1  0.76906400  0.15088900  0.04427700  1
  Ba  Ba5  1  0.20654700  0.43865900  0.24808500  1
  Ba  Ba6  1  0.70654700  0.56134100  0.25191500  1
  Ba  Ba7  1  0.73093600  0.15088900  0.54427700  1
  Y  Y0  1  0.69543300  0.93556000  0.33510000  1
  Y  Y1  1  0.80456700  0.93556000  0.83510000  1
  Y  Y2  1  0.19543300  0.06444000  0.16490000  1
  Y  Y3  1  0.30456700  0.06444000  0.66490000  1
  I  I0  1  0.58779500  0.94296000  0.18921300  1
  I  I1  1  0.84964600  0.84430000  0.25999300  1
  I  I2  1  0.26291000  0.72058800  0.30685100  1
  I  I3  1  0.41330400  0.84194000  0.61864300  1
  I  I4  1  0.91220500  0.94296000  0.68921300  1
  I  I5  1  0.12188500  0.65339400  0.61194800  1
  I  I6  1  0.78214400  0.81793200  0.51444900  1
  I  I7  1  0.37223700  0.42860300  0.56766200  1
  I  I8  1  0.65035400  0.84430000  0.75999300  1
  I  I9  1  0.23709000  0.72058800  0.80685100  1
  I  I10  1  0.87223700  0.57139700  0.93233800  1
  I  I11  1  0.28214400  0.18206800  0.98555100  1
  I  I12  1  0.62188500  0.34660600  0.88805200  1
  I  I13  1  0.08669600  0.84194000  0.11864300  1
  I  I14  1  0.91330400  0.15806000  0.88135700  1
  I  I15  1  0.37811500  0.65339400  0.11194800  1
  I  I16  1  0.71785600  0.81793200  0.01444900  1
  I  I17  1  0.12776300  0.42860300  0.06766200  1
  I  I18  1  0.76291000  0.27941200  0.19314900  1
  I  I19  1  0.34964600  0.15570000  0.24000700  1
  I  I20  1  0.62776300  0.57139700  0.43233800  1
  I  I21  1  0.21785600  0.18206800  0.48555100  1
  I  I22  1  0.87811500  0.34660600  0.38805200  1
  I  I23  1  0.08779500  0.05704000  0.31078700  1
  I  I24  1  0.58669600  0.15806000  0.38135700  1
  I  I25  1  0.73709000  0.27941200  0.69314900  1
  I  I26  1  0.15035400  0.15570000  0.74000700  1
  I  I27  1  0.41220500  0.05704000  0.81078700  1
loop_
_geom_bond_atom_site_label_1
_geom_bond_atom_site_label_2
_geom_bond_distance
_geom_bond_site_symmetry_2
Ba0 I5 3.301400 1_555
Ba0 I2 3.426158 1_555
Ba0 I21 3.536125 1_565
Ba0 I23 3.599407 1_565
Ba0 I3 3.605521 1_555
Ba0 I19 3.632703 1_565
Ba0 I7 3.761236 1_555
Ba1 I9 3.431361 1_555
Ba1 I5 3.434001 1_555
Ba1 I7 3.464616 1_555
Ba1 I26 3.513067 1_555
Ba1 I11 3.631670 1_555
Ba1 I27 3.665069 1_555
Ba1 I3 3.767416 1_555
Ba2 I25 3.431361 1_555
Ba2 I12 3.434001 1_555
Ba2 I10 3.464616 1_555
Ba2 I8 3.513067 1_555
Ba2 I6 3.631670 1_555
Ba2 I4 3.665069 1_555
Ba2 I14 3.767416 1_555
Ba3 I15 3.301400 1_556
Ba3 I9 3.426158 1_555
Ba3 I11 3.536125 1_565
Ba3 I27 3.599407 1_565
Ba3 I13 3.605521 1_556
Ba3 I26 3.632703 1_565
Ba3 I17 3.761236 1_556
Ba4 I12 3.301400 1_554
Ba4 I18 3.426158 1_555
Ba4 I16 3.536125 1_545
Ba4 I0 3.599407 1_545
Ba4 I14 3.605521 1_554
Ba4 I1 3.632703 1_545
Ba4 I10 3.761236 1_554
Ba5 I2 3.431361 1_555
Ba5 I15 3.434001 1_555
Ba5 I17 3.464616 1_555
Ba5 I19 3.513067 1_555
Ba5 I21 3.631670 1_555
Ba5 I23 3.665069 1_555
Ba5 I13 3.767416 1_555
Ba6 I18 3.431361 1_555
Ba6 I22 3.434001 1_555
Ba6 I20 3.464616 1_555
Ba6 I1 3.513067 1_555
Ba6 I16 3.631670 1_555
Ba6 I0 3.665069 1_555
Ba6 I24 3.767416 1_555
Ba7 I22 3.301400 1_555
Ba7 I25 3.426158 1_555
Ba7 I6 3.536125 1_545
Ba7 I4 3.599407 1_545
Ba7 I24 3.605521 1_555
Ba7 I8 3.632703 1_545
Ba7 I20 3.761236 1_555
I0 Y0 3.035224 1_555
I1 Y0 3.039309 1_555
I2 Y2 3.096424 1_565
I3 Y3 3.101598 1_565
I4 Y1 3.035224 1_555
I6 Y0 3.079477 1_555
I7 Y3 3.133043 1_555
I8 Y1 3.039309 1_555
I9 Y3 3.096424 1_565
I10 Y1 3.133043 1_555
I11 Y2 3.079477 1_556
I13 Y2 3.101598 1_565
I14 Y1 3.101598 1_545
I16 Y1 3.079477 1_554
I17 Y2 3.133043 1_555
I18 Y0 3.096424 1_545
I19 Y2 3.039309 1_555
I20 Y0 3.133043 1_555
I21 Y3 3.079477 1_555
I23 Y2 3.035224 1_555
I24 Y0 3.101598 1_545
I25 Y1 3.096424 1_545
I26 Y3 3.039309 1_555
I27 Y3 3.035224 1_555
