# generated using pymatgen
data_Fe3O4
_symmetry_space_group_name_H-M   'P 1'
_cell_length_a   5.92397200
_cell_length_b   6.61708000
_cell_length_c   16.13268400
_cell_angle_alpha   90.00000000
_cell_angle_beta   90.00000000
_cell_angle_gamma   90.00000000
_symmetry_Int_Tables_number   1
_chemical_formula_structural   Fe3O4
_chemical_formula_sum   'Fe24 O32'
_cell_volume   632.39147901
_cell_formula_units_Z   8
loop_
 _symmetry_equiv_pos_site_id
 _symmetry_equiv_pos_as_xyz
  1  'x, y, z'
loop_
 _atom_site_type_symbol
 _atom_site_label
 _atom_site_symmetry_multiplicity
 _atom_site_fract_x
 _atom_site_fract_y
 _atom_site_fract_z
 _atom_site_occupancy
  Fe  Fe0  1  0.76746800  0.25000000  0.59775300  1
  Fe  Fe1  1  0.73646500  0.25000000  0.15500800  1
  Fe  Fe2  1  0.51046500  0.75000000  0.14717700  1
  Fe  Fe3  1  0.26353500  0.75000000  0.84499200  1
  Fe  Fe4  1  0.98084800  0.75000000  0.60136600  1
  Fe  Fe5  1  0.73646500  0.75000000  0.34499200  1
  Fe  Fe6  1  0.06456500  0.50000000  0.25000000  1
  Fe  Fe7  1  0.76746800  0.75000000  0.90224700  1
  Fe  Fe8  1  0.48953500  0.75000000  0.64717700  1
  Fe  Fe9  1  0.51046500  0.25000000  0.35282300  1
  Fe  Fe10  1  0.50000000  0.50000000  0.50000000  1
  Fe  Fe11  1  0.93543500  0.50000000  0.75000000  1
  Fe  Fe12  1  0.50000000  0.00000000  0.50000000  1
  Fe  Fe13  1  0.23253200  0.75000000  0.40224700  1
  Fe  Fe14  1  0.23253200  0.25000000  0.09775300  1
  Fe  Fe15  1  0.93543500  0.00000000  0.75000000  1
  Fe  Fe16  1  0.01915200  0.75000000  0.10136600  1
  Fe  Fe17  1  0.06456500  0.00000000  0.25000000  1
  Fe  Fe18  1  0.50000000  0.00000000  0.00000000  1
  Fe  Fe19  1  0.98084800  0.25000000  0.89863400  1
  Fe  Fe20  1  0.26353500  0.25000000  0.65500800  1
  Fe  Fe21  1  0.01915200  0.25000000  0.39863400  1
  Fe  Fe22  1  0.48953500  0.25000000  0.85282300  1
  Fe  Fe23  1  0.50000000  0.50000000  0.00000000  1
  O  O0  1  0.99143900  0.55177200  0.37506000  1
  O  O1  1  0.70468400  0.25000000  0.96564300  1
  O  O2  1  0.24138000  0.75000000  0.21184400  1
  O  O3  1  0.50617200  0.55464300  0.87254700  1
  O  O4  1  0.99143900  0.44822800  0.12494000  1
  O  O5  1  0.29531600  0.75000000  0.03435700  1
  O  O6  1  0.99143900  0.94822800  0.37506000  1
  O  O7  1  0.77917600  0.25000000  0.27618500  1
  O  O8  1  0.75862000  0.75000000  0.71184400  1
  O  O9  1  0.75862000  0.25000000  0.78815600  1
  O  O10  1  0.74897600  0.25000000  0.47402200  1
  O  O11  1  0.49382800  0.55464300  0.37254700  1
  O  O12  1  0.50617200  0.05464300  0.62745300  1
  O  O13  1  0.00856100  0.55177200  0.87506000  1
  O  O14  1  0.22082400  0.75000000  0.72381500  1
  O  O15  1  0.29531600  0.25000000  0.46564300  1
  O  O16  1  0.25102400  0.25000000  0.97402200  1
  O  O17  1  0.70468400  0.75000000  0.53435700  1
  O  O18  1  0.49382800  0.94535700  0.37254700  1
  O  O19  1  0.00856100  0.94822800  0.87506000  1
  O  O20  1  0.00856100  0.44822800  0.62494000  1
  O  O21  1  0.00856100  0.05177200  0.62494000  1
  O  O22  1  0.74897600  0.75000000  0.02597800  1
  O  O23  1  0.50617200  0.94535700  0.87254700  1
  O  O24  1  0.49382800  0.05464300  0.12745300  1
  O  O25  1  0.25102400  0.75000000  0.52597800  1
  O  O26  1  0.22082400  0.25000000  0.77618500  1
  O  O27  1  0.50617200  0.44535700  0.62745300  1
  O  O28  1  0.99143900  0.05177200  0.12494000  1
  O  O29  1  0.77917600  0.75000000  0.22381500  1
  O  O30  1  0.24138000  0.25000000  0.28815600  1
  O  O31  1  0.49382800  0.44535700  0.12745300  1
loop_
_geom_bond_atom_site_label_1
_geom_bond_atom_site_label_2
_geom_bond_distance
_geom_bond_site_symmetry_2
Fe0 O20 1.988149 1_655
Fe0 O21 1.988149 1_655
Fe0 O10 1.999117 1_555
Fe0 O27 2.072838 1_555
Fe0 O12 2.072838 1_555
Fe1 O7 1.971216 1_555
Fe1 O24 1.983611 1_555
Fe1 O31 1.983611 1_555
Fe1 O4 2.058475 1_555
Fe1 O28 2.058475 1_555
Fe2 O2 1.905092 1_555
Fe2 O29 2.015582 1_555
Fe2 O31 2.043185 1_555
Fe2 O24 2.043185 1_565
Fe2 O5 2.221974 1_555
Fe2 O22 2.412352 1_555
Fe3 O14 1.971216 1_555
Fe3 O23 1.983611 1_555
Fe3 O3 1.983611 1_555
Fe3 O19 2.058475 1_555
Fe3 O13 2.058475 1_555
Fe4 O17 1.960891 1_555
Fe4 O25 2.010178 1_655
Fe4 O21 2.039362 1_665
Fe4 O20 2.039362 1_655
Fe4 O8 2.215788 1_555
Fe4 O14 2.433784 1_655
Fe5 O29 1.971216 1_555
Fe5 O18 1.983611 1_555
Fe5 O11 1.983611 1_555
Fe5 O6 2.058475 1_555
Fe5 O0 2.058475 1_555
Fe6 O30 2.052478 1_555
Fe6 O2 2.052478 1_555
Fe6 O0 2.091780 1_455
Fe6 O4 2.091780 1_455
Fe6 O29 2.402772 1_455
Fe6 O7 2.402772 1_455
Fe7 O19 1.988149 1_655
Fe7 O13 1.988149 1_655
Fe7 O22 1.999117 1_556
Fe7 O23 2.072838 1_555
Fe7 O3 2.072838 1_555
Fe8 O8 1.905092 1_555
Fe8 O14 2.015582 1_555
Fe8 O27 2.043185 1_555
Fe8 O12 2.043185 1_565
Fe8 O17 2.221974 1_555
Fe8 O25 2.412352 1_555
Fe9 O30 1.905092 1_555
Fe9 O7 2.015582 1_555
Fe9 O18 2.043185 1_545
Fe9 O11 2.043185 1_555
Fe9 O15 2.221974 1_555
Fe9 O10 2.412352 1_555
Fe10 O27 2.088029 1_555
Fe10 O11 2.088029 1_555
Fe10 O17 2.124637 1_555
Fe10 O15 2.124637 1_555
Fe10 O10 2.255584 1_555
Fe10 O25 2.255584 1_555
Fe11 O9 2.052478 1_555
Fe11 O8 2.052478 1_555
Fe11 O13 2.091780 1_655
Fe11 O20 2.091780 1_655
Fe11 O14 2.402772 1_655
Fe11 O26 2.402772 1_655
Fe12 O12 2.088029 1_555
Fe12 O18 2.088029 1_545
Fe12 O17 2.124637 1_545
Fe12 O15 2.124637 1_555
Fe12 O10 2.255584 1_555
Fe12 O25 2.255584 1_545
Fe13 O6 1.988149 1_455
Fe13 O0 1.988149 1_455
Fe13 O25 1.999117 1_555
Fe13 O11 2.072838 1_555
Fe13 O18 2.072838 1_555
Fe14 O4 1.988149 1_455
Fe14 O28 1.988149 1_455
Fe14 O16 1.999117 1_554
Fe14 O24 2.072838 1_555
Fe14 O31 2.072838 1_555
Fe15 O9 2.052478 1_555
Fe15 O8 2.052478 1_545
Fe15 O21 2.091780 1_655
Fe15 O19 2.091780 1_645
Fe15 O14 2.402772 1_645
Fe15 O26 2.402772 1_655
Fe16 O5 1.960891 1_555
Fe16 O22 2.010178 1_455
Fe16 O28 2.039362 1_465
Fe16 O4 2.039362 1_455
Fe16 O2 2.215788 1_555
Fe16 O29 2.433784 1_455
Fe17 O30 2.052478 1_555
Fe17 O2 2.052478 1_545
Fe17 O28 2.091780 1_455
Fe17 O6 2.091780 1_445
Fe17 O7 2.402772 1_455
Fe17 O29 2.402772 1_445
Fe18 O24 2.088029 1_555
Fe18 O23 2.088029 1_544
Fe18 O5 2.124637 1_545
Fe18 O1 2.124637 1_554
Fe18 O22 2.255584 1_545
Fe18 O16 2.255584 1_554
Fe19 O1 1.960891 1_555
Fe19 O16 2.010178 1_655
Fe19 O13 2.039362 1_655
Fe19 O19 2.039362 1_645
Fe19 O9 2.215788 1_555
Fe19 O26 2.433784 1_655
Fe20 O26 1.971216 1_555
Fe20 O27 1.983611 1_555
Fe20 O12 1.983611 1_555
Fe20 O20 2.058475 1_555
Fe20 O21 2.058475 1_555
Fe21 O15 1.960891 1_555
Fe21 O10 2.010178 1_455
Fe21 O0 2.039362 1_455
Fe21 O6 2.039362 1_445
Fe21 O30 2.215788 1_555
Fe21 O7 2.433784 1_455
Fe22 O9 1.905092 1_555
Fe22 O26 2.015582 1_555
Fe22 O3 2.043185 1_555
Fe22 O23 2.043185 1_545
Fe22 O1 2.221974 1_555
Fe22 O16 2.412352 1_555
Fe23 O31 2.088029 1_555
Fe23 O3 2.088029 1_554
Fe23 O5 2.124637 1_555
Fe23 O1 2.124637 1_554
Fe23 O22 2.255584 1_555
Fe23 O16 2.255584 1_554
