# generated using pymatgen
data_Li2VBO4
_symmetry_space_group_name_H-M   'P 1'
_cell_length_a   4.71419000
_cell_length_b   5.88922500
_cell_length_c   10.90393700
_cell_angle_alpha   90.00000000
_cell_angle_beta   90.00000000
_cell_angle_gamma   90.00000000
_symmetry_Int_Tables_number   1
_chemical_formula_structural   Li2VBO4
_chemical_formula_sum   'Li8 V4 B4 O16'
_cell_volume   302.72519171
_cell_formula_units_Z   4
loop_
 _symmetry_equiv_pos_site_id
 _symmetry_equiv_pos_as_xyz
  1  'x, y, z'
loop_
 _atom_site_type_symbol
 _atom_site_label
 _atom_site_symmetry_multiplicity
 _atom_site_fract_x
 _atom_site_fract_y
 _atom_site_fract_z
 _atom_site_occupancy
  Li  Li0  1  0.19470100  0.99569100  0.58152300  1
  Li  Li1  1  0.30529900  0.99569100  0.08152300  1
  Li  Li2  1  0.30529900  0.50430900  0.08152300  1
  Li  Li3  1  0.19470100  0.50430900  0.58152300  1
  Li  Li4  1  0.69470100  0.49569100  0.91847700  1
  Li  Li5  1  0.80529900  0.49569100  0.41847700  1
  Li  Li6  1  0.80529900  0.00430900  0.41847700  1
  Li  Li7  1  0.69470100  0.00430900  0.91847700  1
  V  V0  1  0.19532700  0.25000000  0.82006900  1
  V  V1  1  0.30467300  0.25000000  0.32006900  1
  V  V2  1  0.69532700  0.75000000  0.67993100  1
  V  V3  1  0.80467300  0.75000000  0.17993100  1
  B  B0  1  0.67317300  0.25000000  0.66178100  1
  B  B1  1  0.82682700  0.25000000  0.16178100  1
  B  B2  1  0.32682700  0.75000000  0.33821900  1
  B  B3  1  0.17317300  0.75000000  0.83821900  1
  O  O0  1  0.77403400  0.03992100  0.59682200  1
  O  O1  1  0.72596600  0.03992100  0.09682200  1
  O  O2  1  0.35731200  0.25000000  0.66131200  1
  O  O3  1  0.72903700  0.25000000  0.29498300  1
  O  O4  1  0.14268800  0.25000000  0.16131200  1
  O  O5  1  0.77096300  0.25000000  0.79498300  1
  O  O6  1  0.72596600  0.46007900  0.09682200  1
  O  O7  1  0.77403400  0.46007900  0.59682200  1
  O  O8  1  0.27403400  0.53992100  0.90317800  1
  O  O9  1  0.22596600  0.53992100  0.40317800  1
  O  O10  1  0.64268800  0.75000000  0.33868800  1
  O  O11  1  0.85731200  0.75000000  0.83868800  1
  O  O12  1  0.27096300  0.75000000  0.70501700  1
  O  O13  1  0.22903700  0.75000000  0.20501700  1
  O  O14  1  0.22596600  0.96007900  0.40317800  1
  O  O15  1  0.27403400  0.96007900  0.90317800  1
loop_
_geom_bond_atom_site_label_1
_geom_bond_atom_site_label_2
_geom_bond_distance
_geom_bond_site_symmetry_2
Li0 O2 1.894102 1_565
Li0 O14 1.961485 1_555
Li0 O0 2.007083 1_465
Li0 O12 2.009007 1_555
Li1 O4 1.894102 1_565
Li1 O15 1.961485 1_554
Li1 O1 2.007083 1_565
Li1 O13 2.009007 1_555
Li2 O4 1.894102 1_555
Li2 O8 1.961485 1_554
Li2 O6 2.007083 1_555
Li2 O13 2.009007 1_555
Li3 O2 1.894102 1_555
Li3 O9 1.961485 1_555
Li3 O7 2.007083 1_455
Li3 O12 2.009007 1_555
Li4 O11 1.894102 1_555
Li4 O6 1.961485 1_556
Li4 O8 2.007083 1_555
Li4 O5 2.009007 1_555
Li5 O10 1.894102 1_555
Li5 O7 1.961485 1_555
Li5 O9 2.007083 1_655
Li5 O3 2.009007 1_555
Li6 O10 1.894102 1_545
Li6 O0 1.961485 1_555
Li6 O14 2.007083 1_645
Li6 O3 2.009007 1_555
Li7 O11 1.894102 1_545
Li7 O1 1.961485 1_556
Li7 O15 2.007083 1_545
Li7 O5 2.009007 1_555
B0 O2 1.489038 1_555
B0 O7 1.502814 1_555
B0 O0 1.502814 1_555
B0 O5 1.523832 1_555
B1 O4 1.489038 1_655
B1 O6 1.502814 1_555
B1 O1 1.502814 1_555
B1 O3 1.523832 1_555
B2 O10 1.489038 1_555
B2 O14 1.502814 1_555
B2 O9 1.502814 1_555
B2 O13 1.523832 1_555
B3 O11 1.489038 1_455
B3 O15 1.502814 1_555
B3 O8 1.502814 1_555
B3 O12 1.523832 1_555
O0 V2 1.968285 1_545
O1 V3 1.968285 1_545
O2 V0 1.892024 1_555
O3 V1 2.019146 1_555
O4 V1 1.892024 1_555
O5 V0 2.019146 1_655
O6 V3 1.968285 1_555
O7 V2 1.968285 1_555
O8 V0 1.968285 1_555
O9 V1 1.968285 1_555
O10 V3 1.892024 1_555
O11 V2 1.892024 1_555
O12 V2 2.019146 1_555
O13 V3 2.019146 1_455
O14 V1 1.968285 1_565
O15 V0 1.968285 1_565
