# generated using pymatgen
data_Hf2N2O
_symmetry_space_group_name_H-M   'P 1'
_cell_length_a   8.65417137
_cell_length_b   8.66540401
_cell_length_c   8.68437249
_cell_angle_alpha   109.47069486
_cell_angle_beta   109.41874643
_cell_angle_gamma   109.32488743
_symmetry_Int_Tables_number   1
_chemical_formula_structural   Hf2N2O
_chemical_formula_sum   'Hf16 N16 O8'
_cell_volume   502.56717175
_cell_formula_units_Z   8
loop_
 _symmetry_equiv_pos_site_id
 _symmetry_equiv_pos_as_xyz
  1  'x, y, z'
loop_
 _atom_site_type_symbol
 _atom_site_label
 _atom_site_symmetry_multiplicity
 _atom_site_fract_x
 _atom_site_fract_y
 _atom_site_fract_z
 _atom_site_occupancy
  Hf  Hf0  1  0.78570644  0.03660047  0.75138087  1
  Hf  Hf1  1  0.00312471  0.99889081  0.50996508  1
  Hf  Hf2  1  0.75720079  0.21755046  0.46872593  1
  Hf  Hf3  1  0.24108331  0.27452547  0.02980171  1
  Hf  Hf4  1  0.46972145  0.75677912  0.22325112  1
  Hf  Hf5  1  0.96802619  0.74605176  0.71150674  1
  Hf  Hf6  1  0.48928226  0.99765405  0.98212568  1
  Hf  Hf7  1  0.27822458  0.52913344  0.73643881  1
  Hf  Hf8  1  0.71564010  0.46486991  0.25390222  1
  Hf  Hf9  1  0.00300442  0.50981066  0.01235145  1
  Hf  Hf10  1  0.49500805  0.49009687  0.50237665  1
  Hf  Hf11  1  0.52944699  0.24846466  0.78760164  1
  Hf  Hf12  1  0.04483401  0.25824348  0.28593449  1
  Hf  Hf13  1  0.24956542  0.78716873  0.53225332  1
  Hf  Hf14  1  0.75210455  0.70625698  0.96513559  1
  Hf  Hf15  1  0.21318645  0.96476930  0.24972980  1
  N  N0  1  0.72212399  0.95398806  0.46592218  1
  N  N1  1  0.73476271  0.46157114  0.50859280  1
  N  N2  1  0.98551624  0.26441213  0.03462657  1
  N  N3  1  0.96334707  0.72619225  0.45038797  1
  N  N4  1  0.77469689  0.51079345  0.04643272  1
  N  N5  1  0.53805414  0.99128041  0.76480582  1
  N  N6  1  0.03148350  0.27510297  0.54560652  1
  N  N7  1  0.27436712  0.22584054  0.26080072  1
  N  N8  1  0.22968112  0.76158064  0.77648524  1
  N  N9  1  0.00620177  0.73896937  0.96602142  1
  N  N10  1  0.45549899  0.22753751  0.99192445  1
  N  N11  1  0.26183165  0.53345135  0.48458265  1
  N  N12  1  0.24504058  0.72830785  0.27009283  1
  N  N13  1  0.04429017  0.03221108  0.77331613  1
  N  N14  1  0.49322624  0.46216575  0.73085179  1
  N  N15  1  0.27182221  0.04932645  0.53138100  1
  O  O0  1  0.51188431  0.54778215  0.27036350  1
  O  O1  1  0.94945970  0.96474188  0.22429889  1
  O  O2  1  0.76582700  0.27479234  0.72732123  1
  O  O3  1  0.55102930  0.77833032  0.02022376  1
  O  O4  1  0.76864684  0.23247083  0.22674093  1
  O  O5  1  0.23523505  0.48921564  0.95679211  1
  O  O6  1  0.72432245  0.77283938  0.73534465  1
  O  O7  1  0.46649125  0.01023335  0.23459904  1
loop_
_geom_bond_atom_site_label_1
_geom_bond_atom_site_label_2
_geom_bond_distance
_geom_bond_site_symmetry_2
Hf0 N5 2.097819 1_545
Hf0 O6 2.112004 1_545
Hf0 N0 2.147093 1_545
Hf0 N2 2.147798 1_556
Hf0 N13 2.196205 1_655
Hf0 O2 2.198201 1_555
Hf1 N13 2.095415 1_565
Hf1 N3 2.120918 1_455
Hf1 N15 2.149066 1_565
Hf1 N0 2.206247 1_455
Hf1 N6 2.225232 1_565
Hf1 O1 2.260820 1_455
Hf2 N6 2.066304 1_655
Hf2 O2 2.101513 1_555
Hf2 N1 2.111222 1_555
Hf2 O4 2.180333 1_555
Hf2 N0 2.192711 1_545
Hf2 O7 2.205253 1_555
Hf3 N13 2.064864 1_554
Hf3 N10 2.129280 1_554
Hf3 N7 2.132066 1_555
Hf3 O5 2.166312 1_554
Hf3 N2 2.199303 1_455
Hf3 O0 2.288554 1_555
Hf4 N0 2.049533 1_555
Hf4 N12 2.069420 1_555
Hf4 O0 2.100590 1_555
Hf4 O3 2.143887 1_555
Hf4 O7 2.175392 1_565
Hf4 O5 2.243938 1_554
Hf5 N8 2.088570 1_655
Hf5 N9 2.148635 1_655
Hf5 N13 2.160206 1_665
Hf5 N1 2.168502 1_555
Hf5 N3 2.201744 1_555
Hf5 O6 2.264321 1_555
Hf6 N5 2.053941 1_555
Hf6 N8 2.067932 1_555
Hf6 N10 2.085645 1_565
Hf6 O4 2.223874 1_566
Hf6 O3 2.231775 1_556
Hf6 O7 2.236206 1_566
Hf7 N6 2.062937 1_555
Hf7 N8 2.131863 1_555
Hf7 N14 2.134725 1_555
Hf7 N11 2.158048 1_555
Hf7 O5 2.179345 1_555
Hf7 O3 2.349403 1_556
Hf8 N3 2.100916 1_555
Hf8 O0 2.140943 1_555
Hf8 N4 2.149774 1_555
Hf8 O4 2.165245 1_555
Hf8 N1 2.173080 1_555
Hf8 N10 2.210127 1_554
Hf9 N4 2.095188 1_455
Hf9 N12 2.101139 1_555
Hf9 N9 2.146981 1_554
Hf9 N2 2.159381 1_455
Hf9 O2 2.232051 1_454
Hf9 O5 2.264637 1_554
Hf10 N14 2.081765 1_555
Hf10 N7 2.128557 1_555
Hf10 N11 2.137812 1_555
Hf10 N1 2.154762 1_555
Hf10 O6 2.200477 1_555
Hf10 O0 2.269309 1_555
Hf11 N10 2.117489 1_555
Hf11 N15 2.120114 1_555
Hf11 N14 2.158750 1_555
Hf11 N5 2.199313 1_545
Hf11 N4 2.225492 1_556
Hf11 O2 2.234658 1_555
Hf12 N11 2.080630 1_555
Hf12 N2 2.092951 1_455
Hf12 N7 2.165396 1_555
Hf12 O4 2.186371 1_455
Hf12 O1 2.201255 1_445
Hf12 N6 2.254974 1_555
Hf13 N11 2.143188 1_555
Hf13 N12 2.144390 1_555
Hf13 N3 2.152315 1_455
Hf13 N5 2.187136 1_555
Hf13 N15 2.218250 1_565
Hf13 N8 2.260173 1_555
Hf14 N4 2.080897 1_556
Hf14 N9 2.119141 1_655
Hf14 O1 2.133286 1_556
Hf14 N14 2.143954 1_555
Hf14 O3 2.172713 1_556
Hf14 O6 2.216622 1_555
Hf15 N7 2.106160 1_565
Hf15 N15 2.123898 1_565
Hf15 O7 2.152306 1_565
Hf15 N9 2.153934 1_554
Hf15 N12 2.211064 1_555
Hf15 O1 2.218620 1_455
