# generated using pymatgen
data_Li4Cr3Fe5O16
_symmetry_space_group_name_H-M   'P 1'
_cell_length_a   5.75232292
_cell_length_b   5.75232292
_cell_length_c   9.51397609
_cell_angle_alpha   89.17068594
_cell_angle_beta   89.17068594
_cell_angle_gamma   59.49413606
_symmetry_Int_Tables_number   1
_chemical_formula_structural   Li4Cr3Fe5O16
_chemical_formula_sum   'Li4 Cr3 Fe5 O16'
_cell_volume   271.19546363
_cell_formula_units_Z   1
loop_
 _symmetry_equiv_pos_site_id
 _symmetry_equiv_pos_as_xyz
  1  'x, y, z'
loop_
 _atom_site_type_symbol
 _atom_site_label
 _atom_site_symmetry_multiplicity
 _atom_site_fract_x
 _atom_site_fract_y
 _atom_site_fract_z
 _atom_site_occupancy
  Li  Li0  1  0.66857300  0.66857300  0.89202700  1
  Li  Li1  1  0.99746900  0.99746900  0.99445200  1
  Li  Li2  1  0.99845200  0.99845200  0.49753300  1
  Li  Li3  1  0.33225500  0.33225500  0.39406300  1
  Cr  Cr0  1  0.34360300  0.82618600  0.21438200  1
  Cr  Cr1  1  0.82618600  0.34360300  0.21438200  1
  Cr  Cr2  1  0.16930700  0.16930700  0.71499000  1
  Fe  Fe0  1  0.66903100  0.66903100  0.49515700  1
  Fe  Fe1  1  0.83187800  0.83187800  0.21445500  1
  Fe  Fe2  1  0.33483400  0.33483400  0.99322400  1
  Fe  Fe3  1  0.17569700  0.65538800  0.71468300  1
  Fe  Fe4  1  0.65538800  0.17569700  0.71468300  1
  O  O0  1  0.32937300  0.83263100  0.60239600  1
  O  O1  1  0.51529600  0.51529600  0.33189200  1
  O  O2  1  0.67239400  0.67239400  0.10390800  1
  O  O3  1  0.99833800  0.99833800  0.31043700  1
  O  O4  1  0.99341300  0.99341300  0.80760000  1
  O  O5  1  0.83263100  0.32937300  0.60239600  1
  O  O6  1  0.52226900  0.95932400  0.33493900  1
  O  O7  1  0.95932400  0.52226900  0.33493900  1
  O  O8  1  0.16071400  0.16071400  0.10343900  1
  O  O9  1  0.83918300  0.83918300  0.60872700  1
  O  O10  1  0.03782200  0.48079000  0.83037600  1
  O  O11  1  0.48079000  0.03782200  0.83037600  1
  O  O12  1  0.33702600  0.33702600  0.60466800  1
  O  O13  1  0.15906900  0.67352400  0.10398500  1
  O  O14  1  0.48131700  0.48131700  0.83961500  1
  O  O15  1  0.67352400  0.15906900  0.10398500  1
loop_
_geom_bond_atom_site_label_1
_geom_bond_atom_site_label_2
_geom_bond_distance
_geom_bond_site_symmetry_2
Li0 O10 1.917108 1_655
Li0 O11 1.917108 1_565
Li0 O14 1.943771 1_555
Li0 O2 2.016828 1_556
Li1 O4 1.778842 1_555
Li1 O15 1.906743 1_566
Li1 O13 1.906743 1_656
Li1 O8 1.946885 1_666
Li2 O3 1.780046 1_555
Li2 O9 1.895764 1_555
Li2 O5 1.926847 1_565
Li2 O0 1.926847 1_655
Li3 O1 1.912219 1_555
Li3 O7 1.936407 1_455
Li3 O6 1.936407 1_545
Li3 O12 2.005052 1_555
Cr0 O1 1.898525 1_555
Cr0 O2 1.932632 1_555
Cr0 O3 1.933181 1_455
Cr0 O6 1.953715 1_555
Cr0 O8 1.960072 1_565
Cr0 O13 2.001616 1_555
Cr1 O1 1.898525 1_555
Cr1 O2 1.932632 1_555
Cr1 O3 1.933181 1_545
Cr1 O7 1.953715 1_555
Cr1 O8 1.960072 1_655
Cr1 O15 2.001616 1_555
Cr2 O10 1.909083 1_555
Cr2 O11 1.909083 1_555
Cr2 O4 1.952315 1_445
Cr2 O12 1.962040 1_555
Cr2 O0 1.991755 1_545
Cr2 O5 1.991755 1_455
Fe0 O0 1.961465 1_555
Fe0 O5 1.961465 1_555
Fe0 O9 2.029111 1_555
Fe0 O7 2.087342 1_555
Fe0 O6 2.087342 1_555
Fe0 O1 2.202347 1_555
Fe1 O3 1.910259 1_555
Fe1 O7 1.913880 1_555
Fe1 O6 1.913880 1_555
Fe1 O2 1.923472 1_555
Fe1 O15 1.925248 1_565
Fe1 O13 1.925248 1_655
Fe2 O13 1.989252 1_556
Fe2 O15 1.989252 1_556
Fe2 O8 2.015837 1_556
Fe2 O14 2.050691 1_555
Fe2 O11 2.146389 1_555
Fe2 O10 2.146389 1_555
Fe3 O10 1.897547 1_555
Fe3 O12 1.900642 1_555
Fe3 O4 1.901245 1_455
Fe3 O14 1.935175 1_555
Fe3 O0 1.954064 1_555
Fe3 O9 1.956759 1_455
Fe4 O11 1.897547 1_555
Fe4 O12 1.900642 1_555
Fe4 O4 1.901245 1_545
Fe4 O14 1.935175 1_555
Fe4 O5 1.954064 1_555
Fe4 O9 1.956759 1_545
