# generated using pymatgen
data_Na2FeSiCO7
_symmetry_space_group_name_H-M   'P 1'
_cell_length_a   6.51124800
_cell_length_b   5.29347600
_cell_length_c   9.21102224
_cell_angle_alpha   89.30571734
_cell_angle_beta   90.00000000
_cell_angle_gamma   90.00000000
_symmetry_Int_Tables_number   1
_chemical_formula_structural   Na2FeSiCO7
_chemical_formula_sum   'Na4 Fe2 Si2 C2 O14'
_cell_volume   317.45423914
_cell_formula_units_Z   2
loop_
 _symmetry_equiv_pos_site_id
 _symmetry_equiv_pos_as_xyz
  1  'x, y, z'
loop_
 _atom_site_type_symbol
 _atom_site_label
 _atom_site_symmetry_multiplicity
 _atom_site_fract_x
 _atom_site_fract_y
 _atom_site_fract_z
 _atom_site_occupancy
  Na  Na0  1  0.50610800  0.76438400  0.76278700  1
  Na  Na1  1  0.99389200  0.76438400  0.76278700  1
  Na  Na2  1  0.49389200  0.23561600  0.23721300  1
  Na  Na3  1  0.00610800  0.23561600  0.23721300  1
  Fe  Fe0  1  0.25000000  0.20874700  0.63919500  1
  Fe  Fe1  1  0.75000000  0.79125300  0.36080500  1
  Si  Si0  1  0.75000000  0.29334600  0.56899000  1
  Si  Si1  1  0.25000000  0.70665400  0.43101000  1
  C  C0  1  0.25000000  0.27477700  0.92287000  1
  C  C1  1  0.75000000  0.72522300  0.07713000  1
  O  O0  1  0.75000000  0.71450600  0.94037900  1
  O  O1  1  0.25000000  0.05860100  0.85578100  1
  O  O2  1  0.25000000  0.47221600  0.83813500  1
  O  O3  1  0.95169200  0.22042600  0.66783600  1
  O  O4  1  0.54830800  0.22042600  0.66783600  1
  O  O5  1  0.25000000  0.85311800  0.58615400  1
  O  O6  1  0.75000000  0.60359000  0.53843800  1
  O  O7  1  0.25000000  0.39641000  0.46156200  1
  O  O8  1  0.75000000  0.14688200  0.41384600  1
  O  O9  1  0.45169200  0.77957400  0.33216400  1
  O  O10  1  0.04830800  0.77957400  0.33216400  1
  O  O11  1  0.75000000  0.52778400  0.16186500  1
  O  O12  1  0.75000000  0.94139900  0.14421900  1
  O  O13  1  0.25000000  0.28549400  0.05962100  1
loop_
_geom_bond_atom_site_label_1
_geom_bond_atom_site_label_2
_geom_bond_distance
_geom_bond_site_symmetry_2
Na0 O0 2.292809 1_555
Na0 O2 2.372430 1_555
Na0 O5 2.372757 1_555
Na0 O1 2.443863 1_565
Na0 O4 2.572329 1_565
Na0 O6 2.749423 1_555
Na1 O0 2.292809 1_555
Na1 O2 2.372430 1_655
Na1 O5 2.372757 1_655
Na1 O1 2.443863 1_665
Na1 O3 2.572329 1_565
Na1 O6 2.749423 1_555
Na2 O13 2.292809 1_555
Na2 O11 2.372430 1_555
Na2 O8 2.372757 1_555
Na2 O12 2.443863 1_545
Na2 O9 2.572329 1_545
Na2 O7 2.749423 1_555
Na3 O13 2.292809 1_555
Na3 O11 2.372430 1_455
Na3 O8 2.372757 1_455
Na3 O12 2.443863 1_445
Na3 O10 2.572329 1_545
Na3 O7 2.749423 1_555
Fe0 O7 1.903818 1_555
Fe0 O5 1.950600 1_545
Fe0 O4 1.961267 1_555
Fe0 O3 1.961267 1_455
Fe0 O1 2.138507 1_555
Fe0 O2 2.316219 1_555
Fe1 O6 1.903818 1_555
Fe1 O8 1.950600 1_565
Fe1 O10 1.961267 1_655
Fe1 O9 1.961267 1_555
Fe1 O12 2.138507 1_555
Fe1 O11 2.316219 1_555
C0 O13 1.261580 1_556
C0 O2 1.296811 1_555
C0 O1 1.307090 1_555
C1 O0 1.261580 1_554
C1 O11 1.296811 1_555
C1 O12 1.307090 1_555
O3 Si0 1.641374 1_555
O4 Si0 1.641374 1_555
O5 Si1 1.634040 1_555
O6 Si0 1.662842 1_555
O7 Si1 1.662842 1_555
O8 Si0 1.634040 1_555
O9 Si1 1.641374 1_555
O10 Si1 1.641374 1_555
