# generated using pymatgen
data_CaAl2Si2(H2O5)2
_symmetry_space_group_name_H-M   'P 1'
_cell_length_a   5.33934769
_cell_length_b   5.33934769
_cell_length_c   13.26602900
_cell_angle_alpha   90.00000000
_cell_angle_beta   90.00000000
_cell_angle_gamma   112.93084297
_symmetry_Int_Tables_number   1
_chemical_formula_structural   CaAl2Si2(H2O5)2
_chemical_formula_sum   'Ca2 Al4 Si4 H8 O20'
_cell_volume   348.30969860
_cell_formula_units_Z   2
loop_
 _symmetry_equiv_pos_site_id
 _symmetry_equiv_pos_as_xyz
  1  'x, y, z'
loop_
 _atom_site_type_symbol
 _atom_site_label
 _atom_site_symmetry_multiplicity
 _atom_site_fract_x
 _atom_site_fract_y
 _atom_site_fract_z
 _atom_site_occupancy
  Ca  Ca0  1  0.66417700  0.33582300  0.25000000  1
  Ca  Ca1  1  0.33582300  0.66417700  0.75000000  1
  Al  Al0  1  0.50000000  0.00000000  0.50000000  1
  Al  Al1  1  0.00000000  0.50000000  0.50000000  1
  Al  Al2  1  0.50000000  0.00000000  0.00000000  1
  Al  Al3  1  0.00000000  0.50000000  0.00000000  1
  Si  Si0  1  0.01803700  0.98196300  0.36739100  1
  Si  Si1  1  0.98196300  0.01803700  0.63260900  1
  Si  Si2  1  0.01803700  0.98196300  0.13260900  1
  Si  Si3  1  0.98196300  0.01803700  0.86739100  1
  H  H0  1  0.33742600  0.66257400  0.31208500  1
  H  H1  1  0.66257400  0.33742600  0.68791500  1
  H  H2  1  0.33742600  0.66257400  0.18791500  1
  H  H3  1  0.66257400  0.33742600  0.81208500  1
  H  H4  1  0.46503100  0.53496900  0.43658700  1
  H  H5  1  0.53496900  0.46503100  0.56341300  1
  H  H6  1  0.46503100  0.53496900  0.06341300  1
  H  H7  1  0.53496900  0.46503100  0.93658700  1
  O  O0  1  0.95108700  0.04891300  0.25000000  1
  O  O1  1  0.04891300  0.95108700  0.75000000  1
  O  O2  1  0.34758300  0.11063600  0.38477200  1
  O  O3  1  0.11063600  0.34758300  0.61522800  1
  O  O4  1  0.34758300  0.11063600  0.11522800  1
  O  O5  1  0.11063600  0.34758300  0.88477200  1
  O  O6  1  0.65241700  0.88936400  0.61522800  1
  O  O7  1  0.88936400  0.65241700  0.38477200  1
  O  O8  1  0.65241700  0.88936400  0.88477200  1
  O  O9  1  0.88936400  0.65241700  0.11522800  1
  O  O10  1  0.86051400  0.13948600  0.43476000  1
  O  O11  1  0.13948600  0.86051400  0.56524000  1
  O  O12  1  0.86051400  0.13948600  0.06524000  1
  O  O13  1  0.13948600  0.86051400  0.93476000  1
  O  O14  1  0.35657600  0.64342400  0.44793100  1
  O  O15  1  0.64342400  0.35657600  0.55206900  1
  O  O16  1  0.35657600  0.64342400  0.05206900  1
  O  O17  1  0.64342400  0.35657600  0.94793100  1
  O  O18  1  0.39802100  0.60197900  0.25000000  1
  O  O19  1  0.60197900  0.39802100  0.75000000  1
loop_
_geom_bond_atom_site_label_1
_geom_bond_atom_site_label_2
_geom_bond_distance
_geom_bond_site_symmetry_2
Ca0 O18 2.369122 1_555
Ca0 O9 2.432261 1_555
Ca0 O7 2.432261 1_555
Ca0 O4 2.432261 1_555
Ca0 O2 2.432261 1_555
Ca0 O0 2.553859 1_555
Ca1 O19 2.369122 1_555
Ca1 O6 2.432261 1_555
Ca1 O8 2.432261 1_555
Ca1 O3 2.432261 1_555
Ca1 O5 2.432261 1_555
Ca1 O1 2.553859 1_555
Al0 O15 1.884736 1_555
Al0 O14 1.884736 1_545
Al0 O2 1.929383 1_555
Al0 O6 1.929383 1_545
Al0 O10 1.972784 1_555
Al0 O11 1.972784 1_545
Al1 O15 1.884736 1_455
Al1 O14 1.884736 1_555
Al1 O3 1.929383 1_555
Al1 O7 1.929383 1_455
Al1 O10 1.972784 1_455
Al1 O11 1.972784 1_555
Al2 O16 1.884736 1_545
Al2 O17 1.884736 1_554
Al2 O4 1.929383 1_555
Al2 O8 1.929383 1_544
Al2 O13 1.972784 1_544
Al2 O12 1.972784 1_555
Al3 O16 1.884736 1_555
Al3 O17 1.884736 1_454
Al3 O5 1.929383 1_554
Al3 O9 1.929383 1_455
Al3 O13 1.972784 1_554
Al3 O12 1.972784 1_455
H0 O18 0.984517 1_555
H1 O19 0.984517 1_555
H2 O18 0.984517 1_555
H3 O19 0.984517 1_555
H4 O14 0.977045 1_555
H5 O15 0.977045 1_555
H6 O16 0.977045 1_555
H7 O17 0.977045 1_555
O0 Si0 1.667443 1_645
O0 Si2 1.667443 1_645
O1 Si3 1.667443 1_465
O1 Si1 1.667443 1_465
O2 Si0 1.636835 1_545
O3 Si1 1.636835 1_455
O4 Si2 1.636835 1_545
O5 Si3 1.636835 1_455
O6 Si1 1.636835 1_565
O7 Si0 1.636835 1_655
O8 Si3 1.636835 1_565
O9 Si2 1.636835 1_655
O10 Si0 1.662758 1_645
O11 Si1 1.662758 1_465
O12 Si2 1.662758 1_645
O13 Si3 1.662758 1_465
