# generated using pymatgen
data_Li2Mn3(BO3)3
_symmetry_space_group_name_H-M   'P 1'
_cell_length_a   5.85628800
_cell_length_b   8.25964848
_cell_length_c   9.12689343
_cell_angle_alpha   112.89122351
_cell_angle_beta   102.36737895
_cell_angle_gamma   101.79346976
_symmetry_Int_Tables_number   1
_chemical_formula_structural   Li2Mn3(BO3)3
_chemical_formula_sum   'Li4 Mn6 B6 O18'
_cell_volume   376.41901261
_cell_formula_units_Z   2
loop_
 _symmetry_equiv_pos_site_id
 _symmetry_equiv_pos_as_xyz
  1  'x, y, z'
loop_
 _atom_site_type_symbol
 _atom_site_label
 _atom_site_symmetry_multiplicity
 _atom_site_fract_x
 _atom_site_fract_y
 _atom_site_fract_z
 _atom_site_occupancy
  Li  Li0  1  0.10907500  0.78072300  0.10426000  1
  Li  Li1  1  0.89092500  0.21927700  0.89574000  1
  Li  Li2  1  0.23871000  0.55556000  0.56135900  1
  Li  Li3  1  0.76129000  0.44444000  0.43864100  1
  Mn  Mn0  1  0.06838600  0.81951300  0.47508500  1
  Mn  Mn1  1  0.93161400  0.18048700  0.52491500  1
  Mn  Mn2  1  0.30483000  0.55061100  0.22191200  1
  Mn  Mn3  1  0.39841900  0.14851200  0.11554400  1
  Mn  Mn4  1  0.69517000  0.44938900  0.77808800  1
  Mn  Mn5  1  0.60158100  0.85148800  0.88445600  1
  B  B0  1  0.95227400  0.21383700  0.21171900  1
  B  B1  1  0.04772600  0.78616300  0.78828100  1
  B  B2  1  0.25609100  0.52070700  0.87092000  1
  B  B3  1  0.37850300  0.12882400  0.43249100  1
  B  B4  1  0.62149700  0.87117600  0.56750900  1
  B  B5  1  0.74390900  0.47929300  0.12908000  1
  O  O0  1  0.98063700  0.68132300  0.61622900  1
  O  O1  1  0.96356900  0.62749100  0.21708600  1
  O  O2  1  0.89616000  0.74569800  0.87858800  1
  O  O3  1  0.01936300  0.31867700  0.38377100  1
  O  O4  1  0.10384000  0.25430200  0.12141200  1
  O  O5  1  0.03643100  0.37250900  0.78291400  1
  O  O6  1  0.39049700  0.72923400  0.48064400  1
  O  O7  1  0.24078800  0.09210200  0.53041500  1
  O  O8  1  0.32911000  0.62964700  0.03955600  1
  O  O9  1  0.29481800  0.03202900  0.26359400  1
  O  O10  1  0.39898600  0.56585400  0.77653500  1
  O  O11  1  0.27779100  0.92129700  0.87903300  1
  O  O12  1  0.60950300  0.27076600  0.51935600  1
  O  O13  1  0.60101400  0.43414600  0.22346500  1
  O  O14  1  0.67089000  0.37035300  0.96044400  1
  O  O15  1  0.75921200  0.90789800  0.46958500  1
  O  O16  1  0.72220900  0.07870300  0.12096700  1
  O  O17  1  0.70518200  0.96797100  0.73640600  1
loop_
_geom_bond_atom_site_label_1
_geom_bond_atom_site_label_2
_geom_bond_distance
_geom_bond_site_symmetry_2
Li0 O9 1.912502 1_565
Li0 O8 1.994055 1_555
Li0 O2 2.041963 1_454
Li0 O1 2.082618 1_455
Li1 O17 1.912502 1_545
Li1 O14 1.994055 1_555
Li1 O4 2.041963 1_656
Li1 O5 2.082618 1_655
Li2 O3 1.928464 1_555
Li2 O10 1.947552 1_555
Li2 O6 1.992986 1_555
Li2 O0 2.043341 1_455
Li3 O0 1.928464 1_555
Li3 O13 1.947552 1_555
Li3 O12 1.992986 1_555
Li3 O3 2.043341 1_655
Mn0 O7 2.076401 1_565
Mn0 O15 2.084146 1_455
Mn0 O0 2.100962 1_455
Mn0 O1 2.124729 1_455
Mn0 O6 2.163430 1_555
Mn1 O15 2.076401 1_545
Mn1 O7 2.084146 1_655
Mn1 O3 2.100962 1_655
Mn1 O5 2.124729 1_655
Mn1 O12 2.163430 1_555
Mn2 O8 2.031036 1_555
Mn2 O6 2.117607 1_555
Mn2 O13 2.148563 1_555
Mn2 O4 2.197757 1_555
Mn2 O1 2.214061 1_455
Mn3 O9 2.059988 1_555
Mn3 O11 2.081814 1_544
Mn3 O16 2.087928 1_555
Mn3 O4 2.088500 1_555
Mn3 O13 2.119252 1_555
Mn4 O14 2.031036 1_555
Mn4 O12 2.117607 1_555
Mn4 O10 2.148563 1_555
Mn4 O2 2.197757 1_555
Mn4 O5 2.214061 1_655
Mn5 O17 2.059988 1_555
Mn5 O16 2.081814 1_566
Mn5 O11 2.087928 1_555
Mn5 O2 2.088500 1_555
Mn5 O10 2.119252 1_555
B0 O3 1.381608 1_655
B0 O16 1.391105 1_555
B0 O4 1.409020 1_655
B1 O0 1.381608 1_455
B1 O11 1.391105 1_555
B1 O2 1.409020 1_455
B2 O8 1.358228 1_556
B2 O5 1.395402 1_555
B2 O10 1.418651 1_555
B3 O9 1.346496 1_555
B3 O7 1.400312 1_555
B3 O12 1.415020 1_555
B4 O17 1.346496 1_555
B4 O15 1.400312 1_555
B4 O6 1.415020 1_555
B5 O14 1.358228 1_554
B5 O1 1.395402 1_555
B5 O13 1.418651 1_555
