# generated using pymatgen
data_FeOF
_symmetry_space_group_name_H-M   'P 1'
_cell_length_a   4.77175500
_cell_length_b   5.68002332
_cell_length_c   7.80676990
_cell_angle_alpha   85.04948872
_cell_angle_beta   87.18793385
_cell_angle_gamma   85.99724347
_symmetry_Int_Tables_number   1
_chemical_formula_structural   FeOF
_chemical_formula_sum   'Fe6 O6 F6'
_cell_volume   210.09140104
_cell_formula_units_Z   6
loop_
 _symmetry_equiv_pos_site_id
 _symmetry_equiv_pos_as_xyz
  1  'x, y, z'
loop_
 _atom_site_type_symbol
 _atom_site_label
 _atom_site_symmetry_multiplicity
 _atom_site_fract_x
 _atom_site_fract_y
 _atom_site_fract_z
 _atom_site_occupancy
  Fe  Fe0  1  0.52100600  0.86890300  0.67444900  1
  Fe  Fe1  1  0.48031800  0.50155300  0.01473200  1
  Fe  Fe2  1  0.50365100  0.15981400  0.32597400  1
  Fe  Fe3  1  0.00546300  0.30656400  0.66109500  1
  Fe  Fe4  1  0.00246200  0.67075100  0.34084500  1
  Fe  Fe5  1  0.98582400  0.99625700  0.98694900  1
  O  O0  1  0.81134800  0.04337300  0.76747100  1
  O  O1  1  0.69795600  0.20593200  0.09884300  1
  O  O2  1  0.70066300  0.86552600  0.43395400  1
  O  O3  1  0.30689400  0.13191200  0.55660500  1
  O  O4  1  0.29345900  0.46489700  0.23890100  1
  O  O5  1  0.31172800  0.79617100  0.90028300  1
  F  F0  1  0.79894400  0.37390700  0.43957900  1
  F  F1  1  0.80770100  0.70000400  0.10230600  1
  F  F2  1  0.70397600  0.53395300  0.76649400  1
  F  F3  1  0.19156900  0.95946600  0.22574000  1
  F  F4  1  0.18172800  0.61986300  0.57164000  1
  F  F5  1  0.19531100  0.30115200  0.89413800  1
loop_
_geom_bond_atom_site_label_1
_geom_bond_atom_site_label_2
_geom_bond_distance
_geom_bond_site_symmetry_2
Fe0 O3 1.940073 1_565
Fe0 O0 1.960481 1_565
Fe0 O5 2.008817 1_555
Fe0 O2 2.026389 1_555
Fe1 O4 1.926377 1_555
Fe1 O5 1.967331 1_554
Fe1 O1 1.990563 1_555
Fe2 O1 1.965909 1_555
Fe2 O3 1.988468 1_555
Fe2 O2 2.000920 1_545
Fe2 O4 2.022836 1_555
Fe3 O3 1.882480 1_555
Fe3 O0 1.919901 1_455
Fe4 O2 1.907848 1_455
Fe4 O4 1.937566 1_555
Fe5 O0 1.931394 1_565
Fe5 O1 1.975282 1_566
Fe5 O5 1.987598 1_655
F0 Fe3 2.026926 1_655
F0 Fe4 2.076282 1_655
F0 Fe2 2.190617 1_555
F1 Fe5 2.056219 1_554
F1 Fe4 2.110453 1_655
F1 Fe1 2.159185 1_555
F2 Fe3 2.054922 1_655
F2 Fe0 2.119419 1_555
F2 Fe1 2.165964 1_556
F3 Fe4 2.045422 1_555
F3 Fe5 2.136919 1_454
F3 Fe2 2.151646 1_565
F4 Fe4 2.021993 1_555
F4 Fe3 2.073345 1_555
F4 Fe0 2.430905 1_555
F5 Fe3 2.068741 1_555
F5 Fe5 2.115997 1_445
F5 Fe1 2.135011 1_556
