# generated using pymatgen
data_Li2Mn3NiO8
_symmetry_space_group_name_H-M   'P 1'
_cell_length_a   8.29255100
_cell_length_b   8.29255100
_cell_length_c   8.29255100
_cell_angle_alpha   90.00000000
_cell_angle_beta   90.00000000
_cell_angle_gamma   90.00000000
_symmetry_Int_Tables_number   1
_chemical_formula_structural   Li2Mn3NiO8
_chemical_formula_sum   'Li8 Mn12 Ni4 O32'
_cell_volume   570.24889640
_cell_formula_units_Z   4
loop_
 _symmetry_equiv_pos_site_id
 _symmetry_equiv_pos_as_xyz
  1  'x, y, z'
loop_
 _atom_site_type_symbol
 _atom_site_label
 _atom_site_symmetry_multiplicity
 _atom_site_fract_x
 _atom_site_fract_y
 _atom_site_fract_z
 _atom_site_occupancy
  Li  Li0  1  0.12524400  0.87475600  0.37475600  1
  Li  Li1  1  0.25270900  0.75270900  0.74729100  1
  Li  Li2  1  0.24729100  0.24729100  0.24729100  1
  Li  Li3  1  0.37475600  0.12524400  0.87475600  1
  Li  Li4  1  0.62524400  0.62524400  0.62524400  1
  Li  Li5  1  0.75270900  0.74729100  0.25270900  1
  Li  Li6  1  0.74729100  0.25270900  0.75270900  1
  Li  Li7  1  0.87475600  0.37475600  0.12524400  1
  Mn  Mn0  1  0.12802700  0.62374600  0.12456300  1
  Mn  Mn1  1  0.12374600  0.37543700  0.87197300  1
  Mn  Mn2  1  0.12456300  0.12802700  0.62374600  1
  Mn  Mn3  1  0.37543700  0.87197300  0.12374600  1
  Mn  Mn4  1  0.37625400  0.62456300  0.37197300  1
  Mn  Mn5  1  0.37197300  0.37625400  0.62456300  1
  Mn  Mn6  1  0.62802700  0.87625400  0.87543700  1
  Mn  Mn7  1  0.62374600  0.12456300  0.12802700  1
  Mn  Mn8  1  0.62456300  0.37197300  0.37625400  1
  Mn  Mn9  1  0.87543700  0.62802700  0.87625400  1
  Mn  Mn10  1  0.87625400  0.87543700  0.62802700  1
  Mn  Mn11  1  0.87197300  0.12374600  0.37543700  1
  Ni  Ni0  1  0.99814200  0.50185800  0.49814200  1
  Ni  Ni1  1  0.50185800  0.49814200  0.99814200  1
  Ni  Ni2  1  0.49814200  0.99814200  0.50185800  1
  Ni  Ni3  1  0.00185800  0.00185800  0.00185800  1
  O  O0  1  0.10671900  0.12663800  0.39781700  1
  O  O1  1  0.10218300  0.89328100  0.62663800  1
  O  O2  1  0.11382400  0.61382400  0.88617600  1
  O  O3  1  0.12663800  0.39781700  0.10671900  1
  O  O4  1  0.12539500  0.14742800  0.86335900  1
  O  O5  1  0.13999900  0.36000100  0.63999900  1
  O  O6  1  0.13664100  0.62539500  0.35257200  1
  O  O7  1  0.14742800  0.86335900  0.12539500  1
  O  O8  1  0.35257200  0.13664100  0.62539500  1
  O  O9  1  0.36335900  0.37460500  0.85257200  1
  O  O10  1  0.36000100  0.63999900  0.13999900  1
  O  O11  1  0.37460500  0.85257200  0.36335900  1
  O  O12  1  0.37336200  0.60218300  0.60671900  1
  O  O13  1  0.38617600  0.38617600  0.38617600  1
  O  O14  1  0.39781700  0.10671900  0.12663800  1
  O  O15  1  0.39328100  0.87336200  0.89781700  1
  O  O16  1  0.60671900  0.37336200  0.60218300  1
  O  O17  1  0.60218300  0.60671900  0.37336200  1
  O  O18  1  0.61382400  0.88617600  0.11382400  1
  O  O19  1  0.62663800  0.10218300  0.89328100  1
  O  O20  1  0.62539500  0.35257200  0.13664100  1
  O  O21  1  0.63999900  0.13999900  0.36000100  1
  O  O22  1  0.63664100  0.87460500  0.64742800  1
  O  O23  1  0.64742800  0.63664100  0.87460500  1
  O  O24  1  0.85257200  0.36335900  0.37460500  1
  O  O25  1  0.86335900  0.12539500  0.14742800  1
  O  O26  1  0.86000100  0.86000100  0.86000100  1
  O  O27  1  0.87460500  0.64742800  0.63664100  1
  O  O28  1  0.87336200  0.89781700  0.39328100  1
  O  O29  1  0.88617600  0.11382400  0.61382400  1
  O  O30  1  0.89781700  0.39328100  0.87336200  1
  O  O31  1  0.89328100  0.62663800  0.10218300  1
loop_
_geom_bond_atom_site_label_1
_geom_bond_atom_site_label_2
_geom_bond_distance
_geom_bond_site_symmetry_2
Li0 O6 2.078156 1_555
Li0 O7 2.078156 1_555
Li0 O11 2.078156 1_555
Li0 O28 2.103098 1_455
Li0 O0 2.103098 1_565
Li0 O1 2.103098 1_555
Li1 O15 1.979398 1_555
Li1 O12 1.979398 1_555
Li1 O1 1.979398 1_555
Li1 O2 1.994822 1_555
Li2 O0 1.979398 1_555
Li2 O14 1.979398 1_555
Li2 O3 1.979398 1_555
Li2 O13 1.994822 1_555
Li3 O8 2.078156 1_555
Li3 O4 2.078156 1_555
Li3 O9 2.078156 1_555
Li3 O19 2.103098 1_555
Li3 O15 2.103098 1_545
Li3 O14 2.103098 1_556
Li4 O23 2.078156 1_555
Li4 O27 2.078156 1_555
Li4 O22 2.078156 1_555
Li4 O17 2.103098 1_555
Li4 O12 2.103098 1_555
Li4 O16 2.103098 1_555
Li5 O28 1.979398 1_555
Li5 O17 1.979398 1_555
Li5 O31 1.979398 1_555
Li5 O18 1.994822 1_555
Li6 O30 1.979398 1_555
Li6 O16 1.979398 1_555
Li6 O19 1.979398 1_555
Li6 O29 1.994822 1_555
Li7 O20 2.078156 1_555
Li7 O25 2.078156 1_555
Li7 O24 2.078156 1_555
Li7 O30 2.103098 1_554
Li7 O3 2.103098 1_655
Li7 O31 2.103098 1_555
Mn0 O3 1.879397 1_555
Mn0 O6 1.892175 1_555
Mn0 O10 1.932616 1_555
Mn0 O31 1.955617 1_455
Mn0 O2 1.982050 1_554
Mn0 O7 1.993518 1_555
Mn1 O30 1.879397 1_455
Mn1 O4 1.892175 1_555
Mn1 O5 1.932616 1_555
Mn1 O3 1.955617 1_556
Mn1 O2 1.982050 1_555
Mn1 O9 1.993518 1_555
Mn2 O0 1.879397 1_555
Mn2 O8 1.892175 1_555
Mn2 O5 1.932616 1_555
Mn2 O1 1.955617 1_545
Mn2 O29 1.982050 1_455
Mn2 O4 1.993518 1_555
Mn3 O15 1.879397 1_554
Mn3 O7 1.892175 1_555
Mn3 O10 1.932616 1_555
Mn3 O14 1.955617 1_565
Mn3 O18 1.982050 1_555
Mn3 O11 1.993518 1_555
Mn4 O17 1.879397 1_555
Mn4 O11 1.892175 1_555
Mn4 O10 1.932616 1_555
Mn4 O12 1.955617 1_555
Mn4 O13 1.982050 1_555
Mn4 O6 1.993518 1_555
Mn5 O12 1.879397 1_555
Mn5 O9 1.892175 1_555
Mn5 O5 1.932616 1_555
Mn5 O16 1.955617 1_555
Mn5 O13 1.982050 1_555
Mn5 O8 1.993518 1_555
Mn6 O19 1.879397 1_565
Mn6 O22 1.892175 1_555
Mn6 O26 1.932616 1_555
Mn6 O15 1.955617 1_555
Mn6 O18 1.982050 1_556
Mn6 O23 1.993518 1_555
Mn7 O14 1.879397 1_555
Mn7 O20 1.892175 1_555
Mn7 O21 1.932616 1_555
Mn7 O19 1.955617 1_554
Mn7 O18 1.982050 1_545
Mn7 O25 1.993518 1_555
Mn8 O16 1.879397 1_555
Mn8 O24 1.892175 1_555
Mn8 O21 1.932616 1_555
Mn8 O17 1.955617 1_555
Mn8 O13 1.982050 1_555
Mn8 O20 1.993518 1_555
Mn9 O31 1.879397 1_556
Mn9 O23 1.892175 1_555
Mn9 O26 1.932616 1_555
Mn9 O30 1.955617 1_555
Mn9 O2 1.982050 1_655
Mn9 O27 1.993518 1_555
Mn10 O1 1.879397 1_655
Mn10 O27 1.892175 1_555
Mn10 O26 1.932616 1_555
Mn10 O28 1.955617 1_555
Mn10 O29 1.982050 1_565
Mn10 O22 1.993518 1_555
Mn11 O28 1.879397 1_545
Mn11 O25 1.892175 1_555
Mn11 O21 1.932616 1_555
Mn11 O0 1.955617 1_655
Mn11 O29 1.982050 1_555
Mn11 O24 1.993518 1_555
Ni0 O24 1.955952 1_555
Ni0 O27 1.955952 1_555
Ni0 O6 1.955952 1_655
Ni0 O5 2.037509 1_655
Ni1 O9 1.955952 1_555
Ni1 O20 1.955952 1_556
Ni1 O23 1.955952 1_555
Ni1 O10 2.037509 1_556
Ni2 O11 1.955952 1_555
Ni2 O22 1.955952 1_555
Ni2 O8 1.955952 1_565
Ni2 O21 2.037509 1_565
Ni3 O25 1.955952 1_455
Ni3 O4 1.955952 1_554
Ni3 O7 1.955952 1_545
Ni3 O26 2.037509 1_444
