# generated using pymatgen
data_Fe2O3
_symmetry_space_group_name_H-M   'P 1'
_cell_length_a   5.14257500
_cell_length_b   5.38325854
_cell_length_c   14.90158229
_cell_angle_alpha   89.60904209
_cell_angle_beta   89.98588136
_cell_angle_gamma   89.83420867
_symmetry_Int_Tables_number   1
_chemical_formula_structural   Fe2O3
_chemical_formula_sum   'Fe16 O24'
_cell_volume   412.52124297
_cell_formula_units_Z   8
loop_
 _symmetry_equiv_pos_site_id
 _symmetry_equiv_pos_as_xyz
  1  'x, y, z'
loop_
 _atom_site_type_symbol
 _atom_site_label
 _atom_site_symmetry_multiplicity
 _atom_site_fract_x
 _atom_site_fract_y
 _atom_site_fract_z
 _atom_site_occupancy
  Fe  Fe0  1  0.99962500  0.82281700  0.07631000  1
  Fe  Fe1  1  0.00211400  0.26049200  0.17905200  1
  Fe  Fe2  1  0.99665900  0.68362200  0.57202800  1
  Fe  Fe3  1  0.00290000  0.23701100  0.67990200  1
  Fe  Fe4  1  0.49973000  0.76036900  0.18176400  1
  Fe  Fe5  1  0.49751400  0.74100800  0.68079200  1
  Fe  Fe6  1  0.50133600  0.32340800  0.07490100  1
  Fe  Fe7  1  0.50229600  0.18534800  0.57255200  1
  Fe  Fe8  1  0.49681000  0.81432900  0.42640000  1
  Fe  Fe9  1  0.49728500  0.68436300  0.92983800  1
  Fe  Fe10  1  0.49987900  0.25573800  0.31901000  1
  Fe  Fe11  1  0.50142300  0.24434200  0.82126000  1
  Fe  Fe12  1  0.00093800  0.31263500  0.42523300  1
  Fe  Fe13  1  0.00193200  0.75098500  0.32433900  1
  Fe  Fe14  1  0.99620200  0.73876400  0.82111400  1
  Fe  Fe15  1  0.00150500  0.18107600  0.92853100  1
  O  O0  1  0.86322200  0.88188600  0.20569800  1
  O  O1  1  0.85785300  0.61009400  0.70280400  1
  O  O2  1  0.85309700  0.15477200  0.05202800  1
  O  O3  1  0.84652700  0.33421000  0.54883500  1
  O  O4  1  0.80820200  0.03549600  0.37268900  1
  O  O5  1  0.80227400  0.45843100  0.87733800  1
  O  O6  1  0.70213400  0.54465800  0.37152300  1
  O  O7  1  0.70224100  0.95936900  0.87664900  1
  O  O8  1  0.65348800  0.83303900  0.54932800  1
  O  O9  1  0.65236400  0.65558100  0.05189000  1
  O  O10  1  0.63540600  0.38381500  0.20095600  1
  O  O11  1  0.63975100  0.11043100  0.70271400  1
  O  O12  1  0.34620900  0.89689500  0.29731200  1
  O  O13  1  0.35752500  0.61022900  0.79719000  1
  O  O14  1  0.35277400  0.17056600  0.44791100  1
  O  O15  1  0.34806700  0.33096100  0.95050500  1
  O  O16  1  0.29828300  0.46170600  0.62185000  1
  O  O17  1  0.30590800  0.04570800  0.12371800  1
  O  O18  1  0.19433200  0.54642900  0.12195500  1
  O  O19  1  0.19604200  0.95813800  0.62236200  1
  O  O20  1  0.14671500  0.67015000  0.44689800  1
  O  O21  1  0.15338700  0.83272300  0.95157600  1
  O  O22  1  0.14299100  0.11197900  0.79701700  1
  O  O23  1  0.14306200  0.40642600  0.29623000  1
loop_
_geom_bond_atom_site_label_1
_geom_bond_atom_site_label_2
_geom_bond_distance
_geom_bond_site_symmetry_2
Fe0 O18 1.912301 1_655
Fe0 O2 1.968660 1_565
Fe0 O21 2.020188 1_654
Fe0 O9 2.036209 1_555
Fe0 O0 2.077760 1_555
Fe0 O17 2.107779 1_665
Fe1 O18 2.015173 1_555
Fe1 O10 2.024602 1_455
Fe1 O23 2.052849 1_555
Fe1 O17 2.111739 1_555
Fe1 O2 2.124150 1_455
Fe1 O0 2.195237 1_445
Fe2 O19 1.955006 1_655
Fe2 O8 1.965764 1_555
Fe2 O20 2.019509 1_655
Fe2 O3 2.066642 1_555
Fe2 O16 2.088556 1_655
Fe2 O1 2.110530 1_555
Fe3 O19 1.995994 1_545
Fe3 O22 1.999889 1_555
Fe3 O11 2.017772 1_455
Fe3 O16 2.124761 1_555
Fe3 O1 2.169584 1_455
Fe3 O3 2.172435 1_455
Fe4 O0 2.014929 1_555
Fe4 O17 2.018558 1_565
Fe4 O12 2.035058 1_555
Fe4 O18 2.147664 1_555
Fe4 O10 2.159096 1_555
Fe4 O9 2.165966 1_555
Fe5 O13 2.002023 1_555
Fe5 O1 2.006916 1_555
Fe5 O16 2.027127 1_555
Fe5 O19 2.122314 1_555
Fe5 O11 2.148042 1_565
Fe5 O8 2.171375 1_555
Fe6 O17 1.941012 1_555
Fe6 O9 1.979369 1_555
Fe6 O15 2.014599 1_554
Fe6 O10 2.029738 1_555
Fe6 O2 2.051106 1_555
Fe6 O18 2.103711 1_555
Fe7 O16 1.964474 1_555
Fe7 O3 1.976070 1_555
Fe7 O14 2.012560 1_555
Fe7 O8 2.078838 1_545
Fe7 O11 2.100665 1_555
Fe7 O19 2.127341 1_545
Fe8 O6 1.974334 1_555
Fe8 O20 1.985371 1_555
Fe8 O8 2.004652 1_555
Fe8 O14 2.080648 1_565
Fe8 O12 2.117721 1_555
Fe8 O4 2.149389 1_565
Fe9 O21 1.966095 1_555
Fe9 O7 1.980759 1_555
Fe9 O9 1.991003 1_556
Fe9 O15 2.074455 1_555
Fe9 O5 2.133687 1_555
Fe9 O13 2.143867 1_555
Fe10 O10 2.010348 1_555
Fe10 O23 2.031815 1_555
Fe10 O6 2.034603 1_555
Fe10 O14 2.112196 1_555
Fe10 O12 2.116170 1_545
Fe10 O4 2.129879 1_555
Fe11 O22 2.011788 1_555
Fe11 O7 2.018701 1_545
Fe11 O11 2.039631 1_555
Fe11 O5 2.108158 1_555
Fe11 O13 2.130233 1_555
Fe11 O15 2.134964 1_555
Fe12 O4 1.961160 1_455
Fe12 O14 1.990377 1_555
Fe12 O3 2.009520 1_455
Fe12 O20 2.094576 1_555
Fe12 O23 2.114885 1_555
Fe12 O6 2.130199 1_455
Fe13 O4 1.965535 1_465
Fe13 O12 1.979170 1_555
Fe13 O20 2.016713 1_555
Fe13 O6 2.025763 1_455
Fe13 O0 2.027737 1_455
Fe13 O23 2.036008 1_555
Fe14 O5 1.991226 1_555
Fe14 O13 2.013485 1_655
Fe14 O1 2.028374 1_555
Fe14 O7 2.093533 1_555
Fe14 O21 2.169169 1_655
Fe14 O22 2.175800 1_665
Fe15 O5 1.958809 1_455
Fe15 O15 1.986652 1_555
Fe15 O2 1.996399 1_456
Fe15 O21 2.056091 1_545
Fe15 O7 2.101064 1_445
Fe15 O22 2.125119 1_555
