# generated using pymatgen
data_Li3Ni3O3F5
_symmetry_space_group_name_H-M   'P 1'
_cell_length_a   5.88633060
_cell_length_b   5.97773644
_cell_length_c   5.70660917
_cell_angle_alpha   118.50111028
_cell_angle_beta   89.98505649
_cell_angle_gamma   60.35394235
_symmetry_Int_Tables_number   1
_chemical_formula_structural   Li3Ni3O3F5
_chemical_formula_sum   'Li3 Ni3 O3 F5'
_cell_volume   145.83950399
_cell_formula_units_Z   1
loop_
 _symmetry_equiv_pos_site_id
 _symmetry_equiv_pos_as_xyz
  1  'x, y, z'
loop_
 _atom_site_type_symbol
 _atom_site_label
 _atom_site_symmetry_multiplicity
 _atom_site_fract_x
 _atom_site_fract_y
 _atom_site_fract_z
 _atom_site_occupancy
  Li  Li0  1  0.36663800  0.76694200  0.38346000  1
  Li  Li1  1  0.75493100  0.47951900  0.73977200  1
  Li  Li2  1  0.01132200  0.01288100  0.00640700  1
  Ni  Ni0  1  0.87327300  0.74900900  0.37449400  1
  Ni  Ni1  1  0.36843900  0.25003500  0.37840800  1
  Ni  Ni2  1  0.36846000  0.24996900  0.87164200  1
  O  O0  1  0.13932700  0.28946400  0.14480200  1
  O  O1  1  0.59893400  0.21165800  0.60580300  1
  O  O2  1  0.16623000  0.23505800  0.61762100  1
  F  F0  1  0.61584500  0.75769000  0.62406100  1
  F  F1  1  0.61589500  0.75771900  0.13362200  1
  F  F2  1  0.13701600  0.73997700  0.12923000  1
  F  F3  1  0.13692600  0.73992400  0.61068800  1
  F  F4  1  0.59676300  0.26015600  0.12999000  1
loop_
_geom_bond_atom_site_label_1
_geom_bond_atom_site_label_2
_geom_bond_distance
_geom_bond_site_symmetry_2
Li0 O2 2.042679 1_565
Li1 O2 2.002445 1_655
Li1 O1 2.068372 1_555
Li2 O0 1.977768 1_555
Ni0 O0 2.005876 1_655
Ni0 O1 2.023721 1_565
Ni1 O2 1.873353 1_555
Ni1 O1 1.885328 1_555
Ni1 O0 1.907314 1_555
Ni2 O2 1.873198 1_555
Ni2 O1 1.885298 1_555
Ni2 O0 1.907210 1_556
F0 Li1 1.890156 1_555
F0 Li0 2.008315 1_555
F0 Ni0 2.043940 1_555
F0 Ni2 2.137307 1_565
F1 Li1 1.890079 1_554
F1 Li0 2.008061 1_555
F1 Ni0 2.044198 1_555
F1 Ni1 2.137466 1_565
F2 Li2 1.896685 1_565
F2 Li0 1.987728 1_555
F2 Ni0 2.053262 1_455
F2 Ni2 2.130418 1_554
F3 Li2 1.896770 1_566
F3 Li0 1.987675 1_555
F3 Ni0 2.053244 1_455
F3 Ni1 2.129882 1_555
F4 Ni2 1.994877 1_554
F4 Ni1 1.995227 1_555
F4 Li2 2.018141 1_655
F4 Li0 2.205000 1_555
