# generated using pymatgen
data_Er2Nb2O7
_symmetry_space_group_name_H-M   'P 1'
_cell_length_a   7.29056790
_cell_length_b   7.29056790
_cell_length_c   7.29056790
_cell_angle_alpha   60.00000000
_cell_angle_beta   60.00000000
_cell_angle_gamma   60.00000000
_symmetry_Int_Tables_number   1
_chemical_formula_structural   Er2Nb2O7
_chemical_formula_sum   'Er4 Nb4 O14'
_cell_volume   274.01168239
_cell_formula_units_Z   2
loop_
 _symmetry_equiv_pos_site_id
 _symmetry_equiv_pos_as_xyz
  1  'x, y, z'
loop_
 _atom_site_type_symbol
 _atom_site_label
 _atom_site_symmetry_multiplicity
 _atom_site_fract_x
 _atom_site_fract_y
 _atom_site_fract_z
 _atom_site_occupancy
  Er  Er0  1  0.12500000  0.12500000  0.12500000  1
  Er  Er1  1  0.12500000  0.12500000  0.62500000  1
  Er  Er2  1  0.62500000  0.12500000  0.12500000  1
  Er  Er3  1  0.12500000  0.62500000  0.12500000  1
  Nb  Nb0  1  0.62500000  0.12500000  0.62500000  1
  Nb  Nb1  1  0.62500000  0.62500000  0.12500000  1
  Nb  Nb2  1  0.12500000  0.62500000  0.62500000  1
  Nb  Nb3  1  0.62500000  0.62500000  0.62500000  1
  O  O0  1  0.97262700  0.52737300  0.97262700  1
  O  O1  1  0.25000000  0.25000000  0.25000000  1
  O  O2  1  0.72262700  0.27737300  0.72262700  1
  O  O3  1  0.72262700  0.72262700  0.27737300  1
  O  O4  1  0.27737300  0.72262700  0.72262700  1
  O  O5  1  0.97262700  0.97262700  0.52737300  1
  O  O6  1  0.52737300  0.97262700  0.97262700  1
  O  O7  1  0.97262700  0.52737300  0.52737300  1
  O  O8  1  0.52737300  0.52737300  0.97262700  1
  O  O9  1  0.72262700  0.27737300  0.27737300  1
  O  O10  1  0.27737300  0.27737300  0.72262700  1
  O  O11  1  0.00000000  0.00000000  0.00000000  1
  O  O12  1  0.27737300  0.72262700  0.27737300  1
  O  O13  1  0.52737300  0.97262700  0.52737300  1
loop_
_geom_bond_atom_site_label_1
_geom_bond_atom_site_label_2
_geom_bond_distance
_geom_bond_site_symmetry_2
Er0 O1 2.232271 1_555
Er0 O11 2.232271 1_555
Er0 O12 2.406275 1_545
Er0 O9 2.406275 1_455
Er0 O10 2.406275 1_554
Er0 O6 2.406275 1_544
Er0 O0 2.406275 1_454
Er0 O5 2.406275 1_445
Er1 O11 2.232271 1_556
Er1 O1 2.232271 1_555
Er1 O4 2.406275 1_545
Er1 O7 2.406275 1_455
Er1 O13 2.406275 1_545
Er1 O2 2.406275 1_455
Er1 O10 2.406275 1_555
Er1 O5 2.406275 1_445
Er2 O11 2.232271 1_655
Er2 O1 2.232271 1_555
Er2 O8 2.406275 1_554
Er2 O9 2.406275 1_555
Er2 O2 2.406275 1_554
Er2 O13 2.406275 1_545
Er2 O3 2.406275 1_545
Er2 O6 2.406275 1_544
Er3 O1 2.232271 1_555
Er3 O11 2.232271 1_565
Er3 O8 2.406275 1_554
Er3 O3 2.406275 1_455
Er3 O12 2.406275 1_555
Er3 O4 2.406275 1_554
Er3 O7 2.406275 1_455
Er3 O0 2.406275 1_454
Nb0 O5 2.082119 1_545
Nb0 O6 2.082119 1_545
Nb0 O10 2.082119 1_555
Nb0 O2 2.082119 1_555
Nb0 O9 2.082119 1_555
Nb0 O13 2.082119 1_545
Nb1 O0 2.082119 1_554
Nb1 O6 2.082119 1_554
Nb1 O3 2.082119 1_555
Nb1 O12 2.082119 1_555
Nb1 O9 2.082119 1_555
Nb1 O8 2.082119 1_554
Nb2 O5 2.082119 1_455
Nb2 O0 2.082119 1_455
Nb2 O10 2.082119 1_555
Nb2 O12 2.082119 1_555
Nb2 O4 2.082119 1_555
Nb2 O7 2.082119 1_455
Nb3 O13 2.082119 1_555
Nb3 O7 2.082119 1_555
Nb3 O8 2.082119 1_555
Nb3 O2 2.082119 1_555
Nb3 O3 2.082119 1_555
Nb3 O4 2.082119 1_555
