# generated using pymatgen
data_CuHCO4
_symmetry_space_group_name_H-M   'P 1'
_cell_length_a   10.75122031
_cell_length_b   10.75122031
_cell_length_c   6.08899400
_cell_angle_alpha   90.00000000
_cell_angle_beta   90.00000000
_cell_angle_gamma   120.00000191
_symmetry_Int_Tables_number   1
_chemical_formula_structural   CuHCO4
_chemical_formula_sum   'Cu6 H6 C6 O24'
_cell_volume   609.52523723
_cell_formula_units_Z   6
loop_
 _symmetry_equiv_pos_site_id
 _symmetry_equiv_pos_as_xyz
  1  'x, y, z'
loop_
 _atom_site_type_symbol
 _atom_site_label
 _atom_site_symmetry_multiplicity
 _atom_site_fract_x
 _atom_site_fract_y
 _atom_site_fract_z
 _atom_site_occupancy
  Cu  Cu0  1  0.00000000  0.50000000  0.50000000  1
  Cu  Cu1  1  0.00000000  0.50000000  0.00000000  1
  Cu  Cu2  1  0.50000000  0.50000000  0.50000000  1
  Cu  Cu3  1  0.50000000  0.50000000  0.00000000  1
  Cu  Cu4  1  0.50000000  0.00000000  0.50000000  1
  Cu  Cu5  1  0.50000000  0.00000000  0.00000000  1
  H  H0  1  0.18700400  0.59362900  0.75000000  1
  H  H1  1  0.40662500  0.81299600  0.75000000  1
  H  H2  1  0.40637100  0.59337500  0.75000000  1
  H  H3  1  0.59362900  0.40662500  0.25000000  1
  H  H4  1  0.59337500  0.18700400  0.25000000  1
  H  H5  1  0.81299600  0.40637100  0.25000000  1
  C  C0  1  0.19251800  0.75103300  0.25000000  1
  C  C1  1  0.24896700  0.44148500  0.25000000  1
  C  C2  1  0.55851500  0.80748200  0.25000000  1
  C  C3  1  0.44148500  0.19251800  0.75000000  1
  C  C4  1  0.75103300  0.55851500  0.75000000  1
  C  C5  1  0.80748200  0.24896700  0.75000000  1
  O  O0  1  0.14701000  0.68772700  0.44077200  1
  O  O1  1  0.14701000  0.68772700  0.05922800  1
  O  O2  1  0.28961000  0.88099600  0.25000000  1
  O  O3  1  0.10138800  0.49773600  0.75000000  1
  O  O4  1  0.11900400  0.40861300  0.25000000  1
  O  O5  1  0.39634800  0.89861200  0.75000000  1
  O  O6  1  0.31227300  0.45928200  0.44077200  1
  O  O7  1  0.31227300  0.45928200  0.05922800  1
  O  O8  1  0.54071800  0.85299000  0.05922800  1
  O  O9  1  0.54071800  0.85299000  0.44077200  1
  O  O10  1  0.50226400  0.60365200  0.75000000  1
  O  O11  1  0.59138700  0.71039000  0.25000000  1
  O  O12  1  0.40861300  0.28961000  0.75000000  1
  O  O13  1  0.49773600  0.39634800  0.25000000  1
  O  O14  1  0.45928200  0.14701000  0.55922800  1
  O  O15  1  0.45928200  0.14701000  0.94077200  1
  O  O16  1  0.68772700  0.54071800  0.94077200  1
  O  O17  1  0.68772700  0.54071800  0.55922800  1
  O  O18  1  0.60365200  0.10138800  0.25000000  1
  O  O19  1  0.88099600  0.59138700  0.75000000  1
  O  O20  1  0.89861200  0.50226400  0.25000000  1
  O  O21  1  0.71039000  0.11900400  0.75000000  1
  O  O22  1  0.85299000  0.31227300  0.94077200  1
  O  O23  1  0.85299000  0.31227300  0.55922800  1
loop_
_geom_bond_atom_site_label_1
_geom_bond_atom_site_label_2
_geom_bond_distance
_geom_bond_site_symmetry_2
Cu0 O23 1.873948 1_455
Cu0 O0 1.873948 1_555
Cu0 O3 1.879511 1_555
Cu0 O20 1.879511 1_455
Cu0 O19 2.485282 1_455
Cu0 O4 2.485282 1_555
Cu1 O22 1.873948 1_454
Cu1 O1 1.873948 1_555
Cu1 O3 1.879511 1_554
Cu1 O20 1.879511 1_455
Cu1 O4 2.485282 1_555
Cu1 O19 2.485282 1_454
Cu2 O17 1.873945 1_555
Cu2 O6 1.873945 1_555
Cu2 O10 1.879511 1_555
Cu2 O13 1.879511 1_555
Cu2 O11 2.485275 1_555
Cu2 O12 2.485275 1_555
Cu3 O16 1.873945 1_554
Cu3 O7 1.873945 1_555
Cu3 O10 1.879511 1_554
Cu3 O13 1.879511 1_555
Cu3 O11 2.485275 1_555
Cu3 O12 2.485275 1_554
Cu4 O14 1.873955 1_555
Cu4 O9 1.873955 1_545
Cu4 O18 1.879511 1_555
Cu4 O5 1.879511 1_545
Cu4 O21 2.485275 1_555
Cu4 O2 2.485275 1_545
Cu5 O15 1.873955 1_554
Cu5 O8 1.873955 1_545
Cu5 O18 1.879511 1_555
Cu5 O5 1.879511 1_544
Cu5 O21 2.485275 1_554
Cu5 O2 2.485275 1_545
H0 O3 0.980402 1_555
H1 O5 0.980402 1_555
H2 O10 0.980402 1_555
H3 O13 0.980402 1_555
H4 O18 0.980402 1_555
H5 O20 0.980402 1_555
C0 O2 1.258346 1_555
C0 O0 1.311089 1_555
C0 O1 1.311089 1_555
C1 O4 1.258343 1_555
C1 O7 1.311090 1_555
C1 O6 1.311090 1_555
C2 O11 1.258354 1_555
C2 O9 1.311086 1_555
C2 O8 1.311086 1_555
C3 O12 1.258354 1_555
C3 O15 1.311086 1_555
C3 O14 1.311086 1_555
C4 O19 1.258343 1_555
C4 O17 1.311090 1_555
C4 O16 1.311090 1_555
C5 O21 1.258346 1_555
C5 O22 1.311089 1_555
C5 O23 1.311089 1_555
