# generated using pymatgen
data_Li4Mn2V5O12
_symmetry_space_group_name_H-M   'P 1'
_cell_length_a   9.02867900
_cell_length_b   5.32069000
_cell_length_c   9.90782556
_cell_angle_alpha   80.51200129
_cell_angle_beta   90.00000000
_cell_angle_gamma   90.00000000
_symmetry_Int_Tables_number   1
_chemical_formula_structural   Li4Mn2V5O12
_chemical_formula_sum   'Li8 Mn4 V10 O24'
_cell_volume   469.44900899
_cell_formula_units_Z   2
loop_
 _symmetry_equiv_pos_site_id
 _symmetry_equiv_pos_as_xyz
  1  'x, y, z'
loop_
 _atom_site_type_symbol
 _atom_site_label
 _atom_site_symmetry_multiplicity
 _atom_site_fract_x
 _atom_site_fract_y
 _atom_site_fract_z
 _atom_site_occupancy
  Li  Li0  1  0.91753400  0.01340900  0.73930900  1
  Li  Li1  1  0.91755500  0.48093200  0.25863700  1
  Li  Li2  1  0.58241100  0.75848100  0.50286500  1
  Li  Li3  1  0.41753400  0.98659100  0.26069100  1
  Li  Li4  1  0.58616700  0.50027900  0.25836100  1
  Li  Li5  1  0.41755500  0.51906800  0.74136300  1
  Li  Li6  1  0.08241100  0.24151900  0.49713500  1
  Li  Li7  1  0.08616700  0.49972100  0.74163900  1
  Mn  Mn0  1  0.75074100  0.24073800  0.50545400  1
  Mn  Mn1  1  0.74279600  0.76490100  0.98642100  1
  Mn  Mn2  1  0.24279600  0.23509900  0.01357900  1
  Mn  Mn3  1  0.25074100  0.75926200  0.49454600  1
  V  V0  1  0.91659100  0.25252700  0.00157300  1
  V  V1  1  0.92218800  0.74613600  0.49435800  1
  V  V2  1  0.75157900  0.99790800  0.25542400  1
  V  V3  1  0.57581900  0.24816600  0.00002100  1
  V  V4  1  0.74446500  0.50250900  0.74048100  1
  V  V5  1  0.42218800  0.25386400  0.50564200  1
  V  V6  1  0.41659100  0.74747300  0.99842700  1
  V  V7  1  0.25157900  0.00209200  0.74457600  1
  V  V8  1  0.24446500  0.49749100  0.25951900  1
  V  V9  1  0.07581900  0.75183400  0.99997900  1
  O  O0  1  0.89573000  0.12169900  0.38341700  1
  O  O1  1  0.91094000  0.90027900  0.10808500  1
  O  O2  1  0.75357000  0.16446000  0.87915000  1
  O  O3  1  0.77542500  0.84145100  0.62415500  1
  O  O4  1  0.91215700  0.60235500  0.87657800  1
  O  O5  1  0.90554700  0.37715700  0.61437400  1
  O  O6  1  0.76667800  0.65171800  0.36666800  1
  O  O7  1  0.59390900  0.13617400  0.38854300  1
  O  O8  1  0.58313800  0.89542100  0.12410000  1
  O  O9  1  0.74209800  0.34646100  0.12430300  1
  O  O10  1  0.41094000  0.09972100  0.89191500  1
  O  O11  1  0.39573000  0.87830100  0.61658300  1
  O  O12  1  0.57258400  0.58937300  0.88346500  1
  O  O13  1  0.59754300  0.38667500  0.61401000  1
  O  O14  1  0.27542500  0.15854900  0.37584500  1
  O  O15  1  0.40554700  0.62284300  0.38562600  1
  O  O16  1  0.41215700  0.39764500  0.12342200  1
  O  O17  1  0.25357000  0.83554000  0.12085000  1
  O  O18  1  0.24209800  0.65353900  0.87569700  1
  O  O19  1  0.08313800  0.10457900  0.87590000  1
  O  O20  1  0.09390900  0.86382600  0.61145700  1
  O  O21  1  0.26667800  0.34828200  0.63333200  1
  O  O22  1  0.09754300  0.61332500  0.38599000  1
  O  O23  1  0.07258400  0.41062700  0.11653500  1
loop_
_geom_bond_atom_site_label_1
_geom_bond_atom_site_label_2
_geom_bond_distance
_geom_bond_site_symmetry_2
Li0 O3 2.032043 1_545
Li0 O5 2.121289 1_555
Li0 O19 2.125745 1_655
Li0 O20 2.259706 1_645
Li0 O2 2.263675 1_555
Li0 O4 2.377978 1_545
Li1 O6 2.036588 1_555
Li1 O23 2.062761 1_655
Li1 O0 2.107497 1_555
Li1 O22 2.241018 1_655
Li1 O9 2.259827 1_555
Li1 O1 2.471770 1_555
Li2 O13 2.103959 1_555
Li2 O7 2.140504 1_565
Li2 O15 2.167119 1_555
Li2 O11 2.180264 1_555
Li2 O3 2.202450 1_555
Li2 O6 2.272483 1_555
Li3 O14 2.032043 1_565
Li3 O15 2.121289 1_555
Li3 O8 2.125745 1_555
Li3 O7 2.259706 1_565
Li3 O17 2.263675 1_555
Li3 O16 2.377978 1_565
Li4 O7 2.144253 1_555
Li4 O6 2.177612 1_555
Li4 O9 2.185042 1_555
Li4 O16 2.189666 1_555
Li4 O15 2.223882 1_555
Li4 O8 2.295310 1_555
Li5 O21 2.036588 1_555
Li5 O12 2.062761 1_555
Li5 O11 2.107497 1_555
Li5 O13 2.241018 1_555
Li5 O18 2.259827 1_555
Li5 O10 2.471770 1_555
Li6 O22 2.103959 1_555
Li6 O20 2.140504 1_545
Li6 O5 2.167119 1_455
Li6 O0 2.180264 1_455
Li6 O14 2.202450 1_555
Li6 O21 2.272483 1_555
Li7 O20 2.144253 1_555
Li7 O21 2.177612 1_555
Li7 O18 2.185042 1_555
Li7 O4 2.189666 1_455
Li7 O5 2.223882 1_455
Li7 O19 2.295310 1_555
Mn0 O0 1.956846 1_555
Mn0 O7 1.966912 1_555
Mn0 O5 1.975658 1_555
Mn0 O13 1.987022 1_555
Mn0 O3 2.263296 1_545
Mn0 O6 2.387855 1_555
Mn1 O1 2.136077 1_556
Mn1 O4 2.140294 1_555
Mn1 O12 2.142095 1_555
Mn1 O8 2.175608 1_556
Mn1 O2 2.216691 1_565
Mn1 O9 2.412547 1_556
Mn2 O10 2.136077 1_554
Mn2 O16 2.140294 1_555
Mn2 O23 2.142095 1_555
Mn2 O19 2.175608 1_554
Mn2 O17 2.216691 1_545
Mn2 O18 2.412547 1_554
Mn3 O11 1.956846 1_555
Mn3 O20 1.966912 1_555
Mn3 O15 1.975658 1_555
Mn3 O22 1.987022 1_555
Mn3 O14 2.263296 1_565
Mn3 O21 2.387855 1_555
O0 V2 2.002808 1_545
O0 V1 2.129357 1_545
O1 V0 1.994201 1_565
O1 V9 2.065437 1_654
O1 V2 2.172803 1_555
O2 V0 2.011110 1_556
O2 V4 2.077217 1_555
O2 V3 2.093785 1_556
O3 V1 1.970240 1_555
O3 V4 1.993366 1_555
O4 V0 2.059099 1_556
O4 V4 2.151500 1_555
O4 V9 2.152075 1_655
O5 V4 2.096626 1_555
O5 V1 2.126297 1_555
O6 V2 1.989204 1_555
O6 V1 2.008437 1_555
O7 V5 2.093196 1_555
O7 V2 2.151081 1_545
O8 V3 2.068224 1_565
O8 V2 2.130036 1_555
O8 V6 2.180436 1_554
O9 V3 2.062993 1_555
O9 V2 2.083286 1_545
O9 V0 2.100190 1_555
O10 V6 1.994201 1_545
O10 V3 2.065437 1_556
O10 V7 2.172803 1_555
O11 V7 2.002808 1_565
O11 V5 2.129357 1_565
O12 V3 1.984730 1_556
O12 V6 2.074729 1_555
O12 V4 2.201058 1_555
O13 V4 1.991036 1_555
O13 V5 2.099737 1_555
O14 V5 1.970240 1_555
O14 V8 1.993366 1_555
O15 V8 2.096626 1_555
O15 V5 2.126297 1_555
O16 V6 2.059099 1_554
O16 V8 2.151500 1_555
O16 V3 2.152075 1_555
O17 V6 2.011110 1_554
O17 V8 2.077217 1_555
O17 V9 2.093785 1_554
O18 V9 2.062993 1_555
O18 V7 2.083286 1_565
O18 V6 2.100190 1_555
O19 V9 2.068224 1_545
O19 V7 2.130036 1_555
O19 V0 2.180436 1_456
O20 V1 2.093196 1_455
O20 V7 2.151081 1_565
O21 V7 1.989204 1_555
O21 V5 2.008437 1_555
O22 V8 1.991036 1_555
O22 V1 2.099737 1_455
O23 V9 1.984730 1_554
O23 V0 2.074729 1_455
O23 V8 2.201058 1_555
