# generated using pymatgen
data_Sn2(SO4)3
_symmetry_space_group_name_H-M   'P 1'
_cell_length_a   9.19060730
_cell_length_b   9.19060730
_cell_length_c   9.19060759
_cell_angle_alpha   59.99873463
_cell_angle_beta   59.99873463
_cell_angle_gamma   59.99873810
_symmetry_Int_Tables_number   1
_chemical_formula_structural   Sn2(SO4)3
_chemical_formula_sum   'Sn4 S6 O24'
_cell_volume   548.91512351
_cell_formula_units_Z   2
loop_
 _symmetry_equiv_pos_site_id
 _symmetry_equiv_pos_as_xyz
  1  'x, y, z'
loop_
 _atom_site_type_symbol
 _atom_site_label
 _atom_site_symmetry_multiplicity
 _atom_site_fract_x
 _atom_site_fract_y
 _atom_site_fract_z
 _atom_site_occupancy
  Sn  Sn0  1  0.85987000  0.85987000  0.85987000  1
  Sn  Sn1  1  0.64013000  0.64013000  0.64013000  1
  Sn  Sn2  1  0.14013000  0.14013000  0.14013000  1
  Sn  Sn3  1  0.35987000  0.35987000  0.35987000  1
  S  S0  1  0.25000000  0.54595700  0.95404300  1
  S  S1  1  0.45404300  0.04595700  0.75000000  1
  S  S2  1  0.04595700  0.75000000  0.45404300  1
  S  S3  1  0.95404300  0.25000000  0.54595700  1
  S  S4  1  0.54595700  0.95404300  0.25000000  1
  S  S5  1  0.75000000  0.45404300  0.04595700  1
  O  O0  1  0.40038600  0.55851600  0.78020600  1
  O  O1  1  0.21979400  0.59961400  0.44148400  1
  O  O2  1  0.40195800  0.98928400  0.19392600  1
  O  O3  1  0.51071600  0.09804200  0.30607400  1
  O  O4  1  0.09961400  0.71979400  0.94148400  1
  O  O5  1  0.28020600  0.05851600  0.90038600  1
  O  O6  1  0.44148400  0.21979400  0.59961400  1
  O  O7  1  0.69392600  0.48928400  0.90195800  1
  O  O8  1  0.01071600  0.80607400  0.59804200  1
  O  O9  1  0.80607400  0.59804200  0.01071600  1
  O  O10  1  0.90195800  0.69392600  0.48928400  1
  O  O11  1  0.05851600  0.90038600  0.28020600  1
  O  O12  1  0.94148400  0.09961400  0.71979400  1
  O  O13  1  0.19392600  0.40195800  0.98928400  1
  O  O14  1  0.09804200  0.30607400  0.51071600  1
  O  O15  1  0.30607400  0.51071600  0.09804200  1
  O  O16  1  0.98928400  0.19392600  0.40195800  1
  O  O17  1  0.55851600  0.78020600  0.40038600  1
  O  O18  1  0.71979400  0.94148400  0.09961400  1
  O  O19  1  0.90038600  0.28020600  0.05851600  1
  O  O20  1  0.59804200  0.01071600  0.80607400  1
  O  O21  1  0.48928400  0.90195800  0.69392600  1
  O  O22  1  0.78020600  0.40038600  0.55851600  1
  O  O23  1  0.59961400  0.44148400  0.21979400  1
loop_
_geom_bond_atom_site_label_1
_geom_bond_atom_site_label_2
_geom_bond_distance
_geom_bond_site_symmetry_2
O0 S0 1.497669 1_555
O0 Sn1 2.219304 1_555
O1 S2 1.497669 1_555
O1 Sn3 2.219304 1_555
O2 S4 1.486090 1_555
O2 Sn2 2.263873 1_565
O3 S4 1.486090 1_545
O3 Sn3 2.263873 1_555
O4 S0 1.497669 1_555
O4 Sn0 2.219304 1_455
O5 S1 1.497669 1_555
O5 Sn2 2.219304 1_556
O6 S1 1.497669 1_555
O6 Sn3 2.219304 1_555
O7 S5 1.486090 1_556
O7 Sn1 2.263873 1_555
O8 S2 1.486090 1_555
O8 Sn0 2.263873 1_455
O9 S5 1.486090 1_555
O9 Sn0 2.263873 1_554
O10 S2 1.486090 1_655
O10 Sn1 2.263873 1_555
O11 S2 1.497669 1_555
O11 Sn2 2.219304 1_565
O12 S3 1.497669 1_555
O12 Sn0 2.219304 1_545
O13 S0 1.486090 1_555
O13 Sn2 2.263873 1_556
O14 S3 1.486090 1_455
O14 Sn3 2.263873 1_555
O15 S0 1.486090 1_554
O15 Sn3 2.263873 1_555
O16 S3 1.486090 1_555
O16 Sn2 2.263873 1_655
O17 S4 1.497669 1_555
O17 Sn1 2.219304 1_555
O18 S4 1.497669 1_555
O18 Sn0 2.219304 1_554
O19 S5 1.497669 1_555
O19 Sn2 2.219304 1_655
O20 S1 1.486090 1_555
O20 Sn0 2.263873 1_545
O21 S1 1.486090 1_565
O21 Sn1 2.263873 1_555
O22 S3 1.497669 1_555
O22 Sn1 2.219304 1_555
O23 S5 1.497669 1_555
O23 Sn3 2.219304 1_555
