# generated using pymatgen
data_Li8TiMn3(PO4)6
_symmetry_space_group_name_H-M   'P 1'
_cell_length_a   9.34681356
_cell_length_b   8.43767042
_cell_length_c   8.48973419
_cell_angle_alpha   60.68861752
_cell_angle_beta   63.18558261
_cell_angle_gamma   90.30083885
_symmetry_Int_Tables_number   1
_chemical_formula_structural   Li8TiMn3(PO4)6
_chemical_formula_sum   'Li8 Ti1 Mn3 P6 O24'
_cell_volume   498.57353574
_cell_formula_units_Z   1
loop_
 _symmetry_equiv_pos_site_id
 _symmetry_equiv_pos_as_xyz
  1  'x, y, z'
loop_
 _atom_site_type_symbol
 _atom_site_label
 _atom_site_symmetry_multiplicity
 _atom_site_fract_x
 _atom_site_fract_y
 _atom_site_fract_z
 _atom_site_occupancy
  Li  Li0  1  0.86348500  0.26401600  0.80930100  1
  Li  Li1  1  0.90102800  0.93842900  0.36881300  1
  Li  Li2  1  0.85416000  0.66256800  0.06891000  1
  Li  Li3  1  0.59377900  0.79888400  0.66725300  1
  Li  Li4  1  0.41448000  0.19901600  0.33025400  1
  Li  Li5  1  0.14685000  0.34471500  0.92197300  1
  Li  Li6  1  0.09510500  0.05672200  0.63739600  1
  Li  Li7  1  0.13681800  0.73576300  0.20030100  1
  Ti  Ti0  1  0.03431400  0.35346800  0.30672800  1
  Mn  Mn0  1  0.96865300  0.64956100  0.68899200  1
  Mn  Mn1  1  0.43891000  0.15008800  0.71093700  1
  Mn  Mn2  1  0.56234700  0.84984800  0.28577000  1
  P  P0  1  0.75215100  0.95541800  0.77957100  1
  P  P1  1  0.75080300  0.53956800  0.50987500  1
  P  P2  1  0.75961700  0.25243100  0.19849200  1
  P  P3  1  0.23871900  0.74868600  0.81358600  1
  P  P4  1  0.24735500  0.44577500  0.49510800  1
  P  P5  1  0.24796900  0.05881900  0.20523700  1
  O  O0  1  0.89354900  0.15865000  0.62745100  1
  O  O1  1  0.81155400  0.49153400  0.66455800  1
  O  O2  1  0.81005000  0.84300500  0.67240400  1
  O  O3  1  0.89919500  0.53810500  0.31176000  1
  O  O4  1  0.89961900  0.21092400  0.26423000  1
  O  O5  1  0.73909600  0.74791000  0.41602200  1
  O  O6  1  0.58392400  0.97543800  0.80301500  1
  O  O7  1  0.59024900  0.40250000  0.60150500  1
  O  O8  1  0.81615300  0.46624400  0.02976800  1
  O  O9  1  0.75934100  0.13005700  0.11051500  1
  O  O10  1  0.58887800  0.19180700  0.39349800  1
  O  O11  1  0.75153500  0.86273400  0.98816500  1
  O  O12  1  0.26798800  0.16599600  0.98600000  1
  O  O13  1  0.40621400  0.77864500  0.63131900  1
  O  O14  1  0.25422000  0.86296600  0.90362700  1
  O  O15  1  0.16790400  0.52733200  0.99909900  1
  O  O16  1  0.40398300  0.60519200  0.37417000  1
  O  O17  1  0.40870900  0.04046000  0.21075100  1
  O  O18  1  0.27631100  0.24697600  0.56072000  1
  O  O19  1  0.10248900  0.79720500  0.75383800  1
  O  O20  1  0.10406200  0.42841800  0.69721300  1
  O  O21  1  0.17517400  0.17574500  0.31188200  1
  O  O22  1  0.17185400  0.48430200  0.34797000  1
  O  O23  1  0.11140700  0.86408000  0.34202100  1
loop_
_geom_bond_atom_site_label_1
_geom_bond_atom_site_label_2
_geom_bond_distance
_geom_bond_site_symmetry_2
Li0 O1 1.915499 1_555
Li0 O9 1.917579 1_556
Li0 O0 2.051333 1_555
Li0 O20 2.151830 1_655
Li1 O5 1.957540 1_555
Li1 O2 1.999495 1_555
Li1 O23 2.015204 1_655
Li1 O4 2.021634 1_565
Li2 O8 1.902622 1_555
Li2 O11 1.928517 1_554
Li2 O3 2.049015 1_555
Li2 O19 2.286608 1_654
Li3 O13 1.930312 1_555
Li3 O2 2.077146 1_555
Li3 O5 2.206735 1_555
Li3 O6 2.267808 1_555
Li4 O10 1.925564 1_555
Li4 O18 2.039817 1_555
Li4 O17 2.049296 1_555
Li4 O21 2.325093 1_555
Li5 O12 1.903177 1_555
Li5 O20 1.916184 1_555
Li5 O15 1.985607 1_555
Li5 O4 2.400067 1_456
Li6 O19 1.928879 1_545
Li6 O18 1.955234 1_555
Li6 O0 2.094114 1_455
Li6 O21 2.148148 1_555
Li7 O14 1.883384 1_554
Li7 O23 1.922650 1_555
Li7 O22 1.988471 1_555
Li7 O3 2.264861 1_455
Mn0 O1 2.121820 1_555
Mn0 O8 2.160813 1_556
Mn0 O19 2.167104 1_655
Mn0 O2 2.206869 1_555
Mn0 O23 2.223024 1_655
Mn0 O20 2.250646 1_655
Mn1 O7 2.060424 1_555
Mn1 O6 2.113967 1_545
Mn1 O12 2.228631 1_555
Mn1 O10 2.238173 1_555
Mn1 O14 2.247933 1_545
Mn1 O18 2.312000 1_555
Mn2 O16 2.112924 1_555
Mn2 O17 2.213814 1_565
Mn2 O11 2.284848 1_554
Mn2 O9 2.287426 1_565
Mn2 O5 2.328881 1_555
Mn2 O13 2.345080 1_555
O0 P0 1.619588 1_545
O0 Ti0 2.051811 1_655
O1 P1 1.537948 1_555
O2 P0 1.557694 1_555
O3 P1 1.633598 1_555
O3 Ti0 2.015203 1_655
O4 P2 1.618277 1_555
O4 Ti0 1.995131 1_655
O5 P1 1.564091 1_555
O6 P0 1.514564 1_555
O7 P1 1.497460 1_555
O8 P2 1.537088 1_555
O9 P2 1.542999 1_555
O10 P2 1.525744 1_555
O11 P0 1.543534 1_555
O12 P5 1.533983 1_556
O13 P3 1.528568 1_555
O14 P3 1.534694 1_555
O15 P3 1.604161 1_555
O15 Ti0 1.954333 1_556
O16 P4 1.509207 1_555
O17 P5 1.530428 1_555
O18 P4 1.556644 1_555
O19 P3 1.559199 1_555
O20 P4 1.561372 1_555
O21 P5 1.606819 1_555
O21 Ti0 1.998123 1_555
O22 P4 1.601318 1_555
O22 Ti0 1.939994 1_555
O23 P5 1.565283 1_565
