# generated using pymatgen
data_LiCuPO4
_symmetry_space_group_name_H-M   'P 1'
_cell_length_a   4.26697300
_cell_length_b   4.58328200
_cell_length_c   15.00417800
_cell_angle_alpha   90.00000000
_cell_angle_beta   90.00000000
_cell_angle_gamma   90.00000000
_symmetry_Int_Tables_number   1
_chemical_formula_structural   LiCuPO4
_chemical_formula_sum   'Li4 Cu4 P4 O16'
_cell_volume   293.43281624
_cell_formula_units_Z   4
loop_
 _symmetry_equiv_pos_site_id
 _symmetry_equiv_pos_as_xyz
  1  'x, y, z'
loop_
 _atom_site_type_symbol
 _atom_site_label
 _atom_site_symmetry_multiplicity
 _atom_site_fract_x
 _atom_site_fract_y
 _atom_site_fract_z
 _atom_site_occupancy
  Li  Li0  1  0.00000000  0.75000000  0.24705800  1
  Li  Li1  1  0.00000000  0.25000000  0.75294200  1
  Li  Li2  1  0.50000000  0.25000000  0.25294200  1
  Li  Li3  1  0.50000000  0.75000000  0.74705800  1
  Cu  Cu0  1  0.00000000  0.25000000  0.07105700  1
  Cu  Cu1  1  0.00000000  0.75000000  0.92894300  1
  Cu  Cu2  1  0.50000000  0.75000000  0.42894300  1
  Cu  Cu3  1  0.50000000  0.25000000  0.57105700  1
  P  P0  1  0.00000000  0.25000000  0.38640500  1
  P  P1  1  0.00000000  0.75000000  0.61359500  1
  P  P2  1  0.50000000  0.25000000  0.88640500  1
  P  P3  1  0.50000000  0.75000000  0.11359500  1
  O  O0  1  0.19013900  0.46709500  0.32754000  1
  O  O1  1  0.19013900  0.96709500  0.67246000  1
  O  O2  1  0.26574800  0.57798500  0.05443400  1
  O  O3  1  0.26574800  0.07798500  0.94556600  1
  O  O4  1  0.23425200  0.07798500  0.44556600  1
  O  O5  1  0.23425200  0.57798500  0.55443400  1
  O  O6  1  0.30986100  0.96709500  0.17246000  1
  O  O7  1  0.30986100  0.46709500  0.82754000  1
  O  O8  1  0.69013900  0.53290500  0.17246000  1
  O  O9  1  0.69013900  0.03290500  0.82754000  1
  O  O10  1  0.76574800  0.92201500  0.55443400  1
  O  O11  1  0.76574800  0.42201500  0.44556600  1
  O  O12  1  0.73425200  0.92201500  0.05443400  1
  O  O13  1  0.73425200  0.42201500  0.94556600  1
  O  O14  1  0.80986100  0.03290500  0.32754000  1
  O  O15  1  0.80986100  0.53290500  0.67246000  1
loop_
_geom_bond_atom_site_label_1
_geom_bond_atom_site_label_2
_geom_bond_distance
_geom_bond_site_symmetry_2
Li0 O0 1.948772 1_555
Li0 O14 1.948772 1_465
Li0 O6 1.997739 1_555
Li0 O8 1.997739 1_455
Li1 O15 1.948772 1_455
Li1 O1 1.948772 1_545
Li1 O9 1.997739 1_455
Li1 O7 1.997739 1_555
Li2 O8 1.948772 1_555
Li2 O6 1.948772 1_545
Li2 O14 1.997739 1_555
Li2 O0 1.997739 1_555
Li3 O9 1.948772 1_565
Li3 O7 1.948772 1_555
Li3 O15 1.997739 1_555
Li3 O1 1.997739 1_555
Cu0 O2 1.899416 1_555
Cu0 O12 1.899416 1_445
Cu0 O3 2.335092 1_554
Cu0 O13 2.335092 1_454
Cu0 O8 2.396717 1_455
Cu0 O6 2.396717 1_545
Cu1 O3 1.899416 1_565
Cu1 O13 1.899416 1_455
Cu1 O12 2.335092 1_456
Cu1 O2 2.335092 1_556
Cu1 O9 2.396717 1_465
Cu1 O7 2.396717 1_555
Cu2 O4 1.899416 1_565
Cu2 O11 1.899416 1_555
Cu2 O10 2.335092 1_555
Cu2 O5 2.335092 1_555
Cu2 O14 2.396717 1_565
Cu2 O0 2.396717 1_555
Cu3 O5 1.899416 1_555
Cu3 O10 1.899416 1_545
Cu3 O11 2.335092 1_555
Cu3 O4 2.335092 1_555
Cu3 O15 2.396717 1_555
Cu3 O1 2.396717 1_545
O0 P0 1.558318 1_555
O1 P1 1.558318 1_555
O2 P3 1.551967 1_555
O3 P2 1.551967 1_555
O4 P0 1.551967 1_555
O5 P1 1.551967 1_555
O6 P3 1.558318 1_555
O7 P2 1.558318 1_555
O8 P3 1.558318 1_555
O9 P2 1.558318 1_555
O10 P1 1.551967 1_655
O11 P0 1.551967 1_655
O12 P3 1.551967 1_555
O13 P2 1.551967 1_555
O14 P0 1.558318 1_655
O15 P1 1.558318 1_655
