# generated using pymatgen
data_Li3CrP2HO8
_symmetry_space_group_name_H-M   'P 1'
_cell_length_a   8.08954760
_cell_length_b   11.16722967
_cell_length_c   8.23975750
_cell_angle_alpha   110.32979749
_cell_angle_beta   117.61534119
_cell_angle_gamma   91.69855688
_symmetry_Int_Tables_number   1
_chemical_formula_structural   Li3CrP2HO8
_chemical_formula_sum   'Li12 Cr4 P8 H4 O32'
_cell_volume   601.97126663
_cell_formula_units_Z   4
loop_
 _symmetry_equiv_pos_site_id
 _symmetry_equiv_pos_as_xyz
  1  'x, y, z'
loop_
 _atom_site_type_symbol
 _atom_site_label
 _atom_site_symmetry_multiplicity
 _atom_site_fract_x
 _atom_site_fract_y
 _atom_site_fract_z
 _atom_site_occupancy
  Li  Li0  1  0.74989400  0.87491600  0.12489500  1
  Li  Li1  1  0.24995000  0.12497200  0.87490100  1
  Li  Li2  1  0.24987300  0.62493500  0.37492700  1
  Li  Li3  1  0.74993100  0.37498800  0.62492600  1
  Li  Li4  1  0.79492000  0.03166200  0.59147100  1
  Li  Li5  1  0.29487400  0.28167600  0.34145900  1
  Li  Li6  1  0.29488800  0.78167600  0.84152000  1
  Li  Li7  1  0.79483200  0.53170800  0.09146100  1
  Li  Li8  1  0.70516800  0.21835200  0.15848700  1
  Li  Li9  1  0.20525000  0.46831700  0.90852300  1
  Li  Li10  1  0.20519200  0.96835000  0.40851000  1
  Li  Li11  1  0.70529100  0.71828900  0.65858700  1
  Cr  Cr0  1  0.49983600  0.75008500  0.25027700  1
  Cr  Cr1  1  0.99999200  0.49995600  0.50000900  1
  Cr  Cr2  1  0.00003700  0.99997700  0.99989600  1
  Cr  Cr3  1  0.49995100  0.24996100  0.75001900  1
  P  P0  1  0.01716500  0.19109700  0.46092300  1
  P  P1  1  0.51718100  0.44112600  0.21097100  1
  P  P2  1  0.51719100  0.94113900  0.71097700  1
  P  P3  1  0.01718600  0.69111900  0.96098100  1
  P  P4  1  0.48284900  0.05888200  0.28908600  1
  P  P5  1  0.98284100  0.30886100  0.03904400  1
  P  P6  1  0.98281700  0.80884500  0.53905000  1
  P  P7  1  0.48283900  0.55886300  0.78905000  1
  H  H0  1  0.50000000  0.00009500  0.00012000  1
  H  H1  1  0.00000100  0.25006700  0.75006400  1
  H  H2  1  0.99998800  0.75011700  0.25015700  1
  H  H3  1  0.49996800  0.50008800  0.50009800  1
  O  O0  1  0.22744400  0.23432400  0.51990300  1
  O  O1  1  0.72744800  0.48431800  0.26991100  1
  O  O2  1  0.72745200  0.98434200  0.76989100  1
  O  O3  1  0.22745400  0.73434400  0.01991700  1
  O  O4  1  0.27256000  0.01566500  0.23007300  1
  O  O5  1  0.77256500  0.26565000  0.98003000  1
  O  O6  1  0.77255100  0.76566700  0.48008100  1
  O  O7  1  0.27256700  0.51566000  0.73005900  1
  O  O8  1  0.01567800  0.15685400  0.63213200  1
  O  O9  1  0.51568000  0.40685600  0.38213800  1
  O  O10  1  0.51568300  0.90686400  0.88214000  1
  O  O11  1  0.01570000  0.65684800  0.13216400  1
  O  O12  1  0.48432900  0.09313800  0.11785100  1
  O  O13  1  0.98432400  0.34313100  0.86783400  1
  O  O14  1  0.98432600  0.84313100  0.36784700  1
  O  O15  1  0.48430600  0.59314300  0.61781600  1
  O  O16  1  0.90977300  0.07128100  0.25925400  1
  O  O17  1  0.40976800  0.32130600  0.00926200  1
  O  O18  1  0.40972200  0.82134500  0.50928400  1
  O  O19  1  0.90977400  0.57133400  0.75926700  1
  O  O20  1  0.59021900  0.17871000  0.49071200  1
  O  O21  1  0.09026600  0.42867600  0.24069600  1
  O  O22  1  0.09022500  0.92868100  0.74070700  1
  O  O23  1  0.59027500  0.67865900  0.99070300  1
  O  O24  1  0.58846500  0.94456400  0.30167900  1
  O  O25  1  0.08846100  0.19454300  0.05165200  1
  O  O26  1  0.08845500  0.69454700  0.55166800  1
  O  O27  1  0.58846600  0.44455400  0.80164800  1
  O  O28  1  0.91153200  0.30541900  0.44830600  1
  O  O29  1  0.41153900  0.55543700  0.19832000  1
  O  O30  1  0.41154400  0.05545200  0.69833200  1
  O  O31  1  0.91154300  0.80543900  0.94833700  1
loop_
_geom_bond_atom_site_label_1
_geom_bond_atom_site_label_2
_geom_bond_distance
_geom_bond_site_symmetry_2
Li0 O23 2.125561 1_554
Li0 O16 2.127106 1_565
Li0 O10 2.177280 1_554
Li0 O14 2.178087 1_555
Li0 O31 2.338351 1_554
Li0 O24 2.338505 1_555
Li1 O22 2.126163 1_545
Li1 O17 2.126650 1_556
Li1 O8 2.177193 1_555
Li1 O12 2.178163 1_556
Li1 O30 2.338102 1_555
Li1 O25 2.338599 1_556
Li2 O21 2.125508 1_555
Li2 O18 2.127445 1_555
Li2 O11 2.176981 1_555
Li2 O15 2.177833 1_555
Li2 O26 2.338104 1_555
Li2 O29 2.338809 1_555
Li3 O20 2.125987 1_555
Li3 O19 2.126850 1_555
Li3 O9 2.177127 1_555
Li3 O13 2.178146 1_555
Li3 O27 2.338242 1_555
Li3 O28 2.338545 1_555
Li4 O2 2.001248 1_545
Li4 O24 2.007448 1_545
Li4 O8 2.056169 1_655
Li4 O20 2.441708 1_555
Li4 O22 2.638855 1_645
Li5 O0 2.001433 1_555
Li5 O25 2.007454 1_555
Li5 O9 2.056318 1_555
Li5 O21 2.440876 1_555
Li5 O20 2.639006 1_555
Li6 O3 2.000970 1_556
Li6 O26 2.007731 1_555
Li6 O10 2.056534 1_555
Li6 O22 2.441268 1_555
Li6 O23 2.639486 1_555
Li7 O1 2.001472 1_555
Li7 O27 2.007395 1_554
Li7 O11 2.056345 1_655
Li7 O23 2.440199 1_554
Li8 O5 2.001066 1_554
Li8 O28 2.007377 1_555
Li8 O12 2.056920 1_555
Li8 O16 2.441514 1_555
Li8 O17 2.639189 1_555
Li9 O7 2.000986 1_555
Li9 O29 2.007128 1_556
Li9 O13 2.057069 1_455
Li9 O17 2.440531 1_556
Li9 O19 2.640110 1_455
Li10 O4 2.000864 1_565
Li10 O30 2.007385 1_565
Li10 O14 2.057016 1_455
Li10 O18 2.440604 1_555
Li10 O16 2.639187 1_465
Li11 O6 2.001237 1_555
Li11 O31 2.006818 1_555
Li11 O15 2.056850 1_555
Li11 O19 2.439744 1_555
Li11 O18 2.640987 1_555
Cr0 O3 2.087283 1_555
Cr0 O6 2.087670 1_555
Cr0 O29 2.096716 1_555
Cr0 O24 2.096935 1_555
Cr0 O18 2.452735 1_555
Cr0 O23 2.458842 1_554
Cr1 O7 2.087383 1_655
Cr1 O1 2.087572 1_555
Cr1 O28 2.096474 1_555
Cr1 O26 2.097170 1_655
Cr1 O19 2.455225 1_555
Cr1 O21 2.455918 1_655
Cr2 O2 2.087492 1_455
Cr2 O4 2.087571 1_566
Cr2 O25 2.096583 1_566
Cr2 O31 2.096918 1_455
Cr2 O22 2.454515 1_555
Cr2 O16 2.456201 1_466
Cr3 O0 2.087443 1_555
Cr3 O5 2.087501 1_555
Cr3 O30 2.096124 1_555
Cr3 O27 2.097360 1_555
Cr3 O17 2.454901 1_556
Cr3 O20 2.455829 1_555
H0 O12 1.207542 1_555
H0 O10 1.209953 1_544
H1 O13 1.207882 1_455
H1 O8 1.209592 1_555
H2 O14 1.207130 1_555
H2 O11 1.210378 1_655
H3 O15 1.207525 1_555
H3 O9 1.209986 1_555
O0 P0 1.544259 1_555
O1 P1 1.544201 1_555
O2 P2 1.544241 1_555
O3 P3 1.544281 1_554
O4 P4 1.544234 1_555
O5 P5 1.544120 1_556
O6 P6 1.544094 1_555
O7 P7 1.544132 1_555
O8 P0 1.589593 1_555
O9 P1 1.589468 1_555
O10 P2 1.589490 1_555
O11 P3 1.589553 1_554
O12 P4 1.589859 1_555
O13 P5 1.589754 1_556
O14 P6 1.589882 1_555
O15 P7 1.589954 1_555
O16 P0 1.534317 1_655
O17 P1 1.534515 1_555
O18 P2 1.534325 1_555
O19 P3 1.534349 1_655
O20 P4 1.534191 1_555
O21 P5 1.534249 1_455
O22 P6 1.534378 1_455
O23 P7 1.534155 1_555
O24 P4 1.563651 1_565
O25 P5 1.563680 1_455
O26 P6 1.563576 1_455
O27 P7 1.563617 1_555
O28 P0 1.563783 1_655
O29 P1 1.563744 1_555
O30 P2 1.563780 1_545
O31 P3 1.563829 1_655
