# generated using pymatgen
data_Li8Mn15NiO32
_symmetry_space_group_name_H-M   'P 1'
_cell_length_a   8.37453504
_cell_length_b   8.37453504
_cell_length_c   8.37453476
_cell_angle_alpha   90.21078602
_cell_angle_beta   90.21078602
_cell_angle_gamma   90.21078259
_symmetry_Int_Tables_number   1
_chemical_formula_structural   Li8Mn15NiO32
_chemical_formula_sum   'Li8 Mn15 Ni1 O32'
_cell_volume   587.31793010
_cell_formula_units_Z   1
loop_
 _symmetry_equiv_pos_site_id
 _symmetry_equiv_pos_as_xyz
  1  'x, y, z'
loop_
 _atom_site_type_symbol
 _atom_site_label
 _atom_site_symmetry_multiplicity
 _atom_site_fract_x
 _atom_site_fract_y
 _atom_site_fract_z
 _atom_site_occupancy
  Li  Li0  1  0.12147400  0.12646300  0.62598900  1
  Li  Li1  1  0.87852600  0.37401100  0.87353700  1
  Li  Li2  1  0.87353700  0.87852600  0.37401100  1
  Li  Li3  1  0.62598900  0.12147400  0.12646300  1
  Li  Li4  1  0.62312400  0.62312400  0.62312400  1
  Li  Li5  1  0.37687600  0.37687600  0.37687600  1
  Li  Li6  1  0.37401100  0.87353700  0.87852600  1
  Li  Li7  1  0.12646300  0.62598900  0.12147400  1
  Mn  Mn0  1  0.00463500  0.24884300  0.25222900  1
  Mn  Mn1  1  0.00000000  0.50406100  0.49593900  1
  Mn  Mn2  1  0.99536500  0.74777100  0.75115700  1
  Mn  Mn3  1  0.75056000  0.50000000  0.24944000  1
  Mn  Mn4  1  0.75660900  0.24339100  0.50000000  1
  Mn  Mn5  1  0.74777100  0.75115700  0.99536500  1
  Mn  Mn6  1  0.75115700  0.99536500  0.74777100  1
  Mn  Mn7  1  0.50406100  0.49593900  0.00000000  1
  Mn  Mn8  1  0.50000000  0.24944000  0.75056000  1
  Mn  Mn9  1  0.50000000  0.75660900  0.24339100  1
  Mn  Mn10  1  0.49593900  0.00000000  0.50406100  1
  Mn  Mn11  1  0.24884300  0.25222900  0.00463500  1
  Mn  Mn12  1  0.24339100  0.50000000  0.75660900  1
  Mn  Mn13  1  0.25222900  0.00463500  0.24884300  1
  Mn  Mn14  1  0.24944000  0.75056000  0.50000000  1
  Ni  Ni0  1  0.00000000  0.00000000  0.00000000  1
  O  O0  1  0.01948800  0.24876200  0.02290400  1
  O  O1  1  0.02290400  0.01948800  0.24876200  1
  O  O2  1  0.01160900  0.73750600  0.51390100  1
  O  O3  1  0.99754400  0.51639000  0.72670100  1
  O  O4  1  0.00245600  0.27329900  0.48361000  1
  O  O5  1  0.98839100  0.48609900  0.26249400  1
  O  O6  1  0.97709600  0.75123800  0.98051200  1
  O  O7  1  0.98051200  0.97709600  0.75123800  1
  O  O8  1  0.77625800  0.24126600  0.26904700  1
  O  O9  1  0.76917900  0.49566800  0.48314100  1
  O  O10  1  0.76087000  0.76087000  0.76087000  1
  O  O11  1  0.75123800  0.98051200  0.97709600  1
  O  O12  1  0.73095300  0.75873400  0.22374200  1
  O  O13  1  0.73750600  0.51390100  0.01160900  1
  O  O14  1  0.75873400  0.22374200  0.73095300  1
  O  O15  1  0.72670100  0.99754400  0.51639000  1
  O  O16  1  0.51685900  0.50433200  0.23082100  1
  O  O17  1  0.51639000  0.72670100  0.99754400  1
  O  O18  1  0.51390100  0.01160900  0.73750600  1
  O  O19  1  0.50433200  0.23082100  0.51685900  1
  O  O20  1  0.49566800  0.48314100  0.76917900  1
  O  O21  1  0.48609900  0.26249400  0.98839100  1
  O  O22  1  0.48361000  0.00245600  0.27329900  1
  O  O23  1  0.48314100  0.76917900  0.49566800  1
  O  O24  1  0.27329900  0.48361000  0.00245600  1
  O  O25  1  0.24126600  0.26904700  0.77625800  1
  O  O26  1  0.26249400  0.98839100  0.48609900  1
  O  O27  1  0.26904700  0.77625800  0.24126600  1
  O  O28  1  0.24876200  0.02290400  0.01948800  1
  O  O29  1  0.23913000  0.23913000  0.23913000  1
  O  O30  1  0.23082100  0.51685900  0.50433200  1
  O  O31  1  0.22374200  0.73095300  0.75873400  1
loop_
_geom_bond_atom_site_label_1
_geom_bond_atom_site_label_2
_geom_bond_distance
_geom_bond_site_symmetry_2
Li0 O4 1.984528 1_555
Li0 O25 1.996678 1_555
Li0 O7 2.016520 1_445
Li0 O26 2.028402 1_545
Li1 O3 1.984528 1_555
Li1 O14 1.996678 1_555
Li1 O0 2.016520 1_656
Li1 O13 2.028402 1_556
Li2 O15 1.984528 1_555
Li2 O12 1.996678 1_555
Li2 O1 2.016520 1_665
Li2 O2 2.028402 1_655
Li3 O22 1.984528 1_555
Li3 O8 1.996678 1_555
Li3 O11 2.016520 1_544
Li3 O21 2.028402 1_554
Li4 O10 1.990658 1_555
Li4 O9 2.005145 1_555
Li4 O23 2.005145 1_555
Li4 O20 2.005145 1_555
Li5 O29 1.990658 1_555
Li5 O19 2.005145 1_555
Li5 O30 2.005145 1_555
Li5 O16 2.005145 1_555
Li6 O17 1.984528 1_555
Li6 O31 1.996678 1_555
Li6 O28 2.016520 1_566
Li6 O18 2.028402 1_565
Li7 O24 1.984528 1_555
Li7 O27 1.996678 1_555
Li7 O6 2.016520 1_454
Li7 O5 2.028402 1_455
Mn0 O8 1.919081 1_455
Mn0 O0 1.924969 1_555
Mn0 O1 1.927507 1_555
Mn0 O4 1.947912 1_555
Mn0 O29 1.969214 1_555
Mn0 O5 1.993620 1_455
Mn1 O3 1.935090 1_455
Mn1 O4 1.935090 1_555
Mn1 O9 1.936597 1_455
Mn1 O30 1.936597 1_555
Mn1 O5 1.962246 1_455
Mn1 O2 1.962246 1_555
Mn2 O31 1.919080 1_655
Mn2 O7 1.924969 1_555
Mn2 O6 1.927507 1_555
Mn2 O3 1.947912 1_555
Mn2 O10 1.969214 1_555
Mn2 O2 1.993620 1_655
Mn3 O9 1.963246 1_555
Mn3 O16 1.963246 1_555
Mn3 O13 1.998166 1_555
Mn3 O5 1.998166 1_555
Mn3 O8 2.184946 1_555
Mn3 O12 2.184946 1_555
Mn4 O14 1.941736 1_555
Mn4 O8 1.941736 1_555
Mn4 O4 2.078218 1_655
Mn4 O15 2.078218 1_545
Mn4 O9 2.120187 1_555
Mn4 O19 2.120187 1_555
Mn5 O12 1.919080 1_556
Mn5 O6 1.924969 1_555
Mn5 O11 1.927507 1_555
Mn5 O17 1.947912 1_555
Mn5 O10 1.969214 1_555
Mn5 O13 1.993620 1_556
Mn6 O14 1.919081 1_565
Mn6 O11 1.924969 1_555
Mn6 O7 1.927507 1_555
Mn6 O15 1.947912 1_555
Mn6 O10 1.969214 1_555
Mn6 O18 1.993620 1_565
Mn7 O24 1.935090 1_555
Mn7 O17 1.935090 1_554
Mn7 O20 1.936597 1_554
Mn7 O16 1.936597 1_555
Mn7 O21 1.962246 1_554
Mn7 O13 1.962246 1_555
Mn8 O19 1.963246 1_555
Mn8 O20 1.963246 1_555
Mn8 O21 1.998166 1_555
Mn8 O18 1.998166 1_555
Mn8 O14 2.184946 1_555
Mn8 O25 2.184946 1_555
Mn9 O27 1.941736 1_555
Mn9 O12 1.941736 1_555
Mn9 O17 2.078218 1_554
Mn9 O22 2.078218 1_565
Mn9 O23 2.120187 1_555
Mn9 O16 2.120187 1_555
Mn10 O22 1.935090 1_555
Mn10 O15 1.935090 1_545
Mn10 O19 1.936597 1_555
Mn10 O23 1.936597 1_545
Mn10 O18 1.962246 1_555
Mn10 O26 1.962246 1_545
Mn11 O25 1.919080 1_554
Mn11 O28 1.924969 1_555
Mn11 O0 1.927507 1_555
Mn11 O24 1.947912 1_555
Mn11 O29 1.969214 1_555
Mn11 O21 1.993620 1_554
Mn12 O31 1.941736 1_555
Mn12 O25 1.941736 1_555
Mn12 O24 2.078218 1_556
Mn12 O3 2.078218 1_455
Mn12 O30 2.120187 1_555
Mn12 O20 2.120187 1_555
Mn13 O27 1.919080 1_545
Mn13 O1 1.924969 1_555
Mn13 O28 1.927507 1_555
Mn13 O22 1.947912 1_555
Mn13 O29 1.969214 1_555
Mn13 O26 1.993620 1_545
Mn14 O23 1.963246 1_555
Mn14 O30 1.963246 1_555
Mn14 O26 1.998166 1_555
Mn14 O2 1.998166 1_555
Mn14 O31 2.184946 1_555
Mn14 O27 2.184946 1_555
Ni0 O1 2.097082 1_555
Ni0 O7 2.097082 1_444
Ni0 O0 2.097082 1_555
Ni0 O11 2.097082 1_444
Ni0 O28 2.097082 1_555
Ni0 O6 2.097082 1_444
