# generated using pymatgen
data_Er2GeO5
_symmetry_space_group_name_H-M   'P 1'
_cell_length_a   7.91697684
_cell_length_b   7.91697684
_cell_length_c   11.14673777
_cell_angle_alpha   86.42754820
_cell_angle_beta   86.42754820
_cell_angle_gamma   88.97172865
_symmetry_Int_Tables_number   1
_chemical_formula_structural   Er2GeO5
_chemical_formula_sum   'Er12 Ge6 O30'
_cell_volume   695.87905735
_cell_formula_units_Z   6
loop_
 _symmetry_equiv_pos_site_id
 _symmetry_equiv_pos_as_xyz
  1  'x, y, z'
loop_
 _atom_site_type_symbol
 _atom_site_label
 _atom_site_symmetry_multiplicity
 _atom_site_fract_x
 _atom_site_fract_y
 _atom_site_fract_z
 _atom_site_occupancy
  Er  Er0  1  0.00477726  0.29815112  0.06383135  1
  Er  Er1  1  0.00017213  0.63843049  0.24885149  1
  Er  Er2  1  0.29815112  0.00477726  0.56383135  1
  Er  Er3  1  0.34499600  0.62544385  0.42992407  1
  Er  Er4  1  0.37455615  0.65500400  0.07007593  1
  Er  Er5  1  0.36156951  0.99982787  0.25114851  1
  Er  Er6  1  0.63843049  0.00017213  0.74885149  1
  Er  Er7  1  0.62544385  0.34499600  0.92992407  1
  Er  Er8  1  0.65500400  0.37455615  0.57007593  1
  Er  Er9  1  0.70184888  0.99522274  0.43616865  1
  Er  Er10  1  0.99982787  0.36156951  0.75114851  1
  Er  Er11  1  0.99522274  0.70184888  0.93616865  1
  Ge  Ge0  1  0.06289729  0.27036557  0.45267562  1
  Ge  Ge1  1  0.27036557  0.06289729  0.95267562  1
  Ge  Ge2  1  0.36078839  0.63921161  0.75000000  1
  Ge  Ge3  1  0.63921161  0.36078839  0.25000000  1
  Ge  Ge4  1  0.72963443  0.93710271  0.04732438  1
  Ge  Ge5  1  0.93710271  0.72963443  0.54732438  1
  O  O0  1  0.12466297  0.54233032  0.07612978  1
  O  O1  1  0.12243494  0.47105790  0.39289441  1
  O  O2  1  0.11296456  0.18791323  0.88438873  1
  O  O3  1  0.14468953  0.59513104  0.78132346  1
  O  O4  1  0.18791323  0.11296456  0.38438873  1
  O  O5  1  0.15333771  0.76972253  0.54446249  1
  O  O6  1  0.13035759  0.22887643  0.60179449  1
  O  O7  1  0.26238453  0.73761547  0.25000000  1
  O  O8  1  0.23027747  0.84666229  0.95553751  1
  O  O9  1  0.22887643  0.13035759  0.10179449  1
  O  O10  1  0.40486896  0.85531047  0.71867654  1
  O  O11  1  0.43720461  0.53807947  0.61914100  1
  O  O12  1  0.45766968  0.87533703  0.42387022  1
  O  O13  1  0.47105790  0.12243494  0.89289441  1
  O  O14  1  0.46192053  0.56279539  0.88085900  1
  O  O15  1  0.53807947  0.43720461  0.11914100  1
  O  O16  1  0.52894210  0.87756506  0.10710559  1
  O  O17  1  0.54233032  0.12466297  0.57612978  1
  O  O18  1  0.56279539  0.46192053  0.38085900  1
  O  O19  1  0.59513104  0.14468953  0.28132346  1
  O  O20  1  0.77112357  0.86964241  0.89820551  1
  O  O21  1  0.76972253  0.15333771  0.04446249  1
  O  O22  1  0.73761547  0.26238453  0.75000000  1
  O  O23  1  0.86964241  0.77112357  0.39820551  1
  O  O24  1  0.84666229  0.23027747  0.45553751  1
  O  O25  1  0.81208677  0.88703544  0.61561127  1
  O  O26  1  0.85531047  0.40486896  0.21867654  1
  O  O27  1  0.88703544  0.81208677  0.11561127  1
  O  O28  1  0.87756506  0.52894210  0.60710559  1
  O  O29  1  0.87533703  0.45766968  0.92387022  1
loop_
_geom_bond_atom_site_label_1
_geom_bond_atom_site_label_2
_geom_bond_distance
_geom_bond_site_symmetry_2
Er0 O0 2.184457 1_555
Er0 O21 2.231942 1_455
Er0 O26 2.232609 1_455
Er0 O29 2.233000 1_454
Er0 O9 2.242860 1_555
Er0 O2 2.339515 1_554
Er1 O27 2.182972 1_455
Er1 O23 2.215335 1_455
Er1 O7 2.233681 1_555
Er1 O26 2.247066 1_455
Er1 O1 2.270080 1_555
Er1 O0 2.275108 1_555
Er2 O17 2.184457 1_555
Er2 O5 2.231942 1_545
Er2 O10 2.232609 1_545
Er2 O12 2.233000 1_545
Er2 O6 2.242860 1_555
Er2 O4 2.339515 1_555
Er3 O12 2.180262 1_555
Er3 O18 2.199768 1_555
Er3 O1 2.236024 1_555
Er3 O5 2.261692 1_555
Er3 O7 2.271424 1_555
Er3 O11 2.334908 1_555
Er4 O0 2.180262 1_555
Er4 O15 2.199768 1_555
Er4 O16 2.236024 1_555
Er4 O8 2.261692 1_554
Er4 O7 2.271424 1_555
Er4 O14 2.334908 1_554
Er5 O4 2.182972 1_565
Er5 O9 2.215335 1_565
Er5 O7 2.233681 1_555
Er5 O19 2.247066 1_565
Er5 O16 2.270080 1_555
Er5 O12 2.275108 1_555
Er6 O25 2.182972 1_545
Er6 O20 2.215335 1_545
Er6 O22 2.233681 1_555
Er6 O10 2.247066 1_545
Er6 O13 2.270080 1_555
Er6 O17 2.275108 1_555
Er7 O29 2.180262 1_555
Er7 O14 2.199768 1_555
Er7 O13 2.236024 1_555
Er7 O21 2.261692 1_556
Er7 O22 2.271424 1_555
Er7 O15 2.334908 1_556
Er8 O17 2.180262 1_555
Er8 O11 2.199768 1_555
Er8 O28 2.236024 1_555
Er8 O24 2.261692 1_555
Er8 O22 2.271424 1_555
Er8 O18 2.334908 1_555
Er9 O12 2.184457 1_555
Er9 O24 2.231942 1_565
Er9 O19 2.232609 1_565
Er9 O17 2.233000 1_565
Er9 O23 2.242860 1_555
Er9 O25 2.339515 1_555
Er10 O2 2.182972 1_655
Er10 O6 2.215335 1_655
Er10 O22 2.233681 1_555
Er10 O3 2.247066 1_655
Er10 O28 2.270080 1_555
Er10 O29 2.275108 1_555
Er11 O29 2.184457 1_555
Er11 O8 2.231942 1_655
Er11 O3 2.232609 1_655
Er11 O0 2.233000 1_656
Er11 O20 2.242860 1_555
Er11 O27 2.339515 1_556
Ge0 O24 1.744670 1_455
Ge0 O1 1.745434 1_555
Ge0 O4 1.758383 1_555
Ge0 O6 1.786701 1_555
Ge1 O8 1.744670 1_545
Ge1 O13 1.745434 1_555
Ge1 O2 1.758383 1_555
Ge1 O9 1.786701 1_556
Ge2 O3 1.761394 1_555
Ge2 O10 1.761394 1_555
Ge2 O14 1.775644 1_555
Ge2 O11 1.775644 1_555
Ge3 O26 1.761394 1_555
Ge3 O19 1.761394 1_555
Ge3 O18 1.775644 1_555
Ge3 O15 1.775644 1_555
Ge4 O21 1.744670 1_565
Ge4 O16 1.745434 1_555
Ge4 O27 1.758383 1_555
Ge4 O20 1.786701 1_554
Ge5 O5 1.744670 1_655
Ge5 O28 1.745434 1_555
Ge5 O25 1.758383 1_555
Ge5 O23 1.786701 1_555
