# generated using pymatgen
data_Rb2O
_symmetry_space_group_name_H-M   'P 1'
_cell_length_a   7.13967495
_cell_length_b   4.62195396
_cell_length_c   8.69259499
_cell_angle_alpha   90.00000000
_cell_angle_beta   90.00000000
_cell_angle_gamma   90.00000000
_symmetry_Int_Tables_number   1
_chemical_formula_structural   Rb2O
_chemical_formula_sum   'Rb8 O4'
_cell_volume   286.84910573
_cell_formula_units_Z   4
loop_
 _symmetry_equiv_pos_site_id
 _symmetry_equiv_pos_as_xyz
  1  'x, y, z'
loop_
 _atom_site_type_symbol
 _atom_site_label
 _atom_site_symmetry_multiplicity
 _atom_site_fract_x
 _atom_site_fract_y
 _atom_site_fract_z
 _atom_site_occupancy
  Rb  Rb0  1  0.00730406  0.25000000  0.15656252  1
  Rb  Rb1  1  0.13659891  0.25000000  0.58832653  1
  Rb  Rb2  1  0.36340109  0.75000000  0.08832653  1
  Rb  Rb3  1  0.49269594  0.75000000  0.65656252  1
  Rb  Rb4  1  0.50730406  0.25000000  0.34343748  1
  Rb  Rb5  1  0.63659891  0.25000000  0.91167347  1
  Rb  Rb6  1  0.86340109  0.75000000  0.41167347  1
  Rb  Rb7  1  0.99269594  0.75000000  0.84343748  1
  O  O0  1  0.25847296  0.75000000  0.40623083  1
  O  O1  1  0.24152704  0.25000000  0.90623083  1
  O  O2  1  0.75847296  0.75000000  0.09376917  1
  O  O3  1  0.74152704  0.25000000  0.59376917  1
loop_
_geom_bond_atom_site_label_1
_geom_bond_atom_site_label_2
_geom_bond_distance
_geom_bond_site_symmetry_2
O0 Rb3 2.744380 1_555
O0 Rb6 2.821081 1_455
O0 Rb2 2.863160 1_555
O0 Rb1 2.933135 1_555
O0 Rb1 2.933135 1_565
O0 Rb4 2.965597 1_555
O0 Rb4 2.965597 1_565
O1 Rb0 2.744380 1_556
O1 Rb5 2.821081 1_555
O1 Rb1 2.863160 1_555
O1 Rb2 2.933135 1_556
O1 Rb2 2.933135 1_546
O1 Rb7 2.965597 1_455
O1 Rb7 2.965597 1_445
O2 Rb7 2.744380 1_554
O2 Rb2 2.821081 1_555
O2 Rb6 2.863160 1_555
O2 Rb5 2.933135 1_564
O2 Rb5 2.933135 1_554
O2 Rb0 2.965597 1_655
O2 Rb0 2.965597 1_665
O3 Rb4 2.744380 1_555
O3 Rb1 2.821081 1_655
O3 Rb5 2.863160 1_555
O3 Rb6 2.933135 1_545
O3 Rb6 2.933135 1_555
O3 Rb3 2.965597 1_545
O3 Rb3 2.965597 1_555
