# generated using pymatgen
data_Hf2N2O
_symmetry_space_group_name_H-M   'P 1'
_cell_length_a   5.48004051
_cell_length_b   5.48004051
_cell_length_c   14.61213032
_cell_angle_alpha   89.93815551
_cell_angle_beta   89.93815551
_cell_angle_gamma   59.76883754
_symmetry_Int_Tables_number   1
_chemical_formula_structural   Hf2N2O
_chemical_formula_sum   'Hf12 N12 O6'
_cell_volume   379.13600256
_cell_formula_units_Z   6
loop_
 _symmetry_equiv_pos_site_id
 _symmetry_equiv_pos_as_xyz
  1  'x, y, z'
loop_
 _atom_site_type_symbol
 _atom_site_label
 _atom_site_symmetry_multiplicity
 _atom_site_fract_x
 _atom_site_fract_y
 _atom_site_fract_z
 _atom_site_occupancy
  Hf  Hf0  1  0.99624500  0.00024900  0.64294700  1
  Hf  Hf1  1  0.00024900  0.99624500  0.14294700  1
  Hf  Hf2  1  0.67695100  0.67778200  0.80990100  1
  Hf  Hf3  1  0.67827900  0.67391600  0.52402600  1
  Hf  Hf4  1  0.67778200  0.67695100  0.30990100  1
  Hf  Hf5  1  0.67391600  0.67827900  0.02402600  1
  Hf  Hf6  1  0.32608400  0.32172100  0.97597400  1
  Hf  Hf7  1  0.32221800  0.32304900  0.69009900  1
  Hf  Hf8  1  0.32172100  0.32608400  0.47597400  1
  Hf  Hf9  1  0.32304900  0.32221800  0.19009900  1
  Hf  Hf10  1  0.99975100  0.00375500  0.85705300  1
  Hf  Hf11  1  0.00375500  0.99975100  0.35705300  1
  N  N0  1  0.00361800  0.29160700  0.75190600  1
  N  N1  1  0.29160700  0.00361800  0.25190600  1
  N  N2  1  0.36805200  0.95602300  0.91770400  1
  N  N3  1  0.95602300  0.36805200  0.41770400  1
  N  N4  1  0.33888200  0.03453200  0.58463400  1
  N  N5  1  0.03453200  0.33888200  0.08463400  1
  N  N6  1  0.96546800  0.66111800  0.91536600  1
  N  N7  1  0.66111800  0.96546800  0.41536600  1
  N  N8  1  0.04397700  0.63194800  0.58229600  1
  N  N9  1  0.63194800  0.04397700  0.08229600  1
  N  N10  1  0.70839300  0.99638200  0.74809400  1
  N  N11  1  0.99638200  0.70839300  0.24809400  1
  O  O0  1  0.66545400  0.35565200  0.91804600  1
  O  O1  1  0.35565200  0.66545400  0.41804600  1
  O  O2  1  0.64434800  0.33454600  0.58195400  1
  O  O3  1  0.33454600  0.64434800  0.08195400  1
  O  O4  1  0.31133600  0.68866400  0.75000000  1
  O  O5  1  0.68866400  0.31133600  0.25000000  1
loop_
_geom_bond_atom_site_label_1
_geom_bond_atom_site_label_2
_geom_bond_distance
_geom_bond_site_symmetry_2
Hf0 O2 2.076513 1_555
Hf0 N8 2.097412 1_645
Hf0 N4 2.153690 1_655
Hf0 N10 2.208556 1_545
Hf0 N0 2.270766 1_655
Hf0 O4 2.318439 1_645
Hf1 O3 2.076513 1_555
Hf1 N9 2.097412 1_465
Hf1 N5 2.153690 1_565
Hf1 N11 2.208556 1_455
Hf1 N1 2.270766 1_565
Hf1 O5 2.318439 1_465
Hf2 N10 2.047642 1_555
Hf2 N0 2.141739 1_655
Hf2 O4 2.160413 1_555
Hf2 N6 2.177757 1_555
Hf2 N2 2.252131 1_555
Hf2 O0 2.392297 1_555
Hf3 N8 2.081628 1_655
Hf3 N4 2.109012 1_565
Hf3 O2 2.134070 1_555
Hf3 N7 2.219470 1_555
Hf3 N3 2.229636 1_555
Hf3 O1 2.369551 1_555
Hf4 N11 2.047642 1_555
Hf4 N1 2.141739 1_565
Hf4 O5 2.160413 1_555
Hf4 N7 2.177757 1_555
Hf4 N3 2.252131 1_555
Hf4 O1 2.392297 1_555
Hf5 N9 2.081628 1_565
Hf5 N5 2.109012 1_655
Hf5 O3 2.134070 1_555
Hf5 N6 2.219470 1_554
Hf5 N2 2.229636 1_554
Hf5 O0 2.369551 1_554
Hf6 N2 2.081628 1_545
Hf6 N6 2.109012 1_455
Hf6 O0 2.134070 1_555
Hf6 N5 2.219470 1_556
Hf6 N9 2.229636 1_556
Hf6 O3 2.369551 1_556
Hf7 N0 2.047642 1_555
Hf7 N10 2.141739 1_545
Hf7 O4 2.160413 1_555
Hf7 N4 2.177757 1_555
Hf7 N8 2.252131 1_555
Hf7 O2 2.392297 1_555
Hf8 N3 2.081628 1_455
Hf8 N7 2.109012 1_545
Hf8 O1 2.134070 1_555
Hf8 N4 2.219470 1_555
Hf8 N8 2.229636 1_555
Hf8 O2 2.369551 1_555
Hf9 N1 2.047642 1_555
Hf9 N11 2.141739 1_455
Hf9 O5 2.160413 1_555
Hf9 N5 2.177757 1_555
Hf9 N9 2.252131 1_555
Hf9 O3 2.392297 1_555
Hf10 O0 2.076513 1_555
Hf10 N2 2.097412 1_645
Hf10 N6 2.153690 1_545
Hf10 N0 2.208556 1_655
Hf10 N10 2.270766 1_545
Hf10 O4 2.318439 1_645
Hf11 O1 2.076513 1_555
Hf11 N3 2.097412 1_465
Hf11 N7 2.153690 1_455
Hf11 N1 2.208556 1_565
Hf11 N11 2.270766 1_455
Hf11 O5 2.318439 1_465
