# generated using pymatgen
data_BaYBr5
_symmetry_space_group_name_H-M   'P 1'
_cell_length_a   9.87375500
_cell_length_b   14.53561200
_cell_length_c   21.38223300
_cell_angle_alpha   47.81626838
_cell_angle_beta   90.00000000
_cell_angle_gamma   90.00000000
_symmetry_Int_Tables_number   1
_chemical_formula_structural   BaYBr5
_chemical_formula_sum   'Ba8 Y8 Br40'
_cell_volume   2273.96709125
_cell_formula_units_Z   8
loop_
 _symmetry_equiv_pos_site_id
 _symmetry_equiv_pos_as_xyz
  1  'x, y, z'
loop_
 _atom_site_type_symbol
 _atom_site_label
 _atom_site_symmetry_multiplicity
 _atom_site_fract_x
 _atom_site_fract_y
 _atom_site_fract_z
 _atom_site_occupancy
  Ba  Ba0  1  0.24795400  0.16071700  0.30033800  1
  Ba  Ba1  1  0.26444700  0.48102400  0.90970700  1
  Ba  Ba2  1  0.76444700  0.51897600  0.59029300  1
  Ba  Ba3  1  0.74795400  0.83928300  0.19966200  1
  Ba  Ba4  1  0.25204600  0.16071700  0.80033800  1
  Ba  Ba5  1  0.23555300  0.48102400  0.40970700  1
  Ba  Ba6  1  0.73555300  0.51897600  0.09029300  1
  Ba  Ba7  1  0.75204600  0.83928300  0.69966200  1
  Y  Y0  1  0.75075000  0.10819400  0.32373700  1
  Y  Y1  1  0.76214300  0.33501500  0.87317900  1
  Y  Y2  1  0.25075000  0.89180600  0.17626300  1
  Y  Y3  1  0.26214300  0.66498500  0.62682100  1
  Y  Y4  1  0.73785700  0.33501500  0.37317900  1
  Y  Y5  1  0.74925000  0.10819400  0.82373700  1
  Y  Y6  1  0.23785700  0.66498500  0.12682100  1
  Y  Y7  1  0.24925000  0.89180600  0.67626300  1
  Br  Br0  1  0.26451100  0.31761000  0.10806900  1
  Br  Br1  1  0.72482000  0.06264200  0.48098600  1
  Br  Br2  1  0.77475600  0.24593300  0.15465800  1
  Br  Br3  1  0.97964900  0.97281200  0.36616600  1
  Br  Br4  1  0.06795300  0.70788900  0.70694700  1
  Br  Br5  1  0.43674200  0.69723700  0.72279200  1
  Br  Br6  1  0.51982200  0.98633200  0.34649100  1
  Br  Br7  1  0.96766200  0.36056500  0.94349700  1
  Br  Br8  1  0.56918800  0.36754500  0.94578100  1
  Br  Br9  1  0.75448900  0.57992300  0.71819300  1
  Br  Br10  1  0.01982200  0.01366800  0.15350900  1
  Br  Br11  1  0.25448900  0.42007700  0.78180700  1
  Br  Br12  1  0.06918800  0.63245500  0.55421900  1
  Br  Br13  1  0.46766200  0.63943500  0.55650300  1
  Br  Br14  1  0.47964900  0.02718800  0.13383400  1
  Br  Br15  1  0.27475600  0.75406700  0.34534200  1
  Br  Br16  1  0.93674200  0.30276300  0.77720800  1
  Br  Br17  1  0.56795300  0.29211100  0.79305300  1
  Br  Br18  1  0.76451100  0.68239000  0.39193100  1
  Br  Br19  1  0.22482000  0.93735800  0.01901400  1
  Br  Br20  1  0.77518000  0.06264200  0.98098600  1
  Br  Br21  1  0.23548900  0.31761000  0.60806900  1
  Br  Br22  1  0.43204700  0.70788900  0.20694700  1
  Br  Br23  1  0.06325800  0.69723700  0.22279200  1
  Br  Br24  1  0.72524400  0.24593300  0.65465800  1
  Br  Br25  1  0.52035100  0.97281200  0.86616600  1
  Br  Br26  1  0.53233800  0.36056500  0.44349700  1
  Br  Br27  1  0.93081200  0.36754500  0.44578100  1
  Br  Br28  1  0.74551100  0.57992300  0.21819300  1
  Br  Br29  1  0.98017800  0.98633200  0.84649100  1
  Br  Br30  1  0.24551100  0.42007700  0.28180700  1
  Br  Br31  1  0.43081200  0.63245500  0.05421900  1
  Br  Br32  1  0.03233800  0.63943500  0.05650300  1
  Br  Br33  1  0.48017800  0.01366800  0.65350900  1
  Br  Br34  1  0.56325800  0.30276300  0.27720800  1
  Br  Br35  1  0.93204700  0.29211100  0.29305300  1
  Br  Br36  1  0.02035100  0.02718800  0.63383400  1
  Br  Br37  1  0.22524400  0.75406700  0.84534200  1
  Br  Br38  1  0.27518000  0.93735800  0.51901400  1
  Br  Br39  1  0.73548900  0.68239000  0.89193100  1
loop_
_geom_bond_atom_site_label_1
_geom_bond_atom_site_label_2
_geom_bond_distance
_geom_bond_site_symmetry_2
Ba0 Br0 3.088271 1_555
Ba0 Br6 3.353402 1_545
Ba0 Br3 3.360986 1_445
Ba0 Br38 3.476786 1_545
Ba0 Br30 3.516244 1_555
Ba0 Br34 3.581688 1_555
Ba0 Br35 3.605792 1_455
Ba1 Br0 3.178244 1_556
Ba1 Br37 3.234169 1_555
Ba1 Br7 3.236658 1_455
Ba1 Br8 3.265078 1_555
Ba1 Br11 3.395197 1_555
Ba1 Br5 3.446051 1_555
Ba1 Br4 3.772781 1_555
Ba2 Br18 3.178244 1_555
Ba2 Br24 3.234169 1_555
Ba2 Br13 3.236658 1_555
Ba2 Br12 3.265078 1_655
Ba2 Br9 3.395197 1_555
Ba2 Br16 3.446051 1_555
Ba2 Br17 3.772781 1_555
Ba3 Br18 3.088271 1_555
Ba3 Br10 3.353402 1_665
Ba3 Br14 3.360986 1_565
Ba3 Br20 3.476786 1_564
Ba3 Br28 3.516244 1_555
Ba3 Br23 3.581688 1_655
Ba3 Br22 3.605792 1_555
Ba4 Br21 3.088271 1_555
Ba4 Br29 3.353402 1_445
Ba4 Br25 3.360986 1_545
Ba4 Br19 3.476786 1_546
Ba4 Br11 3.516244 1_555
Ba4 Br16 3.581688 1_455
Ba4 Br17 3.605792 1_555
Ba5 Br21 3.178244 1_555
Ba5 Br15 3.234169 1_555
Ba5 Br26 3.236658 1_555
Ba5 Br27 3.265078 1_455
Ba5 Br30 3.395197 1_555
Ba5 Br23 3.446051 1_555
Ba5 Br22 3.772781 1_555
Ba6 Br39 3.178244 1_554
Ba6 Br2 3.234169 1_555
Ba6 Br32 3.236658 1_655
Ba6 Br31 3.265078 1_555
Ba6 Br28 3.395197 1_555
Ba6 Br34 3.446051 1_555
Ba6 Br35 3.772781 1_555
Ba7 Br39 3.088271 1_555
Ba7 Br33 3.353402 1_565
Ba7 Br36 3.360986 1_665
Ba7 Br1 3.476786 1_565
Ba7 Br9 3.516244 1_555
Ba7 Br5 3.581688 1_555
Ba7 Br4 3.605792 1_655
Br1 Y4 2.957695 1_555
Br1 Y0 2.969731 1_555
Br2 Y0 2.722841 1_555
Br3 Y0 2.721372 1_565
Br4 Y7 2.902761 1_555
Br4 Y3 2.904402 1_555
Br5 Y7 2.938815 1_555
Br5 Y3 2.948693 1_555
Br6 Y0 2.723215 1_565
Br7 Y1 2.695622 1_555
Br8 Y1 2.692412 1_555
Br9 Y1 2.795849 1_555
Br10 Y2 2.723215 1_545
Br11 Y3 2.795849 1_555
Br12 Y3 2.692412 1_555
Br13 Y3 2.695622 1_555
Br14 Y2 2.721372 1_545
Br15 Y2 2.722841 1_555
Br16 Y5 2.938815 1_555
Br16 Y1 2.948693 1_555
Br17 Y5 2.902761 1_555
Br17 Y1 2.904402 1_555
Br19 Y6 2.957695 1_555
Br19 Y2 2.969731 1_555
Br20 Y1 2.957695 1_555
Br20 Y5 2.969731 1_555
Br22 Y2 2.902761 1_555
Br22 Y6 2.904402 1_555
Br23 Y2 2.938815 1_555
Br23 Y6 2.948693 1_555
Br24 Y5 2.722841 1_555
Br25 Y5 2.721372 1_565
Br26 Y4 2.695622 1_555
Br27 Y4 2.692412 1_555
Br28 Y4 2.795849 1_555
Br29 Y5 2.723215 1_565
Br30 Y6 2.795849 1_555
Br31 Y6 2.692412 1_555
Br32 Y6 2.695622 1_555
Br33 Y7 2.723215 1_545
Br34 Y0 2.938815 1_555
Br34 Y4 2.948693 1_555
Br35 Y0 2.902761 1_555
Br35 Y4 2.904402 1_555
Br36 Y7 2.721372 1_545
Br37 Y7 2.722841 1_555
Br38 Y3 2.957695 1_555
Br38 Y7 2.969731 1_555
