# generated using pymatgen
data_Li5Fe8(BO3)8
_symmetry_space_group_name_H-M   'P 1'
_cell_length_a   5.24921600
_cell_length_b   9.12148330
_cell_length_c   10.11828421
_cell_angle_alpha   88.84817658
_cell_angle_beta   88.57211863
_cell_angle_gamma   89.67217769
_symmetry_Int_Tables_number   1
_chemical_formula_structural   Li5Fe8(BO3)8
_chemical_formula_sum   'Li5 Fe8 B8 O24'
_cell_volume   484.21497992
_cell_formula_units_Z   1
loop_
 _symmetry_equiv_pos_site_id
 _symmetry_equiv_pos_as_xyz
  1  'x, y, z'
loop_
 _atom_site_type_symbol
 _atom_site_label
 _atom_site_symmetry_multiplicity
 _atom_site_fract_x
 _atom_site_fract_y
 _atom_site_fract_z
 _atom_site_occupancy
  Li  Li0  1  0.15063700  0.17346700  0.65668300  1
  Li  Li1  1  0.32911100  0.33075400  0.40466800  1
  Li  Li2  1  0.33691000  0.32081200  0.91830000  1
  Li  Li3  1  0.65994800  0.67371100  0.65976000  1
  Li  Li4  1  0.83450200  0.83157300  0.38590100  1
  Fe  Fe0  1  0.16284700  0.83239700  0.63325000  1
  Fe  Fe1  1  0.16657400  0.50384900  0.13363300  1
  Fe  Fe2  1  0.31538700  0.98960200  0.88322700  1
  Fe  Fe3  1  0.35279000  0.66123200  0.37455500  1
  Fe  Fe4  1  0.66328200  0.34366000  0.63223300  1
  Fe  Fe5  1  0.66746300  0.00193200  0.12362900  1
  Fe  Fe6  1  0.84355100  0.16064100  0.37402700  1
  Fe  Fe7  1  0.82305200  0.51018100  0.88772600  1
  B  B0  1  0.16126500  0.50321100  0.62452200  1
  B  B1  1  0.16602100  0.83242400  0.13464600  1
  B  B2  1  0.33558500  0.99883400  0.38484500  1
  B  B3  1  0.32478000  0.66212000  0.86953000  1
  B  B4  1  0.66664000  0.99813000  0.62571600  1
  B  B5  1  0.66669200  0.33201000  0.12913800  1
  B  B6  1  0.83657300  0.49759300  0.37865500  1
  B  B7  1  0.82598500  0.17226500  0.87801200  1
  O  O0  1  0.09675700  0.48457600  0.33791000  1
  O  O1  1  0.08924400  0.16864600  0.85935600  1
  O  O2  1  0.17801900  0.78320000  0.82600200  1
  O  O3  1  0.20813300  0.86964200  0.42817500  1
  O  O4  1  0.21674000  0.13162800  0.39008900  1
  O  O5  1  0.20259600  0.53956700  0.92802100  1
  O  O6  1  0.28305200  0.36964500  0.61306100  1
  O  O7  1  0.32103800  0.94514800  0.08669400  1
  O  O8  1  0.29482700  0.63341700  0.59228200  1
  O  O9  1  0.27847400  0.69942300  0.17018400  1
  O  O10  1  0.40708000  0.34646600  0.11927400  1
  O  O11  1  0.40431500  0.99676200  0.66067600  1
  O  O12  1  0.58816600  0.98525500  0.33841200  1
  O  O13  1  0.57965000  0.66561300  0.84947600  1
  O  O14  1  0.68898600  0.29947600  0.84492200  1
  O  O15  1  0.70282100  0.37029600  0.41245700  1
  O  O16  1  0.72549700  0.63273600  0.38770200  1
  O  O17  1  0.69184100  0.05148700  0.92797500  1
  O  O18  1  0.82252200  0.44973400  0.09474900  1
  O  O19  1  0.79761200  0.86613400  0.61580400  1
  O  O20  1  0.78869700  0.12885400  0.59732900  1
  O  O21  1  0.77378900  0.19895800  0.16793600  1
  O  O22  1  0.90981100  0.85182600  0.15035900  1
  O  O23  1  0.90839500  0.51263900  0.66407100  1
loop_
_geom_bond_atom_site_label_1
_geom_bond_atom_site_label_2
_geom_bond_distance
_geom_bond_site_symmetry_2
Li0 O6 1.961431 1_555
Li0 O20 2.052177 1_455
Li0 O1 2.067552 1_555
Li0 O11 2.085248 1_545
Li1 O4 1.922524 1_555
Li1 O0 1.973803 1_555
Li1 O15 2.000363 1_555
Li1 O6 2.152694 1_555
Li2 O14 1.984437 1_555
Li2 O1 2.016160 1_555
Li2 O10 2.093573 1_556
Li2 O5 2.115797 1_555
Li3 O19 1.941078 1_555
Li3 O13 1.955075 1_555
Li3 O23 1.959500 1_555
Li3 O8 2.087574 1_555
Li4 O16 1.904528 1_555
Li4 O12 1.962429 1_555
Li4 O3 2.050779 1_655
Li4 O19 2.356805 1_555
Li4 O22 2.409691 1_555
Fe0 O19 1.951778 1_455
Fe0 O8 1.986841 1_555
Fe0 O2 1.995899 1_555
Fe0 O11 1.996840 1_555
Fe0 O3 2.103706 1_555
Fe1 O10 1.911620 1_555
Fe1 O18 1.927048 1_455
Fe1 O9 1.927052 1_555
Fe1 O0 2.094231 1_555
Fe1 O5 2.103327 1_554
Fe2 O1 2.027535 1_565
Fe2 O7 2.091182 1_556
Fe2 O2 2.116580 1_555
Fe2 O17 2.120424 1_565
Fe2 O11 2.288007 1_555
Fe3 O16 1.979544 1_555
Fe3 O3 2.118771 1_555
Fe3 O9 2.135266 1_555
Fe3 O0 2.147994 1_555
Fe3 O8 2.226042 1_555
Fe4 O6 2.022251 1_555
Fe4 O23 2.048973 1_555
Fe4 O20 2.097296 1_555
Fe4 O14 2.188817 1_555
Fe4 O15 2.236750 1_555
Fe5 O22 1.883743 1_545
Fe5 O7 1.940919 1_545
Fe5 O21 1.949012 1_555
Fe5 O17 2.022844 1_554
Fe5 O12 2.204927 1_545
Fe6 O4 1.985482 1_655
Fe6 O15 2.086496 1_555
Fe6 O12 2.134967 1_545
Fe6 O21 2.147550 1_555
Fe6 O20 2.283464 1_555
Fe7 O13 1.942719 1_555
Fe7 O5 2.063579 1_655
Fe7 O14 2.107326 1_555
Fe7 O18 2.155261 1_556
Fe7 O23 2.295634 1_555
B0 O6 1.378228 1_555
B0 O23 1.379509 1_455
B0 O8 1.411052 1_555
B1 O22 1.361290 1_455
B1 O7 1.387301 1_555
B1 O9 1.390813 1_555
B2 O4 1.360690 1_565
B2 O12 1.401205 1_555
B2 O3 1.414963 1_555
B3 O13 1.348620 1_555
B3 O5 1.404966 1_555
B3 O2 1.412390 1_555
B4 O20 1.378627 1_565
B4 O19 1.387183 1_555
B4 O11 1.413209 1_555
B5 O10 1.374283 1_555
B5 O18 1.387120 1_555
B5 O21 1.388197 1_555
B6 O16 1.364388 1_555
B6 O15 1.392676 1_555
B6 O0 1.421767 1_655
B7 O1 1.390362 1_655
B7 O17 1.390622 1_555
B7 O14 1.400896 1_555
