# generated using pymatgen
data_Sm(AlSi)2
_symmetry_space_group_name_H-M   'P 1'
_cell_length_a   4.19118423
_cell_length_b   4.19118370
_cell_length_c   6.76967331
_cell_angle_alpha   90.00000000
_cell_angle_beta   90.00000000
_cell_angle_gamma   119.99998834
_symmetry_Int_Tables_number   1
_chemical_formula_structural   Sm(AlSi)2
_chemical_formula_sum   'Sm1 Al2 Si2'
_cell_volume   102.98449442
_cell_formula_units_Z   1
loop_
 _symmetry_equiv_pos_site_id
 _symmetry_equiv_pos_as_xyz
  1  'x, y, z'
loop_
 _atom_site_type_symbol
 _atom_site_label
 _atom_site_symmetry_multiplicity
 _atom_site_fract_x
 _atom_site_fract_y
 _atom_site_fract_z
 _atom_site_occupancy
  Sm  Sm0  1  -0.00000000  0.00000000  0.00000000  1
  Al  Al0  1  0.66666700  0.33333300  0.35971486  1
  Al  Al1  1  0.33333300  0.66666700  0.64028514  1
  Si  Si0  1  0.66666700  0.33333300  0.73303025  1
  Si  Si1  1  0.33333300  0.66666700  0.26696975  1
loop_
_geom_bond_atom_site_label_1
_geom_bond_atom_site_label_2
_geom_bond_distance
_geom_bond_site_symmetry_2
Al0 Si1 2.499906 1_545
Al0 Si1 2.499906 1_655
Al0 Si1 2.499913 1_555
Al0 Si0 2.527223 1_555
Al1 Si0 2.499906 1_565
Al1 Si0 2.499906 1_455
Al1 Si0 2.499913 1_555
Al1 Si1 2.527223 1_555
Si0 Sm0 3.020208 1_656
Si0 Sm0 3.020211 1_666
Si0 Sm0 3.020211 1_556
Si1 Sm0 3.020208 1_565
Si1 Sm0 3.020211 1_555
Si1 Sm0 3.020211 1_665
