# generated using pymatgen
data_LiVP2O7
_symmetry_space_group_name_H-M   'P 1'
_cell_length_a   8.28980800
_cell_length_b   6.73498500
_cell_length_c   9.27663982
_cell_angle_alpha   76.05343344
_cell_angle_beta   90.00000000
_cell_angle_gamma   90.00000000
_symmetry_Int_Tables_number   1
_chemical_formula_structural   LiVP2O7
_chemical_formula_sum   'Li4 V4 P8 O28'
_cell_volume   502.66274688
_cell_formula_units_Z   4
loop_
 _symmetry_equiv_pos_site_id
 _symmetry_equiv_pos_as_xyz
  1  'x, y, z'
loop_
 _atom_site_type_symbol
 _atom_site_label
 _atom_site_symmetry_multiplicity
 _atom_site_fract_x
 _atom_site_fract_y
 _atom_site_fract_z
 _atom_site_occupancy
  Li  Li0  1  0.07768900  0.26607300  0.75258700  1
  Li  Li1  1  0.42231100  0.26607300  0.75258700  1
  Li  Li2  1  0.57768900  0.73392700  0.24741300  1
  Li  Li3  1  0.92231100  0.73392700  0.24741300  1
  V  V0  1  0.92984300  0.75101600  0.75017100  1
  V  V1  1  0.57015700  0.75101600  0.75017100  1
  V  V2  1  0.07015700  0.24898400  0.24982900  1
  V  V3  1  0.42984300  0.24898400  0.24982900  1
  P  P0  1  0.75000000  0.99899600  0.95029800  1
  P  P1  1  0.25000000  0.57886800  0.96581800  1
  P  P2  1  0.25000000  0.91854200  0.53175000  1
  P  P3  1  0.75000000  0.49831900  0.55312000  1
  P  P4  1  0.25000000  0.50168100  0.44688000  1
  P  P5  1  0.75000000  0.08145800  0.46825000  1
  P  P6  1  0.75000000  0.42113200  0.03418200  1
  P  P7  1  0.25000000  0.00100400  0.04970200  1
  O  O0  1  0.75000000  0.23860900  0.95391800  1
  O  O1  1  0.59707200  0.98102200  0.85784000  1
  O  O2  1  0.90292800  0.98102200  0.85784000  1
  O  O3  1  0.75000000  0.61082000  0.89894600  1
  O  O4  1  0.09783500  0.57727800  0.87467600  1
  O  O5  1  0.40216500  0.57727800  0.87467600  1
  O  O6  1  0.25000000  0.13019500  0.89235200  1
  O  O7  1  0.09786700  0.91493900  0.62319700  1
  O  O8  1  0.40213300  0.91493900  0.62319700  1
  O  O9  1  0.75000000  0.88821900  0.60079100  1
  O  O10  1  0.59693800  0.51851400  0.64500100  1
  O  O11  1  0.90306200  0.51851400  0.64500100  1
  O  O12  1  0.25000000  0.37683100  0.60533400  1
  O  O13  1  0.75000000  0.25785800  0.55460700  1
  O  O14  1  0.25000000  0.74214200  0.44539300  1
  O  O15  1  0.75000000  0.62316900  0.39466600  1
  O  O16  1  0.09693800  0.48148600  0.35499900  1
  O  O17  1  0.40306200  0.48148600  0.35499900  1
  O  O18  1  0.25000000  0.11178100  0.39920900  1
  O  O19  1  0.59786700  0.08506100  0.37680300  1
  O  O20  1  0.90213300  0.08506100  0.37680300  1
  O  O21  1  0.75000000  0.86980500  0.10764800  1
  O  O22  1  0.59783500  0.42272200  0.12532400  1
  O  O23  1  0.90216500  0.42272200  0.12532400  1
  O  O24  1  0.25000000  0.38918000  0.10105400  1
  O  O25  1  0.09707200  0.01897800  0.14216000  1
  O  O26  1  0.40292800  0.01897800  0.14216000  1
  O  O27  1  0.25000000  0.76139100  0.04608200  1
loop_
_geom_bond_atom_site_label_1
_geom_bond_atom_site_label_2
_geom_bond_distance
_geom_bond_site_symmetry_2
Li0 O12 1.992901 1_555
Li0 O6 1.996740 1_555
Li0 O11 2.272529 1_455
Li0 O2 2.415429 1_445
Li0 O4 2.616857 1_555
Li1 O12 1.992901 1_555
Li1 O6 1.996740 1_555
Li1 O10 2.272529 1_555
Li1 O1 2.415429 1_545
Li1 O5 2.616857 1_555
Li2 O15 1.992901 1_555
Li2 O21 1.996740 1_555
Li2 O17 2.272529 1_555
Li2 O26 2.415429 1_565
Li2 O22 2.616857 1_555
Li3 O15 1.992901 1_555
Li3 O21 1.996740 1_555
Li3 O16 2.272529 1_655
Li3 O25 2.415429 1_665
Li3 O23 2.616857 1_555
O0 P6 1.583275 1_556
O0 P0 1.622211 1_545
O1 P0 1.551620 1_555
O1 V1 2.047654 1_555
O2 P0 1.551620 1_555
O2 V0 2.047654 1_555
O3 P6 1.559941 1_556
O3 V1 2.095430 1_555
O3 V0 2.095430 1_555
O4 P1 1.520037 1_555
O4 V0 1.997779 1_455
O5 P1 1.520037 1_555
O5 V1 1.997779 1_555
O6 P7 1.508483 1_556
O7 P2 1.516846 1_555
O7 V0 1.979792 1_455
O8 P2 1.516846 1_555
O8 V1 1.979792 1_555
O9 P5 1.560196 1_565
O9 V0 2.092749 1_555
O9 V1 2.092749 1_555
O10 P3 1.552697 1_555
O10 V1 2.046847 1_555
O11 P3 1.552697 1_555
O11 V0 2.046847 1_555
O12 P4 1.507290 1_555
O13 P5 1.584932 1_555
O13 P3 1.616232 1_555
O14 P2 1.584932 1_555
O14 P4 1.616232 1_555
O15 P3 1.507290 1_555
O16 P4 1.552697 1_555
O16 V2 2.046847 1_555
O17 P4 1.552697 1_555
O17 V3 2.046847 1_555
O18 P2 1.560196 1_545
O18 V3 2.092749 1_555
O18 V2 2.092749 1_555
O19 P5 1.516846 1_555
O19 V3 1.979792 1_555
O20 P5 1.516846 1_555
O20 V2 1.979792 1_655
O21 P0 1.508483 1_554
O22 P6 1.520037 1_555
O22 V3 1.997779 1_555
O23 P6 1.520037 1_555
O23 V2 1.997779 1_655
O24 P1 1.559941 1_554
O24 V3 2.095430 1_555
O24 V2 2.095430 1_555
O25 P7 1.551620 1_555
O25 V2 2.047654 1_555
O26 P7 1.551620 1_555
O26 V3 2.047654 1_555
O27 P1 1.583275 1_554
O27 P7 1.622211 1_565
