# generated using pymatgen
data_Mn2Cr3Co3O16
_symmetry_space_group_name_H-M   'P 1'
_cell_length_a   5.74063624
_cell_length_b   5.75752140
_cell_length_c   8.84158696
_cell_angle_alpha   90.04629405
_cell_angle_beta   89.80301768
_cell_angle_gamma   120.23948278
_symmetry_Int_Tables_number   1
_chemical_formula_structural   Mn2Cr3Co3O16
_chemical_formula_sum   'Mn2 Cr3 Co3 O16'
_cell_volume   252.46462228
_cell_formula_units_Z   1
loop_
 _symmetry_equiv_pos_site_id
 _symmetry_equiv_pos_as_xyz
  1  'x, y, z'
loop_
 _atom_site_type_symbol
 _atom_site_label
 _atom_site_symmetry_multiplicity
 _atom_site_fract_x
 _atom_site_fract_y
 _atom_site_fract_z
 _atom_site_occupancy
  Mn  Mn0  1  0.33549900  0.66825300  0.48467600  1
  Mn  Mn1  1  0.66941300  0.33483900  0.98021900  1
  Cr  Cr0  1  0.15852400  0.83070000  0.20489700  1
  Cr  Cr1  1  0.15927800  0.32773400  0.20387300  1
  Cr  Cr2  1  0.32528200  0.16229800  0.70208000  1
  Co  Co0  1  0.65592100  0.82849300  0.21465000  1
  Co  Co1  1  0.82894000  0.66046800  0.71267000  1
  Co  Co2  1  0.82654300  0.16239900  0.71020500  1
  O  O0  1  0.16972500  0.83209700  0.60469900  1
  O  O1  1  0.04844900  0.52316100  0.33974000  1
  O  O2  1  0.34594400  0.67368000  0.09703000  1
  O  O3  1  0.98416200  0.99220400  0.31786200  1
  O  O4  1  0.98567600  0.98853400  0.81712900  1
  O  O5  1  0.16722000  0.33521000  0.60646800  1
  O  O6  1  0.48230800  0.95917100  0.34173800  1
  O  O7  1  0.48205700  0.52389300  0.34142400  1
  O  O8  1  0.34652200  0.17317500  0.10824500  1
  O  O9  1  0.67552200  0.84141200  0.60539100  1
  O  O10  1  0.52367700  0.48245100  0.84020500  1
  O  O11  1  0.52220800  0.04474900  0.83716500  1
  O  O12  1  0.67830100  0.34208300  0.60094400  1
  O  O13  1  0.83415800  0.66517800  0.10408300  1
  O  O14  1  0.96045200  0.47756600  0.83687000  1
  O  O15  1  0.83421800  0.17045700  0.10345500  1
loop_
_geom_bond_atom_site_label_1
_geom_bond_atom_site_label_2
_geom_bond_distance
_geom_bond_site_symmetry_2
Mn0 O1 1.918769 1_555
Mn0 O6 1.920219 1_555
Mn0 O7 1.923067 1_555
Mn0 O0 1.953792 1_555
Mn0 O5 1.974848 1_555
Mn0 O9 1.998926 1_555
Mn1 O14 1.917633 1_555
Mn1 O10 1.918260 1_555
Mn1 O11 1.919840 1_555
Mn1 O8 1.957807 1_556
Mn1 O15 1.971974 1_556
Mn1 O13 1.975640 1_556
Cr0 O13 1.841922 1_455
Cr0 O8 1.906827 1_565
Cr0 O3 1.947620 1_455
Cr0 O1 1.956324 1_555
Cr0 O2 1.963597 1_555
Cr0 O6 2.023621 1_555
Cr1 O15 1.843509 1_455
Cr1 O8 1.902142 1_555
Cr1 O3 1.948945 1_445
Cr1 O1 1.956396 1_555
Cr1 O2 1.963208 1_555
Cr1 O7 2.023233 1_555
Cr2 O5 1.856227 1_555
Cr2 O0 1.856274 1_545
Cr2 O12 1.963194 1_555
Cr2 O4 1.964654 1_445
Cr2 O11 1.985891 1_555
Cr2 O10 2.019325 1_555
Co0 O2 1.859065 1_555
Co0 O3 1.869044 1_555
Co0 O7 1.886957 1_555
Co0 O6 1.888972 1_555
Co0 O13 1.961489 1_555
Co0 O15 1.963938 1_565
Co1 O12 1.868208 1_555
Co1 O4 1.876543 1_555
Co1 O10 1.890003 1_555
Co1 O9 1.921501 1_555
Co1 O14 1.921751 1_555
Co1 O0 1.938177 1_655
Co2 O9 1.847923 1_545
Co2 O11 1.888636 1_555
Co2 O12 1.903084 1_555
Co2 O4 1.912819 1_545
Co2 O5 1.919687 1_655
Co2 O14 1.932744 1_555
