# generated using pymatgen
data_Ca3La5Mn7CrO24
_symmetry_space_group_name_H-M   'P 1'
_cell_length_a   5.52222300
_cell_length_b   7.76407535
_cell_length_c   11.05186665
_cell_angle_alpha   90.07170651
_cell_angle_beta   90.04217398
_cell_angle_gamma   90.01710592
_symmetry_Int_Tables_number   1
_chemical_formula_structural   Ca3La5Mn7CrO24
_chemical_formula_sum   'Ca3 La5 Mn7 Cr1 O24'
_cell_volume   473.84776964
_cell_formula_units_Z   1
loop_
 _symmetry_equiv_pos_site_id
 _symmetry_equiv_pos_as_xyz
  1  'x, y, z'
loop_
 _atom_site_type_symbol
 _atom_site_label
 _atom_site_symmetry_multiplicity
 _atom_site_fract_x
 _atom_site_fract_y
 _atom_site_fract_z
 _atom_site_occupancy
  Ca  Ca0  1  0.46819000  0.24865000  0.25337900  1
  Ca  Ca1  1  0.46641000  0.25158900  0.75676100  1
  Ca  Ca2  1  0.03354100  0.75005700  0.00530600  1
  La  La0  1  0.97576400  0.24886500  0.49677300  1
  La  La1  1  0.97596200  0.25072900  0.99555300  1
  La  La2  1  0.52549900  0.74873000  0.24199900  1
  La  La3  1  0.52044100  0.75200800  0.75216700  1
  La  La4  1  0.02407900  0.75011000  0.50313700  1
  Mn  Mn0  1  0.99892000  0.00248100  0.75153300  1
  Mn  Mn1  1  0.50044000  0.49891300  0.00019300  1
  Mn  Mn2  1  0.50030900  0.00211600  0.00060900  1
  Mn  Mn3  1  0.50035200  0.49619600  0.49992300  1
  Mn  Mn4  1  0.00083300  0.49654300  0.24746000  1
  Mn  Mn5  1  0.00093500  0.00044700  0.24781600  1
  Mn  Mn6  1  0.99862800  0.50070600  0.75235000  1
  Cr  Cr0  1  0.50044400  0.00301200  0.49943400  1
  O  O0  1  0.99048300  0.75062700  0.28616500  1
  O  O1  1  0.98554400  0.75120300  0.78933500  1
  O  O2  1  0.78324300  0.95779400  0.11345300  1
  O  O3  1  0.77764500  0.95766100  0.61279500  1
  O  O4  1  0.77864000  0.54093900  0.11067900  1
  O  O5  1  0.77380900  0.54248200  0.61348200  1
  O  O6  1  0.72767000  0.45838000  0.36282600  1
  O  O7  1  0.72583700  0.04305300  0.35973700  1
  O  O8  1  0.72094600  0.45839800  0.86135600  1
  O  O9  1  0.72587400  0.04227000  0.85875500  1
  O  O10  1  0.51357900  0.24856900  0.03889300  1
  O  O11  1  0.51541100  0.25393700  0.54292300  1
  O  O12  1  0.49094900  0.74578100  0.46071700  1
  O  O13  1  0.48379900  0.75215800  0.96733900  1
  O  O14  1  0.26928200  0.95516500  0.63616300  1
  O  O15  1  0.27096800  0.96131700  0.13950100  1
  O  O16  1  0.27586400  0.53758500  0.13561800  1
  O  O17  1  0.26787800  0.54331900  0.63563600  1
  O  O18  1  0.22628900  0.46055800  0.38769500  1
  O  O19  1  0.22585700  0.46182200  0.88579300  1
  O  O20  1  0.21973200  0.03897000  0.38750200  1
  O  O21  1  0.22349200  0.03916900  0.88346600  1
  O  O22  1  0.01850200  0.24790600  0.21190500  1
  O  O23  1  0.01796000  0.24978400  0.71387200  1
loop_
_geom_bond_atom_site_label_1
_geom_bond_atom_site_label_2
_geom_bond_distance
_geom_bond_site_symmetry_2
Ca0 O10 2.383868 1_555
Ca0 O7 2.440836 1_555
Ca0 O6 2.481737 1_555
Ca0 O22 2.524898 1_555
Ca0 O18 2.587092 1_555
Ca0 O20 2.595713 1_555
Ca0 O15 2.781445 1_545
Ca0 O16 2.803744 1_555
Ca1 O11 2.379040 1_555
Ca1 O8 2.425245 1_555
Ca1 O9 2.443025 1_555
Ca1 O23 2.521085 1_555
Ca1 O19 2.541803 1_555
Ca1 O21 2.547083 1_555
Ca2 O1 2.401388 1_454
Ca2 O2 2.437085 1_455
Ca2 O4 2.445301 1_455
Ca2 O13 2.521939 1_554
Ca2 O16 2.567215 1_555
Ca2 O15 2.568812 1_555
Ca2 O19 2.806542 1_554
Ca2 O21 2.821415 1_564
La0 O23 2.410468 1_655
La0 O20 2.434747 1_655
La0 O18 2.464690 1_655
La0 O6 2.592095 1_555
La0 O11 2.593502 1_555
La0 O7 2.596440 1_555
La0 O3 2.821489 1_545
La0 O5 2.846160 1_555
La1 O22 2.402561 1_656
La1 O19 2.463342 1_655
La1 O21 2.469773 1_655
La1 O10 2.598320 1_556
La1 O8 2.605151 1_555
La1 O9 2.608068 1_555
La1 O4 2.807052 1_556
La1 O2 2.830410 1_546
La1 O10 3.006939 1_656
La1 O23 3.121898 1_655
La1 O16 3.175639 1_656
La1 O15 3.200199 1_646
La2 O12 2.425036 1_555
La2 O16 2.441630 1_555
La2 O15 2.446810 1_555
La2 O4 2.581030 1_555
La2 O2 2.585781 1_555
La2 O0 2.613409 1_555
La2 O6 2.849268 1_555
La2 O7 2.850953 1_565
La3 O13 2.386793 1_555
La3 O14 2.461511 1_555
La3 O17 2.493981 1_555
La3 O1 2.600756 1_555
La3 O3 2.635799 1_555
La3 O5 2.636582 1_555
La3 O9 2.782677 1_565
La3 O8 2.808067 1_555
La3 O1 2.982551 1_455
La3 O21 3.124601 1_565
La3 O19 3.148513 1_555
La3 O12 3.225363 1_555
La4 O0 2.404984 1_455
La4 O3 2.432346 1_455
La4 O5 2.449902 1_455
La4 O14 2.553336 1_555
La4 O17 2.557136 1_555
La4 O12 2.620997 1_555
La4 O20 2.799677 1_565
La4 O18 2.815152 1_555
La4 O12 2.980989 1_455
Mn0 O21 1.934228 1_655
Mn0 O9 1.942983 1_555
Mn0 O23 1.967980 1_655
Mn0 O3 1.990204 1_545
Mn0 O1 1.997040 1_545
Mn0 O14 1.997930 1_645
Mn1 O16 1.967253 1_555
Mn1 O8 1.984409 1_554
Mn1 O4 1.988366 1_555
Mn1 O10 1.992046 1_555
Mn1 O19 1.994158 1_554
Mn1 O13 2.002030 1_554
Mn2 O10 1.960520 1_555
Mn2 O13 1.976831 1_544
Mn2 O15 2.016037 1_545
Mn2 O21 2.023342 1_554
Mn2 O9 2.027430 1_554
Mn2 O2 2.028168 1_545
Mn3 O11 1.942391 1_555
Mn3 O18 1.975246 1_555
Mn3 O12 1.986864 1_555
Mn3 O6 1.989888 1_555
Mn3 O5 1.995094 1_555
Mn3 O17 2.008313 1_555
Mn4 O22 1.972000 1_555
Mn4 O4 1.976957 1_455
Mn4 O16 1.984831 1_555
Mn4 O6 1.998106 1_455
Mn4 O18 2.007148 1_555
Mn4 O0 2.018884 1_455
Mn5 O15 1.936729 1_545
Mn5 O2 1.937997 1_445
Mn5 O22 1.964723 1_555
Mn5 O20 1.982042 1_555
Mn5 O0 1.986736 1_445
Mn5 O7 1.987285 1_455
Mn6 O19 1.959419 1_655
Mn6 O8 1.978394 1_555
Mn6 O1 1.988212 1_555
Mn6 O23 1.996434 1_655
Mn6 O17 1.996915 1_655
Mn6 O5 2.000167 1_555
Cr0 O20 2.002381 1_555
Cr0 O11 2.007692 1_555
Cr0 O7 2.008312 1_555
Cr0 O3 2.008846 1_545
Cr0 O14 2.013689 1_545
Cr0 O12 2.042611 1_545
