# generated using pymatgen
data_LiCrPO5
_symmetry_space_group_name_H-M   'P 1'
_cell_length_a   10.29829200
_cell_length_b   8.59179800
_cell_length_c   9.13723202
_cell_angle_alpha   89.99634425
_cell_angle_beta   90.00000000
_cell_angle_gamma   90.00000000
_symmetry_Int_Tables_number   1
_chemical_formula_structural   LiCrPO5
_chemical_formula_sum   'Li8 Cr8 P8 O40'
_cell_volume   808.47000475
_cell_formula_units_Z   8
loop_
 _symmetry_equiv_pos_site_id
 _symmetry_equiv_pos_as_xyz
  1  'x, y, z'
loop_
 _atom_site_type_symbol
 _atom_site_label
 _atom_site_symmetry_multiplicity
 _atom_site_fract_x
 _atom_site_fract_y
 _atom_site_fract_z
 _atom_site_occupancy
  Li  Li0  1  0.00206600  0.24728500  0.18121500  1
  Li  Li1  1  0.88280200  0.02010200  0.83429000  1
  Li  Li2  1  0.38280200  0.97989800  0.16571000  1
  Li  Li3  1  0.50206600  0.75271500  0.81878500  1
  Li  Li4  1  0.95249700  0.69646600  0.47472100  1
  Li  Li5  1  0.61040100  0.53372100  0.16322600  1
  Li  Li6  1  0.11040100  0.46627900  0.83677400  1
  Li  Li7  1  0.45249700  0.30353400  0.52527900  1
  Cr  Cr0  1  0.38974600  0.11133700  0.84224100  1
  Cr  Cr1  1  0.11250000  0.10365300  0.64139500  1
  Cr  Cr2  1  0.61250000  0.89634700  0.35860500  1
  Cr  Cr3  1  0.88974600  0.88866300  0.15775900  1
  Cr  Cr4  1  0.11553600  0.61101000  0.15324400  1
  Cr  Cr5  1  0.39242800  0.60844300  0.35431900  1
  Cr  Cr6  1  0.89242800  0.39155700  0.64568100  1
  Cr  Cr7  1  0.61553600  0.38899000  0.84675600  1
  P  P0  1  0.85643500  0.09699400  0.44714800  1
  P  P1  1  0.62890800  0.07775700  0.04684000  1
  P  P2  1  0.12890800  0.92224300  0.95316000  1
  P  P3  1  0.35643500  0.90300600  0.55285200  1
  P  P4  1  0.64494400  0.59799000  0.55681700  1
  P  P5  1  0.86994100  0.58071000  0.95418400  1
  P  P6  1  0.36994100  0.41929000  0.04581600  1
  P  P7  1  0.14494400  0.40201000  0.44318300  1
  O  O0  1  0.00436700  0.26210100  0.73586800  1
  O  O1  1  0.49090800  0.25413700  0.74707700  1
  O  O2  1  0.36899600  0.24301700  0.01753300  1
  O  O3  1  0.13241700  0.22549500  0.46715100  1
  O  O4  1  0.24375000  0.19193800  0.74008800  1
  O  O5  1  0.90634500  0.06973700  0.28772300  1
  O  O6  1  0.57319800  0.04897700  0.20198700  1
  O  O7  1  0.71414500  0.04929600  0.46433300  1
  O  O8  1  0.44365500  0.99322200  0.44189500  1
  O  O9  1  0.26864700  0.98324600  0.97464000  1
  O  O10  1  0.03437100  0.00773000  0.06027000  1
  O  O11  1  0.53437100  0.99227000  0.93973000  1
  O  O12  1  0.76864700  0.01675400  0.02536000  1
  O  O13  1  0.94365500  0.00677800  0.55810500  1
  O  O14  1  0.21414500  0.95070400  0.53566700  1
  O  O15  1  0.07319800  0.95102300  0.79801300  1
  O  O16  1  0.40634500  0.93026300  0.71227700  1
  O  O17  1  0.74375000  0.80806200  0.25991200  1
  O  O18  1  0.63241700  0.77450500  0.53284900  1
  O  O19  1  0.86899600  0.75698300  0.98246700  1
  O  O20  1  0.50436700  0.73789900  0.26413200  1
  O  O21  1  0.99090800  0.74586300  0.25292300  1
  O  O22  1  0.13138500  0.74614800  0.98140600  1
  O  O23  1  0.36531100  0.72543600  0.53112300  1
  O  O24  1  0.24972200  0.69291900  0.25478200  1
  O  O25  1  0.60023700  0.57330800  0.71716700  1
  O  O26  1  0.92234700  0.55298000  0.79760000  1
  O  O27  1  0.78952400  0.55555900  0.53493700  1
  O  O28  1  0.05464100  0.49922100  0.54733100  1
  O  O29  1  0.23095500  0.48055400  0.01968900  1
  O  O30  1  0.46797700  0.50531900  0.94257600  1
  O  O31  1  0.96797700  0.49468100  0.05742400  1
  O  O32  1  0.73095500  0.51944600  0.98031100  1
  O  O33  1  0.55464100  0.50077900  0.45266900  1
  O  O34  1  0.28952400  0.44444100  0.46506300  1
  O  O35  1  0.42234700  0.44702000  0.20240000  1
  O  O36  1  0.10023700  0.42669200  0.28283300  1
  O  O37  1  0.74972200  0.30708100  0.74521800  1
  O  O38  1  0.86531100  0.27456400  0.46887700  1
  O  O39  1  0.63138500  0.25385200  0.01859400  1
loop_
_geom_bond_atom_site_label_1
_geom_bond_atom_site_label_2
_geom_bond_distance
_geom_bond_site_symmetry_2
Li0 O5 2.060498 1_455
Li0 O36 2.064078 1_555
Li0 O10 2.359755 1_555
Li0 O31 2.433190 1_455
Li1 O15 2.075262 1_645
Li1 O12 2.104960 1_556
Li1 O0 2.588222 1_655
Li1 O10 2.590601 1_656
Li2 O6 2.075262 1_565
Li2 O9 2.104960 1_554
Li2 O20 2.588222 1_555
Li2 O11 2.590601 1_554
Li3 O16 2.060498 1_555
Li3 O25 2.064078 1_555
Li3 O11 2.359755 1_555
Li3 O30 2.433190 1_555
Li4 O28 2.102026 1_655
Li4 O21 2.108003 1_555
Li4 O27 2.141294 1_555
Li5 O32 2.085607 1_554
Li5 O35 2.105599 1_555
Li5 O20 2.262765 1_555
Li5 O30 2.505129 1_554
Li6 O29 2.085607 1_556
Li6 O26 2.105599 1_455
Li6 O0 2.262765 1_555
Li6 O31 2.505129 1_456
Li7 O33 2.102026 1_555
Li7 O1 2.108003 1_555
Li7 O34 2.141294 1_555
Cr0 O1 1.829371 1_555
Cr0 O4 1.900330 1_555
Cr0 O16 1.964689 1_545
Cr0 O2 1.972632 1_556
Cr0 O11 2.014494 1_545
Cr0 O9 2.056651 1_545
Cr1 O4 1.793215 1_555
Cr1 O3 1.916388 1_555
Cr1 O14 1.938051 1_545
Cr1 O0 1.959249 1_555
Cr1 O15 1.982720 1_545
Cr1 O13 2.072562 1_455
Cr2 O17 1.793215 1_555
Cr2 O18 1.916388 1_555
Cr2 O7 1.938051 1_565
Cr2 O20 1.959249 1_555
Cr2 O6 1.982720 1_565
Cr2 O8 2.072562 1_555
Cr3 O21 1.829371 1_555
Cr3 O17 1.900330 1_555
Cr3 O5 1.964689 1_565
Cr3 O19 1.972632 1_554
Cr3 O10 2.014494 1_665
Cr3 O12 2.056651 1_565
Cr4 O24 1.807130 1_555
Cr4 O21 1.954317 1_455
Cr4 O22 1.959540 1_554
Cr4 O36 1.983558 1_555
Cr4 O31 2.018617 1_455
Cr4 O29 2.039236 1_555
Cr5 O20 1.801383 1_555
Cr5 O24 1.874483 1_555
Cr5 O23 1.923127 1_555
Cr5 O35 1.986350 1_555
Cr5 O34 2.032799 1_555
Cr5 O33 2.110394 1_555
Cr6 O0 1.801383 1_655
Cr6 O37 1.874483 1_555
Cr6 O38 1.923127 1_555
Cr6 O26 1.986350 1_555
Cr6 O27 2.032799 1_555
Cr6 O28 2.110394 1_655
Cr7 O37 1.807130 1_555
Cr7 O1 1.954317 1_555
Cr7 O39 1.959540 1_556
Cr7 O25 1.983558 1_555
Cr7 O30 2.018617 1_555
Cr7 O32 2.039236 1_555
O2 P6 1.536439 1_555
O3 P7 1.537719 1_555
O5 P0 1.562387 1_555
O6 P1 1.549155 1_555
O7 P0 1.529649 1_555
O8 P3 1.560568 1_555
O9 P2 1.544077 1_555
O10 P2 1.563724 1_544
O11 P1 1.563724 1_566
O12 P1 1.544077 1_555
O13 P0 1.560568 1_555
O14 P3 1.529649 1_555
O15 P2 1.549155 1_555
O16 P3 1.562387 1_555
O18 P4 1.537719 1_555
O19 P5 1.536439 1_555
O22 P2 1.535024 1_555
O23 P3 1.541236 1_555
O25 P4 1.550350 1_555
O26 P5 1.547612 1_555
O27 P4 1.545893 1_555
O28 P7 1.571024 1_555
O29 P6 1.543603 1_555
O30 P6 1.566975 1_556
O31 P5 1.566975 1_554
O32 P5 1.543603 1_555
O33 P4 1.571024 1_555
O34 P7 1.545893 1_555
O35 P6 1.547612 1_555
O36 P7 1.550350 1_555
O38 P0 1.541236 1_555
O39 P1 1.535024 1_555
