# generated using pymatgen
data_Na3CrAsCO7
_symmetry_space_group_name_H-M   'P 1'
_cell_length_a   9.32350495
_cell_length_b   6.86716100
_cell_length_c   5.35308104
_cell_angle_alpha   90.00156066
_cell_angle_beta   88.09251303
_cell_angle_gamma   90.00374810
_symmetry_Int_Tables_number   1
_chemical_formula_structural   Na3CrAsCO7
_chemical_formula_sum   'Na6 Cr2 As2 C2 O14'
_cell_volume   342.54649838
_cell_formula_units_Z   2
loop_
 _symmetry_equiv_pos_site_id
 _symmetry_equiv_pos_as_xyz
  1  'x, y, z'
loop_
 _atom_site_type_symbol
 _atom_site_label
 _atom_site_symmetry_multiplicity
 _atom_site_fract_x
 _atom_site_fract_y
 _atom_site_fract_z
 _atom_site_occupancy
  Na  Na0  1  0.08441000  0.24995900  0.79266400  1
  Na  Na1  1  0.25637700  0.00228500  0.25077700  1
  Na  Na2  1  0.25638500  0.49765100  0.25075800  1
  Na  Na3  1  0.74364400  0.50227400  0.74930400  1
  Na  Na4  1  0.74362900  0.99764300  0.74934400  1
  Na  Na5  1  0.91560300  0.74995300  0.20734100  1
  Cr  Cr0  1  0.34700900  0.75021700  0.77128000  1
  Cr  Cr1  1  0.65289800  0.24997900  0.22808300  1
  As  As0  1  0.41936100  0.25008300  0.68695200  1
  As  As1  1  0.58064000  0.74998600  0.31313800  1
  C  C0  1  0.04921900  0.74998700  0.70975100  1
  C  C1  1  0.95079900  0.24997200  0.29023700  1
  O  O0  1  0.08908600  0.24996100  0.25269700  1
  O  O1  1  0.13083800  0.75003900  0.90579300  1
  O  O2  1  0.10688900  0.74998300  0.48687100  1
  O  O3  1  0.31193500  0.05338700  0.77052100  1
  O  O4  1  0.31197300  0.44681800  0.77050300  1
  O  O5  1  0.44032200  0.24998000  0.36283900  1
  O  O6  1  0.41531000  0.74999800  0.18627400  1
  O  O7  1  0.58467200  0.24997800  0.81390300  1
  O  O8  1  0.55967800  0.75003700  0.63727600  1
  O  O9  1  0.68803500  0.55324000  0.22962100  1
  O  O10  1  0.68806000  0.94668200  0.22954600  1
  O  O11  1  0.89311100  0.24997000  0.51309300  1
  O  O12  1  0.86919400  0.24999300  0.09411800  1
  O  O13  1  0.91092400  0.74994700  0.74731600  1
loop_
_geom_bond_atom_site_label_1
_geom_bond_atom_site_label_2
_geom_bond_distance
_geom_bond_site_symmetry_2
Na0 O11 2.366126 1_455
Na0 O0 2.464430 1_556
Na0 O3 2.513946 1_555
Na0 O4 2.515160 1_555
Na0 O12 2.532747 1_456
Na0 O0 2.889365 1_555
Na1 O6 2.298429 1_545
Na1 O0 2.307595 1_555
Na1 O5 2.502487 1_555
Na1 O2 2.534610 1_545
Na1 O3 2.629089 1_554
Na1 O1 2.815033 1_544
Na1 O3 2.868475 1_555
Na2 O6 2.298547 1_555
Na2 O0 2.307564 1_555
Na2 O5 2.502524 1_555
Na2 O2 2.534917 1_555
Na2 O4 2.628874 1_554
Na2 O1 2.815753 1_554
Na2 O4 2.868341 1_555
Na3 O7 2.298642 1_555
Na3 O13 2.307354 1_555
Na3 O8 2.503067 1_555
Na3 O11 2.534894 1_555
Na3 O9 2.629350 1_556
Na3 O12 2.814772 1_556
Na3 O9 2.868170 1_555
Na4 O7 2.298859 1_565
Na4 O13 2.307711 1_555
Na4 O8 2.502119 1_555
Na4 O11 2.535102 1_565
Na4 O10 2.628696 1_556
Na4 O12 2.814825 1_566
Na4 O10 2.868660 1_555
Na5 O2 2.365888 1_655
Na5 O13 2.464389 1_554
Na5 O9 2.514673 1_555
Na5 O10 2.514673 1_555
Na5 O1 2.533191 1_654
Na5 O13 2.889407 1_555
Cr0 O8 2.086015 1_555
Cr0 O3 2.107489 1_565
Cr0 O4 2.108946 1_555
Cr0 O1 2.117545 1_555
Cr0 O6 2.331254 1_556
Cr1 O5 2.086462 1_555
Cr1 O9 2.108189 1_555
Cr1 O10 2.108509 1_545
Cr1 O12 2.117739 1_555
Cr1 O7 2.326849 1_554
As0 O7 1.705020 1_555
As0 O3 1.731426 1_555
As0 O4 1.731493 1_555
As0 O5 1.739499 1_555
As1 O6 1.704983 1_555
As1 O10 1.731423 1_555
As1 O9 1.731545 1_555
As1 O8 1.739633 1_555
C0 O2 1.292237 1_555
C0 O13 1.298350 1_455
C0 O1 1.316642 1_555
C1 O11 1.292184 1_555
C1 O0 1.298260 1_655
C1 O12 1.316900 1_555
