# generated using pymatgen
data_Fe2Te4H3ClO12
_symmetry_space_group_name_H-M   'P 1'
_cell_length_a   5.21155300
_cell_length_b   6.74054400
_cell_length_c   9.06180041
_cell_angle_alpha   73.05545889
_cell_angle_beta   79.12907148
_cell_angle_gamma   76.87617431
_symmetry_Int_Tables_number   1
_chemical_formula_structural   Fe2Te4H3ClO12
_chemical_formula_sum   'Fe2 Te4 H3 Cl1 O12'
_cell_volume   293.98472700
_cell_formula_units_Z   1
loop_
 _symmetry_equiv_pos_site_id
 _symmetry_equiv_pos_as_xyz
  1  'x, y, z'
loop_
 _atom_site_type_symbol
 _atom_site_label
 _atom_site_symmetry_multiplicity
 _atom_site_fract_x
 _atom_site_fract_y
 _atom_site_fract_z
 _atom_site_occupancy
  Fe  Fe0  1  0.72350800  0.14217100  0.44538400  1
  Fe  Fe1  1  0.27649200  0.85782900  0.55461600  1
  Te  Te0  1  0.87672900  0.66081300  0.31305100  1
  Te  Te1  1  0.12327100  0.33918700  0.68694900  1
  Te  Te2  1  0.66925200  0.83088100  0.83263700  1
  Te  Te3  1  0.33074800  0.16911900  0.16736300  1
  H  H0  1  0.55452100  0.53374500  0.21101300  1
  H  H1  1  0.44547900  0.46625500  0.78898700  1
  H  H2  1  0.00000000  0.50000000  0.00000000  1
  Cl  Cl0  1  0.00000000  0.00000000  0.00000000  1
  O  O0  1  0.81180200  0.40432100  0.46309200  1
  O  O1  1  0.18819800  0.59567900  0.53690800  1
  O  O2  1  0.63469700  0.86444400  0.41579000  1
  O  O3  1  0.36530300  0.13555600  0.58421000  1
  O  O4  1  0.59032400  0.68166500  0.19332000  1
  O  O5  1  0.40967600  0.31833500  0.80668000  1
  O  O6  1  0.46081800  0.71224300  0.73867100  1
  O  O7  1  0.53918200  0.28775700  0.26132900  1
  O  O8  1  0.89059600  0.95927100  0.64598100  1
  O  O9  1  0.10940400  0.04072900  0.35401900  1
  O  O10  1  0.90318500  0.56629400  0.87929600  1
  O  O11  1  0.09681500  0.43370600  0.12070400  1
loop_
_geom_bond_atom_site_label_1
_geom_bond_atom_site_label_2
_geom_bond_distance
_geom_bond_site_symmetry_2
Fe0 O7 1.972261 1_555
Fe0 O0 1.980470 1_555
Fe0 O3 2.046661 1_555
Fe0 O9 2.067624 1_655
Fe0 O8 2.094215 1_545
Fe0 O2 2.126866 1_545
Fe1 O6 1.972261 1_555
Fe1 O1 1.980470 1_555
Fe1 O2 2.046661 1_555
Fe1 O8 2.067624 1_455
Fe1 O9 2.094215 1_565
Fe1 O3 2.126866 1_565
H0 O4 1.017188 1_555
H0 O7 1.602912 1_555
H1 O5 1.017188 1_555
H1 O6 1.602912 1_555
H2 O11 1.213065 1_555
H2 O10 1.213065 1_454
Cl0 Te3 3.075206 1_555
Cl0 Te2 3.075206 1_444
Cl0 Te0 3.144270 1_445
Cl0 Te1 3.144270 1_554
O0 Te0 1.916803 1_555
O1 Te1 1.916803 1_555
O2 Te0 1.964047 1_555
O3 Te1 1.964047 1_555
O4 Te0 1.962530 1_555
O5 Te1 1.962530 1_555
O6 Te2 1.919581 1_555
O7 Te3 1.919581 1_555
O8 Te2 1.950570 1_555
O9 Te3 1.950570 1_555
O10 Te2 1.900881 1_555
O11 Te3 1.900881 1_555
