# generated using pymatgen
data_Na2Sc2P4H12C4O13
_symmetry_space_group_name_H-M   'P 1'
_cell_length_a   18.06031700
_cell_length_b   18.06031700
_cell_length_c   5.45529200
_cell_angle_alpha   90.00000000
_cell_angle_beta   90.00000000
_cell_angle_gamma   90.00000000
_symmetry_Int_Tables_number   1
_chemical_formula_structural   Na2Sc2P4H12C4O13
_chemical_formula_sum   'Na8 Sc8 P16 H48 C16 O52'
_cell_volume   1779.38014163
_cell_formula_units_Z   4
loop_
 _symmetry_equiv_pos_site_id
 _symmetry_equiv_pos_as_xyz
  1  'x, y, z'
loop_
 _atom_site_type_symbol
 _atom_site_label
 _atom_site_symmetry_multiplicity
 _atom_site_fract_x
 _atom_site_fract_y
 _atom_site_fract_z
 _atom_site_occupancy
  Na  Na0  1  0.28359500  0.62035100  0.26003800  1
  Na  Na1  1  0.21640500  0.87964900  0.26003800  1
  Na  Na2  1  0.12035100  0.71640500  0.76003800  1
  Na  Na3  1  0.37964900  0.78359500  0.76003800  1
  Na  Na4  1  0.71640500  0.37964900  0.73996200  1
  Na  Na5  1  0.78359500  0.12035100  0.73996200  1
  Na  Na6  1  0.87964900  0.28359500  0.23996200  1
  Na  Na7  1  0.62035100  0.21640500  0.23996200  1
  Sc  Sc0  1  0.40348200  0.58119700  0.74304400  1
  Sc  Sc1  1  0.09651800  0.91880300  0.74304400  1
  Sc  Sc2  1  0.08119700  0.59651800  0.24304400  1
  Sc  Sc3  1  0.41880300  0.90348200  0.24304400  1
  Sc  Sc4  1  0.59651800  0.41880300  0.25695600  1
  Sc  Sc5  1  0.90348200  0.08119700  0.25695600  1
  Sc  Sc6  1  0.91880300  0.40348200  0.75695600  1
  Sc  Sc7  1  0.58119700  0.09651800  0.75695600  1
  P  P0  1  0.43263100  0.70468200  0.25297000  1
  P  P1  1  0.06736900  0.79531800  0.25297000  1
  P  P2  1  0.20468200  0.56736900  0.75297000  1
  P  P3  1  0.29531800  0.93263100  0.75297000  1
  P  P4  1  0.56736900  0.29531800  0.74703000  1
  P  P5  1  0.93263100  0.20468200  0.74703000  1
  P  P6  1  0.79531800  0.43263100  0.24703000  1
  P  P7  1  0.70468200  0.06736900  0.24703000  1
  P  P8  1  0.40490800  0.45788100  0.23998100  1
  P  P9  1  0.09509200  0.04211900  0.23998100  1
  P  P10  1  0.95788100  0.59509200  0.73998100  1
  P  P11  1  0.54211900  0.90490800  0.73998100  1
  P  P12  1  0.59509200  0.54211900  0.76001900  1
  P  P13  1  0.90490800  0.95788100  0.76001900  1
  P  P14  1  0.04211900  0.40490800  0.26001900  1
  P  P15  1  0.45788100  0.09509200  0.26001900  1
  H  H0  1  0.55052100  0.75795600  0.15683700  1
  H  H1  1  0.94947900  0.74204400  0.15683700  1
  H  H2  1  0.25795600  0.44947900  0.65683700  1
  H  H3  1  0.24204400  0.05052100  0.65683700  1
  H  H4  1  0.44947900  0.24204400  0.84316300  1
  H  H5  1  0.05052100  0.25795600  0.84316300  1
  H  H6  1  0.74204400  0.55052100  0.34316300  1
  H  H7  1  0.75795600  0.94947900  0.34316300  1
  H  H8  1  0.54733600  0.66089200  0.08448000  1
  H  H9  1  0.95266400  0.83910800  0.08448000  1
  H  H10  1  0.16089200  0.45266400  0.58448000  1
  H  H11  1  0.33910800  0.04733600  0.58448000  1
  H  H12  1  0.45266400  0.33910800  0.91552000  1
  H  H13  1  0.04733600  0.16089200  0.91552000  1
  H  H14  1  0.83910800  0.54733600  0.41552000  1
  H  H15  1  0.66089200  0.95266400  0.41552000  1
  H  H16  1  0.55886200  0.69013100  0.39426500  1
  H  H17  1  0.94113800  0.80986900  0.39426500  1
  H  H18  1  0.19013100  0.44113800  0.89426500  1
  H  H19  1  0.30986900  0.05886200  0.89426500  1
  H  H20  1  0.44113800  0.30986900  0.60573500  1
  H  H21  1  0.05886200  0.19013100  0.60573500  1
  H  H22  1  0.80986900  0.55886200  0.10573500  1
  H  H23  1  0.69013100  0.94113800  0.10573500  1
  H  H24  1  0.33320800  0.35553600  0.07666700  1
  H  H25  1  0.16679200  0.14446400  0.07666700  1
  H  H26  1  0.85553600  0.66679200  0.57666700  1
  H  H27  1  0.64446400  0.83320800  0.57666700  1
  H  H28  1  0.66679200  0.64446400  0.92333300  1
  H  H29  1  0.83320800  0.85553600  0.92333300  1
  H  H30  1  0.14446400  0.33320800  0.42333300  1
  H  H31  1  0.35553600  0.16679200  0.42333300  1
  H  H32  1  0.28468100  0.40401200  0.31194800  1
  H  H33  1  0.21531900  0.09598800  0.31194800  1
  H  H34  1  0.90401200  0.71531900  0.81194800  1
  H  H35  1  0.59598800  0.78468100  0.81194800  1
  H  H36  1  0.71531900  0.59598800  0.68805200  1
  H  H37  1  0.78468100  0.90401200  0.68805200  1
  H  H38  1  0.09598800  0.28468100  0.18805200  1
  H  H39  1  0.40401200  0.21531900  0.18805200  1
  H  H40  1  0.35602100  0.34061500  0.39098700  1
  H  H41  1  0.14397900  0.15938500  0.39098700  1
  H  H42  1  0.84061500  0.64397900  0.89098700  1
  H  H43  1  0.65938500  0.85602100  0.89098700  1
  H  H44  1  0.64397900  0.65938500  0.60901300  1
  H  H45  1  0.85602100  0.84061500  0.60901300  1
  H  H46  1  0.15938500  0.35602100  0.10901300  1
  H  H47  1  0.34061500  0.14397900  0.10901300  1
  C  C0  1  0.53231600  0.70327800  0.21931800  1
  C  C1  1  0.96768400  0.79672200  0.21931800  1
  C  C2  1  0.20327800  0.46768400  0.71931800  1
  C  C3  1  0.29672200  0.03231600  0.71931800  1
  C  C4  1  0.46768400  0.29672200  0.78068200  1
  C  C5  1  0.03231600  0.20327800  0.78068200  1
  C  C6  1  0.79672200  0.53231600  0.28068200  1
  C  C7  1  0.70327800  0.96768400  0.28068200  1
  C  C8  1  0.33874600  0.38223200  0.25634800  1
  C  C9  1  0.16125400  0.11776800  0.25634800  1
  C  C10  1  0.88223200  0.66125400  0.75634800  1
  C  C11  1  0.61776800  0.83874600  0.75634800  1
  C  C12  1  0.66125400  0.61776800  0.74365200  1
  C  C13  1  0.83874600  0.88223200  0.74365200  1
  C  C14  1  0.11776800  0.33874600  0.24365200  1
  C  C15  1  0.38223200  0.16125400  0.24365200  1
  O  O0  1  0.41022600  0.67535900  0.50839400  1
  O  O1  1  0.08977400  0.82464100  0.50839400  1
  O  O2  1  0.17535900  0.58977400  0.00839400  1
  O  O3  1  0.32464100  0.91022600  0.00839400  1
  O  O4  1  0.58977400  0.32464100  0.49160600  1
  O  O5  1  0.91022600  0.17535900  0.49160600  1
  O  O6  1  0.82464100  0.41022600  0.99160600  1
  O  O7  1  0.67535900  0.08977400  0.99160600  1
  O  O8  1  0.39871300  0.65771100  0.04437100  1
  O  O9  1  0.10128700  0.84228900  0.04437100  1
  O  O10  1  0.15771100  0.60128700  0.54437100  1
  O  O11  1  0.34228900  0.89871300  0.54437100  1
  O  O12  1  0.60128700  0.34228900  0.95562900  1
  O  O13  1  0.89871300  0.15771100  0.95562900  1
  O  O14  1  0.84228900  0.39871300  0.45562900  1
  O  O15  1  0.65771100  0.10128700  0.45562900  1
  O  O16  1  0.28538600  0.59489400  0.72943200  1
  O  O17  1  0.21461400  0.90510600  0.72943200  1
  O  O18  1  0.09489400  0.71461400  0.22943200  1
  O  O19  1  0.40510600  0.78538600  0.22943200  1
  O  O20  1  0.71461400  0.40510600  0.27056800  1
  O  O21  1  0.78538600  0.09489400  0.27056800  1
  O  O22  1  0.90510600  0.28538600  0.77056800  1
  O  O23  1  0.59489400  0.21461400  0.77056800  1
  O  O24  1  0.39595300  0.49339000  0.98458200  1
  O  O25  1  0.10404700  0.00661000  0.98458200  1
  O  O26  1  0.99339000  0.60404700  0.48458200  1
  O  O27  1  0.50661000  0.89595300  0.48458200  1
  O  O28  1  0.60404700  0.50661000  0.01541800  1
  O  O29  1  0.89595300  0.99339000  0.01541800  1
  O  O30  1  0.00661000  0.39595300  0.51541800  1
  O  O31  1  0.49339000  0.10404700  0.51541800  1
  O  O32  1  0.38301800  0.51390500  0.43988900  1
  O  O33  1  0.11698200  0.98609500  0.43988900  1
  O  O34  1  0.01390500  0.61698200  0.93988900  1
  O  O35  1  0.48609500  0.88301800  0.93988900  1
  O  O36  1  0.61698200  0.48609500  0.56011100  1
  O  O37  1  0.88301800  0.01390500  0.56011100  1
  O  O38  1  0.98609500  0.38301800  0.06011100  1
  O  O39  1  0.51390500  0.11698200  0.06011100  1
  O  O40  1  0.51793800  0.57567800  0.72162100  1
  O  O41  1  0.98206200  0.92432200  0.72162100  1
  O  O42  1  0.07567800  0.48206200  0.22162100  1
  O  O43  1  0.42432200  0.01793800  0.22162100  1
  O  O44  1  0.48206200  0.42432200  0.27837900  1
  O  O45  1  0.01793800  0.07567800  0.27837900  1
  O  O46  1  0.92432200  0.51793800  0.77837900  1
  O  O47  1  0.57567800  0.98206200  0.77837900  1
  O  O48  1  0.25000000  0.75000000  0.27039000  1
  O  O49  1  0.25000000  0.75000000  0.77039000  1
  O  O50  1  0.75000000  0.25000000  0.72961000  1
  O  O51  1  0.75000000  0.25000000  0.22961000  1
loop_
_geom_bond_atom_site_label_1
_geom_bond_atom_site_label_2
_geom_bond_distance
_geom_bond_site_symmetry_2
Na0 O48 2.419494 1_555
Na0 O2 2.451666 1_555
Na0 O8 2.482338 1_555
Na0 O16 2.601829 1_555
Na0 O10 2.773687 1_555
Na0 O32 2.807608 1_555
Na0 O0 2.837772 1_555
Na0 O16 2.931075 1_554
Na1 O48 2.419494 1_555
Na1 O3 2.451666 1_555
Na1 O9 2.482338 1_555
Na1 O17 2.601829 1_555
Na1 O11 2.773687 1_555
Na1 O33 2.807608 1_555
Na1 O1 2.837772 1_555
Na1 O17 2.931075 1_554
Na2 O49 2.419494 1_555
Na2 O1 2.451666 1_555
Na2 O10 2.482338 1_555
Na2 O18 2.601829 1_556
Na2 O9 2.773687 1_556
Na2 O34 2.807608 1_555
Na2 O2 2.837772 1_556
Na2 O18 2.931075 1_555
Na3 O49 2.419494 1_555
Na3 O0 2.451666 1_555
Na3 O11 2.482338 1_555
Na3 O19 2.601829 1_556
Na3 O8 2.773687 1_556
Na3 O35 2.807608 1_555
Na3 O3 2.837772 1_556
Na3 O19 2.931075 1_555
Na4 O50 2.419494 1_555
Na4 O6 2.451666 1_555
Na4 O12 2.482338 1_555
Na4 O20 2.601829 1_555
Na4 O14 2.773687 1_555
Na4 O36 2.807608 1_555
Na4 O4 2.837772 1_555
Na4 O20 2.931075 1_556
Na5 O50 2.419494 1_555
Na5 O7 2.451666 1_555
Na5 O13 2.482338 1_555
Na5 O21 2.601829 1_555
Na5 O15 2.773687 1_555
Na5 O37 2.807608 1_555
Na5 O5 2.837772 1_555
Na5 O21 2.931075 1_556
Na6 O51 2.419494 1_555
Na6 O5 2.451666 1_555
Na6 O14 2.482338 1_555
Na6 O22 2.601829 1_554
Na6 O13 2.773687 1_554
Na6 O38 2.807608 1_555
Na6 O6 2.837772 1_554
Na6 O22 2.931075 1_555
Na7 O51 2.419494 1_555
Na7 O4 2.451666 1_555
Na7 O15 2.482338 1_555
Na7 O23 2.601829 1_554
Na7 O12 2.773687 1_554
Na7 O39 2.807608 1_555
Na7 O7 2.837772 1_554
Na7 O23 2.931075 1_555
C0 H16 1.094113 1_555
C0 H0 1.095190 1_555
C0 H8 1.095747 1_555
C0 P0 1.809856 1_555
C1 H17 1.094113 1_555
C1 H1 1.095190 1_555
C1 H9 1.095747 1_555
C1 P1 1.809856 1_655
C2 H18 1.094113 1_555
C2 H2 1.095190 1_555
C2 H10 1.095747 1_555
C2 P2 1.809856 1_555
C3 H19 1.094113 1_555
C3 H3 1.095190 1_555
C3 H11 1.095747 1_555
C3 P3 1.809856 1_545
C4 H20 1.094113 1_555
C4 H4 1.095190 1_555
C4 H12 1.095747 1_555
C4 P4 1.809856 1_555
C5 H21 1.094113 1_555
C5 H5 1.095190 1_555
C5 H13 1.095747 1_555
C5 P5 1.809856 1_455
C6 H22 1.094113 1_555
C6 H6 1.095190 1_555
C6 H14 1.095747 1_555
C6 P6 1.809856 1_555
C7 H23 1.094113 1_555
C7 H7 1.095190 1_555
C7 H15 1.095747 1_555
C7 P7 1.809856 1_565
C8 H32 1.095511 1_555
C8 H40 1.096243 1_555
C8 H24 1.096940 1_555
C8 P8 1.817250 1_555
C9 H33 1.095511 1_555
C9 H41 1.096243 1_555
C9 H25 1.096940 1_555
C9 P9 1.817250 1_555
C10 H34 1.095511 1_555
C10 H42 1.096243 1_555
C10 H26 1.096940 1_555
C10 P10 1.817250 1_555
C11 H35 1.095511 1_555
C11 H43 1.096243 1_555
C11 H27 1.096940 1_555
C11 P11 1.817250 1_555
C12 H36 1.095511 1_555
C12 H44 1.096243 1_555
C12 H28 1.096940 1_555
C12 P12 1.817250 1_555
C13 H37 1.095511 1_555
C13 H45 1.096243 1_555
C13 H29 1.096940 1_555
C13 P13 1.817250 1_555
C14 H38 1.095511 1_555
C14 H46 1.096243 1_555
C14 H30 1.096940 1_555
C14 P14 1.817250 1_555
C15 H39 1.095511 1_555
C15 H47 1.096243 1_555
C15 H31 1.096940 1_555
C15 P15 1.817250 1_555
O0 P0 1.544601 1_555
O0 Sc0 2.132012 1_555
O1 P1 1.544601 1_555
O1 Sc1 2.132012 1_555
O2 P2 1.544601 1_554
O2 Sc2 2.132012 1_555
O3 P3 1.544601 1_554
O3 Sc3 2.132012 1_555
O4 P4 1.544601 1_555
O4 Sc4 2.132012 1_555
O5 P5 1.544601 1_555
O5 Sc5 2.132012 1_555
O6 P6 1.544601 1_556
O6 Sc6 2.132012 1_555
O7 P7 1.544601 1_556
O7 Sc7 2.132012 1_555
O8 P0 1.545913 1_555
O8 Sc0 2.149219 1_554
O9 P1 1.545913 1_555
O9 Sc1 2.149219 1_554
O10 P2 1.545913 1_555
O10 Sc2 2.149219 1_555
O11 P3 1.545913 1_555
O11 Sc3 2.149219 1_555
O12 P4 1.545913 1_555
O12 Sc4 2.149219 1_556
O13 P5 1.545913 1_555
O13 Sc5 2.149219 1_556
O14 P6 1.545913 1_555
O14 Sc6 2.149219 1_555
O15 P7 1.545913 1_555
O15 Sc7 2.149219 1_555
O16 P2 1.545325 1_555
O16 Sc0 2.148432 1_555
O17 P3 1.545325 1_555
O17 Sc1 2.148432 1_555
O18 P1 1.545325 1_555
O18 Sc2 2.148432 1_555
O19 P0 1.545325 1_555
O19 Sc3 2.148432 1_555
O20 P6 1.545325 1_555
O20 Sc4 2.148432 1_555
O21 P7 1.545325 1_555
O21 Sc5 2.148432 1_555
O22 P5 1.545325 1_555
O22 Sc6 2.148432 1_555
O23 P4 1.545325 1_555
O23 Sc7 2.148432 1_555
O24 P8 1.542286 1_556
O24 Sc0 2.066289 1_555
O25 P9 1.542286 1_556
O25 Sc1 2.066289 1_545
O26 P10 1.542286 1_555
O26 Sc2 2.066289 1_655
O27 P11 1.542286 1_555
O27 Sc3 2.066289 1_555
O28 P12 1.542286 1_554
O28 Sc4 2.066289 1_555
O29 P13 1.542286 1_554
O29 Sc5 2.066289 1_565
O30 P14 1.542286 1_555
O30 Sc6 2.066289 1_455
O31 P15 1.542286 1_555
O31 Sc7 2.066289 1_555
O32 P8 1.539276 1_555
O32 Sc0 2.085338 1_555
O33 P9 1.539276 1_565
O33 Sc1 2.085338 1_555
O34 P10 1.539276 1_455
O34 Sc2 2.085338 1_556
O35 P11 1.539276 1_555
O35 Sc3 2.085338 1_556
O36 P12 1.539276 1_555
O36 Sc4 2.085338 1_555
O37 P13 1.539276 1_545
O37 Sc5 2.085338 1_555
O38 P14 1.539276 1_655
O38 Sc6 2.085338 1_554
O39 P15 1.539276 1_555
O39 Sc7 2.085338 1_554
O40 P12 1.533902 1_555
O40 Sc0 2.072811 1_555
O41 P13 1.533902 1_555
O41 Sc1 2.072811 1_655
O42 P14 1.533902 1_555
O42 Sc2 2.072811 1_555
O43 P15 1.533902 1_555
O43 Sc3 2.072811 1_545
O44 P8 1.533902 1_555
O44 Sc4 2.072811 1_555
O45 P9 1.533902 1_555
O45 Sc5 2.072811 1_455
O46 P10 1.533902 1_555
O46 Sc6 2.072811 1_555
O47 P11 1.533902 1_555
O47 Sc7 2.072811 1_565
