# generated using pymatgen
data_Ba4Lu6O13
_symmetry_space_group_name_H-M   'P 1'
_cell_length_a   5.98452600
_cell_length_b   12.17591029
_cell_length_c   12.55726021
_cell_angle_alpha   118.92689025
_cell_angle_beta   103.75121382
_cell_angle_gamma   89.98747351
_symmetry_Int_Tables_number   1
_chemical_formula_structural   Ba4Lu6O13
_chemical_formula_sum   'Ba8 Lu12 O26'
_cell_volume   770.77716171
_cell_formula_units_Z   2
loop_
 _symmetry_equiv_pos_site_id
 _symmetry_equiv_pos_as_xyz
  1  'x, y, z'
loop_
 _atom_site_type_symbol
 _atom_site_label
 _atom_site_symmetry_multiplicity
 _atom_site_fract_x
 _atom_site_fract_y
 _atom_site_fract_z
 _atom_site_occupancy
  Ba  Ba0  1  0.84169400  0.96993500  0.68037000  1
  Ba  Ba1  1  0.66558800  0.78507300  0.32838400  1
  Ba  Ba2  1  0.16744900  0.54138800  0.32896100  1
  Ba  Ba3  1  0.33902500  0.70769300  0.68173200  1
  Ba  Ba4  1  0.66140000  0.29279300  0.32000500  1
  Ba  Ba5  1  0.83656700  0.45620600  0.67192300  1
  Ba  Ba6  1  0.33840200  0.21349600  0.67205800  1
  Ba  Ba7  1  0.16513600  0.02812700  0.31934000  1
  Lu  Lu0  1  0.60591500  0.90886700  0.07195000  1
  Lu  Lu1  1  0.25209300  0.87599200  0.50509500  1
  Lu  Lu2  1  0.06376700  0.65347400  0.09648700  1
  Lu  Lu3  1  0.56498500  0.44146500  0.09666600  1
  Lu  Lu4  1  0.75293700  0.62876000  0.50738900  1
  Lu  Lu5  1  0.03403000  0.83728300  0.92874700  1
  Lu  Lu6  1  0.10680200  0.16310600  0.07244300  1
  Lu  Lu7  1  0.24693600  0.37157200  0.49517800  1
  Lu  Lu8  1  0.46591200  0.55773600  0.90378700  1
  Lu  Lu9  1  0.96620500  0.34524300  0.90399900  1
  Lu  Lu10  1  0.74778200  0.12259700  0.49518800  1
  Lu  Lu11  1  0.53413500  0.09005500  0.92796800  1
  O  O0  1  0.30212800  0.99942600  0.99923500  1
  O  O1  1  0.80300800  0.99922400  0.99943000  1
  O  O2  1  0.64035100  0.00731900  0.26537700  1
  O  O3  1  0.90783400  0.80474300  0.06099600  1
  O  O4  1  0.49537600  0.99204300  0.48745200  1
  O  O5  1  0.12288100  0.76551700  0.29175300  1
  O  O6  1  0.42033500  0.61555000  0.09731400  1
  O  O7  1  0.50544500  0.75469100  0.50969100  1
  O  O8  1  0.00743900  0.75658700  0.51520900  1
  O  O9  1  0.92030600  0.48032700  0.09700300  1
  O  O10  1  0.88169700  0.74025900  0.73451200  1
  O  O11  1  0.62670900  0.52275800  0.29205800  1
  O  O12  1  0.34724900  0.74467100  0.94090900  1
  O  O13  1  0.99523500  0.49507400  0.48897900  1
  O  O14  1  0.50671600  0.50586200  0.51383700  1
  O  O15  1  0.40730500  0.25484200  0.05974700  1
  O  O16  1  0.32976100  0.47589200  0.70849600  1
  O  O17  1  0.14792200  0.26209600  0.26690900  1
  O  O18  1  0.82077500  0.51941400  0.90332700  1
  O  O19  1  0.49787800  0.24603400  0.48957100  1
  O  O20  1  0.99806300  0.24175500  0.48845800  1
  O  O21  1  0.31991900  0.38386100  0.90309200  1
  O  O22  1  0.82728300  0.23215600  0.70869000  1
  O  O23  1  0.00694600  0.00613000  0.51208600  1
  O  O24  1  0.84705000  0.19671600  0.94248500  1
  O  O25  1  0.38233200  0.99276100  0.73371200  1
loop_
_geom_bond_atom_site_label_1
_geom_bond_atom_site_label_2
_geom_bond_distance
_geom_bond_site_symmetry_2
Ba0 O23 2.744533 1_665
Ba0 O8 2.792549 1_655
Ba0 O7 2.833637 1_555
Ba0 O4 2.912074 1_555
Ba0 O25 2.962814 1_555
Ba0 O22 3.040364 1_565
Ba0 O24 3.101124 1_565
Ba0 O25 3.127957 1_655
Ba0 O10 3.178307 1_555
Ba1 O6 2.648927 1_555
Ba1 O4 2.734004 1_555
Ba1 O7 2.844474 1_555
Ba1 O5 2.872270 1_655
Ba1 O8 2.883493 1_655
Ba1 O23 2.914581 1_665
Ba1 O11 3.000637 1_555
Ba1 O2 3.160014 1_565
Ba1 O5 3.162422 1_555
Ba2 O9 2.661181 1_455
Ba2 O13 2.738389 1_455
Ba2 O7 2.846958 1_555
Ba2 O11 2.885088 1_555
Ba2 O8 2.896172 1_555
Ba2 O14 2.903302 1_555
Ba2 O5 2.985072 1_555
Ba2 O17 3.094939 1_555
Ba2 O11 3.150248 1_455
Ba3 O14 2.735673 1_555
Ba3 O8 2.809951 1_555
Ba3 O7 2.864546 1_555
Ba3 O13 2.892516 1_455
Ba3 O10 2.948683 1_455
Ba3 O16 3.001407 1_555
Ba3 O12 3.050175 1_555
Ba3 O10 3.141124 1_555
Ba3 O25 3.204539 1_555
Ba4 O13 2.736971 1_555
Ba4 O19 2.824759 1_555
Ba4 O20 2.857440 1_555
Ba4 O14 2.910887 1_555
Ba4 O17 2.968581 1_555
Ba4 O11 2.986996 1_555
Ba4 O15 3.063215 1_555
Ba4 O17 3.121384 1_655
Ba4 O2 3.197004 1_555
Ba5 O18 2.648023 1_555
Ba5 O14 2.738712 1_555
Ba5 O19 2.833268 1_555
Ba5 O16 2.868676 1_655
Ba5 O20 2.880580 1_555
Ba5 O13 2.914118 1_555
Ba5 O22 2.981441 1_555
Ba5 O10 3.149994 1_555
Ba5 O16 3.165885 1_555
Ba6 O21 2.657551 1_555
Ba6 O23 2.747040 1_555
Ba6 O22 2.842961 1_555
Ba6 O20 2.849011 1_455
Ba6 O19 2.870036 1_555
Ba6 O4 2.917920 1_545
Ba6 O16 3.002744 1_555
Ba6 O25 3.131745 1_545
Ba6 O22 3.191712 1_455
Ba7 O4 2.732900 1_545
Ba7 O20 2.817807 1_455
Ba7 O19 2.840127 1_555
Ba7 O23 2.922784 1_555
Ba7 O2 3.034664 1_455
Ba7 O5 3.048806 1_545
Ba7 O2 3.059596 1_555
Ba7 O3 3.063367 1_445
Ba7 O17 3.215857 1_555
Lu0 O2 2.079550 1_565
Lu0 O12 2.169983 1_554
Lu0 O3 2.199859 1_555
Lu0 O1 2.216156 1_554
Lu0 O0 2.353438 1_554
Lu1 O7 2.126835 1_555
Lu1 O8 2.131082 1_555
Lu1 O23 2.143944 1_565
Lu1 O4 2.150014 1_555
Lu1 O5 2.261382 1_555
Lu1 O25 2.420465 1_555
Lu2 O5 2.085766 1_555
Lu2 O6 2.181855 1_555
Lu2 O3 2.248873 1_455
Lu2 O18 2.270782 1_454
Lu2 O9 2.279999 1_455
Lu3 O11 2.087142 1_555
Lu3 O9 2.177117 1_555
Lu3 O15 2.245578 1_555
Lu3 O21 2.282058 1_554
Lu3 O6 2.286523 1_555
Lu4 O7 2.126529 1_555
Lu4 O8 2.129293 1_655
Lu4 O14 2.142872 1_555
Lu4 O13 2.144744 1_555
Lu4 O11 2.280603 1_555
Lu4 O10 2.404369 1_555
Lu5 O10 2.081261 1_455
Lu5 O3 2.172122 1_456
Lu5 O12 2.199566 1_555
Lu5 O0 2.211574 1_555
Lu5 O1 2.340159 1_455
Lu6 O17 2.084134 1_555
Lu6 O24 2.164905 1_454
Lu6 O15 2.194679 1_555
Lu6 O0 2.218303 1_544
Lu6 O1 2.359437 1_444
Lu7 O20 2.129804 1_455
Lu7 O19 2.131162 1_555
Lu7 O13 2.143081 1_455
Lu7 O14 2.145401 1_555
Lu7 O16 2.260977 1_555
Lu7 O17 2.416808 1_555
Lu8 O16 2.087378 1_555
Lu8 O18 2.174992 1_555
Lu8 O12 2.243326 1_555
Lu8 O6 2.266228 1_556
Lu8 O21 2.285780 1_555
Lu9 O22 2.089593 1_555
Lu9 O21 2.172370 1_655
Lu9 O24 2.241078 1_555
Lu9 O9 2.261548 1_556
Lu9 O18 2.295188 1_555
Lu10 O20 2.129628 1_555
Lu10 O19 2.133534 1_555
Lu10 O23 2.143642 1_655
Lu10 O4 2.144741 1_545
Lu10 O22 2.264449 1_555
Lu10 O2 2.431296 1_555
Lu11 O25 2.080971 1_545
Lu11 O15 2.173641 1_556
Lu11 O24 2.199181 1_555
Lu11 O1 2.211415 1_545
Lu11 O0 2.343734 1_545
