# generated using pymatgen
data_Ba2Sc2O5
_symmetry_space_group_name_H-M   'P 1'
_cell_length_a   5.95205281
_cell_length_b   6.08049914
_cell_length_c   16.44195224
_cell_angle_alpha   90.00000000
_cell_angle_beta   90.00000000
_cell_angle_gamma   90.00000000
_symmetry_Int_Tables_number   1
_chemical_formula_structural   Ba2Sc2O5
_chemical_formula_sum   'Ba8 Sc8 O20'
_cell_volume   595.05812516
_cell_formula_units_Z   4
loop_
 _symmetry_equiv_pos_site_id
 _symmetry_equiv_pos_as_xyz
  1  'x, y, z'
loop_
 _atom_site_type_symbol
 _atom_site_label
 _atom_site_symmetry_multiplicity
 _atom_site_fract_x
 _atom_site_fract_y
 _atom_site_fract_z
 _atom_site_occupancy
  Ba  Ba0  1  0.00226029  0.51279107  0.10909558  1
  Ba  Ba1  1  0.00226029  0.51279107  0.39090442  1
  Ba  Ba2  1  0.50226029  0.98720893  0.10909558  1
  Ba  Ba3  1  0.50226029  0.98720893  0.39090442  1
  Ba  Ba4  1  0.49773971  0.01279107  0.60909558  1
  Ba  Ba5  1  0.49773971  0.01279107  0.89090442  1
  Ba  Ba6  1  0.99773971  0.48720893  0.60909558  1
  Ba  Ba7  1  0.99773971  0.48720893  0.89090442  1
  Sc  Sc0  1  0.50000000  0.50000000  0.00000000  1
  Sc  Sc1  1  0.50000000  0.50000000  0.50000000  1
  Sc  Sc2  1  0.46944084  0.56781715  0.75000000  1
  Sc  Sc3  1  0.96944084  0.93218285  0.75000000  1
  Sc  Sc4  1  -0.00000000  0.00000000  0.50000000  1
  Sc  Sc5  1  -0.00000000  0.00000000  0.00000000  1
  Sc  Sc6  1  0.03055916  0.06781715  0.25000000  1
  Sc  Sc7  1  0.53055916  0.43218285  0.25000000  1
  O  O0  1  0.49094213  0.54607714  0.13704208  1
  O  O1  1  0.49094213  0.54607714  0.36295792  1
  O  O2  1  0.14946199  0.65719916  0.75000000  1
  O  O3  1  0.25199602  0.75233038  0.50695069  1
  O  O4  1  0.25199602  0.75233038  0.99304931  1
  O  O5  1  0.75199602  0.74766962  0.50695069  1
  O  O6  1  0.75199602  0.74766962  0.99304931  1
  O  O7  1  0.64946199  0.84280084  0.75000000  1
  O  O8  1  0.99094213  0.95392286  0.13704208  1
  O  O9  1  0.99094213  0.95392286  0.36295792  1
  O  O10  1  0.00905787  0.04607714  0.63704208  1
  O  O11  1  0.00905787  0.04607714  0.86295792  1
  O  O12  1  0.35053801  0.15719916  0.25000000  1
  O  O13  1  0.24800398  0.25233038  0.00695069  1
  O  O14  1  0.24800398  0.25233038  0.49304931  1
  O  O15  1  0.74800398  0.24766962  0.00695069  1
  O  O16  1  0.74800398  0.24766962  0.49304931  1
  O  O17  1  0.85053801  0.34280084  0.25000000  1
  O  O18  1  0.50905787  0.45392286  0.63704208  1
  O  O19  1  0.50905787  0.45392286  0.86295792  1
loop_
_geom_bond_atom_site_label_1
_geom_bond_atom_site_label_2
_geom_bond_distance
_geom_bond_site_symmetry_2
Ba0 O17 2.692805 1_455
Ba0 O8 2.722208 1_455
Ba0 O13 2.732805 1_555
Ba0 O15 2.776613 1_455
Ba0 O6 2.810539 1_454
Ba0 O4 2.823388 1_554
Ba0 O0 2.951678 1_555
Ba0 O0 3.084532 1_455
Ba1 O17 2.692805 1_455
Ba1 O9 2.722208 1_455
Ba1 O14 2.732805 1_555
Ba1 O16 2.776613 1_455
Ba1 O5 2.810539 1_455
Ba1 O3 2.823388 1_555
Ba1 O1 2.951678 1_555
Ba1 O1 3.084532 1_455
Ba2 O12 2.692805 1_565
Ba2 O0 2.722208 1_555
Ba2 O15 2.732805 1_565
Ba2 O13 2.776613 1_565
Ba2 O4 2.810539 1_554
Ba2 O6 2.823388 1_554
Ba2 O8 2.951678 1_555
Ba2 O8 3.084532 1_455
Ba3 O12 2.692805 1_565
Ba3 O1 2.722208 1_555
Ba3 O16 2.732805 1_565
Ba3 O14 2.776613 1_565
Ba3 O3 2.810539 1_555
Ba3 O5 2.823388 1_555
Ba3 O9 2.951678 1_555
Ba3 O9 3.084532 1_455
Ba4 O7 2.692805 1_545
Ba4 O18 2.722208 1_555
Ba4 O3 2.732805 1_545
Ba4 O5 2.776613 1_545
Ba4 O16 2.810539 1_555
Ba4 O14 2.823388 1_555
Ba4 O10 2.951678 1_555
Ba4 O10 3.084532 1_655
Ba5 O7 2.692805 1_545
Ba5 O19 2.722208 1_555
Ba5 O4 2.732805 1_545
Ba5 O6 2.776613 1_545
Ba5 O15 2.810539 1_556
Ba5 O13 2.823388 1_556
Ba5 O11 2.951678 1_555
Ba5 O11 3.084532 1_655
Ba6 O2 2.692805 1_655
Ba6 O10 2.722208 1_655
Ba6 O5 2.732805 1_555
Ba6 O3 2.776613 1_655
Ba6 O14 2.810539 1_655
Ba6 O16 2.823388 1_555
Ba6 O18 2.951678 1_555
Ba6 O18 3.084532 1_655
Ba7 O2 2.692805 1_655
Ba7 O11 2.722208 1_655
Ba7 O6 2.732805 1_555
Ba7 O4 2.776613 1_655
Ba7 O13 2.810539 1_656
Ba7 O15 2.823388 1_556
Ba7 O19 2.951678 1_555
Ba7 O19 3.084532 1_655
O0 Sc7 1.996141 1_555
O0 Sc0 2.271231 1_555
O1 Sc7 1.996141 1_555
O1 Sc1 2.271231 1_555
O2 Sc2 1.980560 1_555
O2 Sc3 1.985904 1_455
O3 Sc4 2.128530 1_565
O3 Sc1 2.132156 1_555
O4 Sc5 2.128530 1_566
O4 Sc0 2.132156 1_556
O5 Sc1 2.128530 1_555
O5 Sc4 2.132156 1_665
O6 Sc0 2.128530 1_556
O6 Sc5 2.132156 1_666
O7 Sc3 1.980560 1_555
O7 Sc2 1.985904 1_555
O8 Sc6 1.996141 1_665
O8 Sc5 2.271231 1_665
O9 Sc6 1.996141 1_665
O9 Sc4 2.271231 1_665
O10 Sc3 1.996141 1_445
O10 Sc4 2.271231 1_555
O11 Sc3 1.996141 1_445
O11 Sc5 2.271231 1_556
O12 Sc6 1.980560 1_555
O12 Sc7 1.985904 1_555
O13 Sc0 2.128530 1_555
O13 Sc5 2.132156 1_555
O14 Sc1 2.128530 1_555
O14 Sc4 2.132156 1_555
O15 Sc5 2.128530 1_655
O15 Sc0 2.132156 1_555
O16 Sc4 2.128530 1_655
O16 Sc1 2.132156 1_555
O17 Sc7 1.980560 1_555
O17 Sc6 1.985904 1_655
O18 Sc2 1.996141 1_555
O18 Sc1 2.271231 1_555
O19 Sc2 1.996141 1_555
O19 Sc0 2.271231 1_556
