# generated using pymatgen
data_K9(WO3)20
_symmetry_space_group_name_H-M   'P 1'
_cell_length_a   13.02627680
_cell_length_b   13.02627680
_cell_length_c   13.02627680
_cell_angle_alpha   95.07532641
_cell_angle_beta   95.07532641
_cell_angle_gamma   145.39323170
_symmetry_Int_Tables_number   1
_chemical_formula_structural   K9(WO3)20
_chemical_formula_sum   'K9 W20 O60'
_cell_volume   1198.53494404
_cell_formula_units_Z   1
loop_
 _symmetry_equiv_pos_site_id
 _symmetry_equiv_pos_as_xyz
  1  'x, y, z'
loop_
 _atom_site_type_symbol
 _atom_site_label
 _atom_site_symmetry_multiplicity
 _atom_site_fract_x
 _atom_site_fract_y
 _atom_site_fract_z
 _atom_site_occupancy
  K  K0  1  0.57643600  0.75076700  0.32720300  1
  K  K1  1  0.07653700  0.25079000  0.32732700  1
  K  K2  1  0.75076700  0.42356400  0.17433100  1
  K  K3  1  0.25079000  0.92346300  0.17425300  1
  K  K4  1  0.50000000  0.50000000  0.00000000  1
  K  K5  1  0.24923300  0.57643600  0.82566900  1
  K  K6  1  0.74921000  0.07653700  0.82574700  1
  K  K7  1  0.92346300  0.74921000  0.67267300  1
  K  K8  1  0.42356400  0.24923300  0.67279700  1
  W  W0  1  0.61002400  0.31652700  0.42657400  1
  W  W1  1  0.11004700  0.81655000  0.42657400  1
  W  W2  1  0.18345000  0.61002400  0.29349700  1
  W  W3  1  0.68347300  0.11004700  0.29349700  1
  W  W4  1  0.89428900  0.81872700  0.20880800  1
  W  W5  1  0.39008100  0.31452000  0.20880800  1
  W  W6  1  0.68548000  0.89428900  0.07556200  1
  W  W7  1  0.18127300  0.39008100  0.07556200  1
  W  W8  1  0.50000000  0.00000000  0.00000000  1
  W  W9  1  0.00000000  0.50000000  0.00000000  1
  W  W10  1  0.31452000  0.10571100  0.92443800  1
  W  W11  1  0.81872700  0.60991900  0.92443800  1
  W  W12  1  0.60991900  0.68548000  0.79119200  1
  W  W13  1  0.10571100  0.18127300  0.79119200  1
  W  W14  1  0.31652700  0.88995300  0.70650300  1
  W  W15  1  0.81655000  0.38997600  0.70650300  1
  W  W16  1  0.38997600  0.68347300  0.57342600  1
  W  W17  1  0.88995300  0.18345000  0.57342600  1
  W  W18  1  0.50000000  0.50000000  0.50000000  1
  W  W19  1  0.00000000  0.00000000  0.50000000  1
  O  O0  1  0.78727300  0.14317400  0.43054500  1
  O  O1  1  0.28737100  0.64327200  0.43054500  1
  O  O2  1  0.85880600  0.56625400  0.42506000  1
  O  O3  1  0.35886500  0.06624400  0.42510900  1
  O  O4  1  0.14317400  0.71262900  0.35590100  1
  O  O5  1  0.64327200  0.21272700  0.35590100  1
  O  O6  1  0.42162800  0.42277400  0.34518800  1
  O  O7  1  0.92241400  0.92355900  0.34518800  1
  O  O8  1  0.00003500  0.79080900  0.29029100  1
  O  O9  1  0.49948200  0.29025600  0.29029100  1
  O  O10  1  0.93375600  0.35886500  0.29262100  1
  O  O11  1  0.43374600  0.85880600  0.29255200  1
  O  O12  1  0.14205300  0.06635700  0.20841000  1
  O  O13  1  0.64146400  0.56616500  0.20762900  1
  O  O14  1  0.70974400  0.00003500  0.20922600  1
  O  O15  1  0.20919100  0.49948200  0.20922600  1
  O  O16  1  0.57640700  0.07761300  0.15405200  1
  O  O17  1  0.07643900  0.57764500  0.15405200  1
  O  O18  1  0.78711100  0.85658200  0.14366100  1
  O  O19  1  0.28707800  0.35655000  0.14366100  1
  O  O20  1  0.93364300  0.14205300  0.07569600  1
  O  O21  1  0.43383500  0.64146400  0.07529800  1
  O  O22  1  0.35655000  0.21288900  0.06947100  1
  O  O23  1  0.85658200  0.71292200  0.06947100  1
  O  O24  1  0.25008300  0.74992800  0.00001100  1
  O  O25  1  0.42277400  0.07758600  0.00114600  1
  O  O26  1  0.74991700  0.25007200  0.99998900  1
  O  O27  1  0.92355900  0.57837200  0.00114600  1
  O  O28  1  0.07644100  0.42162800  0.99885400  1
  O  O29  1  0.57722600  0.92241400  0.99885400  1
  O  O30  1  0.64345000  0.78711100  0.93052900  1
  O  O31  1  0.14341800  0.28707800  0.93052900  1
  O  O32  1  0.56616500  0.35853600  0.92470200  1
  O  O33  1  0.06635700  0.85794700  0.92430400  1
  O  O34  1  0.71292200  0.64345000  0.85633900  1
  O  O35  1  0.21288900  0.14341800  0.85633900  1
  O  O36  1  0.42359300  0.92238700  0.84594800  1
  O  O37  1  0.92356100  0.42235500  0.84594800  1
  O  O38  1  0.29025600  0.99996500  0.79077400  1
  O  O39  1  0.79080900  0.50051800  0.79077400  1
  O  O40  1  0.35853600  0.43383500  0.79237100  1
  O  O41  1  0.85794700  0.93364300  0.79159000  1
  O  O42  1  0.56625400  0.14119400  0.70744800  1
  O  O43  1  0.06624400  0.64113500  0.70737900  1
  O  O44  1  0.50051800  0.70974400  0.70970900  1
  O  O45  1  0.99996500  0.20919100  0.70970900  1
  O  O46  1  0.57837200  0.57722600  0.65481200  1
  O  O47  1  0.07758600  0.07644100  0.65481200  1
  O  O48  1  0.35672800  0.78727300  0.64409900  1
  O  O49  1  0.85682600  0.28737100  0.64409900  1
  O  O50  1  0.14119400  0.43374600  0.57494000  1
  O  O51  1  0.64113500  0.93375600  0.57489100  1
  O  O52  1  0.71262900  0.35672800  0.56945500  1
  O  O53  1  0.21272700  0.85682600  0.56945500  1
  O  O54  1  0.57764500  0.42359300  0.50120600  1
  O  O55  1  0.07761300  0.92356100  0.50120600  1
  O  O56  1  0.25007200  0.25008300  0.50015500  1
  O  O57  1  0.74992800  0.74991700  0.49984500  1
  O  O58  1  0.42235500  0.57640700  0.49879400  1
  O  O59  1  0.92238700  0.07643900  0.49879400  1
loop_
_geom_bond_atom_site_label_1
_geom_bond_atom_site_label_2
_geom_bond_distance
_geom_bond_site_symmetry_2
K0 O14 2.827323 1_565
K0 O15 2.827323 1_555
K0 O59 2.893264 1_565
K0 O58 2.893264 1_555
K0 O6 2.907530 1_555
K0 O7 2.907537 1_555
K0 O57 3.051452 1_555
K0 O11 3.147892 1_555
K0 O21 3.160131 1_555
K0 O0 3.240733 1_565
K0 O1 3.240733 1_555
K0 O19 3.265660 1_555
K0 O18 3.265663 1_555
K1 O15 2.825683 1_555
K1 O14 2.825683 1_455
K1 O59 2.891876 1_455
K1 O58 2.891876 1_555
K1 O6 2.902631 1_555
K1 O7 2.902643 1_445
K1 O56 3.052197 1_555
K1 O10 3.149550 1_455
K1 O20 3.158172 1_455
K1 O0 3.241252 1_455
K1 O1 3.241252 1_555
K1 O19 3.266199 1_555
K1 O18 3.266207 1_445
K2 O8 2.827323 1_655
K2 O9 2.827323 1_555
K2 O17 2.893264 1_655
K2 O16 2.893264 1_555
K2 O27 2.907527 1_555
K2 O25 2.907530 1_555
K2 O26 3.051452 1_554
K2 O2 3.147892 1_555
K2 O13 3.160119 1_555
K2 O4 3.240733 1_655
K2 O5 3.240733 1_555
K2 O22 3.265663 1_555
K2 O23 3.265674 1_555
K3 O8 2.825683 1_555
K3 O9 2.825683 1_565
K3 O17 2.891876 1_555
K3 O16 2.891876 1_565
K3 O25 2.902631 1_565
K3 O27 2.902633 1_455
K3 O24 3.052197 1_555
K3 O3 3.149550 1_565
K3 O12 3.158172 1_565
K3 O4 3.241252 1_555
K3 O5 3.241252 1_565
K3 O22 3.266207 1_565
K3 O23 3.266213 1_455
K4 O21 2.746793 1_555
K4 O32 2.746793 1_554
K4 O13 2.746797 1_555
K4 O40 2.746797 1_554
K4 O23 2.773433 1_555
K4 O31 2.773433 1_554
K4 O22 2.773439 1_555
K4 O18 2.773439 1_555
K4 O35 2.773439 1_554
K4 O30 2.773439 1_554
K4 O19 2.773445 1_555
K4 O34 2.773445 1_554
K5 O45 2.827323 1_455
K5 O44 2.827323 1_555
K5 O37 2.893264 1_455
K5 O36 2.893264 1_555
K5 O28 2.907527 1_555
K5 O29 2.907530 1_555
K5 O24 3.051452 1_556
K5 O50 3.147892 1_555
K5 O40 3.160119 1_555
K5 O49 3.240733 1_455
K5 O48 3.240733 1_555
K5 O30 3.265663 1_555
K5 O31 3.265674 1_555
K6 O45 2.825683 1_555
K6 O44 2.825683 1_545
K6 O36 2.891876 1_545
K6 O37 2.891876 1_555
K6 O29 2.902631 1_545
K6 O28 2.902633 1_655
K6 O26 3.052197 1_555
K6 O51 3.149550 1_545
K6 O41 3.158172 1_545
K6 O49 3.241252 1_555
K6 O48 3.241252 1_545
K6 O30 3.266207 1_545
K6 O31 3.266213 1_655
K7 O39 2.825683 1_555
K7 O38 2.825683 1_655
K7 O54 2.891876 1_555
K7 O55 2.891876 1_655
K7 O46 2.902631 1_555
K7 O47 2.902643 1_665
K7 O57 3.052197 1_555
K7 O43 3.149550 1_655
K7 O33 3.158172 1_655
K7 O52 3.241252 1_555
K7 O53 3.241252 1_655
K7 O34 3.266199 1_555
K7 O35 3.266207 1_665
K8 O38 2.827323 1_545
K8 O39 2.827323 1_555
K8 O55 2.893264 1_545
K8 O54 2.893264 1_555
K8 O46 2.907530 1_555
K8 O47 2.907537 1_555
K8 O56 3.051452 1_555
K8 O42 3.147892 1_555
K8 O32 3.160131 1_555
K8 O53 3.240733 1_545
K8 O52 3.240733 1_555
K8 O34 3.265660 1_555
K8 O35 3.265663 1_555
O0 W3 1.917714 1_555
O0 W17 1.939066 1_555
O1 W2 1.917714 1_555
O1 W16 1.939066 1_555
O2 W0 1.937427 1_555
O2 W1 1.937427 1_655
O3 W0 1.937238 1_555
O3 W1 1.937238 1_545
O4 W1 1.917714 1_555
O4 W2 1.939066 1_555
O5 W0 1.917714 1_555
O5 W3 1.939066 1_555
O6 W18 1.925413 1_555
O6 W5 1.946047 1_555
O7 W19 1.925413 1_665
O7 W4 1.946048 1_555
O8 W4 1.946931 1_455
O8 W1 1.992780 1_555
O9 W5 1.946942 1_555
O9 W0 1.992780 1_555
O10 W2 1.937238 1_655
O10 W3 1.937238 1_555
O11 W2 1.937427 1_555
O11 W3 1.937427 1_565
O12 W4 1.920915 1_445
O12 W5 1.920918 1_555
O13 W5 1.953568 1_555
O13 W4 1.953572 1_555
O14 W6 1.946924 1_545
O14 W3 1.992780 1_555
O15 W7 1.946931 1_555
O15 W2 1.992780 1_555
O16 W8 1.915965 1_555
O16 W3 1.967006 1_555
O17 W9 1.915965 1_555
O17 W2 1.967006 1_555
O18 W6 1.928869 1_555
O18 W4 1.977420 1_555
O19 W7 1.928847 1_555
O19 W5 1.977419 1_555
O20 W7 1.920915 1_655
O20 W6 1.920918 1_545
O21 W6 1.953565 1_555
O21 W7 1.953576 1_555
O22 W5 1.928863 1_555
O22 W10 1.977425 1_554
O23 W4 1.928852 1_555
O23 W11 1.977425 1_554
O24 W9 1.937212 1_555
O24 W8 1.937212 1_565
O25 W8 1.925413 1_555
O25 W10 1.946043 1_554
O26 W8 1.937212 1_556
O26 W9 1.937212 1_656
O27 W9 1.925426 1_655
O27 W11 1.946043 1_554
O28 W9 1.925426 1_556
O28 W7 1.946043 1_556
O29 W8 1.925413 1_566
O29 W6 1.946043 1_556
O30 W12 1.928863 1_555
O30 W6 1.977425 1_556
O31 W13 1.928852 1_555
O31 W7 1.977425 1_556
O32 W10 1.953565 1_555
O32 W11 1.953576 1_555
O33 W11 1.920915 1_455
O33 W10 1.920918 1_565
O34 W11 1.928847 1_555
O34 W12 1.977419 1_555
O35 W10 1.928869 1_555
O35 W13 1.977420 1_555
O36 W8 1.915965 1_566
O36 W14 1.967006 1_555
O37 W9 1.915965 1_656
O37 W15 1.967006 1_555
O38 W10 1.946924 1_565
O38 W14 1.992780 1_555
O39 W11 1.946931 1_555
O39 W15 1.992780 1_555
O40 W12 1.953568 1_555
O40 W13 1.953572 1_555
O41 W13 1.920915 1_665
O41 W12 1.920918 1_555
O42 W14 1.937427 1_545
O42 W15 1.937427 1_555
O43 W15 1.937238 1_455
O43 W14 1.937238 1_555
O44 W12 1.946942 1_555
O44 W16 1.992780 1_555
O45 W13 1.946931 1_655
O45 W17 1.992780 1_555
O46 W18 1.925413 1_555
O46 W12 1.946047 1_555
O47 W19 1.925413 1_555
O47 W13 1.946048 1_555
O48 W16 1.917714 1_555
O48 W14 1.939066 1_555
O49 W17 1.917714 1_555
O49 W15 1.939066 1_555
O50 W17 1.937427 1_455
O50 W16 1.937427 1_555
O51 W16 1.937238 1_555
O51 W17 1.937238 1_565
O52 W15 1.917714 1_555
O52 W0 1.939066 1_555
O53 W14 1.917714 1_555
O53 W1 1.939066 1_555
O54 W18 1.915965 1_555
O54 W0 1.967006 1_555
O55 W19 1.915965 1_565
O55 W1 1.967006 1_555
O56 W19 1.937212 1_555
O56 W18 1.937212 1_555
O57 W18 1.937212 1_555
O57 W19 1.937212 1_665
O58 W18 1.915965 1_555
O58 W16 1.967006 1_555
O59 W19 1.915965 1_655
O59 W17 1.967006 1_555
