# generated using pymatgen
data_Cu2O3
_symmetry_space_group_name_H-M   'P 1'
_cell_length_a   7.96511157
_cell_length_b   7.96511157
_cell_length_c   7.96511157
_cell_angle_alpha   109.47195010
_cell_angle_beta   109.47126046
_cell_angle_gamma   109.47045134
_symmetry_Int_Tables_number   1
_chemical_formula_structural   Cu2O3
_chemical_formula_sum   'Cu16 O24'
_cell_volume   389.00367117
_cell_formula_units_Z   8
loop_
 _symmetry_equiv_pos_site_id
 _symmetry_equiv_pos_as_xyz
  1  'x, y, z'
loop_
 _atom_site_type_symbol
 _atom_site_label
 _atom_site_symmetry_multiplicity
 _atom_site_fract_x
 _atom_site_fract_y
 _atom_site_fract_z
 _atom_site_occupancy
  Cu  Cu0  1  0.50000000  0.00000000  0.00000000  1
  Cu  Cu1  1  0.96609748  0.25000000  0.21609748  1
  Cu  Cu2  1  0.78390245  0.03390245  0.75000000  1
  Cu  Cu3  1  0.71609755  0.46609755  0.25000000  1
  Cu  Cu4  1  0.75000000  0.78389891  0.03389891  1
  Cu  Cu5  1  0.75000000  0.28389891  0.53389891  1
  Cu  Cu6  1  0.46609748  0.25000000  0.71609748  1
  Cu  Cu7  1  0.00000000  0.50000000  0.00000000  1
  Cu  Cu8  1  0.00000000  0.00000000  0.50000000  1
  Cu  Cu9  1  0.53390252  0.75000000  0.28390252  1
  Cu  Cu10  1  0.50000000  0.50000000  0.50000000  1
  Cu  Cu11  1  0.25000000  0.71610109  0.46610109  1
  Cu  Cu12  1  0.25000000  0.21610109  0.96610109  1
  Cu  Cu13  1  0.21609755  0.96609755  0.25000000  1
  Cu  Cu14  1  0.28390245  0.53390245  0.75000000  1
  Cu  Cu15  1  0.03390252  0.75000000  0.78390252  1
  O  O0  1  0.78825883  0.06271134  0.51990446  1
  O  O1  1  0.71174117  0.23164463  0.27445250  1
  O  O2  1  0.26836591  0.98009831  0.04280380  1
  O  O3  1  0.93729551  0.48009831  0.21173340  1
  O  O4  1  0.76836591  0.72556311  0.28826660  1
  O  O5  1  0.43729551  0.22556311  0.45719620  1
  O  O6  1  0.04280687  0.26835537  0.98009554  1
  O  O7  1  0.45719313  0.43728866  0.22554750  1
  O  O8  1  0.98008033  0.04279456  0.26833942  1
  O  O9  1  0.77445714  0.54279456  0.56271523  1
  O  O10  1  0.51991967  0.78825709  0.06271523  1
  O  O11  1  0.72554286  0.28825709  0.76833942  1
  O  O12  1  0.27445714  0.71174291  0.23166058  1
  O  O13  1  0.22554286  0.45720544  0.43728477  1
  O  O14  1  0.48008033  0.21174291  0.93728477  1
  O  O15  1  0.01991967  0.95720544  0.73166058  1
  O  O16  1  0.95719313  0.73164463  0.01990446  1
  O  O17  1  0.54280687  0.56271134  0.77445250  1
  O  O18  1  0.56270449  0.77443689  0.54280380  1
  O  O19  1  0.23163409  0.27443689  0.71173340  1
  O  O20  1  0.06270449  0.51990169  0.78826660  1
  O  O21  1  0.73163409  0.01990169  0.95719620  1
  O  O22  1  0.21174117  0.93728866  0.48009554  1
  O  O23  1  0.28825883  0.76835537  0.72554750  1
loop_
_geom_bond_atom_site_label_1
_geom_bond_atom_site_label_2
_geom_bond_distance
_geom_bond_site_symmetry_2
Cu0 O21 1.950839 1_554
Cu0 O2 1.950839 1_545
Cu0 O1 1.950927 1_555
Cu0 O23 1.950927 1_544
Cu0 O10 1.951002 1_545
Cu0 O14 1.951002 1_554
Cu1 O13 1.859807 1_655
Cu1 O8 1.859817 1_555
Cu1 O3 1.931396 1_555
Cu1 O21 1.931402 1_554
Cu1 O1 2.194911 1_555
Cu1 O6 2.194914 1_654
Cu2 O21 1.859889 1_555
Cu2 O18 1.859895 1_545
Cu2 O0 1.931385 1_555
Cu2 O6 1.931387 1_655
Cu2 O11 2.194930 1_555
Cu2 O15 2.194936 1_645
Cu3 O3 1.859893 1_555
Cu3 O4 1.859899 1_555
Cu3 O7 1.931385 1_555
Cu3 O1 1.931393 1_555
Cu3 O14 2.194937 1_554
Cu3 O9 2.194940 1_555
Cu4 O17 1.859784 1_554
Cu4 O16 1.859788 1_555
Cu4 O10 1.931291 1_555
Cu4 O8 1.931292 1_565
Cu4 O4 2.194904 1_555
Cu4 O21 2.194916 1_564
Cu5 O1 1.859782 1_555
Cu5 O0 1.859784 1_555
Cu5 O9 1.931286 1_555
Cu5 O11 1.931304 1_555
Cu5 O20 2.194909 1_655
Cu5 O5 2.194910 1_555
Cu6 O14 1.859801 1_555
Cu6 O11 1.859806 1_555
Cu6 O19 1.931401 1_555
Cu6 O5 1.931407 1_555
Cu6 O22 2.194912 1_545
Cu6 O17 2.194912 1_555
Cu7 O20 1.950842 1_554
Cu7 O3 1.950842 1_455
Cu7 O6 1.950921 1_554
Cu7 O16 1.950921 1_455
Cu7 O12 1.950994 1_555
Cu7 O11 1.950994 1_454
Cu8 O19 1.950836 1_555
Cu8 O4 1.950836 1_445
Cu8 O22 1.950929 1_545
Cu8 O0 1.950929 1_455
Cu8 O8 1.950983 1_455
Cu8 O15 1.950983 1_545
Cu9 O10 1.859801 1_555
Cu9 O12 1.859806 1_555
Cu9 O4 1.931401 1_555
Cu9 O18 1.931407 1_555
Cu9 O0 2.194912 1_565
Cu9 O7 2.194912 1_555
Cu10 O5 1.950832 1_555
Cu10 O18 1.950832 1_555
Cu10 O17 1.950929 1_555
Cu10 O7 1.950929 1_555
Cu10 O9 1.950997 1_555
Cu10 O13 1.950997 1_555
Cu11 O23 1.859782 1_555
Cu11 O22 1.859784 1_555
Cu11 O13 1.931286 1_555
Cu11 O12 1.931304 1_555
Cu11 O3 2.194909 1_455
Cu11 O18 2.194910 1_555
Cu12 O7 1.859784 1_556
Cu12 O6 1.859788 1_555
Cu12 O14 1.931291 1_555
Cu12 O15 1.931292 1_545
Cu12 O19 2.194904 1_555
Cu12 O2 2.194916 1_546
Cu13 O2 1.859889 1_555
Cu13 O5 1.859895 1_565
Cu13 O22 1.931385 1_555
Cu13 O16 1.931387 1_455
Cu13 O12 2.194930 1_555
Cu13 O8 2.194936 1_465
Cu14 O20 1.859893 1_555
Cu14 O19 1.859899 1_555
Cu14 O17 1.931385 1_555
Cu14 O23 1.931393 1_555
Cu14 O10 2.194937 1_556
Cu14 O13 2.194940 1_555
Cu15 O9 1.859807 1_455
Cu15 O15 1.859817 1_555
Cu15 O20 1.931396 1_555
Cu15 O2 1.931402 1_556
Cu15 O23 2.194911 1_555
Cu15 O16 2.194914 1_456
