# generated using pymatgen
data_Li8TeO6
_symmetry_space_group_name_H-M   'P 1'
_cell_length_a   6.22537268
_cell_length_b   6.22537268
_cell_length_c   6.22537315
_cell_angle_alpha   53.53404982
_cell_angle_beta   53.53404982
_cell_angle_gamma   53.53404456
_symmetry_Int_Tables_number   1
_chemical_formula_structural   Li8TeO6
_chemical_formula_sum   'Li8 Te1 O6'
_cell_volume   144.79216709
_cell_formula_units_Z   1
loop_
 _symmetry_equiv_pos_site_id
 _symmetry_equiv_pos_as_xyz
  1  'x, y, z'
loop_
 _atom_site_type_symbol
 _atom_site_label
 _atom_site_symmetry_multiplicity
 _atom_site_fract_x
 _atom_site_fract_y
 _atom_site_fract_z
 _atom_site_occupancy
  Li  Li0  1  0.49026300  0.77074400  0.10162400  1
  Li  Li1  1  0.22925600  0.89837600  0.50973700  1
  Li  Li2  1  0.89837600  0.50973700  0.22925600  1
  Li  Li3  1  0.65272100  0.65272100  0.65272100  1
  Li  Li4  1  0.34727900  0.34727900  0.34727900  1
  Li  Li5  1  0.10162400  0.49026300  0.77074400  1
  Li  Li6  1  0.77074400  0.10162400  0.49026300  1
  Li  Li7  1  0.50973700  0.22925600  0.89837600  1
  Te  Te0  1  0.00000000  0.00000000  0.00000000  1
  O  O0  1  0.60633200  0.90123200  0.23835800  1
  O  O1  1  0.09876800  0.76164200  0.39366800  1
  O  O2  1  0.76164200  0.39366800  0.09876800  1
  O  O3  1  0.23835800  0.60633200  0.90123200  1
  O  O4  1  0.90123200  0.23835800  0.60633200  1
  O  O5  1  0.39366800  0.09876800  0.76164200  1
loop_
_geom_bond_atom_site_label_1
_geom_bond_atom_site_label_2
_geom_bond_distance
_geom_bond_site_symmetry_2
Li0 O2 1.914346 1_555
Li0 O5 1.981642 1_564
Li0 O1 2.005783 1_555
Li0 O0 2.038966 1_555
Li1 O0 1.914346 1_555
Li1 O4 1.981642 1_465
Li1 O3 2.005783 1_555
Li1 O1 2.038966 1_555
Li2 O4 1.914346 1_555
Li2 O3 1.981642 1_654
Li2 O0 2.005783 1_555
Li2 O2 2.038966 1_555
Li3 O4 2.177527 1_555
Li3 O3 2.177527 1_555
Li3 O0 2.177528 1_555
Li3 O5 2.527133 1_565
Li3 O1 2.527133 1_655
Li3 O2 2.527133 1_556
Li4 O1 2.177527 1_555
Li4 O2 2.177527 1_555
Li4 O5 2.177528 1_555
Li4 O0 2.527133 1_545
Li4 O4 2.527133 1_455
Li4 O3 2.527133 1_554
Li5 O1 1.914346 1_555
Li5 O2 1.981642 1_456
Li5 O5 2.005783 1_555
Li5 O3 2.038966 1_555
Li6 O5 1.914346 1_555
Li6 O1 1.981642 1_645
Li6 O2 2.005783 1_555
Li6 O4 2.038966 1_555
Li7 O3 1.914346 1_555
Li7 O0 1.981642 1_546
Li7 O4 2.005783 1_555
Li7 O5 2.038966 1_555
O0 Te0 2.229334 1_665
O1 Te0 2.229334 1_565
O2 Te0 2.229334 1_655
O3 Te0 2.229334 1_566
O4 Te0 2.229334 1_656
O5 Te0 2.229334 1_556
