# generated using pymatgen
data_Li2Ni3SbO8
_symmetry_space_group_name_H-M   'P 1'
_cell_length_a   8.36091500
_cell_length_b   8.36091500
_cell_length_c   8.36091500
_cell_angle_alpha   90.00000000
_cell_angle_beta   90.00000000
_cell_angle_gamma   90.00000000
_symmetry_Int_Tables_number   1
_chemical_formula_structural   Li2Ni3SbO8
_chemical_formula_sum   'Li8 Ni12 Sb4 O32'
_cell_volume   584.46892395
_cell_formula_units_Z   4
loop_
 _symmetry_equiv_pos_site_id
 _symmetry_equiv_pos_as_xyz
  1  'x, y, z'
loop_
 _atom_site_type_symbol
 _atom_site_label
 _atom_site_symmetry_multiplicity
 _atom_site_fract_x
 _atom_site_fract_y
 _atom_site_fract_z
 _atom_site_occupancy
  Li  Li0  1  0.99869100  0.99869100  0.99869100  1
  Li  Li1  1  0.25130900  0.25130900  0.25130900  1
  Li  Li2  1  0.24869100  0.74869100  0.75130900  1
  Li  Li3  1  0.50130900  0.00130900  0.49869100  1
  Li  Li4  1  0.49869100  0.50130900  0.00130900  1
  Li  Li5  1  0.75130900  0.24869100  0.74869100  1
  Li  Li6  1  0.74869100  0.75130900  0.24869100  1
  Li  Li7  1  0.00130900  0.49869100  0.50130900  1
  Ni  Ni0  1  0.12254800  0.12745200  0.62500000  1
  Ni  Ni1  1  0.12500000  0.37745200  0.87254800  1
  Ni  Ni2  1  0.12745200  0.62500000  0.12254800  1
  Ni  Ni3  1  0.37254800  0.37500000  0.62254800  1
  Ni  Ni4  1  0.37500000  0.62254800  0.37254800  1
  Ni  Ni5  1  0.37745200  0.87254800  0.12500000  1
  Ni  Ni6  1  0.62254800  0.37254800  0.37500000  1
  Ni  Ni7  1  0.62500000  0.12254800  0.12745200  1
  Ni  Ni8  1  0.62745200  0.87500000  0.87745200  1
  Ni  Ni9  1  0.87254800  0.12500000  0.37745200  1
  Ni  Ni10  1  0.87500000  0.87745200  0.62745200  1
  Ni  Ni11  1  0.87745200  0.62745200  0.87500000  1
  Sb  Sb0  1  0.12500000  0.87500000  0.37500000  1
  Sb  Sb1  1  0.37500000  0.12500000  0.87500000  1
  Sb  Sb2  1  0.62500000  0.62500000  0.62500000  1
  Sb  Sb3  1  0.87500000  0.37500000  0.12500000  1
  O  O0  1  0.10630100  0.11502400  0.37992200  1
  O  O1  1  0.12007800  0.89369900  0.61502400  1
  O  O2  1  0.10902000  0.60902000  0.89098000  1
  O  O3  1  0.13497600  0.14369900  0.87007800  1
  O  O4  1  0.11502400  0.37992200  0.10630100  1
  O  O5  1  0.14098000  0.35902000  0.64098000  1
  O  O6  1  0.12992200  0.63497600  0.35630100  1
  O  O7  1  0.14369900  0.87007800  0.13497600  1
  O  O8  1  0.35630100  0.12992200  0.63497600  1
  O  O9  1  0.37007800  0.36502400  0.85630100  1
  O  O10  1  0.35902000  0.64098000  0.14098000  1
  O  O11  1  0.38497600  0.62007800  0.60630100  1
  O  O12  1  0.36502400  0.85630100  0.37007800  1
  O  O13  1  0.39098000  0.39098000  0.39098000  1
  O  O14  1  0.37992200  0.10630100  0.11502400  1
  O  O15  1  0.39369900  0.88497600  0.87992200  1
  O  O16  1  0.60630100  0.38497600  0.62007800  1
  O  O17  1  0.62007800  0.60630100  0.38497600  1
  O  O18  1  0.60902000  0.89098000  0.10902000  1
  O  O19  1  0.63497600  0.35630100  0.12992200  1
  O  O20  1  0.61502400  0.12007800  0.89369900  1
  O  O21  1  0.64098000  0.14098000  0.35902000  1
  O  O22  1  0.62992200  0.86502400  0.64369900  1
  O  O23  1  0.64369900  0.62992200  0.86502400  1
  O  O24  1  0.85630100  0.37007800  0.36502400  1
  O  O25  1  0.87007800  0.13497600  0.14369900  1
  O  O26  1  0.85902000  0.85902000  0.85902000  1
  O  O27  1  0.88497600  0.87992200  0.39369900  1
  O  O28  1  0.86502400  0.64369900  0.62992200  1
  O  O29  1  0.89098000  0.10902000  0.60902000  1
  O  O30  1  0.87992200  0.39369900  0.88497600  1
  O  O31  1  0.89369900  0.61502400  0.12007800  1
loop_
_geom_bond_atom_site_label_1
_geom_bond_atom_site_label_2
_geom_bond_distance
_geom_bond_site_symmetry_2
Li0 O7 1.981065 1_656
Li0 O25 1.981065 1_566
Li0 O3 1.981065 1_665
Li0 O26 2.022650 1_555
Li1 O14 1.981065 1_555
Li1 O4 1.981065 1_555
Li1 O0 1.981065 1_555
Li1 O13 2.022650 1_555
Li2 O1 1.981065 1_555
Li2 O15 1.981065 1_555
Li2 O11 1.981065 1_555
Li2 O2 2.022650 1_555
Li3 O12 1.981065 1_545
Li3 O22 1.981065 1_545
Li3 O8 1.981065 1_555
Li3 O21 2.022650 1_555
Li4 O23 1.981065 1_554
Li4 O9 1.981065 1_554
Li4 O19 1.981065 1_555
Li4 O10 2.022650 1_555
Li5 O20 1.981065 1_555
Li5 O30 1.981065 1_555
Li5 O16 1.981065 1_555
Li5 O29 2.022650 1_555
Li6 O17 1.981065 1_555
Li6 O27 1.981065 1_555
Li6 O31 1.981065 1_555
Li6 O18 2.022650 1_555
Li7 O28 1.981065 1_455
Li7 O24 1.981065 1_455
Li7 O6 1.981065 1_555
Li7 O5 2.022650 1_555
Ni0 O29 1.946834 1_455
Ni0 O5 1.946834 1_555
Ni0 O8 1.956277 1_555
Ni0 O1 1.956277 1_545
Ni0 O3 2.056201 1_555
Ni0 O0 2.056201 1_555
Ni1 O2 1.946834 1_555
Ni1 O5 1.946834 1_555
Ni1 O4 1.956277 1_556
Ni1 O3 1.956277 1_555
Ni1 O30 2.056201 1_455
Ni1 O9 2.056201 1_555
Ni2 O10 1.946834 1_555
Ni2 O2 1.946834 1_554
Ni2 O31 1.956277 1_455
Ni2 O6 1.956277 1_555
Ni2 O7 2.056201 1_555
Ni2 O4 2.056201 1_555
Ni3 O13 1.946834 1_555
Ni3 O5 1.946834 1_555
Ni3 O9 1.956277 1_555
Ni3 O16 1.956277 1_555
Ni3 O8 2.056201 1_555
Ni3 O11 2.056201 1_555
Ni4 O13 1.946834 1_555
Ni4 O10 1.946834 1_555
Ni4 O11 1.956277 1_555
Ni4 O12 1.956277 1_555
Ni4 O6 2.056201 1_555
Ni4 O17 2.056201 1_555
Ni5 O10 1.946834 1_555
Ni5 O18 1.946834 1_555
Ni5 O14 1.956277 1_565
Ni5 O7 1.956277 1_555
Ni5 O15 2.056201 1_554
Ni5 O12 2.056201 1_555
Ni6 O13 1.946834 1_555
Ni6 O21 1.946834 1_555
Ni6 O24 1.956277 1_555
Ni6 O17 1.956277 1_555
Ni6 O19 2.056201 1_555
Ni6 O16 2.056201 1_555
Ni7 O18 1.946834 1_545
Ni7 O21 1.946834 1_555
Ni7 O20 1.956277 1_554
Ni7 O19 1.956277 1_555
Ni7 O25 2.056201 1_555
Ni7 O14 2.056201 1_555
Ni8 O26 1.946834 1_555
Ni8 O18 1.946834 1_556
Ni8 O15 1.956277 1_555
Ni8 O22 1.956277 1_555
Ni8 O20 2.056201 1_565
Ni8 O23 2.056201 1_555
Ni9 O29 1.946834 1_555
Ni9 O21 1.946834 1_555
Ni9 O0 1.956277 1_655
Ni9 O25 1.956277 1_555
Ni9 O24 2.056201 1_555
Ni9 O27 2.056201 1_545
Ni10 O26 1.946834 1_555
Ni10 O29 1.946834 1_565
Ni10 O27 1.956277 1_555
Ni10 O28 1.956277 1_555
Ni10 O1 2.056201 1_655
Ni10 O22 2.056201 1_555
Ni11 O26 1.946834 1_555
Ni11 O2 1.946834 1_655
Ni11 O23 1.956277 1_555
Ni11 O30 1.956277 1_555
Ni11 O31 2.056201 1_556
Ni11 O28 2.056201 1_555
O0 Sb0 2.013322 1_545
O1 Sb0 2.013322 1_555
O3 Sb1 2.013322 1_555
O4 Sb3 2.013322 1_455
O6 Sb0 2.013322 1_555
O7 Sb0 2.013322 1_555
O8 Sb1 2.013322 1_555
O9 Sb1 2.013322 1_555
O11 Sb2 2.013322 1_555
O12 Sb0 2.013322 1_555
O14 Sb1 2.013322 1_554
O15 Sb1 2.013322 1_565
O16 Sb2 2.013322 1_555
O17 Sb2 2.013322 1_555
O19 Sb3 2.013322 1_555
O20 Sb1 2.013322 1_555
O22 Sb2 2.013322 1_555
O23 Sb2 2.013322 1_555
O24 Sb3 2.013322 1_555
O25 Sb3 2.013322 1_555
O27 Sb0 2.013322 1_655
O28 Sb2 2.013322 1_555
O30 Sb3 2.013322 1_556
O31 Sb3 2.013322 1_555
