# generated using pymatgen
data_LiV2P4(HO8)2
_symmetry_space_group_name_H-M   'P 1'
_cell_length_a   7.34455000
_cell_length_b   9.23554518
_cell_length_c   9.28556023
_cell_angle_alpha   116.39173089
_cell_angle_beta   97.59068935
_cell_angle_gamma   97.37639979
_symmetry_Int_Tables_number   1
_chemical_formula_structural   LiV2P4(HO8)2
_chemical_formula_sum   'Li2 V4 P8 H4 O32'
_cell_volume   546.70128882
_cell_formula_units_Z   2
loop_
 _symmetry_equiv_pos_site_id
 _symmetry_equiv_pos_as_xyz
  1  'x, y, z'
loop_
 _atom_site_type_symbol
 _atom_site_label
 _atom_site_symmetry_multiplicity
 _atom_site_fract_x
 _atom_site_fract_y
 _atom_site_fract_z
 _atom_site_occupancy
  Li  Li0  1  0.64913200  0.73136800  0.36302800  1
  Li  Li1  1  0.35096500  0.26307700  0.63347500  1
  V  V0  1  0.99619300  0.49908200  0.99964600  1
  V  V1  1  0.50235100  0.49985700  0.50067000  1
  V  V2  1  0.50365000  0.00021400  0.99964500  1
  V  V3  1  0.99788400  0.00052100  0.49984700  1
  P  P0  1  0.77092900  0.88596900  0.74079300  1
  P  P1  1  0.23152800  0.61152200  0.76423300  1
  P  P2  1  0.25870000  0.73429300  0.38582000  1
  P  P3  1  0.26548100  0.23817400  0.89358300  1
  P  P4  1  0.73388400  0.26179300  0.61406600  1
  P  P5  1  0.72949600  0.75801100  0.10685700  1
  P  P6  1  0.77465700  0.38832700  0.24120300  1
  P  P7  1  0.23549000  0.11298900  0.26127200  1
  H  H0  1  0.48676000  0.97949800  0.48719300  1
  H  H1  1  0.49214000  0.48427000  0.99149800  1
  H  H2  1  0.01127200  0.51195100  0.51996400  1
  H  H3  1  0.00871200  0.01012000  0.01622200  1
  O  O0  1  0.34947200  0.79088800  0.85172400  1
  O  O1  1  0.17368600  0.56732900  0.89739200  1
  O  O2  1  0.94798600  0.91012300  0.85614900  1
  O  O3  1  0.85997300  0.66234700  0.99593400  1
  O  O4  1  0.13522900  0.83722100  0.49702100  1
  O  O5  1  0.05387700  0.59890400  0.64966100  1
  O  O6  1  0.80789700  0.92014200  0.59633600  1
  O  O7  1  0.65005800  0.70492500  0.65220700  1
  O  O8  1  0.44359800  0.84978600  0.40232300  1
  O  O9  1  0.44573800  0.35197600  0.90298400  1
  O  O10  1  0.36679600  0.00264300  0.16548300  1
  O  O11  1  0.35649000  0.49238400  0.67035800  1
  O  O12  1  0.31513800  0.60525800  0.43212400  1
  O  O13  1  0.32167200  0.10489600  0.93756900  1
  O  O14  1  0.16157200  0.15775200  0.71174900  1
  O  O15  1  0.14756300  0.65342400  0.20596200  1
  O  O16  1  0.85162800  0.34655800  0.79458900  1
  O  O17  1  0.83807700  0.84172200  0.28834100  1
  O  O18  1  0.67819400  0.89353300  0.06227800  1
  O  O19  1  0.68726100  0.39463500  0.56831700  1
  O  O20  1  0.64254800  0.50451500  0.32906200  1
  O  O21  1  0.63345100  0.99489800  0.83421100  1
  O  O22  1  0.55505200  0.14639900  0.59559700  1
  O  O23  1  0.55352300  0.64372400  0.09546100  1
  O  O24  1  0.35195300  0.29424300  0.34859200  1
  O  O25  1  0.19197200  0.07814400  0.40325200  1
  O  O26  1  0.94860700  0.40454200  0.35537000  1
  O  O27  1  0.86541200  0.16333700  0.50594800  1
  O  O28  1  0.13956300  0.33658000  0.00518600  1
  O  O29  1  0.05296900  0.09283800  0.14929800  1
  O  O30  1  0.82683000  0.43271100  0.10410600  1
  O  O31  1  0.65252500  0.20806200  0.14762900  1
loop_
_geom_bond_atom_site_label_1
_geom_bond_atom_site_label_2
_geom_bond_distance
_geom_bond_site_symmetry_2
Li0 O8 1.955159 1_555
Li0 O20 1.968201 1_555
Li0 O17 1.991204 1_555
Li0 O6 2.131985 1_555
Li0 O23 2.219538 1_555
Li1 O22 1.936173 1_555
Li1 O11 1.983274 1_555
Li1 O14 1.989364 1_555
Li1 O25 2.105497 1_555
Li1 O9 2.233327 1_555
H0 O8 1.074172 1_555
H0 O22 1.389066 1_565
H1 O9 1.100368 1_555
H1 O23 1.324592 1_556
H2 O5 1.081344 1_555
H2 O26 1.371425 1_455
H3 O29 1.098675 1_555
H3 O2 1.326597 1_444
O0 P1 1.550391 1_555
O0 V2 1.890129 1_565
O1 P1 1.555242 1_555
O1 V0 1.909515 1_455
O2 P0 1.494408 1_555
O3 P5 1.558507 1_556
O3 V0 1.923584 1_555
O4 P2 1.545411 1_555
O4 V3 1.911871 1_465
O5 P1 1.527031 1_555
O6 P0 1.556649 1_555
O6 V3 1.989085 1_565
O7 P0 1.569601 1_555
O7 V1 1.855728 1_555
O8 P2 1.559848 1_555
O9 P3 1.547776 1_555
O10 P7 1.559767 1_555
O10 V2 1.940637 1_554
O11 P1 1.559113 1_555
O11 V1 2.039293 1_555
O12 P2 1.520568 1_555
O12 V1 1.976510 1_555
O13 P3 1.544373 1_555
O13 V2 1.917546 1_555
O14 P3 1.544031 1_555
O14 V3 1.952487 1_455
O15 P2 1.545211 1_555
O15 V0 1.881667 1_454
O16 P4 1.564326 1_555
O16 V0 1.853235 1_555
O17 P5 1.549812 1_555
O17 V3 1.942672 1_565
O18 P5 1.555748 1_555
O18 V2 1.894497 1_564
O19 P4 1.528299 1_555
O19 V1 1.959459 1_555
O20 P6 1.567378 1_555
O20 V1 2.020968 1_555
O21 P0 1.581286 1_555
O21 V2 1.898121 1_565
O22 P4 1.519505 1_555
O23 P5 1.519862 1_555
O24 P7 1.560046 1_555
O24 V1 1.866988 1_555
O25 P7 1.551094 1_555
O25 V3 1.999369 1_455
O26 P6 1.493451 1_555
O27 P4 1.561441 1_555
O27 V3 1.877612 1_555
O28 P3 1.544955 1_554
O28 V0 1.955486 1_454
O29 P7 1.519346 1_555
O30 P6 1.577306 1_555
O30 V0 1.874940 1_554
O31 P6 1.567135 1_555
O31 V2 1.867542 1_554
