# generated using pymatgen
data_BaTm2O4
_symmetry_space_group_name_H-M   'P 1'
_cell_length_a   6.01040774
_cell_length_b   6.01040774
_cell_length_c   21.79902628
_cell_angle_alpha   89.64348447
_cell_angle_beta   89.64348447
_cell_angle_gamma   61.14486593
_symmetry_Int_Tables_number   1
_chemical_formula_structural   BaTm2O4
_chemical_formula_sum   'Ba6 Tm12 O24'
_cell_volume   689.69922272
_cell_formula_units_Z   6
loop_
 _symmetry_equiv_pos_site_id
 _symmetry_equiv_pos_as_xyz
  1  'x, y, z'
loop_
 _atom_site_type_symbol
 _atom_site_label
 _atom_site_symmetry_multiplicity
 _atom_site_fract_x
 _atom_site_fract_y
 _atom_site_fract_z
 _atom_site_occupancy
  Ba  Ba0  1  0.44689900  0.22513900  0.64390800  1
  Ba  Ba1  1  0.22513900  0.44689900  0.14390800  1
  Ba  Ba2  1  0.11086900  0.88913100  0.75000000  1
  Ba  Ba3  1  0.88913100  0.11086900  0.25000000  1
  Ba  Ba4  1  0.55310100  0.77486100  0.35609200  1
  Ba  Ba5  1  0.77486100  0.55310100  0.85609200  1
  Tm  Tm0  1  0.44315400  0.21881100  0.80572800  1
  Tm  Tm1  1  0.21881100  0.44315400  0.30572800  1
  Tm  Tm2  1  0.45526200  0.21570900  0.94770100  1
  Tm  Tm3  1  0.21570900  0.45526200  0.44770100  1
  Tm  Tm4  1  0.11409600  0.87749300  0.92937600  1
  Tm  Tm5  1  0.87749300  0.11409600  0.42937600  1
  Tm  Tm6  1  0.12250700  0.88590400  0.57062400  1
  Tm  Tm7  1  0.88590400  0.12250700  0.07062400  1
  Tm  Tm8  1  0.78429100  0.54473800  0.55229900  1
  Tm  Tm9  1  0.54473800  0.78429100  0.05229900  1
  Tm  Tm10  1  0.78118900  0.55684600  0.69427200  1
  Tm  Tm11  1  0.55684600  0.78118900  0.19427200  1
  O  O0  1  0.20668100  0.09245300  0.00290600  1
  O  O1  1  0.09245300  0.20668100  0.50290600  1
  O  O2  1  0.34359100  0.99594300  0.87557700  1
  O  O3  1  0.99594300  0.34359100  0.37557700  1
  O  O4  1  0.33712600  0.10470500  0.25194000  1
  O  O5  1  0.10470500  0.33712600  0.75194000  1
  O  O6  1  0.23204500  0.52779900  0.88054400  1
  O  O7  1  0.52779900  0.23204500  0.38054400  1
  O  O8  1  0.77098800  0.11044900  0.87646600  1
  O  O9  1  0.11044900  0.77098800  0.37646600  1
  O  O10  1  0.54575100  0.45424900  0.75000000  1
  O  O11  1  0.50000000  0.50000000  0.50000000  1
  O  O12  1  0.50000000  0.50000000  0.00000000  1
  O  O13  1  0.45424900  0.54575100  0.25000000  1
  O  O14  1  0.88955100  0.22901200  0.62353400  1
  O  O15  1  0.22901200  0.88955100  0.12353400  1
  O  O16  1  0.47220100  0.76795500  0.61945600  1
  O  O17  1  0.76795500  0.47220100  0.11945600  1
  O  O18  1  0.66287400  0.89529500  0.74806000  1
  O  O19  1  0.89529500  0.66287400  0.24806000  1
  O  O20  1  0.00405700  0.65640900  0.62442300  1
  O  O21  1  0.65640900  0.00405700  0.12442300  1
  O  O22  1  0.79331900  0.90754700  0.99709400  1
  O  O23  1  0.90754700  0.79331900  0.49709400  1
loop_
_geom_bond_atom_site_label_1
_geom_bond_atom_site_label_2
_geom_bond_distance
_geom_bond_site_symmetry_2
Ba0 O14 2.705753 1_555
Ba0 O20 2.706488 1_555
Ba0 O16 2.733473 1_545
Ba0 O18 2.875219 1_545
Ba0 O10 2.905901 1_555
Ba0 O5 2.975304 1_555
Ba1 O15 2.705753 1_555
Ba1 O21 2.706488 1_555
Ba1 O17 2.733473 1_455
Ba1 O19 2.875219 1_455
Ba1 O13 2.905901 1_555
Ba1 O4 2.975304 1_555
Ba2 O10 2.658918 1_555
Ba2 O5 2.675546 1_565
Ba2 O18 2.675546 1_455
Ba2 O18 3.335816 1_555
Ba2 O5 3.335816 1_555
Ba3 O13 2.658918 1_555
Ba3 O19 2.675546 1_545
Ba3 O4 2.675546 1_655
Ba3 O19 3.335816 1_555
Ba3 O4 3.335816 1_555
Ba4 O9 2.705753 1_555
Ba4 O3 2.706488 1_555
Ba4 O7 2.733473 1_565
Ba4 O4 2.875219 1_565
Ba4 O13 2.905901 1_555
Ba4 O19 2.975304 1_555
Ba5 O8 2.705753 1_555
Ba5 O2 2.706488 1_555
Ba5 O6 2.733473 1_655
Ba5 O5 2.875219 1_655
Ba5 O10 2.905901 1_555
Ba5 O18 2.975304 1_555
O0 Tm9 2.255743 1_545
O0 Tm2 2.294367 1_554
O0 Tm4 2.297599 1_544
O0 Tm7 2.358113 1_455
O1 Tm8 2.255743 1_455
O1 Tm3 2.294367 1_555
O1 Tm5 2.297599 1_455
O1 Tm6 2.358113 1_545
O2 Tm4 2.168448 1_555
O2 Tm0 2.282069 1_565
O2 Tm2 2.358352 1_565
O3 Tm5 2.168448 1_555
O3 Tm1 2.282069 1_655
O3 Tm3 2.358352 1_655
O4 Tm11 2.153259 1_545
O4 Tm1 2.154444 1_555
O5 Tm10 2.153259 1_455
O5 Tm0 2.154444 1_555
O6 Tm4 2.152577 1_555
O6 Tm2 2.241198 1_555
O6 Tm0 2.335888 1_555
O7 Tm5 2.152577 1_555
O7 Tm3 2.241198 1_555
O7 Tm1 2.335888 1_555
O8 Tm4 2.183132 1_645
O8 Tm2 2.286797 1_555
O8 Tm0 2.339061 1_555
O9 Tm5 2.183132 1_465
O9 Tm3 2.286797 1_555
O9 Tm1 2.339061 1_555
O10 Tm0 2.161019 1_555
O10 Tm10 2.161019 1_555
O11 Tm8 2.182488 1_555
O11 Tm3 2.182488 1_555
O11 Tm5 2.796321 1_555
O11 Tm6 2.796321 1_555
O12 Tm2 2.182488 1_554
O12 Tm9 2.182488 1_555
O12 Tm7 2.796321 1_555
O12 Tm4 2.796321 1_554
O13 Tm1 2.161019 1_555
O13 Tm11 2.161019 1_555
O14 Tm6 2.183132 1_645
O14 Tm8 2.286797 1_555
O14 Tm10 2.339061 1_555
O15 Tm7 2.183132 1_465
O15 Tm9 2.286797 1_555
O15 Tm11 2.339061 1_555
O16 Tm6 2.152577 1_555
O16 Tm8 2.241198 1_555
O16 Tm10 2.335888 1_555
O17 Tm7 2.152577 1_555
O17 Tm9 2.241198 1_555
O17 Tm11 2.335888 1_555
O18 Tm0 2.153259 1_565
O18 Tm10 2.154444 1_555
O19 Tm1 2.153259 1_655
O19 Tm11 2.154444 1_555
O20 Tm6 2.168448 1_555
O20 Tm10 2.282069 1_455
O20 Tm8 2.358352 1_455
O21 Tm7 2.168448 1_555
O21 Tm11 2.282069 1_545
O21 Tm9 2.358352 1_545
O22 Tm2 2.255743 1_565
O22 Tm9 2.294367 1_556
O22 Tm7 2.297599 1_566
O22 Tm4 2.358113 1_655
O23 Tm3 2.255743 1_655
O23 Tm8 2.294367 1_555
O23 Tm6 2.297599 1_655
O23 Tm5 2.358113 1_565
