# generated using pymatgen
data_LiNiPO4
_symmetry_space_group_name_H-M   'P 1'
_cell_length_a   5.22010800
_cell_length_b   6.82531100
_cell_length_c   8.04719500
_cell_angle_alpha   90.00000000
_cell_angle_beta   90.00000000
_cell_angle_gamma   90.00000000
_symmetry_Int_Tables_number   1
_chemical_formula_structural   LiNiPO4
_chemical_formula_sum   'Li4 Ni4 P4 O16'
_cell_volume   286.71238850
_cell_formula_units_Z   4
loop_
 _symmetry_equiv_pos_site_id
 _symmetry_equiv_pos_as_xyz
  1  'x, y, z'
loop_
 _atom_site_type_symbol
 _atom_site_label
 _atom_site_symmetry_multiplicity
 _atom_site_fract_x
 _atom_site_fract_y
 _atom_site_fract_z
 _atom_site_occupancy
  Li  Li0  1  0.21821900  0.24872600  0.55418800  1
  Li  Li1  1  0.71821900  0.25127400  0.05418800  1
  Li  Li2  1  0.21821900  0.74872600  0.94581200  1
  Li  Li3  1  0.71821900  0.75127400  0.44581200  1
  Ni  Ni0  1  0.73891600  0.96411400  0.75552400  1
  Ni  Ni1  1  0.23891600  0.53588600  0.25552400  1
  Ni  Ni2  1  0.73891600  0.46411400  0.74447600  1
  Ni  Ni3  1  0.23891600  0.03588600  0.24447600  1
  P  P0  1  0.72304000  0.21694500  0.40854800  1
  P  P1  1  0.22304000  0.28305500  0.90854800  1
  P  P2  1  0.72304000  0.71694500  0.09145200  1
  P  P3  1  0.22304000  0.78305500  0.59145200  1
  O  O0  1  0.68565100  0.03081000  0.51345000  1
  O  O1  1  0.45066100  0.27580300  0.33617500  1
  O  O2  1  0.90086000  0.18469400  0.25550300  1
  O  O3  1  0.84365200  0.38065800  0.51563200  1
  O  O4  1  0.34365200  0.11934200  0.01563200  1
  O  O5  1  0.40086000  0.31530600  0.75550300  1
  O  O6  1  0.95066100  0.22419700  0.83617500  1
  O  O7  1  0.18565100  0.46919000  0.01345000  1
  O  O8  1  0.68565100  0.53081000  0.98655000  1
  O  O9  1  0.45066100  0.77580300  0.16382500  1
  O  O10  1  0.90086000  0.68469400  0.24449700  1
  O  O11  1  0.84365200  0.88065800  0.98436800  1
  O  O12  1  0.34365200  0.61934200  0.48436800  1
  O  O13  1  0.40086000  0.81530600  0.74449700  1
  O  O14  1  0.95066100  0.72419700  0.66382500  1
  O  O15  1  0.18565100  0.96919000  0.48655000  1
loop_
_geom_bond_atom_site_label_1
_geom_bond_atom_site_label_2
_geom_bond_distance
_geom_bond_site_symmetry_2
Li0 O5 1.933897 1_555
Li0 O15 1.991311 1_545
Li0 O1 2.141103 1_555
Li0 O3 2.174913 1_455
Li1 O2 1.933897 1_555
Li1 O8 1.991311 1_554
Li1 O6 2.141103 1_554
Li1 O4 2.174913 1_555
Li2 O13 1.933897 1_555
Li2 O7 1.991311 1_556
Li2 O9 2.141103 1_556
Li2 O11 2.174913 1_455
Li3 O10 1.933897 1_555
Li3 O0 1.991311 1_565
Li3 O14 2.141103 1_555
Li3 O12 2.174913 1_555
Ni0 O11 2.003669 1_555
Ni0 O0 2.019729 1_565
Ni0 O13 2.038030 1_555
Ni0 O14 2.108961 1_555
Ni0 O6 2.189549 1_565
Ni1 O12 2.003669 1_555
Ni1 O7 2.019729 1_555
Ni1 O10 2.038030 1_455
Ni1 O9 2.108961 1_555
Ni1 O1 2.189549 1_555
Ni2 O3 2.003669 1_555
Ni2 O8 2.019729 1_555
Ni2 O5 2.038030 1_555
Ni2 O6 2.108961 1_555
Ni2 O14 2.189549 1_555
Ni3 O4 2.003669 1_555
Ni3 O15 2.019729 1_545
Ni3 O2 2.038030 1_455
Ni3 O1 2.108961 1_555
Ni3 O9 2.189549 1_545
O0 P0 1.537759 1_555
O1 P0 1.588151 1_555
O2 P0 1.557845 1_555
O3 P0 1.545167 1_555
O4 P1 1.545167 1_554
O5 P1 1.557845 1_555
O6 P1 1.588151 1_655
O7 P1 1.537759 1_554
O8 P2 1.537759 1_556
O9 P2 1.588151 1_555
O10 P2 1.557845 1_555
O11 P2 1.545167 1_556
O12 P3 1.545167 1_555
O13 P3 1.557845 1_555
O14 P3 1.588151 1_655
O15 P3 1.537759 1_555
