# generated using pymatgen
data_LiVF4
_symmetry_space_group_name_H-M   'P 1'
_cell_length_a   5.49899476
_cell_length_b   5.49898480
_cell_length_c   5.49905607
_cell_angle_alpha   107.68960392
_cell_angle_beta   107.68924911
_cell_angle_gamma   113.09798592
_symmetry_Int_Tables_number   1
_chemical_formula_structural   LiVF4
_chemical_formula_sum   'Li2 V2 F8'
_cell_volume   127.61748610
_cell_formula_units_Z   2
loop_
 _symmetry_equiv_pos_site_id
 _symmetry_equiv_pos_as_xyz
  1  'x, y, z'
loop_
 _atom_site_type_symbol
 _atom_site_label
 _atom_site_symmetry_multiplicity
 _atom_site_fract_x
 _atom_site_fract_y
 _atom_site_fract_z
 _atom_site_occupancy
  Li  Li0  1  0.48625791  0.48637872  0.99990408  1
  Li  Li1  1  0.73633203  0.23620717  0.49990432  1
  V  V0  1  0.01241029  0.01239400  0.00001988  1
  V  V1  1  0.26234661  0.76236236  0.50002061  1
  F  F0  1  0.00957766  0.70977403  0.70022882  1
  F  F1  1  0.00958094  0.30937118  0.29982084  1
  F  F2  1  0.49107665  0.79104003  0.29997986  1
  F  F3  1  0.44114242  0.24111221  0.20004722  1
  F  F4  1  0.95973667  0.75957007  0.20020359  1
  F  F5  1  0.55938947  0.75957122  0.79984809  1
  F  F6  1  0.04105537  0.24109565  0.79997920  1
  F  F7  1  0.49109398  0.19112335  0.70004450  1
loop_
_geom_bond_atom_site_label_1
_geom_bond_atom_site_label_2
_geom_bond_distance
_geom_bond_site_symmetry_2
F0 V0 1.945277 1_566
F0 V1 2.008941 1_555
F0 Li1 2.105564 1_455
F1 V0 1.945372 1_555
F1 V1 2.008955 1_555
F1 Li1 2.104673 1_455
F2 V1 1.899367 1_555
F2 Li0 1.946512 1_554
F2 Li1 1.973100 1_565
F3 V0 1.899162 1_555
F3 Li1 1.946640 1_555
F3 Li0 1.974183 1_554
F4 V1 1.945467 1_655
F4 V0 2.009096 1_665
F4 Li0 2.105173 1_554
F5 V1 1.945555 1_555
F5 V0 2.009111 1_666
F5 Li0 2.104293 1_555
F6 V0 1.899243 1_556
F6 Li1 1.946501 1_455
F6 Li0 1.973268 1_555
F7 V1 1.899282 1_545
F7 Li0 1.946621 1_555
F7 Li1 1.974038 1_555
