# generated using pymatgen
data_TiFe3Sb2(PO4)6
_symmetry_space_group_name_H-M   'P 1'
_cell_length_a   8.90544656
_cell_length_b   8.90544656
_cell_length_c   8.90544704
_cell_angle_alpha   58.80269738
_cell_angle_beta   58.80269738
_cell_angle_gamma   58.80270075
_symmetry_Int_Tables_number   1
_chemical_formula_structural   TiFe3Sb2(PO4)6
_chemical_formula_sum   'Ti1 Fe3 Sb2 P6 O24'
_cell_volume   485.74930168
_cell_formula_units_Z   1
loop_
 _symmetry_equiv_pos_site_id
 _symmetry_equiv_pos_as_xyz
  1  'x, y, z'
loop_
 _atom_site_type_symbol
 _atom_site_label
 _atom_site_symmetry_multiplicity
 _atom_site_fract_x
 _atom_site_fract_y
 _atom_site_fract_z
 _atom_site_occupancy
  Ti  Ti0  1  0.14521100  0.14521100  0.14521100  1
  Fe  Fe0  1  0.84400700  0.84400700  0.84400700  1
  Fe  Fe1  1  0.64905000  0.64905000  0.64905000  1
  Fe  Fe2  1  0.35193500  0.35193500  0.35193500  1
  Sb  Sb0  1  0.98591500  0.98591500  0.98591500  1
  Sb  Sb1  1  0.49908600  0.49908600  0.49908600  1
  P  P0  1  0.04736500  0.75109700  0.45378800  1
  P  P1  1  0.75109700  0.45378800  0.04736500  1
  P  P2  1  0.45378800  0.04736500  0.75109700  1
  P  P3  1  0.53923100  0.96448300  0.24813500  1
  P  P4  1  0.24813500  0.53923100  0.96448300  1
  P  P5  1  0.96448300  0.24813500  0.53923100  1
  O  O0  1  0.47327200  0.89513700  0.70558500  1
  O  O1  1  0.89513700  0.70558500  0.47327200  1
  O  O2  1  0.73397000  0.94173200  0.07780000  1
  O  O3  1  0.70558500  0.47327200  0.89513700  1
  O  O4  1  0.38462700  0.01541100  0.18190500  1
  O  O5  1  0.55528000  0.77195700  0.40663800  1
  O  O6  1  0.07780000  0.73397000  0.94173200  1
  O  O7  1  0.40663800  0.55528000  0.77195700  1
  O  O8  1  0.01069400  0.79883600  0.61534600  1
  O  O9  1  0.77195700  0.40663800  0.55528000  1
  O  O10  1  0.08014100  0.91853500  0.26625300  1
  O  O11  1  0.79883600  0.61534600  0.01069400  1
  O  O12  1  0.18190500  0.38462700  0.01541100  1
  O  O13  1  0.94173200  0.07780000  0.73397000  1
  O  O14  1  0.23926400  0.58317000  0.43574500  1
  O  O15  1  0.01541100  0.18190500  0.38462700  1
  O  O16  1  0.58317000  0.43574500  0.23926400  1
  O  O17  1  0.91853500  0.26625300  0.08014100  1
  O  O18  1  0.43574500  0.23926400  0.58317000  1
  O  O19  1  0.61534600  0.01069400  0.79883600  1
  O  O20  1  0.30158000  0.51109600  0.11672400  1
  O  O21  1  0.26625300  0.08014100  0.91853500  1
  O  O22  1  0.11672400  0.30158000  0.51109600  1
  O  O23  1  0.51109600  0.11672400  0.30158000  1
loop_
_geom_bond_atom_site_label_1
_geom_bond_atom_site_label_2
_geom_bond_distance
_geom_bond_site_symmetry_2
Fe0 O11 1.900119 1_556
Fe0 O19 1.900119 1_565
Fe0 O8 1.900119 1_655
Fe0 O13 2.220928 1_565
Fe0 O6 2.220928 1_655
Fe0 O2 2.220928 1_556
Fe1 O1 2.068635 1_555
Fe1 O0 2.068635 1_555
Fe1 O3 2.068635 1_555
Fe1 O7 2.242435 1_555
Fe1 O9 2.242435 1_555
Fe1 O5 2.242435 1_555
Fe2 O22 1.958716 1_555
Fe2 O23 1.958716 1_555
Fe2 O20 1.958716 1_555
Fe2 O16 2.116652 1_555
Fe2 O14 2.116652 1_555
Fe2 O18 2.116653 1_555
O0 P2 1.511577 1_565
O1 P0 1.511577 1_655
O2 P3 1.605837 1_555
O2 Sb0 2.130150 1_554
O3 P1 1.511577 1_556
O4 P3 1.538325 1_545
O4 Ti0 1.940638 1_555
O5 P3 1.549334 1_555
O5 Sb1 2.365105 1_555
O6 P4 1.605837 1_555
O6 Sb0 2.130150 1_455
O7 P4 1.549334 1_555
O7 Sb1 2.365105 1_555
O8 P0 1.536379 1_555
O9 P5 1.549334 1_555
O9 Sb1 2.365105 1_555
O10 P0 1.569651 1_555
O10 Ti0 1.970577 1_565
O10 Sb0 2.719114 1_454
O11 P1 1.536379 1_555
O12 P4 1.538325 1_554
O12 Ti0 1.940638 1_555
O13 P5 1.605837 1_555
O13 Sb0 2.130150 1_545
O14 P0 1.581009 1_555
O14 Sb1 2.313510 1_555
O15 P5 1.538325 1_455
O15 Ti0 1.940638 1_555
O16 P1 1.581009 1_555
O16 Sb1 2.313510 1_555
O17 P1 1.569651 1_555
O17 Ti0 1.970577 1_655
O17 Sb0 2.719114 1_544
O18 P2 1.581009 1_555
O18 Sb1 2.313510 1_555
O19 P2 1.536379 1_555
O20 P4 1.523309 1_554
O21 P2 1.569651 1_555
O21 Ti0 1.970577 1_556
O21 Sb0 2.719114 1_445
O22 P5 1.523309 1_455
O23 P3 1.523309 1_545
