# generated using pymatgen
data_MnOF2
_symmetry_space_group_name_H-M   'P 1'
_cell_length_a   5.11590600
_cell_length_b   6.77137500
_cell_length_c   7.91534163
_cell_angle_alpha   70.49868942
_cell_angle_beta   90.00000000
_cell_angle_gamma   90.00000000
_symmetry_Int_Tables_number   1
_chemical_formula_structural   MnOF2
_chemical_formula_sum   'Mn4 O4 F8'
_cell_volume   258.47117655
_cell_formula_units_Z   4
loop_
 _symmetry_equiv_pos_site_id
 _symmetry_equiv_pos_as_xyz
  1  'x, y, z'
loop_
 _atom_site_type_symbol
 _atom_site_label
 _atom_site_symmetry_multiplicity
 _atom_site_fract_x
 _atom_site_fract_y
 _atom_site_fract_z
 _atom_site_occupancy
  Mn  Mn0  1  0.93346000  0.34959500  0.32557000  1
  Mn  Mn1  1  0.56654000  0.84959500  0.32557000  1
  Mn  Mn2  1  0.43346000  0.15040500  0.67443000  1
  Mn  Mn3  1  0.06654000  0.65040500  0.67443000  1
  O  O0  1  0.41273200  0.97410100  0.06169700  1
  O  O1  1  0.08726800  0.47410100  0.06169700  1
  O  O2  1  0.91273200  0.52589900  0.93830300  1
  O  O3  1  0.58726800  0.02589900  0.93830300  1
  F  F0  1  0.78751200  0.10659800  0.26020800  1
  F  F1  1  0.71248800  0.60659800  0.26020800  1
  F  F2  1  0.29184100  0.24456300  0.41883900  1
  F  F3  1  0.20815900  0.74456300  0.41883900  1
  F  F4  1  0.79184100  0.25543700  0.58116100  1
  F  F5  1  0.70815900  0.75543700  0.58116100  1
  F  F6  1  0.28751200  0.39340200  0.73979200  1
  F  F7  1  0.21248800  0.89340200  0.73979200  1
loop_
_geom_bond_atom_site_label_1
_geom_bond_atom_site_label_2
_geom_bond_distance
_geom_bond_site_symmetry_2
Mn0 O1 2.125255 1_655
Mn1 O0 2.125255 1_555
Mn2 O3 2.125255 1_555
Mn3 O2 2.125255 1_455
O0 O3 1.282787 1_564
O1 O2 1.282787 1_454
F0 Mn1 1.993245 1_545
F0 Mn0 2.025078 1_555
F1 Mn0 1.993245 1_555
F1 Mn1 2.025078 1_555
F2 Mn0 2.015391 1_455
F2 Mn2 2.040372 1_555
F3 Mn1 2.015391 1_555
F3 Mn3 2.040372 1_555
F4 Mn2 2.015391 1_555
F4 Mn0 2.040372 1_555
F5 Mn3 2.015391 1_655
F5 Mn1 2.040372 1_555
F6 Mn3 1.993245 1_555
F6 Mn2 2.025078 1_555
F7 Mn2 1.993245 1_565
F7 Mn3 2.025078 1_555
