# generated using pymatgen
data_Sr3Nb4O13
_symmetry_space_group_name_H-M   'P 1'
_cell_length_a   18.57485103
_cell_length_b   18.57485103
_cell_length_c   18.57485103
_cell_angle_alpha   167.67129814
_cell_angle_beta   167.67129814
_cell_angle_gamma   17.46938872
_symmetry_Int_Tables_number   1
_chemical_formula_structural   Sr3Nb4O13
_chemical_formula_sum   'Sr3 Nb4 O13'
_cell_volume   292.16136617
_cell_formula_units_Z   1
loop_
 _symmetry_equiv_pos_site_id
 _symmetry_equiv_pos_as_xyz
  1  'x, y, z'
loop_
 _atom_site_type_symbol
 _atom_site_label
 _atom_site_symmetry_multiplicity
 _atom_site_fract_x
 _atom_site_fract_y
 _atom_site_fract_z
 _atom_site_occupancy
  Sr  Sr0  1  0.36981400  0.36981400  0.00000000  1
  Sr  Sr1  1  0.50000000  0.50000000  0.00000000  1
  Sr  Sr2  1  0.63018600  0.63018600  0.00000000  1
  Nb  Nb0  1  0.05852800  0.05852800  0.00000000  1
  Nb  Nb1  1  0.18820900  0.18820900  0.00000000  1
  Nb  Nb2  1  0.81179100  0.81179100  0.00000000  1
  Nb  Nb3  1  0.94147200  0.94147200  0.00000000  1
  O  O0  1  0.00000000  0.00000000  0.00000000  1
  O  O1  1  0.10976300  0.10976300  0.00000000  1
  O  O2  1  0.55292300  0.05292300  0.50000000  1
  O  O3  1  0.23524300  0.23524300  0.00000000  1
  O  O4  1  0.67170000  0.17170000  0.50000000  1
  O  O5  1  0.94707700  0.44707700  0.50000000  1
  O  O6  1  0.82830000  0.32830000  0.50000000  1
  O  O7  1  0.76475700  0.76475700  0.00000000  1
  O  O8  1  0.89023700  0.89023700  0.00000000  1
  O  O9  1  0.17170000  0.67170000  0.50000000  1
  O  O10  1  0.32830000  0.82830000  0.50000000  1
  O  O11  1  0.44707700  0.94707700  0.50000000  1
  O  O12  1  0.05292300  0.55292300  0.50000000  1
loop_
_geom_bond_atom_site_label_1
_geom_bond_atom_site_label_2
_geom_bond_distance
_geom_bond_site_symmetry_2
Nb0 O1 1.881290 1_555
Nb0 O2 2.005172 1_454
Nb0 O12 2.005172 1_544
Nb0 O12 2.005172 1_555
Nb0 O2 2.005172 1_555
Nb0 O0 2.149081 1_555
Nb1 O3 1.727034 1_555
Nb1 O9 2.084664 1_555
Nb1 O4 2.084664 1_555
Nb1 O9 2.084664 1_544
Nb1 O4 2.084664 1_454
Nb2 O7 1.727034 1_555
Nb2 O6 2.084664 1_565
Nb2 O10 2.084664 1_655
Nb2 O6 2.084664 1_554
Nb2 O10 2.084664 1_554
Nb3 O8 1.881290 1_555
Nb3 O11 2.005172 1_554
Nb3 O5 2.005172 1_554
Nb3 O11 2.005172 1_655
Nb3 O5 2.005172 1_565
Nb3 O0 2.149081 1_665
O0 Sr1 2.820765 1_545
O0 Sr1 2.820765 1_455
O0 Sr1 2.820765 1_556
O0 Sr1 2.820765 1_444
O1 Sr2 2.918746 1_444
O1 Sr2 2.918746 1_545
O1 Sr2 2.918746 1_455
O1 Sr2 2.918746 1_556
O2 Sr1 2.784719 1_556
O2 Sr1 2.784719 1_545
O4 Sr2 2.510376 1_545
O4 Sr2 2.510376 1_556
O5 Sr1 2.784719 1_656
O5 Sr1 2.784719 1_555
O6 Sr0 2.510376 1_656
O6 Sr0 2.510376 1_555
O8 Sr0 2.918746 1_554
O8 Sr0 2.918746 1_655
O8 Sr0 2.918746 1_565
O8 Sr0 2.918746 1_666
O9 Sr2 2.510376 1_455
O9 Sr2 2.510376 1_556
O10 Sr0 2.510376 1_566
O10 Sr0 2.510376 1_555
O11 Sr1 2.784719 1_566
O11 Sr1 2.784719 1_555
O12 Sr1 2.784719 1_556
O12 Sr1 2.784719 1_455
