# generated using pymatgen
data_Li5Mn4(Si3O10)2
_symmetry_space_group_name_H-M   'P 1'
_cell_length_a   5.44901977
_cell_length_b   5.46121495
_cell_length_c   16.35978525
_cell_angle_alpha   84.68764204
_cell_angle_beta   95.34267194
_cell_angle_gamma   118.75531519
_symmetry_Int_Tables_number   1
_chemical_formula_structural   Li5Mn4(Si3O10)2
_chemical_formula_sum   'Li5 Mn4 Si6 O20'
_cell_volume   424.31131666
_cell_formula_units_Z   1
loop_
 _symmetry_equiv_pos_site_id
 _symmetry_equiv_pos_as_xyz
  1  'x, y, z'
loop_
 _atom_site_type_symbol
 _atom_site_label
 _atom_site_symmetry_multiplicity
 _atom_site_fract_x
 _atom_site_fract_y
 _atom_site_fract_z
 _atom_site_occupancy
  Li  Li0  1  0.40640100  0.79580800  0.77184800  1
  Li  Li1  1  0.33302400  0.84050100  0.44383900  1
  Li  Li2  1  0.66673100  0.16044200  0.55686700  1
  Li  Li3  1  0.58820400  0.19524800  0.23588500  1
  Li  Li4  1  0.85388900  0.35860000  0.04948200  1
  Mn  Mn0  1  0.99317200  0.79971900  0.58201400  1
  Mn  Mn1  1  0.19789400  0.01164600  0.07933400  1
  Mn  Mn2  1  0.79768300  0.97970900  0.91728100  1
  Mn  Mn3  1  0.00670600  0.20593700  0.41687000  1
  Si  Si0  1  0.11672200  0.12038400  0.75125200  1
  Si  Si1  1  0.33173600  0.47075800  0.59888100  1
  Si  Si2  1  0.47505800  0.32129100  0.90350500  1
  Si  Si3  1  0.51710100  0.66736100  0.09553400  1
  Si  Si4  1  0.67098000  0.53197400  0.40250100  1
  Si  Si5  1  0.88243100  0.87796900  0.24837500  1
  O  O0  1  0.08536200  0.87697300  0.69451800  1
  O  O1  1  0.15557500  0.95609600  0.19720400  1
  O  O2  1  0.22735300  0.42209500  0.69500400  1
  O  O3  1  0.49090600  0.62901900  0.88930400  1
  O  O4  1  0.07147300  0.21000500  0.54677700  1
  O  O5  1  0.20917100  0.12119400  0.96302200  1
  O  O6  1  0.35639900  0.77403000  0.56582400  1
  O  O7  1  0.21827100  0.65362100  0.06861700  1
  O  O8  1  0.37838500  0.54395900  0.40373800  1
  O  O9  1  0.37929200  0.16024200  0.81621100  1
  O  O10  1  0.61030200  0.81743000  0.18475200  1
  O  O11  1  0.62623000  0.46255600  0.59579100  1
  O  O12  1  0.76072700  0.31725800  0.93680700  1
  O  O13  1  0.64132500  0.22630200  0.43443400  1
  O  O14  1  0.77833400  0.89607300  0.03815100  1
  O  O15  1  0.93239800  0.79041000  0.45502400  1
  O  O16  1  0.53364000  0.37054600  0.10379500  1
  O  O17  1  0.78298700  0.58227400  0.30691600  1
  O  O18  1  0.84504900  0.05457000  0.80113500  1
  O  O19  1  0.90928300  0.12466800  0.30275800  1
loop_
_geom_bond_atom_site_label_1
_geom_bond_atom_site_label_2
_geom_bond_distance
_geom_bond_site_symmetry_2
Li0 O18 2.145204 1_565
Li0 O3 2.156099 1_555
Li0 O2 2.242444 1_555
Li0 O9 2.253878 1_565
Li0 O0 2.255497 1_555
Li1 O8 1.930355 1_555
Li1 O13 1.966635 1_565
Li1 O6 1.998404 1_555
Li1 O15 2.089123 1_455
Li2 O11 1.935835 1_555
Li2 O6 1.972243 1_545
Li2 O13 2.005821 1_555
Li2 O4 2.109425 1_655
Li3 O1 2.139273 1_545
Li3 O19 2.149596 1_555
Li3 O17 2.238531 1_555
Li3 O16 2.333624 1_555
Li3 O10 2.355649 1_545
Li4 O12 1.870589 1_554
Li4 O7 1.880404 1_655
Li4 O16 2.061061 1_555
Li4 O14 2.378289 1_545
Mn0 O0 1.893578 1_655
Mn0 O11 1.975841 1_555
Mn0 O15 2.074516 1_555
Mn0 O6 2.092572 1_655
Mn0 O4 2.102790 1_665
Mn1 O5 1.938582 1_554
Mn1 O1 1.941863 1_545
Mn1 O16 1.976789 1_555
Mn1 O7 2.035206 1_545
Mn1 O14 2.117199 1_445
Mn2 O3 1.900357 1_555
Mn2 O18 1.920986 1_565
Mn2 O14 1.988750 1_556
Mn2 O12 2.004745 1_565
Mn2 O5 2.076580 1_665
Mn3 O19 1.925122 1_455
Mn3 O8 1.991515 1_555
Mn3 O13 2.093894 1_455
Mn3 O4 2.122088 1_555
Mn3 O15 2.145676 1_445
O0 Si0 1.624235 1_565
O1 Si5 1.628801 1_455
O2 Si0 1.670923 1_555
O2 Si1 1.676546 1_555
O3 Si2 1.636322 1_555
O4 Si1 1.679962 1_555
O5 Si2 1.668440 1_555
O6 Si1 1.639257 1_555
O7 Si3 1.614321 1_555
O8 Si4 1.628902 1_555
O9 Si0 1.638239 1_555
O9 Si2 1.654566 1_555
O10 Si5 1.641983 1_555
O10 Si3 1.656199 1_555
O11 Si1 1.632274 1_555
O12 Si2 1.610340 1_555
O13 Si4 1.637201 1_555
O14 Si3 1.669949 1_555
O15 Si4 1.679796 1_555
O16 Si3 1.658810 1_555
O17 Si5 1.669416 1_555
O17 Si4 1.682307 1_555
O18 Si0 1.626449 1_655
O19 Si5 1.623628 1_545
