# generated using pymatgen
data_K3VPCO7
_symmetry_space_group_name_H-M   'P 1'
_cell_length_a   5.69644773
_cell_length_b   9.67365409
_cell_length_c   13.99066900
_cell_angle_alpha   89.99900283
_cell_angle_beta   90.00185964
_cell_angle_gamma   89.95474988
_symmetry_Int_Tables_number   1
_chemical_formula_structural   K3VPCO7
_chemical_formula_sum   'K12 V4 P4 C4 O28'
_cell_volume   770.96207810
_cell_formula_units_Z   4
loop_
 _symmetry_equiv_pos_site_id
 _symmetry_equiv_pos_as_xyz
  1  'x, y, z'
loop_
 _atom_site_type_symbol
 _atom_site_label
 _atom_site_symmetry_multiplicity
 _atom_site_fract_x
 _atom_site_fract_y
 _atom_site_fract_z
 _atom_site_occupancy
  K  K0  1  0.75776600  0.07174800  0.12498900  1
  K  K1  1  0.75775300  0.07174200  0.62496800  1
  K  K2  1  0.24223500  0.92825100  0.37501400  1
  K  K3  1  0.24223300  0.92826400  0.87501900  1
  K  K4  1  0.25701100  0.28727800  0.00484500  1
  K  K5  1  0.25695300  0.28730200  0.50482500  1
  K  K6  1  0.25698800  0.28725900  0.24516300  1
  K  K7  1  0.25697500  0.28727800  0.74516300  1
  K  K8  1  0.74304100  0.71274100  0.25483700  1
  K  K9  1  0.74301600  0.71273500  0.75483200  1
  K  K10  1  0.74299300  0.71271000  0.49515600  1
  K  K11  1  0.74304700  0.71270000  0.99517500  1
  V  V0  1  0.76221000  0.34808300  0.87502100  1
  V  V1  1  0.23778400  0.65192400  0.62497800  1
  V  V2  1  0.76219700  0.34812000  0.37497500  1
  V  V3  1  0.23782500  0.65186200  0.12502600  1
  P  P0  1  0.73241200  0.41694700  0.12504800  1
  P  P1  1  0.73238600  0.41693500  0.62500600  1
  P  P2  1  0.26760100  0.58304700  0.37495200  1
  P  P3  1  0.26760300  0.58307100  0.87499400  1
  C  C0  1  0.74285900  0.07868100  0.37500300  1
  C  C1  1  0.74286900  0.07868300  0.87499900  1
  C  C2  1  0.25714500  0.92131000  0.12500000  1
  C  C3  1  0.25711600  0.92132700  0.62500100  1
  O  O0  1  0.26351900  0.05420700  0.12500800  1
  O  O1  1  0.26351000  0.05422500  0.62499800  1
  O  O2  1  0.73647500  0.94578600  0.37499500  1
  O  O3  1  0.73648000  0.94578300  0.87500400  1
  O  O4  1  0.94212000  0.14669600  0.37501000  1
  O  O5  1  0.94213600  0.14669800  0.87499900  1
  O  O6  1  0.05789000  0.85329100  0.12499400  1
  O  O7  1  0.05784800  0.85331200  0.62500100  1
  O  O8  1  0.55027600  0.15377000  0.37500700  1
  O  O9  1  0.55029600  0.15377700  0.87500100  1
  O  O10  1  0.44973300  0.84622600  0.12499600  1
  O  O11  1  0.44968700  0.84623100  0.62499700  1
  O  O12  1  0.47975400  0.47931200  0.12511700  1
  O  O13  1  0.47976400  0.47931800  0.62509100  1
  O  O14  1  0.52025800  0.52068100  0.37488600  1
  O  O15  1  0.52022400  0.52068700  0.87490400  1
  O  O16  1  0.08318200  0.46534500  0.37494200  1
  O  O17  1  0.08318300  0.46537600  0.87498000  1
  O  O18  1  0.91682700  0.53465000  0.12505800  1
  O  O19  1  0.91680600  0.53463000  0.62502200  1
  O  O20  1  0.76315000  0.32352600  0.03462900  1
  O  O21  1  0.76307500  0.32355000  0.53460900  1
  O  O22  1  0.76333700  0.32337600  0.21535500  1
  O  O23  1  0.76329900  0.32337300  0.71532700  1
  O  O24  1  0.23669100  0.67661800  0.28464300  1
  O  O25  1  0.23668000  0.67663100  0.78467400  1
  O  O26  1  0.23686300  0.67647100  0.46537100  1
  O  O27  1  0.23692200  0.67645500  0.96539200  1
loop_
_geom_bond_atom_site_label_1
_geom_bond_atom_site_label_2
_geom_bond_distance
_geom_bond_site_symmetry_2
K0 O6 2.717187 1_645
K0 O22 2.743134 1_555
K0 O20 2.744332 1_555
K0 O10 2.800798 1_545
K0 O0 2.820695 1_555
K0 O0 2.885855 1_655
K1 O7 2.716880 1_645
K1 O23 2.743113 1_555
K1 O21 2.744579 1_555
K1 O11 2.800833 1_545
K1 O1 2.820658 1_555
K1 O1 2.885864 1_655
K2 O4 2.717065 1_465
K2 O24 2.743207 1_555
K2 O26 2.744329 1_555
K2 O8 2.800804 1_565
K2 O2 2.820651 1_555
K2 O2 2.885891 1_455
K3 O5 2.716918 1_465
K3 O25 2.743040 1_555
K3 O27 2.744677 1_555
K3 O9 2.800838 1_565
K3 O3 2.820682 1_555
K3 O3 2.885842 1_455
K4 O17 2.692014 1_554
K4 O9 2.784946 1_554
K4 O12 2.809987 1_555
K4 O0 2.812623 1_555
K4 O20 2.865224 1_455
K4 O5 2.893185 1_454
K4 O20 2.934438 1_555
K5 O16 2.691725 1_555
K5 O8 2.784978 1_555
K5 O13 2.809997 1_555
K5 O1 2.812756 1_555
K5 O21 2.865319 1_455
K5 O4 2.892882 1_455
K5 O21 2.934343 1_555
K6 O16 2.691166 1_555
K6 O8 2.784803 1_555
K6 O12 2.808287 1_555
K6 O0 2.812458 1_555
K6 O22 2.863917 1_455
K6 O4 2.893135 1_455
K6 O22 2.935534 1_555
K7 O17 2.691569 1_555
K7 O9 2.784915 1_555
K7 O13 2.808480 1_555
K7 O1 2.812550 1_555
K7 O23 2.864088 1_455
K7 O5 2.893013 1_455
K7 O23 2.935424 1_555
K8 O18 2.691155 1_555
K8 O10 2.784826 1_555
K8 O14 2.808400 1_555
K8 O2 2.812432 1_555
K8 O24 2.863914 1_655
K8 O6 2.892973 1_655
K8 O24 2.935543 1_555
K9 O19 2.691543 1_555
K9 O11 2.784892 1_555
K9 O15 2.808539 1_555
K9 O3 2.812570 1_555
K9 O25 2.864043 1_655
K9 O7 2.892931 1_655
K9 O25 2.935514 1_555
K10 O19 2.691881 1_555
K10 O11 2.785080 1_555
K10 O14 2.809918 1_555
K10 O2 2.812645 1_555
K10 O26 2.865266 1_655
K10 O7 2.893205 1_655
K10 O26 2.934379 1_555
K11 O18 2.691787 1_556
K11 O10 2.784948 1_556
K11 O15 2.810051 1_555
K11 O3 2.812787 1_555
K11 O27 2.865297 1_655
K11 O6 2.892885 1_656
K11 O27 2.934354 1_555
C0 O2 1.286123 1_545
C0 O4 1.312436 1_555
C0 O8 1.315246 1_555
C1 O3 1.286172 1_545
C1 O5 1.312466 1_555
C1 O9 1.315225 1_555
C2 O0 1.286141 1_565
C2 O6 1.312426 1_555
C2 O10 1.315243 1_555
C3 O1 1.286154 1_565
C3 O7 1.312471 1_555
C3 O11 1.315226 1_555
O4 V2 2.200906 1_555
O5 V0 2.200580 1_555
O6 V3 2.200980 1_555
O7 V1 2.200632 1_555
O8 V2 2.235082 1_555
O9 V0 2.234702 1_555
O10 V3 2.235156 1_555
O11 V1 2.234676 1_555
O12 P0 1.560143 1_555
O12 V3 2.163751 1_555
O13 P1 1.560021 1_555
O13 V1 2.164354 1_555
O14 P2 1.560142 1_555
O14 V2 2.163869 1_555
O15 P3 1.560020 1_555
O15 V0 2.164361 1_555
O16 P2 1.549819 1_555
O16 V2 2.152333 1_455
O17 P3 1.549773 1_555
O17 V0 2.152622 1_455
O18 P0 1.549811 1_555
O18 V3 2.152329 1_655
O19 P1 1.549773 1_555
O19 V1 2.152651 1_655
O20 P0 1.564436 1_555
O20 V0 2.245625 1_554
O21 P1 1.563955 1_555
O21 V2 2.245999 1_555
O22 P0 1.564093 1_555
O22 V2 2.245995 1_555
O23 P1 1.564193 1_555
O23 V0 2.246989 1_555
O24 P2 1.564106 1_555
O24 V3 2.245966 1_555
O25 P3 1.564177 1_555
O25 V1 2.247014 1_555
O26 P2 1.564452 1_555
O26 V1 2.245600 1_555
O27 P3 1.563955 1_555
O27 V3 2.246023 1_556
