# generated using pymatgen
data_Li2V3CrO8
_symmetry_space_group_name_H-M   'P 1'
_cell_length_a   6.42832356
_cell_length_b   6.42832356
_cell_length_c   6.49447562
_cell_angle_alpha   73.62816269
_cell_angle_beta   73.62816269
_cell_angle_gamma   36.55047158
_symmetry_Int_Tables_number   1
_chemical_formula_structural   Li2V3CrO8
_chemical_formula_sum   'Li2 V3 Cr1 O8'
_cell_volume   152.62076764
_cell_formula_units_Z   1
loop_
 _symmetry_equiv_pos_site_id
 _symmetry_equiv_pos_as_xyz
  1  'x, y, z'
loop_
 _atom_site_type_symbol
 _atom_site_label
 _atom_site_symmetry_multiplicity
 _atom_site_fract_x
 _atom_site_fract_y
 _atom_site_fract_z
 _atom_site_occupancy
  Li  Li0  1  0.94249400  0.94249400  0.35084900  1
  Li  Li1  1  0.05583800  0.05583800  0.64690200  1
  V  V0  1  0.61067300  0.61067300  0.28035000  1
  V  V1  1  0.39088500  0.39088500  0.71866400  1
  V  V2  1  0.71126100  0.71126100  0.69018200  1
  Cr  Cr0  1  0.28813000  0.28813000  0.30979800  1
  O  O0  1  0.88143400  0.88143400  0.67867600  1
  O  O1  1  0.76738300  0.76738300  0.34582500  1
  O  O2  1  0.64909900  0.64909900  0.00747100  1
  O  O3  1  0.55925300  0.55925300  0.64012900  1
  O  O4  1  0.44054600  0.44054600  0.36596400  1
  O  O5  1  0.35039000  0.35039000  0.99384100  1
  O  O6  1  0.23207000  0.23207000  0.64971200  1
  O  O7  1  0.12054400  0.12054400  0.32164200  1
loop_
_geom_bond_atom_site_label_1
_geom_bond_atom_site_label_2
_geom_bond_distance
_geom_bond_site_symmetry_2
Li0 O4 2.017992 1_655
Li0 O4 2.017992 1_565
Li0 O0 2.036262 1_555
Li0 O7 2.125092 1_665
Li0 O1 2.147697 1_555
Li1 O3 2.016448 1_545
Li1 O3 2.016448 1_455
Li1 O7 2.023747 1_555
Li1 O0 2.077267 1_445
Li1 O6 2.156958 1_555
Cr0 O5 1.965292 1_554
Cr0 O4 1.999573 1_555
Cr0 O7 2.024418 1_555
Cr0 O1 2.036466 1_455
Cr0 O1 2.036466 1_545
Cr0 O6 2.108261 1_555
O0 V1 2.040104 1_655
O0 V1 2.040104 1_565
O0 V2 2.056558 1_555
O1 V0 2.079400 1_555
O1 V2 2.135721 1_555
O2 V0 1.693285 1_555
O2 V2 1.973244 1_554
O3 V1 1.965370 1_555
O3 V2 1.976759 1_555
O3 V0 2.232230 1_555
O4 V0 1.984247 1_555
O4 V1 2.188597 1_555
O5 V1 1.706960 1_555
O6 V2 2.038984 1_455
O6 V2 2.038984 1_545
O6 V1 2.115440 1_555
O7 V0 2.041838 1_545
O7 V0 2.041838 1_455
