# generated using pymatgen
data_TiNi3(PO4)4
_symmetry_space_group_name_H-M   'P 1'
_cell_length_a   5.88879800
_cell_length_b   4.87401100
_cell_length_c   9.95859938
_cell_angle_alpha   88.85301239
_cell_angle_beta   90.00000000
_cell_angle_gamma   90.00000000
_symmetry_Int_Tables_number   1
_chemical_formula_structural   TiNi3(PO4)4
_chemical_formula_sum   'Ti1 Ni3 P4 O16'
_cell_volume   285.77510742
_cell_formula_units_Z   1
loop_
 _symmetry_equiv_pos_site_id
 _symmetry_equiv_pos_as_xyz
  1  'x, y, z'
loop_
 _atom_site_type_symbol
 _atom_site_label
 _atom_site_symmetry_multiplicity
 _atom_site_fract_x
 _atom_site_fract_y
 _atom_site_fract_z
 _atom_site_occupancy
  Ti  Ti0  1  0.50000000  0.96832400  0.72780200  1
  Ni  Ni0  1  0.00000000  0.05114200  0.28082400  1
  Ni  Ni1  1  0.00000000  0.46222400  0.77021000  1
  Ni  Ni2  1  0.50000000  0.54960200  0.22323300  1
  P  P0  1  0.50000000  0.08894200  0.40169400  1
  P  P1  1  0.50000000  0.38942800  0.90572700  1
  P  P2  1  0.00000000  0.59717600  0.09884000  1
  P  P3  1  0.00000000  0.92567200  0.59475000  1
  O  O0  1  0.50000000  0.14490400  0.55628500  1
  O  O1  1  0.29391300  0.23842000  0.33459100  1
  O  O2  1  0.70608700  0.23842000  0.33459100  1
  O  O3  1  0.00000000  0.23374100  0.60781800  1
  O  O4  1  0.00000000  0.28242800  0.11791900  1
  O  O5  1  0.30014100  0.24282000  0.82856500  1
  O  O6  1  0.69985900  0.24282000  0.82856500  1
  O  O7  1  0.50000000  0.33469000  0.05369500  1
  O  O8  1  0.00000000  0.65114500  0.94743200  1
  O  O9  1  0.79472700  0.73852100  0.16845400  1
  O  O10  1  0.20527300  0.73852100  0.16845400  1
  O  O11  1  0.50000000  0.69942000  0.86921200  1
  O  O12  1  0.50000000  0.77954000  0.38556500  1
  O  O13  1  0.79324200  0.78645300  0.67338900  1
  O  O14  1  0.20675800  0.78645300  0.67338900  1
  O  O15  1  0.00000000  0.82919500  0.44899300  1
loop_
_geom_bond_atom_site_label_1
_geom_bond_atom_site_label_2
_geom_bond_distance
_geom_bond_site_symmetry_2
Ni0 O4 1.956896 1_555
Ni0 O15 1.975453 1_545
Ni0 O2 2.033497 1_455
Ni0 O1 2.033497 1_555
Ni0 O10 2.259087 1_545
Ni0 O9 2.259087 1_445
Ni1 O3 1.981816 1_555
Ni1 O8 2.006926 1_555
Ni1 O5 2.140176 1_555
Ni1 O6 2.140176 1_455
Ni1 O13 2.201922 1_455
Ni1 O14 2.201922 1_555
Ni2 O12 1.985432 1_555
Ni2 O7 2.004641 1_555
Ni2 O9 2.034111 1_555
Ni2 O10 2.034111 1_555
Ni2 O2 2.221645 1_555
Ni2 O1 2.221645 1_555
O0 P0 1.568853 1_555
O0 Ti0 1.897201 1_545
O1 P0 1.559071 1_555
O2 P0 1.559071 1_555
O3 P3 1.509754 1_545
O4 P2 1.542027 1_555
O5 P1 1.583740 1_555
O5 Ti0 2.058107 1_545
O6 P1 1.583740 1_555
O6 Ti0 2.058107 1_545
O7 P1 1.492247 1_554
O8 P2 1.525389 1_556
O9 P2 1.560628 1_655
O10 P2 1.560628 1_555
O11 P1 1.546955 1_555
O11 Ti0 1.904480 1_555
O12 P0 1.519752 1_565
O13 P3 1.592138 1_655
O13 Ti0 2.020056 1_555
O14 P3 1.592138 1_555
O14 Ti0 2.020056 1_555
O15 P3 1.534730 1_555
