# generated using pymatgen
data_Te3WO12
_symmetry_space_group_name_H-M   'P 1'
_cell_length_a   8.53986800
_cell_length_b   4.98630800
_cell_length_c   5.23885412
_cell_angle_alpha   88.70983057
_cell_angle_beta   90.00000000
_cell_angle_gamma   90.00000000
_symmetry_Int_Tables_number   1
_chemical_formula_structural   Te3WO12
_chemical_formula_sum   'Te3 W1 O12'
_cell_volume   223.02649066
_cell_formula_units_Z   1
loop_
 _symmetry_equiv_pos_site_id
 _symmetry_equiv_pos_as_xyz
  1  'x, y, z'
loop_
 _atom_site_type_symbol
 _atom_site_label
 _atom_site_symmetry_multiplicity
 _atom_site_fract_x
 _atom_site_fract_y
 _atom_site_fract_z
 _atom_site_occupancy
  Te  Te0  1  0.57964600  0.50000000  0.00000000  1
  Te  Te1  1  0.08769700  0.00000000  0.50000000  1
  Te  Te2  1  0.39784500  0.50000000  0.50000000  1
  W  W0  1  0.89856900  0.00000000  0.00000000  1
  O  O0  1  0.74272900  0.25578200  0.89424300  1
  O  O1  1  0.41972800  0.28568300  0.81682500  1
  O  O2  1  0.06322300  0.20359900  0.80937900  1
  O  O3  1  0.56361300  0.70768200  0.68113800  1
  O  O4  1  0.92730300  0.79091900  0.69053400  1
  O  O5  1  0.24528300  0.74928300  0.63714500  1
  O  O6  1  0.24528300  0.25071700  0.36285500  1
  O  O7  1  0.92730300  0.20908100  0.30946600  1
  O  O8  1  0.56361300  0.29231800  0.31886200  1
  O  O9  1  0.06322300  0.79640100  0.19062100  1
  O  O10  1  0.41972800  0.71431700  0.18317500  1
  O  O11  1  0.74272900  0.74421800  0.10575700  1
loop_
_geom_bond_atom_site_label_1
_geom_bond_atom_site_label_2
_geom_bond_distance
_geom_bond_site_symmetry_2
O0 W0 1.916502 1_556
O0 Te0 1.939043 1_556
O1 Te2 1.962651 1_555
O1 Te0 1.993529 1_556
O2 Te1 1.943036 1_555
O2 W0 1.989836 1_456
O3 Te0 1.950313 1_556
O3 Te2 2.005292 1_555
O4 W0 1.962566 1_566
O4 Te1 1.978028 1_665
O5 Te2 1.949084 1_555
O5 Te1 1.962073 1_565
O6 Te2 1.949084 1_555
O6 Te1 1.962073 1_555
O7 W0 1.962566 1_555
O7 Te1 1.978028 1_655
O8 Te0 1.950313 1_555
O8 Te2 2.005292 1_555
O9 Te1 1.943036 1_565
O9 W0 1.989836 1_465
O10 Te2 1.962651 1_555
O10 Te0 1.993529 1_555
O11 W0 1.916502 1_565
O11 Te0 1.939043 1_555
