# generated using pymatgen
data_Li2V2OF5
_symmetry_space_group_name_H-M   'P 1'
_cell_length_a   5.32681039
_cell_length_b   5.62702649
_cell_length_c   5.20170446
_cell_angle_alpha   117.73801936
_cell_angle_beta   58.94943493
_cell_angle_gamma   117.90165738
_symmetry_Int_Tables_number   1
_chemical_formula_structural   Li2V2OF5
_chemical_formula_sum   'Li2 V2 O1 F5'
_cell_volume   112.75998603
_cell_formula_units_Z   1
loop_
 _symmetry_equiv_pos_site_id
 _symmetry_equiv_pos_as_xyz
  1  'x, y, z'
loop_
 _atom_site_type_symbol
 _atom_site_label
 _atom_site_symmetry_multiplicity
 _atom_site_fract_x
 _atom_site_fract_y
 _atom_site_fract_z
 _atom_site_occupancy
  Li  Li0  1  0.34492700  0.11261800  0.36909900  1
  Li  Li1  1  0.89195200  0.58180600  0.85081800  1
  V  V0  1  0.14665700  0.44638300  0.16981300  1
  V  V1  1  0.66472300  0.97013500  0.64145000  1
  O  O0  1  0.04249100  0.24775200  0.42870600  1
  F  F0  1  0.55703800  0.71231500  0.23633600  1
  F  F1  1  0.26060700  0.72864200  0.93857700  1
  F  F2  1  0.75236300  0.24080700  0.06242600  1
  F  F3  1  0.39887700  0.22208700  0.75667500  1
  F  F4  1  0.94036400  0.73745600  0.54609900  1
loop_
_geom_bond_atom_site_label_1
_geom_bond_atom_site_label_2
_geom_bond_distance
_geom_bond_site_symmetry_2
Li0 O0 1.918720 1_555
Li1 O0 2.179442 1_655
O0 V0 1.849472 1_555
O0 V1 2.020951 1_445
F0 Li1 1.976916 1_554
F0 V0 2.091521 1_555
F0 V1 2.120544 1_555
F1 Li1 1.950003 1_455
F1 V0 2.112043 1_556
F1 V1 2.157404 1_555
F1 Li0 2.347449 1_566
F2 Li0 1.951869 1_555
F2 V0 2.096770 1_655
F2 V1 2.148811 1_544
F2 Li1 2.287515 1_554
F3 Li0 1.950003 1_555
F3 V0 2.024860 1_556
F3 V1 2.141736 1_545
F4 Li1 2.001310 1_555
F4 V0 2.050068 1_655
F4 V1 2.135316 1_555
F4 Li0 2.335167 1_665
