# generated using pymatgen
data_Li(NiS)2
_symmetry_space_group_name_H-M   'P 1'
_cell_length_a   5.99795800
_cell_length_b   6.94232800
_cell_length_c   7.48384027
_cell_angle_alpha   62.40102395
_cell_angle_beta   90.00000000
_cell_angle_gamma   90.00000000
_symmetry_Int_Tables_number   1
_chemical_formula_structural   Li(NiS)2
_chemical_formula_sum   'Li4 Ni8 S8'
_cell_volume   276.16625846
_cell_formula_units_Z   4
loop_
 _symmetry_equiv_pos_site_id
 _symmetry_equiv_pos_as_xyz
  1  'x, y, z'
loop_
 _atom_site_type_symbol
 _atom_site_label
 _atom_site_symmetry_multiplicity
 _atom_site_fract_x
 _atom_site_fract_y
 _atom_site_fract_z
 _atom_site_occupancy
  Li  Li0  1  0.50539500  0.74082200  0.00058700  1
  Li  Li1  1  0.99460500  0.74082200  0.50058700  1
  Li  Li2  1  0.00539500  0.25917800  0.49941300  1
  Li  Li3  1  0.49460500  0.25917800  0.99941300  1
  Ni  Ni0  1  0.35831700  0.93309400  0.63851800  1
  Ni  Ni1  1  0.14168300  0.93309400  0.13851800  1
  Ni  Ni2  1  0.85647900  0.56729300  0.86311100  1
  Ni  Ni3  1  0.64352100  0.56729300  0.36311100  1
  Ni  Ni4  1  0.35647900  0.43270700  0.63688900  1
  Ni  Ni5  1  0.14352100  0.43270700  0.13688900  1
  Ni  Ni6  1  0.85831700  0.06690600  0.86148200  1
  Ni  Ni7  1  0.64168300  0.06690600  0.36148200  1
  S  S0  1  0.72883300  0.90487800  0.68741000  1
  S  S1  1  0.77116700  0.90487800  0.18741000  1
  S  S2  1  0.22714800  0.59714100  0.80976100  1
  S  S3  1  0.27285200  0.59714100  0.30976100  1
  S  S4  1  0.72714800  0.40285900  0.69023900  1
  S  S5  1  0.77285200  0.40285900  0.19023900  1
  S  S6  1  0.22883300  0.09512200  0.81259000  1
  S  S7  1  0.27116700  0.09512200  0.31259000  1
loop_
_geom_bond_atom_site_label_1
_geom_bond_atom_site_label_2
_geom_bond_distance
_geom_bond_site_symmetry_2
Li0 S0 2.472472 1_554
Li0 S3 2.481052 1_555
Li0 Ni3 2.543624 1_555
Li0 Ni0 2.559485 1_554
Li0 S5 2.647128 1_555
Li0 S2 2.672011 1_554
Li0 S1 2.696029 1_555
Li0 S6 2.752203 1_564
Li0 Ni2 2.844747 1_554
Li0 Ni5 2.881906 1_555
Li0 Ni6 2.916462 1_564
Li0 Ni1 2.980441 1_555
Li1 S1 2.472472 1_555
Li1 S2 2.481052 1_655
Li1 Ni2 2.543624 1_555
Li1 Ni1 2.559485 1_655
Li1 S4 2.647128 1_555
Li1 S3 2.672011 1_655
Li1 S0 2.696029 1_555
Li1 S7 2.752203 1_665
Li1 Ni3 2.844747 1_555
Li1 Ni4 2.881906 1_655
Li1 Ni7 2.916462 1_565
Li1 Ni0 2.980441 1_655
Li2 S6 2.472472 1_555
Li2 S5 2.481052 1_455
Li2 Ni5 2.543624 1_555
Li2 Ni6 2.559485 1_455
Li2 S3 2.647128 1_555
Li2 S4 2.672011 1_455
Li2 S7 2.696029 1_555
Li2 S0 2.752203 1_445
Li2 Ni4 2.844747 1_555
Li2 Ni3 2.881906 1_455
Li2 Ni0 2.916462 1_545
Li2 Ni7 2.980441 1_455
Li3 S7 2.472472 1_556
Li3 S4 2.481052 1_555
Li3 Ni4 2.543624 1_555
Li3 Ni7 2.559485 1_556
Li3 S2 2.647128 1_555
Li3 S5 2.672011 1_556
Li3 S6 2.696029 1_555
Li3 S1 2.752203 1_546
Li3 Ni5 2.844747 1_556
Li3 Ni2 2.881906 1_555
Li3 Ni1 2.916462 1_546
Li3 Ni6 2.980441 1_555
Ni0 S6 2.218855 1_565
Ni0 S2 2.220698 1_555
Ni0 S7 2.223952 1_565
Ni0 S0 2.246027 1_555
Ni1 S7 2.218855 1_565
Ni1 S3 2.220698 1_555
Ni1 S6 2.223952 1_564
Ni1 S1 2.246027 1_455
Ni2 S4 2.224206 1_555
Ni2 S0 2.225399 1_555
Ni2 S5 2.226840 1_556
Ni2 S2 2.251347 1_655
Ni2 Ni5 2.502273 1_656
Ni3 S5 2.224206 1_555
Ni3 S1 2.225399 1_555
Ni3 S4 2.226840 1_555
Ni3 S3 2.251347 1_555
Ni3 Ni4 2.502273 1_555
Ni4 S2 2.224206 1_555
Ni4 S6 2.225399 1_555
Ni4 S3 2.226840 1_555
Ni4 S4 2.251347 1_555
Ni5 S3 2.224206 1_555
Ni5 S7 2.225399 1_555
Ni5 S2 2.226840 1_554
Ni5 S5 2.251347 1_455
Ni6 S0 2.218855 1_545
Ni6 S4 2.220698 1_555
Ni6 S1 2.223952 1_546
Ni6 S6 2.246027 1_655
Ni7 S1 2.218855 1_545
Ni7 S5 2.220698 1_555
Ni7 S0 2.223952 1_545
Ni7 S7 2.246027 1_555
