# generated using pymatgen
data_Fe4O7F
_symmetry_space_group_name_H-M   'P 1'
_cell_length_a   7.19630577
_cell_length_b   7.19630577
_cell_length_c   5.51908117
_cell_angle_alpha   71.83725514
_cell_angle_beta   71.83725514
_cell_angle_gamma   80.10399085
_symmetry_Int_Tables_number   1
_chemical_formula_structural   Fe4O7F
_chemical_formula_sum   'Fe8 O14 F2'
_cell_volume   257.15901781
_cell_formula_units_Z   2
loop_
 _symmetry_equiv_pos_site_id
 _symmetry_equiv_pos_as_xyz
  1  'x, y, z'
loop_
 _atom_site_type_symbol
 _atom_site_label
 _atom_site_symmetry_multiplicity
 _atom_site_fract_x
 _atom_site_fract_y
 _atom_site_fract_z
 _atom_site_occupancy
  Fe  Fe0  1  0.75928100  0.00127500  0.49627700  1
  Fe  Fe1  1  0.00208300  0.24173900  0.98580300  1
  Fe  Fe2  1  0.74260500  0.50368400  0.52025900  1
  Fe  Fe3  1  0.24173900  0.00208300  0.48580300  1
  Fe  Fe4  1  0.50017900  0.25001200  0.99981500  1
  Fe  Fe5  1  0.00127500  0.75928100  0.99627700  1
  Fe  Fe6  1  0.25001200  0.50017900  0.49981500  1
  Fe  Fe7  1  0.50368400  0.74260500  0.02025900  1
  O  O0  1  0.82554200  0.76803800  0.34662400  1
  O  O1  1  0.76803800  0.82554200  0.84662400  1
  O  O2  1  0.73501000  0.17274400  0.14854000  1
  O  O3  1  0.98016500  0.42513800  0.65277600  1
  O  O4  1  0.67096600  0.22956900  0.65912300  1
  O  O5  1  0.42513800  0.98016500  0.15277600  1
  O  O6  1  0.08594600  0.02228700  0.82883900  1
  O  O7  1  0.57091200  0.51833000  0.86487200  1
  O  O8  1  0.32953100  0.26522900  0.34460100  1
  O  O9  1  0.02228700  0.08594600  0.32883900  1
  O  O10  1  0.51833000  0.57091200  0.36487200  1
  O  O11  1  0.26522900  0.32953100  0.84460100  1
  O  O12  1  0.22956900  0.67096600  0.15912300  1
  O  O13  1  0.17274400  0.73501000  0.64854000  1
  F  F0  1  0.47757200  0.92216400  0.65247100  1
  F  F1  1  0.92216400  0.47757200  0.15247100  1
loop_
_geom_bond_atom_site_label_1
_geom_bond_atom_site_label_2
_geom_bond_distance
_geom_bond_site_symmetry_2
Fe0 O9 1.939689 1_655
Fe0 O1 1.966251 1_545
Fe0 O2 1.973553 1_555
Fe0 O0 2.017518 1_545
Fe0 O4 2.028856 1_555
Fe1 O9 1.911739 1_556
Fe1 O2 1.928955 1_456
Fe1 O3 1.934388 1_455
Fe1 O11 1.943379 1_555
Fe1 O6 1.951431 1_555
Fe2 O7 1.941720 1_555
Fe2 O0 1.946978 1_555
Fe2 O4 1.976124 1_555
Fe2 O10 1.977428 1_555
Fe2 O3 1.991633 1_555
Fe3 O6 1.911739 1_555
Fe3 O13 1.928955 1_545
Fe3 O5 1.934388 1_545
Fe3 O8 1.943379 1_555
Fe3 O9 1.951431 1_555
Fe4 O4 1.933209 1_555
Fe4 O7 1.935740 1_555
Fe4 O8 1.941115 1_556
Fe4 O5 1.956906 1_546
Fe4 O2 2.023860 1_556
Fe4 O11 2.045678 1_555
Fe5 O6 1.939689 1_565
Fe5 O0 1.966251 1_456
Fe5 O13 1.973553 1_555
Fe5 O1 2.017518 1_455
Fe5 O12 2.028856 1_556
Fe6 O12 1.933209 1_555
Fe6 O10 1.935740 1_555
Fe6 O11 1.941115 1_555
Fe6 O3 1.956906 1_455
Fe6 O13 2.023860 1_555
Fe6 O8 2.045678 1_555
Fe7 O10 1.941720 1_555
Fe7 O1 1.946978 1_554
Fe7 O12 1.976124 1_555
Fe7 O7 1.977428 1_554
Fe7 O5 1.991633 1_555
F0 Fe0 2.044080 1_565
F0 Fe7 2.084328 1_556
F0 Fe3 2.089277 1_565
F1 Fe5 2.044080 1_654
F1 Fe2 2.084328 1_555
F1 Fe1 2.089277 1_654
