# generated using pymatgen
data_Li5V3Cu(PO4)4
_symmetry_space_group_name_H-M   'P 1'
_cell_length_a   7.65290046
_cell_length_b   7.65290046
_cell_length_c   10.41523274
_cell_angle_alpha   90.06211455
_cell_angle_beta   90.06211455
_cell_angle_gamma   103.37855639
_symmetry_Int_Tables_number   1
_chemical_formula_structural   Li5V3Cu(PO4)4
_chemical_formula_sum   'Li10 V6 Cu2 P8 O32'
_cell_volume   593.43332036
_cell_formula_units_Z   2
loop_
 _symmetry_equiv_pos_site_id
 _symmetry_equiv_pos_as_xyz
  1  'x, y, z'
loop_
 _atom_site_type_symbol
 _atom_site_label
 _atom_site_symmetry_multiplicity
 _atom_site_fract_x
 _atom_site_fract_y
 _atom_site_fract_z
 _atom_site_occupancy
  Li  Li0  1  0.02890375  0.29637476  0.86492157  1
  Li  Li1  1  0.25545573  0.51726659  0.49287881  1
  Li  Li2  1  0.51726659  0.25545573  0.49287881  1
  Li  Li3  1  0.75085420  0.50205026  0.99579291  1
  Li  Li4  1  0.50205026  0.75085420  0.99579291  1
  Li  Li5  1  0.29637476  0.02890375  0.86492157  1
  Li  Li6  1  0.16565621  0.16565621  0.07606543  1
  Li  Li7  1  0.73538492  0.99275141  0.47302613  1
  Li  Li8  1  0.99275141  0.73538492  0.47302613  1
  Li  Li9  1  0.89665681  0.89665681  0.68051984  1
  V  V0  1  0.37104059  0.37104059  0.22694968  1
  V  V1  1  0.86425690  0.35909098  0.26656075  1
  V  V2  1  0.35909098  0.86425690  0.26656075  1
  V  V3  1  0.85459779  0.85459779  0.21732916  1
  V  V4  1  0.13886374  0.64100989  0.77380838  1
  V  V5  1  0.64100989  0.13886374  0.77380838  1
  Cu  Cu0  1  0.21257737  0.21257737  0.65782076  1
  Cu  Cu1  1  0.62165947  0.62165947  0.71583049  1
  P  P0  1  0.08322275  0.56814656  0.08702738  1
  P  P1  1  0.42314231  0.42314231  0.91387413  1
  P  P2  1  0.57936826  0.57936826  0.40461070  1
  P  P3  1  0.07174585  0.07174585  0.39917337  1
  P  P4  1  0.42690693  0.91589655  0.59013051  1
  P  P5  1  0.91589655  0.42690693  0.59013051  1
  P  P6  1  0.56814656  0.08322275  0.08702738  1
  P  P7  1  0.91312952  0.91312952  0.91647799  1
  O  O0  1  0.26075022  0.26075022  0.91390639  1
  O  O1  1  0.07451870  0.38641310  0.67319799  1
  O  O2  1  0.11501880  0.39486195  0.15563370  1
  O  O3  1  0.02282404  0.51770221  0.94786622  1
  O  O4  1  0.48369021  0.48369021  0.05130799  1
  O  O5  1  0.37809770  0.58638638  0.84606374  1
  O  O6  1  0.07230745  0.87339747  0.83772597  1
  O  O7  1  0.58638638  0.37809770  0.84606374  1
  O  O8  1  0.24418078  0.72447051  0.09709594  1
  O  O9  1  0.61706726  0.41111851  0.33461492  1
  O  O10  1  0.41111851  0.61706726  0.33461492  1
  O  O11  1  0.10622026  0.90248316  0.32906235  1
  O  O12  1  0.26973387  0.75297965  0.59531410  1
  O  O13  1  0.75297965  0.26973387  0.59531410  1
  O  O14  1  0.51603992  0.51603992  0.53870213  1
  O  O15  1  0.00846945  0.00846945  0.53453795  1
  O  O16  1  0.98474611  0.47100707  0.45232944  1
  O  O17  1  0.47100707  0.98474611  0.45232944  1
  O  O18  1  0.23202808  0.23202808  0.39694815  1
  O  O19  1  0.73985929  0.73985929  0.39880627  1
  O  O20  1  0.75370653  0.75370653  0.91830379  1
  O  O21  1  0.60570074  0.89310250  0.65075222  1
  O  O22  1  0.38641310  0.07451870  0.67319799  1
  O  O23  1  0.89310250  0.60570074  0.65075222  1
  O  O24  1  0.60340471  0.91415473  0.15760625  1
  O  O25  1  0.39486195  0.11501880  0.15563370  1
  O  O26  1  0.91415473  0.60340471  0.15760625  1
  O  O27  1  0.51770221  0.02282404  0.94786622  1
  O  O28  1  0.97641449  0.97641449  0.05138026  1
  O  O29  1  0.87339747  0.07230745  0.83772597  1
  O  O30  1  0.72447051  0.24418078  0.09709594  1
  O  O31  1  0.90248316  0.10622026  0.32906235  1
loop_
_geom_bond_atom_site_label_1
_geom_bond_atom_site_label_2
_geom_bond_distance
_geom_bond_site_symmetry_2
Li0 O29 1.868361 1_455
Li0 O3 1.910707 1_555
Li0 O0 1.924824 1_555
Li0 O1 2.115947 1_555
Li1 O14 2.052172 1_555
Li1 O16 2.062538 1_455
Li1 O10 2.074964 1_555
Li1 O12 2.075707 1_555
Li1 O18 2.368387 1_555
Li1 O1 2.411504 1_555
Li2 O14 2.052172 1_555
Li2 O17 2.062538 1_545
Li2 O9 2.074964 1_555
Li2 O13 2.075707 1_555
Li2 O18 2.368387 1_555
Li2 O22 2.411504 1_555
Li3 O20 2.084438 1_555
Li3 O7 2.087101 1_555
Li3 O4 2.098609 1_556
Li3 O3 2.117210 1_655
Li3 O26 2.132552 1_556
Li3 O30 2.206598 1_556
Li4 O20 2.084438 1_555
Li4 O5 2.087101 1_555
Li4 O4 2.098609 1_556
Li4 O27 2.117210 1_565
Li4 O24 2.132552 1_556
Li4 O8 2.206598 1_556
Li5 O6 1.868361 1_545
Li5 O27 1.910707 1_555
Li5 O0 1.924824 1_555
Li5 O22 2.115947 1_555
Li6 O28 1.813481 1_445
Li6 O0 1.916229 1_554
Li6 O2 2.055698 1_555
Li6 O25 2.055698 1_555
Li7 O17 2.021251 1_555
Li7 O31 2.032413 1_565
Li7 O19 2.090890 1_555
Li7 O21 2.156329 1_555
Li7 O15 2.161746 1_665
Li7 O13 2.448517 1_565
Li8 O16 2.021251 1_555
Li8 O11 2.032413 1_655
Li8 O19 2.090890 1_555
Li8 O23 2.156329 1_555
Li8 O15 2.161746 1_665
Li8 O12 2.448517 1_655
Li9 O15 1.855516 1_665
Li9 O6 2.150842 1_655
Li9 O29 2.150842 1_565
Li9 O21 2.241724 1_555
Li9 O23 2.241724 1_555
Cu0 O1 1.887361 1_555
Cu0 O22 1.887361 1_555
Cu0 O15 2.321788 1_555
Cu1 O14 2.097923 1_555
Cu1 O23 2.215830 1_555
Cu1 O21 2.215830 1_555
Cu1 O5 2.271667 1_555
Cu1 O7 2.271667 1_555
Cu1 O20 2.451049 1_555
O0 P1 1.540852 1_555
O1 P5 1.578145 1_455
O1 V4 2.165010 1_555
O2 P0 1.574618 1_555
O2 V0 2.141558 1_555
O2 V1 2.203380 1_455
O3 P0 1.542138 1_556
O3 V4 2.141248 1_555
O4 P1 1.541462 1_554
O4 V0 2.120340 1_555
O5 P1 1.542415 1_555
O5 V4 2.108296 1_555
O6 P7 1.556342 1_455
O6 V4 2.069499 1_555
O7 P1 1.542415 1_555
O7 V5 2.108296 1_555
O8 P0 1.508981 1_555
O8 V2 2.142480 1_555
O9 P2 1.562994 1_555
O9 V1 2.142518 1_555
O9 V0 2.150338 1_555
O10 P2 1.562994 1_555
O10 V2 2.142518 1_555
O10 V0 2.150338 1_555
O11 P3 1.561180 1_565
O11 V2 2.125705 1_555
O11 V3 2.205517 1_455
O12 P4 1.520026 1_555
O12 V4 2.191753 1_555
O13 P5 1.520026 1_555
O13 V5 2.191753 1_555
O14 P2 1.521340 1_555
O15 P3 1.533337 1_555
O16 P5 1.540068 1_555
O16 V1 2.225854 1_555
O17 P4 1.540068 1_555
O17 V2 2.225854 1_555
O18 P3 1.521049 1_555
O18 V0 2.209728 1_555
O19 P2 1.524118 1_555
O19 V3 2.182894 1_555
O20 P7 1.512832 1_555
O21 P4 1.552458 1_555
O21 V5 2.238718 1_565
O22 P4 1.578145 1_545
O22 V5 2.165010 1_555
O23 P5 1.552458 1_555
O23 V4 2.238718 1_655
O24 P6 1.565388 1_565
O24 V2 2.145811 1_555
O24 V3 2.166471 1_555
O25 P6 1.574618 1_555
O25 V0 2.141558 1_555
O25 V2 2.203380 1_545
O26 P0 1.565388 1_655
O26 V1 2.145811 1_555
O26 V3 2.166471 1_555
O27 P6 1.542138 1_556
O27 V5 2.141248 1_555
O28 P7 1.527009 1_554
O28 V3 2.080946 1_555
O29 P7 1.556342 1_545
O29 V5 2.069499 1_555
O30 P6 1.508981 1_555
O30 V1 2.142480 1_555
O31 P3 1.561180 1_655
O31 V1 2.125705 1_555
O31 V3 2.205517 1_545
