# generated using pymatgen
data_Li8Mn7Fe(BO3)8
_symmetry_space_group_name_H-M   'P 1'
_cell_length_a   5.24830900
_cell_length_b   9.06044522
_cell_length_c   11.35103976
_cell_angle_alpha   108.14850234
_cell_angle_beta   89.70975029
_cell_angle_gamma   91.22069175
_symmetry_Int_Tables_number   1
_chemical_formula_structural   Li8Mn7Fe(BO3)8
_chemical_formula_sum   'Li8 Mn7 Fe1 B8 O24'
_cell_volume   512.79571654
_cell_formula_units_Z   1
loop_
 _symmetry_equiv_pos_site_id
 _symmetry_equiv_pos_as_xyz
  1  'x, y, z'
loop_
 _atom_site_type_symbol
 _atom_site_label
 _atom_site_symmetry_multiplicity
 _atom_site_fract_x
 _atom_site_fract_y
 _atom_site_fract_z
 _atom_site_occupancy
  Li  Li0  1  0.85025100  0.38213000  0.16351300  1
  Li  Li1  1  0.15045900  0.11774000  0.33546000  1
  Li  Li2  1  0.34975400  0.88260700  0.16413300  1
  Li  Li3  1  0.64998600  0.61747200  0.33561500  1
  Li  Li4  1  0.34888900  0.38164100  0.66462800  1
  Li  Li5  1  0.64926000  0.11747700  0.83577300  1
  Li  Li6  1  0.84969800  0.88260000  0.66426100  1
  Li  Li7  1  0.15119500  0.61680500  0.83627700  1
  Mn  Mn0  1  0.33232000  0.19757500  0.11504000  1
  Mn  Mn1  1  0.83295400  0.69737000  0.11740200  1
  Mn  Mn2  1  0.66673300  0.30243700  0.38230000  1
  Mn  Mn3  1  0.83439600  0.19700300  0.61679900  1
  Mn  Mn4  1  0.16703400  0.80262100  0.38269500  1
  Mn  Mn5  1  0.33312900  0.69772400  0.61732500  1
  Mn  Mn6  1  0.66705400  0.80336900  0.88284800  1
  Fe  Fe0  1  0.16414600  0.30398800  0.88185700  1
  B  B0  1  0.83062900  0.03516000  0.13128600  1
  B  B1  1  0.33022400  0.53480800  0.13022400  1
  B  B2  1  0.16927600  0.46500100  0.36876000  1
  B  B3  1  0.33054200  0.03568600  0.63189500  1
  B  B4  1  0.66926800  0.96496500  0.36868700  1
  B  B5  1  0.83088700  0.53509400  0.63170600  1
  B  B6  1  0.67139500  0.46343700  0.87047900  1
  B  B7  1  0.16870800  0.96622400  0.86817800  1
  O  O0  1  0.08968100  0.02549900  0.14860000  1
  O  O1  1  0.71330800  0.17870400  0.16240300  1
  O  O2  1  0.18047300  0.39883800  0.08472400  1
  O  O3  1  0.58916300  0.52501100  0.14846800  1
  O  O4  1  0.81961900  0.10113100  0.41322600  1
  O  O5  1  0.28556200  0.32130000  0.33759100  1
  O  O6  1  0.21416500  0.67891800  0.16229000  1
  O  O7  1  0.68072500  0.89872200  0.08668900  1
  O  O8  1  0.91036500  0.47492300  0.35110200  1
  O  O9  1  0.58968900  0.02584400  0.64908300  1
  O  O10  1  0.31941600  0.60132200  0.41345000  1
  O  O11  1  0.78570100  0.82111500  0.33742100  1
  O  O12  1  0.21407200  0.17933600  0.66303300  1
  O  O13  1  0.68082800  0.39880100  0.58741400  1
  O  O14  1  0.41039200  0.97494400  0.35125100  1
  O  O15  1  0.09004900  0.52543500  0.64933000  1
  O  O16  1  0.31707000  0.10315100  0.91130200  1
  O  O17  1  0.79230600  0.32066700  0.84101800  1
  O  O18  1  0.71433300  0.67889800  0.66258200  1
  O  O19  1  0.18059600  0.89930500  0.58697400  1
  O  O20  1  0.41144300  0.46885200  0.85311900  1
  O  O21  1  0.81765900  0.60113000  0.91250900  1
  O  O22  1  0.28575300  0.82224900  0.83824000  1
  O  O23  1  0.90944300  0.97496600  0.85103800  1
loop_
_geom_bond_atom_site_label_1
_geom_bond_atom_site_label_2
_geom_bond_distance
_geom_bond_site_symmetry_2
Li0 O3 1.948944 1_555
Li0 O1 1.960364 1_555
Li0 O2 1.970755 1_655
Li0 O8 2.054435 1_555
Li1 O14 1.946599 1_545
Li1 O5 1.954897 1_555
Li1 O4 1.967956 1_455
Li1 O0 2.047020 1_555
Li2 O0 1.946856 1_565
Li2 O6 1.957778 1_555
Li2 O7 1.965977 1_555
Li2 O14 2.049644 1_555
Li3 O8 1.945651 1_555
Li3 O11 1.957735 1_555
Li3 O10 1.966261 1_555
Li3 O3 2.050184 1_555
Li4 O12 1.945497 1_555
Li4 O15 1.947234 1_555
Li4 O13 1.971094 1_555
Li4 O20 2.062226 1_555
Li5 O23 1.943914 1_545
Li5 O17 1.956963 1_555
Li5 O16 1.958564 1_555
Li5 O9 2.043860 1_555
Li6 O9 1.947665 1_565
Li6 O18 1.958008 1_555
Li6 O19 1.965857 1_655
Li6 O23 2.045437 1_555
Li7 O22 1.970379 1_555
Li7 O21 1.970737 1_455
Li7 O20 1.984799 1_555
Li7 O15 2.047581 1_555
Mn0 O1 2.097418 1_555
Mn0 O0 2.116130 1_555
Mn0 O2 2.129416 1_555
Mn0 O16 2.202961 1_554
Mn0 O5 2.437166 1_555
Mn1 O6 2.089992 1_655
Mn1 O3 2.110342 1_555
Mn1 O7 2.132885 1_555
Mn1 O21 2.216176 1_554
Mn1 O11 2.411847 1_555
Mn2 O5 2.089894 1_555
Mn2 O8 2.111339 1_555
Mn2 O4 2.134908 1_555
Mn2 O13 2.218376 1_555
Mn2 O1 2.410218 1_555
Mn3 O12 2.085244 1_655
Mn3 O9 2.110218 1_555
Mn3 O13 2.132896 1_555
Mn3 O4 2.201978 1_555
Mn3 O17 2.451571 1_555
Mn4 O11 2.091876 1_455
Mn4 O14 2.110446 1_555
Mn4 O10 2.132968 1_555
Mn4 O19 2.209706 1_555
Mn4 O6 2.415625 1_555
Mn5 O18 2.091708 1_555
Mn5 O15 2.111882 1_555
Mn5 O19 2.133640 1_555
Mn5 O10 2.205307 1_555
Mn5 O22 2.421992 1_555
Mn6 O22 2.090264 1_555
Mn6 O23 2.103979 1_555
Mn6 O21 2.131772 1_555
Mn6 O7 2.204312 1_556
Mn6 O18 2.415314 1_555
Fe0 O17 2.027702 1_455
Fe0 O20 2.058847 1_555
Fe0 O16 2.123887 1_555
Fe0 O2 2.194220 1_556
Fe0 O12 2.402559 1_555
B0 O0 1.383204 1_655
B0 O1 1.393241 1_555
B0 O7 1.405754 1_545
B1 O3 1.384582 1_555
B1 O6 1.394250 1_555
B1 O2 1.403079 1_555
B2 O8 1.383440 1_455
B2 O5 1.391956 1_555
B2 O10 1.405721 1_555
B3 O9 1.383668 1_555
B3 O12 1.392012 1_555
B3 O19 1.405816 1_545
B4 O14 1.382900 1_555
B4 O11 1.393434 1_555
B4 O4 1.405111 1_565
B5 O15 1.384361 1_655
B5 O18 1.393542 1_555
B5 O13 1.404899 1_555
B6 O20 1.383537 1_555
B6 O17 1.396839 1_555
B6 O21 1.401931 1_555
B7 O23 1.382936 1_455
B7 O22 1.396554 1_555
B7 O16 1.403364 1_565
