# generated using pymatgen
data_Mn3Ga4P6(H2O5)6
_symmetry_space_group_name_H-M   'P 1'
_cell_length_a   10.19927700
_cell_length_b   9.04683400
_cell_length_c   13.89968724
_cell_angle_alpha   69.75666873
_cell_angle_beta   90.00000000
_cell_angle_gamma   90.00000000
_symmetry_Int_Tables_number   1
_chemical_formula_structural   Mn3Ga4P6(H2O5)6
_chemical_formula_sum   'Mn6 Ga8 P12 H24 O60'
_cell_volume   1203.31990118
_cell_formula_units_Z   2
loop_
 _symmetry_equiv_pos_site_id
 _symmetry_equiv_pos_as_xyz
  1  'x, y, z'
loop_
 _atom_site_type_symbol
 _atom_site_label
 _atom_site_symmetry_multiplicity
 _atom_site_fract_x
 _atom_site_fract_y
 _atom_site_fract_z
 _atom_site_occupancy
  Mn  Mn0  1  0.78084900  0.27096700  0.50710700  1
  Mn  Mn1  1  0.50000000  0.00000000  0.00000000  1
  Mn  Mn2  1  0.71915100  0.27096700  0.00710700  1
  Mn  Mn3  1  0.00000000  0.00000000  0.50000000  1
  Mn  Mn4  1  0.28084900  0.72903300  0.99289300  1
  Mn  Mn5  1  0.21915100  0.72903300  0.49289300  1
  Ga  Ga0  1  0.58098100  0.59858700  0.33220000  1
  Ga  Ga1  1  0.06342100  0.10250100  0.82936900  1
  Ga  Ga2  1  0.08098100  0.40141300  0.16780000  1
  Ga  Ga3  1  0.43657900  0.10250100  0.32936900  1
  Ga  Ga4  1  0.56342100  0.89749900  0.67063100  1
  Ga  Ga5  1  0.91901900  0.59858700  0.83220000  1
  Ga  Ga6  1  0.93657900  0.89749900  0.17063100  1
  Ga  Ga7  1  0.41901900  0.40141300  0.66780000  1
  P  P0  1  0.99632700  0.74835900  0.00071800  1
  P  P1  1  0.88086700  0.53473700  0.29131300  1
  P  P2  1  0.38086700  0.46526300  0.20868700  1
  P  P3  1  0.49632700  0.25164100  0.49928200  1
  P  P4  1  0.35845100  0.03661900  0.78034000  1
  P  P5  1  0.85845100  0.96338100  0.71966000  1
  P  P6  1  0.14154900  0.03661900  0.28034000  1
  P  P7  1  0.64154900  0.96338100  0.21966000  1
  P  P8  1  0.50367300  0.74835900  0.50071800  1
  P  P9  1  0.61913300  0.53473700  0.79131300  1
  P  P10  1  0.11913300  0.46526300  0.70868700  1
  P  P11  1  0.00367300  0.25164100  0.99928200  1
  H  H0  1  0.37959900  0.79971800  0.16959100  1
  H  H1  1  0.72654300  0.80018700  0.02660100  1
  H  H2  1  0.12285700  0.63414800  0.34120000  1
  H  H3  1  0.27031200  0.56967000  0.35470900  1
  H  H4  1  0.60712100  0.69055500  0.02445000  1
  H  H5  1  0.10712100  0.30944500  0.47555000  1
  H  H6  1  0.73769200  0.08030000  0.86530400  1
  H  H7  1  0.77031200  0.43033000  0.14529100  1
  H  H8  1  0.62285700  0.36585200  0.15880000  1
  H  H9  1  0.22654300  0.19981300  0.47339900  1
  H  H10  1  0.87959900  0.20028200  0.33040900  1
  H  H11  1  0.76230800  0.08030000  0.36530400  1
  H  H12  1  0.23769200  0.91970000  0.63469600  1
  H  H13  1  0.12040100  0.79971800  0.66959100  1
  H  H14  1  0.77345700  0.80018700  0.52660100  1
  H  H15  1  0.37714300  0.63414800  0.84120000  1
  H  H16  1  0.22968800  0.56967000  0.85470900  1
  H  H17  1  0.26230800  0.91970000  0.13469600  1
  H  H18  1  0.89287900  0.69055500  0.52445000  1
  H  H19  1  0.39287900  0.30944500  0.97555000  1
  H  H20  1  0.72968800  0.43033000  0.64529100  1
  H  H21  1  0.87714300  0.36585200  0.65880000  1
  H  H22  1  0.27345700  0.19981300  0.97339900  1
  H  H23  1  0.62040100  0.20028200  0.83040900  1
  O  O0  1  0.33152900  0.86678700  0.10832800  1
  O  O1  1  0.90306100  0.82473300  0.05898800  1
  O  O2  1  0.96953200  0.68257300  0.26752800  1
  O  O3  1  0.19625400  0.59848400  0.39071600  1
  O  O4  1  0.63174900  0.79982200  0.01268200  1
  O  O5  1  0.73519500  0.58052100  0.26545500  1
  O  O6  1  0.41548300  0.55441400  0.28547900  1
  O  O7  1  0.09658500  0.63042700  0.07315700  1
  O  O8  1  0.90331100  0.42810700  0.40201600  1
  O  O9  1  0.40609200  0.33688200  0.55194000  1
  O  O10  1  0.40331100  0.57189300  0.09798400  1
  O  O11  1  0.59658500  0.36957300  0.42684300  1
  O  O12  1  0.44534300  0.18345400  0.76020300  1
  O  O13  1  0.91548300  0.44558600  0.21452100  1
  O  O14  1  0.23519500  0.41947900  0.23454500  1
  O  O15  1  0.21176100  0.07561900  0.75909000  1
  O  O16  1  0.13174900  0.20017800  0.48731800  1
  O  O17  1  0.89304900  0.05026800  0.79650000  1
  O  O18  1  0.69625400  0.40151600  0.10928400  1
  O  O19  1  0.46953200  0.31742700  0.23247200  1
  O  O20  1  0.58923800  0.12622500  0.57239000  1
  O  O21  1  0.40306100  0.17526700  0.44101200  1
  O  O22  1  0.38421100  0.92942200  0.89318300  1
  O  O23  1  0.88421100  0.07057800  0.60681700  1
  O  O24  1  0.09390800  0.33688200  0.05194000  1
  O  O25  1  0.08923800  0.87377500  0.92761000  1
  O  O26  1  0.83152900  0.13321300  0.39167200  1
  O  O27  1  0.05465700  0.18345400  0.26020300  1
  O  O28  1  0.39304900  0.94973200  0.70350000  1
  O  O29  1  0.71176100  0.92438100  0.74091000  1
  O  O30  1  0.28823900  0.07561900  0.25909000  1
  O  O31  1  0.60695100  0.05026800  0.29650000  1
  O  O32  1  0.94534300  0.81654600  0.73979700  1
  O  O33  1  0.16847100  0.86678700  0.60832800  1
  O  O34  1  0.91076200  0.12622500  0.07239000  1
  O  O35  1  0.90609200  0.66311800  0.94806000  1
  O  O36  1  0.11578900  0.92942200  0.39318300  1
  O  O37  1  0.61578900  0.07057800  0.10681700  1
  O  O38  1  0.59693900  0.82473300  0.55898800  1
  O  O39  1  0.41076200  0.87377500  0.42761000  1
  O  O40  1  0.53046800  0.68257300  0.76752800  1
  O  O41  1  0.30374600  0.59848400  0.89071600  1
  O  O42  1  0.10695100  0.94973200  0.20350000  1
  O  O43  1  0.86825100  0.79982200  0.51268200  1
  O  O44  1  0.78823900  0.92438100  0.24091000  1
  O  O45  1  0.76480500  0.58052100  0.76545500  1
  O  O46  1  0.08451700  0.55441400  0.78547900  1
  O  O47  1  0.55465700  0.81654600  0.23979700  1
  O  O48  1  0.40341500  0.63042700  0.57315700  1
  O  O49  1  0.59668900  0.42810700  0.90201600  1
  O  O50  1  0.59390800  0.66311800  0.44806000  1
  O  O51  1  0.09668900  0.57189300  0.59798400  1
  O  O52  1  0.90341500  0.36957300  0.92684300  1
  O  O53  1  0.58451700  0.44558600  0.71452100  1
  O  O54  1  0.26480500  0.41947900  0.73454500  1
  O  O55  1  0.36825100  0.20017800  0.98731800  1
  O  O56  1  0.80374600  0.40151600  0.60928400  1
  O  O57  1  0.03046800  0.31742700  0.73247200  1
  O  O58  1  0.09693900  0.17526700  0.94101200  1
  O  O59  1  0.66847100  0.13321300  0.89167200  1
loop_
_geom_bond_atom_site_label_1
_geom_bond_atom_site_label_2
_geom_bond_distance
_geom_bond_site_symmetry_2
Mn0 O8 2.068274 1_555
Mn0 O23 2.140101 1_555
Mn0 O56 2.151103 1_555
Mn0 O11 2.209916 1_555
Mn0 O20 2.352674 1_555
Mn0 O26 2.403852 1_555
Mn1 O37 2.159353 1_555
Mn1 O22 2.159353 1_544
Mn1 O55 2.212566 1_554
Mn1 O4 2.212566 1_545
Mn1 O59 2.327305 1_554
Mn1 O0 2.327305 1_545
Mn2 O49 2.068274 1_554
Mn2 O37 2.140101 1_555
Mn2 O18 2.151103 1_555
Mn2 O52 2.209916 1_554
Mn2 O34 2.352674 1_555
Mn2 O59 2.403852 1_554
Mn3 O23 2.159353 1_455
Mn3 O36 2.159353 1_545
Mn3 O16 2.212566 1_555
Mn3 O43 2.212566 1_445
Mn3 O33 2.327305 1_545
Mn3 O26 2.327305 1_455
Mn4 O10 2.068274 1_556
Mn4 O22 2.140101 1_555
Mn4 O41 2.151103 1_555
Mn4 O7 2.209916 1_556
Mn4 O25 2.352674 1_555
Mn4 O0 2.403852 1_556
Mn5 O51 2.068274 1_555
Mn5 O36 2.140101 1_555
Mn5 O3 2.151103 1_555
Mn5 O48 2.209916 1_555
Mn5 O39 2.352674 1_555
Mn5 O33 2.403852 1_555
Ga0 O5 1.861789 1_555
Ga0 O50 1.897962 1_555
Ga0 O6 1.900061 1_555
Ga0 O47 1.963992 1_555
Ga0 O11 2.040182 1_555
Ga1 O15 1.861946 1_555
Ga1 O17 1.897611 1_455
Ga1 O58 1.914485 1_555
Ga1 O57 1.973672 1_555
Ga1 O25 2.064074 1_545
Ga2 O14 1.861789 1_555
Ga2 O24 1.897962 1_555
Ga2 O13 1.900061 1_455
Ga2 O27 1.963992 1_555
Ga2 O7 2.040182 1_555
Ga3 O30 1.861946 1_555
Ga3 O31 1.897611 1_555
Ga3 O21 1.914485 1_555
Ga3 O19 1.973672 1_555
Ga3 O39 2.064074 1_545
Ga4 O29 1.861946 1_555
Ga4 O28 1.897611 1_555
Ga4 O38 1.914485 1_555
Ga4 O40 1.973672 1_555
Ga4 O20 2.064074 1_565
Ga5 O45 1.861789 1_555
Ga5 O35 1.897962 1_555
Ga5 O46 1.900061 1_655
Ga5 O32 1.963992 1_555
Ga5 O52 2.040182 1_555
Ga6 O44 1.861946 1_555
Ga6 O42 1.897611 1_655
Ga6 O1 1.914485 1_555
Ga6 O2 1.973672 1_555
Ga6 O34 2.064074 1_565
Ga7 O54 1.861789 1_555
Ga7 O9 1.897962 1_555
Ga7 O53 1.900061 1_555
Ga7 O12 1.963992 1_555
Ga7 O48 2.040182 1_555
H0 O0 0.987977 1_555
H1 O4 0.986227 1_555
H2 O3 0.992231 1_555
H3 O3 0.989574 1_555
H4 O4 0.977307 1_555
H5 O16 0.977307 1_555
H6 O59 0.991629 1_555
H7 O18 0.989574 1_555
H8 O18 0.992231 1_555
H9 O16 0.986227 1_555
H10 O26 0.987977 1_555
H11 O26 0.991629 1_555
H12 O33 0.991629 1_555
H13 O33 0.987977 1_555
H14 O43 0.986227 1_555
H15 O41 0.992231 1_555
H16 O41 0.989574 1_555
H17 O0 0.991629 1_555
H18 O43 0.977307 1_555
H19 O55 0.977307 1_555
H20 O56 0.989574 1_555
H21 O56 0.992231 1_555
H22 O55 0.986227 1_555
H23 O59 0.987977 1_555
O1 P0 1.557411 1_555
O2 P1 1.552376 1_555
O5 P1 1.550862 1_555
O6 P2 1.584362 1_555
O7 P0 1.566632 1_455
O8 P1 1.524298 1_555
O9 P3 1.538837 1_555
O10 P2 1.524298 1_555
O11 P3 1.566632 1_555
O12 P4 1.539831 1_555
O13 P1 1.584362 1_555
O14 P2 1.550862 1_555
O15 P4 1.542084 1_555
O17 P5 1.569749 1_545
O19 P2 1.552376 1_555
O20 P3 1.555665 1_555
O21 P3 1.557411 1_555
O22 P4 1.554682 1_565
O23 P5 1.554682 1_545
O24 P11 1.538837 1_554
O25 P0 1.555665 1_456
O27 P6 1.539831 1_555
O28 P4 1.569749 1_565
O29 P5 1.542084 1_555
O30 P6 1.542084 1_555
O31 P7 1.569749 1_545
O32 P5 1.539831 1_555
O34 P11 1.555665 1_654
O35 P0 1.538837 1_556
O36 P6 1.554682 1_565
O37 P7 1.554682 1_545
O38 P8 1.557411 1_555
O39 P8 1.555665 1_555
O40 P9 1.552376 1_555
O42 P6 1.569749 1_565
O44 P7 1.542084 1_555
O45 P9 1.550862 1_555
O46 P10 1.584362 1_555
O47 P7 1.539831 1_555
O48 P8 1.566632 1_555
O49 P9 1.524298 1_555
O50 P8 1.538837 1_555
O51 P10 1.524298 1_555
O52 P11 1.566632 1_655
O53 P9 1.584362 1_555
O54 P10 1.550862 1_555
O57 P10 1.552376 1_555
O58 P11 1.557411 1_555
