# generated using pymatgen
data_Rb6Co2O7
_symmetry_space_group_name_H-M   'P 1'
_cell_length_a   9.44810627
_cell_length_b   6.84783279
_cell_length_c   11.47211600
_cell_angle_alpha   55.42752092
_cell_angle_beta   90.00000000
_cell_angle_gamma   90.00000000
_symmetry_Int_Tables_number   1
_chemical_formula_structural   Rb6Co2O7
_chemical_formula_sum   'Rb12 Co4 O14'
_cell_volume   611.16302198
_cell_formula_units_Z   2
loop_
 _symmetry_equiv_pos_site_id
 _symmetry_equiv_pos_as_xyz
  1  'x, y, z'
loop_
 _atom_site_type_symbol
 _atom_site_label
 _atom_site_symmetry_multiplicity
 _atom_site_fract_x
 _atom_site_fract_y
 _atom_site_fract_z
 _atom_site_occupancy
  Rb  Rb0  1  0.79396823  0.58403575  0.28662066  1
  Rb  Rb1  1  0.64790159  0.94533659  0.92382068  1
  Rb  Rb2  1  0.52601598  0.19628386  0.55845032  1
  Rb  Rb3  1  0.02601598  0.80371614  0.94154968  1
  Rb  Rb4  1  0.29396823  0.41596425  0.21337934  1
  Rb  Rb5  1  0.14790159  0.05466341  0.57617932  1
  Rb  Rb6  1  0.85209841  0.94533659  0.42382068  1
  Rb  Rb7  1  0.70603177  0.58403575  0.78662066  1
  Rb  Rb8  1  0.97398402  0.19628386  0.05845032  1
  Rb  Rb9  1  0.47398402  0.80371614  0.44154968  1
  Rb  Rb10  1  0.35209841  0.05466341  0.07617932  1
  Rb  Rb11  1  0.20603177  0.41596425  0.71337934  1
  Co  Co0  1  0.86037276  0.31775460  0.63322532  1
  Co  Co1  1  0.36037276  0.68224540  0.86677468  1
  Co  Co2  1  0.63962724  0.31775460  0.13322532  1
  Co  Co3  1  0.13962724  0.68224540  0.36677468  1
  O  O0  1  0.00000000  0.50000000  0.50000000  1
  O  O1  1  0.09133507  0.74366848  0.19909979  1
  O  O2  1  0.29425616  0.49998957  0.42911053  1
  O  O3  1  0.33520749  0.95108445  0.85680478  1
  O  O4  1  0.83520749  0.04891555  0.64319522  1
  O  O5  1  0.79425616  0.50001043  0.07088947  1
  O  O6  1  0.59133507  0.25633152  0.30090021  1
  O  O7  1  0.50000000  0.50000000  0.00000000  1
  O  O8  1  0.40866493  0.74366848  0.69909979  1
  O  O9  1  0.20574384  0.49998957  0.92911053  1
  O  O10  1  0.16479251  0.95108445  0.35680478  1
  O  O11  1  0.66479251  0.04891555  0.14319522  1
  O  O12  1  0.70574384  0.50001043  0.57088947  1
  O  O13  1  0.90866493  0.25633152  0.80090021  1
loop_
_geom_bond_atom_site_label_1
_geom_bond_atom_site_label_2
_geom_bond_distance
_geom_bond_site_symmetry_2
Co0 O13 1.779620 1_555
Co0 O12 1.786201 1_555
Co0 O4 1.794380 1_555
Co0 O0 1.862534 1_655
Co1 O8 1.779620 1_555
Co1 O9 1.786201 1_555
Co1 O3 1.794380 1_555
Co1 O7 1.862534 1_556
Co2 O6 1.779620 1_555
Co2 O5 1.786201 1_555
Co2 O11 1.794380 1_555
Co2 O7 1.862534 1_555
Co3 O1 1.779620 1_555
Co3 O2 1.786201 1_555
Co3 O10 1.794380 1_555
Co3 O0 1.862534 1_555
O0 Rb0 2.917878 1_455
O0 Rb11 2.917878 1_555
O0 Rb5 2.998632 1_555
O0 Rb6 2.998632 1_455
O1 Rb8 2.786329 1_465
O1 Rb3 2.810879 1_554
O1 Rb4 2.882839 1_555
O1 Rb0 2.975069 1_455
O1 Rb10 3.030774 1_565
O2 Rb9 2.750739 1_555
O2 Rb2 2.796336 1_555
O2 Rb4 2.841181 1_555
O2 Rb5 2.866891 1_555
O2 Rb11 3.087314 1_555
O3 Rb11 2.895937 1_565
O3 Rb10 2.981301 1_566
O3 Rb1 3.047387 1_555
O3 Rb3 3.063326 1_555
O3 Rb2 3.355926 1_565
O3 Rb5 3.377530 1_565
O4 Rb7 2.895937 1_545
O4 Rb6 2.981301 1_545
O4 Rb5 3.047387 1_655
O4 Rb2 3.063326 1_555
O4 Rb3 3.355926 1_645
O4 Rb1 3.377530 1_545
O5 Rb8 2.750739 1_555
O5 Rb3 2.796336 1_654
O5 Rb0 2.841181 1_555
O5 Rb1 2.866891 1_554
O5 Rb7 3.087314 1_554
O6 Rb9 2.786329 1_545
O6 Rb2 2.810879 1_555
O6 Rb0 2.882839 1_555
O6 Rb4 2.975069 1_555
O6 Rb6 3.030774 1_545
O7 Rb7 2.917878 1_554
O7 Rb4 2.917878 1_555
O7 Rb10 2.998632 1_555
O7 Rb1 2.998632 1_554
O8 Rb2 2.786329 1_565
O8 Rb9 2.810879 1_555
O8 Rb11 2.882839 1_555
O8 Rb7 2.975069 1_555
O8 Rb5 3.030774 1_565
O9 Rb3 2.750739 1_555
O9 Rb8 2.796336 1_456
O9 Rb11 2.841181 1_555
O9 Rb10 2.866891 1_556
O9 Rb4 3.087314 1_556
O10 Rb4 2.895937 1_565
O10 Rb5 2.981301 1_565
O10 Rb6 3.047387 1_455
O10 Rb9 3.063326 1_555
O10 Rb8 3.355926 1_465
O10 Rb10 3.377530 1_565
O11 Rb0 2.895937 1_545
O11 Rb1 2.981301 1_544
O11 Rb10 3.047387 1_555
O11 Rb8 3.063326 1_555
O11 Rb9 3.355926 1_545
O11 Rb6 3.377530 1_545
O12 Rb2 2.750739 1_555
O12 Rb9 2.796336 1_555
O12 Rb7 2.841181 1_555
O12 Rb6 2.866891 1_555
O12 Rb0 3.087314 1_555
O13 Rb3 2.786329 1_645
O13 Rb8 2.810879 1_556
O13 Rb7 2.882839 1_555
O13 Rb11 2.975069 1_655
O13 Rb1 3.030774 1_545
