# generated using pymatgen
data_LiFeF3
_symmetry_space_group_name_H-M   'P 1'
_cell_length_a   3.03144100
_cell_length_b   7.83895700
_cell_length_c   9.99044600
_cell_angle_alpha   90.00000000
_cell_angle_beta   90.00000000
_cell_angle_gamma   90.00000000
_symmetry_Int_Tables_number   1
_chemical_formula_structural   LiFeF3
_chemical_formula_sum   'Li4 Fe4 F12'
_cell_volume   237.40632156
_cell_formula_units_Z   4
loop_
 _symmetry_equiv_pos_site_id
 _symmetry_equiv_pos_as_xyz
  1  'x, y, z'
loop_
 _atom_site_type_symbol
 _atom_site_label
 _atom_site_symmetry_multiplicity
 _atom_site_fract_x
 _atom_site_fract_y
 _atom_site_fract_z
 _atom_site_occupancy
  Li  Li0  1  0.75000000  0.50269800  0.81400100  1
  Li  Li1  1  0.25000000  0.99730200  0.31400100  1
  Li  Li2  1  0.75000000  0.00269800  0.68599900  1
  Li  Li3  1  0.25000000  0.49730200  0.18599900  1
  Fe  Fe0  1  0.25000000  0.69059000  0.51350200  1
  Fe  Fe1  1  0.75000000  0.80941000  0.01350200  1
  Fe  Fe2  1  0.25000000  0.19059000  0.98649800  1
  Fe  Fe3  1  0.75000000  0.30941000  0.48649800  1
  F  F0  1  0.25000000  0.47363200  0.38898900  1
  F  F1  1  0.25000000  0.67541900  0.91248300  1
  F  F2  1  0.75000000  0.64954400  0.16424700  1
  F  F3  1  0.25000000  0.85045600  0.66424700  1
  F  F4  1  0.75000000  0.82458100  0.41248300  1
  F  F5  1  0.75000000  0.02636800  0.88898900  1
  F  F6  1  0.25000000  0.97363200  0.11101100  1
  F  F7  1  0.25000000  0.17541900  0.58751700  1
  F  F8  1  0.75000000  0.14954400  0.33575300  1
  F  F9  1  0.25000000  0.35045600  0.83575300  1
  F  F10  1  0.75000000  0.32458100  0.08751700  1
  F  F11  1  0.75000000  0.52636800  0.61101100  1
loop_
_geom_bond_atom_site_label_1
_geom_bond_atom_site_label_2
_geom_bond_distance
_geom_bond_site_symmetry_2
F0 Li3 2.036431 1_555
F0 Fe0 2.107095 1_555
F0 Fe3 2.214410 1_455
F0 Fe3 2.214410 1_555
F1 Fe1 2.102184 1_556
F1 Fe1 2.102184 1_456
F1 Li0 2.258011 1_555
F1 Li0 2.258011 1_455
F2 Li3 1.941361 1_555
F2 Li3 1.941361 1_655
F2 Fe1 1.959217 1_555
F3 Li2 1.941361 1_465
F3 Li2 1.941361 1_565
F3 Fe0 1.959217 1_555
F4 Fe0 2.102184 1_655
F4 Fe0 2.102184 1_555
F4 Li1 2.258011 1_555
F4 Li1 2.258011 1_655
F5 Li2 2.036431 1_555
F5 Fe1 2.107095 1_546
F5 Fe2 2.214410 1_555
F5 Fe2 2.214410 1_655
F6 Li1 2.036431 1_555
F6 Fe2 2.107095 1_564
F6 Fe1 2.214410 1_555
F6 Fe1 2.214410 1_455
F7 Fe3 2.102184 1_555
F7 Fe3 2.102184 1_455
F7 Li2 2.258011 1_555
F7 Li2 2.258011 1_455
F8 Li1 1.941361 1_545
F8 Li1 1.941361 1_645
F8 Fe3 1.959217 1_555
F9 Li0 1.941361 1_555
F9 Li0 1.941361 1_455
F9 Fe2 1.959217 1_555
F10 Fe2 2.102184 1_654
F10 Fe2 2.102184 1_554
F10 Li3 2.258011 1_555
F10 Li3 2.258011 1_655
F11 Li0 2.036431 1_555
F11 Fe3 2.107095 1_555
F11 Fe0 2.214410 1_655
F11 Fe0 2.214410 1_555
