# generated using pymatgen
data_Li8Sc5Fe3(SiO3)16
_symmetry_space_group_name_H-M   'P 1'
_cell_length_a   8.95037900
_cell_length_b   9.90140800
_cell_length_c   10.78614286
_cell_angle_alpha   69.63972866
_cell_angle_beta   90.00000000
_cell_angle_gamma   90.00000000
_symmetry_Int_Tables_number   1
_chemical_formula_structural   Li8Sc5Fe3(SiO3)16
_chemical_formula_sum   'Li8 Sc5 Fe3 Si16 O48'
_cell_volume   896.16235281
_cell_formula_units_Z   1
loop_
 _symmetry_equiv_pos_site_id
 _symmetry_equiv_pos_as_xyz
  1  'x, y, z'
loop_
 _atom_site_type_symbol
 _atom_site_label
 _atom_site_symmetry_multiplicity
 _atom_site_fract_x
 _atom_site_fract_y
 _atom_site_fract_z
 _atom_site_occupancy
  Li  Li0  1  0.25481800  0.99953000  0.74877300  1
  Li  Li1  1  0.74679000  0.00000000  0.50000000  1
  Li  Li2  1  0.25481800  0.00047000  0.25122700  1
  Li  Li3  1  0.74487400  0.00000000  0.00000000  1
  Li  Li4  1  0.75365400  0.50011200  0.74996000  1
  Li  Li5  1  0.24735500  0.50000000  0.50000000  1
  Li  Li6  1  0.75365400  0.49988800  0.25004000  1
  Li  Li7  1  0.24728200  0.50000000  0.00000000  1
  Sc  Sc0  1  0.89605000  0.00025600  0.74803900  1
  Sc  Sc1  1  0.89605000  0.99974400  0.25196100  1
  Sc  Sc2  1  0.10512300  0.00000000  0.00000000  1
  Sc  Sc3  1  0.39757200  0.50028600  0.74973700  1
  Sc  Sc4  1  0.39757200  0.49971400  0.25026300  1
  Fe  Fe0  1  0.10835300  0.00000000  0.50000000  1
  Fe  Fe1  1  0.60804700  0.50000000  0.50000000  1
  Fe  Fe2  1  0.60694200  0.50000000  0.00000000  1
  Si  Si0  1  0.58812800  0.79658400  0.73947300  1
  Si  Si1  1  0.08740100  0.70318000  0.75992400  1
  Si  Si2  1  0.41130800  0.79790100  0.48836200  1
  Si  Si3  1  0.91112600  0.70157100  0.51209700  1
  Si  Si4  1  0.58758800  0.79677600  0.24011900  1
  Si  Si5  1  0.08663400  0.70173200  0.26186000  1
  Si  Si6  1  0.41358900  0.79632200  0.98777000  1
  Si  Si7  1  0.91028400  0.70111000  0.01138100  1
  Si  Si8  1  0.08663400  0.29826800  0.73814000  1
  Si  Si9  1  0.58758800  0.20322400  0.75988100  1
  Si  Si10  1  0.91112600  0.29842900  0.48790300  1
  Si  Si11  1  0.41130800  0.20209900  0.51163800  1
  Si  Si12  1  0.08740100  0.29682000  0.24007600  1
  Si  Si13  1  0.58812800  0.20341600  0.26052700  1
  Si  Si14  1  0.91028400  0.29889000  0.98861900  1
  Si  Si15  1  0.41358900  0.20367800  0.01223000  1
  O  O0  1  0.50464300  0.85586000  0.84654500  1
  O  O1  1  0.08708200  0.88171300  0.69802400  1
  O  O2  1  0.75143800  0.86861000  0.70436400  1
  O  O3  1  0.49570200  0.85232000  0.59836600  1
  O  O4  1  0.91537800  0.87959800  0.45587600  1
  O  O5  1  0.24689900  0.87171500  0.45669000  1
  O  O6  1  0.50146200  0.85608300  0.34635700  1
  O  O7  1  0.08622400  0.87960000  0.20386800  1
  O  O8  1  0.75119700  0.86874500  0.20607600  1
  O  O9  1  0.25140000  0.63097500  0.79407800  1
  O  O10  1  0.58743100  0.61812100  0.80145100  1
  O  O11  1  0.00156200  0.64368700  0.65385200  1
  O  O12  1  0.49632100  0.85158200  0.09830200  1
  O  O13  1  0.91194100  0.87884100  0.95354500  1
  O  O14  1  0.24932600  0.86801000  0.95499900  1
  O  O15  1  0.74610600  0.62824400  0.54391200  1
  O  O16  1  0.41569100  0.61975000  0.54478800  1
  O  O17  1  0.99500200  0.64521100  0.40313900  1
  O  O18  1  0.25109900  0.63030700  0.29451000  1
  O  O19  1  0.58728100  0.61808600  0.30208600  1
  O  O20  1  0.00151100  0.64512400  0.15313500  1
  O  O21  1  0.00151100  0.35487600  0.84686500  1
  O  O22  1  0.74608100  0.62692900  0.04441400  1
  O  O23  1  0.58728100  0.38191400  0.69791400  1
  O  O24  1  0.41791800  0.61817400  0.04500200  1
  O  O25  1  0.25109900  0.36969300  0.70549000  1
  O  O26  1  0.99577300  0.64710300  0.90158400  1
  O  O27  1  0.99500200  0.35478900  0.59686100  1
  O  O28  1  0.41569100  0.38025000  0.45521200  1
  O  O29  1  0.74610600  0.37175600  0.45608800  1
  O  O30  1  0.00156200  0.35631300  0.34614800  1
  O  O31  1  0.58743100  0.38187900  0.19854900  1
  O  O32  1  0.25140000  0.36902500  0.20592200  1
  O  O33  1  0.75119700  0.13125500  0.79392400  1
  O  O34  1  0.08622400  0.12040000  0.79613200  1
  O  O35  1  0.50146200  0.14391700  0.65364300  1
  O  O36  1  0.99577300  0.35289700  0.09841600  1
  O  O37  1  0.41791800  0.38182600  0.95499800  1
  O  O38  1  0.74608100  0.37307100  0.95558600  1
  O  O39  1  0.24689900  0.12828500  0.54331000  1
  O  O40  1  0.91537800  0.12040200  0.54412400  1
  O  O41  1  0.49570200  0.14768000  0.40163400  1
  O  O42  1  0.75143800  0.13139000  0.29563600  1
  O  O43  1  0.08708200  0.11828700  0.30197600  1
  O  O44  1  0.50464300  0.14414000  0.15345500  1
  O  O45  1  0.24932600  0.13199000  0.04500100  1
  O  O46  1  0.91194100  0.12115900  0.04645500  1
  O  O47  1  0.49632100  0.14841800  0.90169800  1
loop_
_geom_bond_atom_site_label_1
_geom_bond_atom_site_label_2
_geom_bond_distance
_geom_bond_site_symmetry_2
Li0 O1 2.087755 1_555
Li0 O34 2.096580 1_565
Li0 O39 2.139080 1_565
Li0 O14 2.151855 1_555
Li1 O40 2.078315 1_555
Li1 O4 2.078315 1_545
Li1 O42 2.134871 1_555
Li1 O2 2.134871 1_545
Li2 O43 2.087755 1_555
Li2 O7 2.096580 1_545
Li2 O5 2.139080 1_545
Li2 O45 2.151855 1_555
Li3 O46 2.084336 1_555
Li3 O13 2.084336 1_544
Li3 O8 2.150063 1_545
Li3 O33 2.150063 1_554
Li4 O10 2.082964 1_555
Li4 O23 2.087916 1_555
Li4 O38 2.136511 1_555
Li4 O15 2.142770 1_555
Li5 O16 2.075543 1_555
Li5 O28 2.075543 1_555
Li5 O18 2.142082 1_555
Li5 O25 2.142082 1_555
Li6 O31 2.082964 1_555
Li6 O19 2.087916 1_555
Li6 O22 2.136511 1_555
Li6 O29 2.142770 1_555
Li7 O24 2.081452 1_555
Li7 O37 2.081452 1_554
Li7 O9 2.147587 1_554
Li7 O32 2.147587 1_555
Fe0 O39 1.944796 1_555
Fe0 O5 1.944796 1_545
Fe0 O1 2.056546 1_545
Fe0 O43 2.056546 1_555
Fe0 O40 2.241819 1_455
Fe0 O4 2.241819 1_445
Fe1 O15 1.944768 1_555
Fe1 O29 1.944768 1_555
Fe1 O23 2.054722 1_555
Fe1 O19 2.054722 1_555
Fe1 O16 2.236500 1_555
Fe1 O28 2.236500 1_555
Fe2 O22 1.943917 1_555
Fe2 O38 1.943917 1_554
Fe2 O31 2.059573 1_555
Fe2 O10 2.059573 1_554
Fe2 O24 2.205049 1_555
Fe2 O37 2.205049 1_554
O0 Si6 1.645356 1_555
O0 Si0 1.645677 1_555
O1 Si1 1.658124 1_555
O1 Sc0 2.243379 1_465
O2 Si0 1.612639 1_555
O2 Sc0 2.005882 1_565
O3 Si2 1.647300 1_555
O3 Si0 1.649519 1_555
O4 Si3 1.653042 1_555
O4 Sc1 2.112354 1_555
O5 Si2 1.625579 1_555
O6 Si2 1.647739 1_555
O6 Si4 1.649355 1_555
O7 Si5 1.651167 1_555
O7 Sc2 2.112121 1_565
O7 Sc1 2.238496 1_455
O8 Si4 1.613972 1_555
O8 Sc1 2.013686 1_555
O9 Si1 1.618074 1_555
O9 Sc3 2.011335 1_555
O10 Si0 1.657519 1_555
O10 Sc3 2.238952 1_555
O11 Si3 1.646724 1_455
O11 Si1 1.647792 1_555
O12 Si6 1.650145 1_554
O12 Si4 1.650457 1_555
O13 Si7 1.649949 1_556
O13 Sc0 2.127109 1_565
O13 Sc2 2.257901 1_666
O14 Si6 1.617320 1_555
O14 Sc2 2.012658 1_566
O15 Si3 1.628812 1_555
O16 Si2 1.654214 1_555
O16 Sc3 2.119606 1_555
O17 Si3 1.646977 1_555
O17 Si5 1.647586 1_655
O18 Si5 1.617936 1_555
O18 Sc4 2.011932 1_555
O19 Si4 1.659587 1_555
O19 Sc4 2.241677 1_555
O20 Si7 1.649845 1_455
O20 Si5 1.651451 1_555
O21 Si14 1.649845 1_455
O21 Si8 1.651451 1_555
O22 Si7 1.626127 1_555
O23 Si9 1.659587 1_555
O23 Sc3 2.241677 1_555
O24 Si6 1.654170 1_554
O24 Sc4 2.122171 1_555
O25 Si8 1.617936 1_555
O25 Sc3 2.011932 1_555
O26 Si7 1.647612 1_556
O26 Si1 1.650817 1_655
O27 Si10 1.646977 1_555
O27 Si8 1.647586 1_655
O28 Si11 1.654214 1_555
O28 Sc4 2.119606 1_555
O29 Si10 1.628812 1_555
O30 Si10 1.646724 1_455
O30 Si12 1.647792 1_555
O31 Si13 1.657519 1_555
O31 Sc4 2.238952 1_555
O32 Si12 1.618074 1_555
O32 Sc4 2.011335 1_555
O33 Si9 1.613972 1_555
O33 Sc0 2.013686 1_555
O34 Si8 1.651167 1_555
O34 Sc2 2.112121 1_556
O34 Sc0 2.238496 1_455
O35 Si11 1.647739 1_555
O35 Si9 1.649355 1_555
O36 Si14 1.647612 1_554
O36 Si12 1.650817 1_655
O37 Si15 1.654170 1_556
O37 Sc3 2.122171 1_555
O38 Si14 1.626127 1_555
O39 Si11 1.625579 1_555
O40 Si10 1.653042 1_555
O40 Sc0 2.112354 1_555
O41 Si11 1.647300 1_555
O41 Si13 1.649519 1_555
O42 Si13 1.612639 1_555
O42 Sc1 2.005882 1_545
O43 Si12 1.658124 1_555
O43 Sc1 2.243379 1_445
O44 Si15 1.645356 1_555
O44 Si13 1.645677 1_555
O45 Si15 1.617320 1_555
O45 Sc2 2.012658 1_555
O46 Si14 1.649949 1_554
O46 Sc1 2.127109 1_545
O46 Sc2 2.257901 1_655
O47 Si15 1.650145 1_556
O47 Si9 1.650457 1_555
