# generated using pymatgen
data_Li2MnH8(SO6)2
_symmetry_space_group_name_H-M   'P 1'
_cell_length_a   9.28265953
_cell_length_b   11.85641483
_cell_length_c   12.52651412
_cell_angle_alpha   61.97008854
_cell_angle_beta   89.98336119
_cell_angle_gamma   113.10801283
_symmetry_Int_Tables_number   1
_chemical_formula_structural   Li2MnH8(SO6)2
_chemical_formula_sum   'Li8 Mn4 H32 S8 O48'
_cell_volume   1089.94706058
_cell_formula_units_Z   4
loop_
 _symmetry_equiv_pos_site_id
 _symmetry_equiv_pos_as_xyz
  1  'x, y, z'
loop_
 _atom_site_type_symbol
 _atom_site_label
 _atom_site_symmetry_multiplicity
 _atom_site_fract_x
 _atom_site_fract_y
 _atom_site_fract_z
 _atom_site_occupancy
  Li  Li0  1  0.00872100  0.24796900  0.30789400  1
  Li  Li1  1  0.63131900  0.27312000  0.33253800  1
  Li  Li2  1  0.36596700  0.73288100  0.16099200  1
  Li  Li3  1  0.75999400  0.75156700  0.19058400  1
  Li  Li4  1  0.24196000  0.25249000  0.80800900  1
  Li  Li5  1  0.63285600  0.26988000  0.83520000  1
  Li  Li6  1  0.36436900  0.72629400  0.66844000  1
  Li  Li7  1  0.98575200  0.74846500  0.69454000  1
  Mn  Mn0  1  0.99895800  0.49864900  0.00151500  1
  Mn  Mn1  1  0.25102100  0.99928900  0.25192000  1
  Mn  Mn2  1  0.49927800  0.49950900  0.50011900  1
  Mn  Mn3  1  0.74656000  0.99847500  0.75002500  1
  H  H0  1  0.01417000  0.25139700  0.03880800  1
  H  H1  1  0.72764900  0.25765200  0.05363800  1
  H  H2  1  0.35718200  0.27950200  0.04451200  1
  H  H3  1  0.97670300  0.03338800  0.17550800  1
  H  H4  1  0.55653900  0.03198600  0.17348900  1
  H  H5  1  0.81388800  0.62735400  0.00478800  1
  H  H6  1  0.31238200  0.61493000  0.00981600  1
  H  H7  1  0.40109300  0.28957300  0.16606100  1
  H  H8  1  0.11292800  0.70735400  0.33674800  1
  H  H9  1  0.69437800  0.38293400  0.49161000  1
  H  H10  1  0.23685400  0.25223400  0.54109400  1
  H  H11  1  0.18192500  0.37141600  0.49549000  1
  H  H12  1  0.52619800  0.25418500  0.55614800  1
  H  H13  1  0.91699900  0.27954300  0.54344900  1
  H  H14  1  0.05647800  0.03239900  0.67569400  1
  H  H15  1  0.47547700  0.03429900  0.67395600  1
  H  H16  1  0.52479500  0.96767600  0.32296700  1
  H  H17  1  0.94347900  0.97087700  0.32475200  1
  H  H18  1  0.07853500  0.71602500  0.45875700  1
  H  H19  1  0.47049600  0.74301700  0.44920400  1
  H  H20  1  0.81391300  0.62534800  0.51090500  1
  H  H21  1  0.76427600  0.74848600  0.45604300  1
  H  H22  1  0.30059500  0.61477800  0.50558300  1
  H  H23  1  0.88809400  0.29087700  0.66492900  1
  H  H24  1  0.59405800  0.70812900  0.83597500  1
  H  H25  1  0.68424500  0.38382700  0.99113300  1
  H  H26  1  0.18745000  0.37285300  0.99365600  1
  H  H27  1  0.44239800  0.96747500  0.82455900  1
  H  H28  1  0.02433300  0.96634100  0.82543300  1
  H  H29  1  0.63706700  0.71538500  0.95841100  1
  H  H30  1  0.27306200  0.74412300  0.94711400  1
  H  H31  1  0.98761300  0.74759000  0.95792600  1
  S  S0  1  0.75561400  0.03624400  0.01882200  1
  S  S1  1  0.52418500  0.53209400  0.20443600  1
  S  S2  1  0.98971100  0.46604100  0.29610300  1
  S  S3  1  0.27627800  0.03491800  0.52108300  1
  S  S4  1  0.72027400  0.96236700  0.47964800  1
  S  S5  1  0.00611800  0.53015900  0.70668200  1
  S  S6  1  0.47885300  0.46991400  0.79578800  1
  S  S7  1  0.24247800  0.96495600  0.98093700  1
  O  O0  1  0.92218600  0.10195300  0.03503500  1
  O  O1  1  0.66750800  0.12015600  0.01731500  1
  O  O2  1  0.08210500  0.33602400  0.04630200  1
  O  O3  1  0.74558700  0.34682700  0.05177600  1
  O  O4  1  0.37367100  0.22881100  0.12898600  1
  O  O5  1  0.02101500  0.00248700  0.25048300  1
  O  O6  1  0.48065600  0.99858400  0.24861100  1
  O  O7  1  0.67451900  0.63219200  0.10176100  1
  O  O8  1  0.99279700  0.43123300  0.19530900  1
  O  O9  1  0.38815700  0.56362200  0.15965800  1
  O  O10  1  0.48770500  0.38176100  0.25017200  1
  O  O11  1  0.26932100  0.03672500  0.40290400  1
  O  O12  1  0.78095600  0.11180000  0.37341600  1
  O  O13  1  0.66794400  0.88643800  0.12599300  1
  O  O14  1  0.23431100  0.96439200  0.09852900  1
  O  O15  1  0.10324400  0.61589100  0.25218900  1
  O  O16  1  0.82169500  0.43261200  0.34115100  1
  O  O17  1  0.56282800  0.56888700  0.30370700  1
  O  O18  1  0.03986300  0.36493800  0.39763200  1
  O  O19  1  0.17772600  0.10304700  0.53618800  1
  O  O20  1  0.44908800  0.11858300  0.51797100  1
  O  O21  1  0.25247100  0.33713100  0.54750500  1
  O  O22  1  0.59581800  0.34523500  0.55213700  1
  O  O23  1  0.14597900  0.76799200  0.37397600  1
  O  O24  1  0.85325300  0.22873400  0.62900600  1
  O  O25  1  0.40311200  0.65392100  0.44880100  1
  O  O26  1  0.74772400  0.66091500  0.45416200  1
  O  O27  1  0.97811600  0.99624600  0.75108600  1
  O  O28  1  0.51848300  0.00235600  0.74884900  1
  O  O29  1  0.54787000  0.87792700  0.48222600  1
  O  O30  1  0.82171100  0.89766300  0.46252100  1
  O  O31  1  0.95619500  0.63103300  0.60469000  1
  O  O32  1  0.44256800  0.43347000  0.69589700  1
  O  O33  1  0.17390700  0.56234700  0.66185500  1
  O  O34  1  0.89198300  0.38020000  0.75130800  1
  O  O35  1  0.76281000  0.03875300  0.90055500  1
  O  O36  1  0.33033600  0.11429100  0.87298300  1
  O  O37  1  0.21382900  0.88594300  0.62866500  1
  O  O38  1  0.72681600  0.95871600  0.59890000  1
  O  O39  1  0.51416400  0.61994200  0.74988900  1
  O  O40  1  0.61376100  0.43793200  0.84161200  1
  O  O41  1  0.00378300  0.56555700  0.80692000  1
  O  O42  1  0.32722400  0.36973100  0.89739900  1
  O  O43  1  0.62080900  0.76792800  0.87405900  1
  O  O44  1  0.25142700  0.65358900  0.95001300  1
  O  O45  1  0.91798900  0.66326000  0.95097400  1
  O  O46  1  0.33175100  0.88148100  0.98354200  1
  O  O47  1  0.07612400  0.89709600  0.96579600  1
loop_
_geom_bond_atom_site_label_1
_geom_bond_atom_site_label_2
_geom_bond_distance
_geom_bond_site_symmetry_2
Li0 O12 1.955650 1_455
Li0 O8 2.025887 1_455
Li0 O18 2.102662 1_555
Li1 O16 2.068651 1_555
Li1 O10 2.144879 1_555
Li1 O20 2.275735 1_555
Li1 O12 2.648627 1_555
Li2 O9 2.103795 1_555
Li2 O46 2.214691 1_554
Li2 O15 2.242871 1_555
Li2 O13 2.570555 1_555
Li3 O13 1.949033 1_555
Li3 O17 2.012772 1_555
Li3 O7 2.114210 1_555
Li4 O36 1.955081 1_555
Li4 O32 2.018440 1_555
Li4 O42 2.100564 1_555
Li5 O40 2.106069 1_555
Li5 O34 2.199579 1_555
Li5 O1 2.258632 1_556
Li5 O36 2.573981 1_555
Li6 O33 2.089088 1_555
Li6 O39 2.175401 1_555
Li6 O29 2.286316 1_555
Li6 O37 2.640868 1_555
Li7 O37 1.961183 1_655
Li7 O41 2.031864 1_655
Li7 O31 2.110395 1_555
Mn0 O8 2.162308 1_555
Mn0 O41 2.174352 1_654
Mn0 O45 2.182941 1_554
Mn0 O3 2.186129 1_555
Mn0 O2 2.186302 1_655
Mn0 O44 2.188426 1_654
Mn1 O11 2.129057 1_565
Mn1 O6 2.135384 1_555
Mn1 O14 2.141083 1_555
Mn1 O5 2.150163 1_565
Mn1 O4 2.168310 1_565
Mn1 O23 2.183667 1_555
Mn2 O25 2.176892 1_555
Mn2 O22 2.177198 1_555
Mn2 O21 2.184181 1_555
Mn2 O32 2.185294 1_555
Mn2 O17 2.189551 1_555
Mn2 O26 2.193612 1_555
Mn3 O28 2.135546 1_565
Mn3 O35 2.143901 1_565
Mn3 O38 2.147238 1_555
Mn3 O27 2.159933 1_555
Mn3 O24 2.172375 1_565
Mn3 O43 2.179728 1_555
H0 O2 1.002570 1_555
H0 O0 1.661932 1_455
H1 O3 0.992358 1_555
H2 O4 0.989410 1_555
H3 O5 0.990249 1_655
H3 O0 1.729818 1_555
H4 O6 0.984335 1_545
H5 O45 0.988152 1_554
H6 O44 0.986172 1_554
H7 O4 0.984921 1_555
H8 O23 0.985162 1_555
H9 O22 0.985788 1_555
H10 O21 1.001049 1_555
H10 O19 1.665504 1_555
H11 O21 0.989381 1_555
H12 O22 0.993451 1_555
H13 O24 0.987262 1_555
H14 O27 0.989515 1_445
H14 O19 1.704502 1_555
H15 O28 0.983810 1_555
H16 O6 0.983357 1_555
H17 O5 0.992059 1_665
H17 O30 1.682308 1_555
H18 O23 0.990596 1_555
H19 O25 0.996765 1_555
H19 O29 1.722148 1_555
H20 O26 0.991194 1_555
H21 O26 0.999980 1_555
H21 O30 1.677465 1_555
H22 O25 0.984681 1_555
H23 O24 0.987222 1_555
H24 O43 0.985750 1_555
H25 O3 0.988362 1_556
H26 O2 0.987743 1_556
H27 O28 0.985390 1_565
H28 O27 0.993170 1_455
H28 O47 1.717622 1_555
H29 O43 0.991247 1_555
H29 O7 1.709702 1_556
H30 O44 0.993986 1_555
H31 O45 0.999815 1_555
H31 O47 1.687606 1_655
O0 S0 1.497456 1_555
O1 S0 1.510003 1_555
O7 S1 1.508134 1_555
O8 S2 1.504755 1_555
O9 S1 1.490843 1_555
O10 S1 1.478597 1_555
O11 S3 1.472230 1_555
O12 S4 1.492468 1_545
O13 S0 1.497664 1_565
O14 S7 1.471684 1_554
O15 S2 1.476908 1_455
O16 S2 1.487297 1_555
O17 S1 1.500863 1_555
O18 S2 1.508863 1_455
O19 S3 1.499592 1_555
O20 S3 1.507769 1_555
O29 S4 1.508802 1_555
O30 S4 1.497583 1_555
O31 S5 1.508879 1_655
O32 S6 1.503343 1_555
O33 S5 1.489417 1_555
O34 S5 1.477534 1_655
O35 S0 1.468698 1_556
O36 S7 1.498107 1_545
O37 S3 1.493535 1_565
O38 S4 1.475932 1_555
O39 S6 1.477542 1_555
O40 S6 1.486650 1_555
O41 S5 1.501879 1_555
O42 S6 1.509238 1_555
O46 S7 1.510220 1_555
O47 S7 1.495413 1_555
