# generated using pymatgen
data_Li4Ti2Nb3Cu3O16
_symmetry_space_group_name_H-M   'P 1'
_cell_length_a   6.14938645
_cell_length_b   6.14938645
_cell_length_c   9.87946155
_cell_angle_alpha   86.62628258
_cell_angle_beta   86.62628258
_cell_angle_gamma   58.86895166
_symmetry_Int_Tables_number   1
_chemical_formula_structural   Li4Ti2Nb3Cu3O16
_chemical_formula_sum   'Li4 Ti2 Nb3 Cu3 O16'
_cell_volume   319.05850508
_cell_formula_units_Z   1
loop_
 _symmetry_equiv_pos_site_id
 _symmetry_equiv_pos_as_xyz
  1  'x, y, z'
loop_
 _atom_site_type_symbol
 _atom_site_label
 _atom_site_symmetry_multiplicity
 _atom_site_fract_x
 _atom_site_fract_y
 _atom_site_fract_z
 _atom_site_occupancy
  Li  Li0  1  0.66708400  0.66708400  0.91216200  1
  Li  Li1  1  0.00526900  0.00526900  0.99986500  1
  Li  Li2  1  0.02564800  0.02564800  0.47861200  1
  Li  Li3  1  0.33745600  0.33745600  0.39487200  1
  Ti  Ti0  1  0.63653100  0.63653100  0.47270700  1
  Ti  Ti1  1  0.32450500  0.32450500  0.00894000  1
  Nb  Nb0  1  0.82371500  0.82371500  0.22859000  1
  Nb  Nb1  1  0.65905400  0.16026100  0.71796200  1
  Nb  Nb2  1  0.16026100  0.65905400  0.71796200  1
  Cu  Cu0  1  0.82942300  0.33804500  0.20421600  1
  Cu  Cu1  1  0.33804500  0.82942300  0.20421600  1
  Cu  Cu2  1  0.17137400  0.17137400  0.70653300  1
  O  O0  1  0.81150000  0.33673600  0.58730400  1
  O  O1  1  0.52186000  0.52186000  0.34719600  1
  O  O2  1  0.67199500  0.67199500  0.11258100  1
  O  O3  1  0.99750400  0.99750400  0.29206300  1
  O  O4  1  0.99852700  0.99852700  0.80960900  1
  O  O5  1  0.33673600  0.81150000  0.58730400  1
  O  O6  1  0.96761500  0.54215700  0.35948000  1
  O  O7  1  0.54215700  0.96761500  0.35948000  1
  O  O8  1  0.16583600  0.16583600  0.08675500  1
  O  O9  1  0.84490300  0.84490300  0.60954800  1
  O  O10  1  0.50147600  0.04170100  0.84867100  1
  O  O11  1  0.04170100  0.50147600  0.84867100  1
  O  O12  1  0.34626700  0.34626700  0.60288300  1
  O  O13  1  0.64349200  0.14709600  0.09011800  1
  O  O14  1  0.48431500  0.48431500  0.82944300  1
  O  O15  1  0.14709600  0.64349200  0.09011800  1
loop_
_geom_bond_atom_site_label_1
_geom_bond_atom_site_label_2
_geom_bond_distance
_geom_bond_site_symmetry_2
Li0 O2 1.984280 1_556
Li0 O11 2.053478 1_655
Li0 O10 2.053478 1_565
Li0 O14 2.171765 1_555
Li1 O4 1.885883 1_445
Li1 O8 1.973415 1_556
Li1 O13 2.087301 1_456
Li1 O15 2.087301 1_546
Li2 O3 1.887491 1_445
Li2 O5 2.004330 1_545
Li2 O0 2.004330 1_455
Li2 O9 2.254550 1_445
Li3 O6 1.990185 1_455
Li3 O7 1.990185 1_545
Li3 O1 1.999378 1_555
Li3 O12 2.063563 1_555
Nb0 O6 1.933894 1_555
Nb0 O7 1.933894 1_555
Nb0 O3 2.004030 1_555
Nb0 O2 2.050912 1_555
Nb0 O13 2.152605 1_565
Nb0 O15 2.152605 1_655
Nb1 O10 1.900125 1_555
Nb1 O9 2.005692 1_545
Nb1 O12 2.032244 1_555
Nb1 O4 2.033841 1_545
Nb1 O14 2.060001 1_555
Nb1 O0 2.113613 1_555
Nb2 O11 1.900125 1_555
Nb2 O9 2.005692 1_455
Nb2 O12 2.032244 1_555
Nb2 O4 2.033841 1_455
Nb2 O14 2.060001 1_555
Nb2 O5 2.113613 1_555
Cu0 O2 1.950050 1_555
Cu0 O3 1.964812 1_545
Cu0 O8 2.084373 1_655
Cu0 O1 2.124403 1_555
Cu0 O13 2.377473 1_555
Cu0 O6 2.476577 1_555
Cu1 O2 1.950050 1_555
Cu1 O3 1.964812 1_455
Cu1 O8 2.084373 1_565
Cu1 O1 2.124403 1_555
Cu1 O15 2.377473 1_555
Cu1 O7 2.476577 1_555
Cu2 O4 2.051807 1_445
Cu2 O12 2.073324 1_555
Cu2 O0 2.271100 1_455
Cu2 O5 2.271100 1_545
Cu2 O10 2.293112 1_555
Cu2 O11 2.293112 1_555
O0 Ti0 1.919598 1_555
O1 Ti0 1.803335 1_555
O5 Ti0 1.919598 1_555
O6 Ti0 2.078435 1_555
O7 Ti0 2.078435 1_555
O8 Ti1 1.817381 1_555
O9 Ti0 2.686431 1_555
O10 Ti1 2.209101 1_556
O11 Ti1 2.209101 1_556
O13 Ti1 1.884302 1_555
O14 Ti1 2.380045 1_556
O15 Ti1 1.884302 1_555
