# generated using pymatgen
data_Fe4O7F
_symmetry_space_group_name_H-M   'P 1'
_cell_length_a   9.66968756
_cell_length_b   9.66968756
_cell_length_c   4.59238313
_cell_angle_alpha   88.36988507
_cell_angle_beta   88.36988507
_cell_angle_gamma   36.45444278
_symmetry_Int_Tables_number   1
_chemical_formula_structural   Fe4O7F
_chemical_formula_sum   'Fe8 O14 F2'
_cell_volume   255.02847190
_cell_formula_units_Z   2
loop_
 _symmetry_equiv_pos_site_id
 _symmetry_equiv_pos_as_xyz
  1  'x, y, z'
loop_
 _atom_site_type_symbol
 _atom_site_label
 _atom_site_symmetry_multiplicity
 _atom_site_fract_x
 _atom_site_fract_y
 _atom_site_fract_z
 _atom_site_occupancy
  Fe  Fe0  1  0.87287900  0.87287900  0.49407200  1
  Fe  Fe1  1  0.62827300  0.62827300  0.51361000  1
  Fe  Fe2  1  0.12454500  0.12454500  0.49856900  1
  Fe  Fe3  1  0.38092500  0.38092500  0.52019500  1
  Fe  Fe4  1  0.50139600  0.99296400  0.99328800  1
  Fe  Fe5  1  0.23927700  0.75881300  0.99154600  1
  Fe  Fe6  1  0.99296400  0.50139600  0.99328800  1
  Fe  Fe7  1  0.75881300  0.23927700  0.99154600  1
  O  O0  1  0.94952100  0.94952100  0.79923000  1
  O  O1  1  0.45539000  0.45539000  0.81790500  1
  O  O2  1  0.69959600  0.69959600  0.80678600  1
  O  O3  1  0.20205400  0.20205400  0.80303100  1
  O  O4  1  0.57304200  0.07983400  0.69097100  1
  O  O5  1  0.82780100  0.32640600  0.69327900  1
  O  O6  1  0.07983400  0.57304200  0.69097100  1
  O  O7  1  0.32640600  0.82780100  0.69327900  1
  O  O8  1  0.92575800  0.42033100  0.30850300  1
  O  O9  1  0.42033100  0.92575800  0.30850300  1
  O  O10  1  0.17491600  0.67254200  0.30593800  1
  O  O11  1  0.67254200  0.17491600  0.30593800  1
  O  O12  1  0.04910600  0.04910600  0.19402400  1
  O  O13  1  0.79583900  0.79583900  0.19104000  1
  F  F0  1  0.55112700  0.55112700  0.20221800  1
  F  F1  1  0.30042500  0.30042500  0.19178800  1
loop_
_geom_bond_atom_site_label_1
_geom_bond_atom_site_label_2
_geom_bond_distance
_geom_bond_site_symmetry_2
Fe0 O6 1.961809 1_655
Fe0 O4 1.961809 1_565
Fe0 O11 1.969604 1_565
Fe0 O10 1.969604 1_655
Fe0 O13 2.014266 1_555
Fe0 O0 2.015964 1_555
Fe1 O2 1.906524 1_555
Fe1 O7 1.953860 1_555
Fe1 O5 1.953860 1_555
Fe1 O9 1.963178 1_555
Fe1 O8 1.963178 1_555
Fe2 O8 1.935606 1_455
Fe2 O9 1.935606 1_545
Fe2 O7 1.945904 1_545
Fe2 O5 1.945904 1_455
Fe2 O12 1.998101 1_555
Fe2 O3 2.025172 1_555
Fe3 O4 1.948092 1_555
Fe3 O6 1.948092 1_555
Fe3 O10 1.950727 1_555
Fe3 O11 1.950727 1_555
Fe3 O1 1.962717 1_555
Fe4 O2 1.937240 1_555
Fe4 O9 1.957976 1_556
Fe4 O3 1.964345 1_565
Fe4 O13 1.970471 1_556
Fe4 O4 1.981967 1_565
Fe5 O0 1.940995 1_455
Fe5 O1 1.945869 1_555
Fe5 O7 1.953853 1_555
Fe5 O12 1.968047 1_566
Fe5 O10 1.970619 1_556
Fe6 O2 1.937240 1_555
Fe6 O8 1.957976 1_556
Fe6 O3 1.964345 1_655
Fe6 O13 1.970471 1_556
Fe6 O6 1.981967 1_655
Fe7 O0 1.940995 1_545
Fe7 O1 1.945869 1_555
Fe7 O5 1.953853 1_555
Fe7 O12 1.968047 1_656
Fe7 O11 1.970619 1_556
F0 Fe1 2.043167 1_555
F0 Fe7 2.091867 1_554
F0 Fe5 2.091867 1_554
F1 Fe6 2.050792 1_454
F1 Fe4 2.050792 1_544
F1 Fe3 2.143532 1_555
