# generated using pymatgen
data_LiCuO2
_symmetry_space_group_name_H-M   'P 1'
_cell_length_a   5.36356400
_cell_length_b   5.44972790
_cell_length_c   6.79641523
_cell_angle_alpha   99.00871621
_cell_angle_beta   101.07283455
_cell_angle_gamma   105.51296804
_symmetry_Int_Tables_number   1
_chemical_formula_structural   LiCuO2
_chemical_formula_sum   'Li4 Cu4 O8'
_cell_volume   183.25964485
_cell_formula_units_Z   4
loop_
 _symmetry_equiv_pos_site_id
 _symmetry_equiv_pos_as_xyz
  1  'x, y, z'
loop_
 _atom_site_type_symbol
 _atom_site_label
 _atom_site_symmetry_multiplicity
 _atom_site_fract_x
 _atom_site_fract_y
 _atom_site_fract_z
 _atom_site_occupancy
  Li  Li0  1  0.47399800  0.21264200  0.55678400  1
  Li  Li1  1  0.57377400  0.65219000  0.85139500  1
  Li  Li2  1  0.42128500  0.89603000  0.14846400  1
  Li  Li3  1  0.41798100  0.38479700  0.12946000  1
  Cu  Cu0  1  0.03562700  0.44194800  0.74409300  1
  Cu  Cu1  1  0.03903500  0.94280900  0.74054700  1
  Cu  Cu2  1  0.94405100  0.05232100  0.25894700  1
  Cu  Cu3  1  0.95066200  0.55470100  0.26188000  1
  O  O0  1  0.26597900  0.77447700  0.85856000  1
  O  O1  1  0.29086200  0.27683100  0.81640400  1
  O  O2  1  0.19519800  0.37719900  0.32972400  1
  O  O3  1  0.19450500  0.88762800  0.33309300  1
  O  O4  1  0.79019800  0.61098200  0.66521300  1
  O  O5  1  0.80863700  0.11100000  0.63224100  1
  O  O6  1  0.70337000  0.71666400  0.15648000  1
  O  O7  1  0.70093900  0.22833000  0.19281400  1
loop_
_geom_bond_atom_site_label_1
_geom_bond_atom_site_label_2
_geom_bond_distance
_geom_bond_site_symmetry_2
Li0 O5 2.014586 1_555
Li0 O3 2.134664 1_545
Li0 O1 2.203827 1_555
Li0 O4 2.276286 1_555
Li0 O2 2.384561 1_555
Li1 O4 1.900977 1_555
Li1 O0 1.944512 1_555
Li1 O6 1.998384 1_556
Li1 O1 2.142955 1_555
Li2 O3 1.905422 1_555
Li2 O0 1.918454 1_554
Li2 O7 1.955148 1_565
Li2 O6 2.005915 1_555
Li3 O7 1.942168 1_555
Li3 O2 1.974323 1_555
Li3 O6 1.988696 1_555
Li3 O1 2.043070 1_554
Cu0 O5 1.831279 1_455
Cu0 O4 1.844200 1_455
Cu0 O0 1.845908 1_555
Cu0 O1 1.861270 1_555
Cu1 O5 1.837621 1_465
Cu1 O0 1.849117 1_555
Cu1 O4 1.862836 1_455
Cu1 O1 1.878080 1_565
Cu2 O2 1.840987 1_655
Cu2 O3 1.841355 1_645
Cu2 O7 1.844262 1_555
Cu2 O6 1.868194 1_545
Cu3 O7 1.844069 1_555
Cu3 O3 1.857204 1_655
Cu3 O2 1.858671 1_655
Cu3 O6 1.873702 1_555
