# generated using pymatgen
data_TbH12S2NO12
_symmetry_space_group_name_H-M   'P 1'
_cell_length_a   19.18964000
_cell_length_b   6.58484500
_cell_length_c   8.63336047
_cell_angle_alpha   83.87532459
_cell_angle_beta   90.00000000
_cell_angle_gamma   90.00000000
_symmetry_Int_Tables_number   1
_chemical_formula_structural   TbH12S2NO12
_chemical_formula_sum   'Tb4 H48 S8 N4 O48'
_cell_volume   1084.69151176
_cell_formula_units_Z   4
loop_
 _symmetry_equiv_pos_site_id
 _symmetry_equiv_pos_as_xyz
  1  'x, y, z'
loop_
 _atom_site_type_symbol
 _atom_site_label
 _atom_site_symmetry_multiplicity
 _atom_site_fract_x
 _atom_site_fract_y
 _atom_site_fract_z
 _atom_site_occupancy
  Tb  Tb0  1  0.62279800  0.84624900  0.29063400  1
  Tb  Tb1  1  0.12279800  0.15375100  0.20936600  1
  Tb  Tb2  1  0.37720200  0.15375100  0.70936600  1
  Tb  Tb3  1  0.87720200  0.84624900  0.79063400  1
  H  H0  1  0.52639600  0.72319500  0.01188800  1
  H  H1  1  0.02639600  0.27680500  0.48811200  1
  H  H2  1  0.47360400  0.27680500  0.98811200  1
  H  H3  1  0.97360400  0.72319500  0.51188800  1
  H  H4  1  0.58938400  0.86372800  0.95607300  1
  H  H5  1  0.08938400  0.13627200  0.54392700  1
  H  H6  1  0.41061600  0.13627200  0.04392700  1
  H  H7  1  0.91061600  0.86372800  0.45607300  1
  H  H8  1  0.63785000  0.81412700  0.65172500  1
  H  H9  1  0.13785000  0.18587300  0.84827500  1
  H  H10  1  0.36215000  0.18587300  0.34827500  1
  H  H11  1  0.86215000  0.81412700  0.15172500  1
  H  H12  1  0.56743800  0.70867800  0.61638700  1
  H  H13  1  0.06743800  0.29132200  0.88361300  1
  H  H14  1  0.43256200  0.29132200  0.38361300  1
  H  H15  1  0.93256200  0.70867800  0.11638700  1
  H  H16  1  0.58966600  0.47147400  0.84219500  1
  H  H17  1  0.08966600  0.52852600  0.65780500  1
  H  H18  1  0.41033400  0.52852600  0.15780500  1
  H  H19  1  0.91033400  0.47147400  0.34219500  1
  H  H20  1  0.60960400  0.26496700  0.93973300  1
  H  H21  1  0.10960400  0.73503300  0.56026700  1
  H  H22  1  0.39039600  0.73503300  0.06026700  1
  H  H23  1  0.89039600  0.26496700  0.43973300  1
  H  H24  1  0.46810000  0.75474900  0.26781200  1
  H  H25  1  0.96810000  0.24525100  0.23218800  1
  H  H26  1  0.53190000  0.24525100  0.73218800  1
  H  H27  1  0.03190000  0.75474900  0.76781200  1
  H  H28  1  0.47802300  0.82301700  0.43599400  1
  H  H29  1  0.97802300  0.17698300  0.06400600  1
  H  H30  1  0.52197700  0.17698300  0.56400600  1
  H  H31  1  0.02197700  0.82301700  0.93599400  1
  H  H32  1  0.67623700  0.33685900  0.68902900  1
  H  H33  1  0.17623700  0.66314100  0.81097100  1
  H  H34  1  0.32376300  0.66314100  0.31097100  1
  H  H35  1  0.82376300  0.33685900  0.18902900  1
  H  H36  1  0.76137700  0.38395200  0.70414900  1
  H  H37  1  0.26137700  0.61604800  0.79585100  1
  H  H38  1  0.23862300  0.61604800  0.29585100  1
  H  H39  1  0.73862300  0.38395200  0.20414900  1
  H  H40  1  0.73482100  0.21195400  0.58637600  1
  H  H41  1  0.23482100  0.78804600  0.91362400  1
  H  H42  1  0.26517900  0.78804600  0.41362400  1
  H  H43  1  0.76517900  0.21195400  0.08637600  1
  H  H44  1  0.72207300  0.46457000  0.53500700  1
  H  H45  1  0.22207300  0.53543000  0.96499300  1
  H  H46  1  0.27792700  0.53543000  0.46499300  1
  H  H47  1  0.77792700  0.46457000  0.03500700  1
  S  S0  1  0.77538200  0.86558300  0.41961300  1
  S  S1  1  0.27538200  0.13441700  0.08038700  1
  S  S2  1  0.22461800  0.13441700  0.58038700  1
  S  S3  1  0.72461800  0.86558300  0.91961300  1
  S  S4  1  0.57600300  0.30466200  0.26404300  1
  S  S5  1  0.07600300  0.69533800  0.23595700  1
  S  S6  1  0.42399700  0.69533800  0.73595700  1
  S  S7  1  0.92399700  0.30466200  0.76404300  1
  N  N0  1  0.72320100  0.34864100  0.62776500  1
  N  N1  1  0.22320100  0.65135900  0.87223500  1
  N  N2  1  0.27679900  0.65135900  0.37223500  1
  N  N3  1  0.77679900  0.34864100  0.12776500  1
  O  O0  1  0.83875700  0.90435500  0.32240000  1
  O  O1  1  0.33875700  0.09564500  0.17760000  1
  O  O2  1  0.16124300  0.09564500  0.67760000  1
  O  O3  1  0.66124300  0.90435500  0.82240000  1
  O  O4  1  0.79444400  0.85790300  0.58645600  1
  O  O5  1  0.29444400  0.14209700  0.91354400  1
  O  O6  1  0.20555600  0.14209700  0.41354400  1
  O  O7  1  0.70555600  0.85790300  0.08645600  1
  O  O8  1  0.72258900  0.03258000  0.38317100  1
  O  O9  1  0.22258900  0.96742000  0.11682900  1
  O  O10  1  0.27741100  0.96742000  0.61682900  1
  O  O11  1  0.77741100  0.03258000  0.88317100  1
  O  O12  1  0.73966700  0.67228800  0.38719200  1
  O  O13  1  0.23966700  0.32771200  0.11280800  1
  O  O14  1  0.26033300  0.32771200  0.61280800  1
  O  O15  1  0.76033300  0.67228800  0.88719200  1
  O  O16  1  0.61867300  0.48976300  0.28084900  1
  O  O17  1  0.11867300  0.51023700  0.21915100  1
  O  O18  1  0.38132700  0.51023700  0.71915100  1
  O  O19  1  0.88132700  0.48976300  0.78084900  1
  O  O20  1  0.50340900  0.35844900  0.22164200  1
  O  O21  1  0.00340900  0.64155100  0.27835800  1
  O  O22  1  0.49659100  0.64155100  0.77835800  1
  O  O23  1  0.99659100  0.35844900  0.72164200  1
  O  O24  1  0.60969500  0.18710700  0.14308800  1
  O  O25  1  0.10969500  0.81289300  0.35691200  1
  O  O26  1  0.39030500  0.81289300  0.85691200  1
  O  O27  1  0.89030500  0.18710700  0.64308800  1
  O  O28  1  0.57911200  0.16017000  0.41059700  1
  O  O29  1  0.07911200  0.83983000  0.08940300  1
  O  O30  1  0.42088800  0.83983000  0.58940300  1
  O  O31  1  0.92088800  0.16017000  0.91059700  1
  O  O32  1  0.56156200  0.81362500  0.04877300  1
  O  O33  1  0.06156200  0.18637500  0.45122700  1
  O  O34  1  0.43843800  0.18637500  0.95122700  1
  O  O35  1  0.93843800  0.81362500  0.54877300  1
  O  O36  1  0.61307900  0.74674800  0.56941400  1
  O  O37  1  0.11307900  0.25325200  0.93058600  1
  O  O38  1  0.38692100  0.25325200  0.43058600  1
  O  O39  1  0.88692100  0.74674800  0.06941400  1
  O  O40  1  0.60284300  0.33026300  0.83140900  1
  O  O41  1  0.10284300  0.66973700  0.66859100  1
  O  O42  1  0.39715700  0.66973700  0.16859100  1
  O  O43  1  0.89715700  0.33026300  0.33140900  1
  O  O44  1  0.50402600  0.79685100  0.34102100  1
  O  O45  1  0.00402600  0.20314900  0.15897900  1
  O  O46  1  0.49597400  0.20314900  0.65897900  1
  O  O47  1  0.99597400  0.79685100  0.84102100  1
loop_
_geom_bond_atom_site_label_1
_geom_bond_atom_site_label_2
_geom_bond_distance
_geom_bond_site_symmetry_2
H0 O32 0.975620 1_555
H1 O33 0.975620 1_555
H2 O34 0.975620 1_555
H3 O35 0.975620 1_555
H4 O32 0.988963 1_556
H5 O33 0.988963 1_555
H6 O34 0.988963 1_554
H7 O35 0.988963 1_555
H8 O36 0.997530 1_555
H9 O37 0.997530 1_555
H10 O38 0.997530 1_555
H11 O39 0.997530 1_555
H12 O36 0.986253 1_555
H13 O37 0.986253 1_555
H14 O38 0.986253 1_555
H15 O39 0.986253 1_555
H16 O40 0.977606 1_555
H17 O41 0.977606 1_555
H18 O42 0.977606 1_555
H19 O43 0.977606 1_555
H20 O40 0.995238 1_555
H21 O41 0.995238 1_555
H22 O42 0.995238 1_555
H23 O43 0.995238 1_555
H24 O44 0.994488 1_555
H25 O45 0.994488 1_655
H26 O46 0.994488 1_555
H27 O47 0.994488 1_455
H28 O44 0.990514 1_555
H29 O45 0.990514 1_655
H30 O46 0.990514 1_555
H31 O47 0.990514 1_455
H32 N0 1.043654 1_555
H33 N1 1.043654 1_555
H34 N2 1.043654 1_555
H35 N3 1.043654 1_555
H36 N0 1.028755 1_555
H37 N1 1.028755 1_555
H38 N2 1.028755 1_555
H39 N3 1.028755 1_555
H40 N0 1.027689 1_555
H41 N1 1.027689 1_555
H42 N2 1.027689 1_555
H43 N3 1.027689 1_555
H44 N0 1.045975 1_555
H45 N1 1.045975 1_555
H46 N2 1.045975 1_555
H47 N3 1.045975 1_555
O0 S0 1.484199 1_555
O1 S1 1.484199 1_555
O2 S2 1.484199 1_555
O3 S3 1.484199 1_555
O4 S0 1.481761 1_555
O4 Tb3 2.367770 1_555
O5 S1 1.481761 1_556
O5 Tb2 2.367770 1_555
O6 S2 1.481761 1_555
O6 Tb1 2.367770 1_555
O7 S3 1.481761 1_554
O7 Tb0 2.367770 1_555
O8 S0 1.503568 1_545
O8 Tb0 2.453547 1_545
O9 S1 1.503568 1_565
O9 Tb1 2.453547 1_565
O10 S2 1.503568 1_565
O10 Tb2 2.453547 1_565
O11 S3 1.503568 1_545
O11 Tb3 2.453547 1_545
O12 S0 1.498048 1_555
O12 Tb0 2.613987 1_555
O13 S1 1.498048 1_555
O13 Tb1 2.613987 1_555
O14 S2 1.498048 1_555
O14 Tb2 2.613987 1_555
O15 S3 1.498048 1_555
O15 Tb3 2.613987 1_555
O16 S4 1.488248 1_555
O16 Tb0 2.359243 1_555
O17 S5 1.488248 1_555
O17 Tb1 2.359243 1_555
O18 S6 1.488248 1_555
O18 Tb2 2.359243 1_555
O19 S7 1.488248 1_555
O19 Tb3 2.359243 1_555
O20 S4 1.473898 1_555
O21 S5 1.473898 1_555
O22 S6 1.473898 1_555
O23 S7 1.473898 1_555
O24 S4 1.510017 1_555
O24 Tb0 2.472553 1_545
O25 S5 1.510017 1_555
O25 Tb1 2.472553 1_565
O26 S6 1.510017 1_555
O26 Tb2 2.472553 1_565
O27 S7 1.510017 1_555
O27 Tb3 2.472553 1_545
O28 S4 1.500939 1_555
O28 Tb0 2.550537 1_545
O29 S5 1.500939 1_555
O29 Tb1 2.550537 1_565
O30 S6 1.500939 1_555
O30 Tb2 2.550537 1_565
O31 S7 1.500939 1_555
O31 Tb3 2.550537 1_545
O32 Tb0 2.425442 1_555
O33 Tb1 2.425442 1_555
O34 Tb2 2.425442 1_555
O35 Tb3 2.425442 1_555
O36 Tb0 2.433167 1_555
O37 Tb1 2.433167 1_556
O38 Tb2 2.433167 1_555
O39 Tb3 2.433167 1_554
O44 Tb0 2.336570 1_555
O45 Tb1 2.336570 1_555
O46 Tb2 2.336570 1_555
O47 Tb3 2.336570 1_555
