# generated using pymatgen
data_Li3SbS4
_symmetry_space_group_name_H-M   'P 1'
_cell_length_a   7.96028121
_cell_length_b   6.84945667
_cell_length_c   6.41356551
_cell_angle_alpha   90.00000000
_cell_angle_beta   90.00000000
_cell_angle_gamma   90.00000000
_symmetry_Int_Tables_number   1
_chemical_formula_structural   Li3SbS4
_chemical_formula_sum   'Li6 Sb2 S8'
_cell_volume   349.69068832
_cell_formula_units_Z   2
loop_
 _symmetry_equiv_pos_site_id
 _symmetry_equiv_pos_as_xyz
  1  'x, y, z'
loop_
 _atom_site_type_symbol
 _atom_site_label
 _atom_site_symmetry_multiplicity
 _atom_site_fract_x
 _atom_site_fract_y
 _atom_site_fract_z
 _atom_site_occupancy
  Li  Li0  1  0.00000000  0.15619580  0.50347225  1
  Li  Li1  1  0.24505180  0.32510434  0.99648556  1
  Li  Li2  1  0.25494820  0.67489566  0.49648556  1
  Li  Li3  1  0.50000000  0.84380420  0.00347225  1
  Li  Li4  1  0.74505180  0.67489566  0.49648556  1
  Li  Li5  1  0.75494820  0.32510434  0.99648556  1
  Sb  Sb0  1  0.00000000  0.82636608  0.99533273  1
  Sb  Sb1  1  0.50000000  0.17363392  0.49533273  1
  S  S0  1  0.00000000  0.14844532  0.11916114  1
  S  S1  1  0.00000000  0.82016856  0.62896572  1
  S  S2  1  0.24140277  0.66499250  0.11559851  1
  S  S3  1  0.25859623  0.33500750  0.61559851  1
  S  S4  1  0.50000000  0.17983144  0.12896572  1
  S  S5  1  0.50000000  0.85155468  0.61916114  1
  S  S6  1  0.74140277  0.33500750  0.61559851  1
  S  S7  1  0.75859723  0.66499250  0.11559851  1
loop_
_geom_bond_atom_site_label_1
_geom_bond_atom_site_label_2
_geom_bond_distance
_geom_bond_site_symmetry_2
Li0 S1 2.438274 1_545
Li0 S0 2.465376 1_555
Li0 S3 2.500921 1_555
Li0 S6 2.500928 1_455
Li1 S4 2.414695 1_556
Li1 S0 2.426590 1_556
Li1 S3 2.446163 1_555
Li1 S2 2.450359 1_556
Li2 S1 2.414695 1_555
Li2 S5 2.426590 1_555
Li2 S2 2.446163 1_555
Li2 S3 2.450359 1_555
Li3 S4 2.438274 1_565
Li3 S5 2.465376 1_554
Li3 S2 2.500928 1_555
Li3 S7 2.500928 1_555
Li4 S1 2.414695 1_655
Li4 S5 2.426590 1_555
Li4 S7 2.446163 1_555
Li4 S6 2.450359 1_555
Li5 S4 2.414695 1_556
Li5 S0 2.426590 1_656
Li5 S6 2.446163 1_555
Li5 S7 2.450359 1_556
S0 Sb0 2.344666 1_544
S1 Sb0 2.350102 1_555
S2 Sb0 2.347204 1_554
S3 Sb1 2.347210 1_555
S4 Sb1 2.350102 1_555
S5 Sb1 2.344666 1_565
S6 Sb1 2.347204 1_555
S7 Sb0 2.347204 1_654
