# generated using pymatgen
data_Li8MnFe7(BO3)8
_symmetry_space_group_name_H-M   'P 1'
_cell_length_a   5.24527400
_cell_length_b   9.05695058
_cell_length_c   11.53061298
_cell_angle_alpha   112.59035168
_cell_angle_beta   102.45953313
_cell_angle_gamma   89.68765662
_symmetry_Int_Tables_number   1
_chemical_formula_structural   Li8MnFe7(BO3)8
_chemical_formula_sum   'Li8 Mn1 Fe7 B8 O24'
_cell_volume   492.01165897
_cell_formula_units_Z   1
loop_
 _symmetry_equiv_pos_site_id
 _symmetry_equiv_pos_as_xyz
  1  'x, y, z'
loop_
 _atom_site_type_symbol
 _atom_site_label
 _atom_site_symmetry_multiplicity
 _atom_site_fract_x
 _atom_site_fract_y
 _atom_site_fract_z
 _atom_site_occupancy
  Li  Li0  1  0.02979200  0.03972600  0.41564900  1
  Li  Li1  1  0.29405700  0.28552700  0.91584800  1
  Li  Li2  1  0.48519800  0.50644700  0.66709600  1
  Li  Li3  1  0.26927200  0.24850600  0.16853200  1
  Li  Li4  1  0.52417400  0.53748900  0.41404000  1
  Li  Li5  1  0.79509400  0.78186000  0.91537300  1
  Li  Li6  1  0.98431600  0.00645000  0.66607400  1
  Li  Li7  1  0.76559200  0.74591500  0.16483300  1
  Mn  Mn0  1  0.27642000  0.93927500  0.88459500  1
  Fe  Fe0  1  0.01243500  0.35685100  0.38120600  1
  Fe  Fe1  1  0.47572900  0.15666200  0.63147500  1
  Fe  Fe2  1  0.24539100  0.56751400  0.13251300  1
  Fe  Fe3  1  0.52414000  0.85275100  0.38314800  1
  Fe  Fe4  1  0.77987000  0.43137500  0.88023800  1
  Fe  Fe5  1  0.75039200  0.06858500  0.13516000  1
  Fe  Fe6  1  0.97527800  0.65501400  0.63212200  1
  B  B0  1  0.01901700  0.68586300  0.37564200  1
  B  B1  1  0.26631700  0.60215100  0.87530500  1
  B  B2  1  0.23760400  0.89735900  0.12893600  1
  B  B3  1  0.47478800  0.81377200  0.62506400  1
  B  B4  1  0.51884100  0.18398100  0.37659300  1
  B  B5  1  0.76886200  0.10538000  0.87719100  1
  B  B6  1  0.73520800  0.39731600  0.12685800  1
  B  B7  1  0.97723400  0.31325200  0.62471700  1
  O  O0  1  0.02281100  0.10976100  0.86257000  1
  O  O1  1  0.10065900  0.71025900  0.84422900  1
  O  O2  1  0.16699700  0.49341200  0.91692800  1
  O  O3  1  0.08844500  0.17050400  0.61459600  1
  O  O4  1  0.10265000  0.42488200  0.59460600  1
  O  O5  1  0.23847600  0.84186400  0.66340200  1
  O  O6  1  0.26512800  0.66023300  0.34737700  1
  O  O7  1  0.52201000  0.60270900  0.86299400  1
  O  O8  1  0.59956300  0.21294400  0.84703600  1
  O  O9  1  0.40256600  0.08038200  0.41664000  1
  O  O10  1  0.39089200  0.31220700  0.36175800  1
  O  O11  1  0.67897800  0.99452900  0.91892500  1
  O  O12  1  0.34506700  0.01552300  0.09952200  1
  O  O13  1  0.58596400  0.66954200  0.61283700  1
  O  O14  1  0.59898200  0.92644100  0.59639300  1
  O  O15  1  0.39605400  0.79218600  0.16613100  1
  O  O16  1  0.46597700  0.38041900  0.11548400  1
  O  O17  1  0.74148800  0.34312500  0.66315900  1
  O  O18  1  0.76698800  0.15803600  0.34829600  1
  O  O19  1  0.90108200  0.58029900  0.41459200  1
  O  O20  1  0.89215800  0.81493100  0.36322400  1
  O  O21  1  0.84042500  0.51519200  0.09717200  1
  O  O22  1  0.89693000  0.29359800  0.16521100  1
  O  O23  1  0.96788900  0.88120600  0.11631300  1
loop_
_geom_bond_atom_site_label_1
_geom_bond_atom_site_label_2
_geom_bond_distance
_geom_bond_site_symmetry_2
Li0 O18 1.952641 1_455
Li0 O20 1.978356 1_445
Li0 O9 1.988441 1_555
Li0 O3 2.090901 1_555
Li1 O8 1.940621 1_555
Li1 O0 1.957551 1_555
Li1 O2 1.990268 1_555
Li1 O16 2.107958 1_556
Li2 O13 1.927161 1_555
Li2 O17 1.987543 1_555
Li2 O4 2.022067 1_555
Li2 O7 2.049466 1_555
Li3 O16 1.926990 1_555
Li3 O22 1.988379 1_455
Li3 O12 2.020195 1_555
Li3 O10 2.026575 1_555
Li4 O6 1.965275 1_555
Li4 O10 1.975844 1_555
Li4 O19 2.014914 1_555
Li4 O13 2.089800 1_555
Li5 O1 1.951836 1_655
Li5 O7 1.987059 1_555
Li5 O11 2.004990 1_555
Li5 O23 2.121430 1_556
Li6 O3 1.919546 1_655
Li6 O5 1.990229 1_645
Li6 O14 2.030704 1_545
Li6 O0 2.055642 1_655
Li7 O23 1.933228 1_555
Li7 O15 1.982878 1_555
Li7 O21 2.000012 1_555
Li7 O20 2.077277 1_555
Mn0 O0 2.085990 1_565
Mn0 O11 2.089100 1_555
Mn0 O1 2.112533 1_555
Mn0 O12 2.247452 1_566
Mn0 O5 2.318857 1_555
Fe0 O19 2.017555 1_455
Fe0 O10 2.065941 1_555
Fe0 O18 2.081673 1_455
Fe0 O4 2.234775 1_555
Fe0 O22 2.270381 1_455
Fe1 O3 2.006388 1_555
Fe1 O17 2.064111 1_555
Fe1 O14 2.092694 1_545
Fe1 O9 2.244736 1_555
Fe1 O8 2.278874 1_555
Fe2 O16 2.017344 1_555
Fe2 O15 2.048101 1_555
Fe2 O21 2.095656 1_455
Fe2 O2 2.253673 1_554
Fe2 O6 2.268446 1_555
Fe3 O20 2.005011 1_555
Fe3 O9 2.070363 1_565
Fe3 O6 2.070657 1_555
Fe3 O14 2.229579 1_555
Fe3 O15 2.288667 1_555
Fe4 O2 2.019181 1_655
Fe4 O8 2.058412 1_555
Fe4 O7 2.091652 1_555
Fe4 O21 2.266056 1_556
Fe4 O17 2.278578 1_555
Fe5 O23 2.007819 1_545
Fe5 O22 2.055153 1_555
Fe5 O12 2.098167 1_555
Fe5 O18 2.254432 1_555
Fe5 O11 2.263130 1_544
Fe6 O13 2.015037 1_555
Fe6 O5 2.059496 1_655
Fe6 O4 2.096328 1_655
Fe6 O1 2.243616 1_655
Fe6 O19 2.275601 1_555
B0 O20 1.381575 1_455
B0 O6 1.395253 1_555
B0 O19 1.398107 1_455
B1 O7 1.379027 1_555
B1 O2 1.395807 1_555
B1 O1 1.402867 1_555
B2 O15 1.390489 1_555
B2 O23 1.393230 1_455
B2 O12 1.395002 1_565
B3 O14 1.390792 1_555
B3 O5 1.393970 1_555
B3 O13 1.397139 1_555
B4 O10 1.386709 1_555
B4 O9 1.387885 1_555
B4 O18 1.406005 1_555
B5 O0 1.380913 1_655
B5 O11 1.391420 1_545
B5 O8 1.405747 1_555
B6 O21 1.389321 1_555
B6 O16 1.393528 1_555
B6 O22 1.395047 1_555
B7 O3 1.389468 1_655
B7 O17 1.392648 1_555
B7 O4 1.396772 1_655
