# generated using pymatgen
data_Li8MnO6
_symmetry_space_group_name_H-M   'P 1'
_cell_length_a   5.40003800
_cell_length_b   5.86014695
_cell_length_c   5.40002047
_cell_angle_alpha   117.43494996
_cell_angle_beta   59.99992772
_cell_angle_gamma   117.43490275
_symmetry_Int_Tables_number   1
_chemical_formula_structural   Li8MnO6
_chemical_formula_sum   'Li8 Mn1 O6'
_cell_volume   125.30768094
_cell_formula_units_Z   1
loop_
 _symmetry_equiv_pos_site_id
 _symmetry_equiv_pos_as_xyz
  1  'x, y, z'
loop_
 _atom_site_type_symbol
 _atom_site_label
 _atom_site_symmetry_multiplicity
 _atom_site_fract_x
 _atom_site_fract_y
 _atom_site_fract_z
 _atom_site_occupancy
  Li  Li0  1  0.09759600  0.35088400  0.48980900  1
  Li  Li1  1  0.51019500  0.64911600  0.23652100  1
  Li  Li2  1  0.23652000  0.64911400  0.90240600  1
  Li  Li3  1  0.34201100  0.02603500  0.34201200  1
  Li  Li4  1  0.65798800  0.97396700  0.65799200  1
  Li  Li5  1  0.76347900  0.35088800  0.09759700  1
  Li  Li6  1  0.48980500  0.35088500  0.76348300  1
  Li  Li7  1  0.90240300  0.64911700  0.51019400  1
  Mn  Mn0  1  0.00000500  0.99998800  0.99997800  1
  O  O0  1  0.22954900  0.76814700  0.62844100  1
  O  O1  1  0.37155600  0.23185600  0.08985700  1
  O  O2  1  0.08984900  0.23184900  0.77044700  1
  O  O3  1  0.91014900  0.76815400  0.22955600  1
  O  O4  1  0.62844400  0.76814600  0.91014700  1
  O  O5  1  0.77045100  0.23185400  0.37156200  1
loop_
_geom_bond_atom_site_label_1
_geom_bond_atom_site_label_2
_geom_bond_distance
_geom_bond_site_symmetry_2
Li0 O5 1.896641 1_455
Li0 O2 1.915402 1_555
Li0 O1 1.925417 1_555
Li0 O0 2.070834 1_555
Li1 O4 1.896691 1_554
Li1 O0 1.915397 1_555
Li1 O3 1.925424 1_555
Li1 O1 2.070818 1_555
Li2 O3 1.896696 1_456
Li2 O4 1.915389 1_555
Li2 O0 1.925486 1_555
Li2 O2 2.070843 1_555
Li3 O1 2.110241 1_555
Li3 O2 2.110250 1_555
Li3 O5 2.110300 1_555
Li3 O0 2.326799 1_545
Li3 O3 2.326821 1_445
Li3 O4 2.326832 1_544
Li4 O4 2.110243 1_555
Li4 O3 2.110249 1_555
Li4 O0 2.110297 1_555
Li4 O5 2.326796 1_565
Li4 O2 2.326814 1_665
Li4 O1 2.326830 1_566
Li5 O2 1.896691 1_654
Li5 O1 1.915381 1_555
Li5 O5 1.925493 1_555
Li5 O3 2.070848 1_555
Li6 O1 1.896687 1_556
Li6 O5 1.915400 1_555
Li6 O2 1.925438 1_555
Li6 O4 2.070823 1_555
Li7 O0 1.896646 1_655
Li7 O3 1.915414 1_555
Li7 O4 1.925419 1_555
Li7 O5 2.070834 1_555
Mn0 O0 1.990160 1_555
Mn0 O2 1.990211 1_565
Mn0 O4 1.990233 1_455
Mn0 O3 1.990258 1_456
Mn0 O1 1.990318 1_566
Mn0 O5 1.990354 1_466
