# generated using pymatgen
data_Li3V3O5F3
_symmetry_space_group_name_H-M   'P 1'
_cell_length_a   5.97688422
_cell_length_b   5.97725688
_cell_length_c   10.22338307
_cell_angle_alpha   106.21880523
_cell_angle_beta   88.83451774
_cell_angle_gamma   60.81665895
_symmetry_Int_Tables_number   1
_chemical_formula_structural   Li3V3O5F3
_chemical_formula_sum   'Li6 V6 O10 F6'
_cell_volume   300.79745498
_cell_formula_units_Z   2
loop_
 _symmetry_equiv_pos_site_id
 _symmetry_equiv_pos_as_xyz
  1  'x, y, z'
loop_
 _atom_site_type_symbol
 _atom_site_label
 _atom_site_symmetry_multiplicity
 _atom_site_fract_x
 _atom_site_fract_y
 _atom_site_fract_z
 _atom_site_occupancy
  Li  Li0  1  0.86504900  0.24581500  0.38081400  1
  Li  Li1  1  0.36496700  0.24578200  0.88086400  1
  Li  Li2  1  0.93652400  0.62064500  0.68411200  1
  Li  Li3  1  0.43655500  0.62058200  0.18402700  1
  Li  Li4  1  0.68818400  0.62604800  0.93786900  1
  Li  Li5  1  0.18818400  0.62595200  0.43776400  1
  V  V0  1  0.93670200  0.12306500  0.67804900  1
  V  V1  1  0.43689200  0.12325000  0.17820900  1
  V  V2  1  0.44500400  0.61474800  0.67806000  1
  V  V3  1  0.94514900  0.61503300  0.17826000  1
  V  V4  1  0.00566000  0.00527900  0.99967800  1
  V  V5  1  0.50561300  0.00516500  0.49960300  1
  O  O0  1  0.80201500  0.38426200  0.58189400  1
  O  O1  1  0.30197600  0.38407600  0.08182600  1
  O  O2  1  0.57445400  0.88024700  0.30573800  1
  O  O3  1  0.07446200  0.88036600  0.80588400  1
  O  O4  1  0.81235200  0.87682700  0.06424600  1
  O  O5  1  0.31225800  0.87666500  0.56424600  1
  O  O6  1  0.82862300  0.37607000  0.06902600  1
  O  O7  1  0.32891800  0.37588400  0.56885200  1
  O  O8  1  0.30698500  0.89769900  0.06899600  1
  O  O9  1  0.80681000  0.89773000  0.56877000  1
  F  F0  1  0.56914200  0.38099100  0.81166200  1
  F  F1  1  0.06918500  0.38102000  0.31163700  1
  F  F2  1  0.04074400  0.37039300  0.80746400  1
  F  F3  1  0.54088500  0.37051900  0.30753500  1
  F  F4  1  0.56329700  0.84784800  0.80744200  1
  F  F5  1  0.06341000  0.84803800  0.30747500  1
loop_
_geom_bond_atom_site_label_1
_geom_bond_atom_site_label_2
_geom_bond_distance
_geom_bond_site_symmetry_2
Li0 O0 1.940845 1_555
Li1 O1 1.939692 1_556
Li2 O0 2.012922 1_555
Li2 O7 2.146563 1_655
Li2 O9 2.147211 1_555
Li2 O3 2.202235 1_655
Li3 O1 2.013732 1_555
Li3 O6 2.144220 1_555
Li3 O8 2.144904 1_555
Li3 O2 2.201587 1_555
Li4 O4 2.123434 1_556
Li4 O8 2.162561 1_556
Li4 O6 2.162623 1_556
Li5 O5 2.123208 1_555
Li5 O7 2.162520 1_555
Li5 O9 2.162835 1_455
O0 V2 1.925859 1_555
O0 V0 1.927621 1_555
O1 V3 1.925920 1_455
O1 V1 1.927745 1_555
O2 V5 1.869628 1_565
O2 V1 2.102953 1_565
O2 V3 2.103239 1_555
O3 V4 1.868942 1_565
O3 V2 2.104160 1_555
O3 V0 2.104379 1_465
O4 V4 1.864761 1_664
O4 V1 2.067467 1_565
O4 V3 2.069433 1_555
O5 V5 1.865572 1_565
O5 V0 2.067321 1_465
O5 V2 2.068360 1_555
O6 V4 1.827304 1_654
O6 V3 1.970550 1_555
O7 V5 1.826955 1_555
O7 V2 1.968125 1_555
O8 V4 1.826563 1_564
O8 V1 1.970355 1_565
O9 V5 1.825171 1_565
O9 V0 1.969621 1_565
F0 Li1 1.972044 1_555
F0 Li4 2.077140 1_555
F0 V2 2.112968 1_555
F0 V0 2.113650 1_555
F1 Li0 1.971718 1_455
F1 Li5 2.076085 1_555
F1 V3 2.112042 1_455
F1 V1 2.113404 1_555
F2 Li1 1.958798 1_555
F2 V0 2.039620 1_455
F2 Li4 2.039677 1_455
F2 Li2 2.095908 1_455
F3 Li0 1.957885 1_555
F3 V1 2.038768 1_555
F3 Li5 2.039385 1_555
F3 Li3 2.096338 1_555
F4 Li1 1.960341 1_565
F4 Li4 2.038551 1_555
F4 V2 2.039604 1_555
F4 Li2 2.094024 1_555
F5 Li0 1.959554 1_465
F5 V3 2.038297 1_455
F5 Li5 2.038439 1_555
F5 Li3 2.094086 1_555
