# generated using pymatgen
data_FeCo(PO4)2
_symmetry_space_group_name_H-M   'P 1'
_cell_length_a   8.37318582
_cell_length_b   8.37318582
_cell_length_c   8.37318571
_cell_angle_alpha   62.07735818
_cell_angle_beta   62.07735818
_cell_angle_gamma   62.07736290
_symmetry_Int_Tables_number   1
_chemical_formula_structural   FeCo(PO4)2
_chemical_formula_sum   'Fe3 Co3 P6 O24'
_cell_volume   434.38143203
_cell_formula_units_Z   3
loop_
 _symmetry_equiv_pos_site_id
 _symmetry_equiv_pos_as_xyz
  1  'x, y, z'
loop_
 _atom_site_type_symbol
 _atom_site_label
 _atom_site_symmetry_multiplicity
 _atom_site_fract_x
 _atom_site_fract_y
 _atom_site_fract_z
 _atom_site_occupancy
  Fe  Fe0  1  0.35482700  0.35482700  0.35482700  1
  Fe  Fe1  1  0.14484500  0.14484500  0.14484500  1
  Fe  Fe2  1  0.64519600  0.64519600  0.64519600  1
  Co  Co0  1  0.99839900  0.99839900  0.99839900  1
  Co  Co1  1  0.85364000  0.85364000  0.85364000  1
  Co  Co2  1  0.50033800  0.50033800  0.50033800  1
  P  P0  1  0.45310700  0.75046100  0.04724800  1
  P  P1  1  0.75046100  0.04724800  0.45310700  1
  P  P2  1  0.04724800  0.45310700  0.75046100  1
  P  P3  1  0.95218600  0.54843100  0.24890200  1
  P  P4  1  0.24890200  0.95218600  0.54843100  1
  P  P5  1  0.54843100  0.24890200  0.95218600  1
  O  O0  1  0.67544100  0.89275500  0.49632600  1
  O  O1  1  0.89275500  0.49632600  0.67544100  1
  O  O2  1  0.49632600  0.67544100  0.89275500  1
  O  O3  1  0.25035800  0.90390400  0.06197100  1
  O  O4  1  0.60918900  0.82470800  0.00407400  1
  O  O5  1  0.43973900  0.59598300  0.24977900  1
  O  O6  1  0.90390400  0.06197100  0.25035800  1
  O  O7  1  0.59598300  0.24977900  0.43973900  1
  O  O8  1  0.99557000  0.39296800  0.17524000  1
  O  O9  1  0.24977900  0.43973900  0.59598300  1
  O  O10  1  0.93695400  0.75080900  0.09433500  1
  O  O11  1  0.17524000  0.99557000  0.39296800  1
  O  O12  1  0.82470800  0.00407400  0.60918900  1
  O  O13  1  0.06197100  0.25035800  0.90390400  1
  O  O14  1  0.74935700  0.56374200  0.40325200  1
  O  O15  1  0.00407400  0.60918900  0.82470800  1
  O  O16  1  0.40325200  0.74935700  0.56374200  1
  O  O17  1  0.09433500  0.93695400  0.75080800  1
  O  O18  1  0.56374200  0.40325200  0.74935700  1
  O  O19  1  0.39296800  0.17524000  0.99557000  1
  O  O20  1  0.75080800  0.09433500  0.93695400  1
  O  O21  1  0.50603000  0.32214600  0.10781500  1
  O  O22  1  0.10781500  0.50603000  0.32214600  1
  O  O23  1  0.32214600  0.10781500  0.50603000  1
loop_
_geom_bond_atom_site_label_1
_geom_bond_atom_site_label_2
_geom_bond_distance
_geom_bond_site_symmetry_2
Fe0 O23 1.925803 1_555
Fe0 O21 1.925803 1_555
Fe0 O22 1.925803 1_555
Fe0 O5 2.109969 1_555
Fe0 O9 2.109969 1_555
Fe0 O7 2.109969 1_555
Fe1 O19 1.925778 1_554
Fe1 O11 1.925778 1_545
Fe1 O8 1.925779 1_455
Fe1 O6 2.097571 1_455
Fe1 O13 2.097571 1_554
Fe1 O3 2.097571 1_545
Fe2 O0 1.921130 1_555
Fe2 O2 1.921130 1_555
Fe2 O1 1.921130 1_555
Fe2 O18 2.100482 1_555
Fe2 O14 2.100482 1_555
Fe2 O16 2.100482 1_555
Co0 O10 2.063975 1_556
Co0 O17 2.063983 1_655
Co0 O20 2.063983 1_565
Co0 O13 2.110489 1_665
Co0 O6 2.110489 1_566
Co0 O3 2.110489 1_656
Co1 O4 1.897049 1_556
Co1 O12 1.897049 1_565
Co1 O15 1.897049 1_655
Co1 O17 2.102088 1_655
Co1 O20 2.102088 1_565
Co1 O10 2.102089 1_556
Co2 O14 2.082143 1_555
Co2 O18 2.082143 1_555
Co2 O16 2.082143 1_555
Co2 O9 2.084027 1_555
Co2 O5 2.084027 1_555
Co2 O7 2.084028 1_555
O0 P1 1.519421 1_565
O1 P2 1.519421 1_655
O2 P0 1.519421 1_556
O3 P0 1.567645 1_555
O4 P0 1.527464 1_555
O5 P0 1.570003 1_555
O6 P1 1.567645 1_555
O7 P1 1.570004 1_555
O8 P3 1.518585 1_555
O9 P2 1.570003 1_555
O10 P3 1.568746 1_555
O11 P4 1.518585 1_555
O12 P1 1.527465 1_555
O13 P2 1.567645 1_555
O14 P3 1.570553 1_555
O15 P2 1.527465 1_555
O16 P4 1.570554 1_555
O17 P4 1.568740 1_555
O18 P5 1.570553 1_555
O19 P5 1.518585 1_555
O20 P5 1.568740 1_555
O21 P5 1.520370 1_554
O22 P3 1.520370 1_455
O23 P4 1.520370 1_545
