# generated using pymatgen
data_Li2FeF4
_symmetry_space_group_name_H-M   'P 1'
_cell_length_a   5.42164651
_cell_length_b   5.42164651
_cell_length_c   5.42164651
_cell_angle_alpha   126.43190925
_cell_angle_beta   126.43190925
_cell_angle_gamma   79.17942085
_symmetry_Int_Tables_number   1
_chemical_formula_structural   Li2FeF4
_chemical_formula_sum   'Li2 Fe1 F4'
_cell_volume   99.75540274
_cell_formula_units_Z   1
loop_
 _symmetry_equiv_pos_site_id
 _symmetry_equiv_pos_as_xyz
  1  'x, y, z'
loop_
 _atom_site_type_symbol
 _atom_site_label
 _atom_site_symmetry_multiplicity
 _atom_site_fract_x
 _atom_site_fract_y
 _atom_site_fract_z
 _atom_site_occupancy
  Li  Li0  1  0.50000000  0.50000000  0.00000000  1
  Li  Li1  1  0.25000000  0.75000000  0.50000000  1
  Fe  Fe0  1  0.00000000  0.00000000  0.00000000  1
  F  F0  1  0.18708400  0.67327300  0.07594800  1
  F  F1  1  0.88886400  0.81291600  0.48618800  1
  F  F2  1  0.59732500  0.11113600  0.92405200  1
  F  F3  1  0.32672700  0.40267500  0.51381200  1
loop_
_geom_bond_atom_site_label_1
_geom_bond_atom_site_label_2
_geom_bond_distance
_geom_bond_site_symmetry_2
F0 Li1 1.887055 1_555
F0 Li0 1.924088 1_555
F0 Fe0 2.007950 1_565
F1 Li1 1.887052 1_655
F1 Li0 1.924087 1_555
F1 Fe0 2.007955 1_666
F2 Li1 1.887055 1_545
F2 Li0 1.924088 1_556
F2 Fe0 2.007950 1_656
F3 Li1 1.887058 1_555
F3 Li0 1.924083 1_556
F3 Fe0 2.007951 1_555
