# generated using pymatgen
data_Li4TiCo5O12
_symmetry_space_group_name_H-M   'P 1'
_cell_length_a   4.92071833
_cell_length_b   4.92071833
_cell_length_c   9.95047102
_cell_angle_alpha   89.82833080
_cell_angle_beta   89.82833080
_cell_angle_gamma   119.69437717
_symmetry_Int_Tables_number   1
_chemical_formula_structural   Li4TiCo5O12
_chemical_formula_sum   'Li4 Ti1 Co5 O12'
_cell_volume   209.29208978
_cell_formula_units_Z   1
loop_
 _symmetry_equiv_pos_site_id
 _symmetry_equiv_pos_as_xyz
  1  'x, y, z'
loop_
 _atom_site_type_symbol
 _atom_site_label
 _atom_site_symmetry_multiplicity
 _atom_site_fract_x
 _atom_site_fract_y
 _atom_site_fract_z
 _atom_site_occupancy
  Li  Li0  1  0.34269900  0.83814400  0.74727200  1
  Li  Li1  1  0.16185600  0.65730100  0.25272800  1
  Li  Li2  1  0.83814400  0.34269900  0.74727200  1
  Li  Li3  1  0.65730100  0.16185600  0.25272800  1
  Ti  Ti0  1  0.00000000  0.00000000  0.00000000  1
  Co  Co0  1  0.16483200  0.83516800  0.50000000  1
  Co  Co1  1  0.66479700  0.33520300  0.00000000  1
  Co  Co2  1  0.33520300  0.66479700  0.00000000  1
  Co  Co3  1  0.83516800  0.16483200  0.50000000  1
  Co  Co4  1  0.50000000  0.50000000  0.50000000  1
  O  O0  1  0.34017400  0.99626900  0.10714800  1
  O  O1  1  0.00373100  0.65982600  0.89285200  1
  O  O2  1  0.49710700  0.83254700  0.39885800  1
  O  O3  1  0.83254700  0.49710700  0.39885800  1
  O  O4  1  0.16745300  0.50289300  0.60114200  1
  O  O5  1  0.82642400  0.82642400  0.59694100  1
  O  O6  1  0.50289300  0.16745300  0.60114200  1
  O  O7  1  0.99626900  0.34017400  0.10714800  1
  O  O8  1  0.66144900  0.66144900  0.10320200  1
  O  O9  1  0.65982600  0.00373100  0.89285200  1
  O  O10  1  0.33855100  0.33855100  0.89679800  1
  O  O11  1  0.17357600  0.17357600  0.40305900  1
loop_
_geom_bond_atom_site_label_1
_geom_bond_atom_site_label_2
_geom_bond_distance
_geom_bond_site_symmetry_2
Li0 O9 1.989559 1_565
Li0 O6 2.018656 1_565
Li0 O1 2.044097 1_555
Li0 O4 2.047395 1_555
Li1 O7 1.989559 1_455
Li1 O3 2.018656 1_455
Li1 O0 2.044097 1_555
Li1 O2 2.047395 1_555
Li2 O1 1.989559 1_655
Li2 O4 2.018656 1_655
Li2 O9 2.044097 1_555
Li2 O6 2.047395 1_555
Li3 O0 1.989559 1_545
Li3 O2 2.018656 1_545
Li3 O7 2.044097 1_555
Li3 O3 2.047395 1_555
Co0 O5 1.903782 1_455
Co0 O11 1.903782 1_565
Co0 O2 1.922880 1_555
Co0 O4 1.922880 1_555
Co0 O6 1.943886 1_565
Co0 O3 1.943886 1_455
Co1 O8 1.915199 1_555
Co1 O10 1.915199 1_554
Co1 O7 1.941338 1_555
Co1 O9 1.941338 1_554
Co1 O0 1.951815 1_545
Co1 O1 1.951815 1_654
Co2 O8 1.915199 1_555
Co2 O10 1.915199 1_554
Co2 O0 1.941338 1_555
Co2 O1 1.941338 1_554
Co2 O7 1.951815 1_455
Co2 O9 1.951815 1_564
Co3 O5 1.903782 1_545
Co3 O11 1.903782 1_655
Co3 O3 1.922880 1_555
Co3 O6 1.922880 1_555
Co3 O4 1.943886 1_655
Co3 O2 1.943886 1_545
Co4 O5 1.884919 1_555
Co4 O11 1.884919 1_555
Co4 O6 1.924596 1_555
Co4 O3 1.924596 1_555
Co4 O4 1.924596 1_555
Co4 O2 1.924596 1_555
O0 Ti0 1.995001 1_565
O1 Ti0 1.995001 1_566
O7 Ti0 1.995001 1_655
O8 Ti0 1.958313 1_665
O9 Ti0 1.995001 1_656
O10 Ti0 1.958313 1_556
