# generated using pymatgen
data_LiCrP2O7
_symmetry_space_group_name_H-M   'P 1'
_cell_length_a   8.12415500
_cell_length_b   5.01099200
_cell_length_c   13.70880627
_cell_angle_alpha   72.86415648
_cell_angle_beta   90.00000000
_cell_angle_gamma   90.00000000
_symmetry_Int_Tables_number   1
_chemical_formula_structural   LiCrP2O7
_chemical_formula_sum   'Li4 Cr4 P8 O28'
_cell_volume   533.31245431
_cell_formula_units_Z   4
loop_
 _symmetry_equiv_pos_site_id
 _symmetry_equiv_pos_as_xyz
  1  'x, y, z'
loop_
 _atom_site_type_symbol
 _atom_site_label
 _atom_site_symmetry_multiplicity
 _atom_site_fract_x
 _atom_site_fract_y
 _atom_site_fract_z
 _atom_site_occupancy
  Li  Li0  1  0.20432900  0.45399200  0.24421900  1
  Li  Li1  1  0.29567100  0.45399200  0.74421900  1
  Li  Li2  1  0.70432900  0.54600800  0.25578100  1
  Li  Li3  1  0.79567100  0.54600800  0.75578100  1
  Cr  Cr0  1  0.14631700  0.85843400  0.87030300  1
  Cr  Cr1  1  0.64631700  0.14156600  0.62969700  1
  Cr  Cr2  1  0.85368300  0.14156600  0.12969700  1
  Cr  Cr3  1  0.35368300  0.85843400  0.37030300  1
  P  P0  1  0.20474400  0.22401600  0.02205500  1
  P  P1  1  0.95827300  0.96019700  0.31929600  1
  P  P2  1  0.79525600  0.77598400  0.97794500  1
  P  P3  1  0.70474400  0.77598400  0.47794500  1
  P  P4  1  0.04172700  0.03980300  0.68070400  1
  P  P5  1  0.45827300  0.03980300  0.18070400  1
  P  P6  1  0.54172700  0.96019700  0.81929600  1
  P  P7  1  0.29525600  0.22401600  0.52205500  1
  O  O0  1  0.59030700  0.72579700  0.39585800  1
  O  O1  1  0.64736900  0.22013100  0.76903000  1
  O  O2  1  0.16943900  0.94693100  0.00138700  1
  O  O3  1  0.36626400  0.04626800  0.83499500  1
  O  O4  1  0.40969300  0.27420300  0.60414200  1
  O  O5  1  0.44246100  0.21926200  0.25495200  1
  O  O6  1  0.85263100  0.22013100  0.26903000  1
  O  O7  1  0.83056100  0.05306900  0.99861300  1
  O  O8  1  0.72255200  0.53219600  0.57508300  1
  O  O9  1  0.14736900  0.77986900  0.73097000  1
  O  O10  1  0.22255200  0.46780400  0.92491700  1
  O  O11  1  0.10981700  0.20362600  0.57043300  1
  O  O12  1  0.13373600  0.04626800  0.33499500  1
  O  O13  1  0.09030700  0.27420300  0.10414200  1
  O  O14  1  0.94246100  0.78073800  0.24504800  1
  O  O15  1  0.05753900  0.21926200  0.75495200  1
  O  O16  1  0.55753900  0.78073800  0.74504800  1
  O  O17  1  0.86626400  0.95373200  0.66500500  1
  O  O18  1  0.60981700  0.79637400  0.92956700  1
  O  O19  1  0.66943900  0.05306900  0.49861300  1
  O  O20  1  0.77744800  0.53219600  0.07508300  1
  O  O21  1  0.90969300  0.72579700  0.89585800  1
  O  O22  1  0.33056100  0.94693100  0.50138700  1
  O  O23  1  0.63373600  0.95373200  0.16500500  1
  O  O24  1  0.27744800  0.46780400  0.42491700  1
  O  O25  1  0.89018300  0.79637400  0.42956700  1
  O  O26  1  0.39018300  0.20362600  0.07043300  1
  O  O27  1  0.35263100  0.77986900  0.23097000  1
loop_
_geom_bond_atom_site_label_1
_geom_bond_atom_site_label_2
_geom_bond_distance
_geom_bond_site_symmetry_2
Li0 O27 1.994093 1_555
Li0 O12 2.133905 1_555
Li0 O5 2.246317 1_555
Li0 O13 2.525218 1_555
Li0 O24 2.568070 1_555
Li0 O14 2.686631 1_455
Li1 O9 1.994093 1_555
Li1 O3 2.133905 1_555
Li1 O15 2.246317 1_555
Li1 O4 2.525218 1_555
Li1 O10 2.568070 1_555
Li1 O16 2.686631 1_555
Li2 O6 1.994093 1_555
Li2 O23 2.133905 1_555
Li2 O14 2.246317 1_555
Li2 O0 2.525218 1_555
Li2 O20 2.568070 1_555
Li2 O5 2.686631 1_555
Li3 O1 1.994093 1_555
Li3 O17 2.133905 1_555
Li3 O16 2.246317 1_555
Li3 O21 2.525218 1_555
Li3 O8 2.568070 1_555
Li3 O15 2.686631 1_655
Cr0 O10 1.977907 1_555
Cr0 O2 1.982615 1_556
Cr0 O3 2.011143 1_565
Cr0 O21 2.030462 1_455
Cr0 O9 2.060735 1_555
Cr0 O15 2.145966 1_565
Cr1 O8 1.977907 1_555
Cr1 O19 1.982615 1_555
Cr1 O17 2.011143 1_545
Cr1 O4 2.030462 1_555
Cr1 O1 2.060735 1_555
Cr1 O16 2.145966 1_545
Cr2 O20 1.977907 1_555
Cr2 O7 1.982615 1_554
Cr2 O23 2.011143 1_545
Cr2 O13 2.030462 1_655
Cr2 O6 2.060735 1_555
Cr2 O14 2.145966 1_545
Cr3 O24 1.977907 1_555
Cr3 O22 1.982615 1_555
Cr3 O12 2.011143 1_565
Cr3 O0 2.030462 1_555
Cr3 O27 2.060735 1_555
Cr3 O5 2.145966 1_565
O0 P3 1.536455 1_555
O1 P6 1.542435 1_545
O2 P0 1.523883 1_565
O3 P6 1.522844 1_545
O4 P7 1.536455 1_555
O5 P5 1.549381 1_555
O6 P1 1.542435 1_545
O7 P2 1.523883 1_545
O8 P3 1.525763 1_555
O9 P4 1.542435 1_565
O10 P0 1.525763 1_556
O11 P4 1.591798 1_555
O11 P7 1.637070 1_555
O12 P1 1.522844 1_445
O13 P0 1.536455 1_555
O14 P1 1.549381 1_555
O15 P4 1.549381 1_555
O16 P6 1.549381 1_555
O17 P4 1.522844 1_665
O18 P6 1.591798 1_555
O18 P2 1.637070 1_555
O19 P3 1.523883 1_545
O20 P2 1.525763 1_554
O21 P2 1.536455 1_555
O22 P7 1.523883 1_565
O23 P5 1.522844 1_565
O24 P7 1.525763 1_555
O25 P1 1.591798 1_555
O25 P3 1.637070 1_555
O26 P5 1.591798 1_555
O26 P0 1.637070 1_555
O27 P5 1.542435 1_565
