# generated using pymatgen
data_Ni3(P2O7)2
_symmetry_space_group_name_H-M   'P 1'
_cell_length_a   9.00388300
_cell_length_b   10.26396500
_cell_length_c   12.59342000
_cell_angle_alpha   90.00000000
_cell_angle_beta   90.00000000
_cell_angle_gamma   90.00000000
_symmetry_Int_Tables_number   1
_chemical_formula_structural   Ni3(P2O7)2
_chemical_formula_sum   'Ni12 P16 O56'
_cell_volume   1163.82770945
_cell_formula_units_Z   4
loop_
 _symmetry_equiv_pos_site_id
 _symmetry_equiv_pos_as_xyz
  1  'x, y, z'
loop_
 _atom_site_type_symbol
 _atom_site_label
 _atom_site_symmetry_multiplicity
 _atom_site_fract_x
 _atom_site_fract_y
 _atom_site_fract_z
 _atom_site_occupancy
  Ni  Ni0  1  0.24596100  0.62077000  0.75000000  1
  Ni  Ni1  1  0.24793200  0.11893700  0.01649100  1
  Ni  Ni2  1  0.24793200  0.11893700  0.48350900  1
  Ni  Ni3  1  0.25206800  0.61893700  0.51649100  1
  Ni  Ni4  1  0.25206800  0.61893700  0.98350900  1
  Ni  Ni5  1  0.25403900  0.12077000  0.25000000  1
  Ni  Ni6  1  0.74596100  0.87923000  0.75000000  1
  Ni  Ni7  1  0.74793200  0.38106300  0.01649100  1
  Ni  Ni8  1  0.74793200  0.38106300  0.48350900  1
  Ni  Ni9  1  0.75206800  0.88106300  0.51649100  1
  Ni  Ni10  1  0.75206800  0.88106300  0.98350900  1
  Ni  Ni11  1  0.75403900  0.37923000  0.25000000  1
  P  P0  1  0.07329900  0.36624700  0.62944400  1
  P  P1  1  0.07329900  0.36624700  0.87055600  1
  P  P2  1  0.08573100  0.88052000  0.63534100  1
  P  P3  1  0.08573100  0.88052000  0.86465900  1
  P  P4  1  0.41426900  0.38052000  0.36465900  1
  P  P5  1  0.41426900  0.38052000  0.13534100  1
  P  P6  1  0.42670100  0.86624700  0.12944400  1
  P  P7  1  0.42670100  0.86624700  0.37055600  1
  P  P8  1  0.57329900  0.13375300  0.87055600  1
  P  P9  1  0.57329900  0.13375300  0.62944400  1
  P  P10  1  0.58573100  0.61948000  0.86465900  1
  P  P11  1  0.58573100  0.61948000  0.63534100  1
  P  P12  1  0.91426900  0.11948000  0.13534100  1
  P  P13  1  0.91426900  0.11948000  0.36465900  1
  P  P14  1  0.92670100  0.63375300  0.12944400  1
  P  P15  1  0.92670100  0.63375300  0.37055600  1
  O  O0  1  0.04598700  0.31818700  0.75000000  1
  O  O1  1  0.07766000  0.60750800  0.41892800  1
  O  O2  1  0.07766000  0.60750800  0.08107200  1
  O  O3  1  0.08546300  0.12946000  0.13502500  1
  O  O4  1  0.08546300  0.12946000  0.36497500  1
  O  O5  1  0.13042400  0.94106700  0.75000000  1
  O  O6  1  0.14483600  0.96821400  0.55041000  1
  O  O7  1  0.14483600  0.96821400  0.94959000  1
  O  O8  1  0.15433800  0.25727700  0.57336500  1
  O  O9  1  0.15433800  0.25727700  0.92663500  1
  O  O10  1  0.15649000  0.74337700  0.63154700  1
  O  O11  1  0.15649000  0.74337700  0.86845300  1
  O  O12  1  0.16690200  0.49213100  0.63536000  1
  O  O13  1  0.16690200  0.49213100  0.86464000  1
  O  O14  1  0.33309800  0.99213100  0.13536000  1
  O  O15  1  0.33309800  0.99213100  0.36464000  1
  O  O16  1  0.34351000  0.24337700  0.13154700  1
  O  O17  1  0.34351000  0.24337700  0.36845300  1
  O  O18  1  0.34566200  0.75727700  0.07336500  1
  O  O19  1  0.34566200  0.75727700  0.42663500  1
  O  O20  1  0.35516400  0.46821400  0.05041000  1
  O  O21  1  0.35516400  0.46821400  0.44959000  1
  O  O22  1  0.36957600  0.44106700  0.25000000  1
  O  O23  1  0.41453700  0.62946000  0.63502500  1
  O  O24  1  0.41453700  0.62946000  0.86497500  1
  O  O25  1  0.42234000  0.10750800  0.58107200  1
  O  O26  1  0.42234000  0.10750800  0.91892800  1
  O  O27  1  0.45401300  0.81818700  0.25000000  1
  O  O28  1  0.54598700  0.18181300  0.75000000  1
  O  O29  1  0.57766000  0.89249200  0.08107200  1
  O  O30  1  0.57766000  0.89249200  0.41892800  1
  O  O31  1  0.58546300  0.37054000  0.13502500  1
  O  O32  1  0.58546300  0.37054000  0.36497500  1
  O  O33  1  0.63042400  0.55893300  0.75000000  1
  O  O34  1  0.64483600  0.53178600  0.55041000  1
  O  O35  1  0.64483600  0.53178600  0.94959000  1
  O  O36  1  0.65433800  0.24272300  0.57336500  1
  O  O37  1  0.65433800  0.24272300  0.92663500  1
  O  O38  1  0.65649000  0.75662300  0.86845300  1
  O  O39  1  0.65649000  0.75662300  0.63154700  1
  O  O40  1  0.66690200  0.00786900  0.86464000  1
  O  O41  1  0.66690200  0.00786900  0.63536000  1
  O  O42  1  0.83309800  0.50786900  0.13536000  1
  O  O43  1  0.83309800  0.50786900  0.36464000  1
  O  O44  1  0.84351000  0.25662300  0.13154700  1
  O  O45  1  0.84351000  0.25662300  0.36845300  1
  O  O46  1  0.84566200  0.74272300  0.07336500  1
  O  O47  1  0.84566200  0.74272300  0.42663500  1
  O  O48  1  0.85516400  0.03178600  0.05041000  1
  O  O49  1  0.85516400  0.03178600  0.44959000  1
  O  O50  1  0.86957600  0.05893300  0.25000000  1
  O  O51  1  0.91453700  0.87054000  0.63502500  1
  O  O52  1  0.91453700  0.87054000  0.86497500  1
  O  O53  1  0.92234000  0.39249200  0.91892800  1
  O  O54  1  0.92234000  0.39249200  0.58107200  1
  O  O55  1  0.95401300  0.68181300  0.25000000  1
loop_
_geom_bond_atom_site_label_1
_geom_bond_atom_site_label_2
_geom_bond_distance
_geom_bond_site_symmetry_2
Ni0 O12 2.081904 1_555
Ni0 O13 2.081904 1_555
Ni0 O23 2.099592 1_555
Ni0 O24 2.099592 1_555
Ni0 O11 2.111369 1_555
Ni0 O10 2.111369 1_555
Ni1 O7 1.991170 1_544
Ni1 O26 1.997334 1_554
Ni1 O9 2.001707 1_554
Ni1 O3 2.092821 1_555
Ni1 O16 2.114568 1_555
Ni1 O14 2.126715 1_545
Ni2 O6 1.991170 1_545
Ni2 O25 1.997334 1_555
Ni2 O8 2.001707 1_555
Ni2 O4 2.092821 1_555
Ni2 O17 2.114568 1_555
Ni2 O15 2.126715 1_545
Ni3 O21 1.991170 1_555
Ni3 O1 1.997334 1_555
Ni3 O19 2.001707 1_555
Ni3 O23 2.092821 1_555
Ni3 O10 2.114568 1_555
Ni3 O12 2.126715 1_555
Ni4 O20 1.991170 1_556
Ni4 O2 1.997334 1_556
Ni4 O18 2.001707 1_556
Ni4 O24 2.092821 1_555
Ni4 O11 2.114568 1_555
Ni4 O13 2.126715 1_555
Ni5 O14 2.081904 1_545
Ni5 O15 2.081904 1_545
Ni5 O4 2.099592 1_555
Ni5 O3 2.099592 1_555
Ni5 O17 2.111369 1_555
Ni5 O16 2.111369 1_555
Ni6 O40 2.081904 1_565
Ni6 O41 2.081904 1_565
Ni6 O51 2.099592 1_555
Ni6 O52 2.099592 1_555
Ni6 O38 2.111369 1_555
Ni6 O39 2.111369 1_555
Ni7 O35 1.991170 1_554
Ni7 O53 1.997334 1_554
Ni7 O37 2.001707 1_554
Ni7 O31 2.092821 1_555
Ni7 O44 2.114568 1_555
Ni7 O42 2.126715 1_555
Ni8 O34 1.991170 1_555
Ni8 O54 1.997334 1_555
Ni8 O36 2.001707 1_555
Ni8 O32 2.092821 1_555
Ni8 O45 2.114568 1_555
Ni8 O43 2.126715 1_555
Ni9 O49 1.991170 1_565
Ni9 O30 1.997334 1_555
Ni9 O47 2.001707 1_555
Ni9 O51 2.092821 1_555
Ni9 O39 2.114568 1_555
Ni9 O41 2.126715 1_565
Ni10 O48 1.991170 1_566
Ni10 O29 1.997334 1_556
Ni10 O46 2.001707 1_556
Ni10 O52 2.092821 1_555
Ni10 O38 2.114568 1_555
Ni10 O40 2.126715 1_565
Ni11 O42 2.081904 1_555
Ni11 O43 2.081904 1_555
Ni11 O31 2.099592 1_555
Ni11 O32 2.099592 1_555
Ni11 O45 2.111369 1_555
Ni11 O44 2.111369 1_555
O0 P1 1.615170 1_555
O0 P0 1.615170 1_555
O1 P15 1.513645 1_455
O2 P14 1.513645 1_455
O3 P12 1.544816 1_455
O4 P13 1.544816 1_455
O5 P2 1.622691 1_555
O5 P3 1.622691 1_555
O6 P2 1.495778 1_555
O7 P3 1.495778 1_555
O8 P0 1.510672 1_555
O9 P1 1.510672 1_555
O10 P2 1.545837 1_555
O11 P3 1.545837 1_555
O12 P0 1.544438 1_555
O13 P1 1.544438 1_555
O14 P6 1.544438 1_555
O15 P7 1.544438 1_555
O16 P5 1.545837 1_555
O17 P4 1.545837 1_555
O18 P6 1.510672 1_555
O19 P7 1.510672 1_555
O20 P5 1.495778 1_555
O21 P4 1.495778 1_555
O22 P4 1.622691 1_555
O22 P5 1.622691 1_555
O23 P11 1.544816 1_555
O24 P10 1.544816 1_555
O25 P9 1.513645 1_555
O26 P8 1.513645 1_555
O27 P7 1.615170 1_555
O27 P6 1.615170 1_555
O28 P9 1.615170 1_555
O28 P8 1.615170 1_555
O29 P6 1.513645 1_555
O30 P7 1.513645 1_555
O31 P5 1.544816 1_555
O32 P4 1.544816 1_555
O33 P11 1.622691 1_555
O33 P10 1.622691 1_555
O34 P11 1.495778 1_555
O35 P10 1.495778 1_555
O36 P9 1.510672 1_555
O37 P8 1.510672 1_555
O38 P10 1.545837 1_555
O39 P11 1.545837 1_555
O40 P8 1.544438 1_555
O41 P9 1.544438 1_555
O42 P14 1.544438 1_555
O43 P15 1.544438 1_555
O44 P12 1.545837 1_555
O45 P13 1.545837 1_555
O46 P14 1.510672 1_555
O47 P15 1.510672 1_555
O48 P12 1.495778 1_555
O49 P13 1.495778 1_555
O50 P13 1.622691 1_555
O50 P12 1.622691 1_555
O51 P2 1.544816 1_655
O52 P3 1.544816 1_655
O53 P1 1.513645 1_655
O54 P0 1.513645 1_655
O55 P14 1.615170 1_555
O55 P15 1.615170 1_555
