# generated using pymatgen
data_EuZr4O9
_symmetry_space_group_name_H-M   'P 1'
_cell_length_a   10.05211031
_cell_length_b   10.05211031
_cell_length_c   10.05211031
_cell_angle_alpha   159.47236018
_cell_angle_beta   149.71004214
_cell_angle_gamma   36.87112918
_symmetry_Int_Tables_number   1
_chemical_formula_structural   EuZr4O9
_chemical_formula_sum   'Eu1 Zr4 O9'
_cell_volume   179.42766117
_cell_formula_units_Z   1
loop_
 _symmetry_equiv_pos_site_id
 _symmetry_equiv_pos_as_xyz
  1  'x, y, z'
loop_
 _atom_site_type_symbol
 _atom_site_label
 _atom_site_symmetry_multiplicity
 _atom_site_fract_x
 _atom_site_fract_y
 _atom_site_fract_z
 _atom_site_occupancy
  Eu  Eu0  1  0.46567400  0.50000000  0.96567400  1
  Zr  Zr0  1  0.72178600  0.69636900  0.02541700  1
  Zr  Zr1  1  0.91523000  0.88840000  0.02683000  1
  Zr  Zr2  1  0.32904700  0.30363100  0.02541700  1
  Zr  Zr3  1  0.13843000  0.11160000  0.02683000  1
  O  O0  1  0.67192800  0.40088100  0.27104700  1
  O  O1  1  0.56990100  0.79971800  0.77018400  1
  O  O2  1  0.87016600  0.59911900  0.27104700  1
  O  O3  1  0.06811000  0.79687200  0.27123700  1
  O  O4  1  0.97046600  0.20028200  0.77018400  1
  O  O5  1  0.15525400  0.38996300  0.76529100  1
  O  O6  1  0.37532800  0.61003700  0.76529100  1
  O  O7  1  0.47436500  0.20312800  0.27123700  1
  O  O8  1  0.13210600  0.00000000  0.13210600  1
loop_
_geom_bond_atom_site_label_1
_geom_bond_atom_site_label_2
_geom_bond_distance
_geom_bond_site_symmetry_2
Eu0 O5 2.347811 1_555
Eu0 O6 2.347811 1_555
Eu0 O2 2.479210 1_556
Eu0 O0 2.479210 1_556
Eu0 O8 2.505539 1_566
Eu0 O8 2.505539 1_555
O0 Zr1 2.251590 1_556
O0 Zr1 2.251590 1_545
O0 Zr2 2.259390 1_555
O1 Zr1 2.162868 1_556
O1 Zr2 2.206001 1_566
O1 Zr2 2.206001 1_555
O1 Zr0 2.383801 1_556
O2 Zr3 2.251590 1_655
O2 Zr3 2.251590 1_666
O2 Zr0 2.259381 1_555
O3 Zr1 2.166867 1_455
O3 Zr2 2.237639 1_555
O3 Zr2 2.237645 1_566
O3 Zr0 2.311152 1_455
O4 Zr3 2.162859 1_656
O4 Zr0 2.206001 1_545
O4 Zr0 2.206001 1_556
O4 Zr2 2.383798 1_656
O5 Zr2 2.139624 1_556
O5 Zr1 2.185793 1_445
O5 Zr1 2.185793 1_456
O6 Zr0 2.139618 1_556
O6 Zr3 2.185793 1_566
O6 Zr3 2.185793 1_555
O7 Zr3 2.166873 1_555
O7 Zr0 2.237646 1_545
O7 Zr0 2.237646 1_556
O7 Zr2 2.311136 1_555
O8 Zr3 2.199142 1_555
O8 Zr1 2.199142 1_445
