# generated using pymatgen
data_Mo2H5C5N3O14
_symmetry_space_group_name_H-M   'P 1'
_cell_length_a   7.73478600
_cell_length_b   12.26623600
_cell_length_c   18.32156300
_cell_angle_alpha   90.00000000
_cell_angle_beta   90.00000000
_cell_angle_gamma   90.00000000
_symmetry_Int_Tables_number   1
_chemical_formula_structural   Mo2H5C5N3O14
_chemical_formula_sum   'Mo8 H20 C20 N12 O56'
_cell_volume   1738.28962839
_cell_formula_units_Z   4
loop_
 _symmetry_equiv_pos_site_id
 _symmetry_equiv_pos_as_xyz
  1  'x, y, z'
loop_
 _atom_site_type_symbol
 _atom_site_label
 _atom_site_symmetry_multiplicity
 _atom_site_fract_x
 _atom_site_fract_y
 _atom_site_fract_z
 _atom_site_occupancy
  Mo  Mo0  1  0.70399600  0.47077400  0.33090200  1
  Mo  Mo1  1  0.20399600  0.02922600  0.16909800  1
  Mo  Mo2  1  0.29600400  0.52922600  0.83090200  1
  Mo  Mo3  1  0.79600400  0.97077400  0.66909800  1
  Mo  Mo4  1  0.29600400  0.52922600  0.66909800  1
  Mo  Mo5  1  0.79600400  0.97077400  0.83090200  1
  Mo  Mo6  1  0.70399600  0.47077400  0.16909800  1
  Mo  Mo7  1  0.20399600  0.02922600  0.33090200  1
  H  H0  1  0.20200100  0.41894800  0.25000000  1
  H  H1  1  0.70200100  0.08105200  0.25000000  1
  H  H2  1  0.79799900  0.58105200  0.75000000  1
  H  H3  1  0.29799900  0.91894800  0.75000000  1
  H  H4  1  0.55376700  0.71885400  0.45941400  1
  H  H5  1  0.05376700  0.78114600  0.04058600  1
  H  H6  1  0.44623300  0.28114600  0.95941400  1
  H  H7  1  0.94623300  0.21885400  0.54058600  1
  H  H8  1  0.44623300  0.28114600  0.54058600  1
  H  H9  1  0.94623300  0.21885400  0.95941400  1
  H  H10  1  0.55376700  0.71885400  0.04058600  1
  H  H11  1  0.05376700  0.78114600  0.45941400  1
  H  H12  1  0.59080100  0.21109400  0.34680700  1
  H  H13  1  0.09080100  0.28890600  0.15319300  1
  H  H14  1  0.40919900  0.78890600  0.84680700  1
  H  H15  1  0.90919900  0.71109400  0.65319300  1
  H  H16  1  0.40919900  0.78890600  0.65319300  1
  H  H17  1  0.90919900  0.71109400  0.84680700  1
  H  H18  1  0.59080100  0.21109400  0.15319300  1
  H  H19  1  0.09080100  0.28890600  0.34680700  1
  C  C0  1  0.34487100  0.42750200  0.25000000  1
  C  C1  1  0.84487100  0.07249800  0.25000000  1
  C  C2  1  0.65512900  0.57249800  0.75000000  1
  C  C3  1  0.15512900  0.92750200  0.75000000  1
  C  C4  1  0.62208300  0.24565800  0.40118500  1
  C  C5  1  0.12208300  0.25434200  0.09881500  1
  C  C6  1  0.37791700  0.75434200  0.90118500  1
  C  C7  1  0.87791700  0.74565800  0.59881500  1
  C  C8  1  0.37791700  0.75434200  0.59881500  1
  C  C9  1  0.87791700  0.74565800  0.90118500  1
  C  C10  1  0.62208300  0.24565800  0.09881500  1
  C  C11  1  0.12208300  0.25434200  0.40118500  1
  C  C12  1  0.62916500  0.68934300  0.41172100  1
  C  C13  1  0.12916500  0.81065700  0.08827900  1
  C  C14  1  0.37083500  0.31065700  0.91172100  1
  C  C15  1  0.87083500  0.18934300  0.58827900  1
  C  C16  1  0.37083500  0.31065700  0.58827900  1
  C  C17  1  0.87083500  0.18934300  0.91172100  1
  C  C18  1  0.62916500  0.68934300  0.08827900  1
  C  C19  1  0.12916500  0.81065700  0.41172100  1
  N  N0  1  0.77261100  0.45338400  0.55455500  1
  N  N1  1  0.27261100  0.04661600  0.94544500  1
  N  N2  1  0.22738900  0.54661600  0.05455500  1
  N  N3  1  0.72738900  0.95338400  0.44544500  1
  N  N4  1  0.22738900  0.54661600  0.44544500  1
  N  N5  1  0.72738900  0.95338400  0.05455500  1
  N  N6  1  0.77261100  0.45338400  0.94544500  1
  N  N7  1  0.27261100  0.04661600  0.55455500  1
  N  N8  1  0.56407900  0.22526900  0.75000000  1
  N  N9  1  0.06407900  0.27473100  0.75000000  1
  N  N10  1  0.43592100  0.77473100  0.25000000  1
  N  N11  1  0.93592100  0.72526900  0.25000000  1
  O  O0  1  0.72824200  0.36838400  0.25000000  1
  O  O1  1  0.22824200  0.13161600  0.25000000  1
  O  O2  1  0.27175800  0.63161600  0.75000000  1
  O  O3  1  0.77175800  0.86838400  0.75000000  1
  O  O4  1  0.66176800  0.56824300  0.25000000  1
  O  O5  1  0.16176800  0.93175700  0.25000000  1
  O  O6  1  0.33823200  0.43175700  0.75000000  1
  O  O7  1  0.83823200  0.06824300  0.75000000  1
  O  O8  1  0.60742900  0.58523500  0.39771100  1
  O  O9  1  0.10742900  0.91476500  0.10228900  1
  O  O10  1  0.39257100  0.41476500  0.89771100  1
  O  O11  1  0.89257100  0.08523500  0.60228900  1
  O  O12  1  0.39257100  0.41476500  0.60228900  1
  O  O13  1  0.89257100  0.08523500  0.89771100  1
  O  O14  1  0.60742900  0.58523500  0.10228900  1
  O  O15  1  0.10742900  0.91476500  0.39771100  1
  O  O16  1  0.68141300  0.34696200  0.39883500  1
  O  O17  1  0.18141300  0.15303800  0.10116500  1
  O  O18  1  0.31858700  0.65303800  0.89883500  1
  O  O19  1  0.81858700  0.84696200  0.60116500  1
  O  O20  1  0.31858700  0.65303800  0.60116500  1
  O  O21  1  0.81858700  0.84696200  0.89883500  1
  O  O22  1  0.68141300  0.34696200  0.10116500  1
  O  O23  1  0.18141300  0.15303800  0.39883500  1
  O  O24  1  0.41730000  0.43169100  0.31229300  1
  O  O25  1  0.91730000  0.06830900  0.18770700  1
  O  O26  1  0.58270000  0.56830900  0.81229300  1
  O  O27  1  0.08270000  0.93169100  0.68770700  1
  O  O28  1  0.58270000  0.56830900  0.68770700  1
  O  O29  1  0.08270000  0.93169100  0.81229300  1
  O  O30  1  0.41730000  0.43169100  0.18770700  1
  O  O31  1  0.91730000  0.06830900  0.31229300  1
  O  O32  1  0.91870500  0.49445900  0.34661100  1
  O  O33  1  0.41870500  0.00554100  0.15338900  1
  O  O34  1  0.08129500  0.50554100  0.84661100  1
  O  O35  1  0.58129500  0.99445900  0.65338900  1
  O  O36  1  0.08129500  0.50554100  0.65338900  1
  O  O37  1  0.58129500  0.99445900  0.84661100  1
  O  O38  1  0.91870500  0.49445900  0.15338900  1
  O  O39  1  0.41870500  0.00554100  0.34661100  1
  O  O40  1  0.72082700  0.75219300  0.37607900  1
  O  O41  1  0.22082700  0.74780700  0.12392100  1
  O  O42  1  0.27917300  0.24780700  0.87607900  1
  O  O43  1  0.77917300  0.25219300  0.62392100  1
  O  O44  1  0.27917300  0.24780700  0.62392100  1
  O  O45  1  0.77917300  0.25219300  0.87607900  1
  O  O46  1  0.72082700  0.75219300  0.12392100  1
  O  O47  1  0.22082700  0.74780700  0.37607900  1
  O  O48  1  0.60529000  0.19517100  0.45848300  1
  O  O49  1  0.10529000  0.30482900  0.04151700  1
  O  O50  1  0.39471000  0.80482900  0.95848300  1
  O  O51  1  0.89471000  0.69517100  0.54151700  1
  O  O52  1  0.39471000  0.80482900  0.54151700  1
  O  O53  1  0.89471000  0.69517100  0.95848300  1
  O  O54  1  0.60529000  0.19517100  0.04151700  1
  O  O55  1  0.10529000  0.30482900  0.45848300  1
loop_
_geom_bond_atom_site_label_1
_geom_bond_atom_site_label_2
_geom_bond_distance
_geom_bond_site_symmetry_2
Mo0 O32 1.710339 1_555
Mo0 O4 1.932138 1_555
Mo0 O0 1.951826 1_555
Mo0 O16 1.971321 1_555
Mo0 O8 2.006842 1_555
Mo0 O24 2.294236 1_555
Mo1 O33 1.710339 1_555
Mo1 O5 1.932138 1_545
Mo1 O1 1.951826 1_555
Mo1 O17 1.971321 1_555
Mo1 O9 2.006842 1_545
Mo1 O25 2.294236 1_455
Mo2 O34 1.710339 1_555
Mo2 O6 1.932138 1_555
Mo2 O2 1.951826 1_555
Mo2 O18 1.971321 1_555
Mo2 O10 2.006842 1_555
Mo2 O26 2.294236 1_555
Mo3 O35 1.710339 1_555
Mo3 O7 1.932138 1_565
Mo3 O3 1.951826 1_555
Mo3 O19 1.971321 1_555
Mo3 O11 2.006842 1_565
Mo3 O27 2.294236 1_655
Mo4 O36 1.710339 1_555
Mo4 O6 1.932138 1_555
Mo4 O2 1.951826 1_555
Mo4 O20 1.971321 1_555
Mo4 O12 2.006842 1_555
Mo4 O28 2.294236 1_555
Mo5 O37 1.710339 1_555
Mo5 O7 1.932138 1_565
Mo5 O3 1.951826 1_555
Mo5 O21 1.971321 1_555
Mo5 O13 2.006842 1_565
Mo5 O29 2.294236 1_655
Mo6 O38 1.710339 1_555
Mo6 O4 1.932138 1_555
Mo6 O0 1.951826 1_555
Mo6 O22 1.971321 1_555
Mo6 O14 2.006842 1_555
Mo6 O30 2.294236 1_555
Mo7 O39 1.710339 1_555
Mo7 O5 1.932138 1_545
Mo7 O1 1.951826 1_555
Mo7 O23 1.971321 1_555
Mo7 O15 2.006842 1_545
Mo7 O31 2.294236 1_455
C0 H0 1.110039 1_555
C0 O24 1.272426 1_555
C0 O30 1.272426 1_555
C1 H1 1.110039 1_555
C1 O31 1.272426 1_555
C1 O25 1.272426 1_555
C2 H2 1.110039 1_555
C2 O26 1.272426 1_555
C2 O28 1.272426 1_555
C3 H3 1.110039 1_555
C3 O29 1.272426 1_555
C3 O27 1.272426 1_555
C4 H12 1.109454 1_555
C4 O48 1.225742 1_555
C4 O16 1.325349 1_555
C5 H13 1.109454 1_555
C5 O49 1.225742 1_555
C5 O17 1.325349 1_555
C6 H14 1.109454 1_555
C6 O50 1.225742 1_555
C6 O18 1.325349 1_555
C7 H15 1.109454 1_555
C7 O51 1.225742 1_555
C7 O19 1.325349 1_555
C8 H16 1.109454 1_555
C8 O52 1.225742 1_555
C8 O20 1.325349 1_555
C9 H17 1.109454 1_555
C9 O53 1.225742 1_555
C9 O21 1.325349 1_555
C10 H18 1.109454 1_555
C10 O54 1.225742 1_555
C10 O22 1.325349 1_555
C11 H19 1.109454 1_555
C11 O55 1.225742 1_555
C11 O23 1.325349 1_555
C12 H4 1.111165 1_555
C12 O40 1.234273 1_555
C12 O8 1.313360 1_555
C13 H5 1.111165 1_555
C13 O41 1.234273 1_555
C13 O9 1.313360 1_555
C14 H6 1.111165 1_555
C14 O42 1.234273 1_555
C14 O10 1.313360 1_555
C15 H7 1.111165 1_555
C15 O43 1.234273 1_555
C15 O11 1.313360 1_555
C16 H8 1.111165 1_555
C16 O44 1.234273 1_555
C16 O12 1.313360 1_555
C17 H9 1.111165 1_555
C17 O45 1.234273 1_555
C17 O13 1.313360 1_555
C18 H10 1.111165 1_555
C18 O46 1.234273 1_555
C18 O14 1.313360 1_555
C19 H11 1.111165 1_555
C19 O47 1.234273 1_555
C19 O15 1.313360 1_555
