# generated using pymatgen
data_Li2TiV3O8
_symmetry_space_group_name_H-M   'P 1'
_cell_length_a   5.94526690
_cell_length_b   5.94526690
_cell_length_c   9.57359588
_cell_angle_alpha   89.95159168
_cell_angle_beta   89.95159168
_cell_angle_gamma   120.51803825
_symmetry_Int_Tables_number   1
_chemical_formula_structural   Li2TiV3O8
_chemical_formula_sum   'Li4 Ti2 V6 O16'
_cell_volume   291.51237396
_cell_formula_units_Z   2
loop_
 _symmetry_equiv_pos_site_id
 _symmetry_equiv_pos_as_xyz
  1  'x, y, z'
loop_
 _atom_site_type_symbol
 _atom_site_label
 _atom_site_symmetry_multiplicity
 _atom_site_fract_x
 _atom_site_fract_y
 _atom_site_fract_z
 _atom_site_occupancy
  Li  Li0  1  0.32790200  0.66359500  0.89302700  1
  Li  Li1  1  0.00361500  0.00726800  0.99508200  1
  Li  Li2  1  0.00726800  0.00361500  0.49508200  1
  Li  Li3  1  0.66359500  0.32790200  0.39302700  1
  Ti  Ti0  1  0.33199100  0.67122100  0.49554200  1
  Ti  Ti1  1  0.67122100  0.33199100  0.99554200  1
  V  V0  1  0.65645900  0.82631000  0.21387400  1
  V  V1  1  0.17025300  0.82869600  0.21335100  1
  V  V2  1  0.82869600  0.17025300  0.71335100  1
  V  V3  1  0.35177000  0.17937500  0.71994000  1
  V  V4  1  0.17937500  0.35177000  0.21994000  1
  V  V5  1  0.82631000  0.65645900  0.71387400  1
  O  O0  1  0.66742100  0.83367600  0.59551300  1
  O  O1  1  0.47575700  0.51175300  0.34441700  1
  O  O2  1  0.32337200  0.64548400  0.10129600  1
  O  O3  1  0.00632000  0.01724600  0.30695000  1
  O  O4  1  0.01724600  0.00632000  0.80695000  1
  O  O5  1  0.17034000  0.33956400  0.59662700  1
  O  O6  1  0.48040700  0.95642200  0.34155900  1
  O  O7  1  0.03844300  0.51326500  0.34307200  1
  O  O8  1  0.83159900  0.17077500  0.09367000  1
  O  O9  1  0.17077500  0.83159900  0.59367000  1
  O  O10  1  0.95642200  0.48040700  0.84155900  1
  O  O11  1  0.51326500  0.03844300  0.84307200  1
  O  O12  1  0.64548400  0.32337200  0.60129600  1
  O  O13  1  0.83367600  0.66742100  0.09551300  1
  O  O14  1  0.51175300  0.47575700  0.84441700  1
  O  O15  1  0.33956400  0.17034000  0.09662700  1
loop_
_geom_bond_atom_site_label_1
_geom_bond_atom_site_label_2
_geom_bond_distance
_geom_bond_site_symmetry_2
Li0 O10 1.966330 1_455
Li0 O14 1.974380 1_555
Li0 O11 1.978059 1_565
Li0 O2 1.996119 1_556
Li1 O4 1.802996 1_555
Li1 O8 1.972629 1_456
Li1 O15 1.977999 1_556
Li1 O13 1.987311 1_446
Li2 O3 1.802996 1_555
Li2 O9 1.972629 1_545
Li2 O5 1.977999 1_555
Li2 O0 1.987311 1_445
Li3 O6 1.966330 1_545
Li3 O1 1.974380 1_555
Li3 O7 1.978059 1_655
Li3 O12 1.996119 1_555
O0 Ti0 1.968343 1_555
O0 V2 2.062333 1_565
O0 V5 2.072929 1_555
O1 V4 1.932097 1_555
O1 V0 2.041258 1_555
O1 Ti0 2.132113 1_555
O2 V4 1.883887 1_555
O2 V0 2.020467 1_555
O2 V1 2.042885 1_555
O3 V4 1.904064 1_555
O3 V0 2.003966 1_445
O3 V1 2.029599 1_545
O4 V3 1.904064 1_555
O4 V5 2.003966 1_445
O4 V2 2.029599 1_455
O5 Ti0 1.954155 1_555
O5 V2 2.074938 1_455
O5 V3 2.123146 1_555
O6 V0 2.002479 1_555
O6 V1 2.016586 1_555
O6 Ti0 2.073854 1_555
O7 V4 1.957238 1_555
O7 V1 2.043310 1_555
O7 Ti0 2.097731 1_555
O8 Ti1 1.907489 1_554
O8 V0 2.104952 1_545
O8 V4 2.154318 1_655
O9 Ti0 1.907489 1_555
O9 V5 2.104952 1_455
O9 V3 2.154318 1_565
O10 V5 2.002479 1_555
O10 V2 2.016586 1_555
O10 Ti1 2.073854 1_555
O11 V3 1.957238 1_555
O11 V2 2.043310 1_555
O11 Ti1 2.097731 1_555
O12 V3 1.883887 1_555
O12 V5 2.020467 1_555
O12 V2 2.042885 1_555
O13 Ti1 1.968343 1_554
O13 V1 2.062333 1_655
O13 V0 2.072929 1_555
O14 V3 1.932097 1_555
O14 V5 2.041258 1_555
O14 Ti1 2.132113 1_555
O15 Ti1 1.954155 1_554
O15 V1 2.074938 1_545
O15 V4 2.123146 1_555
