# generated using pymatgen
data_Mn(SbO3)4
_symmetry_space_group_name_H-M   'P 1'
_cell_length_a   5.50347882
_cell_length_b   10.99599669
_cell_length_c   9.74331556
_cell_angle_alpha   27.53178627
_cell_angle_beta   50.51016129
_cell_angle_gamma   56.18034243
_symmetry_Int_Tables_number   1
_chemical_formula_structural   Mn(SbO3)4
_chemical_formula_sum   'Mn1 Sb4 O12'
_cell_volume   210.29274532
_cell_formula_units_Z   1
loop_
 _symmetry_equiv_pos_site_id
 _symmetry_equiv_pos_as_xyz
  1  'x, y, z'
loop_
 _atom_site_type_symbol
 _atom_site_label
 _atom_site_symmetry_multiplicity
 _atom_site_fract_x
 _atom_site_fract_y
 _atom_site_fract_z
 _atom_site_occupancy
  Mn  Mn0  1  0.31166800  0.00100200  0.29011400  1
  Sb  Sb0  1  0.01834500  0.00109800  0.96988500  1
  Sb  Sb1  1  0.95535900  0.49601100  0.00985000  1
  Sb  Sb2  1  0.49368500  0.98878600  0.51346800  1
  Sb  Sb3  1  0.48470300  0.50824100  0.47299200  1
  O  O0  1  0.35687900  0.28575200  0.12016100  1
  O  O1  1  0.25206700  0.15430400  0.57491600  1
  O  O2  1  0.10020200  0.31427400  0.74451300  1
  O  O3  1  0.90614500  0.17218200  0.22830600  1
  O  O4  1  0.38000700  0.82451300  0.09163700  1
  O  O5  1  0.74906900  0.35487900  0.38478400  1
  O  O6  1  0.21419000  0.66140300  0.58541600  1
  O  O7  1  0.58681600  0.17507300  0.89074700  1
  O  O8  1  0.11913900  0.83749900  0.68651600  1
  O  O9  1  0.86516100  0.68689400  0.23494800  1
  O  O10  1  0.68283700  0.88516400  0.35919100  1
  O  O11  1  0.58303200  0.65292300  0.90185700  1
loop_
_geom_bond_atom_site_label_1
_geom_bond_atom_site_label_2
_geom_bond_distance
_geom_bond_site_symmetry_2
Mn0 O10 1.892088 1_545
Mn0 O7 1.902868 1_554
Mn0 O6 1.929383 1_545
Mn0 O0 1.937950 1_555
Mn0 O8 1.967914 1_545
Mn0 O3 1.977217 1_455
O0 Sb1 2.076099 1_455
O0 Sb2 2.157564 1_545
O1 Sb2 1.914446 1_545
O1 Sb0 1.980050 1_555
O2 Sb3 1.980533 1_555
O2 Sb0 1.985300 1_555
O3 Sb2 2.018942 1_545
O3 Sb1 2.044970 1_555
O4 Sb0 1.937795 1_564
O4 Sb3 1.951349 1_555
O5 Sb1 1.916843 1_555
O5 Sb3 1.986984 1_555
O6 Sb1 2.119258 1_456
O6 Sb3 2.158538 1_555
O7 Sb3 2.115707 1_555
O7 Sb0 2.133088 1_655
O8 Sb1 2.003329 1_456
O8 Sb2 2.069173 1_555
O9 Sb3 1.985984 1_555
O9 Sb0 1.991445 1_664
O10 Sb2 2.090089 1_555
O10 Sb0 2.135116 1_664
O11 Sb2 1.939228 1_555
O11 Sb1 1.967192 1_556
