# generated using pymatgen
data_TaFeO4
_symmetry_space_group_name_H-M   'P 1'
_cell_length_a   6.57362806
_cell_length_b   6.57362806
_cell_length_c   6.66283842
_cell_angle_alpha   73.39150151
_cell_angle_beta   73.39150151
_cell_angle_gamma   34.05375952
_symmetry_Int_Tables_number   1
_chemical_formula_structural   TaFeO4
_chemical_formula_sum   'Ta2 Fe2 O8'
_cell_volume   153.85363816
_cell_formula_units_Z   2
loop_
 _symmetry_equiv_pos_site_id
 _symmetry_equiv_pos_as_xyz
  1  'x, y, z'
loop_
 _atom_site_type_symbol
 _atom_site_label
 _atom_site_symmetry_multiplicity
 _atom_site_fract_x
 _atom_site_fract_y
 _atom_site_fract_z
 _atom_site_occupancy
  Ta  Ta0  1  0.89514192  0.89514192  0.22360485  1
  Ta  Ta1  1  0.10485808  0.10485808  0.77639515  1
  Fe  Fe0  1  0.80488906  0.80488906  0.80567604  1
  Fe  Fe1  1  0.19511094  0.19511094  0.19432396  1
  O  O0  1  0.94539071  0.94539071  0.86900856  1
  O  O1  1  0.86290619  0.86290619  0.51058578  1
  O  O2  1  0.63284318  0.63284318  0.79895156  1
  O  O3  1  0.74513526  0.74513526  0.14818265  1
  O  O4  1  0.25486474  0.25486474  0.85181735  1
  O  O5  1  0.36715682  0.36715682  0.20104844  1
  O  O6  1  0.13709381  0.13709381  0.48941422  1
  O  O7  1  0.05460929  0.05460929  0.13099144  1
loop_
_geom_bond_atom_site_label_1
_geom_bond_atom_site_label_2
_geom_bond_distance
_geom_bond_site_symmetry_2
Fe0 O1 1.881570 1_555
Fe0 O0 1.934754 1_555
Fe0 O4 2.019801 1_655
Fe0 O4 2.019801 1_565
Fe0 O2 2.176599 1_555
Fe0 O3 2.178808 1_556
Fe1 O6 1.881570 1_555
Fe1 O7 1.934754 1_555
Fe1 O3 2.019801 1_545
Fe1 O3 2.019801 1_455
Fe1 O5 2.176599 1_555
Fe1 O4 2.178808 1_554
O0 Ta1 1.913079 1_665
O0 Ta0 2.255818 1_556
O1 Ta0 1.832242 1_555
O2 Ta1 1.970576 1_565
O2 Ta1 1.970576 1_655
O3 Ta0 2.091666 1_555
O4 Ta1 2.091666 1_555
O5 Ta0 1.970576 1_455
O5 Ta0 1.970576 1_545
O6 Ta1 1.832242 1_555
O7 Ta0 1.913079 1_445
O7 Ta1 2.255818 1_554
