# generated using pymatgen
data_Li4Ti5Nb3O16
_symmetry_space_group_name_H-M   'P 1'
_cell_length_a   5.98120310
_cell_length_b   5.98120310
_cell_length_c   9.87279881
_cell_angle_alpha   89.92316914
_cell_angle_beta   89.92316914
_cell_angle_gamma   59.80463194
_symmetry_Int_Tables_number   1
_chemical_formula_structural   Li4Ti5Nb3O16
_chemical_formula_sum   'Li4 Ti5 Nb3 O16'
_cell_volume   305.27353136
_cell_formula_units_Z   1
loop_
 _symmetry_equiv_pos_site_id
 _symmetry_equiv_pos_as_xyz
  1  'x, y, z'
loop_
 _atom_site_type_symbol
 _atom_site_label
 _atom_site_symmetry_multiplicity
 _atom_site_fract_x
 _atom_site_fract_y
 _atom_site_fract_z
 _atom_site_occupancy
  Li  Li0  1  0.66809300  0.66809300  0.09922000  1
  Li  Li1  1  0.00656300  0.00656300  0.00922700  1
  Li  Li2  1  0.00613500  0.00613500  0.50504300  1
  Li  Li3  1  0.33312900  0.33312900  0.61028800  1
  Ti  Ti0  1  0.34256100  0.82943800  0.78330600  1
  Ti  Ti1  1  0.66963100  0.66963100  0.50563700  1
  Ti  Ti2  1  0.82943800  0.34256100  0.78330600  1
  Ti  Ti3  1  0.17592900  0.17592900  0.28046000  1
  Ti  Ti4  1  0.33164900  0.33164900  0.00742000  1
  Nb  Nb0  1  0.82820900  0.82820900  0.78658800  1
  Nb  Nb1  1  0.19389400  0.63364000  0.28696100  1
  Nb  Nb2  1  0.63364000  0.19389400  0.28696100  1
  O  O0  1  0.33814400  0.83168800  0.40493500  1
  O  O1  1  0.52071300  0.52071300  0.66454800  1
  O  O2  1  0.65993900  0.65993900  0.89830500  1
  O  O3  1  0.00464200  0.00464200  0.68699000  1
  O  O4  1  0.00418400  0.00418400  0.19102800  1
  O  O5  1  0.83168800  0.33814400  0.40493500  1
  O  O6  1  0.51575600  0.95925500  0.65700400  1
  O  O7  1  0.95925500  0.51575600  0.65700400  1
  O  O8  1  0.16685800  0.16685800  0.89903000  1
  O  O9  1  0.83130200  0.83130200  0.40985900  1
  O  O10  1  0.03490400  0.48061900  0.15394900  1
  O  O11  1  0.48061900  0.03490400  0.15394900  1
  O  O12  1  0.31580400  0.31580400  0.42047800  1
  O  O13  1  0.16547900  0.66608500  0.90266800  1
  O  O14  1  0.48490900  0.48490900  0.14037400  1
  O  O15  1  0.66608500  0.16547900  0.90266800  1
loop_
_geom_bond_atom_site_label_1
_geom_bond_atom_site_label_2
_geom_bond_distance
_geom_bond_site_symmetry_2
Li0 O14 1.941957 1_555
Li0 O10 1.972237 1_655
Li0 O11 1.972237 1_565
Li0 O2 1.985525 1_554
Li1 O4 1.795016 1_555
Li1 O8 1.985224 1_554
Li1 O13 2.052659 1_544
Li1 O15 2.052659 1_454
Li2 O3 1.796369 1_555
Li2 O5 1.980466 1_455
Li2 O0 1.980466 1_545
Li2 O9 2.043369 1_445
Li3 O12 1.882825 1_555
Li3 O6 1.986972 1_545
Li3 O7 1.986972 1_455
Li3 O1 2.018447 1_555
Nb0 O2 2.062864 1_555
Nb0 O7 2.067354 1_555
Nb0 O6 2.067354 1_555
Nb0 O3 2.075756 1_665
Nb0 O13 2.087739 1_655
Nb0 O15 2.087739 1_565
Nb1 O10 2.085318 1_555
Nb1 O14 2.086794 1_555
Nb1 O12 2.117725 1_555
Nb1 O0 2.130413 1_555
Nb1 O4 2.136388 1_565
Nb1 O9 2.234059 1_455
Nb2 O11 2.085318 1_555
Nb2 O14 2.086794 1_555
Nb2 O12 2.117725 1_555
Nb2 O5 2.130413 1_555
Nb2 O4 2.136388 1_655
Nb2 O9 2.234059 1_545
O0 Ti1 1.982070 1_555
O0 Ti3 2.162847 1_565
O1 Ti0 1.985721 1_555
O1 Ti2 1.985721 1_555
O1 Ti1 2.199706 1_555
O2 Ti0 1.996805 1_555
O2 Ti2 1.996805 1_555
O3 Ti0 1.989832 1_545
O3 Ti2 1.989832 1_455
O4 Ti3 1.989060 1_555
O5 Ti1 1.982070 1_555
O5 Ti3 2.162847 1_655
O6 Ti0 2.008467 1_555
O6 Ti1 2.116769 1_555
O7 Ti2 2.008467 1_555
O7 Ti1 2.116769 1_555
O8 Ti4 2.017682 1_556
O8 Ti0 2.086224 1_545
O8 Ti2 2.086224 1_455
O9 Ti1 1.923528 1_555
O10 Ti3 2.010764 1_555
O10 Ti4 2.107779 1_555
O11 Ti3 2.010764 1_555
O11 Ti4 2.107779 1_555
O12 Ti3 2.005263 1_555
O13 Ti4 2.013968 1_556
O13 Ti0 2.121246 1_555
O14 Ti4 2.062839 1_555
O15 Ti4 2.013968 1_556
O15 Ti2 2.121246 1_555
