# generated using pymatgen
data_Li3Co2O2F3
_symmetry_space_group_name_H-M   'P 1'
_cell_length_a   10.60525293
_cell_length_b   10.60525293
_cell_length_c   10.60525293
_cell_angle_alpha   164.00756084
_cell_angle_beta   164.00756084
_cell_angle_gamma   22.69138228
_symmetry_Int_Tables_number   1
_chemical_formula_structural   Li3Co2O2F3
_chemical_formula_sum   'Li3 Co2 O2 F3'
_cell_volume   90.52214645
_cell_formula_units_Z   1
loop_
 _symmetry_equiv_pos_site_id
 _symmetry_equiv_pos_as_xyz
  1  'x, y, z'
loop_
 _atom_site_type_symbol
 _atom_site_label
 _atom_site_symmetry_multiplicity
 _atom_site_fract_x
 _atom_site_fract_y
 _atom_site_fract_z
 _atom_site_occupancy
  Li  Li0  1  0.59652000  0.59652000  0.00000000  1
  Li  Li1  1  0.40348000  0.40348000  0.00000000  1
  Li  Li2  1  0.00000000  0.00000000  0.00000000  1
  Co  Co0  1  0.20693200  0.20693200  0.00000000  1
  Co  Co1  1  0.79306800  0.79306800  0.00000000  1
  O  O0  1  0.69495200  0.69495200  0.00000000  1
  O  O1  1  0.30504800  0.30504800  0.00000000  1
  F  F0  1  0.09582100  0.09582100  0.00000000  1
  F  F1  1  0.90417900  0.90417900  0.00000000  1
  F  F2  1  0.50000000  0.50000000  0.00000000  1
loop_
_geom_bond_atom_site_label_1
_geom_bond_atom_site_label_2
_geom_bond_distance
_geom_bond_site_symmetry_2
Li0 O0 2.046993 1_555
Li1 O1 2.046993 1_555
Co0 O1 2.040422 1_555
Co0 O0 2.101173 1_444
Co0 O0 2.101173 1_545
Co0 O0 2.101173 1_455
Co0 O0 2.101173 1_556
Co0 F0 2.310666 1_555
Co1 O0 2.040422 1_555
Co1 O1 2.101173 1_554
Co1 O1 2.101173 1_655
Co1 O1 2.101173 1_565
Co1 O1 2.101173 1_666
Co1 F1 2.310666 1_555
F0 Li2 1.992695 1_555
F0 Li0 2.086402 1_444
F0 Li0 2.086402 1_545
F0 Li0 2.086402 1_455
F0 Li0 2.086402 1_556
F1 Li2 1.992695 1_665
F1 Li1 2.086402 1_666
F1 Li1 2.086402 1_554
F1 Li1 2.086402 1_565
F1 Li1 2.086402 1_655
F2 Li1 2.007231 1_555
F2 Li0 2.007231 1_555
F2 Li2 2.086351 1_666
F2 Li2 2.086351 1_554
F2 Li2 2.086351 1_565
F2 Li2 2.086351 1_655
