# generated using pymatgen
data_PrBiO4
_symmetry_space_group_name_H-M   'P 1'
_cell_length_a   5.61547189
_cell_length_b   5.70105124
_cell_length_c   10.89375836
_cell_angle_alpha   90.00000000
_cell_angle_beta   90.00000000
_cell_angle_gamma   90.00000000
_symmetry_Int_Tables_number   1
_chemical_formula_structural   PrBiO4
_chemical_formula_sum   'Pr4 Bi4 O16'
_cell_volume   348.75379306
_cell_formula_units_Z   4
loop_
 _symmetry_equiv_pos_site_id
 _symmetry_equiv_pos_as_xyz
  1  'x, y, z'
loop_
 _atom_site_type_symbol
 _atom_site_label
 _atom_site_symmetry_multiplicity
 _atom_site_fract_x
 _atom_site_fract_y
 _atom_site_fract_z
 _atom_site_occupancy
  Pr  Pr0  1  0.19566191  0.75000000  0.75000000  1
  Pr  Pr1  1  0.30433809  0.75000000  0.25000000  1
  Pr  Pr2  1  0.69566191  0.25000000  0.75000000  1
  Pr  Pr3  1  0.80433809  0.25000000  0.25000000  1
  Bi  Bi0  1  0.25000000  0.20209329  0.00000000  1
  Bi  Bi1  1  0.25000000  0.29790671  0.50000000  1
  Bi  Bi2  1  0.75000000  0.70209329  0.50000000  1
  Bi  Bi3  1  0.75000000  0.79790671  0.00000000  1
  O  O0  1  0.98324103  0.44753249  0.61557328  1
  O  O1  1  0.98324103  0.05246751  0.88442672  1
  O  O2  1  0.11899637  0.42812627  0.12886694  1
  O  O3  1  0.11899637  0.07187373  0.37113306  1
  O  O4  1  0.38100363  0.07187373  0.62886694  1
  O  O5  1  0.38100363  0.42812627  0.87113306  1
  O  O6  1  0.51675897  0.05246751  0.11557328  1
  O  O7  1  0.51675897  0.44753249  0.38442672  1
  O  O8  1  0.48324103  0.55246751  0.61557328  1
  O  O9  1  0.48324103  0.94753249  0.88442672  1
  O  O10  1  0.61899637  0.57187373  0.12886694  1
  O  O11  1  0.61899637  0.92812627  0.37113306  1
  O  O12  1  0.88100363  0.92812627  0.62886694  1
  O  O13  1  0.88100363  0.57187373  0.87113306  1
  O  O14  1  0.01675897  0.94753249  0.11557328  1
  O  O15  1  0.01675897  0.55246751  0.38442672  1
loop_
_geom_bond_atom_site_label_1
_geom_bond_atom_site_label_2
_geom_bond_distance
_geom_bond_site_symmetry_2
Bi0 O5 2.042673 1_554
Bi0 O2 2.042673 1_555
Bi0 O1 2.134651 1_454
Bi0 O6 2.134651 1_555
Bi0 O14 2.325249 1_545
Bi0 O9 2.325249 1_544
Bi1 O3 2.042673 1_555
Bi1 O4 2.042673 1_555
Bi1 O0 2.134651 1_455
Bi1 O7 2.134651 1_555
Bi1 O15 2.325249 1_555
Bi1 O8 2.325249 1_555
Bi2 O11 2.042673 1_555
Bi2 O12 2.042673 1_555
Bi2 O15 2.134651 1_655
Bi2 O8 2.134651 1_555
Bi2 O7 2.325249 1_555
Bi2 O0 2.325249 1_555
Bi3 O10 2.042673 1_555
Bi3 O13 2.042673 1_554
Bi3 O14 2.134651 1_655
Bi3 O9 2.134651 1_554
Bi3 O6 2.325249 1_565
Bi3 O1 2.325249 1_564
O0 Pr2 2.453687 1_555
O0 Pr0 2.557513 1_655
O1 Pr2 2.453687 1_555
O1 Pr0 2.557513 1_645
O2 Pr3 2.427903 1_455
O2 Pr1 2.488342 1_555
O3 Pr3 2.427903 1_455
O3 Pr1 2.488342 1_545
O4 Pr2 2.427903 1_555
O4 Pr0 2.488342 1_545
O5 Pr2 2.427903 1_555
O5 Pr0 2.488342 1_555
O6 Pr3 2.453687 1_555
O6 Pr1 2.557513 1_545
O7 Pr3 2.453687 1_555
O7 Pr1 2.557513 1_555
O8 Pr0 2.453687 1_555
O8 Pr2 2.557513 1_555
O9 Pr0 2.453687 1_555
O9 Pr2 2.557513 1_565
O10 Pr1 2.427903 1_555
O10 Pr3 2.488342 1_555
O11 Pr1 2.427903 1_555
O11 Pr3 2.488342 1_565
O12 Pr0 2.427903 1_655
O12 Pr2 2.488342 1_565
O13 Pr0 2.427903 1_655
O13 Pr2 2.488342 1_555
O14 Pr1 2.453687 1_555
O14 Pr3 2.557513 1_465
O15 Pr1 2.453687 1_555
O15 Pr3 2.557513 1_455
