# generated using pymatgen
data_K4TiO4
_symmetry_space_group_name_H-M   'P 1'
_cell_length_a   6.89933906
_cell_length_b   6.89933906
_cell_length_c   7.46070500
_cell_angle_alpha   90.00000000
_cell_angle_beta   90.00000000
_cell_angle_gamma   91.92372605
_symmetry_Int_Tables_number   1
_chemical_formula_structural   K4TiO4
_chemical_formula_sum   'K8 Ti2 O8'
_cell_volume   354.93596540
_cell_formula_units_Z   2
loop_
 _symmetry_equiv_pos_site_id
 _symmetry_equiv_pos_as_xyz
  1  'x, y, z'
loop_
 _atom_site_type_symbol
 _atom_site_label
 _atom_site_symmetry_multiplicity
 _atom_site_fract_x
 _atom_site_fract_y
 _atom_site_fract_z
 _atom_site_occupancy
  K  K0  1  0.16774300  0.16774300  0.50000000  1
  K  K1  1  0.16774300  0.16774300  0.00000000  1
  K  K2  1  0.13623500  0.54545400  0.25000000  1
  K  K3  1  0.54545400  0.13623500  0.75000000  1
  K  K4  1  0.86376500  0.45454600  0.75000000  1
  K  K5  1  0.45454600  0.86376500  0.25000000  1
  K  K6  1  0.83225700  0.83225700  0.00000000  1
  K  K7  1  0.83225700  0.83225700  0.50000000  1
  Ti  Ti0  1  0.67374600  0.32625400  0.25000000  1
  Ti  Ti1  1  0.32625400  0.67374600  0.75000000  1
  O  O0  1  0.40938700  0.26601500  0.25000000  1
  O  O1  1  0.26601500  0.40938700  0.75000000  1
  O  O2  1  0.78416900  0.21583100  0.04649200  1
  O  O3  1  0.78416900  0.21583100  0.45350800  1
  O  O4  1  0.21583100  0.78416900  0.95350800  1
  O  O5  1  0.21583100  0.78416900  0.54649200  1
  O  O6  1  0.59061300  0.73398500  0.75000000  1
  O  O7  1  0.73398500  0.59061300  0.25000000  1
loop_
_geom_bond_atom_site_label_1
_geom_bond_atom_site_label_2
_geom_bond_distance
_geom_bond_site_symmetry_2
K0 O0 2.577245 1_555
K0 O1 2.577245 1_555
K0 O5 2.700520 1_545
K0 O3 2.700520 1_455
K1 O1 2.577245 1_554
K1 O0 2.577245 1_555
K1 O2 2.700520 1_455
K1 O4 2.700520 1_544
K2 O0 2.740895 1_555
K2 O5 2.801161 1_555
K2 O4 2.801161 1_554
K2 O7 2.803068 1_455
K3 O1 2.740895 1_555
K3 O2 2.801161 1_556
K3 O3 2.801161 1_555
K3 O6 2.803068 1_545
K4 O6 2.740895 1_555
K4 O2 2.801161 1_556
K4 O3 2.801161 1_555
K4 O1 2.803068 1_655
K5 O7 2.740895 1_555
K5 O5 2.801161 1_555
K5 O4 2.801161 1_554
K5 O0 2.803068 1_565
K6 O6 2.577245 1_554
K6 O7 2.577245 1_555
K6 O2 2.700520 1_565
K6 O4 2.700520 1_654
K7 O6 2.577245 1_555
K7 O7 2.577245 1_555
K7 O5 2.700520 1_655
K7 O3 2.700520 1_565
O0 Ti0 1.857002 1_555
O1 Ti1 1.857002 1_555
O2 Ti0 1.872181 1_555
O3 Ti0 1.872181 1_555
O4 Ti1 1.872181 1_555
O5 Ti1 1.872181 1_555
O6 Ti1 1.857002 1_555
O7 Ti0 1.857002 1_555
