# generated using pymatgen
data_Li3VPCO7
_symmetry_space_group_name_H-M   'P 1'
_cell_length_a   6.50960500
_cell_length_b   8.65362000
_cell_length_c   9.69203239
_cell_angle_alpha   88.08669773
_cell_angle_beta   90.00000000
_cell_angle_gamma   90.00000000
_symmetry_Int_Tables_number   1
_chemical_formula_structural   Li3VPCO7
_chemical_formula_sum   'Li12 V4 P4 C4 O28'
_cell_volume   545.66377533
_cell_formula_units_Z   4
loop_
 _symmetry_equiv_pos_site_id
 _symmetry_equiv_pos_as_xyz
  1  'x, y, z'
loop_
 _atom_site_type_symbol
 _atom_site_label
 _atom_site_symmetry_multiplicity
 _atom_site_fract_x
 _atom_site_fract_y
 _atom_site_fract_z
 _atom_site_occupancy
  Li  Li0  1  0.75853900  0.88976900  0.36556400  1
  Li  Li1  1  0.74146100  0.88976900  0.86556400  1
  Li  Li2  1  0.51670300  0.70935400  0.62745300  1
  Li  Li3  1  0.98329700  0.70935400  0.12745300  1
  Li  Li4  1  0.24320500  0.62859600  0.36477200  1
  Li  Li5  1  0.25679500  0.62859600  0.86477200  1
  Li  Li6  1  0.75679500  0.37140400  0.63522800  1
  Li  Li7  1  0.74320500  0.37140400  0.13522800  1
  Li  Li8  1  0.48329700  0.29064600  0.37254700  1
  Li  Li9  1  0.01670300  0.29064600  0.87254700  1
  Li  Li10  1  0.24146100  0.11023100  0.63443600  1
  Li  Li11  1  0.25853900  0.11023100  0.13443600  1
  V  V0  1  0.01811500  0.75187600  0.63728600  1
  V  V1  1  0.48188500  0.75187600  0.13728600  1
  V  V2  1  0.98188500  0.24812400  0.36271400  1
  V  V3  1  0.51811500  0.24812400  0.86271400  1
  P  P0  1  0.76079800  0.59219500  0.39091500  1
  P  P1  1  0.73920200  0.59219500  0.89091500  1
  P  P2  1  0.23920200  0.40780500  0.60908500  1
  P  P3  1  0.26079800  0.40780500  0.10908500  1
  C  C0  1  0.25632300  0.94644400  0.38621200  1
  C  C1  1  0.24367700  0.94644400  0.88621200  1
  C  C2  1  0.74367700  0.05355600  0.61378800  1
  C  C3  1  0.75632300  0.05355600  0.11378800  1
  O  O0  1  0.29531000  0.92558100  0.25633000  1
  O  O1  1  0.77114100  0.91123600  0.57340200  1
  O  O2  1  0.20469000  0.92558100  0.75633000  1
  O  O3  1  0.24590300  0.83338700  0.47509200  1
  O  O4  1  0.72885900  0.91123600  0.07340200  1
  O  O5  1  0.25409700  0.83338700  0.97509200  1
  O  O6  1  0.94114700  0.68782000  0.32945700  1
  O  O7  1  0.56337800  0.68162900  0.34509300  1
  O  O8  1  0.93662200  0.68162900  0.84509300  1
  O  O9  1  0.55885300  0.68782000  0.82945700  1
  O  O10  1  0.24997200  0.57745800  0.65582800  1
  O  O11  1  0.77466200  0.59144300  0.55212200  1
  O  O12  1  0.25002800  0.57745800  0.15582800  1
  O  O13  1  0.72533800  0.59144300  0.05212200  1
  O  O14  1  0.22533800  0.40855700  0.44787800  1
  O  O15  1  0.75002800  0.42254200  0.34417200  1
  O  O16  1  0.27466200  0.40855700  0.94787800  1
  O  O17  1  0.74997200  0.42254200  0.84417200  1
  O  O18  1  0.05885300  0.31218000  0.67054300  1
  O  O19  1  0.43662200  0.31837100  0.65490700  1
  O  O20  1  0.44114700  0.31218000  0.17054300  1
  O  O21  1  0.06337800  0.31837100  0.15490700  1
  O  O22  1  0.75409700  0.16661300  0.52490800  1
  O  O23  1  0.22885900  0.08876400  0.42659800  1
  O  O24  1  0.74590300  0.16661300  0.02490800  1
  O  O25  1  0.70469000  0.07441900  0.74367000  1
  O  O26  1  0.27114100  0.08876400  0.92659800  1
  O  O27  1  0.79531000  0.07441900  0.24367000  1
loop_
_geom_bond_atom_site_label_1
_geom_bond_atom_site_label_2
_geom_bond_distance
_geom_bond_site_symmetry_2
Li0 O27 1.969824 1_565
Li0 O1 2.030745 1_555
Li0 O6 2.151835 1_555
Li0 O7 2.218421 1_555
Li1 O25 1.969824 1_565
Li1 O4 2.030745 1_556
Li1 O9 2.151835 1_555
Li1 O8 2.218421 1_555
Li2 O9 1.979582 1_555
Li2 O10 2.090980 1_555
Li2 O11 2.108005 1_555
Li2 O1 2.451258 1_555
Li2 O3 2.516801 1_555
Li3 O6 1.979582 1_555
Li3 O12 2.090980 1_655
Li3 O13 2.108005 1_555
Li3 O4 2.451258 1_555
Li3 O5 2.516801 1_654
Li4 O14 2.045878 1_555
Li4 O6 2.057753 1_455
Li4 O12 2.087736 1_555
Li4 O3 2.100170 1_555
Li4 O7 2.141270 1_555
Li5 O16 2.045878 1_555
Li5 O9 2.057753 1_555
Li5 O10 2.087736 1_555
Li5 O5 2.100170 1_555
Li5 O8 2.141270 1_455
Li6 O11 2.045878 1_555
Li6 O18 2.057753 1_655
Li6 O17 2.087736 1_555
Li6 O22 2.100170 1_555
Li6 O19 2.141270 1_555
Li7 O13 2.045878 1_555
Li7 O20 2.057753 1_555
Li7 O15 2.087736 1_555
Li7 O24 2.100170 1_555
Li7 O21 2.141270 1_655
Li8 O20 1.979582 1_555
Li8 O15 2.090980 1_555
Li8 O14 2.108005 1_555
Li8 O23 2.451258 1_555
Li8 O22 2.516801 1_555
Li9 O18 1.979582 1_555
Li9 O17 2.090980 1_455
Li9 O16 2.108005 1_555
Li9 O26 2.451258 1_555
Li9 O24 2.516801 1_456
Li10 O2 1.969824 1_545
Li10 O23 2.030745 1_555
Li10 O18 2.151835 1_555
Li10 O19 2.218421 1_555
Li11 O0 1.969824 1_545
Li11 O26 2.030745 1_554
Li11 O20 2.151835 1_555
Li11 O21 2.218421 1_555
C0 O3 1.283572 1_555
C0 O0 1.302616 1_555
C0 O23 1.316875 1_565
C1 O5 1.283572 1_555
C1 O2 1.302616 1_555
C1 O26 1.316875 1_565
C2 O22 1.283572 1_555
C2 O25 1.302616 1_555
C2 O1 1.316875 1_545
C3 O24 1.283572 1_555
C3 O27 1.302616 1_555
C3 O4 1.316875 1_545
O0 V1 2.276321 1_555
O1 V0 2.193813 1_655
O2 V0 2.276321 1_555
O3 V0 2.256851 1_555
O4 V1 2.193813 1_555
O5 V1 2.256851 1_556
O6 P0 1.544321 1_555
O7 P0 1.557175 1_555
O7 V1 2.150739 1_555
O8 P1 1.557175 1_555
O8 V0 2.150739 1_655
O9 P1 1.544321 1_555
O10 P2 1.552392 1_555
O10 V0 2.137824 1_555
O11 P0 1.564824 1_555
O11 V0 2.279652 1_655
O12 P3 1.552392 1_555
O12 V1 2.137824 1_555
O13 P1 1.564824 1_554
O13 V1 2.279652 1_555
O14 P2 1.564824 1_555
O14 V2 2.279652 1_455
O15 P0 1.552392 1_555
O15 V2 2.137824 1_555
O16 P3 1.564824 1_556
O16 V3 2.279652 1_555
O17 P1 1.552392 1_555
O17 V3 2.137824 1_555
O18 P2 1.544321 1_555
O19 P2 1.557175 1_555
O19 V3 2.150739 1_555
O20 P3 1.544321 1_555
O21 P3 1.557175 1_555
O21 V2 2.150739 1_455
O22 V2 2.256851 1_555
O23 V2 2.193813 1_455
O24 V3 2.256851 1_554
O25 V3 2.276321 1_555
O26 V3 2.193813 1_555
O27 V2 2.276321 1_555
