# generated using pymatgen
data_Sr(SO4)2
_symmetry_space_group_name_H-M   'P 1'
_cell_length_a   7.41778700
_cell_length_b   13.18405100
_cell_length_c   14.45533700
_cell_angle_alpha   90.00000000
_cell_angle_beta   90.00000000
_cell_angle_gamma   90.00000000
_symmetry_Int_Tables_number   1
_chemical_formula_structural   Sr(SO4)2
_chemical_formula_sum   'Sr8 S16 O64'
_cell_volume   1413.68110639
_cell_formula_units_Z   8
loop_
 _symmetry_equiv_pos_site_id
 _symmetry_equiv_pos_as_xyz
  1  'x, y, z'
loop_
 _atom_site_type_symbol
 _atom_site_label
 _atom_site_symmetry_multiplicity
 _atom_site_fract_x
 _atom_site_fract_y
 _atom_site_fract_z
 _atom_site_occupancy
  Sr  Sr0  1  0.65003100  0.43283000  0.30963100  1
  Sr  Sr1  1  0.84996900  0.93283000  0.69036900  1
  Sr  Sr2  1  0.15003100  0.56717000  0.19036900  1
  Sr  Sr3  1  0.34996900  0.06717000  0.80963100  1
  Sr  Sr4  1  0.34996900  0.56717000  0.69036900  1
  Sr  Sr5  1  0.15003100  0.06717000  0.30963100  1
  Sr  Sr6  1  0.84996900  0.43283000  0.80963100  1
  Sr  Sr7  1  0.65003100  0.93283000  0.19036900  1
  S  S0  1  0.66422100  0.13236700  0.33538400  1
  S  S1  1  0.83577900  0.63236700  0.66461600  1
  S  S2  1  0.16422100  0.86763300  0.16461600  1
  S  S3  1  0.33577900  0.36763300  0.83538400  1
  S  S4  1  0.33577900  0.86763300  0.66461600  1
  S  S5  1  0.16422100  0.36763300  0.33538400  1
  S  S6  1  0.83577900  0.13236700  0.83538400  1
  S  S7  1  0.66422100  0.63236700  0.16461600  1
  S  S8  1  0.85459800  0.35505200  0.07336800  1
  S  S9  1  0.64540200  0.85505200  0.92663200  1
  S  S10  1  0.35459800  0.64494800  0.42663200  1
  S  S11  1  0.14540200  0.14494800  0.57336800  1
  S  S12  1  0.14540200  0.64494800  0.92663200  1
  S  S13  1  0.35459800  0.14494800  0.07336800  1
  S  S14  1  0.64540200  0.35505200  0.57336800  1
  S  S15  1  0.85459800  0.85505200  0.42663200  1
  O  O0  1  0.62260800  0.24034100  0.31861800  1
  O  O1  1  0.87739200  0.74034100  0.68138200  1
  O  O2  1  0.12260800  0.75965900  0.18138200  1
  O  O3  1  0.37739200  0.25965900  0.81861800  1
  O  O4  1  0.37739200  0.75965900  0.68138200  1
  O  O5  1  0.12260800  0.25965900  0.31861800  1
  O  O6  1  0.87739200  0.24034100  0.81861800  1
  O  O7  1  0.62260800  0.74034100  0.18138200  1
  O  O8  1  0.00105800  0.43096400  0.31993100  1
  O  O9  1  0.49894200  0.93096400  0.68006900  1
  O  O10  1  0.50105800  0.56903600  0.18006900  1
  O  O11  1  0.99894200  0.06903600  0.81993100  1
  O  O12  1  0.99894200  0.56903600  0.68006900  1
  O  O13  1  0.50105800  0.06903600  0.31993100  1
  O  O14  1  0.49894200  0.43096400  0.81993100  1
  O  O15  1  0.00105800  0.93096400  0.18006900  1
  O  O16  1  0.80593100  0.09444500  0.27017000  1
  O  O17  1  0.69406900  0.59444500  0.72983000  1
  O  O18  1  0.30593100  0.90555500  0.22983000  1
  O  O19  1  0.19406900  0.40555500  0.77017000  1
  O  O20  1  0.19406900  0.90555500  0.72983000  1
  O  O21  1  0.30593100  0.40555500  0.27017000  1
  O  O22  1  0.69406900  0.09444500  0.77017000  1
  O  O23  1  0.80593100  0.59444500  0.22983000  1
  O  O24  1  0.73493300  0.12252000  0.43095700  1
  O  O25  1  0.76506700  0.62252000  0.56904300  1
  O  O26  1  0.23493300  0.87748000  0.06904300  1
  O  O27  1  0.26506700  0.37748000  0.93095700  1
  O  O28  1  0.26506700  0.87748000  0.56904300  1
  O  O29  1  0.23493300  0.37748000  0.43095700  1
  O  O30  1  0.76506700  0.12252000  0.93095700  1
  O  O31  1  0.73493300  0.62252000  0.06904300  1
  O  O32  1  0.70708100  0.36249500  0.14250100  1
  O  O33  1  0.79291900  0.86249500  0.85749900  1
  O  O34  1  0.20708100  0.63750500  0.35749900  1
  O  O35  1  0.29291900  0.13750500  0.64250100  1
  O  O36  1  0.29291900  0.63750500  0.85749900  1
  O  O37  1  0.20708100  0.13750500  0.14250100  1
  O  O38  1  0.79291900  0.36249500  0.64250100  1
  O  O39  1  0.70708100  0.86249500  0.35749900  1
  O  O40  1  0.01154000  0.41426500  0.10522200  1
  O  O41  1  0.48846000  0.91426500  0.89477800  1
  O  O42  1  0.51154000  0.58573500  0.39477800  1
  O  O43  1  0.98846000  0.08573500  0.60522200  1
  O  O44  1  0.98846000  0.58573500  0.89477800  1
  O  O45  1  0.51154000  0.08573500  0.10522200  1
  O  O46  1  0.48846000  0.41426500  0.60522200  1
  O  O47  1  0.01154000  0.91426500  0.39477800  1
  O  O48  1  0.70629800  0.38855000  0.48122500  1
  O  O49  1  0.79370200  0.88855000  0.51877500  1
  O  O50  1  0.20629800  0.61145000  0.01877500  1
  O  O51  1  0.29370200  0.11145000  0.98122500  1
  O  O52  1  0.29370200  0.61145000  0.51877500  1
  O  O53  1  0.20629800  0.11145000  0.48122500  1
  O  O54  1  0.79370200  0.38855000  0.98122500  1
  O  O55  1  0.70629800  0.88855000  0.01877500  1
  O  O56  1  0.90529600  0.24537400  0.06639500  1
  O  O57  1  0.59470400  0.74537400  0.93360500  1
  O  O58  1  0.40529600  0.75462600  0.43360500  1
  O  O59  1  0.09470400  0.25462600  0.56639500  1
  O  O60  1  0.09470400  0.75462600  0.93360500  1
  O  O61  1  0.40529600  0.25462600  0.06639500  1
  O  O62  1  0.59470400  0.24537400  0.56639500  1
  O  O63  1  0.90529600  0.74537400  0.43360500  1
loop_
_geom_bond_atom_site_label_1
_geom_bond_atom_site_label_2
_geom_bond_distance
_geom_bond_site_symmetry_2
O0 S0 1.476641 1_555
O0 Sr0 2.549237 1_555
O1 S1 1.476641 1_555
O1 Sr1 2.549237 1_555
O2 S2 1.476641 1_555
O2 Sr2 2.549237 1_555
O3 S3 1.476641 1_555
O3 Sr3 2.549237 1_555
O4 S4 1.476641 1_555
O4 Sr4 2.549237 1_555
O5 S5 1.476641 1_555
O5 Sr5 2.549237 1_555
O6 S6 1.476641 1_555
O6 Sr6 2.549237 1_555
O7 S7 1.476641 1_555
O7 Sr7 2.549237 1_555
O8 S5 1.487246 1_555
O8 Sr0 2.608213 1_455
O8 Sr2 2.820187 1_555
O9 S4 1.487246 1_555
O9 Sr1 2.608213 1_555
O9 Sr3 2.820187 1_565
O10 S7 1.487246 1_555
O10 Sr2 2.608213 1_555
O10 Sr0 2.820187 1_555
O11 S6 1.487246 1_555
O11 Sr3 2.608213 1_655
O11 Sr1 2.820187 1_545
O12 S1 1.487246 1_555
O12 Sr4 2.608213 1_655
O12 Sr6 2.820187 1_555
O13 S0 1.487246 1_555
O13 Sr5 2.608213 1_555
O13 Sr7 2.820187 1_545
O14 S3 1.487246 1_555
O14 Sr6 2.608213 1_555
O14 Sr4 2.820187 1_555
O15 S2 1.487246 1_555
O15 Sr7 2.608213 1_455
O15 Sr5 2.820187 1_565
O16 S0 1.497865 1_555
O16 Sr5 2.640027 1_655
O16 Sr7 2.684785 1_545
O17 S1 1.497865 1_555
O17 Sr4 2.640027 1_555
O17 Sr6 2.684785 1_555
O18 S2 1.497865 1_555
O18 Sr7 2.640027 1_555
O18 Sr5 2.684785 1_565
O19 S3 1.497865 1_555
O19 Sr6 2.640027 1_455
O19 Sr4 2.684785 1_555
O20 S4 1.497865 1_555
O20 Sr1 2.640027 1_455
O20 Sr3 2.684785 1_565
O21 S5 1.497865 1_555
O21 Sr0 2.640027 1_555
O21 Sr2 2.684785 1_555
O22 S6 1.497865 1_555
O22 Sr3 2.640027 1_555
O22 Sr1 2.684785 1_545
O23 S7 1.497865 1_555
O23 Sr2 2.640027 1_655
O23 Sr0 2.684785 1_555
O24 S0 1.483454 1_555
O25 S1 1.483454 1_555
O26 S2 1.483454 1_555
O27 S3 1.483454 1_555
O28 S4 1.483454 1_555
O29 S5 1.483454 1_555
O30 S6 1.483454 1_555
O31 S7 1.483454 1_555
O32 S8 1.485158 1_555
O32 Sr0 2.622145 1_555
O33 S9 1.485158 1_555
O33 Sr1 2.622145 1_555
O34 S10 1.485158 1_555
O34 Sr2 2.622145 1_555
O35 S11 1.485158 1_555
O35 Sr3 2.622145 1_555
O36 S12 1.485158 1_555
O36 Sr4 2.622145 1_555
O37 S13 1.485158 1_555
O37 Sr5 2.622145 1_555
O38 S14 1.485158 1_555
O38 Sr6 2.622145 1_555
O39 S15 1.485158 1_555
O39 Sr7 2.622145 1_555
O40 S8 1.475378 1_455
O40 Sr2 2.575686 1_555
O41 S9 1.475378 1_555
O41 Sr3 2.575686 1_565
O42 S10 1.475378 1_555
O42 Sr0 2.575686 1_555
O43 S11 1.475378 1_655
O43 Sr1 2.575686 1_545
O44 S12 1.475378 1_655
O44 Sr6 2.575686 1_555
O45 S13 1.475378 1_555
O45 Sr7 2.575686 1_545
O46 S14 1.475378 1_555
O46 Sr4 2.575686 1_555
O47 S15 1.475378 1_455
O47 Sr5 2.575686 1_565
O48 S14 1.474179 1_555
O48 Sr0 2.582178 1_555
O49 S15 1.474179 1_555
O49 Sr1 2.582178 1_555
O50 S12 1.474179 1_554
O50 Sr2 2.582178 1_555
O51 S13 1.474179 1_556
O51 Sr3 2.582178 1_555
O52 S10 1.474179 1_555
O52 Sr4 2.582178 1_555
O53 S11 1.474179 1_555
O53 Sr5 2.582178 1_555
O54 S8 1.474179 1_556
O54 Sr6 2.582178 1_555
O55 S9 1.474179 1_554
O55 Sr7 2.582178 1_555
O56 S8 1.497499 1_555
O57 S9 1.497499 1_555
O58 S10 1.497499 1_555
O59 S11 1.497499 1_555
O60 S12 1.497499 1_555
O61 S13 1.497499 1_555
O62 S14 1.497499 1_555
O63 S15 1.497499 1_555
