# generated using pymatgen
data_Na2Li4Mn2C4SO16
_symmetry_space_group_name_H-M   'P 1'
_cell_length_a   9.90473294
_cell_length_b   9.72659263
_cell_length_c   9.72349373
_cell_angle_alpha   61.22623834
_cell_angle_beta   59.40230854
_cell_angle_gamma   59.37145311
_symmetry_Int_Tables_number   1
_chemical_formula_structural   Na2Li4Mn2C4SO16
_chemical_formula_sum   'Na4 Li8 Mn4 C8 S2 O32'
_cell_volume   661.92460894
_cell_formula_units_Z   2
loop_
 _symmetry_equiv_pos_site_id
 _symmetry_equiv_pos_as_xyz
  1  'x, y, z'
loop_
 _atom_site_type_symbol
 _atom_site_label
 _atom_site_symmetry_multiplicity
 _atom_site_fract_x
 _atom_site_fract_y
 _atom_site_fract_z
 _atom_site_occupancy
  Na  Na0  1  0.77989100  0.22010900  0.77989100  1
  Na  Na1  1  0.02989100  0.47010900  0.02989100  1
  Na  Na2  1  0.22010900  0.77989100  0.22010900  1
  Na  Na3  1  0.47010900  0.02989100  0.47010900  1
  Li  Li0  1  0.14948500  0.94793700  0.61520000  1
  Li  Li1  1  0.61520000  0.28737800  0.14948500  1
  Li  Li2  1  0.30206300  0.10051500  0.96262200  1
  Li  Li3  1  0.28737800  0.61520000  0.94793700  1
  Li  Li4  1  0.96262200  0.63480000  0.30206300  1
  Li  Li5  1  0.94793700  0.14948500  0.28737800  1
  Li  Li6  1  0.63480000  0.96262200  0.10051500  1
  Li  Li7  1  0.10051500  0.30206300  0.63480000  1
  Mn  Mn0  1  0.62500000  0.62500000  0.12500000  1
  Mn  Mn1  1  0.62500000  0.12500000  0.62500000  1
  Mn  Mn2  1  0.62500000  0.62500000  0.62500000  1
  Mn  Mn3  1  0.12500000  0.62500000  0.62500000  1
  C  C0  1  0.85077700  0.45259500  0.84462300  1
  C  C1  1  0.84462300  0.85200500  0.85077700  1
  C  C2  1  0.39799500  0.40537700  0.79740500  1
  C  C3  1  0.45259500  0.85077700  0.85200500  1
  C  C4  1  0.79740500  0.39922300  0.39799500  1
  C  C5  1  0.85200500  0.84462300  0.45259500  1
  C  C6  1  0.40537700  0.39799500  0.39922300  1
  C  C7  1  0.39922300  0.79740500  0.40537700  1
  S  S0  1  0.25000000  0.25000000  0.25000000  1
  S  S1  1  0.00000000  0.00000000  0.00000000  1
  O  O0  1  0.98442500  0.83632300  0.72511600  1
  O  O1  1  0.84527200  0.43887600  0.72070900  1
  O  O2  1  0.72070900  0.99514300  0.84527200  1
  O  O3  1  0.52207200  0.42512600  0.78919600  1
  O  O4  1  0.46080400  0.98639400  0.72792800  1
  O  O5  1  0.72511600  0.45413600  0.98442500  1
  O  O6  1  0.41367700  0.26557500  0.79586400  1
  O  O7  1  0.45413600  0.72511600  0.83632300  1
  O  O8  1  0.25485700  0.52929100  0.81112400  1
  O  O9  1  0.43887600  0.84527200  0.99514300  1
  O  O10  1  0.43806900  0.18551300  0.18692700  1
  O  O11  1  0.06307300  0.06051000  0.81193100  1
  O  O12  1  0.98639400  0.46080400  0.82487400  1
  O  O13  1  0.42512600  0.52207200  0.26360600  1
  O  O14  1  0.18949000  0.18692700  0.18551300  1
  O  O15  1  0.18551300  0.43806900  0.18949000  1
  O  O16  1  0.06448700  0.81193100  0.06051000  1
  O  O17  1  0.06051000  0.06307300  0.06448700  1
  O  O18  1  0.82487400  0.72792800  0.98639400  1
  O  O19  1  0.26360600  0.78919600  0.42512600  1
  O  O20  1  0.18692700  0.18949000  0.43806900  1
  O  O21  1  0.81193100  0.06448700  0.06307300  1
  O  O22  1  0.81112400  0.40472800  0.25485700  1
  O  O23  1  0.99514300  0.72070900  0.43887600  1
  O  O24  1  0.79586400  0.52488400  0.41367700  1
  O  O25  1  0.83632300  0.98442500  0.45413600  1
  O  O26  1  0.52488400  0.79586400  0.26557500  1
  O  O27  1  0.78919600  0.26360600  0.52207200  1
  O  O28  1  0.72792800  0.82487400  0.46080400  1
  O  O29  1  0.52929100  0.25485700  0.40472800  1
  O  O30  1  0.40472800  0.81112400  0.52929100  1
  O  O31  1  0.26557500  0.41367700  0.52488400  1
loop_
_geom_bond_atom_site_label_1
_geom_bond_atom_site_label_2
_geom_bond_distance
_geom_bond_site_symmetry_2
Na0 O1 2.263661 1_555
Na0 O2 2.263661 1_545
Na0 O3 2.292490 1_555
Na0 O27 2.292490 1_555
Na0 O21 2.522182 1_556
Na0 O11 2.522182 1_655
Na1 O22 2.263661 1_455
Na1 O8 2.263661 1_554
Na1 O12 2.292490 1_454
Na1 O18 2.292490 1_454
Na1 O15 2.522173 1_555
Na1 O14 2.522178 1_555
Na2 O9 2.263661 1_554
Na2 O23 2.263661 1_455
Na2 O13 2.292490 1_555
Na2 O19 2.292490 1_555
Na2 O16 2.522173 1_555
Na2 O17 2.522178 1_565
Na3 O30 2.263661 1_545
Na3 O29 2.263661 1_555
Na3 O28 2.292490 1_545
Na3 O4 2.292490 1_545
Na3 O10 2.522182 1_555
Na3 O20 2.522182 1_555
Li0 O0 1.976450 1_455
Li0 O30 2.086219 1_555
Li0 O20 2.228442 1_565
Li0 O11 2.232821 1_565
Li0 O19 2.433019 1_555
Li1 O5 1.976450 1_554
Li1 O29 2.086219 1_555
Li1 O10 2.228449 1_555
Li1 O21 2.232814 1_555
Li1 O13 2.433019 1_555
Li2 O6 1.976450 1_555
Li2 O9 2.086219 1_545
Li2 O17 2.228440 1_556
Li2 O14 2.232813 1_556
Li2 O4 2.433019 1_545
Li3 O7 1.976450 1_555
Li3 O8 2.086219 1_555
Li3 O15 2.228445 1_556
Li3 O16 2.232818 1_556
Li3 O3 2.433019 1_555
Li4 O24 1.976450 1_555
Li4 O23 2.086219 1_555
Li4 O16 2.228445 1_655
Li4 O15 2.232818 1_655
Li4 O28 2.433019 1_555
Li5 O25 1.976450 1_545
Li5 O22 2.086219 1_555
Li5 O14 2.228440 1_655
Li5 O17 2.232813 1_655
Li5 O27 2.433019 1_555
Li6 O26 1.976450 1_555
Li6 O2 2.086219 1_554
Li6 O21 2.228449 1_565
Li6 O10 2.232814 1_565
Li6 O18 2.433019 1_554
Li7 O31 1.976450 1_555
Li7 O1 2.086219 1_455
Li7 O11 2.228442 1_555
Li7 O20 2.232821 1_555
Li7 O12 2.433019 1_455
Mn0 O5 2.177507 1_554
Mn0 O26 2.177507 1_555
Mn0 O18 2.177670 1_554
Mn0 O13 2.177670 1_555
Mn0 O9 2.307361 1_554
Mn0 O22 2.307361 1_555
Mn1 O25 2.177507 1_545
Mn1 O6 2.177507 1_555
Mn1 O27 2.177670 1_555
Mn1 O4 2.177670 1_545
Mn1 O2 2.307361 1_545
Mn1 O29 2.307361 1_555
Mn2 O7 2.177507 1_555
Mn2 O24 2.177507 1_555
Mn2 O3 2.177670 1_555
Mn2 O28 2.177670 1_555
Mn2 O1 2.307361 1_555
Mn2 O30 2.307361 1_555
Mn3 O0 2.177507 1_455
Mn3 O31 2.177507 1_555
Mn3 O12 2.177670 1_455
Mn3 O19 2.177670 1_555
Mn3 O8 2.307361 1_555
Mn3 O23 2.307361 1_455
C0 O5 1.294385 1_555
C0 O12 1.295957 1_555
C0 O1 1.304447 1_555
C1 O0 1.294385 1_555
C1 O18 1.295957 1_555
C1 O2 1.304447 1_555
C2 O6 1.294385 1_555
C2 O3 1.295957 1_555
C2 O8 1.304447 1_555
C3 O7 1.294385 1_555
C3 O4 1.295957 1_555
C3 O9 1.304447 1_555
C4 O24 1.294385 1_555
C4 O27 1.295957 1_555
C4 O22 1.304447 1_555
C5 O25 1.294385 1_555
C5 O28 1.295957 1_555
C5 O23 1.304447 1_555
C6 O31 1.294385 1_555
C6 O13 1.295957 1_555
C6 O29 1.304447 1_555
C7 O26 1.294385 1_555
C7 O19 1.295957 1_555
C7 O30 1.304447 1_555
O10 S0 1.502091 1_555
O11 S1 1.502091 1_556
O14 S0 1.502099 1_555
O15 S0 1.502091 1_555
O16 S1 1.502091 1_565
O17 S1 1.502099 1_555
O20 S0 1.502091 1_555
O21 S1 1.502091 1_655
