# generated using pymatgen
data_LiCu(PO3)4
_symmetry_space_group_name_H-M   'P 1'
_cell_length_a   7.81464348
_cell_length_b   7.81464348
_cell_length_c   8.33727213
_cell_angle_alpha   83.95008171
_cell_angle_beta   83.95008171
_cell_angle_gamma   101.42722192
_symmetry_Int_Tables_number   1
_chemical_formula_structural   LiCu(PO3)4
_chemical_formula_sum   'Li2 Cu2 P8 O24'
_cell_volume   492.09151077
_cell_formula_units_Z   2
loop_
 _symmetry_equiv_pos_site_id
 _symmetry_equiv_pos_as_xyz
  1  'x, y, z'
loop_
 _atom_site_type_symbol
 _atom_site_label
 _atom_site_symmetry_multiplicity
 _atom_site_fract_x
 _atom_site_fract_y
 _atom_site_fract_z
 _atom_site_occupancy
  Li  Li0  1  0.54843600  0.17148200  0.54485800  1
  Li  Li1  1  0.17148200  0.54843600  0.04485800  1
  Cu  Cu0  1  0.89228400  0.18948500  0.24717900  1
  Cu  Cu1  1  0.18948500  0.89228400  0.74717900  1
  P  P0  1  0.24058400  0.07795700  0.31424100  1
  P  P1  1  0.55744500  0.18205700  0.07155000  1
  P  P2  1  0.07795700  0.24058400  0.81424100  1
  P  P3  1  0.84741500  0.50572900  0.42050200  1
  P  P4  1  0.18205700  0.55744500  0.57155000  1
  P  P5  1  0.97684000  0.82763300  0.18492100  1
  P  P6  1  0.50572900  0.84741500  0.92050200  1
  P  P7  1  0.82763300  0.97684000  0.68492100  1
  O  O0  1  0.73049500  0.01191300  0.54516600  1
  O  O1  1  0.34065000  0.05252500  0.45398800  1
  O  O2  1  0.89393200  0.16167100  0.75324400  1
  O  O3  1  0.66500500  0.20975500  0.21564500  1
  O  O4  1  0.36123700  0.19017400  0.15600600  1
  O  O5  1  0.17029400  0.08789500  0.85104900  1
  O  O6  1  0.08789500  0.17029400  0.35104900  1
  O  O7  1  0.94111500  0.42522800  0.28337000  1
  O  O8  1  0.60239600  0.29639800  0.91525500  1
  O  O9  1  0.66833600  0.41754400  0.49709400  1
  O  O10  1  0.19017400  0.36123700  0.65600600  1
  O  O11  1  0.97281000  0.53564100  0.55949700  1
  O  O12  1  0.05252500  0.34065000  0.95398800  1
  O  O13  1  0.85551200  0.70476000  0.33884200  1
  O  O14  1  0.41754400  0.66833600  0.99709400  1
  O  O15  1  0.29639800  0.60239600  0.41525500  1
  O  O16  1  0.20975500  0.66500500  0.71564500  1
  O  O17  1  0.01191300  0.73049500  0.04516600  1
  O  O18  1  0.98318200  0.88696600  0.65114500  1
  O  O19  1  0.70476000  0.85551200  0.83884200  1
  O  O20  1  0.88696600  0.98318200  0.15114500  1
  O  O21  1  0.53564100  0.97281000  0.05949700  1
  O  O22  1  0.16167100  0.89393200  0.25324400  1
  O  O23  1  0.42522800  0.94111500  0.78337000  1
loop_
_geom_bond_atom_site_label_1
_geom_bond_atom_site_label_2
_geom_bond_distance
_geom_bond_site_symmetry_2
Li0 O9 1.944228 1_555
Li0 O1 1.970894 1_555
Li0 O0 2.069343 1_555
Li0 O23 2.505430 1_545
Li1 O14 1.944228 1_554
Li1 O12 1.970894 1_554
Li1 O17 2.069343 1_555
Li1 O7 2.505430 1_455
Cu0 O3 1.857388 1_555
Cu0 O6 1.857861 1_655
Cu0 O7 1.869069 1_555
Cu0 O20 1.869353 1_545
Cu1 O16 1.857388 1_555
Cu1 O5 1.857861 1_565
Cu1 O23 1.869069 1_555
Cu1 O18 1.869353 1_455
O0 P7 1.486792 1_545
O1 P0 1.487713 1_555
O2 P2 1.604953 1_655
O2 P7 1.618109 1_545
O3 P1 1.546675 1_555
O4 P0 1.601479 1_555
O4 P1 1.634380 1_555
O5 P2 1.532730 1_555
O6 P0 1.532730 1_555
O7 P3 1.548138 1_555
O8 P1 1.467484 1_556
O9 P3 1.475749 1_555
O10 P2 1.601479 1_555
O10 P4 1.634380 1_555
O11 P3 1.601089 1_555
O11 P4 1.625061 1_655
O12 P2 1.487713 1_555
O13 P5 1.609601 1_555
O13 P3 1.617210 1_555
O14 P6 1.475749 1_555
O15 P4 1.467484 1_555
O16 P4 1.546675 1_555
O17 P5 1.486792 1_455
O18 P7 1.535571 1_555
O19 P7 1.609601 1_555
O19 P6 1.617210 1_555
O20 P5 1.535571 1_555
O21 P6 1.601089 1_554
O21 P1 1.625061 1_565
O22 P0 1.604953 1_565
O22 P5 1.618109 1_455
O23 P6 1.548138 1_555
