# generated using pymatgen
data_Na2LiMnPCO7
_symmetry_space_group_name_H-M   'P 1'
_cell_length_a   6.77743400
_cell_length_b   8.86920464
_cell_length_c   10.23184925
_cell_angle_alpha   89.12510748
_cell_angle_beta   89.95174136
_cell_angle_gamma   89.90715568
_symmetry_Int_Tables_number   1
_chemical_formula_structural   Na2LiMnPCO7
_chemical_formula_sum   'Na8 Li4 Mn4 P4 C4 O28'
_cell_volume   614.96833912
_cell_formula_units_Z   4
loop_
 _symmetry_equiv_pos_site_id
 _symmetry_equiv_pos_as_xyz
  1  'x, y, z'
loop_
 _atom_site_type_symbol
 _atom_site_label
 _atom_site_symmetry_multiplicity
 _atom_site_fract_x
 _atom_site_fract_y
 _atom_site_fract_z
 _atom_site_occupancy
  Na  Na0  1  0.75057900  0.08405900  0.87945000  1
  Na  Na1  1  0.74400600  0.08225700  0.37834500  1
  Na  Na2  1  0.00057900  0.25652700  0.62345700  1
  Na  Na3  1  0.49933300  0.25602900  0.62361700  1
  Na  Na4  1  0.99986400  0.25514700  0.12594800  1
  Na  Na5  1  0.49818800  0.74514100  0.87483100  1
  Na  Na6  1  0.49827600  0.74424500  0.37713000  1
  Na  Na7  1  0.00074000  0.74469300  0.37662300  1
  Li  Li0  1  0.52319300  0.27364300  0.11605800  1
  Li  Li1  1  0.02058500  0.72877600  0.88411100  1
  Li  Li2  1  0.24238200  0.90963800  0.62704900  1
  Li  Li3  1  0.25426600  0.91181100  0.12464100  1
  Mn  Mn0  1  0.25445000  0.35961600  0.88973200  1
  Mn  Mn1  1  0.25092200  0.36214800  0.38722600  1
  Mn  Mn2  1  0.75128900  0.64189500  0.61279400  1
  Mn  Mn3  1  0.75410000  0.64356700  0.11013700  1
  P  P0  1  0.75689300  0.41366200  0.85426000  1
  P  P1  1  0.74544200  0.40867300  0.35030000  1
  P  P2  1  0.24565500  0.59740500  0.65038400  1
  P  P3  1  0.25578300  0.59226400  0.14598100  1
  C  C0  1  0.24107000  0.04455600  0.86815100  1
  C  C1  1  0.25099700  0.05200800  0.36395100  1
  C  C2  1  0.75105300  0.94167000  0.63409600  1
  C  C3  1  0.74134300  0.94722000  0.13111700  1
  O  O0  1  0.75124000  0.08632700  0.64480900  1
  O  O1  1  0.72349600  0.09250500  0.14017500  1
  O  O2  1  0.24729400  0.08589800  0.98906900  1
  O  O3  1  0.24960500  0.08942500  0.48687900  1
  O  O4  1  0.25604100  0.14591500  0.77399000  1
  O  O5  1  0.25330800  0.15566800  0.27221700  1
  O  O6  1  0.93884300  0.31678500  0.89535200  1
  O  O7  1  0.57145900  0.32660900  0.90533500  1
  O  O8  1  0.93334000  0.31648300  0.38779600  1
  O  O9  1  0.56524800  0.31656400  0.40023000  1
  O  O10  1  0.74847800  0.42575700  0.70186900  1
  O  O11  1  0.24944800  0.43769000  0.58962200  1
  O  O12  1  0.73323800  0.42369400  0.19743300  1
  O  O13  1  0.26742000  0.42997900  0.09002300  1
  O  O14  1  0.76808000  0.57641700  0.90789600  1
  O  O15  1  0.23300500  0.57738600  0.80256400  1
  O  O16  1  0.74941600  0.56915500  0.40841300  1
  O  O17  1  0.24776800  0.57585500  0.29793600  1
  O  O18  1  0.43178700  0.69241000  0.61462300  1
  O  O19  1  0.06775100  0.69355900  0.60199400  1
  O  O20  1  0.43577900  0.69196800  0.10657100  1
  O  O21  1  0.07164600  0.68203300  0.09639300  1
  O  O22  1  0.75304400  0.85453100  0.73792200  1
  O  O23  1  0.75357000  0.86234200  0.23668700  1
  O  O24  1  0.74859500  0.88008000  0.51922500  1
  O  O25  1  0.74863100  0.88294000  0.01845500  1
  O  O26  1  0.22141100  0.90364400  0.83699700  1
  O  O27  1  0.25007100  0.91173300  0.33013300  1
loop_
_geom_bond_atom_site_label_1
_geom_bond_atom_site_label_2
_geom_bond_distance
_geom_bond_site_symmetry_2
Na0 O25 2.264385 1_546
Na0 O0 2.400589 1_555
Na0 O6 2.436009 1_555
Na0 O7 2.485970 1_555
Na0 O22 2.516213 1_545
Na0 O1 2.676033 1_556
Na1 O24 2.283665 1_545
Na1 O9 2.417041 1_555
Na1 O1 2.441296 1_555
Na1 O8 2.446736 1_555
Na1 O23 2.448496 1_545
Na1 O0 2.727692 1_555
Na2 O0 2.275895 1_455
Na2 O11 2.353149 1_555
Na2 O10 2.417013 1_455
Na2 O8 2.503291 1_455
Na2 O4 2.507042 1_555
Na2 O3 2.655005 1_555
Na2 O6 2.871041 1_455
Na3 O0 2.282444 1_555
Na3 O11 2.357999 1_555
Na3 O9 2.381945 1_555
Na3 O10 2.409505 1_555
Na3 O4 2.448465 1_555
Na3 O3 2.660959 1_555
Na4 O1 2.369023 1_555
Na4 O13 2.412123 1_655
Na4 O5 2.434719 1_655
Na4 O6 2.449142 1_554
Na4 O12 2.461187 1_555
Na4 O2 2.660639 1_654
Na4 O8 2.778300 1_555
Na5 O26 2.370853 1_555
Na5 O14 2.382521 1_555
Na5 O22 2.418044 1_555
Na5 O20 2.447116 1_556
Na5 O15 2.456645 1_555
Na5 O25 2.569055 1_556
Na5 O18 2.747799 1_555
Na6 O27 2.288913 1_555
Na6 O16 2.321259 1_555
Na6 O17 2.411868 1_555
Na6 O23 2.472143 1_555
Na6 O18 2.506790 1_555
Na6 O24 2.551015 1_555
Na6 O20 2.846012 1_555
Na7 O27 2.293882 1_555
Na7 O16 2.328781 1_455
Na7 O19 2.387166 1_555
Na7 O17 2.391655 1_555
Na7 O23 2.428545 1_455
Na7 O24 2.556122 1_455
Li0 O1 2.113338 1_555
Li0 O12 2.129057 1_555
Li0 O7 2.223685 1_554
Li0 O13 2.231643 1_555
Li1 O26 2.115007 1_555
Li1 O15 2.144202 1_555
Li1 O14 2.193323 1_455
Li1 O21 2.232192 1_556
Li1 O22 2.591579 1_455
Li2 O3 2.128911 1_565
Li2 O26 2.152586 1_555
Li2 O19 2.272037 1_555
Li2 O18 2.318432 1_555
Li3 O2 2.060308 1_564
Li3 O27 2.102721 1_555
Li3 O20 2.313494 1_555
Li3 O21 2.407369 1_555
Mn0 O15 2.119854 1_555
Mn0 O13 2.153264 1_556
Mn0 O7 2.173565 1_555
Mn0 O6 2.173641 1_455
Mn0 O4 2.250203 1_555
Mn0 O2 2.617997 1_555
Mn1 O17 2.091585 1_555
Mn1 O9 2.171516 1_555
Mn1 O11 2.186293 1_555
Mn1 O8 2.190796 1_455
Mn1 O5 2.191895 1_555
Mn1 O3 2.610601 1_555
Mn2 O10 2.110103 1_555
Mn2 O19 2.196266 1_655
Mn2 O16 2.197896 1_555
Mn2 O18 2.210678 1_555
Mn2 O22 2.295601 1_555
Mn2 O24 2.306028 1_555
Mn3 O12 2.137328 1_555
Mn3 O14 2.163978 1_554
Mn3 O21 2.183646 1_655
Mn3 O20 2.199236 1_555
Mn3 O25 2.308176 1_555
Mn3 O23 2.349110 1_555
C0 O2 1.296503 1_555
C0 O26 1.301569 1_545
C0 O4 1.311621 1_555
C1 O27 1.296456 1_545
C1 O5 1.303903 1_555
C1 O3 1.305737 1_555
C2 O0 1.289336 1_565
C2 O24 1.303753 1_555
C2 O22 1.304205 1_555
C3 O25 1.294666 1_555
C3 O1 1.298744 1_565
C3 O23 1.309760 1_555
O6 P0 1.556314 1_555
O7 P0 1.561539 1_555
O8 P1 1.557347 1_555
O9 P1 1.552183 1_555
O10 P0 1.562375 1_555
O11 P2 1.555805 1_555
O12 P1 1.569986 1_555
O13 P3 1.558992 1_555
O14 P0 1.554109 1_555
O15 P2 1.566769 1_555
O16 P1 1.551191 1_555
O17 P3 1.560272 1_555
O18 P2 1.558370 1_555
O19 P2 1.552738 1_555
O20 P3 1.557093 1_555
O21 P3 1.560221 1_555
