# generated using pymatgen
data_Li13Ni9O22
_symmetry_space_group_name_H-M   'P 1'
_cell_length_a   6.37881000
_cell_length_b   6.41955922
_cell_length_c   10.00723902
_cell_angle_alpha   96.32255570
_cell_angle_beta   104.55397270
_cell_angle_gamma   108.47790282
_symmetry_Int_Tables_number   1
_chemical_formula_structural   Li13Ni9O22
_chemical_formula_sum   'Li13 Ni9 O22'
_cell_volume   368.06455250
_cell_formula_units_Z   1
loop_
 _symmetry_equiv_pos_site_id
 _symmetry_equiv_pos_as_xyz
  1  'x, y, z'
loop_
 _atom_site_type_symbol
 _atom_site_label
 _atom_site_symmetry_multiplicity
 _atom_site_fract_x
 _atom_site_fract_y
 _atom_site_fract_z
 _atom_site_occupancy
  Li  Li0  1  0.08712600  0.45065500  0.63559700  1
  Li  Li1  1  0.82088900  0.08807300  0.72766600  1
  Li  Li2  1  0.18113400  0.90801000  0.77314100  1
  Li  Li3  1  0.27438500  0.36362900  0.90829600  1
  Li  Li4  1  0.54052300  0.73444300  0.81845100  1
  Li  Li5  1  0.00000000  0.00000000  0.00000000  1
  Li  Li6  1  0.72561500  0.63637100  0.09170400  1
  Li  Li7  1  0.45947700  0.26555700  0.18154900  1
  Li  Li8  1  0.81886600  0.09199000  0.22685900  1
  Li  Li9  1  0.91287400  0.54934500  0.36440300  1
  Li  Li10  1  0.17911100  0.91192700  0.27233400  1
  Li  Li11  1  0.64118200  0.18176600  0.45356200  1
  Li  Li12  1  0.35881800  0.81823400  0.54643800  1
  Ni  Ni0  1  0.45333900  0.26653300  0.68051700  1
  Ni  Ni1  1  0.90821300  0.54231200  0.86286200  1
  Ni  Ni2  1  0.63593400  0.18029200  0.95458100  1
  Ni  Ni3  1  0.09178700  0.45768800  0.13713800  1
  Ni  Ni4  1  0.36406600  0.81970800  0.04541900  1
  Ni  Ni5  1  0.27076200  0.36224200  0.40778500  1
  Ni  Ni6  1  0.54666100  0.73346700  0.31948300  1
  Ni  Ni7  1  0.00000000  0.00000000  0.50000000  1
  Ni  Ni8  1  0.72923800  0.63775800  0.59221500  1
  O  O0  1  0.75462200  0.36449100  0.65705800  1
  O  O1  1  0.41712800  0.52564100  0.60404700  1
  O  O2  1  0.14524200  0.17458100  0.68828900  1
  O  O3  1  0.93602200  0.27785600  0.93103700  1
  O  O4  1  0.50806700  0.02586900  0.76228800  1
  O  O5  1  0.85152900  0.78440300  0.78654200  1
  O  O6  1  0.60569400  0.43869400  0.88881700  1
  O  O7  1  0.39430600  0.56130600  0.11118300  1
  O  O8  1  0.21972700  0.64204300  0.85712900  1
  O  O9  1  0.78027300  0.35795700  0.14287100  1
  O  O10  1  0.34207900  0.08321500  0.98414900  1
  O  O11  1  0.14847100  0.21559700  0.21345800  1
  O  O12  1  0.65792100  0.91678500  0.01585100  1
  O  O13  1  0.24537800  0.63550900  0.34294200  1
  O  O14  1  0.06397800  0.72214400  0.06896300  1
  O  O15  1  0.85475800  0.82541900  0.31171100  1
  O  O16  1  0.58287200  0.47435900  0.39595300  1
  O  O17  1  0.97480300  0.26132000  0.43510200  1
  O  O18  1  0.49193300  0.97413100  0.23771200  1
  O  O19  1  0.29501500  0.08619000  0.47405700  1
  O  O20  1  0.02519700  0.73868000  0.56489800  1
  O  O21  1  0.70498500  0.91381000  0.52594300  1
loop_
_geom_bond_atom_site_label_1
_geom_bond_atom_site_label_2
_geom_bond_distance
_geom_bond_site_symmetry_2
Li0 O2 2.020018 1_555
Li0 O17 2.050532 1_455
Li0 O0 2.088559 1_455
Li0 O1 2.118420 1_555
Li0 O20 2.164726 1_555
Li0 O8 2.222305 1_555
Li1 O21 2.025200 1_545
Li1 O4 2.033249 1_555
Li1 O3 2.073926 1_555
Li1 O0 2.104339 1_555
Li1 O2 2.115187 1_655
Li1 O5 2.149935 1_545
Li2 O4 2.016206 1_565
Li2 O8 2.039784 1_555
Li2 O2 2.042688 1_565
Li2 O5 2.043456 1_455
Li2 O20 2.070681 1_555
Li2 O10 2.105551 1_565
Li3 O8 2.021141 1_555
Li3 O6 2.078145 1_555
Li3 O7 2.086725 1_556
Li3 O3 2.129460 1_455
Li3 O10 2.152229 1_555
Li3 O2 2.205680 1_555
Li4 O12 2.006212 1_556
Li4 O5 2.019432 1_555
Li4 O4 2.068178 1_565
Li4 O8 2.090031 1_555
Li4 O1 2.206544 1_555
Li4 O6 2.218311 1_555
Li5 O3 2.101300 1_454
Li5 O14 2.101300 1_545
Li5 O10 2.127356 1_554
Li5 O12 2.127356 1_445
Li5 O11 2.208333 1_555
Li5 O5 2.208333 1_444
Li6 O9 2.021141 1_555
Li6 O7 2.078145 1_555
Li6 O6 2.086725 1_554
Li6 O14 2.129460 1_655
Li6 O12 2.152229 1_555
Li6 O15 2.205680 1_555
Li7 O10 2.006212 1_554
Li7 O11 2.019432 1_555
Li7 O18 2.068178 1_545
Li7 O9 2.090031 1_555
Li7 O16 2.206544 1_555
Li7 O7 2.218311 1_555
Li8 O18 2.016206 1_545
Li8 O9 2.039784 1_555
Li8 O15 2.042688 1_545
Li8 O11 2.043456 1_655
Li8 O17 2.070681 1_555
Li8 O12 2.105551 1_545
Li9 O15 2.020018 1_555
Li9 O20 2.050532 1_655
Li9 O13 2.088559 1_655
Li9 O16 2.118420 1_555
Li9 O17 2.164726 1_555
Li9 O9 2.222305 1_555
Li10 O19 2.025200 1_565
Li10 O18 2.033249 1_555
Li10 O14 2.073926 1_555
Li10 O13 2.104339 1_555
Li10 O15 2.115187 1_455
Li10 O11 2.149935 1_565
Li11 O21 2.054089 1_545
Li11 O0 2.059579 1_555
Li11 O17 2.086437 1_555
Li11 O16 2.138310 1_555
Li11 O19 2.165851 1_555
Li11 O18 2.208361 1_545
Li12 O19 2.054089 1_565
Li12 O13 2.059579 1_555
Li12 O20 2.086437 1_555
Li12 O1 2.138310 1_555
Li12 O21 2.165851 1_555
Li12 O4 2.208361 1_565
Ni0 O2 1.889032 1_555
Ni0 O0 1.907139 1_555
Ni0 O4 1.911841 1_555
Ni0 O1 1.959793 1_555
Ni0 O6 2.074783 1_555
Ni0 O19 2.076620 1_555
Ni1 O5 1.899519 1_555
Ni1 O8 1.902808 1_655
Ni1 O6 1.926142 1_555
Ni1 O3 1.940167 1_555
Ni1 O0 2.064893 1_555
Ni1 O14 2.071817 1_656
Ni2 O10 1.889014 1_555
Ni2 O12 1.895450 1_546
Ni2 O6 1.897764 1_555
Ni2 O3 1.900310 1_555
Ni2 O4 1.905122 1_555
Ni2 O9 1.920439 1_556
Ni3 O11 1.899519 1_555
Ni3 O9 1.902808 1_455
Ni3 O7 1.926142 1_555
Ni3 O14 1.940167 1_555
Ni3 O13 2.064893 1_555
Ni3 O3 2.071817 1_454
Ni4 O12 1.889014 1_555
Ni4 O10 1.895450 1_564
Ni4 O7 1.897764 1_555
Ni4 O14 1.900310 1_555
Ni4 O18 1.905122 1_555
Ni4 O8 1.920439 1_554
Ni5 O17 1.892511 1_455
Ni5 O11 1.909289 1_555
Ni5 O16 1.929932 1_555
Ni5 O1 1.957883 1_555
Ni5 O13 1.975515 1_555
Ni5 O19 1.996320 1_555
Ni6 O15 1.889032 1_555
Ni6 O13 1.907139 1_555
Ni6 O18 1.911841 1_555
Ni6 O16 1.959793 1_555
Ni6 O7 2.074783 1_555
Ni6 O21 2.076620 1_555
Ni7 O19 1.879376 1_555
Ni7 O21 1.879376 1_445
Ni7 O17 1.902691 1_455
Ni7 O20 1.902691 1_545
Ni7 O15 1.914197 1_445
Ni7 O2 1.914197 1_555
Ni8 O20 1.892511 1_655
Ni8 O5 1.909289 1_555
Ni8 O1 1.929932 1_555
Ni8 O16 1.957883 1_555
Ni8 O0 1.975515 1_555
Ni8 O21 1.996320 1_555
