# generated using pymatgen
data_MnC8(Br2N)2
_symmetry_space_group_name_H-M   'P 1'
_cell_length_a   8.34103100
_cell_length_b   11.88929800
_cell_length_c   16.30806500
_cell_angle_alpha   90.00000000
_cell_angle_beta   90.00000000
_cell_angle_gamma   90.00000000
_symmetry_Int_Tables_number   1
_chemical_formula_structural   MnC8(Br2N)2
_chemical_formula_sum   'Mn4 C32 Br16 N8'
_cell_volume   1617.25454995
_cell_formula_units_Z   4
loop_
 _symmetry_equiv_pos_site_id
 _symmetry_equiv_pos_as_xyz
  1  'x, y, z'
loop_
 _atom_site_type_symbol
 _atom_site_label
 _atom_site_symmetry_multiplicity
 _atom_site_fract_x
 _atom_site_fract_y
 _atom_site_fract_z
 _atom_site_occupancy
  Mn  Mn0  1  0.25000000  0.74892900  0.08948500  1
  Mn  Mn1  1  0.25000000  0.24892900  0.41051500  1
  Mn  Mn2  1  0.75000000  0.25107100  0.91051500  1
  Mn  Mn3  1  0.75000000  0.75107100  0.58948500  1
  C  C0  1  0.25000000  0.73878700  0.36511600  1
  C  C1  1  0.25000000  0.23878700  0.13488400  1
  C  C2  1  0.75000000  0.26121300  0.63488400  1
  C  C3  1  0.75000000  0.76121300  0.86511600  1
  C  C4  1  0.25000000  0.58271100  0.47786900  1
  C  C5  1  0.25000000  0.08271100  0.02213100  1
  C  C6  1  0.75000000  0.41728900  0.52213100  1
  C  C7  1  0.75000000  0.91728900  0.97786900  1
  C  C8  1  0.33660100  0.62116700  0.34917900  1
  C  C9  1  0.16339900  0.12116700  0.15082100  1
  C  C10  1  0.83660100  0.37883300  0.65082100  1
  C  C11  1  0.66339900  0.87883300  0.84917900  1
  C  C12  1  0.66339900  0.37883300  0.65082100  1
  C  C13  1  0.83660100  0.87883300  0.84917900  1
  C  C14  1  0.16339900  0.62116700  0.34917900  1
  C  C15  1  0.33660100  0.12116700  0.15082100  1
  C  C16  1  0.25000000  0.02959500  0.77039500  1
  C  C17  1  0.25000000  0.52959500  0.72960500  1
  C  C18  1  0.75000000  0.97040500  0.22960500  1
  C  C19  1  0.75000000  0.47040500  0.27039500  1
  C  C20  1  0.25000000  0.87430400  0.58156000  1
  C  C21  1  0.25000000  0.37430400  0.91844000  1
  C  C22  1  0.75000000  0.12569600  0.41844000  1
  C  C23  1  0.75000000  0.62569600  0.08156000  1
  C  C24  1  0.37104800  0.02684200  0.71658700  1
  C  C25  1  0.12895200  0.52684200  0.78341300  1
  C  C26  1  0.87104800  0.97315800  0.28341300  1
  C  C27  1  0.62895200  0.47315800  0.21658700  1
  C  C28  1  0.62895200  0.97315800  0.28341300  1
  C  C29  1  0.87104800  0.47315800  0.21658700  1
  C  C30  1  0.12895200  0.02684200  0.71658700  1
  C  C31  1  0.37104800  0.52684200  0.78341300  1
  Br  Br0  1  0.25000000  0.56274900  0.09733600  1
  Br  Br1  1  0.25000000  0.06274900  0.40266400  1
  Br  Br2  1  0.75000000  0.43725100  0.90266400  1
  Br  Br3  1  0.75000000  0.93725100  0.59733600  1
  Br  Br4  1  0.25000000  0.80346000  0.95742000  1
  Br  Br5  1  0.25000000  0.30346000  0.54258000  1
  Br  Br6  1  0.75000000  0.19654000  0.04258000  1
  Br  Br7  1  0.75000000  0.69654000  0.45742000  1
  Br  Br8  1  0.03505900  0.81153400  0.15801100  1
  Br  Br9  1  0.46494100  0.31153400  0.34198900  1
  Br  Br10  1  0.53505900  0.18846600  0.84198900  1
  Br  Br11  1  0.96494100  0.68846600  0.65801100  1
  Br  Br12  1  0.96494100  0.18846600  0.84198900  1
  Br  Br13  1  0.53505900  0.68846600  0.65801100  1
  Br  Br14  1  0.46494100  0.81153400  0.15801100  1
  Br  Br15  1  0.03505900  0.31153400  0.34198900  1
  N  N0  1  0.25000000  0.67500600  0.44227500  1
  N  N1  1  0.25000000  0.17500600  0.05772500  1
  N  N2  1  0.75000000  0.32499400  0.55772500  1
  N  N3  1  0.75000000  0.82499400  0.94227500  1
  N  N4  1  0.25000000  0.96722000  0.60897300  1
  N  N5  1  0.25000000  0.46722000  0.89102700  1
  N  N6  1  0.75000000  0.03278000  0.39102700  1
  N  N7  1  0.75000000  0.53278000  0.10897300  1
loop_
_geom_bond_atom_site_label_1
_geom_bond_atom_site_label_2
_geom_bond_distance
_geom_bond_site_symmetry_2
C0 N0 1.469146 1_555
C0 C8 1.595275 1_555
C0 C14 1.595275 1_555
C1 N1 1.469146 1_555
C1 C9 1.595275 1_555
C1 C15 1.595275 1_555
C2 N2 1.469146 1_555
C3 N3 1.469146 1_555
C4 N0 1.241395 1_555
C5 N1 1.241395 1_555
C6 N2 1.241395 1_555
C7 N3 1.241395 1_555
C8 N0 1.799026 1_555
C9 N1 1.799026 1_555
C10 C12 1.444683 1_555
C10 C2 1.595275 1_555
C10 N2 1.799026 1_555
C11 C13 1.444683 1_555
C11 C3 1.595275 1_555
C11 N3 1.799026 1_555
C12 C2 1.595275 1_555
C12 N2 1.799026 1_555
C13 C3 1.595275 1_555
C13 N3 1.799026 1_555
C14 C8 1.444683 1_555
C14 N0 1.799026 1_555
C15 C9 1.444683 1_555
C15 N1 1.799026 1_555
C16 C24 1.338099 1_555
C16 C30 1.338099 1_555
C17 C25 1.338099 1_555
C17 C31 1.338099 1_555
C18 C26 1.338099 1_555
C18 C28 1.338099 1_555
C19 C27 1.338099 1_555
C19 C29 1.338099 1_555
C20 N4 1.191735 1_555
C21 N5 1.191735 1_555
C22 N6 1.191735 1_555
C23 N7 1.191735 1_555
C24 N4 2.145193 1_545
C25 N5 2.145193 1_555
C26 N6 2.145193 1_565
C27 N7 2.145193 1_555
C28 N6 2.145193 1_565
C29 N7 2.145193 1_555
C30 N4 2.145193 1_545
C31 N5 2.145193 1_555
Br0 Mn0 2.217249 1_555
Br1 Mn1 2.217249 1_555
Br2 Mn2 2.217249 1_555
Br3 Mn3 2.217249 1_555
Br4 Mn0 2.249193 1_556
Br5 Mn1 2.249193 1_555
Br6 Mn2 2.249193 1_554
Br7 Mn3 2.249193 1_555
Br8 Mn0 2.239895 1_555
Br9 Mn1 2.239895 1_555
Br10 Mn2 2.239895 1_555
Br11 Mn3 2.239895 1_555
Br12 Mn2 2.239895 1_555
Br13 Mn3 2.239895 1_555
Br14 Mn0 2.239895 1_555
Br15 Mn1 2.239895 1_555
