# generated using pymatgen
data_Li2Ti3Co(PO4)6
_symmetry_space_group_name_H-M   'P 1'
_cell_length_a   8.64736777
_cell_length_b   8.64736777
_cell_length_c   8.64736770
_cell_angle_alpha   59.35002677
_cell_angle_beta   59.35002677
_cell_angle_gamma   59.35002351
_symmetry_Int_Tables_number   1
_chemical_formula_structural   Li2Ti3Co(PO4)6
_chemical_formula_sum   'Li2 Ti3 Co1 P6 O24'
_cell_volume   450.46718340
_cell_formula_units_Z   1
loop_
 _symmetry_equiv_pos_site_id
 _symmetry_equiv_pos_as_xyz
  1  'x, y, z'
loop_
 _atom_site_type_symbol
 _atom_site_label
 _atom_site_symmetry_multiplicity
 _atom_site_fract_x
 _atom_site_fract_y
 _atom_site_fract_z
 _atom_site_occupancy
  Li  Li0  1  0.01016900  0.01016900  0.01016900  1
  Li  Li1  1  0.50010500  0.50010500  0.50010500  1
  Ti  Ti0  1  0.64368400  0.64368400  0.64368400  1
  Ti  Ti1  1  0.85876100  0.85876100  0.85876100  1
  Ti  Ti2  1  0.35728400  0.35728400  0.35728400  1
  Co  Co0  1  0.14264600  0.14264600  0.14264600  1
  P  P0  1  0.53033200  0.96216800  0.25100800  1
  P  P1  1  0.25100800  0.53033200  0.96216800  1
  P  P2  1  0.96216800  0.25100800  0.53033200  1
  P  P3  1  0.04102500  0.75803500  0.45517800  1
  P  P4  1  0.75803500  0.45517800  0.04102500  1
  P  P5  1  0.45517800  0.04102500  0.75803500  1
  O  O0  1  0.29756600  0.49825700  0.12861000  1
  O  O1  1  0.12861000  0.29756600  0.49825700  1
  O  O2  1  0.49825700  0.12861000  0.29756600  1
  O  O3  1  0.72083800  0.94326700  0.08140500  1
  O  O4  1  0.55732600  0.77211700  0.42031100  1
  O  O5  1  0.36257600  0.98636800  0.21484100  1
  O  O6  1  0.08140500  0.72083800  0.94326700  1
  O  O7  1  0.42031100  0.55732600  0.77211700  1
  O  O8  1  0.77211700  0.42031100  0.55732600  1
  O  O9  1  0.00304600  0.80144800  0.62511400  1
  O  O10  1  0.05388800  0.92833300  0.26579000  1
  O  O11  1  0.80144800  0.62511400  0.00304600  1
  O  O12  1  0.21484100  0.36257600  0.98636800  1
  O  O13  1  0.94326700  0.08140500  0.72083800  1
  O  O14  1  0.98636800  0.21484100  0.36257600  1
  O  O15  1  0.23013200  0.58756600  0.43506000  1
  O  O16  1  0.58756600  0.43506000  0.23013200  1
  O  O17  1  0.92833300  0.26579000  0.05388800  1
  O  O18  1  0.62511400  0.00304600  0.80144800  1
  O  O19  1  0.43506000  0.23013200  0.58756600  1
  O  O20  1  0.26579000  0.05388800  0.92833300  1
  O  O21  1  0.49422400  0.87271900  0.70880700  1
  O  O22  1  0.87271900  0.70880700  0.49422400  1
  O  O23  1  0.70880700  0.49422400  0.87271900  1
loop_
_geom_bond_atom_site_label_1
_geom_bond_atom_site_label_2
_geom_bond_distance
_geom_bond_site_symmetry_2
Li0 O17 2.124657 1_455
Li0 O10 2.124657 1_545
Li0 O20 2.124657 1_554
Li0 O6 2.552441 1_544
Li0 O13 2.552441 1_454
Li0 O3 2.552442 1_445
Li1 O8 2.331844 1_555
Li1 O7 2.331844 1_555
Li1 O4 2.331844 1_555
Li1 O15 2.333110 1_555
Li1 O16 2.333110 1_555
Li1 O19 2.333110 1_555
Co0 O5 1.887547 1_545
Co0 O14 1.887548 1_455
Co0 O12 1.887548 1_554
Co0 O17 1.939686 1_455
Co0 O20 1.939686 1_554
Co0 O10 1.939686 1_545
O0 P1 1.542885 1_554
O0 Ti2 1.898548 1_555
O1 P2 1.542885 1_455
O1 Ti2 1.898548 1_555
O2 P0 1.542885 1_545
O2 Ti2 1.898548 1_555
O3 P0 1.548555 1_555
O3 Ti1 1.966680 1_554
O4 P0 1.550128 1_555
O4 Ti0 1.989972 1_555
O5 P0 1.527191 1_555
O6 P1 1.548555 1_555
O6 Ti1 1.966680 1_455
O7 P1 1.550128 1_555
O7 Ti0 1.989972 1_555
O8 P2 1.550128 1_555
O8 Ti0 1.989972 1_555
O9 P3 1.533922 1_555
O9 Ti1 1.924769 1_455
O10 P3 1.544476 1_555
O11 P4 1.533922 1_555
O11 Ti1 1.924769 1_554
O12 P1 1.527191 1_555
O13 P2 1.548555 1_555
O13 Ti1 1.966680 1_545
O14 P2 1.527191 1_555
O15 P3 1.546293 1_555
O15 Ti2 2.001458 1_555
O16 P4 1.546293 1_555
O16 Ti2 2.001458 1_555
O17 P4 1.544476 1_555
O18 P5 1.533922 1_555
O18 Ti1 1.924769 1_545
O19 P5 1.546293 1_555
O19 Ti2 2.001458 1_555
O20 P5 1.544476 1_555
O21 P5 1.548394 1_565
O21 Ti0 1.922324 1_555
O22 P3 1.548394 1_655
O22 Ti0 1.922324 1_555
O23 P4 1.548394 1_556
O23 Ti0 1.922324 1_555
