# generated using pymatgen
data_LiMn2(BO3)2
_symmetry_space_group_name_H-M   'P 1'
_cell_length_a   5.30145500
_cell_length_b   5.77978740
_cell_length_c   22.21411806
_cell_angle_alpha   89.11124888
_cell_angle_beta   89.28641379
_cell_angle_gamma   65.84593157
_symmetry_Int_Tables_number   1
_chemical_formula_structural   LiMn2(BO3)2
_chemical_formula_sum   'Li5 Mn10 B10 O30'
_cell_volume   620.98680459
_cell_formula_units_Z   5
loop_
 _symmetry_equiv_pos_site_id
 _symmetry_equiv_pos_as_xyz
  1  'x, y, z'
loop_
 _atom_site_type_symbol
 _atom_site_label
 _atom_site_symmetry_multiplicity
 _atom_site_fract_x
 _atom_site_fract_y
 _atom_site_fract_z
 _atom_site_occupancy
  Li  Li0  1  0.02841600  0.14286400  0.81303700  1
  Li  Li1  1  0.77341600  0.25689300  0.58725700  1
  Li  Li2  1  0.22668100  0.74323800  0.41324700  1
  Li  Li3  1  0.97988200  0.85390800  0.18781400  1
  Li  Li4  1  0.57599600  0.65568300  0.98841500  1
  Mn  Mn0  1  0.52616900  0.13545600  0.87997900  1
  Mn  Mn1  1  0.27610900  0.26571300  0.52054500  1
  Mn  Mn2  1  0.86990700  0.07755400  0.32545900  1
  Mn  Mn3  1  0.32539600  0.52554200  0.27711700  1
  Mn  Mn4  1  0.92962700  0.32278800  0.07648800  1
  Mn  Mn5  1  0.07638300  0.66814800  0.92265600  1
  Mn  Mn6  1  0.67176300  0.47573600  0.72498200  1
  Mn  Mn7  1  0.12860900  0.92412400  0.67521600  1
  Mn  Mn8  1  0.72369500  0.73438900  0.47976800  1
  Mn  Mn9  1  0.47555500  0.86427000  0.12238900  1
  B  B0  1  0.57671400  0.00239900  0.74954500  1
  B  B1  1  0.22344600  0.39796800  0.65061700  1
  B  B2  1  0.82670900  0.19751900  0.45580900  1
  B  B3  1  0.37622300  0.40136400  0.14558100  1
  B  B4  1  0.97263200  0.20404300  0.94392800  1
  B  B5  1  0.02069300  0.80106900  0.05259100  1
  B  B6  1  0.62780500  0.59804700  0.85635000  1
  B  B7  1  0.17207700  0.80308500  0.54428100  1
  B  B8  1  0.77686400  0.60228700  0.35004600  1
  B  B9  1  0.42563200  0.99429500  0.25081300  1
  O  O0  1  0.00468900  0.11521900  0.40807500  1
  O  O1  1  0.40779300  0.06824700  0.79855300  1
  O  O2  1  0.48332600  0.13500600  0.29476100  1
  O  O3  1  0.01000900  0.31432700  0.65904100  1
  O  O4  1  0.62132600  0.11358300  0.46643900  1
  O  O5  1  0.17763500  0.29059900  0.93233200  1
  O  O6  1  0.79115700  0.08507500  0.74068600  1
  O  O7  1  0.34964400  0.22654900  0.10541400  1
  O  O8  1  0.94326900  0.04643500  0.89833500  1
  O  O9  1  0.39394300  0.33292600  0.60158400  1
  O  O10  1  0.20294800  0.48818800  0.19292300  1
  O  O11  1  0.79723800  0.28696900  0.99081100  1
  O  O12  1  0.26872400  0.54612300  0.69470700  1
  O  O13  1  0.86281600  0.34988700  0.50129500  1
  O  O14  1  0.42310400  0.51282400  0.86829000  1
  O  O15  1  0.57312600  0.49703500  0.13047200  1
  O  O16  1  0.14012200  0.64738500  0.49869300  1
  O  O17  1  0.74040300  0.44769800  0.30603700  1
  O  O18  1  0.19341300  0.74450800  0.00409700  1
  O  O19  1  0.80296100  0.51390000  0.80879600  1
  O  O20  1  0.60480600  0.66698600  0.39824200  1
  O  O21  1  0.07410600  0.92393900  0.10221300  1
  O  O22  1  0.66199900  0.75428800  0.90144300  1
  O  O23  1  0.20412700  0.92413500  0.25899500  1
  O  O24  1  0.79675300  0.73396900  0.05670200  1
  O  O25  1  0.37746200  0.88875800  0.53304300  1
  O  O26  1  0.98785700  0.69174400  0.34174100  1
  O  O27  1  0.53049800  0.85435300  0.70539100  1
  O  O28  1  0.59940400  0.91988000  0.20187600  1
  O  O29  1  0.99545800  0.88585100  0.59133200  1
loop_
_geom_bond_atom_site_label_1
_geom_bond_atom_site_label_2
_geom_bond_distance
_geom_bond_site_symmetry_2
Li0 O1 1.900781 1_555
Li0 O19 1.983746 1_455
Li0 O8 2.063143 1_455
Li0 O6 2.165094 1_455
Li1 O9 1.899069 1_555
Li1 O29 1.980810 1_545
Li1 O13 2.077034 1_555
Li1 O3 2.152493 1_655
Li2 O20 1.894388 1_555
Li2 O0 1.986355 1_565
Li2 O16 2.067379 1_555
Li2 O26 2.141944 1_455
Li3 O28 1.915770 1_555
Li3 O10 1.956943 1_655
Li3 O21 2.036464 1_655
Li3 O23 2.130718 1_655
Li4 O18 1.906434 1_556
Li4 O11 1.967870 1_555
Li4 O24 2.091505 1_556
Li4 O22 2.102829 1_555
Mn0 O1 2.016456 1_555
Mn0 O14 2.033189 1_555
Mn0 O5 2.047826 1_555
Mn0 O22 2.068106 1_545
Mn0 O8 2.098910 1_555
Mn1 O9 2.007541 1_555
Mn1 O25 2.034578 1_545
Mn1 O4 2.056267 1_555
Mn1 O16 2.072610 1_555
Mn1 O13 2.089207 1_455
Mn2 O17 2.002760 1_555
Mn2 O0 2.024458 1_655
Mn2 O2 2.060667 1_555
Mn2 O26 2.081769 1_545
Mn2 O23 2.189810 1_645
Mn3 O10 2.030636 1_555
Mn3 O2 2.093736 1_555
Mn3 O23 2.156005 1_555
Mn3 O17 2.161457 1_555
Mn3 O26 2.181231 1_455
Mn4 O11 2.078987 1_554
Mn4 O15 2.108948 1_555
Mn4 O7 2.165966 1_655
Mn4 O21 2.180019 1_645
Mn4 O24 2.223194 1_555
Mn5 O5 2.031217 1_555
Mn5 O18 2.032123 1_556
Mn5 O14 2.066650 1_555
Mn5 O8 2.068925 1_465
Mn5 O22 2.102246 1_455
Mn6 O19 2.041932 1_555
Mn6 O27 2.043622 1_555
Mn6 O6 2.105246 1_555
Mn6 O12 2.121128 1_555
Mn6 O3 2.199881 1_655
Mn7 O12 2.040336 1_555
Mn7 O29 2.047646 1_455
Mn7 O3 2.104941 1_565
Mn7 O27 2.115519 1_555
Mn7 O6 2.190025 1_465
Mn8 O20 2.019930 1_555
Mn8 O4 2.048424 1_565
Mn8 O25 2.050417 1_555
Mn8 O13 2.084675 1_555
Mn8 O16 2.100342 1_655
Mn9 O7 1.951944 1_565
Mn9 O28 1.967590 1_555
Mn9 O15 1.974070 1_555
Mn9 O21 2.065818 1_555
Mn9 O24 2.125714 1_555
B0 O1 1.357078 1_555
B0 O27 1.399235 1_545
B0 O6 1.412662 1_555
B1 O9 1.361923 1_555
B1 O12 1.396506 1_555
B1 O3 1.410197 1_555
B2 O0 1.365414 1_655
B2 O4 1.378040 1_555
B2 O13 1.415467 1_555
B3 O10 1.347854 1_555
B3 O15 1.402135 1_555
B3 O7 1.408729 1_555
B4 O11 1.343732 1_555
B4 O5 1.389887 1_655
B4 O8 1.424227 1_555
B5 O18 1.359105 1_555
B5 O24 1.393275 1_455
B5 O21 1.412880 1_555
B6 O19 1.355223 1_555
B6 O14 1.384523 1_555
B6 O22 1.420670 1_555
B7 O29 1.350026 1_455
B7 O25 1.386984 1_555
B7 O16 1.421762 1_555
B8 O20 1.351690 1_555
B8 O17 1.401635 1_555
B8 O26 1.420485 1_555
B9 O28 1.371401 1_555
B9 O2 1.394171 1_565
B9 O23 1.399484 1_555
