# generated using pymatgen
data_Li2TiVO5
_symmetry_space_group_name_H-M   'P 1'
_cell_length_a   8.14415391
_cell_length_b   8.14415490
_cell_length_c   8.14415057
_cell_angle_alpha   71.31907481
_cell_angle_beta   111.06488443
_cell_angle_gamma   71.32039879
_symmetry_Int_Tables_number   1
_chemical_formula_structural   Li2TiVO5
_chemical_formula_sum   'Li8 Ti4 V4 O20'
_cell_volume   415.58855360
_cell_formula_units_Z   4
loop_
 _symmetry_equiv_pos_site_id
 _symmetry_equiv_pos_as_xyz
  1  'x, y, z'
loop_
 _atom_site_type_symbol
 _atom_site_label
 _atom_site_symmetry_multiplicity
 _atom_site_fract_x
 _atom_site_fract_y
 _atom_site_fract_z
 _atom_site_occupancy
  Li  Li0  1  0.00000200  0.00002900  0.99997300  1
  Li  Li1  1  0.49999800  0.99997100  0.50002700  1
  Li  Li2  1  0.75000100  0.49999900  0.75000000  1
  Li  Li3  1  0.24999900  0.50000100  0.25000000  1
  Li  Li4  1  0.00000200  0.49997100  0.50003100  1
  Li  Li5  1  0.49999800  0.50002900  0.99996800  1
  Li  Li6  1  0.24999900  0.00000100  0.75000000  1
  Li  Li7  1  0.75000100  0.99999900  0.25000000  1
  Ti  Ti0  1  0.00000500  0.74999600  0.75000000  1
  Ti  Ti1  1  0.49999500  0.75000500  0.25000000  1
  Ti  Ti2  1  0.49999500  0.25000400  0.74999900  1
  Ti  Ti3  1  0.00000500  0.24999400  0.25000000  1
  V  V0  1  0.80401000  0.25000200  0.55401000  1
  V  V1  1  0.69599200  0.74999600  0.94599400  1
  V  V2  1  0.30409200  0.24999900  0.05409100  1
  V  V3  1  0.19590700  0.75000100  0.44590800  1
  O  O0  1  0.12127200  0.25000000  0.87127200  1
  O  O1  1  0.62098900  0.25000000  0.37098900  1
  O  O2  1  0.37872900  0.75000000  0.62872900  1
  O  O3  1  0.87900900  0.75000000  0.12900900  1
  O  O4  1  0.77216800  0.74998700  0.74098200  1
  O  O5  1  0.27213500  0.74998300  0.24094600  1
  O  O6  1  0.22786600  0.53118700  0.97788300  1
  O  O7  1  0.72783200  0.53118700  0.47784500  1
  O  O8  1  0.00903100  0.96881400  0.75901900  1
  O  O9  1  0.50907200  0.96881300  0.25905400  1
  O  O10  1  0.99092900  0.75001700  0.52211700  1
  O  O11  1  0.49096900  0.75001200  0.02215500  1
  O  O12  1  0.50907100  0.24998300  0.97788300  1
  O  O13  1  0.00903100  0.24998800  0.47784400  1
  O  O14  1  0.49096900  0.03118500  0.74098100  1
  O  O15  1  0.99092900  0.03118800  0.24094600  1
  O  O16  1  0.27213400  0.46881200  0.52211700  1
  O  O17  1  0.77216700  0.46881400  0.02215500  1
  O  O18  1  0.72783200  0.25001300  0.75901800  1
  O  O19  1  0.22786600  0.25001800  0.25905400  1
loop_
_geom_bond_atom_site_label_1
_geom_bond_atom_site_label_2
_geom_bond_distance
_geom_bond_site_symmetry_2
Li0 O8 2.081404 1_545
Li0 O18 2.081417 1_455
Li0 O15 2.081490 1_456
Li0 O5 2.081498 1_546
Li1 O14 2.081401 1_565
Li1 O4 2.081417 1_555
Li1 O9 2.081490 1_555
Li1 O19 2.081497 1_565
Li2 O7 2.081387 1_555
Li2 O18 2.081389 1_555
Li2 O4 2.081399 1_555
Li2 O17 2.081401 1_556
Li3 O16 2.081170 1_555
Li3 O19 2.081172 1_555
Li3 O5 2.081174 1_555
Li3 O6 2.081181 1_554
Li4 O13 2.081409 1_555
Li4 O7 2.081412 1_455
Li4 O10 2.081491 1_455
Li4 O16 2.081492 1_555
Li5 O17 2.081403 1_556
Li5 O11 2.081409 1_556
Li5 O12 2.081488 1_555
Li5 O6 2.081496 1_555
Li6 O8 2.081392 1_545
Li6 O14 2.081398 1_555
Li6 O13 2.081399 1_555
Li6 O11 2.081405 1_546
Li7 O9 2.081168 1_555
Li7 O15 2.081170 1_565
Li7 O10 2.081173 1_555
Li7 O12 2.081183 1_564
O0 V2 1.685261 1_556
O1 V0 1.687132 1_555
O2 V3 1.685280 1_555
O3 V1 1.687096 1_554
O4 Ti0 1.830450 1_655
O4 V1 1.979208 1_555
O5 Ti1 1.830578 1_555
O5 V3 1.979093 1_555
O6 Ti0 1.830594 1_555
O6 V2 1.979085 1_556
O7 Ti1 1.830448 1_555
O7 V0 1.979187 1_555
O8 Ti0 1.830442 1_555
O8 V0 1.979208 1_465
O9 Ti1 1.830597 1_555
O9 V2 1.979078 1_565
O10 Ti0 1.830588 1_655
O10 V3 1.979075 1_655
O11 Ti1 1.830450 1_555
O11 V1 1.979185 1_554
O12 Ti2 1.830596 1_555
O12 V2 1.979078 1_556
O13 Ti3 1.830444 1_555
O13 V0 1.979197 1_455
O14 Ti2 1.830448 1_555
O14 V1 1.979222 1_545
O15 Ti3 1.830578 1_655
O15 V3 1.979079 1_645
O16 Ti2 1.830589 1_555
O16 V3 1.979090 1_555
O17 Ti3 1.830456 1_655
O17 V1 1.979174 1_554
O18 Ti2 1.830448 1_555
O18 V0 1.979190 1_555
O19 Ti3 1.830592 1_555
O19 V2 1.979092 1_555
