# generated using pymatgen
data_NaLuO2
_symmetry_space_group_name_H-M   'P 1'
_cell_length_a   7.18338303
_cell_length_b   7.18338303
_cell_length_c   5.73322638
_cell_angle_alpha   75.81187942
_cell_angle_beta   75.81187942
_cell_angle_gamma   126.38827120
_symmetry_Int_Tables_number   1
_chemical_formula_structural   NaLuO2
_chemical_formula_sum   'Na4 Lu4 O8'
_cell_volume   199.90856570
_cell_formula_units_Z   4
loop_
 _symmetry_equiv_pos_site_id
 _symmetry_equiv_pos_as_xyz
  1  'x, y, z'
loop_
 _atom_site_type_symbol
 _atom_site_label
 _atom_site_symmetry_multiplicity
 _atom_site_fract_x
 _atom_site_fract_y
 _atom_site_fract_z
 _atom_site_occupancy
  Na  Na0  1  0.55530244  0.44469756  0.75000000  1
  Na  Na1  1  0.67985763  0.32014237  0.25000000  1
  Na  Na2  1  0.32014237  0.67985763  0.75000000  1
  Na  Na3  1  0.44469756  0.55530244  0.25000000  1
  Lu  Lu0  1  0.19338232  0.80661768  0.25000000  1
  Lu  Lu1  1  0.93284902  0.06715098  0.25000000  1
  Lu  Lu2  1  0.06715098  0.93284902  0.75000000  1
  Lu  Lu3  1  0.80661768  0.19338232  0.75000000  1
  O  O0  1  0.14064541  0.26770097  0.79190773  1
  O  O1  1  0.95819273  0.58212765  0.71025614  1
  O  O2  1  0.26770097  0.14064541  0.29190773  1
  O  O3  1  0.41787235  0.04180727  0.78974386  1
  O  O4  1  0.58212765  0.95819273  0.21025614  1
  O  O5  1  0.73229903  0.85935459  0.70809227  1
  O  O6  1  0.04180727  0.41787235  0.28974386  1
  O  O7  1  0.85935459  0.73229903  0.20809227  1
loop_
_geom_bond_atom_site_label_1
_geom_bond_atom_site_label_2
_geom_bond_distance
_geom_bond_site_symmetry_2
Na0 O0 2.356377 1_555
Na0 O5 2.356377 1_555
Na0 O3 2.361967 1_555
Na0 O1 2.361967 1_555
Na0 O2 2.619996 1_556
Na0 O7 2.619996 1_555
Na1 O7 2.335772 1_555
Na1 O2 2.335772 1_555
Na1 O4 2.346912 1_545
Na1 O6 2.346912 1_655
Na1 O3 2.600524 1_555
Na1 O1 2.600524 1_554
Na2 O5 2.335772 1_555
Na2 O0 2.335772 1_555
Na2 O1 2.346912 1_455
Na2 O3 2.346912 1_565
Na2 O6 2.600524 1_556
Na2 O4 2.600524 1_555
Na3 O2 2.356377 1_555
Na3 O7 2.356377 1_555
Na3 O6 2.361967 1_555
Na3 O4 2.361967 1_555
Na3 O5 2.619996 1_554
Na3 O0 2.619996 1_555
Lu0 O1 2.216718 1_455
Lu0 O3 2.216718 1_564
Lu0 O7 2.219392 1_455
Lu0 O2 2.219392 1_565
Lu0 O6 2.234810 1_555
Lu0 O4 2.234810 1_555
Lu1 O5 2.207531 1_545
Lu1 O0 2.207531 1_654
Lu1 O2 2.227332 1_655
Lu1 O7 2.227332 1_545
Lu1 O4 2.245198 1_545
Lu1 O6 2.245198 1_655
Lu2 O2 2.207531 1_565
Lu2 O7 2.207531 1_456
Lu2 O0 2.227332 1_565
Lu2 O5 2.227332 1_455
Lu2 O3 2.245198 1_565
Lu2 O1 2.245198 1_455
Lu3 O6 2.216718 1_655
Lu3 O4 2.216718 1_546
Lu3 O5 2.219392 1_545
Lu3 O0 2.219392 1_655
Lu3 O3 2.234810 1_555
Lu3 O1 2.234810 1_555
