# generated using pymatgen
data_LiLaNdSbO6
_symmetry_space_group_name_H-M   'P 1'
_cell_length_a   5.61503900
_cell_length_b   5.79327967
_cell_length_c   8.04449925
_cell_angle_alpha   89.97871403
_cell_angle_beta   89.65384432
_cell_angle_gamma   89.61370192
_symmetry_Int_Tables_number   1
_chemical_formula_structural   LiLaNdSbO6
_chemical_formula_sum   'Li2 La2 Nd2 Sb2 O12'
_cell_volume   261.67273083
_cell_formula_units_Z   2
loop_
 _symmetry_equiv_pos_site_id
 _symmetry_equiv_pos_as_xyz
  1  'x, y, z'
loop_
 _atom_site_type_symbol
 _atom_site_label
 _atom_site_symmetry_multiplicity
 _atom_site_fract_x
 _atom_site_fract_y
 _atom_site_fract_z
 _atom_site_occupancy
  Li  Li0  1  0.00000000  0.50000000  0.00000000  1
  Li  Li1  1  0.50000000  0.00000000  0.50000000  1
  La  La0  1  0.98546800  0.05124900  0.24870000  1
  La  La1  1  0.01453200  0.94875100  0.75130000  1
  Nd  Nd0  1  0.51541900  0.55470800  0.25099600  1
  Nd  Nd1  1  0.48458100  0.44529200  0.74900400  1
  Sb  Sb0  1  0.00000000  0.50000000  0.50000000  1
  Sb  Sb1  1  0.50000000  0.00000000  0.00000000  1
  O  O0  1  0.10605600  0.46964900  0.26183400  1
  O  O1  1  0.21257800  0.19540900  0.95145400  1
  O  O2  1  0.19269100  0.21584400  0.55635900  1
  O  O3  1  0.31378800  0.71428900  0.94265600  1
  O  O4  1  0.28596000  0.69132100  0.55317900  1
  O  O5  1  0.40307400  0.96059900  0.23895900  1
  O  O6  1  0.59692600  0.03940100  0.76104100  1
  O  O7  1  0.71404000  0.30867900  0.44682100  1
  O  O8  1  0.68621200  0.28571100  0.05734400  1
  O  O9  1  0.80730900  0.78415600  0.44364100  1
  O  O10  1  0.78742200  0.80459100  0.04854600  1
  O  O11  1  0.89394400  0.53035100  0.73816600  1
loop_
_geom_bond_atom_site_label_1
_geom_bond_atom_site_label_2
_geom_bond_distance
_geom_bond_site_symmetry_2
Li0 O10 2.158124 1_455
Li0 O1 2.158124 1_554
Li0 O0 2.199003 1_555
Li0 O11 2.199003 1_454
Li0 O3 2.208533 1_554
Li0 O8 2.208533 1_455
Li1 O2 2.169924 1_555
Li1 O9 2.169924 1_545
Li1 O6 2.184928 1_555
Li1 O5 2.184928 1_545
Li1 O4 2.201710 1_545
Li1 O7 2.201710 1_555
La0 O5 2.400328 1_645
La0 O9 2.419584 1_545
La0 O10 2.432255 1_545
La0 O0 2.523520 1_655
La0 O7 2.651207 1_555
La0 O8 2.652749 1_555
La0 O1 2.831528 1_654
La0 O2 2.905182 1_655
La1 O6 2.400328 1_465
La1 O2 2.419584 1_565
La1 O1 2.432255 1_565
La1 O11 2.523520 1_455
La1 O4 2.651207 1_555
La1 O3 2.652749 1_555
La1 O10 2.831528 1_456
La1 O9 2.905182 1_455
Nd0 O0 2.355155 1_555
Nd0 O8 2.395553 1_555
Nd0 O7 2.398974 1_555
Nd0 O5 2.432519 1_555
Nd0 O9 2.629910 1_555
Nd0 O10 2.660584 1_555
Nd0 O4 2.854044 1_555
Nd0 O3 2.882221 1_554
Nd1 O11 2.355155 1_555
Nd1 O3 2.395553 1_555
Nd1 O4 2.398974 1_555
Nd1 O6 2.432519 1_555
Nd1 O2 2.629910 1_555
Nd1 O1 2.660584 1_555
Nd1 O7 2.854044 1_555
Nd1 O8 2.882221 1_556
O0 Sb0 2.010317 1_555
O1 Sb1 2.005330 1_556
O2 Sb0 2.016810 1_555
O3 Sb1 2.018783 1_566
O4 Sb0 2.005581 1_555
O5 Sb1 2.008051 1_565
O6 Sb1 2.008051 1_556
O7 Sb0 2.005581 1_655
O8 Sb1 2.018783 1_555
O9 Sb0 2.016810 1_655
O10 Sb1 2.005330 1_565
O11 Sb0 2.010317 1_655
