# generated using pymatgen
data_Li3Bi(PO4)2
_symmetry_space_group_name_H-M   'P 1'
_cell_length_a   5.38843400
_cell_length_b   12.98045300
_cell_length_c   19.39539461
_cell_angle_alpha   70.87655901
_cell_angle_beta   90.00000000
_cell_angle_gamma   90.00000000
_symmetry_Int_Tables_number   1
_chemical_formula_structural   Li3Bi(PO4)2
_chemical_formula_sum   'Li24 Bi8 P16 O64'
_cell_volume   1281.73368591
_cell_formula_units_Z   8
loop_
 _symmetry_equiv_pos_site_id
 _symmetry_equiv_pos_as_xyz
  1  'x, y, z'
loop_
 _atom_site_type_symbol
 _atom_site_label
 _atom_site_symmetry_multiplicity
 _atom_site_fract_x
 _atom_site_fract_y
 _atom_site_fract_z
 _atom_site_occupancy
  Li  Li0  1  0.84145800  0.68502800  0.94672200  1
  Li  Li1  1  0.32993800  0.80208800  0.87024300  1
  Li  Li2  1  0.71081600  0.93955800  0.80256200  1
  Li  Li3  1  0.65854200  0.18502800  0.94672200  1
  Li  Li4  1  0.17006200  0.30208800  0.87024300  1
  Li  Li5  1  0.78918400  0.43955800  0.80256200  1
  Li  Li6  1  0.18358900  0.74448000  0.69189000  1
  Li  Li7  1  0.81444800  0.68246300  0.62145900  1
  Li  Li8  1  0.31641100  0.24448000  0.69189000  1
  Li  Li9  1  0.33473200  0.62491600  0.56198300  1
  Li  Li10  1  0.68555200  0.18246300  0.62145900  1
  Li  Li11  1  0.83473200  0.87508400  0.43801700  1
  Li  Li12  1  0.16526800  0.12491600  0.56198300  1
  Li  Li13  1  0.31444800  0.81753700  0.37854100  1
  Li  Li14  1  0.66526800  0.37508400  0.43801700  1
  Li  Li15  1  0.68358900  0.75552000  0.30811000  1
  Li  Li16  1  0.18555200  0.31753700  0.37854100  1
  Li  Li17  1  0.81641100  0.25552000  0.30811000  1
  Li  Li18  1  0.21081600  0.56044200  0.19743800  1
  Li  Li19  1  0.82993800  0.69791200  0.12975700  1
  Li  Li20  1  0.34145800  0.81497200  0.05327800  1
  Li  Li21  1  0.28918400  0.06044200  0.19743800  1
  Li  Li22  1  0.67006200  0.19791200  0.12975700  1
  Li  Li23  1  0.15854200  0.31497200  0.05327800  1
  Bi  Bi0  1  0.32276200  0.53957200  0.88298500  1
  Bi  Bi1  1  0.17723800  0.03957200  0.88298500  1
  Bi  Bi2  1  0.68074100  0.92006000  0.61787300  1
  Bi  Bi3  1  0.81925900  0.42006000  0.61787300  1
  Bi  Bi4  1  0.18074100  0.57994000  0.38212700  1
  Bi  Bi5  1  0.31925900  0.07994000  0.38212700  1
  Bi  Bi6  1  0.82276200  0.96042800  0.11701500  1
  Bi  Bi7  1  0.67723800  0.46042800  0.11701500  1
  P  P0  1  0.72354700  0.90944200  0.96471200  1
  P  P1  1  0.77645300  0.40944200  0.96471200  1
  P  P2  1  0.79815000  0.70182000  0.78898600  1
  P  P3  1  0.70185000  0.20182000  0.78898600  1
  P  P4  1  0.29494400  0.48538400  0.71220200  1
  P  P5  1  0.22810000  0.87636400  0.53260500  1
  P  P6  1  0.20505600  0.98538400  0.71220200  1
  P  P7  1  0.27190000  0.37636400  0.53260500  1
  P  P8  1  0.72810000  0.62363600  0.46739500  1
  P  P9  1  0.79494400  0.01461600  0.28779800  1
  P  P10  1  0.77190000  0.12363600  0.46739500  1
  P  P11  1  0.70505600  0.51461600  0.28779800  1
  P  P12  1  0.29815000  0.79818000  0.21101400  1
  P  P13  1  0.20185000  0.29818000  0.21101400  1
  P  P14  1  0.22354700  0.59055800  0.03528800  1
  P  P15  1  0.27645300  0.09055800  0.03528800  1
  O  O0  1  0.47143500  0.89421900  0.92984700  1
  O  O1  1  0.93516200  0.87823100  0.92032100  1
  O  O2  1  0.21928700  0.66847600  0.95481900  1
  O  O3  1  0.73479500  0.52810900  0.96384800  1
  O  O4  1  0.28859000  0.96242100  0.79350000  1
  O  O5  1  0.66750400  0.76743700  0.83181200  1
  O  O6  1  0.02856500  0.39421900  0.92984700  1
  O  O7  1  0.56483800  0.37823100  0.92032100  1
  O  O8  1  0.28071300  0.16847600  0.95481900  1
  O  O9  1  0.08512400  0.69703000  0.80232100  1
  O  O10  1  0.76520500  0.02810900  0.96384800  1
  O  O11  1  0.68778000  0.58452900  0.81199800  1
  O  O12  1  0.91672000  0.98018600  0.70736200  1
  O  O13  1  0.32027500  0.89118400  0.68898800  1
  O  O14  1  0.21141000  0.46242100  0.79350000  1
  O  O15  1  0.83249600  0.26743700  0.83181200  1
  O  O16  1  0.76813800  0.75054000  0.70359500  1
  O  O17  1  0.41487600  0.19703000  0.80232100  1
  O  O18  1  0.81222000  0.08452900  0.81199800  1
  O  O19  1  0.58328000  0.48018600  0.70736200  1
  O  O20  1  0.19169800  0.59662100  0.66267100  1
  O  O21  1  0.17972500  0.39118400  0.68898800  1
  O  O22  1  0.99005800  0.82153400  0.57437000  1
  O  O23  1  0.45193800  0.80331500  0.57031500  1
  O  O24  1  0.73186200  0.25054000  0.70359500  1
  O  O25  1  0.26615600  0.99296800  0.53518200  1
  O  O26  1  0.70274200  0.61879700  0.54843400  1
  O  O27  1  0.30830200  0.09662100  0.66267100  1
  O  O28  1  0.20274200  0.88120300  0.45156600  1
  O  O29  1  0.50994200  0.32153400  0.57437000  1
  O  O30  1  0.04806200  0.30331500  0.57031500  1
  O  O31  1  0.23384400  0.49296800  0.53518200  1
  O  O32  1  0.76615600  0.50703200  0.46481800  1
  O  O33  1  0.95193800  0.69668500  0.42968500  1
  O  O34  1  0.49005800  0.67846600  0.42563000  1
  O  O35  1  0.79725800  0.11879700  0.54843400  1
  O  O36  1  0.69169800  0.90337900  0.33732900  1
  O  O37  1  0.29725800  0.38120300  0.45156600  1
  O  O38  1  0.73384400  0.00703200  0.46481800  1
  O  O39  1  0.26813800  0.74946000  0.29640500  1
  O  O40  1  0.54806200  0.19668500  0.42968500  1
  O  O41  1  0.00994200  0.17846600  0.42563000  1
  O  O42  1  0.82027500  0.60881600  0.31101200  1
  O  O43  1  0.80830200  0.40337900  0.33732900  1
  O  O44  1  0.41672000  0.51981400  0.29263800  1
  O  O45  1  0.18778000  0.91547100  0.18800200  1
  O  O46  1  0.58512400  0.80297000  0.19767900  1
  O  O47  1  0.23186200  0.24946000  0.29640500  1
  O  O48  1  0.16750400  0.73256300  0.16818800  1
  O  O49  1  0.78859000  0.53757900  0.20650000  1
  O  O50  1  0.67972500  0.10881600  0.31101200  1
  O  O51  1  0.08328000  0.01981400  0.29263800  1
  O  O52  1  0.31222000  0.41547100  0.18800200  1
  O  O53  1  0.23479500  0.97189100  0.03615200  1
  O  O54  1  0.91487600  0.30297000  0.19767900  1
  O  O55  1  0.71928700  0.83152400  0.04518100  1
  O  O56  1  0.43516200  0.62176900  0.07967900  1
  O  O57  1  0.97143500  0.60578100  0.07015300  1
  O  O58  1  0.33249600  0.23256300  0.16818800  1
  O  O59  1  0.71141000  0.03757900  0.20650000  1
  O  O60  1  0.26520500  0.47189100  0.03615200  1
  O  O61  1  0.78071300  0.33152400  0.04518100  1
  O  O62  1  0.06483800  0.12176900  0.07967900  1
  O  O63  1  0.52856500  0.10578100  0.07015300  1
loop_
_geom_bond_atom_site_label_1
_geom_bond_atom_site_label_2
_geom_bond_distance
_geom_bond_site_symmetry_2
Li0 O3 2.036233 1_555
Li0 O2 2.047836 1_655
Li0 O5 2.329811 1_555
Li0 O57 2.380409 1_556
Li0 O1 2.442359 1_555
Li1 O2 2.047009 1_555
Li1 O0 2.062469 1_555
Li1 O5 2.070304 1_555
Li1 O4 2.137016 1_555
Li1 O9 2.551947 1_555
Li2 O18 2.024559 1_565
Li2 O12 2.068923 1_555
Li2 O5 2.130147 1_555
Li2 O4 2.293695 1_555
Li2 O1 2.473938 1_555
Li3 O10 2.036233 1_555
Li3 O8 2.047836 1_555
Li3 O15 2.329811 1_555
Li3 O63 2.380409 1_556
Li3 O7 2.442359 1_555
Li4 O8 2.047009 1_555
Li4 O6 2.062469 1_555
Li4 O15 2.070304 1_455
Li4 O14 2.137016 1_555
Li4 O17 2.551947 1_555
Li5 O11 2.024559 1_555
Li5 O19 2.068923 1_555
Li5 O15 2.130147 1_555
Li5 O14 2.293695 1_655
Li5 O7 2.473938 1_555
Li6 O13 2.025267 1_555
Li6 O9 2.093810 1_555
Li6 O20 2.172408 1_555
Li6 O16 2.254084 1_455
Li6 O22 2.406151 1_455
Li7 O26 1.954028 1_555
Li7 O22 1.976882 1_555
Li7 O16 2.074451 1_555
Li7 O20 2.330057 1_655
Li7 O23 2.498178 1_555
Li8 O21 2.025267 1_555
Li8 O17 2.093810 1_555
Li8 O27 2.172408 1_555
Li8 O24 2.254084 1_555
Li8 O29 2.406151 1_555
Li9 O26 2.005323 1_555
Li9 O20 2.018098 1_555
Li9 O31 2.020538 1_555
Li9 O23 2.456143 1_555
Li10 O35 1.954028 1_555
Li10 O29 1.976882 1_555
Li10 O24 2.074451 1_555
Li10 O27 2.330057 1_555
Li10 O30 2.498178 1_655
Li11 O28 2.005323 1_655
Li11 O36 2.018098 1_555
Li11 O38 2.020538 1_565
Li11 O33 2.456143 1_555
Li12 O35 2.005323 1_455
Li12 O27 2.018098 1_555
Li12 O25 2.020538 1_545
Li12 O30 2.456143 1_555
Li13 O28 1.954028 1_555
Li13 O34 1.976882 1_555
Li13 O39 2.074451 1_555
Li13 O36 2.330057 1_555
Li13 O33 2.498178 1_455
Li14 O37 2.005323 1_555
Li14 O43 2.018098 1_555
Li14 O32 2.020538 1_555
Li14 O40 2.456143 1_555
Li15 O42 2.025267 1_555
Li15 O46 2.093810 1_555
Li15 O36 2.172408 1_555
Li15 O39 2.254084 1_555
Li15 O34 2.406151 1_555
Li16 O37 1.954028 1_555
Li16 O41 1.976882 1_555
Li16 O47 2.074451 1_555
Li16 O43 2.330057 1_455
Li16 O40 2.498178 1_555
Li17 O50 2.025267 1_555
Li17 O54 2.093810 1_555
Li17 O43 2.172408 1_555
Li17 O47 2.254084 1_655
Li17 O41 2.406151 1_655
Li18 O52 2.024559 1_555
Li18 O44 2.068923 1_555
Li18 O48 2.130147 1_555
Li18 O49 2.293695 1_455
Li18 O56 2.473938 1_555
Li19 O55 2.047009 1_555
Li19 O57 2.062469 1_555
Li19 O48 2.070304 1_655
Li19 O49 2.137016 1_555
Li19 O46 2.551947 1_555
Li20 O53 2.036233 1_555
Li20 O55 2.047836 1_555
Li20 O48 2.329811 1_555
Li20 O0 2.380409 1_554
Li20 O56 2.442359 1_555
Li21 O45 2.024559 1_545
Li21 O51 2.068923 1_555
Li21 O58 2.130147 1_555
Li21 O59 2.293695 1_555
Li21 O62 2.473938 1_555
Li22 O61 2.047009 1_555
Li22 O63 2.062469 1_555
Li22 O58 2.070304 1_555
Li22 O59 2.137016 1_555
Li22 O54 2.551947 1_555
Li23 O60 2.036233 1_555
Li23 O61 2.047836 1_455
Li23 O58 2.329811 1_555
Li23 O6 2.380409 1_554
Li23 O62 2.442359 1_555
Bi0 O14 2.348203 1_555
Bi0 O11 2.361852 1_555
Bi0 O7 2.370277 1_555
Bi0 O6 2.403202 1_555
Bi0 O9 2.483879 1_555
Bi0 O2 2.564990 1_555
Bi0 O3 2.694135 1_555
Bi0 O60 2.825465 1_556
Bi1 O4 2.348203 1_545
Bi1 O18 2.361852 1_455
Bi1 O1 2.370277 1_445
Bi1 O0 2.403202 1_545
Bi1 O17 2.483879 1_555
Bi1 O8 2.564990 1_555
Bi1 O10 2.694135 1_455
Bi1 O53 2.825465 1_546
Bi2 O16 2.330439 1_555
Bi2 O13 2.340287 1_555
Bi2 O23 2.362871 1_555
Bi2 O22 2.415073 1_555
Bi2 O12 2.475098 1_555
Bi2 O35 2.566412 1_565
Bi2 O25 2.732030 1_555
Bi2 O38 2.823636 1_565
Bi3 O24 2.330439 1_555
Bi3 O21 2.340287 1_655
Bi3 O30 2.362871 1_655
Bi3 O29 2.415073 1_555
Bi3 O19 2.475098 1_555
Bi3 O26 2.566412 1_555
Bi3 O31 2.732030 1_655
Bi3 O32 2.823636 1_555
Bi4 O39 2.330439 1_555
Bi4 O42 2.340287 1_455
Bi4 O33 2.362871 1_455
Bi4 O34 2.415073 1_555
Bi4 O44 2.475098 1_555
Bi4 O37 2.566412 1_555
Bi4 O32 2.732030 1_455
Bi4 O31 2.823636 1_555
Bi5 O47 2.330439 1_555
Bi5 O50 2.340287 1_555
Bi5 O40 2.362871 1_555
Bi5 O41 2.415073 1_555
Bi5 O51 2.475098 1_555
Bi5 O28 2.566412 1_545
Bi5 O38 2.732030 1_555
Bi5 O25 2.823636 1_545
Bi6 O59 2.348203 1_565
Bi6 O45 2.361852 1_655
Bi6 O62 2.370277 1_665
Bi6 O63 2.403202 1_565
Bi6 O46 2.483879 1_555
Bi6 O55 2.564990 1_555
Bi6 O53 2.694135 1_655
Bi6 O10 2.825465 1_564
Bi7 O49 2.348203 1_555
Bi7 O52 2.361852 1_555
Bi7 O56 2.370277 1_555
Bi7 O57 2.403202 1_555
Bi7 O54 2.483879 1_555
Bi7 O61 2.564990 1_555
Bi7 O60 2.694135 1_555
Bi7 O3 2.825465 1_554
O0 P0 1.558641 1_555
O1 P0 1.560189 1_555
O2 P14 1.557267 1_556
O3 P1 1.551270 1_555
O4 P6 1.571567 1_555
O5 P2 1.540951 1_555
O6 P1 1.558641 1_455
O7 P1 1.560189 1_555
O8 P15 1.557267 1_556
O9 P2 1.565692 1_455
O10 P0 1.551270 1_545
O11 P2 1.557448 1_555
O12 P6 1.559306 1_655
O13 P6 1.563340 1_555
O14 P4 1.571567 1_555
O15 P3 1.540951 1_555
O16 P2 1.575692 1_555
O17 P3 1.565692 1_555
O18 P3 1.557448 1_555
O19 P4 1.559306 1_555
O20 P4 1.551906 1_555
O21 P4 1.563340 1_555
O22 P5 1.558919 1_655
O23 P5 1.560260 1_555
O24 P3 1.575692 1_555
O25 P5 1.544351 1_555
O26 P8 1.558343 1_555
O27 P6 1.551906 1_545
O28 P5 1.558343 1_555
O29 P7 1.558919 1_555
O30 P7 1.560260 1_555
O31 P7 1.544351 1_555
O32 P8 1.544351 1_555
O33 P8 1.560260 1_555
O34 P8 1.558919 1_555
O35 P10 1.558343 1_555
O36 P9 1.551906 1_565
O37 P7 1.558343 1_555
O38 P10 1.544351 1_555
O39 P12 1.575692 1_555
O40 P10 1.560260 1_555
O41 P10 1.558919 1_455
O42 P11 1.563340 1_555
O43 P11 1.551906 1_555
O44 P11 1.559306 1_555
O45 P12 1.557448 1_555
O46 P12 1.565692 1_555
O47 P13 1.575692 1_555
O48 P12 1.540951 1_555
O49 P11 1.571567 1_555
O50 P9 1.563340 1_555
O51 P9 1.559306 1_455
O52 P13 1.557448 1_555
O53 P15 1.551270 1_565
O54 P13 1.565692 1_655
O55 P0 1.557267 1_554
O56 P14 1.560189 1_555
O57 P14 1.558641 1_655
O58 P13 1.540951 1_555
O59 P9 1.571567 1_555
O60 P14 1.551270 1_555
O61 P1 1.557267 1_554
O62 P15 1.560189 1_555
O63 P15 1.558641 1_555
