# generated using pymatgen
data_Mn4(P2O7)3
_symmetry_space_group_name_H-M   'P 1'
_cell_length_a   21.78930200
_cell_length_b   7.55320300
_cell_length_c   12.12237563
_cell_angle_alpha   52.43323184
_cell_angle_beta   90.00000000
_cell_angle_gamma   90.00000000
_symmetry_Int_Tables_number   1
_chemical_formula_structural   Mn4(P2O7)3
_chemical_formula_sum   'Mn16 P24 O84'
_cell_volume   1581.39389749
_cell_formula_units_Z   4
loop_
 _symmetry_equiv_pos_site_id
 _symmetry_equiv_pos_as_xyz
  1  'x, y, z'
loop_
 _atom_site_type_symbol
 _atom_site_label
 _atom_site_symmetry_multiplicity
 _atom_site_fract_x
 _atom_site_fract_y
 _atom_site_fract_z
 _atom_site_occupancy
  Mn  Mn0  1  0.75864000  0.32882200  0.71182700  1
  Mn  Mn1  1  0.50216600  0.77763500  0.26403200  1
  Mn  Mn2  1  0.25403200  0.28291600  0.77764700  1
  Mn  Mn3  1  0.99347500  0.80969600  0.24696800  1
  Mn  Mn4  1  0.49347500  0.19030400  0.25303200  1
  Mn  Mn5  1  0.75403200  0.71708400  0.72235300  1
  Mn  Mn6  1  0.00216600  0.22236500  0.23596800  1
  Mn  Mn7  1  0.25864000  0.67117800  0.78817300  1
  Mn  Mn8  1  0.74136000  0.32882200  0.21182700  1
  Mn  Mn9  1  0.99783400  0.77763500  0.76403200  1
  Mn  Mn10  1  0.24596800  0.28291600  0.27764700  1
  Mn  Mn11  1  0.50652500  0.80969600  0.74696800  1
  Mn  Mn12  1  0.00652500  0.19030400  0.75303200  1
  Mn  Mn13  1  0.74596800  0.71708400  0.22235300  1
  Mn  Mn14  1  0.49783400  0.22236500  0.73596800  1
  Mn  Mn15  1  0.24136000  0.67117800  0.28817300  1
  P  P0  1  0.68541400  0.23914200  0.99510100  1
  P  P1  1  0.88821300  0.40162500  0.83280400  1
  P  P2  1  0.85750200  0.08757200  0.15950800  1
  P  P3  1  0.69951300  0.79746100  0.44396300  1
  P  P4  1  0.54718300  0.29051000  0.96475900  1
  P  P5  1  0.56131100  0.72304700  0.52769300  1
  P  P6  1  0.06131100  0.27695300  0.97230700  1
  P  P7  1  0.04718300  0.70949000  0.53524100  1
  P  P8  1  0.19951300  0.20253900  0.05603700  1
  P  P9  1  0.35750200  0.91242800  0.34049200  1
  P  P10  1  0.38821300  0.59837500  0.66719600  1
  P  P11  1  0.18541400  0.76085800  0.50489900  1
  P  P12  1  0.81458600  0.23914200  0.49510100  1
  P  P13  1  0.61178700  0.40162500  0.33280400  1
  P  P14  1  0.64249800  0.08757200  0.65950800  1
  P  P15  1  0.80048700  0.79746100  0.94396300  1
  P  P16  1  0.95281700  0.29051000  0.46475900  1
  P  P17  1  0.93868900  0.72304700  0.02769300  1
  P  P18  1  0.43868900  0.27695300  0.47230700  1
  P  P19  1  0.45281700  0.70949000  0.03524100  1
  P  P20  1  0.30048700  0.20253900  0.55603700  1
  P  P21  1  0.14249800  0.91242800  0.84049200  1
  P  P22  1  0.11178700  0.59837500  0.16719600  1
  P  P23  1  0.31458600  0.76085800  0.00489900  1
  O  O0  1  0.04378200  0.46559300  0.59595300  1
  O  O1  1  0.70784800  0.68695200  0.37504000  1
  O  O2  1  0.92574300  0.27877800  0.79423800  1
  O  O3  1  0.55475000  0.47660900  0.60431700  1
  O  O4  1  0.82533100  0.87579100  0.20375400  1
  O  O5  1  0.70525100  0.99692700  0.07384800  1
  O  O6  1  0.04865100  0.18410000  0.89357900  1
  O  O7  1  0.31914900  0.75912000  0.32347300  1
  O  O8  1  0.41908500  0.39859300  0.68787600  1
  O  O9  1  0.18696900  0.66366700  0.42785600  1
  O  O10  1  0.21884200  0.96506100  0.13284400  1
  O  O11  1  0.50878200  0.22365200  0.89080800  1
  O  O12  1  0.61521500  0.23021300  0.95522600  1
  O  O13  1  0.87098800  0.22774100  0.99497600  1
  O  O14  1  0.82642500  0.47835800  0.75008700  1
  O  O15  1  0.12957600  0.20818400  0.02383900  1
  O  O16  1  0.41924100  0.97271900  0.26252200  1
  O  O17  1  0.71687900  0.39601700  0.85093100  1
  O  O18  1  0.73331500  0.65460700  0.58677100  1
  O  O19  1  0.02894100  0.86333100  0.37748300  1
  O  O20  1  0.02239000  0.14619500  0.10893900  1
  O  O21  1  0.52239000  0.85380500  0.39106100  1
  O  O22  1  0.52894100  0.13666900  0.12251700  1
  O  O23  1  0.23331500  0.34539300  0.91322900  1
  O  O24  1  0.21687900  0.60398300  0.64906900  1
  O  O25  1  0.91924100  0.02728100  0.23747800  1
  O  O26  1  0.62957600  0.79181600  0.47616100  1
  O  O27  1  0.32642500  0.52164200  0.74991300  1
  O  O28  1  0.37098800  0.77225900  0.50502400  1
  O  O29  1  0.11521500  0.76978700  0.54477400  1
  O  O30  1  0.00878200  0.77634800  0.60919200  1
  O  O31  1  0.71884200  0.03493900  0.36715600  1
  O  O32  1  0.68696900  0.33633300  0.07214400  1
  O  O33  1  0.91908500  0.60140700  0.81212400  1
  O  O34  1  0.81914900  0.24088000  0.17652700  1
  O  O35  1  0.54865100  0.81590000  0.60642100  1
  O  O36  1  0.20525100  0.00307300  0.42615200  1
  O  O37  1  0.32533100  0.12420900  0.29624600  1
  O  O38  1  0.05475000  0.52339100  0.89568300  1
  O  O39  1  0.42574300  0.72122200  0.70576200  1
  O  O40  1  0.20784800  0.31304800  0.12496000  1
  O  O41  1  0.54378200  0.53440700  0.90404700  1
  O  O42  1  0.45621800  0.46559300  0.09595300  1
  O  O43  1  0.79215200  0.68695200  0.87504000  1
  O  O44  1  0.57425700  0.27877800  0.29423800  1
  O  O45  1  0.94525000  0.47660900  0.10431700  1
  O  O46  1  0.67466900  0.87579100  0.70375400  1
  O  O47  1  0.79474900  0.99692700  0.57384800  1
  O  O48  1  0.45134900  0.18410000  0.39357900  1
  O  O49  1  0.18085100  0.75912000  0.82347300  1
  O  O50  1  0.08091500  0.39859300  0.18787600  1
  O  O51  1  0.31303100  0.66366700  0.92785600  1
  O  O52  1  0.28115800  0.96506100  0.63284400  1
  O  O53  1  0.99121800  0.22365200  0.39080800  1
  O  O54  1  0.88478500  0.23021300  0.45522600  1
  O  O55  1  0.62901200  0.22774100  0.49497600  1
  O  O56  1  0.67357500  0.47835800  0.25008700  1
  O  O57  1  0.37042400  0.20818400  0.52383900  1
  O  O58  1  0.08075900  0.97271900  0.76252200  1
  O  O59  1  0.78312100  0.39601700  0.35093100  1
  O  O60  1  0.76668500  0.65460700  0.08677100  1
  O  O61  1  0.47105900  0.86333100  0.87748300  1
  O  O62  1  0.47761000  0.14619500  0.60893900  1
  O  O63  1  0.97761000  0.85380500  0.89106100  1
  O  O64  1  0.97105900  0.13666900  0.62251700  1
  O  O65  1  0.26668500  0.34539300  0.41322900  1
  O  O66  1  0.28312100  0.60398300  0.14906900  1
  O  O67  1  0.58075900  0.02728100  0.73747800  1
  O  O68  1  0.87042400  0.79181600  0.97616100  1
  O  O69  1  0.17357500  0.52164200  0.24991300  1
  O  O70  1  0.12901200  0.77225900  0.00502400  1
  O  O71  1  0.38478500  0.76978700  0.04477400  1
  O  O72  1  0.49121800  0.77634800  0.10919200  1
  O  O73  1  0.78115800  0.03493900  0.86715600  1
  O  O74  1  0.81303100  0.33633300  0.57214400  1
  O  O75  1  0.58091500  0.60140700  0.31212400  1
  O  O76  1  0.68085100  0.24088000  0.67652700  1
  O  O77  1  0.95134900  0.81590000  0.10642100  1
  O  O78  1  0.29474900  0.00307300  0.92615200  1
  O  O79  1  0.17466900  0.12420900  0.79624600  1
  O  O80  1  0.44525000  0.52339100  0.39568300  1
  O  O81  1  0.07425700  0.72122200  0.20576200  1
  O  O82  1  0.29215200  0.31304800  0.62496000  1
  O  O83  1  0.95621800  0.53440700  0.40404700  1
loop_
_geom_bond_atom_site_label_1
_geom_bond_atom_site_label_2
_geom_bond_distance
_geom_bond_site_symmetry_2
Mn0 O73 1.901835 1_555
Mn0 O76 1.960574 1_555
Mn0 O18 2.027090 1_555
Mn0 O74 2.039086 1_555
Mn0 O14 2.076317 1_555
Mn0 O17 2.229954 1_555
Mn1 O72 1.898022 1_555
Mn1 O21 1.994180 1_555
Mn1 O80 2.008900 1_555
Mn1 O75 2.027236 1_555
Mn1 O22 2.228167 1_565
Mn1 O16 2.324539 1_555
Mn2 O82 1.911538 1_555
Mn2 O78 1.963622 1_555
Mn2 O23 2.018305 1_555
Mn2 O79 2.036815 1_555
Mn2 O24 2.087278 1_555
Mn2 O27 2.261267 1_555
Mn3 O77 1.910546 1_555
Mn3 O83 1.944350 1_555
Mn3 O19 2.011485 1_655
Mn3 O81 2.049724 1_655
Mn3 O20 2.114455 1_665
Mn3 O25 2.258317 1_565
Mn4 O48 1.910546 1_555
Mn4 O42 1.944350 1_555
Mn4 O22 2.011485 1_555
Mn4 O44 2.049724 1_555
Mn4 O21 2.114455 1_545
Mn4 O16 2.258317 1_545
Mn5 O43 1.911538 1_555
Mn5 O47 1.963622 1_555
Mn5 O18 2.018305 1_555
Mn5 O46 2.036815 1_555
Mn5 O17 2.087278 1_555
Mn5 O14 2.261267 1_555
Mn6 O53 1.898022 1_455
Mn6 O20 1.994180 1_555
Mn6 O45 2.008900 1_455
Mn6 O50 2.027236 1_555
Mn6 O19 2.228167 1_545
Mn6 O25 2.324539 1_455
Mn7 O52 1.901835 1_555
Mn7 O49 1.960574 1_555
Mn7 O23 2.027090 1_555
Mn7 O51 2.039086 1_555
Mn7 O27 2.076317 1_555
Mn7 O24 2.229954 1_555
Mn8 O31 1.901835 1_555
Mn8 O34 1.960574 1_555
Mn8 O60 2.027090 1_555
Mn8 O32 2.039086 1_555
Mn8 O56 2.076317 1_555
Mn8 O59 2.229954 1_555
Mn9 O30 1.898022 1_655
Mn9 O63 1.994180 1_555
Mn9 O38 2.008900 1_655
Mn9 O33 2.027236 1_555
Mn9 O64 2.228167 1_565
Mn9 O58 2.324539 1_655
Mn10 O40 1.911538 1_555
Mn10 O36 1.963622 1_555
Mn10 O65 2.018305 1_555
Mn10 O37 2.036815 1_555
Mn10 O66 2.087278 1_555
Mn10 O69 2.261267 1_555
Mn11 O35 1.910546 1_555
Mn11 O41 1.944350 1_555
Mn11 O61 2.011485 1_555
Mn11 O39 2.049724 1_555
Mn11 O62 2.114455 1_565
Mn11 O67 2.258317 1_565
Mn12 O6 1.910546 1_555
Mn12 O0 1.944350 1_555
Mn12 O64 2.011485 1_455
Mn12 O2 2.049724 1_455
Mn12 O63 2.114455 1_445
Mn12 O58 2.258317 1_545
Mn13 O1 1.911538 1_555
Mn13 O5 1.963622 1_555
Mn13 O60 2.018305 1_555
Mn13 O4 2.036815 1_555
Mn13 O59 2.087278 1_555
Mn13 O56 2.261267 1_555
Mn14 O11 1.898022 1_555
Mn14 O62 1.994180 1_555
Mn14 O3 2.008900 1_555
Mn14 O8 2.027236 1_555
Mn14 O61 2.228167 1_545
Mn14 O67 2.324539 1_555
Mn15 O10 1.901835 1_555
Mn15 O7 1.960574 1_555
Mn15 O65 2.027090 1_555
Mn15 O9 2.039086 1_555
Mn15 O69 2.076317 1_555
Mn15 O66 2.229954 1_555
O0 P7 1.512489 1_555
O1 P3 1.509360 1_555
O2 P1 1.509047 1_555
O3 P5 1.496579 1_555
O4 P2 1.513824 1_565
O5 P0 1.521708 1_564
O6 P6 1.514913 1_555
O7 P9 1.540496 1_555
O8 P10 1.526804 1_555
O9 P11 1.499441 1_555
O10 P8 1.491728 1_565
O11 P4 1.520130 1_555
O12 P4 1.575555 1_555
O12 P0 1.617898 1_555
O13 P1 1.606933 1_555
O13 P2 1.615695 1_556
O14 P1 1.563744 1_555
O15 P8 1.567188 1_555
O15 P6 1.573810 1_554
O16 P9 1.544537 1_555
O17 P0 1.550266 1_555
O18 P3 1.557549 1_555
O19 P7 1.567104 1_555
O20 P6 1.563105 1_554
O21 P5 1.563105 1_555
O22 P4 1.567104 1_554
O23 P8 1.557549 1_556
O24 P11 1.550266 1_555
O25 P2 1.544537 1_555
O26 P3 1.567188 1_555
O26 P5 1.573810 1_555
O27 P10 1.563744 1_555
O28 P10 1.606933 1_555
O28 P9 1.615695 1_555
O29 P7 1.575555 1_555
O29 P11 1.617898 1_555
O30 P7 1.520130 1_555
O31 P3 1.491728 1_545
O32 P0 1.499441 1_554
O33 P1 1.526804 1_555
O34 P2 1.540496 1_555
O35 P5 1.514913 1_555
O36 P11 1.521708 1_545
O37 P9 1.513824 1_545
O38 P6 1.496579 1_555
O39 P10 1.509047 1_555
O40 P8 1.509360 1_555
O41 P4 1.512489 1_555
O42 P19 1.512489 1_555
O43 P15 1.509360 1_555
O44 P13 1.509047 1_555
O45 P17 1.496579 1_555
O46 P14 1.513824 1_565
O47 P12 1.521708 1_565
O48 P18 1.514913 1_555
O49 P21 1.540496 1_555
O50 P22 1.526804 1_555
O51 P23 1.499441 1_556
O52 P20 1.491728 1_565
O53 P16 1.520130 1_555
O54 P16 1.575555 1_555
O54 P12 1.617898 1_555
O55 P13 1.606933 1_555
O55 P14 1.615695 1_555
O56 P13 1.563744 1_555
O57 P20 1.567188 1_555
O57 P18 1.573810 1_555
O58 P21 1.544537 1_555
O59 P12 1.550266 1_555
O60 P15 1.557549 1_554
O61 P19 1.567104 1_556
O62 P18 1.563105 1_555
O63 P17 1.563105 1_556
O64 P16 1.567104 1_555
O65 P20 1.557549 1_555
O66 P23 1.550266 1_555
O67 P14 1.544537 1_555
O68 P15 1.567188 1_555
O68 P17 1.573810 1_556
O69 P22 1.563744 1_555
O70 P22 1.606933 1_555
O70 P21 1.615695 1_554
O71 P19 1.575555 1_555
O71 P23 1.617898 1_555
O72 P19 1.520130 1_555
O73 P15 1.491728 1_545
O74 P12 1.499441 1_555
O75 P13 1.526804 1_555
O76 P14 1.540496 1_555
O77 P17 1.514913 1_555
O78 P23 1.521708 1_546
O79 P21 1.513824 1_545
O80 P18 1.496579 1_555
O81 P22 1.509047 1_555
O82 P20 1.509360 1_555
O83 P16 1.512489 1_555
