# generated using pymatgen
data_Li3NiO3
_symmetry_space_group_name_H-M   'P 1'
_cell_length_a   3.59769300
_cell_length_b   8.79620600
_cell_length_c   8.83126701
_cell_angle_alpha   90.00364668
_cell_angle_beta   89.99714291
_cell_angle_gamma   89.99987554
_symmetry_Int_Tables_number   1
_chemical_formula_structural   Li3NiO3
_chemical_formula_sum   'Li12 Ni4 O12'
_cell_volume   279.47470557
_cell_formula_units_Z   4
loop_
 _symmetry_equiv_pos_site_id
 _symmetry_equiv_pos_as_xyz
  1  'x, y, z'
loop_
 _atom_site_type_symbol
 _atom_site_label
 _atom_site_symmetry_multiplicity
 _atom_site_fract_x
 _atom_site_fract_y
 _atom_site_fract_z
 _atom_site_occupancy
  Li  Li0  1  0.99999600  0.16819300  0.16899700  1
  Li  Li1  1  0.50002200  0.33179800  0.66907300  1
  Li  Li2  1  0.50000500  0.66844200  0.33105800  1
  Li  Li3  1  0.00000600  0.83156800  0.83103900  1
  Li  Li4  1  0.49996200  0.10183300  0.36010000  1
  Li  Li5  1  0.99999900  0.14030100  0.60243700  1
  Li  Li6  1  0.50000100  0.35975100  0.10247600  1
  Li  Li7  1  0.99999200  0.39818000  0.86019000  1
  Li  Li8  1  0.00000300  0.60186600  0.14048200  1
  Li  Li9  1  0.49999900  0.64028900  0.89760800  1
  Li  Li10  1  0.99999400  0.85975500  0.39761900  1
  Li  Li11  1  0.50000300  0.89814200  0.64050900  1
  Ni  Ni0  1  0.00001100  0.61249500  0.61329800  1
  Ni  Ni1  1  0.50001000  0.88747500  0.11344300  1
  Ni  Ni2  1  0.49999600  0.11262400  0.88644600  1
  Ni  Ni3  1  0.99999900  0.38738000  0.38628200  1
  O  O0  1  0.50001200  0.09859200  0.10346400  1
  O  O1  1  0.00004300  0.40136000  0.60327800  1
  O  O2  1  0.00000200  0.59856600  0.39629300  1
  O  O3  1  0.50000300  0.90144000  0.89644200  1
  O  O4  1  0.49998800  0.11211600  0.67643700  1
  O  O5  1  0.99995400  0.18146400  0.38866000  1
  O  O6  1  0.49998600  0.31855500  0.88876100  1
  O  O7  1  0.99998800  0.38788600  0.17627900  1
  O  O8  1  0.00001100  0.61198800  0.82334900  1
  O  O9  1  0.50000600  0.68150900  0.11125100  1
  O  O10  1  0.00000400  0.81846500  0.61122600  1
  O  O11  1  0.50000400  0.88796700  0.32350300  1
loop_
_geom_bond_atom_site_label_1
_geom_bond_atom_site_label_2
_geom_bond_distance
_geom_bond_site_symmetry_2
Li0 O7 1.933531 1_555
Li0 O5 1.943404 1_555
Li0 O0 1.986319 1_555
Li0 O0 1.986369 1_655
Li1 O4 1.933466 1_555
Li1 O6 1.943625 1_555
Li1 O1 1.986893 1_555
Li1 O1 1.986980 1_655
Li2 O11 1.932144 1_555
Li2 O9 1.944582 1_555
Li2 O2 1.986334 1_555
Li2 O2 1.986364 1_655
Li3 O8 1.932660 1_555
Li3 O10 1.944639 1_555
Li3 O3 1.986728 1_455
Li3 O3 1.986763 1_555
Li4 O11 1.908750 1_545
Li4 O5 1.946797 1_555
Li4 O5 1.946825 1_455
Li4 O0 2.266599 1_555
Li5 O5 1.922352 1_555
Li5 O4 1.929867 1_655
Li5 O4 1.929881 1_555
Li5 O1 2.296340 1_655
Li6 O6 1.921823 1_554
Li6 O7 1.929206 1_555
Li6 O7 1.929231 1_455
Li6 O0 2.297225 1_555
Li7 O8 1.908654 1_655
Li7 O6 1.946806 1_655
Li7 O6 1.946826 1_555
Li7 O1 2.269033 1_655
Li8 O7 1.908596 1_455
Li8 O9 1.947637 1_555
Li8 O9 1.947638 1_455
Li8 O2 2.259324 1_555
Li9 O9 1.921239 1_556
Li9 O8 1.930761 1_555
Li9 O8 1.930780 1_655
Li9 O3 2.297162 1_555
Li10 O10 1.921088 1_655
Li10 O11 1.930248 1_555
Li10 O11 1.930255 1_655
Li10 O2 2.297501 1_655
Li11 O4 1.908696 1_565
Li11 O10 1.947784 1_655
Li11 O10 1.947804 1_555
Li11 O3 2.260397 1_555
Ni0 O10 1.811848 1_555
Ni0 O8 1.855022 1_555
Ni0 O1 1.859288 1_555
Ni0 O2 1.920334 1_555
Ni1 O9 1.811822 1_555
Ni1 O11 1.855101 1_555
Ni1 O0 1.859124 1_565
Ni1 O3 1.920334 1_554
Ni2 O6 1.811526 1_555
Ni2 O4 1.854651 1_555
Ni2 O3 1.859720 1_545
Ni2 O0 1.920522 1_556
Ni3 O5 1.811403 1_555
Ni3 O7 1.854598 1_555
Ni3 O2 1.859733 1_655
Ni3 O1 1.920283 1_655
