# generated using pymatgen
data_Ca8Bi12O25
_symmetry_space_group_name_H-M   'P 1'
_cell_length_a   15.02449772
_cell_length_b   10.97799687
_cell_length_c   22.71856364
_cell_angle_alpha   100.92166337
_cell_angle_beta   105.16882598
_cell_angle_gamma   44.40063950
_symmetry_Int_Tables_number   1
_chemical_formula_structural   Ca8Bi12O25
_chemical_formula_sum   'Ca24 Bi36 O75'
_cell_volume   2530.42724503
_cell_formula_units_Z   3
loop_
 _symmetry_equiv_pos_site_id
 _symmetry_equiv_pos_as_xyz
  1  'x, y, z'
loop_
 _atom_site_type_symbol
 _atom_site_label
 _atom_site_symmetry_multiplicity
 _atom_site_fract_x
 _atom_site_fract_y
 _atom_site_fract_z
 _atom_site_occupancy
  Ca  Ca0  1  0.14237678  0.32325116  0.84135518  1
  Ca  Ca1  1  0.13225874  0.31248200  0.50240273  1
  Ca  Ca2  1  0.53429667  0.22278773  0.80446752  1
  Ca  Ca3  1  0.16834922  0.75024549  0.84406789  1
  Ca  Ca4  1  0.17176894  0.38168779  0.14567838  1
  Ca  Ca5  1  0.27028357  0.67789699  0.48782851  1
  Ca  Ca6  1  0.41954443  0.25375947  0.50630107  1
  Ca  Ca7  1  0.60199305  0.49745980  0.79093137  1
  Ca  Ca8  1  0.30529640  0.90039280  0.79891808  1
  Ca  Ca9  1  0.49027150  0.19410774  0.17848569  1
  Ca  Ca10  1  0.17042281  0.70178776  0.18379208  1
  Ca  Ca11  1  0.65545558  0.21482869  0.45259406  1
  Ca  Ca12  1  0.49372638  0.65781183  0.49240093  1
  Ca  Ca13  1  0.92679009  0.24438937  0.86230873  1
  Ca  Ca14  1  0.62327202  0.80276791  0.87511031  1
  Ca  Ca15  1  0.70725723  0.15091286  0.11306525  1
  Ca  Ca16  1  0.64316103  0.50862922  0.19021553  1
  Ca  Ca17  1  0.92493111  0.19502048  0.48719203  1
  Ca  Ca18  1  0.75648914  0.82247917  0.48905760  1
  Ca  Ca19  1  0.83318285  0.83722966  0.83487010  1
  Ca  Ca20  1  0.95356685  0.17244502  0.17636382  1
  Ca  Ca21  1  0.74833039  0.72730107  0.20435565  1
  Ca  Ca22  1  0.02510789  0.73317290  0.49584101  1
  Ca  Ca23  1  0.90820988  0.79398838  0.17360404  1
  Bi  Bi0  1  0.05040375  0.94834739  0.63116151  1
  Bi  Bi1  1  0.16969947  0.01875895  0.40306377  1
  Bi  Bi2  1  0.11707689  0.21339976  0.65645744  1
  Bi  Bi3  1  0.18348793  0.54815570  0.95134294  1
  Bi  Bi4  1  0.42145719  0.89912602  0.10483559  1
  Bi  Bi5  1  0.08586488  0.33158556  0.25788900  1
  Bi  Bi6  1  0.17032487  0.47412172  0.75332829  1
  Bi  Bi7  1  0.44277763  0.00502347  0.73155248  1
  Bi  Bi8  1  0.33715458  0.54472481  0.69918492  1
  Bi  Bi9  1  0.63719311  0.99142680  0.66240696  1
  Bi  Bi10  1  0.13390349  0.25590843  0.99261587  1
  Bi  Bi11  1  0.19239550  0.49357538  0.37054312  1
  Bi  Bi12  1  0.35300194  0.05211703  0.39868121  1
  Bi  Bi13  1  0.38993399  0.49856588  0.33028366  1
  Bi  Bi14  1  0.55217077  0.03224219  0.33389924  1
  Bi  Bi15  1  0.61537020  0.27515673  0.60406730  1
  Bi  Bi16  1  0.41688852  0.73178044  0.64110291  1
  Bi  Bi17  1  0.61820103  0.58105459  0.95327468  1
  Bi  Bi18  1  0.85086678  0.08790110  0.92853262  1
  Bi  Bi19  1  0.39485948  0.53702904  0.10184482  1
  Bi  Bi20  1  0.10643174  -0.01193433  0.03462228  1
  Bi  Bi21  1  0.68967901  0.21312173  0.26103400  1
  Bi  Bi22  1  0.32611649  0.83281236  0.25772418  1
  Bi  Bi23  1  0.75898203  0.51688763  0.59581326  1
  Bi  Bi24  1  0.86286828  0.02822710  0.74324112  1
  Bi  Bi25  1  0.86529036  0.47768075  0.76248075  1
  Bi  Bi26  1  0.56873104  0.23145236  0.96272306  1
  Bi  Bi27  1  0.32595898  0.78750213  0.96034825  1
  Bi  Bi28  1  0.63044861  0.57694596  0.36122370  1
  Bi  Bi29  1  0.03574179  0.91646629  0.30930091  1
  Bi  Bi30  1  0.89328228  0.51787765  0.37457163  1
  Bi  Bi31  1  0.92768525  0.66013140  0.62856540  1
  Bi  Bi32  1  0.87881191  0.47207984  0.08869133  1
  Bi  Bi33  1  0.57204923  0.95753202  0.02969499  1
  Bi  Bi34  1  0.86939961  0.86058364  0.35026748  1
  Bi  Bi35  1  0.87350115  0.78470189  0.01148244  1
  O  O0  1  0.21598796  0.91493735  0.87443634  1
  O  O1  1  0.03946702  0.23791703  0.80509275  1
  O  O2  1  0.18930283  0.33135515  0.94253322  1
  O  O3  1  0.26834803  0.88409843  0.48659512  1
  O  O4  1  0.01306363  0.25771072  0.44486635  1
  O  O5  1  0.07262411  0.38724534  0.59352689  1
  O  O6  1  0.30143189  0.11736750  0.78789397  1
  O  O7  1  0.21210389  0.49452815  0.85549229  1
  O  O8  1  0.12610909  0.70203150  0.74083154  1
  O  O9  1  0.35921292  0.30660719  0.73475853  1
  O  O10  1  0.27699234  0.77255116  0.16730232  1
  O  O11  1  0.60838636  0.00082505  0.94923099  1
  O  O12  1  0.20035490  0.73986032  0.95074152  1
  O  O13  1  0.03091385  0.19736119  0.10549816  1
  O  O14  1  0.25279012  0.21999670  0.23109365  1
  O  O15  1  0.34441848  0.13169435  0.49093659  1
  O  O16  1  0.22257115  0.50854830  0.46777925  1
  O  O17  1  0.13691239  0.76092502  0.38895851  1
  O  O18  1  0.14289453  0.33245510  0.36205857  1
  O  O19  1  0.69946043  0.09901617  0.88590975  1
  O  O20  1  0.42724022  0.51551846  0.79068118  1
  O  O21  1  0.00724369  0.49410420  0.04327147  1
  O  O22  1  0.49242018  0.24981961  0.62003332  1
  O  O23  1  0.14419418  0.78618376  0.56048664  1
  O  O24  1  0.70303639  0.05968936  0.75156536  1
  O  O25  1  0.22811136  0.83816561  0.69631601  1
  O  O26  1  0.73274547  0.34537164  0.88986915  1
  O  O27  1  0.51098305  0.72494056  0.87140090  1
  O  O28  1  0.55499133  0.92548913  0.14033913  1
  O  O29  1  0.28969635  0.43719601  0.15462602  1
  O  O30  1  0.00583927  0.77179719  0.09606285  1
  O  O31  1  0.27138731  0.16708783  0.07661651  1
  O  O32  1  0.62773389  0.12454061  0.52126288  1
  O  O33  1  0.46806014  0.50935861  0.55274427  1
  O  O34  1  0.53362884  0.21351638  0.28896029  1
  O  O35  1  0.22163073  0.78134781  0.28306825  1
  O  O36  1  0.50647605  0.49199826  0.68364751  1
  O  O37  1  0.42420147  0.22772122  0.39602283  1
  O  O38  1  0.46584770  0.49266530  0.42363336  1
  O  O39  1  0.55791663  0.69169265  0.60116267  1
  O  O40  1  0.72532698  0.44134038  0.50708463  1
  O  O41  1  0.94099090  0.95401927  0.83920513  1
  O  O42  1  0.79362042  0.53820964  0.84376502  1
  O  O43  1  0.80206847  0.26775836  0.76446901  1
  O  O44  1  0.48467775  0.76110994  0.73757026  1
  O  O45  1  0.71916608  0.01294555  0.20107562  1
  O  O46  1  0.54322058  0.35936302  0.17414552  1
  O  O47  1  0.49028758  0.53928121  0.29891533  1
  O  O48  1  0.98280552  0.18400845  0.96762549  1
  O  O49  1  0.69316534  0.70084940  0.97894043  1
  O  O50  1  0.51349329  0.26264692  0.04936998  1
  O  O51  1  0.51316698  0.57419654  0.09652542  1
  O  O52  1  0.79717672  0.21737438  0.20830941  1
  O  O53  1  0.57340817  0.68282608  0.27383232  1
  O  O54  1  0.87814813  0.03494655  0.47741175  1
  O  O55  1  0.70318619  0.70505340  0.40246124  1
  O  O56  1  0.83670921  0.10184866  0.41333426  1
  O  O57  1  0.47084484  0.76628453  0.40634254  1
  O  O58  1  0.95152133  0.57801409  0.79116280  1
  O  O59  1  -0.00293328  0.16871767  0.59642945  1
  O  O60  1  0.76555632  0.69749107  0.57216952  1
  O  O61  1  0.59447961  0.95178139  0.80238484  1
  O  O62  1  0.97869595  0.74723186  0.93205207  1
  O  O63  1  0.94326917  0.93790888  0.13374285  1
  O  O64  1  0.79711962  0.47774192  0.16322621  1
  O  O65  1  0.75759796  0.09918843  0.01477511  1
  O  O66  1  0.46287430  0.84422183  0.01586876  1
  O  O67  1  0.95754027  0.58686513  0.45452888  1
  O  O68  1  0.81912385  0.71246198  0.30449843  1
  O  O69  1  0.11201902  0.10934854  0.25289225  1
  O  O70  1  0.71271885  0.97330481  0.39940000  1
  O  O71  1  0.92587251  0.77503189  0.56542233  1
  O  O72  1  0.95060903  0.54869773  0.16476192  1
  O  O73  1  0.75424755  0.87738951  0.08024310  1
  O  O74  1  0.06551033  0.71140143  0.25333854  1
loop_
_geom_bond_atom_site_label_1
_geom_bond_atom_site_label_2
_geom_bond_distance
_geom_bond_site_symmetry_2
Ca0 O2 2.225460 1_555
Ca0 O6 2.248363 1_555
Ca0 O1 2.248910 1_555
Ca0 O58 2.320011 1_455
Ca0 O7 2.673180 1_555
Ca1 O5 2.244600 1_555
Ca1 O4 2.300670 1_555
Ca1 O15 2.316524 1_555
Ca1 O67 2.365504 1_455
Ca2 O19 2.271418 1_555
Ca2 O9 2.277673 1_555
Ca2 O24 2.317436 1_555
Ca2 O20 2.396693 1_555
Ca2 O61 2.407515 1_545
Ca3 O0 2.318434 1_555
Ca3 O8 2.326877 1_555
Ca3 O12 2.352432 1_555
Ca3 O41 2.379512 1_455
Ca3 O7 2.435162 1_555
Ca4 O29 2.204380 1_555
Ca4 O31 2.245394 1_555
Ca4 O14 2.319406 1_555
Ca4 O72 2.517535 1_455
Ca4 O21 2.601034 1_555
Ca5 O3 2.248425 1_555
Ca5 O33 2.304898 1_555
Ca5 O23 2.324162 1_555
Ca5 O16 2.364367 1_555
Ca5 O17 2.387873 1_555
Ca5 O38 2.734313 1_555
Ca6 O15 2.229220 1_555
Ca6 O16 2.256459 1_555
Ca6 O32 2.279860 1_555
Ca6 O37 2.480975 1_555
Ca6 O22 2.524094 1_555
Ca7 O43 2.301339 1_555
Ca7 O44 2.423885 1_555
Ca7 O26 2.474582 1_555
Ca7 O27 2.479333 1_555
Ca7 O20 2.486324 1_555
Ca7 O36 2.498153 1_555
Ca8 O0 2.358872 1_555
Ca8 O6 2.400124 1_565
Ca8 O27 2.450508 1_555
Ca8 O25 2.521684 1_555
Ca8 O44 2.610324 1_555
Ca8 O1 2.941166 1_565
Ca9 O29 2.167631 1_555
Ca9 O45 2.394894 1_555
Ca9 O28 2.401619 1_545
Ca9 O34 2.430852 1_555
Ca9 O46 2.470816 1_555
Ca10 O29 2.131134 1_555
Ca10 O10 2.347140 1_555
Ca10 O35 2.397354 1_555
Ca10 O30 2.441989 1_555
Ca10 O74 2.448377 1_555
Ca10 O63 2.470741 1_455
Ca11 O32 2.259556 1_555
Ca11 O38 2.283636 1_555
Ca11 O70 2.302415 1_545
Ca11 O54 2.325004 1_555
Ca11 O56 2.403221 1_555
Ca12 O57 2.303091 1_555
Ca12 O3 2.350586 1_555
Ca12 O38 2.360609 1_555
Ca12 O40 2.396598 1_555
Ca12 O39 2.468012 1_555
Ca12 O33 2.589476 1_555
Ca13 O42 2.331701 1_555
Ca13 O1 2.346357 1_655
Ca13 O48 2.371173 1_555
Ca13 O43 2.422262 1_555
Ca13 O26 2.488913 1_555
Ca13 O41 2.989161 1_545
Ca14 O42 2.245246 1_555
Ca14 O61 2.287351 1_555
Ca14 O27 2.354007 1_555
Ca14 O11 2.393302 1_565
Ca14 O49 2.437979 1_555
Ca15 O50 2.332181 1_555
Ca15 O65 2.381285 1_555
Ca15 O46 2.400803 1_555
Ca15 O63 2.441034 1_545
Ca15 O52 2.513965 1_555
Ca15 O73 2.543364 1_545
Ca15 O45 2.626218 1_555
Ca16 O53 2.272781 1_555
Ca16 O52 2.274826 1_555
Ca16 O51 2.293334 1_555
Ca16 O64 2.320409 1_555
Ca16 O46 2.841730 1_555
Ca17 O54 2.273059 1_555
Ca17 O40 2.273422 1_555
Ca17 O4 2.317524 1_655
Ca17 O56 2.396169 1_555
Ca17 O59 2.415304 1_655
Ca18 O67 2.395185 1_555
Ca18 O55 2.421412 1_555
Ca18 O71 2.428045 1_555
Ca18 O32 2.434879 1_565
Ca18 O60 2.458971 1_555
Ca18 O70 2.518734 1_555
Ca19 O58 2.206464 1_555
Ca19 O19 2.312174 1_565
Ca19 O62 2.417524 1_555
Ca19 O24 2.522014 1_565
Ca19 O41 2.667079 1_555
Ca19 O61 2.740492 1_555
Ca20 O69 2.259218 1_655
Ca20 O52 2.322014 1_555
Ca20 O64 2.366828 1_555
Ca20 O13 2.370124 1_655
Ca20 O63 2.671497 1_545
Ca21 O68 2.227195 1_555
Ca21 O28 2.290007 1_555
Ca21 O64 2.331291 1_555
Ca21 O72 2.477374 1_555
Ca21 O45 2.852870 1_565
Ca22 O71 2.216342 1_455
Ca22 O16 2.286762 1_555
Ca22 O23 2.342160 1_555
Ca22 O54 2.369624 1_465
Ca22 O67 2.398183 1_455
Ca23 O45 2.199582 1_565
Ca23 O74 2.238068 1_655
Ca23 O72 2.260123 1_555
Ca23 O63 2.361112 1_555
Ca23 O73 2.414505 1_555
Ca23 O30 2.448124 1_655
Bi0 O23 2.061378 1_555
Bi0 O59 2.177075 1_565
Bi0 O25 2.185925 1_555
Bi1 O3 2.108003 1_545
Bi1 O4 2.173888 1_555
Bi2 O5 2.201188 1_555
Bi2 O59 2.252788 1_555
Bi3 O62 2.117569 1_455
Bi3 O7 2.217165 1_555
Bi3 O2 2.289931 1_555
Bi3 O12 2.295269 1_555
Bi4 O66 2.120468 1_555
Bi4 O31 2.151467 1_565
Bi4 O28 2.157288 1_555
Bi4 O51 2.741522 1_555
Bi5 O14 2.070612 1_555
Bi5 O69 2.160558 1_555
Bi5 O18 2.297153 1_555
Bi5 O72 2.650753 1_455
Bi6 O9 2.118697 1_555
Bi6 O8 2.139463 1_555
Bi6 O7 2.252286 1_555
Bi7 O61 2.158584 1_545
Bi7 O6 2.179712 1_555
Bi7 O44 2.295636 1_545
Bi7 O9 2.561192 1_555
Bi8 O20 2.101349 1_555
Bi8 O36 2.284690 1_555
Bi8 O25 2.355412 1_555
Bi8 O9 2.649286 1_555
Bi8 O8 2.656712 1_555
Bi9 O22 2.196999 1_565
Bi9 O24 2.253566 1_565
Bi10 O2 2.123965 1_555
Bi10 O31 2.150250 1_556
Bi10 O21 2.163038 1_556
Bi10 O48 2.795567 1_455
Bi11 O16 2.134783 1_555
Bi11 O18 2.322581 1_555
Bi11 O17 2.388544 1_555
Bi11 O37 2.458307 1_555
Bi12 O15 2.111703 1_555
Bi12 O57 2.262362 1_545
Bi12 O18 2.417084 1_555
Bi12 O37 2.808741 1_555
Bi13 O38 2.117398 1_555
Bi13 O47 2.151048 1_555
Bi13 O34 2.372441 1_555
Bi13 O35 2.409829 1_555
Bi14 O37 2.161119 1_555
Bi14 O70 2.169733 1_545
Bi14 O34 2.215629 1_555
Bi15 O33 2.126653 1_555
Bi15 O22 2.178167 1_555
Bi15 O32 2.207413 1_555
Bi15 O36 2.442144 1_555
Bi16 O36 2.212576 1_555
Bi16 O44 2.230959 1_555
Bi16 O39 2.242556 1_555
Bi16 O33 2.617368 1_555
Bi16 O25 2.748696 1_555
Bi17 O27 2.111673 1_555
Bi17 O49 2.195525 1_555
Bi17 O26 2.292038 1_555
Bi17 O66 2.522069 1_556
Bi18 O19 2.150037 1_555
Bi18 O26 2.206230 1_555
Bi18 O41 2.361389 1_545
Bi18 O65 2.629574 1_556
Bi18 O62 2.729650 1_545
Bi18 O48 2.746571 1_555
Bi19 O51 2.123227 1_555
Bi19 O46 2.134556 1_555
Bi19 O10 2.326183 1_555
Bi19 O50 2.398092 1_555
Bi20 O48 2.108489 1_454
Bi20 O13 2.233449 1_555
Bi20 O12 2.644370 1_544
Bi21 O45 2.161315 1_555
Bi21 O52 2.277473 1_555
Bi21 O46 2.279429 1_555
Bi21 O34 2.581176 1_555
Bi21 O47 2.718424 1_555
Bi22 O10 2.142807 1_555
Bi22 O35 2.231322 1_555
Bi22 O69 2.358590 1_565
Bi22 O47 2.433250 1_555
Bi22 O53 2.724809 1_555
Bi23 O40 2.106949 1_555
Bi23 O39 2.154828 1_555
Bi23 O60 2.222704 1_555
Bi23 O59 2.803973 1_655
Bi24 O43 2.073474 1_555
Bi24 O41 2.182192 1_545
Bi24 O24 2.224742 1_555
Bi24 O8 2.875763 1_645
Bi25 O1 2.123853 1_655
Bi25 O42 2.136453 1_555
Bi25 O58 2.154456 1_555
Bi26 O11 2.122519 1_555
Bi26 O65 2.136796 1_556
Bi26 O50 2.207805 1_556
Bi26 O19 2.401836 1_555
Bi27 O0 2.130891 1_555
Bi27 O12 2.243661 1_555
Bi27 O66 2.526876 1_556
Bi28 O57 2.116152 1_555
Bi28 O53 2.141957 1_555
Bi28 O55 2.282756 1_555
Bi28 O47 2.464098 1_555
Bi29 O17 2.126918 1_555
Bi29 O74 2.158390 1_555
Bi29 O35 2.229802 1_555
Bi30 O67 2.100257 1_555
Bi30 O55 2.201972 1_555
Bi30 O68 2.301803 1_555
Bi30 O4 2.612686 1_655
Bi30 O18 2.778366 1_655
Bi31 O71 2.065380 1_555
Bi31 O60 2.209450 1_555
Bi31 O5 2.243197 1_655
Bi32 O13 2.143621 1_655
Bi32 O72 2.151250 1_555
Bi32 O64 2.305744 1_555
Bi32 O21 2.578738 1_655
Bi33 O73 2.209675 1_555
Bi33 O11 2.255636 1_564
Bi33 O49 2.262962 1_554
Bi33 O66 2.614281 1_555
Bi33 O28 2.703519 1_555
Bi33 O50 2.760599 1_565
Bi34 O68 2.235913 1_555
Bi34 O70 2.237853 1_555
Bi34 O56 2.525991 1_565
Bi35 O73 2.223342 1_555
Bi35 O30 2.316680 1_655
Bi35 O21 2.385405 1_655
Bi35 O62 2.491157 1_554
Bi35 O65 2.517313 1_565
O30 O63 1.523797 1_455
O54 O56 1.524361 1_555
