# generated using pymatgen
data_Li4V3P8O29
_symmetry_space_group_name_H-M   'P 1'
_cell_length_a   9.77913145
_cell_length_b   9.76418640
_cell_length_c   14.07859742
_cell_angle_alpha   90.25225334
_cell_angle_beta   90.32105298
_cell_angle_gamma   60.06497439
_symmetry_Int_Tables_number   1
_chemical_formula_structural   Li4V3P8O29
_chemical_formula_sum   'Li8 V6 P16 O58'
_cell_volume   1164.93789910
_cell_formula_units_Z   2
loop_
 _symmetry_equiv_pos_site_id
 _symmetry_equiv_pos_as_xyz
  1  'x, y, z'
loop_
 _atom_site_type_symbol
 _atom_site_label
 _atom_site_symmetry_multiplicity
 _atom_site_fract_x
 _atom_site_fract_y
 _atom_site_fract_z
 _atom_site_occupancy
  Li  Li0  1  0.90452000  0.77101200  0.05787500  1
  Li  Li1  1  0.77743700  0.31096000  0.05852900  1
  Li  Li2  1  0.31866300  0.91242400  0.06330400  1
  Li  Li3  1  0.66573600  0.23582900  0.43982700  1
  Li  Li4  1  0.33249200  0.76905800  0.55424900  1
  Li  Li5  1  0.22486400  0.68593100  0.94339600  1
  Li  Li6  1  0.09207000  0.67189500  0.43860800  1
  Li  Li7  1  0.99663500  0.03872600  0.49921000  1
  V  V0  1  0.57046400  0.42964200  0.24821800  1
  V  V1  1  0.43846900  0.56338900  0.75003300  1
  V  V2  1  0.56791000  0.99629000  0.75035000  1
  V  V3  1  0.43194300  0.00648900  0.25562000  1
  V  V4  1  0.99806400  0.56355300  0.25093100  1
  V  V5  1  0.00095100  0.43081300  0.74629600  1
  P  P0  1  0.91285400  0.77006700  0.83852100  1
  P  P1  1  0.77570900  0.91736100  0.34167500  1
  P  P2  1  0.91705500  0.30734400  0.34497000  1
  P  P3  1  0.66252300  0.67046900  0.13041600  1
  P  P4  1  0.66532300  0.66720100  0.63045100  1
  P  P5  1  0.77548600  0.31607200  0.84066600  1
  P  P6  1  0.68621900  0.22295800  0.65929500  1
  P  P7  1  0.31775100  0.91209600  0.84576300  1
  P  P8  1  0.68479600  0.08273000  0.15530000  1
  P  P9  1  0.31702200  0.77189200  0.33978100  1
  P  P10  1  0.23037000  0.67849800  0.15938600  1
  P  P11  1  0.33593800  0.33598700  0.37285200  1
  P  P12  1  0.33208500  0.33450900  0.86788500  1
  P  P13  1  0.08939700  0.68560200  0.65612200  1
  P  P14  1  0.22433500  0.08263100  0.66128400  1
  P  P15  1  0.08555800  0.22821800  0.15974700  1
  O  O0  1  0.01547000  0.76850300  0.56540300  1
  O  O1  1  0.91490800  0.74464200  0.33901100  1
  O  O2  1  0.76427400  0.99089700  0.06916500  1
  O  O3  1  0.74436500  0.91412700  0.83459900  1
  O  O4  1  0.90637600  0.61749600  0.82031800  1
  O  O5  1  0.81276800  0.67146000  0.17078900  1
  O  O6  1  0.91817400  0.46288300  0.33381500  1
  O  O7  1  0.99678000  0.23597900  0.07269300  1
  O  O8  1  0.91814300  0.34214700  0.83147600  1
  O  O9  1  0.66760100  0.81328600  0.67650500  1
  O  O10  1  0.61729100  0.91635100  0.32909200  1
  O  O11  1  0.81302400  0.51836200  0.67279500  1
  O  O12  1  0.65669500  0.67677300  0.02457700  1
  O  O13  1  0.65252700  0.67247400  0.52530400  1
  O  O14  1  0.66919800  0.51513900  0.16829100  1
  O  O15  1  0.47698000  0.90395700  0.82346600  1
  O  O16  1  0.51296300  0.81768900  0.17526700  1
  O  O17  1  0.74236500  0.34070500  0.33421100  1
  O  O18  1  0.79470000  0.20482800  0.75038600  1
  O  O19  1  0.76543400  0.21875800  0.56835200  1
  O  O20  1  0.76199500  0.24901500  0.93159300  1
  O  O21  1  0.62179800  0.47748700  0.81912500  1
  O  O22  1  0.51085700  0.67242300  0.67238100  1
  O  O23  1  0.66301900  0.25155300  0.15756300  1
  O  O24  1  0.47269200  0.61792600  0.32796100  1
  O  O25  1  0.34201300  0.91640900  0.33395800  1
  O  O26  1  0.79481300  0.99768100  0.24721300  1
  O  O27  1  0.78375000  0.00667600  0.42555200  1
  O  O28  1  0.21005000  0.99294500  0.57910500  1
  O  O29  1  0.65466500  0.08364000  0.66855600  1
  O  O30  1  0.52842100  0.38080900  0.67496900  1
  O  O31  1  0.33910800  0.74237700  0.83778200  1
  O  O32  1  0.49067600  0.32334800  0.33212300  1
  O  O33  1  0.38089100  0.51817200  0.17951300  1
  O  O34  1  0.24616000  0.75411100  0.07068600  1
  O  O35  1  0.22743000  0.77875700  0.42835900  1
  O  O36  1  0.20671800  0.79188300  0.24903900  1
  O  O37  1  0.26099200  0.65766200  0.66265400  1
  O  O38  1  0.47498500  0.18448800  0.82306900  1
  O  O39  1  0.52416400  0.09276800  0.17773900  1
  O  O40  1  0.33484300  0.48521100  0.82580600  1
  O  O41  1  0.32750600  0.34478900  0.97291400  1
  O  O42  1  0.34208800  0.32609900  0.47815200  1
  O  O43  1  0.18978400  0.48833300  0.33378400  1
  O  O44  1  0.38311900  0.07978400  0.67100000  1
  O  O45  1  0.33051200  0.18874300  0.32482500  1
  O  O46  1  0.08225200  0.66125000  0.15896100  1
  O  O47  1  0.00264200  0.79295300  0.74868100  1
  O  O48  1  0.00011200  0.76003300  0.92865400  1
  O  O49  1  0.08851000  0.52919200  0.67086500  1
  O  O50  1  0.18242500  0.34109300  0.82072200  1
  O  O51  1  0.09400300  0.38128000  0.17940100  1
  O  O52  1  0.25653100  0.08381400  0.16267500  1
  O  O53  1  0.24884700  0.98662200  0.93818800  1
  O  O54  1  0.20255100  0.00719200  0.75870100  1
  O  O55  1  0.08638200  0.25591700  0.66412400  1
  O  O56  1  0.99074600  0.20999400  0.43009700  1
  O  O57  1  0.00286500  0.20386100  0.25132500  1
loop_
_geom_bond_atom_site_label_1
_geom_bond_atom_site_label_2
_geom_bond_distance
_geom_bond_site_symmetry_2
Li0 O2 1.891159 1_555
Li0 O48 2.027894 1_654
Li0 O46 2.078813 1_655
Li0 O5 2.275311 1_555
Li1 O7 1.898922 1_555
Li1 O20 1.913351 1_554
Li1 O23 2.050549 1_555
Li1 O14 2.316904 1_555
Li2 O53 1.896797 1_554
Li2 O34 1.999770 1_555
Li2 O52 2.025103 1_565
Li2 O16 2.275030 1_555
Li3 O27 1.949392 1_555
Li3 O19 2.018202 1_555
Li3 O32 2.117183 1_555
Li3 O17 2.147763 1_555
Li4 O28 1.928895 1_555
Li4 O35 2.022314 1_555
Li4 O37 2.187881 1_555
Li4 O22 2.244432 1_555
Li5 O48 1.950983 1_555
Li5 O34 1.954926 1_556
Li5 O31 2.098368 1_555
Li5 O40 2.371952 1_555
Li6 O0 1.983038 1_555
Li6 O1 2.055613 1_455
Li6 O35 2.060017 1_555
Li6 O43 2.141649 1_555
Li7 O56 1.914215 1_555
Li7 O28 2.206280 1_645
Li7 O19 2.278702 1_555
Li7 O27 2.475981 1_555
Li7 O35 2.611020 1_645
O0 P13 1.491246 1_555
O1 P1 1.551575 1_555
O1 V4 1.970385 1_555
O2 P8 1.477866 1_565
O3 P0 1.543710 1_555
O3 V2 1.905751 1_555
O4 P0 1.542606 1_555
O4 V5 1.890917 1_655
O5 P3 1.576924 1_555
O5 V4 1.936163 1_555
O6 P2 1.532963 1_555
O6 V4 1.930014 1_555
O7 P15 1.478103 1_655
O8 P5 1.544201 1_555
O8 V5 1.887625 1_655
O9 P4 1.574457 1_555
O9 V2 1.865641 1_555
O10 P1 1.563211 1_555
O10 V3 1.877433 1_565
O11 P4 1.567382 1_555
O11 V5 1.896704 1_655
O12 P3 1.491202 1_555
O13 P4 1.483856 1_555
O14 P3 1.580129 1_555
O14 V0 1.928800 1_555
O15 P7 1.552816 1_555
O15 V2 1.865917 1_555
O16 P3 1.583745 1_555
O16 V3 1.959555 1_565
O17 P2 1.577832 1_555
O17 V0 1.890826 1_555
O18 P6 1.612669 1_555
O18 P5 1.617856 1_555
O19 P6 1.489971 1_555
O20 P5 1.476590 1_555
O21 P5 1.571570 1_555
O21 V1 1.830490 1_555
O22 P4 1.601772 1_555
O22 V1 1.897572 1_555
O23 P8 1.553354 1_555
O23 V0 1.973452 1_555
O24 P9 1.523734 1_555
O24 V0 1.947808 1_555
O25 P9 1.550177 1_555
O25 V3 1.885419 1_565
O26 P1 1.605234 1_555
O26 P8 1.619798 1_565
O27 P1 1.489802 1_545
O28 P14 1.495430 1_565
O29 P6 1.543907 1_555
O29 V2 1.874840 1_545
O30 P6 1.559677 1_555
O30 V1 1.870160 1_555
O31 P7 1.567051 1_555
O31 V1 1.955579 1_555
O32 P11 1.567333 1_555
O32 V0 1.977552 1_555
O33 P10 1.548252 1_555
O33 V0 1.872840 1_555
O34 P10 1.500806 1_555
O35 P9 1.510013 1_555
O36 P10 1.614842 1_555
O36 P9 1.615647 1_555
O37 P13 1.562157 1_555
O37 V1 1.940217 1_555
O38 P12 1.566976 1_555
O38 V2 1.891548 1_545
O39 P8 1.558389 1_555
O39 V3 1.871555 1_555
O40 P12 1.601376 1_555
O40 V1 1.881210 1_555
O41 P12 1.481036 1_555
O42 P11 1.484972 1_555
O43 P11 1.560309 1_555
O43 V4 2.005957 1_455
O44 P14 1.544393 1_555
O44 V2 1.921790 1_545
O45 P11 1.610654 1_555
O45 V3 1.825889 1_555
O46 P10 1.539417 1_555
O46 V4 2.017660 1_455
O47 P13 1.621537 1_555
O47 P0 1.622171 1_455
O48 P0 1.501159 1_455
O49 P13 1.546473 1_555
O49 V5 1.903609 1_555
O50 P12 1.575614 1_555
O50 V5 1.857525 1_555
O51 P15 1.560858 1_555
O51 V4 1.841245 1_455
O52 P15 1.559538 1_555
O52 V3 1.978834 1_555
O53 P7 1.479474 1_555
O54 P7 1.607553 1_545
O54 P14 1.624111 1_555
O55 P14 1.551227 1_555
O55 V5 1.876737 1_555
O56 P2 1.475086 1_555
O57 P15 1.605957 1_555
O57 P2 1.617937 1_455
