# generated using pymatgen
data_LiCoCuO4
_symmetry_space_group_name_H-M   'P 1'
_cell_length_a   5.81568746
_cell_length_b   5.75396065
_cell_length_c   5.80989902
_cell_angle_alpha   59.95685016
_cell_angle_beta   59.85717141
_cell_angle_gamma   91.25651279
_symmetry_Int_Tables_number   1
_chemical_formula_structural   LiCoCuO4
_chemical_formula_sum   'Li2 Co2 Cu2 O8'
_cell_volume   135.49119981
_cell_formula_units_Z   2
loop_
 _symmetry_equiv_pos_site_id
 _symmetry_equiv_pos_as_xyz
  1  'x, y, z'
loop_
 _atom_site_type_symbol
 _atom_site_label
 _atom_site_symmetry_multiplicity
 _atom_site_fract_x
 _atom_site_fract_y
 _atom_site_fract_z
 _atom_site_occupancy
  Li  Li0  1  0.50000000  0.00000000  0.50000000  1
  Li  Li1  1  0.50000000  0.50000000  0.00000000  1
  Co  Co0  1  0.00000000  0.50000000  0.50000000  1
  Co  Co1  1  0.50000000  0.00000000  0.00000000  1
  Cu  Cu0  1  0.00000000  0.00000000  0.50000000  1
  Cu  Cu1  1  0.00000000  0.00000000  0.00000000  1
  O  O0  1  0.74781000  0.79313300  0.96572100  1
  O  O1  1  0.26034100  0.75691900  0.45343400  1
  O  O2  1  0.75426400  0.24021300  0.97760500  1
  O  O3  1  0.78938700  0.75209700  0.49127000  1
  O  O4  1  0.21061300  0.24790300  0.50873000  1
  O  O5  1  0.24573600  0.75978700  0.02239500  1
  O  O6  1  0.73965900  0.24308100  0.54656600  1
  O  O7  1  0.25219000  0.20686700  0.03427900  1
loop_
_geom_bond_atom_site_label_1
_geom_bond_atom_site_label_2
_geom_bond_distance
_geom_bond_site_symmetry_2
Li0 O5 2.123948 1_546
Li0 O2 2.123948 1_554
Li0 O6 2.155047 1_555
Li0 O1 2.155047 1_545
Li0 O4 2.227486 1_555
Li0 O3 2.227486 1_545
Li1 O0 2.056777 1_554
Li1 O7 2.056777 1_555
Li1 O3 2.068019 1_554
Li1 O4 2.068019 1_555
Li1 O2 2.129892 1_554
Li1 O5 2.129892 1_555
Co0 O6 1.908124 1_455
Co0 O1 1.908124 1_555
Co0 O3 1.916667 1_455
Co0 O4 1.916667 1_555
Co0 O2 1.935697 1_455
Co0 O5 1.935697 1_555
Co1 O6 1.837500 1_554
Co1 O1 1.837500 1_545
Co1 O7 1.886225 1_555
Co1 O0 1.886225 1_544
Co1 O2 1.910762 1_554
Co1 O5 1.910762 1_545
Cu0 O4 1.896246 1_555
Cu0 O3 1.896246 1_445
Cu0 O0 1.897932 1_445
Cu0 O7 1.897932 1_555
Cu0 O1 2.093386 1_545
Cu0 O6 2.093386 1_455
Cu1 O4 2.004295 1_554
Cu1 O3 2.004295 1_445
Cu1 O7 2.015374 1_555
Cu1 O0 2.015374 1_444
Cu1 O5 2.015699 1_545
Cu1 O2 2.015699 1_454
