# generated using pymatgen
data_Li7Fe7SiO16
_symmetry_space_group_name_H-M   'P 1'
_cell_length_a   5.23585994
_cell_length_b   5.23585994
_cell_length_c   11.41016400
_cell_angle_alpha   90.00000000
_cell_angle_beta   90.00000000
_cell_angle_gamma   113.42889524
_symmetry_Int_Tables_number   1
_chemical_formula_structural   Li7Fe7SiO16
_chemical_formula_sum   'Li7 Fe7 Si1 O16'
_cell_volume   287.01174250
_cell_formula_units_Z   1
loop_
 _symmetry_equiv_pos_site_id
 _symmetry_equiv_pos_as_xyz
  1  'x, y, z'
loop_
 _atom_site_type_symbol
 _atom_site_label
 _atom_site_symmetry_multiplicity
 _atom_site_fract_x
 _atom_site_fract_y
 _atom_site_fract_z
 _atom_site_occupancy
  Li  Li0  1  0.50000000  0.00000000  0.12191500  1
  Li  Li1  1  0.00000000  0.00000000  0.24851400  1
  Li  Li2  1  0.00000000  0.50000000  0.37333100  1
  Li  Li3  1  0.50000000  0.50000000  0.50000000  1
  Li  Li4  1  0.00000000  0.00000000  0.75148600  1
  Li  Li5  1  0.50000000  0.00000000  0.62666900  1
  Li  Li6  1  0.00000000  0.50000000  0.87808500  1
  Fe  Fe0  1  0.00000000  0.50000000  0.12099200  1
  Fe  Fe1  1  0.50000000  0.50000000  0.23779200  1
  Fe  Fe2  1  0.50000000  0.00000000  0.37340900  1
  Fe  Fe3  1  0.00000000  0.00000000  0.50000000  1
  Fe  Fe4  1  0.00000000  0.50000000  0.62659100  1
  Fe  Fe5  1  0.50000000  0.50000000  0.76220800  1
  Fe  Fe6  1  0.50000000  0.00000000  0.87900800  1
  Si  Si0  1  0.00000000  0.00000000  0.00000000  1
  O  O0  1  0.78819500  0.75580900  0.11705100  1
  O  O1  1  0.79777400  0.20222600  0.00000000  1
  O  O2  1  0.20222600  0.79777400  0.00000000  1
  O  O3  1  0.27137200  0.72714100  0.24531300  1
  O  O4  1  0.21180500  0.24419100  0.11705100  1
  O  O5  1  0.72862800  0.27285900  0.24531300  1
  O  O6  1  0.73165300  0.76808600  0.37187900  1
  O  O7  1  0.76808600  0.73165300  0.62812100  1
  O  O8  1  0.26834700  0.23191400  0.37187900  1
  O  O9  1  0.76764200  0.23235800  0.50000000  1
  O  O10  1  0.23235800  0.76764200  0.50000000  1
  O  O11  1  0.27285900  0.72862800  0.75468700  1
  O  O12  1  0.75580900  0.78819500  0.88294900  1
  O  O13  1  0.23191400  0.26834700  0.62812100  1
  O  O14  1  0.72714100  0.27137200  0.75468700  1
  O  O15  1  0.24419100  0.21180500  0.88294900  1
loop_
_geom_bond_atom_site_label_1
_geom_bond_atom_site_label_2
_geom_bond_distance
_geom_bond_site_symmetry_2
Li0 O5 2.023974 1_555
Li0 O3 2.023974 1_545
Li0 O2 2.043092 1_545
Li0 O1 2.043092 1_555
Li0 O4 2.334286 1_555
Li0 O0 2.334286 1_545
Li1 O4 1.996757 1_555
Li1 O0 1.996757 1_445
Li1 O8 2.018222 1_555
Li1 O6 2.018222 1_445
Li1 O5 2.382326 1_455
Li1 O3 2.382326 1_545
Li2 O10 2.043780 1_555
Li2 O9 2.043780 1_455
Li2 O3 2.055027 1_555
Li2 O5 2.055027 1_455
Li2 O6 2.347969 1_455
Li2 O8 2.347969 1_555
Li3 O7 2.055390 1_555
Li3 O13 2.055390 1_555
Li3 O6 2.055390 1_555
Li3 O8 2.055390 1_555
Li3 O9 2.342882 1_555
Li3 O10 2.342882 1_555
Li4 O15 1.996757 1_555
Li4 O12 1.996757 1_445
Li4 O13 2.018222 1_555
Li4 O7 2.018222 1_445
Li4 O11 2.382326 1_545
Li4 O14 2.382326 1_455
Li5 O9 2.043780 1_555
Li5 O10 2.043780 1_545
Li5 O14 2.055027 1_555
Li5 O11 2.055027 1_545
Li5 O7 2.347969 1_545
Li5 O13 2.347969 1_555
Li6 O11 2.023974 1_555
Li6 O14 2.023974 1_455
Li6 O1 2.043092 1_456
Li6 O2 2.043092 1_556
Li6 O15 2.334286 1_555
Li6 O12 2.334286 1_455
Fe0 O3 2.025261 1_555
Fe0 O5 2.025261 1_455
Fe0 O1 2.035936 1_455
Fe0 O2 2.035936 1_555
Fe0 O0 2.051093 1_455
Fe0 O4 2.051093 1_555
Fe1 O3 1.996703 1_555
Fe1 O5 1.996703 1_555
Fe1 O4 2.088460 1_555
Fe1 O0 2.088460 1_555
Fe1 O6 2.104350 1_555
Fe1 O8 2.104350 1_555
Fe2 O8 2.029059 1_555
Fe2 O6 2.029059 1_545
Fe2 O9 2.043151 1_555
Fe2 O10 2.043151 1_545
Fe2 O5 2.061624 1_555
Fe2 O3 2.061624 1_545
Fe3 O9 2.034013 1_455
Fe3 O10 2.034013 1_545
Fe3 O13 2.056438 1_555
Fe3 O7 2.056438 1_445
Fe3 O8 2.056438 1_555
Fe3 O6 2.056438 1_445
Fe4 O13 2.029059 1_555
Fe4 O7 2.029059 1_455
Fe4 O10 2.043151 1_555
Fe4 O9 2.043151 1_455
Fe4 O11 2.061624 1_555
Fe4 O14 2.061624 1_455
Fe5 O14 1.996703 1_555
Fe5 O11 1.996703 1_555
Fe5 O12 2.088460 1_555
Fe5 O15 2.088460 1_555
Fe5 O7 2.104350 1_555
Fe5 O13 2.104350 1_555
Fe6 O14 2.025261 1_555
Fe6 O11 2.025261 1_545
Fe6 O2 2.035936 1_546
Fe6 O1 2.035936 1_556
Fe6 O12 2.051093 1_545
Fe6 O15 2.051093 1_555
O0 Si0 1.876365 1_665
O1 Si0 1.770244 1_655
O2 Si0 1.770244 1_565
O4 Si0 1.876365 1_555
O12 Si0 1.876365 1_666
O15 Si0 1.876365 1_556
