# generated using pymatgen
data_KErHSe2O9
_symmetry_space_group_name_H-M   'P 1'
_cell_length_a   5.76168000
_cell_length_b   8.61216742
_cell_length_c   9.40356654
_cell_angle_alpha   70.29176380
_cell_angle_beta   84.25739813
_cell_angle_gamma   74.65289882
_symmetry_Int_Tables_number   1
_chemical_formula_structural   KErHSe2O9
_chemical_formula_sum   'K2 Er2 H2 Se4 O18'
_cell_volume   423.58255879
_cell_formula_units_Z   2
loop_
 _symmetry_equiv_pos_site_id
 _symmetry_equiv_pos_as_xyz
  1  'x, y, z'
loop_
 _atom_site_type_symbol
 _atom_site_label
 _atom_site_symmetry_multiplicity
 _atom_site_fract_x
 _atom_site_fract_y
 _atom_site_fract_z
 _atom_site_occupancy
  K  K0  1  0.23520600  0.77901800  0.98338100  1
  K  K1  1  0.76479400  0.22098200  0.01661900  1
  Er  Er0  1  0.64407800  0.63092300  0.60602800  1
  Er  Er1  1  0.35592200  0.36907700  0.39397200  1
  H  H0  1  0.32506100  0.10221300  0.26092100  1
  H  H1  1  0.67493900  0.89778700  0.73907900  1
  Se  Se0  1  0.11317600  0.82717600  0.36972100  1
  Se  Se1  1  0.88682400  0.17282400  0.63027900  1
  Se  Se2  1  0.78326300  0.55121600  0.21605800  1
  Se  Se3  1  0.21673700  0.44878400  0.78394200  1
  O  O0  1  0.19931600  0.66261800  0.30127000  1
  O  O1  1  0.80068400  0.33738200  0.69873000  1
  O  O2  1  0.09728000  0.00403900  0.22551200  1
  O  O3  1  0.90272000  0.99596100  0.77448800  1
  O  O4  1  0.68638600  0.18109700  0.50921600  1
  O  O5  1  0.31361400  0.81890300  0.49078400  1
  O  O6  1  0.14964300  0.18048400  0.53919300  1
  O  O7  1  0.85035700  0.81951600  0.46080700  1
  O  O8  1  0.74182900  0.74771600  0.10082900  1
  O  O9  1  0.25817100  0.25228400  0.89917100  1
  O  O10  1  0.58972300  0.45494700  0.17677100  1
  O  O11  1  0.41027700  0.54505300  0.82322900  1
  O  O12  1  0.71226500  0.53346800  0.39984900  1
  O  O13  1  0.28773500  0.46653200  0.60015100  1
  O  O14  1  0.06560600  0.43338800  0.20838300  1
  O  O15  1  0.93439400  0.56661200  0.79161700  1
  O  O16  1  0.45426700  0.15717300  0.26801300  1
  O  O17  1  0.54573300  0.84282700  0.73198700  1
loop_
_geom_bond_atom_site_label_1
_geom_bond_atom_site_label_2
_geom_bond_distance
_geom_bond_site_symmetry_2
K0 O3 2.720727 1_455
K0 O17 2.808807 1_555
K0 O0 2.819299 1_556
K0 O11 2.830605 1_555
K0 O8 2.991625 1_456
K0 O10 3.093757 1_556
K0 O8 3.137006 1_556
K0 O14 3.342158 1_556
K0 O2 3.371948 1_566
K1 O2 2.720727 1_655
K1 O16 2.808807 1_555
K1 O1 2.819299 1_554
K1 O10 2.830605 1_555
K1 O9 2.991625 1_654
K1 O11 3.093757 1_554
K1 O9 3.137006 1_554
K1 O15 3.342158 1_554
K1 O3 3.371948 1_544
Er0 O5 2.240227 1_555
Er0 O7 2.261965 1_555
Er0 O12 2.321277 1_555
Er0 O1 2.329937 1_555
Er0 O11 2.343326 1_555
Er0 O15 2.364803 1_555
Er0 O17 2.414686 1_555
Er0 O13 2.799449 1_555
Er1 O4 2.240227 1_555
Er1 O6 2.261965 1_555
Er1 O13 2.321277 1_555
Er1 O0 2.329937 1_555
Er1 O10 2.343326 1_555
Er1 O14 2.364803 1_555
Er1 O16 2.414686 1_555
Er1 O12 2.799449 1_555
H0 O16 1.000211 1_555
H1 O17 1.000211 1_555
O0 Se0 1.687639 1_555
O1 Se1 1.687639 1_555
O2 Se0 1.650842 1_545
O3 Se1 1.650842 1_565
O4 Se1 1.673208 1_555
O5 Se0 1.673208 1_555
O6 Se1 1.669206 1_455
O7 Se0 1.669206 1_655
O8 Se2 1.641982 1_555
O9 Se3 1.641982 1_555
O10 Se2 1.686937 1_555
O11 Se3 1.686937 1_555
O12 Se2 1.700333 1_555
O13 Se3 1.700333 1_555
O14 Se2 1.683274 1_455
O15 Se3 1.683274 1_655
