# generated using pymatgen
data_Li2Ti3NiO8
_symmetry_space_group_name_H-M   'P 1'
_cell_length_a   5.94065500
_cell_length_b   10.29009200
_cell_length_c   9.69787900
_cell_angle_alpha   90.00022952
_cell_angle_beta   89.99995708
_cell_angle_gamma   89.99998479
_symmetry_Int_Tables_number   1
_chemical_formula_structural   Li2Ti3NiO8
_chemical_formula_sum   'Li8 Ti12 Ni4 O32'
_cell_volume   592.83024246
_cell_formula_units_Z   4
loop_
 _symmetry_equiv_pos_site_id
 _symmetry_equiv_pos_as_xyz
  1  'x, y, z'
loop_
 _atom_site_type_symbol
 _atom_site_label
 _atom_site_symmetry_multiplicity
 _atom_site_fract_x
 _atom_site_fract_y
 _atom_site_fract_z
 _atom_site_occupancy
  Li  Li0  1  0.99999000  0.33334100  0.88830500  1
  Li  Li1  1  0.49999000  0.83334400  0.88831100  1
  Li  Li2  1  0.49999500  0.16667400  0.38830500  1
  Li  Li3  1  0.99999500  0.66667200  0.38831100  1
  Li  Li4  1  0.99999800  0.99999500  0.99928100  1
  Li  Li5  1  0.49999700  0.50000500  0.99928300  1
  Li  Li6  1  0.99999800  0.99999900  0.49928300  1
  Li  Li7  1  0.49999800  0.50000800  0.49928100  1
  Ti  Ti0  1  0.75317000  0.41557600  0.21513000  1
  Ti  Ti1  1  0.25313400  0.91565200  0.21511000  1
  Ti  Ti2  1  0.00000300  0.16880600  0.21510600  1
  Ti  Ti3  1  0.50000300  0.66873700  0.21510200  1
  Ti  Ti4  1  0.24682100  0.41558000  0.21512000  1
  Ti  Ti5  1  0.74685700  0.91565600  0.21510100  1
  Ti  Ti6  1  0.25317100  0.08442700  0.71512000  1
  Ti  Ti7  1  0.75313600  0.58435000  0.71510100  1
  Ti  Ti8  1  0.50000400  0.33119900  0.71512200  1
  Ti  Ti9  1  0.00000400  0.83126600  0.71511800  1
  Ti  Ti10  1  0.74682500  0.08442200  0.71511300  1
  Ti  Ti11  1  0.24685900  0.58434500  0.71509400  1
  Ni  Ni0  1  0.49999700  0.83331800  0.48977000  1
  Ni  Ni1  1  0.99999200  0.66669300  0.98976700  1
  Ni  Ni2  1  0.99999700  0.33329800  0.48974900  1
  Ni  Ni3  1  0.49999200  0.16670800  0.98974200  1
  O  O0  1  0.99999000  0.33334300  0.10387000  1
  O  O1  1  0.49999000  0.83332700  0.10385900  1
  O  O2  1  0.49999500  0.16667300  0.60386900  1
  O  O3  1  0.99999500  0.66668900  0.60385800  1
  O  O4  1  0.99999200  0.99997500  0.31518300  1
  O  O5  1  0.49999300  0.50003500  0.31517100  1
  O  O6  1  0.99999600  0.99997600  0.81517100  1
  O  O7  1  0.49999600  0.50003700  0.81518400  1
  O  O8  1  0.73869200  0.42046000  0.60707200  1
  O  O9  1  0.23874400  0.92038700  0.60703900  1
  O  O10  1  0.99999400  0.15910700  0.60708000  1
  O  O11  1  0.49999400  0.65918300  0.60704500  1
  O  O12  1  0.23868500  0.07955600  0.10707200  1
  O  O13  1  0.73873500  0.57962900  0.10704000  1
  O  O14  1  0.26130000  0.42046200  0.60707300  1
  O  O15  1  0.76124600  0.92038800  0.60703900  1
  O  O16  1  0.49999000  0.34090200  0.10708200  1
  O  O17  1  0.99998800  0.84082700  0.10704700  1
  O  O18  1  0.76130200  0.07955500  0.10707200  1
  O  O19  1  0.26125000  0.57962600  0.10703800  1
  O  O20  1  0.77741400  0.25915300  0.33031200  1
  O  O21  1  0.27745400  0.75914600  0.33037000  1
  O  O22  1  0.99999200  0.48173500  0.33031300  1
  O  O23  1  0.49999200  0.98168000  0.33036600  1
  O  O24  1  0.22257100  0.25915200  0.33031100  1
  O  O25  1  0.72253100  0.75914600  0.33036900  1
  O  O26  1  0.27741600  0.24086100  0.83031400  1
  O  O27  1  0.77745500  0.74086900  0.83036800  1
  O  O28  1  0.49999400  0.01828000  0.83031600  1
  O  O29  1  0.99999400  0.51833400  0.83036800  1
  O  O30  1  0.72257000  0.24086100  0.83031400  1
  O  O31  1  0.22253000  0.74086800  0.83036900  1
loop_
_geom_bond_atom_site_label_1
_geom_bond_atom_site_label_2
_geom_bond_distance
_geom_bond_site_symmetry_2
Li0 O30 1.984431 1_555
Li0 O26 1.984459 1_655
Li0 O29 1.984786 1_555
Li0 O0 2.090523 1_556
Li1 O28 1.984383 1_565
Li1 O31 1.984474 1_555
Li1 O27 1.984495 1_555
Li1 O1 2.090358 1_556
Li2 O20 1.984428 1_555
Li2 O24 1.984451 1_555
Li2 O23 1.984797 1_545
Li2 O2 2.090514 1_555
Li3 O22 1.984397 1_555
Li3 O21 1.984458 1_655
Li3 O25 1.984485 1_555
Li3 O3 2.090349 1_555
Li4 O6 1.785477 1_555
Li4 O12 1.942575 1_666
Li4 O18 1.942608 1_566
Li4 O17 1.942888 1_556
Li5 O7 1.785370 1_555
Li5 O16 1.942497 1_556
Li5 O13 1.942892 1_556
Li5 O19 1.942906 1_556
Li6 O4 1.785380 1_555
Li6 O10 1.942523 1_565
Li6 O9 1.942872 1_655
Li6 O15 1.942893 1_555
Li7 O5 1.785477 1_555
Li7 O8 1.942552 1_555
Li7 O14 1.942565 1_555
Li7 O11 1.942931 1_555
Ni0 O11 2.122332 1_555
Ni0 O15 2.122445 1_555
Ni0 O9 2.122456 1_555
Ni0 O25 2.172522 1_555
Ni0 O21 2.172549 1_555
Ni0 O23 2.172660 1_555
Ni1 O17 2.122341 1_556
Ni1 O13 2.122477 1_556
Ni1 O19 2.122485 1_656
Ni1 O31 2.172531 1_655
Ni1 O27 2.172539 1_555
Ni1 O29 2.172595 1_555
Ni2 O10 2.123109 1_555
Ni2 O8 2.123367 1_555
Ni2 O14 2.123374 1_655
Ni2 O24 2.172828 1_655
Ni2 O20 2.172852 1_555
Ni2 O22 2.173423 1_555
Ni3 O16 2.123174 1_556
Ni3 O12 2.123373 1_556
Ni3 O18 2.123391 1_556
Ni3 O26 2.172797 1_555
Ni3 O30 2.172803 1_555
Ni3 O28 2.173281 1_555
O0 Ti0 2.007532 1_555
O0 Ti4 2.007546 1_655
O0 Ti2 2.007564 1_655
O1 Ti1 2.008040 1_555
O1 Ti5 2.008060 1_555
O1 Ti3 2.008061 1_555
O2 Ti8 2.007550 1_555
O2 Ti6 2.007563 1_555
O2 Ti10 2.007575 1_555
O3 Ti9 2.008029 1_655
O3 Ti7 2.008077 1_555
O3 Ti11 2.008084 1_655
O4 Ti5 1.989025 1_555
O4 Ti1 1.989031 1_655
O4 Ti2 1.990004 1_665
O5 Ti3 1.988807 1_555
O5 Ti0 1.989648 1_555
O5 Ti4 1.989656 1_555
O6 Ti9 1.988797 1_655
O6 Ti10 1.989647 1_565
O6 Ti6 1.989654 1_665
O7 Ti11 1.989026 1_555
O7 Ti7 1.989028 1_555
O7 Ti8 1.989989 1_555
O8 Ti7 1.987213 1_555
O8 Ti8 1.988033 1_555
O9 Ti9 1.987737 1_555
O9 Ti6 1.988784 1_565
O10 Ti10 1.987527 1_555
O10 Ti6 1.987579 1_655
O11 Ti11 1.988065 1_555
O11 Ti7 1.988113 1_555
O12 Ti1 1.987389 1_545
O12 Ti2 1.987870 1_555
O13 Ti3 1.987550 1_555
O13 Ti0 1.988953 1_555
O14 Ti11 1.987110 1_555
O14 Ti8 1.988106 1_555
O15 Ti9 1.987819 1_655
O15 Ti10 1.988694 1_565
O16 Ti4 1.987521 1_555
O16 Ti0 1.987607 1_555
O17 Ti5 1.988033 1_555
O17 Ti1 1.988132 1_655
O18 Ti5 1.987299 1_545
O18 Ti2 1.987956 1_655
O19 Ti3 1.987665 1_555
O19 Ti4 1.988849 1_555
O20 Ti0 1.964517 1_555
O20 Ti2 1.964966 1_655
O21 Ti3 1.965450 1_555
O21 Ti1 1.965680 1_555
O22 Ti0 1.964996 1_555
O22 Ti4 1.965066 1_655
O23 Ti1 1.965092 1_555
O23 Ti5 1.965156 1_555
O24 Ti4 1.964612 1_555
O24 Ti2 1.964873 1_555
O25 Ti3 1.965362 1_555
O25 Ti5 1.965761 1_555
O26 Ti6 1.964670 1_555
O26 Ti8 1.964845 1_555
O27 Ti9 1.965296 1_655
O27 Ti7 1.965821 1_555
O28 Ti6 1.965032 1_555
O28 Ti10 1.965087 1_555
O29 Ti7 1.965112 1_555
O29 Ti11 1.965163 1_655
O30 Ti10 1.964754 1_555
O30 Ti8 1.964758 1_555
O31 Ti9 1.965216 1_555
O31 Ti11 1.965903 1_555
