# generated using pymatgen
data_UH12C2S2N6O13
_symmetry_space_group_name_H-M   'P 1'
_cell_length_a   6.92616677
_cell_length_b   6.92616677
_cell_length_c   18.63074698
_cell_angle_alpha   81.80251583
_cell_angle_beta   81.80251583
_cell_angle_gamma   71.84545655
_symmetry_Int_Tables_number   1
_chemical_formula_structural   UH12C2S2N6O13
_chemical_formula_sum   'U2 H24 C4 S4 N12 O26'
_cell_volume   835.99104899
_cell_formula_units_Z   2
loop_
 _symmetry_equiv_pos_site_id
 _symmetry_equiv_pos_as_xyz
  1  'x, y, z'
loop_
 _atom_site_type_symbol
 _atom_site_label
 _atom_site_symmetry_multiplicity
 _atom_site_fract_x
 _atom_site_fract_y
 _atom_site_fract_z
 _atom_site_occupancy
  U  U0  1  0.78693000  0.21307000  0.75000000  1
  U  U1  1  0.21307000  0.78693000  0.25000000  1
  H  H0  1  0.87603400  0.63578500  0.87713300  1
  H  H1  1  0.36421500  0.12396600  0.62286700  1
  H  H2  1  0.12396600  0.36421500  0.12286700  1
  H  H3  1  0.63578500  0.87603400  0.37713300  1
  H  H4  1  0.61787300  0.64602400  0.89220600  1
  H  H5  1  0.35397600  0.38212700  0.60779400  1
  H  H6  1  0.38212700  0.35397600  0.10779400  1
  H  H7  1  0.64602400  0.61787300  0.39220600  1
  H  H8  1  0.01553100  0.74789400  0.96837000  1
  H  H9  1  0.25210600  0.98446900  0.53163000  1
  H  H10  1  0.98446900  0.25210600  0.03163000  1
  H  H11  1  0.74789400  0.01553100  0.46837000  1
  H  H12  1  0.86428600  0.79341900  0.05397300  1
  H  H13  1  0.20658100  0.13571400  0.44602700  1
  H  H14  1  0.13571400  0.20658100  0.94602700  1
  H  H15  1  0.79341900  0.86428600  0.55397300  1
  H  H16  1  0.42856100  0.72341300  0.00048000  1
  H  H17  1  0.27658700  0.57143900  0.49952000  1
  H  H18  1  0.57143900  0.27658700  0.99952000  1
  H  H19  1  0.72341300  0.42856100  0.50048000  1
  H  H20  1  0.52942500  0.78828100  0.07073100  1
  H  H21  1  0.21171900  0.47057500  0.42926900  1
  H  H22  1  0.47057500  0.21171900  0.92926900  1
  H  H23  1  0.78828100  0.52942500  0.57073100  1
  C  C0  1  0.72801100  0.71612100  0.97745300  1
  C  C1  1  0.28387900  0.27198900  0.52254700  1
  C  C2  1  0.27198900  0.28387900  0.02254700  1
  C  C3  1  0.71612100  0.72801100  0.47745300  1
  S  S0  1  0.67618600  0.76187400  0.70464800  1
  S  S1  1  0.23812600  0.32381400  0.79535200  1
  S  S2  1  0.32381400  0.23812600  0.29535200  1
  S  S3  1  0.76187400  0.67618600  0.20464800  1
  N  N0  1  0.74428200  0.65410500  0.91192500  1
  N  N1  1  0.34589500  0.25571800  0.58807500  1
  N  N2  1  0.25571800  0.34589500  0.08807500  1
  N  N3  1  0.65410500  0.74428200  0.41192500  1
  N  N4  1  0.88188400  0.75754000  0.00145500  1
  N  N5  1  0.24246000  0.11811600  0.49854500  1
  N  N6  1  0.11811600  0.24246000  0.99854500  1
  N  N7  1  0.75754000  0.88188400  0.50145500  1
  N  N8  1  0.55226100  0.73216200  0.02149400  1
  N  N9  1  0.26783800  0.44773900  0.47850600  1
  N  N10  1  0.44773900  0.26783800  0.97850600  1
  N  N11  1  0.73216200  0.55226100  0.52149400  1
  O  O0  1  0.27943200  0.73637800  0.90684400  1
  O  O1  1  0.26362200  0.72056800  0.59315600  1
  O  O2  1  0.72056800  0.26362200  0.09315600  1
  O  O3  1  0.73637800  0.27943200  0.40684400  1
  O  O4  1  0.07347800  0.92652200  0.75000000  1
  O  O5  1  0.92652200  0.07347800  0.25000000  1
  O  O6  1  0.81582000  0.23804700  0.65065000  1
  O  O7  1  0.76195300  0.18418000  0.84935000  1
  O  O8  1  0.18418000  0.76195300  0.34935000  1
  O  O9  1  0.23804700  0.81582000  0.15065000  1
  O  O10  1  0.42860600  0.32154900  0.74563400  1
  O  O11  1  0.67845100  0.57139400  0.75436600  1
  O  O12  1  0.57139400  0.67845100  0.25436600  1
  O  O13  1  0.32154900  0.42860600  0.24563400  1
  O  O14  1  0.47474200  0.85505800  0.67658100  1
  O  O15  1  0.14494200  0.52525800  0.82341900  1
  O  O16  1  0.52525800  0.14494200  0.32341900  1
  O  O17  1  0.85505800  0.47474200  0.17658100  1
  O  O18  1  0.70507600  0.90779700  0.75265900  1
  O  O19  1  0.09220300  0.29492400  0.74734100  1
  O  O20  1  0.29492400  0.09220300  0.24734100  1
  O  O21  1  0.90779700  0.70507600  0.25265900  1
  O  O22  1  0.27937900  0.15659500  0.85472700  1
  O  O23  1  0.84340500  0.72062100  0.64527300  1
  O  O24  1  0.72062100  0.84340500  0.14527300  1
  O  O25  1  0.15659500  0.27937900  0.35472700  1
loop_
_geom_bond_atom_site_label_1
_geom_bond_atom_site_label_2
_geom_bond_distance
_geom_bond_site_symmetry_2
H0 N0 1.025479 1_555
H1 N1 1.025479 1_555
H2 N2 1.025479 1_555
H3 N3 1.025479 1_555
H4 N0 1.016258 1_555
H5 N1 1.016258 1_555
H6 N2 1.016258 1_555
H7 N3 1.016258 1_555
H8 N4 1.025550 1_456
H9 N5 1.025550 1_565
H10 N6 1.025550 1_654
H11 N7 1.025550 1_545
H12 N4 1.024904 1_555
H13 N5 1.024904 1_555
H14 N6 1.024904 1_555
H15 N7 1.024904 1_555
H16 N8 1.012804 1_555
H17 N9 1.012804 1_555
H18 N10 1.012804 1_555
H19 N11 1.012804 1_555
H20 N8 1.019593 1_555
H21 N9 1.019593 1_555
H22 N10 1.019593 1_555
H23 N11 1.019593 1_555
C0 N0 1.329579 1_555
C0 N4 1.334578 1_556
C0 N8 1.350644 1_556
C1 N1 1.329579 1_555
C1 N5 1.334578 1_555
C1 N9 1.350644 1_555
C2 N2 1.329579 1_555
C2 N6 1.334578 1_554
C2 N10 1.350644 1_554
C3 N3 1.329579 1_555
C3 N7 1.334578 1_555
C3 N11 1.350644 1_555
O4 U0 2.328797 1_465
O5 U1 2.328797 1_645
O6 U0 1.822272 1_555
O7 U0 1.822272 1_555
O8 U1 1.822272 1_555
O9 U1 1.822272 1_555
O10 S1 1.497179 1_555
O10 U0 2.368260 1_555
O11 S0 1.497179 1_555
O11 U0 2.368260 1_555
O12 S3 1.497179 1_555
O12 U1 2.368260 1_555
O13 S2 1.497179 1_555
O13 U1 2.368260 1_555
O14 S0 1.478960 1_555
O15 S1 1.478960 1_555
O16 S2 1.478960 1_555
O17 S3 1.478960 1_555
O18 S0 1.515419 1_555
O18 U0 2.345964 1_565
O19 S1 1.515419 1_555
O19 U0 2.345964 1_455
O20 S2 1.515419 1_555
O20 U1 2.345964 1_545
O21 S3 1.515419 1_555
O21 U1 2.345964 1_655
O22 S1 1.471487 1_555
O23 S0 1.471487 1_555
O24 S3 1.471487 1_555
O25 S2 1.471487 1_555
