# generated using pymatgen
data_MnNbSi
_symmetry_space_group_name_H-M   'P 1'
_cell_length_a   6.48617425
_cell_length_b   6.48625552
_cell_length_c   3.63589391
_cell_angle_alpha   90.00000000
_cell_angle_beta   90.00000000
_cell_angle_gamma   119.99985309
_symmetry_Int_Tables_number   1
_chemical_formula_structural   MnNbSi
_chemical_formula_sum   'Mn3 Nb3 Si3'
_cell_volume   132.47232012
_cell_formula_units_Z   3
loop_
 _symmetry_equiv_pos_site_id
 _symmetry_equiv_pos_as_xyz
  1  'x, y, z'
loop_
 _atom_site_type_symbol
 _atom_site_label
 _atom_site_symmetry_multiplicity
 _atom_site_fract_x
 _atom_site_fract_y
 _atom_site_fract_z
 _atom_site_occupancy
  Mn  Mn0  1  0.24658944  0.00000036  0.00000000  1
  Mn  Mn1  1  0.75340994  0.75341090  0.00000000  1
  Mn  Mn2  1  -0.00000049  0.24659315  0.00000000  1
  Nb  Nb0  1  -0.00000394  0.58475515  0.50000000  1
  Nb  Nb1  1  0.41524673  0.41524782  0.50000000  1
  Nb  Nb2  1  0.58475444  0.00000140  0.50000000  1
  Si  Si0  1  0.00000082  -0.00000113  0.50000000  1
  Si  Si1  1  0.66666888  0.33333181  -0.00000000  1
  Si  Si2  1  0.33333319  0.66666154  -0.00000000  1
loop_
_geom_bond_atom_site_label_1
_geom_bond_atom_site_label_2
_geom_bond_distance
_geom_bond_site_symmetry_2
Mn0 Si0 2.421374 1_554
Mn0 Si0 2.421374 1_555
Mn0 Si1 2.491506 1_555
Mn0 Si2 2.491547 1_545
Mn1 Si0 2.421389 1_664
Mn1 Si0 2.421389 1_665
Mn1 Si2 2.491471 1_555
Mn1 Si1 2.491539 1_555
Mn2 Si0 2.421417 1_554
Mn2 Si0 2.421417 1_555
Mn2 Si1 2.491451 1_455
Mn2 Si2 2.491477 1_555
Nb0 Si1 2.667012 1_455
Nb0 Si1 2.667012 1_456
Nb0 Si2 2.667047 1_556
Nb0 Si2 2.667047 1_555
Nb0 Si0 2.693361 1_565
Nb1 Si2 2.667006 1_555
Nb1 Si2 2.667006 1_556
Nb1 Si1 2.667042 1_555
Nb1 Si1 2.667042 1_556
Nb1 Si0 2.693390 1_555
Nb2 Si1 2.667026 1_555
Nb2 Si1 2.667026 1_556
Nb2 Si2 2.667060 1_546
Nb2 Si2 2.667060 1_545
Nb2 Si0 2.693369 1_655
