# generated using pymatgen
data_Mg16Si7HO32
_symmetry_space_group_name_H-M   'P 1'
_cell_length_a   5.80601800
_cell_length_b   8.44111137
_cell_length_c   11.67595604
_cell_angle_alpha   89.74027729
_cell_angle_beta   89.96552720
_cell_angle_gamma   89.94171396
_symmetry_Int_Tables_number   1
_chemical_formula_structural   Mg16Si7HO32
_chemical_formula_sum   'Mg16 Si7 H1 O32'
_cell_volume   572.22350764
_cell_formula_units_Z   1
loop_
 _symmetry_equiv_pos_site_id
 _symmetry_equiv_pos_as_xyz
  1  'x, y, z'
loop_
 _atom_site_type_symbol
 _atom_site_label
 _atom_site_symmetry_multiplicity
 _atom_site_fract_x
 _atom_site_fract_y
 _atom_site_fract_z
 _atom_site_occupancy
  Mg  Mg0  1  0.74992300  0.78272600  0.00275900  1
  Mg  Mg1  1  0.25008600  0.21844200  0.00162600  1
  Mg  Mg2  1  0.24875900  0.24552900  0.24879500  1
  Mg  Mg3  1  0.24956000  0.25012200  0.75004300  1
  Mg  Mg4  1  0.99686200  0.00112500  0.62110100  1
  Mg  Mg5  1  0.49989700  0.99224600  0.37343100  1
  Mg  Mg6  1  0.99961100  0.99439900  0.37380100  1
  Mg  Mg7  1  0.50323500  0.00072600  0.62081700  1
  Mg  Mg8  1  0.24673000  0.29751400  0.50400800  1
  Mg  Mg9  1  0.75191100  0.71364000  0.49831800  1
  Mg  Mg10  1  0.75052700  0.76103500  0.75177600  1
  Mg  Mg11  1  0.75128100  0.75365700  0.24792200  1
  Mg  Mg12  1  0.49400900  0.50028400  0.12477100  1
  Mg  Mg13  1  0.01471200  0.51350200  0.88425700  1
  Mg  Mg14  1  0.48954700  0.50983000  0.88294600  1
  Mg  Mg15  1  0.00850500  0.50051900  0.12459500  1
  Si  Si0  1  0.74777800  0.13104400  0.87300100  1
  Si  Si1  1  0.75000700  0.13744700  0.13314100  1
  Si  Si2  1  0.25031000  0.86562300  0.12653100  1
  Si  Si3  1  0.25051700  0.86943400  0.86861900  1
  Si  Si4  1  0.25113300  0.63352200  0.36992200  1
  Si  Si5  1  0.25052600  0.63752300  0.63203300  1
  Si  Si6  1  0.74786200  0.35844700  0.61197600  1
  H  H0  1  0.76632200  0.37704100  0.79706100  1
  O  O0  1  0.75007100  0.03618000  0.00205000  1
  O  O1  1  0.25026900  0.96808100  0.99644600  1
  O  O2  1  0.75101100  0.53709200  0.99635000  1
  O  O3  1  0.25125900  0.46482500  0.00174600  1
  O  O4  1  0.74957300  0.00665700  0.76343300  1
  O  O5  1  0.75021600  0.00608600  0.23892300  1
  O  O6  1  0.24987600  0.98909600  0.23467000  1
  O  O7  1  0.24965000  0.99709400  0.76013000  1
  O  O8  1  0.98715100  0.25217800  0.62777300  1
  O  O9  1  0.45916000  0.22613000  0.38246300  1
  O  O10  1  0.48793500  0.74292800  0.37114300  1
  O  O11  1  0.01265900  0.74581100  0.63325400  1
  O  O12  1  0.01468500  0.74370100  0.37096500  1
  O  O13  1  0.48852400  0.74522100  0.63341000  1
  O  O14  1  0.50982000  0.25171900  0.62769100  1
  O  O15  1  0.03646200  0.22854000  0.38080400  1
  O  O16  1  0.24989100  0.54217800  0.50301900  1
  O  O17  1  0.74804600  0.48464800  0.51373800  1
  O  O18  1  0.25051700  0.02088200  0.49962700  1
  O  O19  1  0.75049300  0.96096200  0.50055200  1
  O  O20  1  0.25140900  0.50448300  0.26246200  1
  O  O21  1  0.24954800  0.50730300  0.74145500  1
  O  O22  1  0.74904900  0.47192000  0.74680900  1
  O  O23  1  0.75153300  0.52286500  0.22683300  1
  O  O24  1  0.48685900  0.75909100  0.12223600  1
  O  O25  1  0.01328300  0.75957200  0.87274000  1
  O  O26  1  0.98008100  0.24722900  0.87158200  1
  O  O27  1  0.51046400  0.24275000  0.12743900  1
  O  O28  1  0.51338200  0.24458300  0.87285300  1
  O  O29  1  0.98937700  0.24267900  0.12643600  1
  O  O30  1  0.01440100  0.75884800  0.12189100  1
  O  O31  1  0.48744500  0.75897100  0.87267700  1
loop_
_geom_bond_atom_site_label_1
_geom_bond_atom_site_label_2
_geom_bond_distance
_geom_bond_site_symmetry_2
Mg0 O2 2.075116 1_554
Mg0 O24 2.077064 1_555
Mg0 O30 2.081539 1_655
Mg0 O0 2.139413 1_565
Mg0 O31 2.162326 1_554
Mg0 O25 2.163369 1_654
Mg1 O3 2.079771 1_555
Mg1 O29 2.110962 1_455
Mg1 O1 2.114464 1_544
Mg1 O27 2.119310 1_555
Mg1 O28 2.154341 1_554
Mg1 O26 2.195639 1_454
Mg2 O15 1.977787 1_555
Mg2 O9 1.988583 1_555
Mg2 O29 2.076676 1_455
Mg2 O27 2.077185 1_555
Mg2 O6 2.171601 1_545
Mg2 O20 2.192468 1_555
Mg3 O14 2.078852 1_555
Mg3 O8 2.088527 1_455
Mg3 O28 2.099164 1_555
Mg3 O26 2.111743 1_455
Mg3 O7 2.138549 1_545
Mg3 O21 2.172754 1_555
Mg4 O19 2.037132 1_545
Mg4 O18 2.050420 1_655
Mg4 O8 2.121641 1_555
Mg4 O11 2.161016 1_645
Mg4 O7 2.189208 1_645
Mg4 O4 2.196152 1_555
Mg5 O9 1.991381 1_565
Mg5 O18 2.079877 1_565
Mg5 O19 2.094742 1_555
Mg5 O10 2.106028 1_555
Mg5 O5 2.142039 1_565
Mg5 O6 2.176274 1_555
Mg6 O15 1.990228 1_665
Mg6 O18 2.082479 1_665
Mg6 O19 2.087193 1_555
Mg6 O12 2.118298 1_655
Mg6 O5 2.141856 1_565
Mg6 O6 2.179446 1_655
Mg7 O19 2.036230 1_545
Mg7 O18 2.045466 1_555
Mg7 O14 2.120927 1_555
Mg7 O13 2.162858 1_545
Mg7 O7 2.193465 1_545
Mg7 O4 2.196517 1_555
Mg8 O9 1.975454 1_555
Mg8 O15 1.977342 1_555
Mg8 O16 2.065316 1_555
Mg8 O8 2.121236 1_455
Mg8 O14 2.136485 1_555
Mg8 O18 2.335954 1_555
Mg9 O17 1.940652 1_555
Mg9 O19 2.087962 1_555
Mg9 O12 2.144241 1_655
Mg9 O10 2.147946 1_555
Mg9 O11 2.203513 1_655
Mg9 O13 2.213064 1_555
Mg10 O13 2.060701 1_555
Mg10 O11 2.060720 1_655
Mg10 O4 2.078402 1_565
Mg10 O31 2.079275 1_555
Mg10 O25 2.079589 1_655
Mg10 O22 2.441428 1_555
Mg11 O23 1.964747 1_555
Mg11 O12 2.100272 1_655
Mg11 O10 2.100570 1_555
Mg11 O30 2.120844 1_655
Mg11 O24 2.124756 1_555
Mg11 O5 2.132897 1_565
Mg12 O23 1.922703 1_555
Mg12 O3 2.036311 1_555
Mg12 O2 2.136683 1_554
Mg12 O20 2.137182 1_555
Mg12 O27 2.175957 1_555
Mg12 O24 2.185038 1_555
Mg13 O3 1.983149 1_556
Mg13 O2 2.023869 1_455
Mg13 O25 2.080853 1_555
Mg13 O21 2.154004 1_555
Mg13 O22 2.255443 1_455
Mg13 O26 2.262341 1_455
Mg14 O3 1.994102 1_556
Mg14 O2 2.028943 1_555
Mg14 O31 2.105923 1_555
Mg14 O21 2.162064 1_555
Mg14 O22 2.213553 1_555
Mg14 O28 2.246733 1_555
Mg15 O23 1.919871 1_455
Mg15 O3 2.033556 1_555
Mg15 O2 2.137778 1_454
Mg15 O20 2.141173 1_555
Mg15 O29 2.179409 1_455
Mg15 O30 2.180972 1_555
H0 O22 0.995683 1_555
H0 Mg13 2.111622 1_655
H0 Mg14 2.202018 1_555
O0 Si0 1.703177 1_554
O0 Si1 1.756511 1_555
O1 Si3 1.712367 1_555
O1 Si2 1.744428 1_556
O4 Si0 1.658707 1_555
O5 Si1 1.656074 1_555
O6 Si2 1.640865 1_555
O7 Si3 1.659341 1_555
O8 Si6 1.662875 1_555
O10 Si4 1.657131 1_555
O11 Si5 1.655470 1_555
O12 Si4 1.657478 1_555
O13 Si5 1.654947 1_555
O14 Si6 1.660168 1_555
O16 Si5 1.711103 1_555
O16 Si4 1.731681 1_555
O17 Si6 1.561858 1_555
O20 Si4 1.665257 1_555
O21 Si5 1.681614 1_555
O22 Si6 1.846519 1_555
O24 Si2 1.641714 1_555
O25 Si3 1.661809 1_555
O26 Si0 1.668462 1_555
O27 Si1 1.651027 1_555
O28 Si0 1.663709 1_555
O29 Si1 1.651792 1_555
O30 Si2 1.641455 1_555
O31 Si3 1.661637 1_555
