# generated using pymatgen
data_Ni15O16
_symmetry_space_group_name_H-M   'P 1'
_cell_length_a   7.27678538
_cell_length_b   7.27678538
_cell_length_c   7.27678538
_cell_angle_alpha   109.47122063
_cell_angle_beta   109.47122063
_cell_angle_gamma   109.47122063
_symmetry_Int_Tables_number   1
_chemical_formula_structural   Ni15O16
_chemical_formula_sum   'Ni15 O16'
_cell_volume   296.61752598
_cell_formula_units_Z   1
loop_
 _symmetry_equiv_pos_site_id
 _symmetry_equiv_pos_as_xyz
  1  'x, y, z'
loop_
 _atom_site_type_symbol
 _atom_site_label
 _atom_site_symmetry_multiplicity
 _atom_site_fract_x
 _atom_site_fract_y
 _atom_site_fract_z
 _atom_site_occupancy
  Ni  Ni0  1  0.24591800  0.75408200  0.00000000  1
  Ni  Ni1  1  0.50000000  0.50000000  0.00000000  1
  Ni  Ni2  1  0.49183500  0.24591800  0.24591800  1
  Ni  Ni3  1  0.75408200  0.00000000  0.24591800  1
  Ni  Ni4  1  0.00000000  0.75408200  0.24591800  1
  Ni  Ni5  1  0.00000000  0.50000000  0.50000000  1
  Ni  Ni6  1  0.24591800  0.49183500  0.24591800  1
  Ni  Ni7  1  0.24591800  0.24591800  0.49183500  1
  Ni  Ni8  1  0.50000000  0.00000000  0.50000000  1
  Ni  Ni9  1  0.50816500  0.75408200  0.75408200  1
  Ni  Ni10  1  0.75408200  0.75408200  0.50816500  1
  Ni  Ni11  1  0.75408200  0.50816500  0.75408200  1
  Ni  Ni12  1  0.00000000  0.24591800  0.75408200  1
  Ni  Ni13  1  0.24591800  0.00000000  0.75408200  1
  Ni  Ni14  1  0.75408200  0.24591800  0.00000000  1
  O  O0  1  0.73084100  0.73084100  0.00000000  1
  O  O1  1  0.00000000  0.50000000  0.00000000  1
  O  O2  1  0.00000000  0.26915900  0.26915900  1
  O  O3  1  0.26915900  0.26915900  0.00000000  1
  O  O4  1  0.26915900  0.00000000  0.26915900  1
  O  O5  1  0.50000000  0.75000000  0.25000000  1
  O  O6  1  0.50000000  0.50000000  0.50000000  1
  O  O7  1  0.75000000  0.50000000  0.25000000  1
  O  O8  1  0.75000000  0.25000000  0.50000000  1
  O  O9  1  0.00000000  0.00000000  0.50000000  1
  O  O10  1  0.00000000  0.73084100  0.73084100  1
  O  O11  1  0.25000000  0.75000000  0.50000000  1
  O  O12  1  0.25000000  0.50000000  0.75000000  1
  O  O13  1  0.50000000  0.25000000  0.75000000  1
  O  O14  1  0.50000000  0.00000000  0.00000000  1
  O  O15  1  0.73084100  0.00000000  0.73084100  1
loop_
_geom_bond_atom_site_label_1
_geom_bond_atom_site_label_2
_geom_bond_distance
_geom_bond_site_symmetry_2
Ni0 O4 2.075535 1_565
Ni0 O10 2.075535 1_554
Ni0 O14 2.101187 1_565
Ni0 O1 2.101187 1_555
Ni0 O12 2.135202 1_554
Ni0 O5 2.135202 1_555
Ni1 O0 1.939643 1_555
Ni1 O3 1.939643 1_555
Ni1 O12 2.100627 1_554
Ni1 O5 2.100627 1_555
Ni1 O13 2.100627 1_554
Ni1 O7 2.100627 1_555
Ni2 O3 2.075531 1_555
Ni2 O4 2.075531 1_555
Ni2 O6 2.101183 1_555
Ni2 O14 2.101191 1_555
Ni2 O8 2.135206 1_555
Ni2 O7 2.135206 1_555
Ni3 O0 2.075535 1_545
Ni3 O2 2.075535 1_655
Ni3 O9 2.101187 1_655
Ni3 O14 2.101187 1_555
Ni3 O8 2.135202 1_555
Ni3 O5 2.135202 1_545
Ni4 O0 2.075535 1_455
Ni4 O4 2.075535 1_565
Ni4 O9 2.101187 1_565
Ni4 O1 2.101187 1_555
Ni4 O7 2.135202 1_455
Ni4 O11 2.135202 1_555
Ni5 O10 1.939643 1_555
Ni5 O2 1.939643 1_555
Ni5 O12 2.100627 1_555
Ni5 O7 2.100627 1_455
Ni5 O11 2.100627 1_555
Ni5 O8 2.100627 1_455
Ni6 O3 2.075531 1_555
Ni6 O2 2.075531 1_555
Ni6 O6 2.101183 1_555
Ni6 O1 2.101191 1_555
Ni6 O5 2.135206 1_555
Ni6 O11 2.135206 1_555
Ni7 O4 2.075531 1_555
Ni7 O2 2.075531 1_555
Ni7 O6 2.101183 1_555
Ni7 O9 2.101191 1_555
Ni7 O13 2.135206 1_555
Ni7 O12 2.135206 1_555
Ni8 O15 1.939643 1_555
Ni8 O4 1.939643 1_555
Ni8 O8 2.100627 1_555
Ni8 O5 2.100627 1_545
Ni8 O13 2.100627 1_555
Ni8 O11 2.100627 1_545
Ni9 O15 2.075531 1_565
Ni9 O0 2.075531 1_556
Ni9 O6 2.101183 1_555
Ni9 O14 2.101191 1_566
Ni9 O11 2.135206 1_555
Ni9 O12 2.135206 1_555
Ni10 O10 2.075531 1_655
Ni10 O15 2.075531 1_565
Ni10 O6 2.101183 1_555
Ni10 O9 2.101191 1_665
Ni10 O7 2.135206 1_555
Ni10 O5 2.135206 1_555
Ni11 O10 2.075531 1_655
Ni11 O0 2.075531 1_556
Ni11 O6 2.101183 1_555
Ni11 O1 2.101191 1_656
Ni11 O8 2.135206 1_555
Ni11 O13 2.135206 1_555
Ni12 O15 2.075535 1_455
Ni12 O3 2.075535 1_556
Ni12 O9 2.101187 1_555
Ni12 O1 2.101187 1_556
Ni12 O8 2.135202 1_455
Ni12 O12 2.135202 1_555
Ni13 O10 2.075535 1_545
Ni13 O3 2.075535 1_556
Ni13 O9 2.101187 1_555
Ni13 O14 2.101187 1_556
Ni13 O11 2.135202 1_545
Ni13 O13 2.135202 1_555
Ni14 O2 2.075535 1_655
Ni14 O15 2.075535 1_554
Ni14 O14 2.101187 1_555
Ni14 O1 2.101187 1_655
Ni14 O7 2.135202 1_555
Ni14 O13 2.135202 1_554
