# generated using pymatgen
data_LiMgCr3Se2(SO6)4
_symmetry_space_group_name_H-M   'P 1'
_cell_length_a   8.42248800
_cell_length_b   8.43104972
_cell_length_c   8.95166129
_cell_angle_alpha   62.57120824
_cell_angle_beta   62.50412875
_cell_angle_gamma   60.51101284
_symmetry_Int_Tables_number   1
_chemical_formula_structural   LiMgCr3Se2(SO6)4
_chemical_formula_sum   'Li1 Mg1 Cr3 Se2 S4 O24'
_cell_volume   467.85517272
_cell_formula_units_Z   1
loop_
 _symmetry_equiv_pos_site_id
 _symmetry_equiv_pos_as_xyz
  1  'x, y, z'
loop_
 _atom_site_type_symbol
 _atom_site_label
 _atom_site_symmetry_multiplicity
 _atom_site_fract_x
 _atom_site_fract_y
 _atom_site_fract_z
 _atom_site_occupancy
  Li  Li0  1  0.57665900  0.23791000  0.37175200  1
  Mg  Mg0  1  0.85708000  0.84645100  0.43754600  1
  Cr  Cr0  1  0.64336400  0.64931200  0.06774100  1
  Cr  Cr1  1  0.35471100  0.34923500  0.93548900  1
  Cr  Cr2  1  0.15446200  0.15239700  0.54525900  1
  Se  Se0  1  0.74663400  0.46194300  0.74560900  1
  Se  Se1  1  0.04577000  0.74636600  0.74748500  1
  S  S0  1  0.52897200  0.96393300  0.25245600  1
  S  S1  1  0.96081300  0.25501900  0.25215400  1
  S  S2  1  0.25683700  0.53495000  0.24550100  1
  S  S3  1  0.45935900  0.04164400  0.74920700  1
  O  O0  1  0.88572700  0.69708700  0.94568600  1
  O  O1  1  0.49501800  0.88897500  0.91304800  1
  O  O2  1  0.65805700  0.99792400  0.29578300  1
  O  O3  1  0.34197300  0.97815700  0.39567400  1
  O  O4  1  0.00931000  0.97466100  0.70550900  1
  O  O5  1  0.70207500  0.67033700  0.59321600  1
  O  O6  1  0.69496200  0.47741500  0.94450300  1
  O  O7  1  0.61445000  0.76971300  0.23639300  1
  O  O8  1  0.97658700  0.31749100  0.70340800  1
  O  O9  1  0.26449600  0.60707600  0.76717400  1
  O  O10  1  0.61412300  0.35116100  0.76917800  1
  O  O11  1  0.02636600  0.70516200  0.59521800  1
  O  O12  1  0.98078400  0.28653900  0.39259800  1
  O  O13  1  0.38887800  0.61440300  0.23041000  1
  O  O14  1  0.76060900  0.38572200  0.24005600  1
  O  O15  1  0.05849500  0.65987300  0.29345700  1
  O  O16  1  0.36787200  0.23171300  0.77797200  1
  O  O17  1  0.30777300  0.50394900  0.07761800  1
  O  O18  1  0.29661300  0.34201400  0.38817200  1
  O  O19  1  0.97558000  0.05892100  0.29705100  1
  O  O20  1  0.63937700  0.03829800  0.59882400  1
  O  O21  1  0.32450800  0.01698000  0.70551600  1
  O  O22  1  0.50150000  0.10618800  0.08251400  1
  O  O23  1  0.10130800  0.30768400  0.08042100  1
loop_
_geom_bond_atom_site_label_1
_geom_bond_atom_site_label_2
_geom_bond_distance
_geom_bond_site_symmetry_2
Li0 O18 2.028774 1_555
Li0 O14 2.050379 1_555
Li0 O20 2.051267 1_555
Li0 O2 2.120817 1_545
Mg0 O11 2.020184 1_655
Mg0 O5 2.042871 1_555
Mg0 O15 2.058549 1_655
Mg0 O19 2.076615 1_565
Mg0 O2 2.101133 1_555
Mg0 O20 2.202217 1_565
Cr0 O0 1.966607 1_554
Cr0 O6 1.979010 1_554
Cr0 O1 2.023798 1_554
Cr0 O13 2.036044 1_555
Cr0 O7 2.048909 1_555
Cr0 O14 2.093092 1_555
Cr1 O22 1.995821 1_556
Cr1 O9 1.996633 1_555
Cr1 O10 1.999893 1_555
Cr1 O16 2.004231 1_555
Cr1 O17 2.008309 1_556
Cr1 O23 2.030190 1_556
Cr2 O8 1.997526 1_455
Cr2 O4 2.000439 1_545
Cr2 O3 2.005171 1_545
Cr2 O12 2.019794 1_455
Cr2 O21 2.047212 1_555
Cr2 O18 2.055550 1_555
O0 Se1 1.673745 1_655
O1 S3 1.478160 1_565
O2 S0 1.487652 1_555
O3 S0 1.493264 1_555
O4 Se1 1.672883 1_555
O5 Se0 1.644438 1_555
O6 Se0 1.678975 1_555
O7 S0 1.476832 1_555
O8 Se0 1.674244 1_555
O9 Se1 1.668277 1_555
O10 Se0 1.670271 1_555
O11 Se1 1.644112 1_555
O12 S1 1.492166 1_555
O13 S2 1.488327 1_555
O14 S1 1.516139 1_555
O15 S2 1.451353 1_555
O16 S3 1.486363 1_555
O17 S2 1.472084 1_555
O18 S2 1.527722 1_555
O19 S1 1.463549 1_555
O20 S3 1.489988 1_555
O21 S3 1.484528 1_555
O22 S0 1.475505 1_545
O23 S1 1.472881 1_455
