# generated using pymatgen
data_GdTa3O9
_symmetry_space_group_name_H-M   'P 1'
_cell_length_a   6.52489500
_cell_length_b   7.66748000
_cell_length_c   12.66065700
_cell_angle_alpha   90.00000000
_cell_angle_beta   90.00000000
_cell_angle_gamma   90.00000000
_symmetry_Int_Tables_number   1
_chemical_formula_structural   GdTa3O9
_chemical_formula_sum   'Gd4 Ta12 O36'
_cell_volume   633.40636362
_cell_formula_units_Z   4
loop_
 _symmetry_equiv_pos_site_id
 _symmetry_equiv_pos_as_xyz
  1  'x, y, z'
loop_
 _atom_site_type_symbol
 _atom_site_label
 _atom_site_symmetry_multiplicity
 _atom_site_fract_x
 _atom_site_fract_y
 _atom_site_fract_z
 _atom_site_occupancy
  Gd  Gd0  1  0.05452400  0.25000000  0.46639200  1
  Gd  Gd1  1  0.44547600  0.75000000  0.96639200  1
  Gd  Gd2  1  0.55452400  0.25000000  0.03360800  1
  Gd  Gd3  1  0.94547600  0.75000000  0.53360800  1
  Ta  Ta0  1  0.00000000  0.00000000  0.00000000  1
  Ta  Ta1  1  0.00000000  0.50000000  0.00000000  1
  Ta  Ta2  1  0.20995000  0.00253100  0.71383500  1
  Ta  Ta3  1  0.20995000  0.49746900  0.71383500  1
  Ta  Ta4  1  0.29005000  0.50253100  0.21383500  1
  Ta  Ta5  1  0.29005000  0.99746900  0.21383500  1
  Ta  Ta6  1  0.50000000  0.00000000  0.50000000  1
  Ta  Ta7  1  0.50000000  0.50000000  0.50000000  1
  Ta  Ta8  1  0.70995000  0.00253100  0.78616500  1
  Ta  Ta9  1  0.70995000  0.49746900  0.78616500  1
  Ta  Ta10  1  0.79005000  0.50253100  0.28616500  1
  Ta  Ta11  1  0.79005000  0.99746900  0.28616500  1
  O  O0  1  0.02038700  0.03901900  0.84355900  1
  O  O1  1  0.02038700  0.46098100  0.84355900  1
  O  O2  1  0.07365400  0.75000000  0.97686400  1
  O  O3  1  0.09845200  0.03059200  0.33256400  1
  O  O4  1  0.09845200  0.46940800  0.33256400  1
  O  O5  1  0.17523200  0.25000000  0.67407000  1
  O  O6  1  0.20318700  0.75000000  0.69793600  1
  O  O7  1  0.20878700  0.96721900  0.53845500  1
  O  O8  1  0.20878700  0.53278100  0.53845500  1
  O  O9  1  0.29121300  0.03278100  0.03845500  1
  O  O10  1  0.29121300  0.46721900  0.03845500  1
  O  O11  1  0.29681300  0.25000000  0.19793600  1
  O  O12  1  0.32476800  0.75000000  0.17407000  1
  O  O13  1  0.40154800  0.53059200  0.83256400  1
  O  O14  1  0.40154800  0.96940800  0.83256400  1
  O  O15  1  0.42634600  0.25000000  0.47686400  1
  O  O16  1  0.47961300  0.53901900  0.34355900  1
  O  O17  1  0.47961300  0.96098100  0.34355900  1
  O  O18  1  0.52038700  0.03901900  0.65644100  1
  O  O19  1  0.52038700  0.46098100  0.65644100  1
  O  O20  1  0.57365400  0.75000000  0.52313600  1
  O  O21  1  0.59845200  0.03059200  0.16743600  1
  O  O22  1  0.59845200  0.46940800  0.16743600  1
  O  O23  1  0.67523200  0.25000000  0.82593000  1
  O  O24  1  0.70318700  0.75000000  0.80206400  1
  O  O25  1  0.70878700  0.53278100  0.96154500  1
  O  O26  1  0.70878700  0.96721900  0.96154500  1
  O  O27  1  0.79121300  0.03278100  0.46154500  1
  O  O28  1  0.79121300  0.46721900  0.46154500  1
  O  O29  1  0.79681300  0.25000000  0.30206400  1
  O  O30  1  0.82476800  0.75000000  0.32593000  1
  O  O31  1  0.90154800  0.53059200  0.66743600  1
  O  O32  1  0.90154800  0.96940800  0.66743600  1
  O  O33  1  0.92634600  0.25000000  0.02313600  1
  O  O34  1  0.97961300  0.53901900  0.15644100  1
  O  O35  1  0.97961300  0.96098100  0.15644100  1
loop_
_geom_bond_atom_site_label_1
_geom_bond_atom_site_label_2
_geom_bond_distance
_geom_bond_site_symmetry_2
Gd0 O27 2.393641 1_455
Gd0 O28 2.393641 1_455
Gd0 O3 2.404814 1_555
Gd0 O4 2.404814 1_555
Gd0 O15 2.429720 1_555
Gd0 O8 2.558656 1_555
Gd0 O7 2.558656 1_545
Gd0 O29 2.675079 1_455
Gd0 O5 2.744768 1_555
Gd1 O26 2.393641 1_555
Gd1 O25 2.393641 1_555
Gd1 O14 2.404814 1_555
Gd1 O13 2.404814 1_555
Gd1 O2 2.429720 1_555
Gd1 O10 2.558656 1_556
Gd1 O9 2.558656 1_566
Gd1 O24 2.675079 1_555
Gd1 O12 2.744768 1_556
Gd2 O10 2.393641 1_555
Gd2 O9 2.393641 1_555
Gd2 O21 2.404814 1_555
Gd2 O22 2.404814 1_555
Gd2 O33 2.429720 1_555
Gd2 O26 2.558656 1_544
Gd2 O25 2.558656 1_554
Gd2 O11 2.675079 1_555
Gd2 O23 2.744768 1_554
Gd3 O7 2.393641 1_655
Gd3 O8 2.393641 1_655
Gd3 O31 2.404814 1_555
Gd3 O32 2.404814 1_555
Gd3 O20 2.429720 1_555
Gd3 O27 2.558656 1_565
Gd3 O28 2.558656 1_555
Gd3 O6 2.675079 1_655
Gd3 O30 2.744768 1_555
O0 Ta0 2.007526 1_556
O0 Ta2 2.074991 1_555
O0 Ta8 2.170073 1_455
O1 Ta1 2.007526 1_556
O1 Ta3 2.074991 1_555
O1 Ta9 2.170073 1_455
O2 Ta1 1.997787 1_556
O2 Ta0 1.997787 1_566
O3 Ta5 1.971539 1_545
O3 Ta11 2.111611 1_445
O4 Ta4 1.971539 1_555
O4 Ta10 2.111611 1_455
O5 Ta2 1.976145 1_555
O5 Ta3 1.976145 1_555
O6 Ta3 1.947211 1_555
O6 Ta2 1.947211 1_565
O7 Ta6 1.977555 1_565
O7 Ta2 2.236886 1_565
O8 Ta7 1.977555 1_555
O8 Ta3 2.236886 1_555
O9 Ta0 1.977555 1_555
O9 Ta5 2.236886 1_545
O10 Ta1 1.977555 1_555
O10 Ta4 2.236886 1_555
O11 Ta5 1.947211 1_545
O11 Ta4 1.947211 1_555
O12 Ta4 1.976145 1_555
O12 Ta5 1.976145 1_555
O13 Ta3 1.971539 1_555
O13 Ta9 2.111611 1_555
O14 Ta2 1.971539 1_565
O14 Ta8 2.111611 1_565
O15 Ta7 1.997787 1_555
O15 Ta6 1.997787 1_555
O16 Ta7 2.007526 1_555
O16 Ta4 2.074991 1_555
O16 Ta10 2.170073 1_555
O17 Ta6 2.007526 1_565
O17 Ta5 2.074991 1_555
O17 Ta11 2.170073 1_555
O18 Ta6 2.007526 1_555
O18 Ta8 2.074991 1_555
O18 Ta2 2.170073 1_555
O19 Ta7 2.007526 1_555
O19 Ta9 2.074991 1_555
O19 Ta3 2.170073 1_555
O20 Ta6 1.997787 1_565
O20 Ta7 1.997787 1_555
O21 Ta11 1.971539 1_545
O21 Ta5 2.111611 1_545
O22 Ta10 1.971539 1_555
O22 Ta4 2.111611 1_555
O23 Ta9 1.976145 1_555
O23 Ta8 1.976145 1_555
O24 Ta9 1.947211 1_555
O24 Ta8 1.947211 1_565
O25 Ta1 1.977555 1_656
O25 Ta9 2.236886 1_555
O26 Ta0 1.977555 1_666
O26 Ta8 2.236886 1_565
O27 Ta6 1.977555 1_555
O27 Ta11 2.236886 1_545
O28 Ta7 1.977555 1_555
O28 Ta10 2.236886 1_555
O29 Ta11 1.947211 1_545
O29 Ta10 1.947211 1_555
O30 Ta10 1.976145 1_555
O30 Ta11 1.976145 1_555
O31 Ta9 1.971539 1_555
O31 Ta3 2.111611 1_655
O32 Ta8 1.971539 1_565
O32 Ta2 2.111611 1_665
O33 Ta1 1.997787 1_655
O33 Ta0 1.997787 1_655
O34 Ta1 2.007526 1_655
O34 Ta10 2.074991 1_555
O34 Ta4 2.170073 1_655
O35 Ta0 2.007526 1_665
O35 Ta11 2.074991 1_555
O35 Ta5 2.170073 1_655
