# generated using pymatgen
data_Ce3Sn13Rh4
_symmetry_space_group_name_H-M   'P 1'
_cell_length_a   9.78371100
_cell_length_b   9.78371100
_cell_length_c   9.78371100
_cell_angle_alpha   90.00000000
_cell_angle_beta   90.00000000
_cell_angle_gamma   90.00000000
_symmetry_Int_Tables_number   1
_chemical_formula_structural   Ce3Sn13Rh4
_chemical_formula_sum   'Ce6 Sn26 Rh8'
_cell_volume   936.50660974
_cell_formula_units_Z   2
loop_
 _symmetry_equiv_pos_site_id
 _symmetry_equiv_pos_as_xyz
  1  'x, y, z'
loop_
 _atom_site_type_symbol
 _atom_site_label
 _atom_site_symmetry_multiplicity
 _atom_site_fract_x
 _atom_site_fract_y
 _atom_site_fract_z
 _atom_site_occupancy
  Ce  Ce0  1  0.50000000  0.00000000  0.75000000  1
  Ce  Ce1  1  0.00000000  0.25000000  0.50000000  1
  Ce  Ce2  1  0.75000000  0.50000000  0.00000000  1
  Ce  Ce3  1  0.50000000  0.00000000  0.25000000  1
  Ce  Ce4  1  0.00000000  0.75000000  0.50000000  1
  Ce  Ce5  1  0.25000000  0.50000000  0.00000000  1
  Sn  Sn0  1  0.50000000  0.50000000  0.50000000  1
  Sn  Sn1  1  0.00000000  0.00000000  0.00000000  1
  Sn  Sn2  1  0.65164200  0.19171700  0.50000000  1
  Sn  Sn3  1  0.80828300  0.50000000  0.65164200  1
  Sn  Sn4  1  0.50000000  0.34835800  0.80828300  1
  Sn  Sn5  1  0.34835800  0.80828300  0.50000000  1
  Sn  Sn6  1  0.19171700  0.50000000  0.34835800  1
  Sn  Sn7  1  0.50000000  0.65164200  0.19171700  1
  Sn  Sn8  1  0.65164200  0.80828300  0.50000000  1
  Sn  Sn9  1  0.80828300  0.50000000  0.34835800  1
  Sn  Sn10  1  0.34835800  0.19171700  0.50000000  1
  Sn  Sn11  1  0.19171700  0.50000000  0.65164200  1
  Sn  Sn12  1  0.50000000  0.65164200  0.80828300  1
  Sn  Sn13  1  0.50000000  0.34835800  0.19171700  1
  Sn  Sn14  1  0.15164200  0.00000000  0.69171700  1
  Sn  Sn15  1  0.30828300  0.15164200  0.00000000  1
  Sn  Sn16  1  0.00000000  0.30828300  0.84835800  1
  Sn  Sn17  1  0.84835800  0.00000000  0.30828300  1
  Sn  Sn18  1  0.69171700  0.84835800  0.00000000  1
  Sn  Sn19  1  0.00000000  0.69171700  0.15164200  1
  Sn  Sn20  1  0.15164200  0.00000000  0.30828300  1
  Sn  Sn21  1  0.30828300  0.84835800  0.00000000  1
  Sn  Sn22  1  0.84835800  0.00000000  0.69171700  1
  Sn  Sn23  1  0.69171700  0.15164200  0.00000000  1
  Sn  Sn24  1  0.00000000  0.30828300  0.15164200  1
  Sn  Sn25  1  0.00000000  0.69171700  0.84835800  1
  Rh  Rh0  1  0.75000000  0.25000000  0.75000000  1
  Rh  Rh1  1  0.25000000  0.75000000  0.25000000  1
  Rh  Rh2  1  0.75000000  0.75000000  0.25000000  1
  Rh  Rh3  1  0.25000000  0.25000000  0.75000000  1
  Rh  Rh4  1  0.25000000  0.75000000  0.75000000  1
  Rh  Rh5  1  0.75000000  0.25000000  0.25000000  1
  Rh  Rh6  1  0.25000000  0.25000000  0.25000000  1
  Rh  Rh7  1  0.75000000  0.75000000  0.75000000  1
loop_
_geom_bond_atom_site_label_1
_geom_bond_atom_site_label_2
_geom_bond_distance
_geom_bond_site_symmetry_2
Ce0 Sn23 3.420813 1_556
Ce0 Sn18 3.420813 1_546
Ce0 Sn8 3.420813 1_545
Ce0 Sn2 3.420813 1_555
Ce0 Sn10 3.420813 1_555
Ce0 Sn15 3.420813 1_556
Ce0 Sn5 3.420813 1_545
Ce0 Sn21 3.420813 1_546
Ce0 Sn4 3.455606 1_555
Ce0 Sn22 3.455606 1_555
Ce0 Sn14 3.455606 1_555
Ce0 Sn12 3.455606 1_545
Ce0 Rh3 3.459064 1_555
Ce0 Rh0 3.459064 1_555
Ce0 Rh4 3.459064 1_545
Ce0 Rh7 3.459064 1_545
Ce1 Sn22 3.420813 1_455
Ce1 Sn14 3.420813 1_555
Ce1 Sn11 3.420813 1_555
Ce1 Sn3 3.420813 1_455
Ce1 Sn6 3.420813 1_555
Ce1 Sn20 3.420813 1_555
Ce1 Sn9 3.420813 1_455
Ce1 Sn17 3.420813 1_455
Ce1 Sn16 3.455606 1_555
Ce1 Sn10 3.455606 1_555
Ce1 Sn24 3.455606 1_555
Ce1 Sn2 3.455606 1_455
Ce1 Rh5 3.459064 1_455
Ce1 Rh3 3.459064 1_555
Ce1 Rh0 3.459064 1_455
Ce1 Rh6 3.459064 1_555
Ce2 Sn19 3.420813 1_655
Ce2 Sn25 3.420813 1_654
Ce2 Sn7 3.420813 1_555
Ce2 Sn12 3.420813 1_554
Ce2 Sn13 3.420813 1_555
Ce2 Sn4 3.420813 1_554
Ce2 Sn24 3.420813 1_655
Ce2 Sn16 3.420813 1_654
Ce2 Sn9 3.455606 1_555
Ce2 Sn18 3.455606 1_555
Ce2 Sn23 3.455606 1_555
Ce2 Sn3 3.455606 1_554
Ce2 Rh7 3.459064 1_554
Ce2 Rh5 3.459064 1_555
Ce2 Rh2 3.459064 1_555
Ce2 Rh0 3.459064 1_554
Ce3 Sn23 3.420813 1_555
Ce3 Sn18 3.420813 1_545
Ce3 Sn8 3.420813 1_545
Ce3 Sn2 3.420813 1_555
Ce3 Sn15 3.420813 1_555
Ce3 Sn10 3.420813 1_555
Ce3 Sn5 3.420813 1_545
Ce3 Sn21 3.420813 1_545
Ce3 Sn17 3.455606 1_555
Ce3 Sn20 3.455606 1_555
Ce3 Sn13 3.455606 1_555
Ce3 Sn7 3.455606 1_545
Ce3 Rh5 3.459064 1_555
Ce3 Rh1 3.459064 1_545
Ce3 Rh2 3.459064 1_545
Ce3 Rh6 3.459064 1_555
Ce4 Sn22 3.420813 1_465
Ce4 Sn14 3.420813 1_565
Ce4 Sn11 3.420813 1_555
Ce4 Sn3 3.420813 1_455
Ce4 Sn6 3.420813 1_555
Ce4 Sn20 3.420813 1_565
Ce4 Sn17 3.420813 1_465
Ce4 Sn9 3.420813 1_455
Ce4 Sn5 3.455606 1_555
Ce4 Sn25 3.455606 1_555
Ce4 Sn19 3.455606 1_555
Ce4 Sn8 3.455606 1_455
Ce4 Rh1 3.459064 1_555
Ce4 Rh2 3.459064 1_455
Ce4 Rh7 3.459064 1_455
Ce4 Rh4 3.459064 1_555
Ce5 Sn19 3.420813 1_555
Ce5 Sn25 3.420813 1_554
Ce5 Sn7 3.420813 1_555
Ce5 Sn12 3.420813 1_554
Ce5 Sn13 3.420813 1_555
Ce5 Sn24 3.420813 1_555
Ce5 Sn4 3.420813 1_554
Ce5 Sn16 3.420813 1_554
Ce5 Sn21 3.455606 1_555
Ce5 Sn6 3.455606 1_555
Ce5 Sn15 3.455606 1_555
Ce5 Sn11 3.455606 1_554
Ce5 Rh1 3.459064 1_555
Ce5 Rh6 3.459064 1_555
Ce5 Rh3 3.459064 1_554
Ce5 Rh4 3.459064 1_554
Sn0 Sn3 3.361295 1_555
Sn0 Sn2 3.361295 1_555
Sn0 Sn7 3.361295 1_555
Sn0 Sn11 3.361295 1_555
Sn0 Sn8 3.361295 1_555
Sn0 Sn12 3.361295 1_555
Sn0 Sn13 3.361295 1_555
Sn0 Sn4 3.361295 1_555
Sn0 Sn9 3.361295 1_555
Sn0 Sn5 3.361295 1_555
Sn0 Sn6 3.361295 1_555
Sn0 Sn10 3.361295 1_555
Sn1 Sn20 3.361295 1_555
Sn1 Sn15 3.361295 1_555
Sn1 Sn24 3.361295 1_555
Sn1 Sn16 3.361295 1_554
Sn1 Sn21 3.361295 1_545
Sn1 Sn17 3.361295 1_455
Sn1 Sn14 3.361295 1_554
Sn1 Sn22 3.361295 1_454
Sn1 Sn19 3.361295 1_545
Sn1 Sn23 3.361295 1_455
Sn1 Sn18 3.361295 1_445
Sn1 Sn25 3.361295 1_544
Rh0 Sn16 2.689563 1_655
Rh0 Sn4 2.689563 1_555
Rh0 Sn23 2.689563 1_556
Rh0 Sn22 2.689563 1_555
Rh0 Sn3 2.689563 1_555
Rh0 Sn2 2.689563 1_555
Rh1 Sn21 2.689563 1_555
Rh1 Sn5 2.689563 1_555
Rh1 Sn6 2.689563 1_555
Rh1 Sn20 2.689563 1_565
Rh1 Sn19 2.689563 1_555
Rh1 Sn7 2.689563 1_555
Rh2 Sn9 2.689563 1_555
Rh2 Sn17 2.689563 1_565
Rh2 Sn18 2.689563 1_555
Rh2 Sn19 2.689563 1_655
Rh2 Sn7 2.689563 1_555
Rh2 Sn8 2.689563 1_555
Rh3 Sn10 2.689563 1_555
Rh3 Sn16 2.689563 1_555
Rh3 Sn15 2.689563 1_556
Rh3 Sn4 2.689563 1_555
Rh3 Sn14 2.689563 1_555
Rh3 Sn11 2.689563 1_555
Rh4 Sn5 2.689563 1_555
Rh4 Sn21 2.689563 1_556
Rh4 Sn14 2.689563 1_565
Rh4 Sn25 2.689563 1_555
Rh4 Sn11 2.689563 1_555
Rh4 Sn12 2.689563 1_555
Rh5 Sn9 2.689563 1_555
Rh5 Sn13 2.689563 1_555
Rh5 Sn17 2.689563 1_555
Rh5 Sn24 2.689563 1_655
Rh5 Sn23 2.689563 1_555
Rh5 Sn2 2.689563 1_555
Rh6 Sn15 2.689563 1_555
Rh6 Sn24 2.689563 1_555
Rh6 Sn6 2.689563 1_555
Rh6 Sn10 2.689563 1_555
Rh6 Sn13 2.689563 1_555
Rh6 Sn20 2.689563 1_555
Rh7 Sn18 2.689563 1_556
Rh7 Sn25 2.689563 1_655
Rh7 Sn22 2.689563 1_565
Rh7 Sn3 2.689563 1_555
Rh7 Sn8 2.689563 1_555
Rh7 Sn12 2.689563 1_555
