# generated using pymatgen
data_Li2VF6
_symmetry_space_group_name_H-M   'P 1'
_cell_length_a   8.58034300
_cell_length_b   8.69196214
_cell_length_c   10.25787897
_cell_angle_alpha   85.85522058
_cell_angle_beta   84.81389262
_cell_angle_gamma   61.67895871
_symmetry_Int_Tables_number   1
_chemical_formula_structural   Li2VF6
_chemical_formula_sum   'Li12 V6 F36'
_cell_volume   670.32678839
_cell_formula_units_Z   6
loop_
 _symmetry_equiv_pos_site_id
 _symmetry_equiv_pos_as_xyz
  1  'x, y, z'
loop_
 _atom_site_type_symbol
 _atom_site_label
 _atom_site_symmetry_multiplicity
 _atom_site_fract_x
 _atom_site_fract_y
 _atom_site_fract_z
 _atom_site_occupancy
  Li  Li0  1  0.30480600  0.98492700  0.72530300  1
  Li  Li1  1  0.94541100  0.65491500  0.43401800  1
  Li  Li2  1  0.87412300  0.45726000  0.95819500  1
  Li  Li3  1  0.20188200  0.80309300  0.24738900  1
  Li  Li4  1  0.99775600  0.72799500  0.77342800  1
  Li  Li5  1  0.66826800  0.37982200  0.46914200  1
  Li  Li6  1  0.62360600  0.33689100  0.02498400  1
  Li  Li7  1  0.12242200  0.56263800  0.04541000  1
  Li  Li8  1  0.55097700  0.09823000  0.54867800  1
  Li  Li9  1  0.05329500  0.34318500  0.56988600  1
  Li  Li10  1  0.70716700  0.00380800  0.26965900  1
  Li  Li11  1  0.35651900  0.04532600  0.06135500  1
  V  V0  1  0.00231400  0.00205500  0.49894900  1
  V  V1  1  0.66225000  0.66141700  0.71153900  1
  V  V2  1  0.98929200  0.00730200  0.99551600  1
  V  V3  1  0.66534900  0.66482700  0.20671600  1
  V  V4  1  0.33647800  0.33302300  0.79385300  1
  V  V5  1  0.33842100  0.33551800  0.29401400  1
  F  F0  1  0.92507500  0.92177100  0.64970500  1
  F  F1  1  0.92785600  0.93248200  0.16187100  1
  F  F2  1  0.57263500  0.88927000  0.62824600  1
  F  F3  1  0.58223800  0.88481600  0.11971800  1
  F  F4  1  0.77425900  0.72692200  0.82745800  1
  F  F5  1  0.75100300  0.76450700  0.32946500  1
  F  F6  1  0.21248000  0.94033800  0.57510200  1
  F  F7  1  0.89260200  0.58208400  0.60550400  1
  F  F8  1  0.44631200  0.75326600  0.80676400  1
  F  F9  1  0.21386700  0.92967200  0.07233300  1
  F  F10  1  0.88964200  0.58391100  0.10948600  1
  F  F11  1  0.44189300  0.74622100  0.28926200  1
  F  F12  1  0.59499000  0.57489900  0.58388300  1
  F  F13  1  0.06013900  0.77523500  0.93729600  1
  F  F14  1  0.75364400  0.44759900  0.81008100  1
  F  F15  1  0.61025000  0.55979000  0.07544400  1
  F  F16  1  0.07872800  0.77757200  0.42404100  1
  F  F17  1  0.74992300  0.46220300  0.31074300  1
  F  F18  1  0.23458200  0.54232100  0.70372300  1
  F  F19  1  0.90821800  0.23859500  0.54940700  1
  F  F20  1  0.41417400  0.41174000  0.92673600  1
  F  F21  1  0.24201800  0.55955400  0.20021900  1
  F  F22  1  0.90815500  0.23881300  0.04952900  1
  F  F23  1  0.43439800  0.40885000  0.41260700  1
  F  F24  1  0.54689100  0.24843000  0.68832500  1
  F  F25  1  0.10870500  0.42906900  0.89744800  1
  F  F26  1  0.76166500  0.08654600  0.94956000  1
  F  F27  1  0.56025600  0.24523000  0.19208100  1
  F  F28  1  0.12034700  0.41565100  0.39898800  1
  F  F29  1  0.76178600  0.08235600  0.43782900  1
  F  F30  1  0.25834500  0.23082400  0.66490200  1
  F  F31  1  0.25471700  0.25913300  0.16720600  1
  F  F32  1  0.39251600  0.12328600  0.88526200  1
  F  F33  1  0.43452000  0.11659500  0.38443400  1
  F  F34  1  0.08876500  0.05466500  0.84336700  1
  F  F35  1  0.07617000  0.05651500  0.34053800  1
loop_
_geom_bond_atom_site_label_1
_geom_bond_atom_site_label_2
_geom_bond_distance
_geom_bond_site_symmetry_2
F0 V0 1.848021 1_665
F0 Li4 1.916750 1_555
F1 V2 1.901319 1_564
F1 Li10 1.949169 1_565
F1 Li3 2.298688 1_655
F2 Li8 1.868807 1_565
F2 V1 1.916468 1_555
F2 Li0 2.203798 1_555
F3 V3 1.880370 1_555
F3 Li11 1.892341 1_565
F3 Li10 2.482819 1_565
F4 V1 1.866930 1_555
F4 Li4 1.951625 1_555
F4 Li2 2.423695 1_555
F5 Li1 1.873028 1_555
F5 V3 1.950751 1_555
F5 Li10 1.989765 1_565
F6 V0 1.850974 1_565
F6 Li0 1.936478 1_555
F7 Li9 1.910100 1_655
F7 Li1 1.915080 1_555
F7 V1 1.997930 1_555
F8 V1 1.845672 1_555
F8 Li0 1.961499 1_555
F9 Li11 1.909870 1_565
F9 V2 1.937328 1_464
F9 Li3 2.057665 1_555
F10 V3 1.913969 1_555
F10 Li7 1.971134 1_655
F10 Li2 2.015308 1_554
F11 V3 1.843829 1_555
F11 Li3 1.957855 1_555
F12 V1 1.817711 1_555
F12 Li5 1.949070 1_555
F13 V2 1.933915 1_465
F13 Li4 1.936913 1_455
F13 Li7 1.950414 1_556
F14 V1 1.891999 1_555
F14 Li2 1.941345 1_555
F15 V3 1.890141 1_555
F15 Li6 1.989539 1_555
F15 Li2 2.261673 1_554
F16 Li1 1.890986 1_455
F16 V0 1.933726 1_565
F16 Li3 2.065813 1_555
F17 V3 1.850079 1_555
F17 Li5 1.935389 1_555
F18 V4 1.822792 1_555
F18 Li4 2.009371 1_455
F19 Li9 1.889112 1_655
F19 V0 1.910537 1_655
F19 Li5 2.045973 1_555
F20 V4 1.871494 1_555
F20 Li6 1.947181 1_556
F20 Li7 2.456306 1_556
F21 V5 1.935630 1_555
F21 Li7 1.959051 1_555
F21 Li3 2.063964 1_555
F22 V2 1.898197 1_554
F22 Li2 1.958179 1_554
F22 Li6 2.203732 1_555
F23 V5 1.831830 1_555
F23 Li5 2.033617 1_555
F24 V4 1.863907 1_555
F24 Li8 1.993860 1_555
F25 Li2 1.956283 1_455
F25 V4 1.962263 1_555
F25 Li7 2.020403 1_556
F26 V2 1.831503 1_555
F26 Li6 2.090147 1_556
F27 V5 1.916690 1_555
F27 Li6 1.978202 1_555
F27 Li10 2.013907 1_555
F28 V5 1.911396 1_555
F28 Li1 1.938003 1_455
F28 Li9 1.950082 1_555
F29 V0 1.985816 1_655
F29 Li8 1.999459 1_555
F29 Li10 2.069206 1_555
F29 Li5 2.353108 1_555
F30 Li9 1.881841 1_555
F30 V4 1.970652 1_555
F30 Li0 2.038568 1_545
F30 Li8 2.442521 1_555
F31 V5 1.842510 1_555
F31 Li11 1.993898 1_555
F32 V4 1.853790 1_555
F32 Li11 1.933450 1_556
F32 Li0 2.464192 1_545
F33 V5 1.885604 1_555
F33 Li8 1.994148 1_555
F33 Li10 2.304974 1_555
F34 V2 1.825793 1_455
F34 Li0 1.975983 1_545
F35 V0 1.803727 1_555
F35 Li3 2.189079 1_545
