# generated using pymatgen
data_V2O3F
_symmetry_space_group_name_H-M   'P 1'
_cell_length_a   4.59690667
_cell_length_b   4.59690671
_cell_length_c   11.75372599
_cell_angle_alpha   90.00224823
_cell_angle_beta   89.99777524
_cell_angle_gamma   92.90833486
_symmetry_Int_Tables_number   1
_chemical_formula_structural   V2O3F
_chemical_formula_sum   'V8 O12 F4'
_cell_volume   248.05455154
_cell_formula_units_Z   4
loop_
 _symmetry_equiv_pos_site_id
 _symmetry_equiv_pos_as_xyz
  1  'x, y, z'
loop_
 _atom_site_type_symbol
 _atom_site_label
 _atom_site_symmetry_multiplicity
 _atom_site_fract_x
 _atom_site_fract_y
 _atom_site_fract_z
 _atom_site_occupancy
  V  V0  1  0.00001880  0.99998212  0.00001064  1
  V  V1  1  0.97979241  0.02020699  0.25003379  1
  V  V2  1  -0.00001206  0.00001252  0.49998729  1
  V  V3  1  0.02018705  0.97981340  0.74997563  1
  V  V4  1  0.52694312  0.47305731  0.12599582  1
  V  V5  1  0.47303149  0.52696934  0.62600307  1
  V  V6  1  0.47305539  0.52694489  0.87398308  1
  V  V7  1  0.52690917  0.47309038  0.37401302  1
  O  O0  1  0.19601307  0.80398248  0.87466591  1
  O  O1  1  0.19601710  0.80398213  0.62530380  1
  O  O2  1  0.29984287  0.29990058  0.00005496  1
  O  O3  1  0.30271357  0.29284449  0.25001024  1
  O  O4  1  0.29985658  0.29982062  0.49993739  1
  O  O5  1  0.29286454  0.30268719  0.74999423  1
  O  O6  1  0.70009937  0.70015639  0.00005499  1
  O  O7  1  0.70715693  0.69728533  0.25001030  1
  O  O8  1  0.70017915  0.70014398  0.49993724  1
  O  O9  1  0.69731256  0.70713706  0.74999428  1
  O  O10  1  0.80397084  0.19602855  0.12535163  1
  O  O11  1  0.80398852  0.19601060  0.37467825  1
  F  F0  1  0.20327748  0.79672348  0.12532960  1
  F  F1  1  0.20327371  0.79672684  0.37470069  1
  F  F2  1  0.79673769  0.20326318  0.62526919  1
  F  F3  1  0.79676965  0.20323114  0.87470697  1
loop_
_geom_bond_atom_site_label_1
_geom_bond_atom_site_label_2
_geom_bond_distance
_geom_bond_site_symmetry_2
O0 V6 1.846181 1_555
O0 V3 1.876428 1_555
O0 V0 1.968810 1_556
O1 V5 1.846007 1_555
O1 V3 1.876169 1_555
O1 V2 1.968813 1_565
O2 V0 1.899366 1_545
O2 V4 1.957130 1_555
O2 V6 1.958261 1_554
O3 V1 1.893542 1_455
O3 V7 1.945852 1_555
O3 V4 1.945962 1_555
O4 V2 1.899157 1_555
O4 V7 1.957054 1_555
O4 V5 1.958371 1_555
O5 V3 1.893493 1_545
O5 V6 1.945762 1_555
O5 V5 1.945808 1_555
O6 V0 1.899374 1_655
O6 V4 1.957127 1_555
O6 V6 1.958258 1_554
O7 V1 1.893538 1_565
O7 V7 1.945854 1_555
O7 V4 1.945961 1_555
O8 V2 1.899159 1_665
O8 V7 1.957055 1_555
O8 V5 1.958370 1_555
O9 V3 1.893492 1_655
O9 V6 1.945763 1_555
O9 V5 1.945807 1_555
O10 V4 1.846101 1_555
O10 V1 1.876325 1_555
O10 V0 1.969000 1_645
O11 V7 1.846445 1_555
O11 V1 1.875806 1_555
O11 V2 1.968610 1_655
F0 V0 2.001123 1_555
F0 V1 2.089520 1_465
F0 V4 2.156889 1_555
F1 V2 2.000858 1_565
F1 V1 2.089309 1_465
F1 V7 2.156690 1_555
F2 V2 2.000658 1_655
F2 V3 2.089487 1_645
F2 V5 2.157160 1_555
F3 V0 2.000948 1_646
F3 V3 2.089428 1_645
F3 V6 2.157212 1_555
