# generated using pymatgen
data_NaCo3O4
_symmetry_space_group_name_H-M   'P 1'
_cell_length_a   6.06575928
_cell_length_b   6.06481198
_cell_length_c   8.64866318
_cell_angle_alpha   90.06448986
_cell_angle_beta   89.92791765
_cell_angle_gamma   89.98076759
_symmetry_Int_Tables_number   1
_chemical_formula_structural   NaCo3O4
_chemical_formula_sum   'Na4 Co12 O16'
_cell_volume   318.16386494
_cell_formula_units_Z   4
loop_
 _symmetry_equiv_pos_site_id
 _symmetry_equiv_pos_as_xyz
  1  'x, y, z'
loop_
 _atom_site_type_symbol
 _atom_site_label
 _atom_site_symmetry_multiplicity
 _atom_site_fract_x
 _atom_site_fract_y
 _atom_site_fract_z
 _atom_site_occupancy
  Na  Na0  1  0.25579900  0.49995100  0.75003900  1
  Na  Na1  1  0.50010100  0.25570500  0.00006800  1
  Na  Na2  1  0.50001000  0.74432200  0.50000300  1
  Na  Na3  1  0.74424400  0.50000100  0.25002200  1
  Co  Co0  1  0.00017900  0.25145100  0.00015400  1
  Co  Co1  1  0.00055000  0.75091800  0.00006500  1
  Co  Co2  1  0.00016100  0.25003600  0.49993400  1
  Co  Co3  1  0.99996900  0.74804600  0.49988600  1
  Co  Co4  1  0.23917000  0.50012700  0.24977600  1
  Co  Co5  1  0.25132200  0.99984300  0.74980700  1
  Co  Co6  1  0.24979500  0.00001500  0.24998300  1
  Co  Co7  1  0.49994000  0.23883100  0.50021600  1
  Co  Co8  1  0.50012900  0.76032900  0.99981400  1
  Co  Co9  1  0.75147600  0.00004100  0.74993700  1
  Co  Co10  1  0.74798600  0.99995500  0.25013900  1
  Co  Co11  1  0.76075300  0.50012900  0.75044800  1
  O  O0  1  0.97736800  0.22902800  0.75695800  1
  O  O1  1  0.98177100  0.77534200  0.74292300  1
  O  O2  1  0.22473000  0.52197000  0.02012000  1
  O  O3  1  0.22423600  0.47816700  0.47971100  1
  O  O4  1  0.22783600  0.97891500  0.99291400  1
  O  O5  1  0.22784700  0.02155600  0.50634100  1
  O  O6  1  0.52056200  0.22337200  0.72979700  1
  O  O7  1  0.52514000  0.77224200  0.77021900  1
  O  O8  1  0.47819100  0.22463800  0.27042300  1
  O  O9  1  0.47562500  0.77312900  0.22961900  1
  O  O10  1  0.77441500  0.01912100  0.49321700  1
  O  O11  1  0.77386800  0.98084400  0.00725300  1
  O  O12  1  0.77335700  0.52386500  0.97985100  1
  O  O13  1  0.77298000  0.47572500  0.52041600  1
  O  O14  1  0.02142900  0.22826500  0.24334700  1
  O  O15  1  0.01906300  0.77412000  0.25659700  1
loop_
_geom_bond_atom_site_label_1
_geom_bond_atom_site_label_2
_geom_bond_distance
_geom_bond_site_symmetry_2
Na0 O6 2.328162 1_555
Na0 O7 2.329937 1_555
Na0 O2 2.346842 1_556
Na0 O3 2.349614 1_555
Na0 O1 2.356869 1_455
Na0 O0 2.357445 1_455
Na1 O12 2.329077 1_554
Na1 O2 2.329088 1_555
Na1 O6 2.348596 1_554
Na1 O8 2.349598 1_555
Na1 O11 2.353493 1_545
Na1 O4 2.356079 1_544
Na2 O13 2.329362 1_555
Na2 O3 2.331626 1_555
Na2 O7 2.348091 1_555
Na2 O9 2.350015 1_555
Na2 O5 2.356503 1_565
Na2 O10 2.356550 1_565
Na3 O8 2.329434 1_555
Na3 O9 2.330123 1_555
Na3 O12 2.347692 1_554
Na3 O13 2.350030 1_555
Na3 O14 2.354550 1_655
Na3 O15 2.355377 1_655
Co0 O14 2.112243 1_555
Co0 O0 2.112273 1_454
Co0 O2 2.139681 1_555
Co0 O11 2.140843 1_445
Co0 O4 2.154267 1_544
Co0 O12 2.157102 1_454
Co1 O2 1.951173 1_555
Co1 O4 1.953923 1_554
Co1 O12 1.956343 1_454
Co1 O11 1.958903 1_455
Co1 O15 2.225936 1_555
Co1 O1 2.232077 1_454
Co2 O3 1.947679 1_555
Co2 O13 1.949722 1_455
Co2 O5 1.956959 1_555
Co2 O10 1.959846 1_455
Co2 O14 2.226487 1_555
Co2 O0 2.230823 1_455
Co3 O1 2.111015 1_555
Co3 O15 2.113270 1_655
Co3 O3 2.134775 1_655
Co3 O10 2.139364 1_565
Co3 O13 2.157903 1_555
Co3 O5 2.160287 1_665
Co4 O2 1.992813 1_555
Co4 O3 1.995181 1_555
Co4 O14 2.113638 1_555
Co4 O15 2.131996 1_555
Co4 O9 2.197845 1_555
Co4 O8 2.219272 1_555
Co5 O4 2.111157 1_555
Co5 O5 2.114892 1_565
Co5 O1 2.128912 1_455
Co5 O6 2.129844 1_565
Co5 O7 2.166780 1_555
Co5 O0 2.166841 1_465
Co6 O9 1.948966 1_545
Co6 O8 1.951349 1_555
Co6 O14 1.958946 1_555
Co6 O15 1.959654 1_545
Co6 O5 2.224670 1_555
Co6 O4 2.230989 1_544
Co7 O6 1.991973 1_555
Co7 O8 1.993706 1_555
Co7 O5 2.112962 1_555
Co7 O10 2.132882 1_555
Co7 O13 2.199868 1_555
Co7 O3 2.221452 1_555
Co8 O7 1.992680 1_555
Co8 O9 1.994292 1_556
Co8 O4 2.118477 1_555
Co8 O11 2.133387 1_556
Co8 O12 2.197810 1_555
Co8 O2 2.216449 1_556
Co9 O1 1.952045 1_545
Co9 O0 1.952207 1_555
Co9 O7 1.955898 1_545
Co9 O6 1.956182 1_555
Co9 O10 2.227606 1_555
Co9 O11 2.232917 1_546
Co10 O11 2.109354 1_555
Co10 O10 2.111678 1_565
Co10 O8 2.136125 1_565
Co10 O15 2.140473 1_655
Co10 O9 2.157544 1_555
Co10 O14 2.161780 1_665
Co11 O12 1.990650 1_555
Co11 O13 1.996084 1_555
Co11 O0 2.105197 1_555
Co11 O1 2.142202 1_555
Co11 O7 2.189172 1_555
Co11 O6 2.230132 1_555
