# generated using pymatgen
data_Ca4I6O
_symmetry_space_group_name_H-M   'P 1'
_cell_length_a   7.78734800
_cell_length_b   10.28054154
_cell_length_c   10.28054154
_cell_angle_alpha   119.99999701
_cell_angle_beta   90.00000000
_cell_angle_gamma   90.00000000
_symmetry_Int_Tables_number   1
_chemical_formula_structural   Ca4I6O
_chemical_formula_sum   'Ca8 I12 O2'
_cell_volume   712.77459451
_cell_formula_units_Z   2
loop_
 _symmetry_equiv_pos_site_id
 _symmetry_equiv_pos_as_xyz
  1  'x, y, z'
loop_
 _atom_site_type_symbol
 _atom_site_label
 _atom_site_symmetry_multiplicity
 _atom_site_fract_x
 _atom_site_fract_y
 _atom_site_fract_z
 _atom_site_occupancy
  Ca  Ca0  1  0.98300300  0.21029200  0.78970800  1
  Ca  Ca1  1  0.60160700  0.33333300  0.66666700  1
  Ca  Ca2  1  0.98300300  0.57941700  0.78970800  1
  Ca  Ca3  1  0.98300300  0.21029200  0.42058300  1
  Ca  Ca4  1  0.48300300  0.78970800  0.57941700  1
  Ca  Ca5  1  0.10160700  0.66666700  0.33333300  1
  Ca  Ca6  1  0.48300300  0.42058300  0.21029200  1
  Ca  Ca7  1  0.48300300  0.78970800  0.21029200  1
  I  I0  1  0.61376000  0.13534400  0.86465600  1
  I  I1  1  0.29219200  0.46185300  0.92370600  1
  I  I2  1  0.61376000  0.72931300  0.86465600  1
  I  I3  1  0.29219200  0.07629400  0.53814700  1
  I  I4  1  0.29219200  0.46185300  0.53814700  1
  I  I5  1  0.11376000  0.86465600  0.72931300  1
  I  I6  1  0.61376000  0.13534400  0.27068700  1
  I  I7  1  0.79219200  0.53814700  0.46185300  1
  I  I8  1  0.79219200  0.92370600  0.46185300  1
  I  I9  1  0.11376000  0.27068700  0.13534400  1
  I  I10  1  0.79219200  0.53814700  0.07629400  1
  I  I11  1  0.11376000  0.86465600  0.13534400  1
  O  O0  1  0.89080600  0.33333300  0.66666700  1
  O  O1  1  0.39080600  0.66666700  0.33333300  1
loop_
_geom_bond_atom_site_label_1
_geom_bond_atom_site_label_2
_geom_bond_distance
_geom_bond_site_symmetry_2
Ca0 O0 2.305561 1_555
Ca0 I0 3.170032 1_555
Ca0 I1 3.289485 1_655
Ca0 I3 3.289485 1_655
Ca0 I5 3.441254 1_645
Ca0 I9 3.441254 1_656
Ca0 I10 3.509756 1_556
Ca0 I8 3.509756 1_545
Ca1 O0 2.252093 1_555
Ca1 I1 3.323086 1_555
Ca1 I3 3.323086 1_555
Ca1 I4 3.323092 1_555
Ca1 I0 3.526745 1_555
Ca1 I2 3.526763 1_555
Ca1 I6 3.526763 1_555
Ca2 O0 2.305578 1_555
Ca2 I2 3.170032 1_555
Ca2 I4 3.289485 1_655
Ca2 I1 3.289491 1_655
Ca2 I5 3.441234 1_655
Ca2 I11 3.441247 1_656
Ca2 I7 3.509752 1_555
Ca2 I10 3.509761 1_556
Ca3 O0 2.305578 1_555
Ca3 I6 3.170032 1_555
Ca3 I4 3.289485 1_655
Ca3 I3 3.289491 1_655
Ca3 I9 3.441234 1_655
Ca3 I11 3.441247 1_645
Ca3 I7 3.509752 1_555
Ca3 I8 3.509761 1_545
Ca4 O1 2.305578 1_555
Ca4 I5 3.170032 1_555
Ca4 I7 3.289485 1_555
Ca4 I8 3.289491 1_555
Ca4 I2 3.441234 1_555
Ca4 I0 3.441247 1_565
Ca4 I4 3.509752 1_555
Ca4 I3 3.509761 1_565
Ca5 O1 2.252093 1_555
Ca5 I8 3.323086 1_455
Ca5 I10 3.323086 1_455
Ca5 I7 3.323092 1_455
Ca5 I11 3.526745 1_555
Ca5 I9 3.526763 1_555
Ca5 I5 3.526763 1_555
Ca6 O1 2.305578 1_555
Ca6 I9 3.170032 1_555
Ca6 I7 3.289485 1_555
Ca6 I10 3.289491 1_555
Ca6 I6 3.441234 1_555
Ca6 I0 3.441247 1_554
Ca6 I4 3.509752 1_555
Ca6 I1 3.509761 1_554
Ca7 O1 2.305561 1_555
Ca7 I11 3.170032 1_555
Ca7 I8 3.289485 1_555
Ca7 I10 3.289485 1_555
Ca7 I2 3.441254 1_554
Ca7 I6 3.441254 1_565
Ca7 I3 3.509756 1_565
Ca7 I1 3.509756 1_554
