# generated using pymatgen
data_Li5Mn5O12
_symmetry_space_group_name_H-M   'P 1'
_cell_length_a   5.01966300
_cell_length_b   8.88587644
_cell_length_c   9.41587502
_cell_angle_alpha   84.16397841
_cell_angle_beta   84.91929618
_cell_angle_gamma   86.21818235
_symmetry_Int_Tables_number   1
_chemical_formula_structural   Li5Mn5O12
_chemical_formula_sum   'Li10 Mn10 O24'
_cell_volume   415.48033486
_cell_formula_units_Z   2
loop_
 _symmetry_equiv_pos_site_id
 _symmetry_equiv_pos_as_xyz
  1  'x, y, z'
loop_
 _atom_site_type_symbol
 _atom_site_label
 _atom_site_symmetry_multiplicity
 _atom_site_fract_x
 _atom_site_fract_y
 _atom_site_fract_z
 _atom_site_occupancy
  Li  Li0  1  0.99447400  0.17361500  0.48834000  1
  Li  Li1  1  0.25623800  0.08042500  0.00657200  1
  Li  Li2  1  0.38093400  0.53644900  0.24353600  1
  Li  Li3  1  0.36475400  0.86968100  0.25547500  1
  Li  Li4  1  0.51364100  0.33695300  0.49058800  1
  Li  Li5  1  0.48190500  0.68357300  0.48897700  1
  Li  Li6  1  0.73398700  0.91022700  0.01550900  1
  Li  Li7  1  0.75496900  0.56904500  0.01136700  1
  Li  Li8  1  0.88608100  0.03594700  0.25455700  1
  Li  Li9  1  0.89781600  0.37786700  0.24294700  1
  Mn  Mn0  1  0.00700200  0.50867100  0.49578000  1
  Mn  Mn1  1  0.13609600  0.28951500  0.75110400  1
  Mn  Mn2  1  0.11039000  0.96039700  0.74457000  1
  Mn  Mn3  1  0.24889600  0.73724200  0.00364900  1
  Mn  Mn4  1  0.37136900  0.21288400  0.24594100  1
  Mn  Mn5  1  0.51273000  0.00271300  0.49275400  1
  Mn  Mn6  1  0.60563800  0.46081700  0.75001300  1
  Mn  Mn7  1  0.64020300  0.79158300  0.74684700  1
  Mn  Mn8  1  0.75076500  0.24512700  0.00378400  1
  Mn  Mn9  1  0.87055100  0.71219700  0.25278200  1
  O  O0  1  0.06481900  0.58420300  0.12180500  1
  O  O1  1  0.05546400  0.86993600  0.13307000  1
  O  O2  1  0.07085400  0.21423400  0.13910300  1
  O  O3  1  0.16099000  0.66878000  0.38341600  1
  O  O4  1  0.19209100  0.35874100  0.37813900  1
  O  O5  1  0.23398400  0.04294100  0.36772700  1
  O  O6  1  0.27159500  0.12876200  0.63016200  1
  O  O7  1  0.29985900  0.45528900  0.63292400  1
  O  O8  1  0.34268900  0.83905700  0.62275500  1
  O  O9  1  0.43954600  0.29319500  0.85790500  1
  O  O10  1  0.40171000  0.91161900  0.87566700  1
  O  O11  1  0.57214500  0.08465300  0.11492200  1
  O  O12  1  0.57148300  0.37097400  0.13639500  1
  O  O13  1  0.48204700  0.62259400  0.86689700  1
  O  O14  1  0.57529000  0.72618700  0.13291800  1
  O  O15  1  0.66403100  0.17011000  0.38704400  1
  O  O16  1  0.66961100  0.85903400  0.37332800  1
  O  O17  1  0.72665300  0.53752100  0.37235800  1
  O  O18  1  0.76782800  0.62681100  0.63171600  1
  O  O19  1  0.79749600  0.96148200  0.63703100  1
  O  O20  1  0.83148200  0.34062600  0.61957000  1
  O  O21  1  0.89647200  0.41377100  0.87257300  1
  O  O22  1  0.93659600  0.79847000  0.85961700  1
  O  O23  1  0.97813100  0.11985000  0.86883000  1
loop_
_geom_bond_atom_site_label_1
_geom_bond_atom_site_label_2
_geom_bond_distance
_geom_bond_site_symmetry_2
Li0 O5 1.981326 1_655
Li0 O15 1.988739 1_555
Li0 O6 2.006179 1_655
Li0 O20 2.105297 1_555
Li0 O4 2.110112 1_655
Li0 O19 2.440280 1_545
Li1 O2 1.946034 1_555
Li1 O11 1.964440 1_555
Li1 O23 1.979250 1_454
Li1 O10 2.091541 1_544
Li1 O1 2.348554 1_545
Li1 O9 2.417410 1_554
Li2 O12 2.009946 1_555
Li2 O0 2.036211 1_555
Li2 O3 2.054869 1_555
Li2 O14 2.135204 1_555
Li2 O4 2.139177 1_555
Li2 O17 2.204618 1_555
Li3 O16 1.960213 1_555
Li3 O14 1.994947 1_555
Li3 O5 1.998255 1_565
Li3 O1 2.013620 1_555
Li3 O3 2.295555 1_555
Li3 O11 2.447106 1_565
Li4 O15 1.932439 1_555
Li4 O7 1.984051 1_555
Li4 O4 1.995887 1_555
Li4 O20 2.092754 1_555
Li4 O17 2.279470 1_555
Li4 O6 2.478904 1_555
Li5 O3 1.984504 1_555
Li5 O8 2.013586 1_555
Li5 O16 2.042358 1_555
Li5 O18 2.056448 1_555
Li5 O17 2.059108 1_555
Li5 O7 2.500594 1_555
Li6 O11 1.983109 1_565
Li6 O22 2.018396 1_554
Li6 O1 2.029068 1_655
Li6 O14 2.044341 1_555
Li6 O10 2.213334 1_554
Li6 O23 2.521336 1_564
Li7 O0 1.964979 1_655
Li7 O14 2.012259 1_555
Li7 O13 2.016469 1_554
Li7 O21 2.046735 1_554
Li7 O12 2.220894 1_555
Li7 O22 2.539877 1_554
Li8 O15 2.025016 1_555
Li8 O1 2.052550 1_645
Li8 O2 2.053498 1_655
Li8 O5 2.132252 1_655
Li8 O16 2.134298 1_545
Li8 O11 2.135549 1_555
Li9 O2 1.948536 1_655
Li9 O12 2.002611 1_555
Li9 O4 2.021689 1_655
Li9 O17 2.059349 1_555
Li9 O0 2.230149 1_655
Li9 O15 2.473973 1_555
Mn0 O3 1.853393 1_555
Mn0 O17 1.891590 1_455
Mn0 O4 1.954392 1_555
Mn0 O20 2.000572 1_455
Mn0 O18 2.004126 1_455
Mn0 O7 2.042851 1_555
Mn1 O9 1.901869 1_555
Mn1 O7 1.936036 1_555
Mn1 O23 1.947455 1_455
Mn1 O21 1.952430 1_455
Mn1 O6 1.966035 1_555
Mn1 O20 2.051246 1_455
Mn2 O22 1.919918 1_455
Mn2 O8 1.920052 1_555
Mn2 O6 1.931592 1_565
Mn2 O19 1.941637 1_455
Mn2 O23 1.972995 1_465
Mn2 O10 1.994315 1_555
Mn3 O0 1.901796 1_555
Mn3 O1 1.936409 1_555
Mn3 O13 1.976900 1_554
Mn3 O10 2.013665 1_554
Mn3 O14 2.117347 1_555
Mn3 O22 2.169502 1_454
Mn4 O2 1.884565 1_555
Mn4 O5 1.927716 1_555
Mn4 O11 1.936525 1_555
Mn4 O12 1.937601 1_555
Mn4 O4 2.003718 1_555
Mn4 O15 2.058437 1_555
Mn5 O15 1.869262 1_555
Mn5 O16 1.875402 1_545
Mn5 O5 1.900435 1_555
Mn5 O8 1.989562 1_545
Mn5 O19 2.048571 1_545
Mn5 O6 2.057202 1_555
Mn6 O9 1.910953 1_555
Mn6 O18 1.934640 1_555
Mn6 O13 1.935402 1_555
Mn6 O21 1.938441 1_555
Mn6 O20 1.948026 1_555
Mn6 O7 1.973457 1_555
Mn7 O22 1.910441 1_555
Mn7 O19 1.914932 1_555
Mn7 O18 1.950732 1_555
Mn7 O13 1.953455 1_555
Mn7 O10 1.969668 1_555
Mn7 O8 1.974644 1_555
Mn8 O12 1.889892 1_555
Mn8 O11 1.905609 1_555
Mn8 O21 1.978636 1_554
Mn8 O23 2.004914 1_554
Mn8 O2 2.124548 1_655
Mn8 O9 2.163885 1_554
Mn9 O0 1.921288 1_655
Mn9 O14 1.931149 1_555
Mn9 O1 1.939524 1_655
Mn9 O17 1.961390 1_555
Mn9 O16 1.983164 1_555
Mn9 O3 1.983490 1_655
