# generated using pymatgen
data_Ni3OF5
_symmetry_space_group_name_H-M   'P 1'
_cell_length_a   4.70218905
_cell_length_b   9.29649100
_cell_length_c   4.71147405
_cell_angle_alpha   90.00244856
_cell_angle_beta   90.01599520
_cell_angle_gamma   90.00000599
_symmetry_Int_Tables_number   1
_chemical_formula_structural   Ni3OF5
_chemical_formula_sum   'Ni6 O2 F10'
_cell_volume   205.95669997
_cell_formula_units_Z   2
loop_
 _symmetry_equiv_pos_site_id
 _symmetry_equiv_pos_as_xyz
  1  'x, y, z'
loop_
 _atom_site_type_symbol
 _atom_site_label
 _atom_site_symmetry_multiplicity
 _atom_site_fract_x
 _atom_site_fract_y
 _atom_site_fract_z
 _atom_site_occupancy
  Ni  Ni0  1  0.01058100  0.00001200  0.01249900  1
  Ni  Ni1  1  0.49419200  0.16308600  0.49805800  1
  Ni  Ni2  1  0.49418500  0.83688100  0.49812600  1
  Ni  Ni3  1  0.51072300  0.49998500  0.48745300  1
  Ni  Ni4  1  0.99418400  0.66325900  0.00192400  1
  Ni  Ni5  1  0.99422100  0.33675500  0.00189600  1
  O  O0  1  0.80399100  0.49999900  0.18995600  1
  O  O1  1  0.30401600  0.00003000  0.31000100  1
  F  F0  1  0.70278400  0.00000300  0.70571300  1
  F  F1  1  0.20313500  0.50000100  0.79429700  1
  F  F2  1  0.80251100  0.16665500  0.19780500  1
  F  F3  1  0.80244800  0.83331800  0.19769100  1
  F  F4  1  0.30242500  0.33351800  0.30223900  1
  F  F5  1  0.30242100  0.66647700  0.30224500  1
  F  F6  1  0.69455700  0.33135600  0.69306300  1
  F  F7  1  0.69456300  0.66864700  0.69306600  1
  F  F8  1  0.19452300  0.83117100  0.80704400  1
  F  F9  1  0.19454400  0.16884600  0.80692400  1
loop_
_geom_bond_atom_site_label_1
_geom_bond_atom_site_label_2
_geom_bond_distance
_geom_bond_site_symmetry_2
Ni0 O1 1.966575 1_555
Ni1 O1 1.970267 1_555
Ni2 O1 1.971120 1_565
Ni3 O0 1.966557 1_555
Ni4 O0 1.971993 1_555
Ni5 O0 1.971958 1_555
F0 Ni0 2.045187 1_656
F0 Ni1 2.053627 1_555
F0 Ni2 2.053696 1_545
F1 Ni3 2.045256 1_555
F1 Ni5 2.055605 1_456
F1 Ni4 2.055771 1_456
F2 Ni1 2.026150 1_555
F2 Ni0 2.029740 1_655
F2 Ni5 2.041028 1_555
F3 Ni2 2.026558 1_555
F3 Ni0 2.030071 1_665
F3 Ni4 2.040423 1_555
F4 Ni5 2.025446 1_455
F4 Ni3 2.028587 1_555
F4 Ni1 2.043119 1_555
F5 Ni4 2.025480 1_455
F5 Ni3 2.028818 1_555
F5 Ni2 2.042982 1_555
F6 Ni5 2.025848 1_556
F6 Ni3 2.035404 1_555
F6 Ni1 2.044081 1_555
F7 Ni4 2.025793 1_556
F7 Ni3 2.035595 1_555
F7 Ni2 2.043776 1_555
F8 Ni2 2.026771 1_555
F8 Ni0 2.036957 1_566
F8 Ni4 2.041511 1_456
F9 Ni1 2.026558 1_555
F9 Ni0 2.037281 1_556
F9 Ni5 2.041590 1_456
