# generated using pymatgen
data_Li2Ni(CO3)2
_symmetry_space_group_name_H-M   'P 1'
_cell_length_a   5.31741795
_cell_length_b   6.20796122
_cell_length_c   8.27951520
_cell_angle_alpha   82.58156586
_cell_angle_beta   76.48894620
_cell_angle_gamma   65.74728392
_symmetry_Int_Tables_number   1
_chemical_formula_structural   Li2Ni(CO3)2
_chemical_formula_sum   'Li4 Ni2 C4 O12'
_cell_volume   242.12215489
_cell_formula_units_Z   2
loop_
 _symmetry_equiv_pos_site_id
 _symmetry_equiv_pos_as_xyz
  1  'x, y, z'
loop_
 _atom_site_type_symbol
 _atom_site_label
 _atom_site_symmetry_multiplicity
 _atom_site_fract_x
 _atom_site_fract_y
 _atom_site_fract_z
 _atom_site_occupancy
  Li  Li0  1  0.96973500  0.46668100  0.83029800  1
  Li  Li1  1  0.53791100  0.97076700  0.65104200  1
  Li  Li2  1  0.12595900  0.00131000  0.36169200  1
  Li  Li3  1  0.31332100  0.38402800  0.14278300  1
  Ni  Ni0  1  0.00017700  0.98068300  0.99909400  1
  Ni  Ni1  1  0.62804200  0.50165800  0.49621300  1
  C  C0  1  0.39038200  0.59285100  0.79326100  1
  C  C1  1  0.90069100  0.08472200  0.71552300  1
  C  C2  1  0.62668500  0.92770300  0.28346600  1
  C  C3  1  0.77842200  0.39368300  0.20236300  1
  O  O0  1  0.25826200  0.63298900  0.94647900  1
  O  O1  1  0.74160300  0.01546500  0.83402000  1
  O  O2  1  0.63498200  0.60458800  0.73599000  1
  O  O3  1  0.12042600  0.09952700  0.75160100  1
  O  O4  1  0.28167600  0.53899900  0.68755800  1
  O  O5  1  0.83863500  0.13535500  0.56872500  1
  O  O6  1  0.52970200  0.85939100  0.43422600  1
  O  O7  1  0.88836000  0.90656900  0.24245500  1
  O  O8  1  0.95333800  0.40613800  0.28311000  1
  O  O9  1  0.52284800  0.44387100  0.28336500  1
  O  O10  1  0.45922800  0.01542000  0.18195200  1
  O  O11  1  0.85875000  0.33030900  0.04882800  1
loop_
_geom_bond_atom_site_label_1
_geom_bond_atom_site_label_2
_geom_bond_distance
_geom_bond_site_symmetry_2
Li0 O2 1.932873 1_555
Li0 O11 1.963317 1_556
Li0 O4 1.976962 1_655
Li0 O3 2.213789 1_655
Li1 O6 2.020985 1_555
Li1 O3 2.027488 1_565
Li1 O1 2.160430 1_565
Li1 O5 2.172261 1_565
Li1 O2 2.172896 1_555
Li2 O5 2.016214 1_455
Li2 O10 2.055316 1_555
Li2 O7 2.063963 1_445
Li2 O6 2.158207 1_545
Li2 O8 2.354466 1_455
Li3 O9 1.947244 1_555
Li3 O8 1.954213 1_455
Li3 O0 2.077971 1_554
Li3 O10 2.100207 1_555
Ni0 O7 2.012618 1_456
Ni0 O11 2.047238 1_466
Ni0 O0 2.064478 1_555
Ni0 O1 2.088787 1_465
Ni0 O3 2.130024 1_565
Ni1 O9 2.082285 1_555
Ni1 O4 2.082399 1_555
Ni1 O6 2.084662 1_555
Ni1 O8 2.111434 1_555
Ni1 O5 2.157568 1_555
Ni1 O2 2.175318 1_555
C0 O4 1.297111 1_555
C0 O0 1.298575 1_555
C0 O2 1.304826 1_555
C1 O1 1.290379 1_555
C1 O5 1.299409 1_555
C1 O3 1.311976 1_655
C2 O10 1.276323 1_565
C2 O7 1.307427 1_555
C2 O6 1.321375 1_555
C3 O9 1.293814 1_555
C3 O8 1.296535 1_555
C3 O11 1.300209 1_555
