# generated using pymatgen
data_Rb3YO3
_symmetry_space_group_name_H-M   'P 1'
_cell_length_a   7.35998814
_cell_length_b   7.35998814
_cell_length_c   7.30328935
_cell_angle_alpha   85.21899673
_cell_angle_beta   85.21899673
_cell_angle_gamma   116.18398688
_symmetry_Int_Tables_number   1
_chemical_formula_structural   Rb3YO3
_chemical_formula_sum   'Rb6 Y2 O6'
_cell_volume   350.57599191
_cell_formula_units_Z   2
loop_
 _symmetry_equiv_pos_site_id
 _symmetry_equiv_pos_as_xyz
  1  'x, y, z'
loop_
 _atom_site_type_symbol
 _atom_site_label
 _atom_site_symmetry_multiplicity
 _atom_site_fract_x
 _atom_site_fract_y
 _atom_site_fract_z
 _atom_site_occupancy
  Rb  Rb0  1  0.63688000  0.63688000  0.64289700  1
  Rb  Rb1  1  0.20498500  0.79501500  0.50000000  1
  Rb  Rb2  1  0.79501500  0.20498500  0.50000000  1
  Rb  Rb3  1  0.73949700  0.26050300  0.00000000  1
  Rb  Rb4  1  0.26050300  0.73949700  0.00000000  1
  Rb  Rb5  1  0.36312000  0.36312000  0.35710300  1
  Y  Y0  1  0.82168900  0.82168900  0.14984800  1
  Y  Y1  1  0.17831100  0.17831100  0.85015200  1
  O  O0  1  0.89713100  0.89713100  0.84368000  1
  O  O1  1  0.83047200  0.55169200  0.26934600  1
  O  O2  1  0.55169200  0.83047200  0.26934600  1
  O  O3  1  0.16952800  0.44830800  0.73065400  1
  O  O4  1  0.44830800  0.16952800  0.73065400  1
  O  O5  1  0.10286900  0.10286900  0.15632000  1
loop_
_geom_bond_atom_site_label_1
_geom_bond_atom_site_label_2
_geom_bond_distance
_geom_bond_site_symmetry_2
O0 Y1 2.195627 1_665
O0 Y0 2.220461 1_556
O0 Rb0 2.680795 1_555
O1 Y0 2.132691 1_555
O1 Rb2 2.835442 1_555
O1 Rb3 2.926919 1_555
O1 Rb5 3.072421 1_555
O1 Rb0 3.208055 1_555
O1 Rb4 3.231962 1_655
O1 Rb1 3.250098 1_655
O2 Y0 2.132691 1_555
O2 Rb1 2.835442 1_555
O2 Rb4 2.926919 1_555
O2 Rb5 3.072421 1_555
O2 Rb0 3.208055 1_555
O2 Rb3 3.231962 1_565
O2 Rb2 3.250098 1_565
O3 Y1 2.132691 1_555
O3 Rb1 2.835442 1_555
O3 Rb4 2.926919 1_556
O3 Rb0 3.072421 1_555
O3 Rb5 3.208055 1_555
O3 Rb3 3.231962 1_456
O3 Rb2 3.250098 1_455
O4 Y1 2.132691 1_555
O4 Rb2 2.835442 1_555
O4 Rb3 2.926919 1_556
O4 Rb0 3.072421 1_555
O4 Rb5 3.208055 1_555
O4 Rb4 3.231962 1_546
O4 Rb1 3.250098 1_545
O5 Y0 2.195627 1_445
O5 Y1 2.220461 1_554
O5 Rb5 2.680795 1_555
