# generated using pymatgen
data_Li4NbFe3Cu2(PO4)6
_symmetry_space_group_name_H-M   'P 1'
_cell_length_a   8.73691800
_cell_length_b   8.77083717
_cell_length_c   8.77675100
_cell_angle_alpha   61.25785038
_cell_angle_beta   60.90277580
_cell_angle_gamma   61.51481944
_symmetry_Int_Tables_number   1
_chemical_formula_structural   Li4NbFe3Cu2(PO4)6
_chemical_formula_sum   'Li4 Nb1 Fe3 Cu2 P6 O24'
_cell_volume   488.65084624
_cell_formula_units_Z   1
loop_
 _symmetry_equiv_pos_site_id
 _symmetry_equiv_pos_as_xyz
  1  'x, y, z'
loop_
 _atom_site_type_symbol
 _atom_site_label
 _atom_site_symmetry_multiplicity
 _atom_site_fract_x
 _atom_site_fract_y
 _atom_site_fract_z
 _atom_site_occupancy
  Li  Li0  1  0.73416000  0.15947000  0.35645100  1
  Li  Li1  1  0.31179700  0.82934600  0.64506100  1
  Li  Li2  1  0.64306200  0.30914600  0.83488200  1
  Li  Li3  1  0.82900200  0.64152300  0.31366800  1
  Nb  Nb0  1  0.85417700  0.84859900  0.85429200  1
  Fe  Fe0  1  0.14593900  0.14806800  0.14348600  1
  Fe  Fe1  1  0.35423600  0.35831400  0.35423000  1
  Fe  Fe2  1  0.65169200  0.64965700  0.65822900  1
  Cu  Cu0  1  0.03574200  0.99748900  0.98986900  1
  Cu  Cu1  1  0.46478300  0.51911000  0.50225600  1
  P  P0  1  0.05134000  0.74949300  0.43966600  1
  P  P1  1  0.44597600  0.04484300  0.74973700  1
  P  P2  1  0.75193800  0.43874200  0.04858900  1
  P  P3  1  0.24896300  0.54046600  0.96116600  1
  P  P4  1  0.54535700  0.96116200  0.25331200  1
  P  P5  1  0.95183700  0.24878700  0.53675600  1
  O  O0  1  0.12622900  0.26796700  0.51000700  1
  O  O1  1  0.28620600  0.53024300  0.11630100  1
  O  O2  1  0.06656200  0.91803500  0.26248900  1
  O  O3  1  0.55661400  0.11148200  0.28501200  1
  O  O4  1  0.98554200  0.81291600  0.61161700  1
  O  O5  1  0.23355900  0.59393200  0.44354000  1
  O  O6  1  0.26096200  0.08236800  0.90648700  1
  O  O7  1  0.47514800  0.21431300  0.58075600  1
  O  O8  1  0.16887700  0.39502700  0.01018200  1
  O  O9  1  0.60046100  0.43697400  0.23675400  1
  O  O10  1  0.10159200  0.74346000  0.90287500  1
  O  O11  1  0.38396000  0.02562900  0.18885300  1
  O  O12  1  0.61174300  0.97391500  0.82258300  1
  O  O13  1  0.90934800  0.25287800  0.07608000  1
  O  O14  1  0.41685500  0.54113500  0.77675600  1
  O  O15  1  0.82023800  0.60640600  0.98195900  1
  O  O16  1  0.54247200  0.77976300  0.42029900  1
  O  O17  1  0.73968800  0.89687000  0.10067500  1
  O  O18  1  0.77467500  0.41999000  0.55132300  1
  O  O19  1  0.96738400  0.18734300  0.39056400  1
  O  O20  1  0.46225800  0.88790900  0.70449100  1
  O  O21  1  0.89963200  0.09800600  0.73850600  1
  O  O22  1  0.69245500  0.46252800  0.89958900  1
  O  O23  1  0.89753800  0.69369800  0.46365400  1
loop_
_geom_bond_atom_site_label_1
_geom_bond_atom_site_label_2
_geom_bond_distance
_geom_bond_site_symmetry_2
Li0 O9 2.101108 1_555
Li0 O13 2.159465 1_555
Li0 O7 2.183478 1_555
Li0 O3 2.190672 1_555
Li0 O19 2.332460 1_555
Li1 O20 1.957704 1_555
Li1 O16 2.065114 1_555
Li1 O14 2.139426 1_555
Li1 O10 2.167726 1_555
Li2 O22 1.960986 1_555
Li2 O18 2.101726 1_555
Li2 O14 2.110179 1_555
Li2 O21 2.207376 1_555
Li3 O23 1.976921 1_555
Li3 O18 2.090553 1_555
Li3 O16 2.128459 1_555
Li3 O17 2.201047 1_555
Nb0 O12 1.957152 1_555
Nb0 O15 1.960706 1_555
Nb0 O4 1.967898 1_555
Nb0 O17 2.056394 1_556
Nb0 O21 2.067323 1_565
Nb0 O10 2.078891 1_655
Fe0 O8 1.962013 1_555
Fe0 O11 1.974917 1_555
Fe0 O19 2.042181 1_455
Fe0 O6 2.058165 1_554
Fe0 O2 2.060585 1_545
Fe0 O13 2.078860 1_455
Fe1 O0 2.068918 1_555
Fe1 O1 2.076467 1_555
Fe1 O5 2.161603 1_555
Fe1 O9 2.177441 1_555
Fe1 O3 2.179722 1_555
Fe1 O7 2.240313 1_555
Fe2 O20 2.033291 1_555
Fe2 O22 2.034817 1_555
Fe2 O23 2.066071 1_555
Fe2 O18 2.205729 1_555
Fe2 O14 2.243322 1_555
Fe2 O16 2.276218 1_555
Cu0 O6 2.105833 1_565
Cu0 O2 2.264343 1_556
Cu0 O13 2.295078 1_466
Cu0 O10 2.421631 1_555
Cu0 O21 2.596055 1_465
Cu0 O17 2.705649 1_456
Cu1 O5 2.049411 1_555
Cu1 O14 2.325134 1_555
Cu1 O9 2.338281 1_555
Cu1 O16 2.372414 1_555
Cu1 O7 2.384939 1_555
Cu1 O18 2.607788 1_555
O0 P5 1.504503 1_455
O1 P3 1.501158 1_554
O2 P0 1.548118 1_555
O3 P4 1.525919 1_545
O4 P0 1.605016 1_655
O5 P0 1.527544 1_555
O6 P1 1.542422 1_555
O7 P1 1.532162 1_555
O8 P3 1.527322 1_554
O9 P2 1.532431 1_555
O10 P3 1.633243 1_555
O11 P4 1.528365 1_545
O12 P1 1.597491 1_565
O13 P2 1.553395 1_555
O14 P3 1.568865 1_555
O15 P2 1.590966 1_556
O16 P4 1.561959 1_555
O17 P4 1.611354 1_555
O18 P5 1.562730 1_555
O19 P5 1.543013 1_555
O20 P1 1.535091 1_565
O21 P5 1.621770 1_555
O22 P2 1.522818 1_556
O23 P0 1.530522 1_655
