# generated using pymatgen
data_LiTa3O8
_symmetry_space_group_name_H-M   'P 1'
_cell_length_a   7.46529757
_cell_length_b   7.46529757
_cell_length_c   5.04681414
_cell_angle_alpha   89.42654288
_cell_angle_beta   89.42654288
_cell_angle_gamma   101.66173601
_symmetry_Int_Tables_number   1
_chemical_formula_structural   LiTa3O8
_chemical_formula_sum   'Li2 Ta6 O16'
_cell_volume   275.42192605
_cell_formula_units_Z   2
loop_
 _symmetry_equiv_pos_site_id
 _symmetry_equiv_pos_as_xyz
  1  'x, y, z'
loop_
 _atom_site_type_symbol
 _atom_site_label
 _atom_site_symmetry_multiplicity
 _atom_site_fract_x
 _atom_site_fract_y
 _atom_site_fract_z
 _atom_site_occupancy
  Li  Li0  1  0.84398154  0.15601846  0.75000000  1
  Li  Li1  1  0.15601846  0.84398154  0.25000000  1
  Ta  Ta0  1  0.33023938  0.66976062  0.75000000  1
  Ta  Ta1  1  0.66976062  0.33023938  0.25000000  1
  Ta  Ta2  1  0.84613019  0.67273479  0.74616587  1
  Ta  Ta3  1  0.32726521  0.15386981  0.75383413  1
  Ta  Ta4  1  0.15386981  0.32726521  0.25383413  1
  Ta  Ta5  1  0.67273479  0.84613019  0.24616587  1
  O  O0  1  0.08055557  0.68691310  0.60330752  1
  O  O1  1  0.31308690  0.91944443  0.89669248  1
  O  O2  1  0.91944443  0.31308690  0.39669248  1
  O  O3  1  0.68691310  0.08055557  0.10330752  1
  O  O4  1  0.19479416  0.09617244  0.43520321  1
  O  O5  1  0.90382756  0.80520584  0.06479679  1
  O  O6  1  0.80520584  0.90382756  0.56479679  1
  O  O7  1  0.09617244  0.19479416  0.93520321  1
  O  O8  1  0.43826399  0.79518329  0.42447647  1
  O  O9  1  0.20481671  0.56173601  0.07552353  1
  O  O10  1  0.56173601  0.20481671  0.57552353  1
  O  O11  1  0.79518329  0.43826399  0.92447647  1
  O  O12  1  0.43055490  0.30371917  0.08186463  1
  O  O13  1  0.69628083  0.56944510  0.41813537  1
  O  O14  1  0.56944510  0.69628083  0.91813537  1
  O  O15  1  0.30371917  0.43055490  0.58186463  1
loop_
_geom_bond_atom_site_label_1
_geom_bond_atom_site_label_2
_geom_bond_distance
_geom_bond_site_symmetry_2
Li0 O7 2.078999 1_655
Li0 O6 2.078999 1_545
Li0 O2 2.131345 1_555
Li0 O3 2.131345 1_556
Li0 O11 2.385110 1_555
Li0 O10 2.385110 1_555
Li1 O4 2.078999 1_565
Li1 O5 2.078999 1_455
Li1 O1 2.131345 1_554
Li1 O0 2.131345 1_555
Li1 O8 2.385110 1_555
Li1 O9 2.385110 1_555
O0 Ta2 1.868700 1_455
O0 Ta0 2.039868 1_555
O1 Ta3 1.868700 1_565
O1 Ta0 2.039868 1_555
O2 Ta4 1.868700 1_655
O2 Ta1 2.039868 1_555
O3 Ta5 1.868700 1_545
O3 Ta1 2.039868 1_555
O4 Ta3 1.903394 1_555
O4 Ta4 2.023481 1_555
O5 Ta2 1.903394 1_554
O5 Ta5 2.023481 1_555
O6 Ta5 1.903394 1_555
O6 Ta2 2.023481 1_555
O7 Ta4 1.903394 1_556
O7 Ta3 2.023481 1_555
O8 Ta5 1.926354 1_555
O8 Ta0 1.965564 1_555
O9 Ta4 1.926354 1_555
O9 Ta0 1.965564 1_554
O10 Ta3 1.926354 1_555
O10 Ta1 1.965564 1_555
O11 Ta2 1.926354 1_555
O11 Ta1 1.965564 1_556
O12 Ta1 1.959304 1_555
O12 Ta3 2.073793 1_554
O12 Ta4 2.272561 1_555
O13 Ta1 1.959304 1_555
O13 Ta2 2.073793 1_555
O13 Ta5 2.272561 1_555
O14 Ta0 1.959304 1_555
O14 Ta5 2.073793 1_556
O14 Ta2 2.272561 1_555
O15 Ta0 1.959304 1_555
O15 Ta4 2.073793 1_555
O15 Ta3 2.272561 1_555
