# generated using pymatgen
data_ZrCrO3
_symmetry_space_group_name_H-M   'P 1'
_cell_length_a   4.95303600
_cell_length_b   5.38238200
_cell_length_c   9.34998900
_cell_angle_alpha   89.99951005
_cell_angle_beta   89.99976789
_cell_angle_gamma   89.99966773
_symmetry_Int_Tables_number   1
_chemical_formula_structural   ZrCrO3
_chemical_formula_sum   'Zr4 Cr4 O12'
_cell_volume   249.26258918
_cell_formula_units_Z   4
loop_
 _symmetry_equiv_pos_site_id
 _symmetry_equiv_pos_as_xyz
  1  'x, y, z'
loop_
 _atom_site_type_symbol
 _atom_site_label
 _atom_site_symmetry_multiplicity
 _atom_site_fract_x
 _atom_site_fract_y
 _atom_site_fract_z
 _atom_site_occupancy
  Zr  Zr0  1  0.04709700  0.95306900  0.74999600  1
  Zr  Zr1  1  0.45291900  0.45305300  0.74999600  1
  Zr  Zr2  1  0.54708400  0.54695200  0.25000400  1
  Zr  Zr3  1  0.95291000  0.04693300  0.25000200  1
  Cr  Cr0  1  0.99999700  0.49999900  0.50000100  1
  Cr  Cr1  1  0.49999100  0.99999400  0.50000100  1
  Cr  Cr2  1  0.99998700  0.50000100  0.99999700  1
  Cr  Cr3  1  0.50001600  0.00000100  0.99999400  1
  O  O0  1  0.18452000  0.37554100  0.25000000  1
  O  O1  1  0.31547300  0.87554400  0.25000100  1
  O  O2  1  0.68452100  0.12446500  0.74999900  1
  O  O3  1  0.81548400  0.62445500  0.74999800  1
  O  O4  1  0.21077700  0.21814900  0.60115100  1
  O  O5  1  0.21078200  0.21815900  0.89885500  1
  O  O6  1  0.28921900  0.71815000  0.60115400  1
  O  O7  1  0.28922200  0.71815200  0.89885500  1
  O  O8  1  0.71077900  0.28184200  0.10114500  1
  O  O9  1  0.71078000  0.28184600  0.39885000  1
  O  O10  1  0.78921700  0.78184700  0.10114700  1
  O  O11  1  0.78922400  0.78184600  0.39885300  1
loop_
_geom_bond_atom_site_label_1
_geom_bond_atom_site_label_2
_geom_bond_distance
_geom_bond_site_symmetry_2
Cr0 O11 2.070158 1_555
Cr0 O4 2.070196 1_655
Cr0 O9 2.079731 1_555
Cr0 O6 2.079750 1_655
Cr0 O3 2.597634 1_555
Cr0 O0 2.597688 1_655
Cr1 O6 2.070170 1_555
Cr1 O9 2.070236 1_565
Cr1 O4 2.079708 1_565
Cr1 O11 2.079743 1_555
Cr1 O1 2.597669 1_555
Cr1 O2 2.597702 1_565
Cr2 O10 2.070163 1_556
Cr2 O5 2.070176 1_655
Cr2 O8 2.079691 1_556
Cr2 O7 2.079734 1_655
Cr2 O3 2.597627 1_555
Cr2 O0 2.597721 1_656
Cr3 O8 2.070143 1_556
Cr3 O7 2.070201 1_545
Cr3 O10 2.079669 1_546
Cr3 O5 2.079735 1_555
Cr3 O2 2.597607 1_555
Cr3 O1 2.597764 1_546
O0 Zr2 2.018930 1_555
O0 Zr3 2.108152 1_455
O1 Zr3 2.018862 1_465
O1 Zr2 2.108072 1_555
O2 Zr0 2.018937 1_645
O2 Zr1 2.108029 1_555
O3 Zr1 2.018913 1_555
O3 Zr0 2.108188 1_655
O4 Zr0 2.151674 1_545
O4 Zr1 2.230216 1_555
O5 Zr0 2.151824 1_545
O5 Zr1 2.230234 1_555
O6 Zr1 2.151752 1_555
O6 Zr0 2.230177 1_555
O7 Zr1 2.151868 1_555
O7 Zr0 2.230271 1_555
O8 Zr2 2.151903 1_555
O8 Zr3 2.230250 1_555
O9 Zr2 2.151801 1_555
O9 Zr3 2.230215 1_555
O10 Zr3 2.151800 1_565
O10 Zr2 2.230215 1_555
O11 Zr3 2.151747 1_565
O11 Zr2 2.230203 1_555
