# generated using pymatgen
data_Li3V3P8O29
_symmetry_space_group_name_H-M   'P 1'
_cell_length_a   9.74341000
_cell_length_b   9.75348840
_cell_length_c   14.35193025
_cell_angle_alpha   89.51340989
_cell_angle_beta   91.12572518
_cell_angle_gamma   119.63775831
_symmetry_Int_Tables_number   1
_chemical_formula_structural   Li3V3P8O29
_chemical_formula_sum   'Li6 V6 P16 O58'
_cell_volume   1185.22648400
_cell_formula_units_Z   2
loop_
 _symmetry_equiv_pos_site_id
 _symmetry_equiv_pos_as_xyz
  1  'x, y, z'
loop_
 _atom_site_type_symbol
 _atom_site_label
 _atom_site_symmetry_multiplicity
 _atom_site_fract_x
 _atom_site_fract_y
 _atom_site_fract_z
 _atom_site_occupancy
  Li  Li0  1  0.22593000  0.31504700  0.94504600  1
  Li  Li1  1  0.69967200  0.91675800  0.94245500  1
  Li  Li2  1  0.67405100  0.77239400  0.43970500  1
  Li  Li3  1  0.30587700  0.07915200  0.06355200  1
  Li  Li4  1  0.91366700  0.67900700  0.55646900  1
  Li  Li5  1  0.06201800  0.08095000  0.50353300  1
  V  V0  1  0.43546000  0.43045300  0.74542300  1
  V  V1  1  0.56623900  0.56451100  0.24761300  1
  V  V2  1  0.43066900  0.99078200  0.25723700  1
  V  V3  1  0.56486700  0.00447600  0.74322800  1
  V  V4  1  0.00097100  0.56425500  0.75454700  1
  V  V5  1  0.00087900  0.43463000  0.25053100  1
  P  P0  1  0.08205000  0.77378100  0.16143000  1
  P  P1  1  0.21522800  0.91514500  0.66259400  1
  P  P2  1  0.07972100  0.30715600  0.65827200  1
  P  P3  1  0.34197500  0.66761000  0.86599700  1
  P  P4  1  0.33463400  0.66211400  0.36986400  1
  P  P5  1  0.22629000  0.31885700  0.15897700  1
  P  P6  1  0.31231200  0.22606400  0.33828300  1
  P  P7  1  0.67819000  0.91037700  0.15672600  1
  P  P8  1  0.32060900  0.08918300  0.84382300  1
  P  P9  1  0.68266300  0.77056200  0.65797700  1
  P  P10  1  0.77289600  0.68319900  0.83831700  1
  P  P11  1  0.66885400  0.33782700  0.63116600  1
  P  P12  1  0.66059000  0.32560900  0.13339500  1
  P  P13  1  0.91386300  0.68607800  0.34278800  1
  P  P14  1  0.78264200  0.08572200  0.33586000  1
  P  P15  1  0.91290700  0.22408900  0.83920500  1
  O  O0  1  0.98318700  0.76223100  0.43423700  1
  O  O1  1  0.08073900  0.73935200  0.66573700  1
  O  O2  1  0.26025300  0.01900100  0.93608600  1
  O  O3  1  0.25495200  0.91716100  0.16747800  1
  O  O4  1  0.09020000  0.61925100  0.18046100  1
  O  O5  1  0.18640300  0.65746000  0.81938100  1
  O  O6  1  0.07371100  0.46153600  0.67097900  1
  O  O7  1  0.00683800  0.23174900  0.92329900  1
  O  O8  1  0.08132300  0.34172100  0.16516600  1
  O  O9  1  0.32867200  0.81066000  0.32491000  1
  O  O10  1  0.37907500  0.91958800  0.67133800  1
  O  O11  1  0.18842700  0.51600200  0.32431700  1
  O  O12  1  0.33981400  0.66834700  0.96914700  1
  O  O13  1  0.33860000  0.67082700  0.47306400  1
  O  O14  1  0.34213300  0.51835500  0.82696400  1
  O  O15  1  0.51897400  0.90096200  0.18052400  1
  O  O16  1  0.48251300  0.81886600  0.82201600  1
  O  O17  1  0.25546900  0.34697300  0.67283900  1
  O  O18  1  0.21087400  0.20340300  0.24286400  1
  O  O19  1  0.21569400  0.20882300  0.41988600  1
  O  O20  1  0.23874700  0.24640500  0.07009000  1
  O  O21  1  0.37742700  0.48045300  0.17871900  1
  O  O22  1  0.48906400  0.67266000  0.33070600  1
  O  O23  1  0.33934000  0.25705700  0.83471900  1
  O  O24  1  0.52383900  0.61594800  0.67344800  1
  O  O25  1  0.65497600  0.91338200  0.66638700  1
  O  O26  1  0.20044000  0.98729700  0.76083200  1
  O  O27  1  0.19413400  0.99856100  0.58193600  1
  O  O28  1  0.79698300  0.99412900  0.41533900  1
  O  O29  1  0.35321600  0.09106900  0.33041400  1
  O  O30  1  0.46554200  0.38632700  0.32867100  1
  O  O31  1  0.65562300  0.74165500  0.17129000  1
  O  O32  1  0.51704200  0.33016000  0.67626100  1
  O  O33  1  0.62059200  0.52282300  0.82026200  1
  O  O34  1  0.76860900  0.77100800  0.92019400  1
  O  O35  1  0.75950000  0.76789400  0.56902100  1
  O  O36  1  0.79644700  0.78726300  0.74399800  1
  O  O37  1  0.74101900  0.65719800  0.33506500  1
  O  O38  1  0.51492800  0.17509700  0.17225800  1
  O  O39  1  0.47962100  0.09792900  0.81796500  1
  O  O40  1  0.65188200  0.47003500  0.18143100  1
  O  O41  1  0.65901800  0.33613200  0.03053500  1
  O  O42  1  0.66413600  0.33915200  0.52810900  1
  O  O43  1  0.81400900  0.48960600  0.67269000  1
  O  O44  1  0.61966900  0.08044800  0.32870400  1
  O  O45  1  0.67174900  0.18889900  0.67524500  1
  O  O46  1  0.91646500  0.65492000  0.83332400  1
  O  O47  1  0.00451100  0.79686900  0.25635300  1
  O  O48  1  0.99724300  0.77442200  0.07584100  1
  O  O49  1  0.91329100  0.52865700  0.32657800  1
  O  O50  1  0.81374100  0.33742600  0.17901700  1
  O  O51  1  0.90410500  0.37856600  0.82209400  1
  O  O52  1  0.74231900  0.08094100  0.83707700  1
  O  O53  1  0.74048400  0.97975100  0.06491400  1
  O  O54  1  0.79999000  0.01373500  0.23829900  1
  O  O55  1  0.91690700  0.25894400  0.33341600  1
  O  O56  1  0.01005900  0.21405500  0.57253300  1
  O  O57  1  0.99170200  0.20040600  0.74766100  1
loop_
_geom_bond_atom_site_label_1
_geom_bond_atom_site_label_2
_geom_bond_distance
_geom_bond_site_symmetry_2
Li0 O7 1.891365 1_555
Li0 O20 1.933384 1_556
Li0 O23 2.179496 1_555
Li0 O14 2.425671 1_555
Li1 O53 1.836776 1_556
Li1 O34 1.880055 1_555
Li1 O52 2.085604 1_565
Li1 O16 2.502524 1_555
Li2 O28 1.917237 1_555
Li2 O35 2.028207 1_555
Li2 O37 2.176177 1_555
Li2 O22 2.196153 1_555
Li3 O2 1.901785 1_554
Li3 O20 2.039132 1_555
Li3 O3 2.044727 1_545
Li3 O38 2.339517 1_555
Li4 O0 1.916733 1_555
Li4 O35 2.083669 1_555
Li4 O1 2.103179 1_655
Li4 O43 2.318378 1_555
Li5 O19 1.853892 1_555
Li5 O56 1.901039 1_555
Li5 O27 2.125965 1_545
Li5 O28 2.591280 1_445
O0 P13 1.488634 1_555
O1 P1 1.561363 1_555
O1 V4 1.958173 1_555
O2 P8 1.478123 1_555
O3 P0 1.570834 1_555
O3 V2 1.954353 1_555
O4 P0 1.569429 1_555
O4 V5 1.861431 1_555
O5 P3 1.602473 1_555
O5 V4 1.811190 1_555
O6 P2 1.547980 1_555
O6 V4 1.923693 1_555
O7 P15 1.479975 1_455
O8 P5 1.539317 1_555
O8 V5 1.922389 1_555
O9 P4 1.607688 1_555
O9 V2 1.816459 1_555
O10 P1 1.577976 1_555
O10 V3 1.867028 1_565
O11 P4 1.568103 1_555
O11 V5 1.895890 1_555
O12 P3 1.481094 1_555
O13 P4 1.482926 1_555
O14 P3 1.564978 1_555
O14 V0 1.939424 1_555
O15 P7 1.552750 1_555
O15 V2 1.875899 1_555
O16 P3 1.571650 1_555
O16 V3 1.940105 1_565
O17 P2 1.567286 1_555
O17 V0 1.831409 1_555
O18 P5 1.599025 1_555
O18 P6 1.623879 1_555
O19 P6 1.472928 1_555
O20 P5 1.499245 1_555
O21 P5 1.558408 1_555
O21 V1 1.866758 1_555
O22 P4 1.571507 1_555
O22 V1 1.985279 1_555
O23 P8 1.559832 1_555
O23 V0 1.955395 1_555
O24 P9 1.554968 1_555
O24 V0 1.882606 1_555
O25 P9 1.550344 1_555
O25 V3 1.898059 1_565
O26 P8 1.609859 1_565
O26 P1 1.621405 1_555
O27 P1 1.477921 1_555
O28 P14 1.489508 1_565
O29 P6 1.558367 1_555
O29 V2 1.846056 1_545
O30 P6 1.545218 1_555
O30 V1 1.913222 1_555
O31 P7 1.561481 1_555
O31 V1 1.860284 1_555
O32 P11 1.593672 1_555
O32 V0 1.841340 1_555
O33 P10 1.553086 1_555
O33 V0 1.884704 1_555
O34 P10 1.473258 1_555
O35 P9 1.499496 1_555
O36 P9 1.597125 1_555
O36 P10 1.635165 1_555
O37 P13 1.565827 1_555
O37 V1 1.924906 1_555
O38 P12 1.561090 1_555
O38 V2 1.983847 1_545
O39 P8 1.561004 1_555
O39 V3 1.863220 1_555
O40 P12 1.613629 1_555
O40 V1 1.803917 1_555
O41 P12 1.479238 1_555
O42 P11 1.479023 1_555
O43 P11 1.567819 1_555
O43 V4 1.961466 1_655
O44 P14 1.564467 1_555
O44 V2 1.885793 1_545
O45 P11 1.592221 1_555
O45 V3 1.851883 1_555
O46 P10 1.556878 1_555
O46 V4 1.874001 1_655
O47 P13 1.600931 1_455
O47 P0 1.640529 1_555
O48 P0 1.468608 1_655
O49 P13 1.552151 1_555
O49 V5 1.894260 1_655
O50 P12 1.568913 1_555
O50 V5 1.873551 1_655
O51 P15 1.567948 1_555
O51 V4 1.851011 1_655
O52 P15 1.554495 1_555
O52 V3 2.002503 1_555
O53 P7 1.473978 1_555
O54 P7 1.605448 1_545
O54 P14 1.620325 1_555
O55 P14 1.543342 1_555
O55 V5 1.907285 1_655
O56 P2 1.475137 1_555
O57 P15 1.609071 1_555
O57 P2 1.613323 1_655
