# generated using pymatgen
data_K3Li2Nb6(PO8)3
_symmetry_space_group_name_H-M   'P 1'
_cell_length_a   8.52016157
_cell_length_b   8.52016157
_cell_length_c   8.52016120
_cell_angle_alpha   103.22671961
_cell_angle_beta   103.22671961
_cell_angle_gamma   103.22672587
_symmetry_Int_Tables_number   1
_chemical_formula_structural   K3Li2Nb6(PO8)3
_chemical_formula_sum   'K3 Li2 Nb6 P3 O24'
_cell_volume   559.73481716
_cell_formula_units_Z   1
loop_
 _symmetry_equiv_pos_site_id
 _symmetry_equiv_pos_as_xyz
  1  'x, y, z'
loop_
 _atom_site_type_symbol
 _atom_site_label
 _atom_site_symmetry_multiplicity
 _atom_site_fract_x
 _atom_site_fract_y
 _atom_site_fract_z
 _atom_site_occupancy
  K  K0  1  0.40315800  0.08842800  0.68833900  1
  K  K1  1  0.08842800  0.68833900  0.40315800  1
  K  K2  1  0.68833900  0.40315800  0.08842800  1
  Li  Li0  1  0.63373900  0.63373900  0.63373900  1
  Li  Li1  1  0.36629800  0.36629800  0.36629800  1
  Nb  Nb0  1  0.65296800  0.84470400  0.97471200  1
  Nb  Nb1  1  0.97471200  0.65296800  0.84470400  1
  Nb  Nb2  1  0.02380900  0.15473400  0.34545500  1
  Nb  Nb3  1  0.84470400  0.97471200  0.65296800  1
  Nb  Nb4  1  0.34545500  0.02380900  0.15473400  1
  Nb  Nb5  1  0.15473400  0.34545500  0.02380900  1
  P  P0  1  0.28441000  0.50005900  0.71780600  1
  P  P1  1  0.71780600  0.28441000  0.50005900  1
  P  P2  1  0.50005900  0.71780600  0.28441000  1
  O  O0  1  0.02558300  0.50036600  0.97590400  1
  O  O1  1  0.15286900  0.84687000  0.00013000  1
  O  O2  1  0.29742100  0.41633400  0.86274900  1
  O  O3  1  0.79170100  0.68397000  0.93035800  1
  O  O4  1  0.00013000  0.15286900  0.84687000  1
  O  O5  1  0.13780800  0.58148300  0.70321200  1
  O  O6  1  0.45343000  0.63651300  0.75087800  1
  O  O7  1  0.25214500  0.36371200  0.54811000  1
  O  O8  1  0.68397000  0.93035800  0.79170100  1
  O  O9  1  0.70321200  0.13780800  0.58148300  1
  O  O10  1  0.75087800  0.45343000  0.63651300  1
  O  O11  1  0.93035800  0.79170100  0.68397000  1
  O  O12  1  0.97590400  0.02558300  0.50036600  1
  O  O13  1  0.20889400  0.07008600  0.31747500  1
  O  O14  1  0.54811000  0.25214500  0.36371200  1
  O  O15  1  0.86274900  0.29742100  0.41633400  1
  O  O16  1  0.07008600  0.31747500  0.20889400  1
  O  O17  1  0.63651300  0.75087800  0.45343000  1
  O  O18  1  0.36371200  0.54811000  0.25214500  1
  O  O19  1  0.41633400  0.86274900  0.29742100  1
  O  O20  1  0.31747500  0.20889400  0.07008600  1
  O  O21  1  0.58148300  0.70321200  0.13780800  1
  O  O22  1  0.84687000  0.00013000  0.15286900  1
  O  O23  1  0.50036600  0.97590400  0.02558300  1
loop_
_geom_bond_atom_site_label_1
_geom_bond_atom_site_label_2
_geom_bond_distance
_geom_bond_site_symmetry_2
K0 O9 2.879203 1_555
K0 O8 3.060529 1_545
K0 O13 3.163986 1_555
K0 O23 3.224334 1_546
K0 O7 3.247158 1_555
K0 O2 3.269522 1_555
K1 O5 2.879203 1_555
K1 O11 3.060529 1_455
K1 O16 3.163986 1_555
K1 O12 3.224334 1_465
K1 O18 3.247158 1_555
K1 O19 3.269522 1_555
K2 O21 2.879203 1_555
K2 O3 3.060528 1_554
K2 O20 3.163986 1_555
K2 O0 3.224334 1_654
K2 O14 3.247158 1_555
K2 O15 3.269522 1_555
Li0 O17 2.015987 1_555
Li0 O6 2.015987 1_555
Li0 O10 2.015987 1_555
Li0 O11 2.463016 1_555
Li0 O3 2.463016 1_555
Li0 O8 2.463016 1_555
Li1 O7 2.010301 1_555
Li1 O18 2.010301 1_555
Li1 O14 2.010301 1_555
Li1 O13 2.460993 1_555
Li1 O20 2.460993 1_555
Li1 O16 2.460994 1_555
Nb0 O8 1.911732 1_555
Nb0 O22 1.928354 1_566
Nb0 O23 1.956836 1_556
Nb0 O3 2.030719 1_555
Nb0 O21 2.138497 1_556
Nb0 O6 2.293924 1_555
Nb1 O3 1.911733 1_555
Nb1 O1 1.928354 1_656
Nb1 O0 1.956836 1_655
Nb1 O11 2.030719 1_555
Nb1 O5 2.138497 1_655
Nb1 O10 2.293924 1_555
Nb2 O22 1.915851 1_455
Nb2 O13 1.917699 1_555
Nb2 O12 1.955787 1_455
Nb2 O16 2.032208 1_555
Nb2 O15 2.128951 1_455
Nb2 O7 2.325351 1_555
Nb3 O11 1.911733 1_555
Nb3 O4 1.928354 1_665
Nb3 O12 1.956836 1_565
Nb3 O8 2.030719 1_555
Nb3 O9 2.138497 1_565
Nb3 O17 2.293924 1_555
Nb4 O1 1.915851 1_545
Nb4 O20 1.917699 1_555
Nb4 O23 1.955787 1_545
Nb4 O13 2.032208 1_555
Nb4 O19 2.128951 1_545
Nb4 O14 2.325351 1_555
Nb5 O4 1.915851 1_554
Nb5 O16 1.917699 1_555
Nb5 O0 1.955787 1_554
Nb5 O20 2.032209 1_555
Nb5 O2 2.128951 1_554
Nb5 O18 2.325351 1_555
O2 P0 1.556566 1_555
O5 P0 1.556234 1_555
O6 P0 1.550203 1_555
O7 P0 1.555289 1_555
O9 P1 1.556234 1_555
O10 P1 1.550203 1_555
O14 P1 1.555289 1_555
O15 P1 1.556566 1_555
O17 P2 1.550203 1_555
O18 P2 1.555289 1_555
O19 P2 1.556566 1_555
O21 P2 1.556234 1_555
