# generated using pymatgen
data_Li7Ca8Nb12O40
_symmetry_space_group_name_H-M   'P 1'
_cell_length_a   5.58942400
_cell_length_b   5.58920173
_cell_length_c   26.75144972
_cell_angle_alpha   89.98388534
_cell_angle_beta   89.68174238
_cell_angle_gamma   89.95490516
_symmetry_Int_Tables_number   1
_chemical_formula_structural   Li7Ca8Nb12O40
_chemical_formula_sum   'Li7 Ca8 Nb12 O40'
_cell_volume   835.71329567
_cell_formula_units_Z   1
loop_
 _symmetry_equiv_pos_site_id
 _symmetry_equiv_pos_as_xyz
  1  'x, y, z'
loop_
 _atom_site_type_symbol
 _atom_site_label
 _atom_site_symmetry_multiplicity
 _atom_site_fract_x
 _atom_site_fract_y
 _atom_site_fract_z
 _atom_site_occupancy
  Li  Li0  1  0.24797000  0.25502800  0.24922100  1
  Li  Li1  1  0.25211400  0.75746300  0.26067600  1
  Li  Li2  1  0.25148500  0.74280700  0.75949700  1
  Li  Li3  1  0.74968400  0.75447000  0.24930100  1
  Li  Li4  1  0.74882900  0.25558000  0.23985800  1
  Li  Li5  1  0.74643400  0.24241000  0.74003600  1
  Li  Li6  1  0.75136700  0.74469700  0.75068500  1
  Ca  Ca0  1  0.01043400  0.99115700  0.41768500  1
  Ca  Ca1  1  0.00865100  0.50833200  0.91594400  1
  Ca  Ca2  1  0.48994400  0.51164000  0.42149100  1
  Ca  Ca3  1  0.51012600  0.01148100  0.07839500  1
  Ca  Ca4  1  0.49000100  0.98715200  0.91952500  1
  Ca  Ca5  1  0.51134600  0.48828900  0.58050100  1
  Ca  Ca6  1  0.98958600  0.49104900  0.08234400  1
  Ca  Ca7  1  0.99002300  0.00729700  0.58397400  1
  Nb  Nb0  1  0.00528300  0.00071200  0.15375800  1
  Nb  Nb1  1  0.99954900  0.49947900  0.50021600  1
  Nb  Nb2  1  0.00627700  0.49976300  0.65532700  1
  Nb  Nb3  1  0.00045800  0.99949200  0.99974500  1
  Nb  Nb4  1  0.49785700  0.50819300  0.15375000  1
  Nb  Nb5  1  0.49676900  0.99019100  0.65525200  1
  Nb  Nb6  1  0.50047600  0.00041300  0.50022500  1
  Nb  Nb7  1  0.50224300  0.00869800  0.34618500  1
  Nb  Nb8  1  0.49943600  0.50043700  0.99975600  1
  Nb  Nb9  1  0.50299500  0.49035900  0.84471100  1
  Nb  Nb10  1  0.99477500  0.50113300  0.34611600  1
  Nb  Nb11  1  0.99388600  0.00035300  0.84466600  1
  O  O0  1  0.03036600  0.97611300  0.22431500  1
  O  O1  1  0.01556600  0.54767300  0.72333500  1
  O  O2  1  0.05019000  0.56235400  0.42702500  1
  O  O3  1  0.05086200  0.93652500  0.92877800  1
  O  O4  1  0.19568700  0.69605200  0.01675500  1
  O  O5  1  0.19438700  0.80525400  0.51512100  1
  O  O6  1  0.24652000  0.25431300  0.35973400  1
  O  O7  1  0.25100000  0.25643600  0.14047600  1
  O  O8  1  0.24923000  0.75430300  0.34036100  1
  O  O9  1  0.25371400  0.75615000  0.13064600  1
  O  O10  1  0.24667400  0.24597200  0.86113200  1
  O  O11  1  0.25153200  0.24392400  0.63880600  1
  O  O12  1  0.24936600  0.74612300  0.84148900  1
  O  O13  1  0.25333700  0.74384100  0.63045100  1
  O  O14  1  0.31061000  0.31115200  0.49920200  1
  O  O15  1  0.31085200  0.18970700  0.00100400  1
  O  O16  1  0.43899600  0.95174600  0.42704000  1
  O  O17  1  0.43822100  0.55001700  0.92881900  1
  O  O18  1  0.47142300  0.53511100  0.22431600  1
  O  O19  1  0.48662400  0.94224200  0.72333900  1
  O  O20  1  0.52789300  0.03422700  0.27556700  1
  O  O21  1  0.55160400  0.47906100  0.77662500  1
  O  O22  1  0.56148300  0.45153800  0.07296900  1
  O  O23  1  0.56218100  0.04866500  0.57122400  1
  O  O24  1  0.68876200  0.68934900  0.49900400  1
  O  O25  1  0.68976100  0.81084300  0.00083200  1
  O  O26  1  0.74654000  0.25621200  0.36909500  1
  O  O27  1  0.75050300  0.25368600  0.15967300  1
  O  O28  1  0.74871300  0.75641300  0.35976200  1
  O  O29  1  0.75383600  0.75364600  0.14058700  1
  O  O30  1  0.74640900  0.24396100  0.86965900  1
  O  O31  1  0.75072900  0.24566600  0.65840800  1
  O  O32  1  0.74855300  0.74395900  0.86184000  1
  O  O33  1  0.75310800  0.74530400  0.63793200  1
  O  O34  1  0.80451800  0.19587400  0.48340200  1
  O  O35  1  0.80539600  0.30502600  0.98476400  1
  O  O36  1  0.94946600  0.06242000  0.07297900  1
  O  O37  1  0.94846600  0.43732800  0.57122100  1
  O  O38  1  0.96979000  0.47587800  0.27559300  1
  O  O39  1  0.94673400  0.01026200  0.77666900  1
loop_
_geom_bond_atom_site_label_1
_geom_bond_atom_site_label_2
_geom_bond_distance
_geom_bond_site_symmetry_2
Li0 O0 2.089506 1_545
Li0 O38 2.103399 1_455
Li0 O18 2.108949 1_555
Li0 O20 2.115765 1_555
Li1 O18 1.994552 1_555
Li1 O0 1.996547 1_555
Li1 O8 2.131729 1_555
Li1 O20 2.222281 1_565
Li1 O38 2.263390 1_455
Li2 O1 1.970078 1_555
Li2 O19 1.973090 1_555
Li2 O12 2.193454 1_555
Li2 O21 2.280625 1_555
Li2 O39 2.309725 1_465
Li3 O18 2.093787 1_555
Li3 O0 2.105625 1_655
Li3 O38 2.106850 1_555
Li3 O20 2.112660 1_565
Li4 O20 1.989169 1_555
Li4 O38 1.992849 1_555
Li4 O27 2.145062 1_555
Li4 O18 2.240753 1_555
Li4 O0 2.253500 1_645
Li5 O21 1.969794 1_555
Li5 O39 1.976497 1_555
Li5 O31 2.183737 1_555
Li5 O19 2.265944 1_545
Li5 O1 2.317259 1_655
Li6 O39 1.972389 1_565
Li6 O1 1.978526 1_655
Li6 O21 1.981410 1_555
Li6 O19 1.988197 1_555
Ca0 O34 2.387703 1_465
Ca0 O16 2.419703 1_555
Ca0 O2 2.419764 1_555
Ca0 O26 2.465106 1_465
Ca0 O6 2.507398 1_565
Ca0 O28 2.508343 1_455
Ca0 O8 2.789430 1_555
Ca0 O5 2.992907 1_555
Ca1 O30 2.426850 1_455
Ca1 O3 2.429706 1_555
Ca1 O17 2.438864 1_555
Ca1 O35 2.439041 1_455
Ca1 O32 2.441735 1_455
Ca1 O10 2.459020 1_555
Ca1 O12 2.741423 1_555
Ca2 O26 2.456704 1_555
Ca2 O2 2.477654 1_555
Ca2 O16 2.480440 1_555
Ca2 O24 2.559246 1_555
Ca2 O14 2.561149 1_555
Ca2 O28 2.581836 1_555
Ca2 O6 2.584297 1_555
Ca3 O9 2.454447 1_545
Ca3 O36 2.475768 1_555
Ca3 O22 2.480603 1_555
Ca3 O15 2.557704 1_555
Ca3 O25 2.558784 1_545
Ca3 O7 2.588774 1_555
Ca3 O29 2.592499 1_545
Ca4 O30 2.423774 1_565
Ca4 O17 2.472843 1_555
Ca4 O3 2.482012 1_555
Ca4 O32 2.508127 1_555
Ca4 O10 2.530174 1_565
Ca4 O25 2.640597 1_556
Ca4 O15 2.647781 1_566
Ca5 O13 2.425241 1_555
Ca5 O37 2.470715 1_555
Ca5 O23 2.485630 1_555
Ca5 O33 2.505468 1_555
Ca5 O11 2.526638 1_555
Ca5 O24 2.641154 1_555
Ca5 O14 2.645600 1_555
Ca6 O4 2.386850 1_655
Ca6 O22 2.417628 1_555
Ca6 O36 2.419547 1_555
Ca6 O9 2.463805 1_655
Ca6 O29 2.508700 1_555
Ca6 O7 2.508773 1_655
Ca7 O13 2.428199 1_645
Ca7 O23 2.428310 1_555
Ca7 O37 2.438615 1_555
Ca7 O5 2.438944 1_645
Ca7 O33 2.441723 1_545
Ca7 O11 2.462770 1_655
Ca7 O31 2.738247 1_555
Nb0 O0 1.898417 1_545
Nb0 O29 2.003781 1_445
Nb0 O27 2.011630 1_455
Nb0 O7 2.013152 1_555
Nb0 O9 2.041280 1_545
Nb0 O36 2.211994 1_455
Nb1 O37 1.950385 1_555
Nb1 O2 2.007700 1_655
Nb1 O14 2.031802 1_655
Nb1 O24 2.035322 1_555
Nb1 O5 2.067347 1_655
Nb1 O34 2.068563 1_555
Nb2 O1 1.840012 1_555
Nb2 O31 2.016385 1_455
Nb2 O33 2.026397 1_455
Nb2 O11 2.027257 1_555
Nb2 O13 2.050143 1_555
Nb2 O37 2.301563 1_455
Nb3 O3 1.949794 1_555
Nb3 O36 2.009254 1_466
Nb3 O25 2.032423 1_456
Nb3 O15 2.035916 1_566
Nb3 O35 2.065691 1_465
Nb3 O4 2.067937 1_556
Nb4 O18 1.898701 1_555
Nb4 O7 2.004665 1_555
Nb4 O27 2.010457 1_555
Nb4 O29 2.012562 1_555
Nb4 O9 2.042246 1_555
Nb4 O22 2.210967 1_555
Nb5 O19 1.841530 1_555
Nb5 O31 2.016326 1_565
Nb5 O11 2.021621 1_565
Nb5 O33 2.032451 1_555
Nb5 O13 2.049605 1_555
Nb5 O23 2.298707 1_565
Nb6 O23 1.951112 1_555
Nb6 O16 2.008232 1_545
Nb6 O24 2.031781 1_545
Nb6 O14 2.034894 1_555
Nb6 O5 2.066583 1_545
Nb6 O34 2.068382 1_555
Nb7 O20 1.899108 1_555
Nb7 O28 2.005065 1_545
Nb7 O6 2.012559 1_555
Nb7 O8 2.012875 1_545
Nb7 O26 2.041252 1_555
Nb7 O16 2.212716 1_545
Nb8 O17 1.949814 1_555
Nb8 O22 2.009478 1_556
Nb8 O15 2.032459 1_556
Nb8 O25 2.036109 1_556
Nb8 O35 2.065913 1_555
Nb8 O4 2.067224 1_556
Nb9 O21 1.841152 1_555
Nb9 O12 2.014634 1_555
Nb9 O10 2.026592 1_555
Nb9 O32 2.028128 1_555
Nb9 O30 2.049319 1_555
Nb9 O17 2.301303 1_555
Nb10 O38 1.897832 1_555
Nb10 O6 2.004526 1_655
Nb10 O8 2.012314 1_655
Nb10 O28 2.013021 1_555
Nb10 O26 2.042052 1_555
Nb10 O2 2.214909 1_655
Nb11 O39 1.840272 1_555
Nb11 O12 2.015185 1_645
Nb11 O10 2.021226 1_655
Nb11 O32 2.034890 1_545
Nb11 O30 2.049774 1_555
Nb11 O3 2.301966 1_645
