# generated using pymatgen
data_Ba3LaI9
_symmetry_space_group_name_H-M   'P 1'
_cell_length_a   8.08942900
_cell_length_b   8.69131700
_cell_length_c   33.89918334
_cell_angle_alpha   87.91646455
_cell_angle_beta   90.00000000
_cell_angle_gamma   90.00000000
_symmetry_Int_Tables_number   1
_chemical_formula_structural   Ba3LaI9
_chemical_formula_sum   'Ba12 La4 I36'
_cell_volume   2381.80103223
_cell_formula_units_Z   4
loop_
 _symmetry_equiv_pos_site_id
 _symmetry_equiv_pos_as_xyz
  1  'x, y, z'
loop_
 _atom_site_type_symbol
 _atom_site_label
 _atom_site_symmetry_multiplicity
 _atom_site_fract_x
 _atom_site_fract_y
 _atom_site_fract_z
 _atom_site_occupancy
  Ba  Ba0  1  0.96980100  0.67889400  0.93300200  1
  Ba  Ba1  1  0.00259500  0.70631800  0.69205900  1
  Ba  Ba2  1  0.03019900  0.67889400  0.43300200  1
  Ba  Ba3  1  0.99740500  0.70631800  0.19205900  1
  Ba  Ba4  1  0.98554900  0.31671700  0.57015500  1
  Ba  Ba5  1  0.98219900  0.28433900  0.80838700  1
  Ba  Ba6  1  0.01445100  0.31671700  0.07015500  1
  Ba  Ba7  1  0.01780100  0.28433900  0.30838700  1
  Ba  Ba8  1  0.52652600  0.21546300  0.69215600  1
  Ba  Ba9  1  0.51747800  0.17848700  0.93074000  1
  Ba  Ba10  1  0.47347400  0.21546300  0.19215600  1
  Ba  Ba11  1  0.48252200  0.17848700  0.43074000  1
  La  La0  1  0.52016600  0.79783700  0.80652000  1
  La  La1  1  0.54615000  0.82147400  0.56718100  1
  La  La2  1  0.47983400  0.79783700  0.30652000  1
  La  La3  1  0.45385000  0.82147400  0.06718100  1
  I  I0  1  0.79706800  0.97832600  0.86849100  1
  I  I1  1  0.81601800  0.98378800  0.75255700  1
  I  I2  1  0.81221800  0.99279400  0.62740700  1
  I  I3  1  0.20293200  0.97832600  0.36849100  1
  I  I4  1  0.18398200  0.98378800  0.25255700  1
  I  I5  1  0.70247500  0.89056200  0.99368200  1
  I  I6  1  0.18778200  0.99279400  0.12740700  1
  I  I7  1  0.33330500  0.84640900  0.89242000  1
  I  I8  1  0.29752500  0.89056200  0.49368200  1
  I  I9  1  0.39927500  0.84146300  0.70767400  1
  I  I10  1  0.66669500  0.84640900  0.39242000  1
  I  I11  1  0.60072500  0.84146300  0.20767400  1
  I  I12  1  0.16229800  0.64603300  0.79598000  1
  I  I13  1  0.21099800  0.65059100  0.59924200  1
  I  I14  1  0.83770200  0.64603300  0.29598000  1
  I  I15  1  0.78900200  0.65059100  0.09924200  1
  I  I16  1  0.74303000  0.58813700  0.51110600  1
  I  I17  1  0.67702200  0.50836600  0.86690000  1
  I  I18  1  0.69052000  0.51447300  0.75217400  1
  I  I19  1  0.69708800  0.52731800  0.62785800  1
  I  I20  1  0.25697000  0.58813700  0.01110600  1
  I  I21  1  0.32297800  0.50836600  0.36690000  1
  I  I22  1  0.30948000  0.51447300  0.25217400  1
  I  I23  1  0.30291200  0.52731800  0.12785800  1
  I  I24  1  0.76213200  0.39791900  0.99024400  1
  I  I25  1  0.23786800  0.39791900  0.49024400  1
  I  I26  1  0.15076000  0.34373400  0.90076700  1
  I  I27  1  0.11144000  0.32215200  0.69872100  1
  I  I28  1  0.84924000  0.34373400  0.40076700  1
  I  I29  1  0.88856000  0.32215200  0.19872100  1
  I  I30  1  0.39280100  0.14765700  0.79750300  1
  I  I31  1  0.35591900  0.12420100  0.59856700  1
  I  I32  1  0.60719900  0.14765700  0.29750300  1
  I  I33  1  0.64408100  0.12420100  0.09856700  1
  I  I34  1  0.75533400  0.06581700  0.51031800  1
  I  I35  1  0.24466600  0.06581700  0.01031800  1
loop_
_geom_bond_atom_site_label_1
_geom_bond_atom_site_label_2
_geom_bond_distance
_geom_bond_site_symmetry_2
Ba0 I26 3.471868 1_655
Ba0 I24 3.493784 1_555
Ba0 I7 3.537428 1_655
Ba0 I5 3.545037 1_555
Ba0 I20 3.588445 1_656
Ba0 I17 3.615071 1_555
Ba0 I0 3.618542 1_555
Ba1 I27 3.452499 1_555
Ba1 I9 3.464419 1_555
Ba1 I1 3.557983 1_455
Ba1 I2 3.602449 1_455
Ba1 I18 3.613735 1_455
Ba1 I13 3.617663 1_555
Ba1 I19 3.675703 1_455
Ba1 I12 3.770904 1_555
Ba2 I28 3.471868 1_455
Ba2 I25 3.493784 1_555
Ba2 I10 3.537428 1_455
Ba2 I8 3.545037 1_555
Ba2 I16 3.588445 1_455
Ba2 I21 3.615071 1_555
Ba2 I3 3.618542 1_555
Ba3 I29 3.452499 1_555
Ba3 I11 3.464419 1_555
Ba3 I4 3.557983 1_655
Ba3 I6 3.602449 1_655
Ba3 I22 3.613735 1_655
Ba3 I15 3.617663 1_555
Ba3 I23 3.675703 1_655
Ba3 I14 3.770904 1_555
Ba4 I25 3.444338 1_655
Ba4 I31 3.547764 1_655
Ba4 I34 3.558029 1_555
Ba4 I19 3.589168 1_555
Ba4 I13 3.595392 1_655
Ba4 I16 3.616239 1_555
Ba4 I2 3.641624 1_545
Ba5 I26 3.471353 1_655
Ba5 I12 3.476422 1_655
Ba5 I1 3.545709 1_545
Ba5 I30 3.551312 1_655
Ba5 I18 3.594727 1_555
Ba5 I0 3.615780 1_545
Ba5 I17 3.755123 1_555
Ba5 I27 3.864281 1_655
Ba6 I24 3.444338 1_454
Ba6 I33 3.547764 1_455
Ba6 I35 3.558029 1_555
Ba6 I23 3.589168 1_555
Ba6 I15 3.595392 1_455
Ba6 I20 3.616239 1_555
Ba6 I6 3.641624 1_545
Ba7 I28 3.471353 1_455
Ba7 I14 3.476422 1_455
Ba7 I4 3.545709 1_545
Ba7 I32 3.551312 1_455
Ba7 I22 3.594727 1_555
Ba7 I3 3.615780 1_545
Ba7 I21 3.755123 1_555
Ba7 I29 3.864281 1_455
Ba8 I9 3.431927 1_545
Ba8 I27 3.492741 1_555
Ba8 I31 3.575216 1_555
Ba8 I18 3.610752 1_555
Ba8 I1 3.664864 1_545
Ba8 I19 3.683944 1_555
Ba8 I30 3.757364 1_555
Ba8 I2 3.770023 1_545
Ba9 I26 3.433560 1_555
Ba9 I24 3.450026 1_555
Ba9 I7 3.536927 1_545
Ba9 I5 3.558956 1_545
Ba9 I0 3.586315 1_545
Ba9 I35 3.593665 1_556
Ba9 I17 3.757410 1_555
Ba10 I11 3.431927 1_545
Ba10 I29 3.492741 1_555
Ba10 I33 3.575216 1_555
Ba10 I22 3.610752 1_555
Ba10 I4 3.664864 1_545
Ba10 I23 3.683944 1_555
Ba10 I32 3.757364 1_555
Ba10 I6 3.770023 1_545
Ba11 I28 3.433560 1_555
Ba11 I25 3.450026 1_555
Ba11 I10 3.536927 1_545
Ba11 I8 3.558956 1_545
Ba11 I3 3.586315 1_545
Ba11 I34 3.593665 1_555
Ba11 I21 3.757410 1_555
I0 La0 3.482977 1_555
I1 La0 3.386902 1_555
I2 La1 3.352446 1_555
I3 La2 3.482977 1_555
I4 La2 3.386902 1_555
I5 La3 3.241094 1_556
I6 La3 3.352446 1_555
I7 La0 3.321434 1_555
I8 La1 3.241094 1_555
I9 La0 3.497942 1_555
I10 La2 3.321434 1_555
I11 La2 3.497942 1_555
I12 La0 3.206777 1_555
I13 La1 3.258866 1_555
I14 La2 3.206777 1_555
I15 La3 3.258866 1_555
I16 La1 3.247006 1_555
I17 La0 3.428527 1_555
I18 La0 3.418832 1_555
I19 La1 3.446089 1_555
I20 La3 3.247006 1_555
I21 La2 3.428527 1_555
I22 La2 3.418832 1_555
I23 La3 3.446089 1_555
I30 La0 3.214251 1_545
I31 La1 3.259804 1_545
I32 La2 3.214251 1_545
I33 La3 3.259804 1_545
I34 La1 3.285032 1_545
I35 La3 3.285032 1_545
