# generated using pymatgen
data_Y2HgO4
_symmetry_space_group_name_H-M   'P 1'
_cell_length_a   6.87213463
_cell_length_b   6.87213463
_cell_length_c   6.87213463
_cell_angle_alpha   60.00000000
_cell_angle_beta   60.00000000
_cell_angle_gamma   60.00000000
_symmetry_Int_Tables_number   1
_chemical_formula_structural   Y2HgO4
_chemical_formula_sum   'Y4 Hg2 O8'
_cell_volume   229.48799933
_cell_formula_units_Z   2
loop_
 _symmetry_equiv_pos_site_id
 _symmetry_equiv_pos_as_xyz
  1  'x, y, z'
loop_
 _atom_site_type_symbol
 _atom_site_label
 _atom_site_symmetry_multiplicity
 _atom_site_fract_x
 _atom_site_fract_y
 _atom_site_fract_z
 _atom_site_occupancy
  Y  Y0  1  0.62500000  0.62500000  0.62500000  1
  Y  Y1  1  0.12500000  0.62500000  0.62500000  1
  Y  Y2  1  0.62500000  0.12500000  0.62500000  1
  Y  Y3  1  0.62500000  0.62500000  0.12500000  1
  Hg  Hg0  1  0.25000000  0.25000000  0.25000000  1
  Hg  Hg1  1  0.00000000  0.00000000  0.00000000  1
  O  O0  1  0.86018700  0.41943900  0.86018700  1
  O  O1  1  0.86018700  0.86018700  0.41943900  1
  O  O2  1  0.86018700  0.86018700  0.86018700  1
  O  O3  1  0.41943900  0.86018700  0.86018700  1
  O  O4  1  0.38981300  0.38981300  0.38981300  1
  O  O5  1  0.83056100  0.38981300  0.38981300  1
  O  O6  1  0.38981300  0.83056100  0.38981300  1
  O  O7  1  0.38981300  0.38981300  0.83056100  1
loop_
_geom_bond_atom_site_label_1
_geom_bond_atom_site_label_2
_geom_bond_distance
_geom_bond_site_symmetry_2
Hg0 O4 2.353503 1_555
Hg0 O6 2.353503 1_545
Hg0 O7 2.353503 1_554
Hg0 O5 2.353503 1_455
Hg1 O0 2.353503 1_454
Hg1 O3 2.353503 1_544
Hg1 O1 2.353503 1_445
Hg1 O2 2.353503 1_444
O0 Y0 2.294753 1_555
O0 Y1 2.294753 1_655
O0 Y3 2.294753 1_556
O1 Y0 2.294753 1_555
O1 Y1 2.294753 1_655
O1 Y2 2.294753 1_565
O2 Y1 2.294753 1_655
O2 Y2 2.294753 1_565
O2 Y3 2.294753 1_556
O3 Y0 2.294753 1_555
O3 Y3 2.294753 1_556
O3 Y2 2.294753 1_565
O4 Y1 2.294753 1_555
O4 Y3 2.294753 1_555
O4 Y2 2.294753 1_555
O5 Y3 2.294753 1_555
O5 Y2 2.294753 1_555
O5 Y0 2.294753 1_555
O6 Y1 2.294753 1_555
O6 Y3 2.294753 1_555
O6 Y0 2.294753 1_555
O7 Y1 2.294753 1_555
O7 Y2 2.294753 1_555
O7 Y0 2.294753 1_555
