# generated using pymatgen
data_Na6Sn2P(CO4)4
_symmetry_space_group_name_H-M   'P 1'
_cell_length_a   10.27685661
_cell_length_b   10.27685661
_cell_length_c   10.27685661
_cell_angle_alpha   60.00000000
_cell_angle_beta   60.00000000
_cell_angle_gamma   60.00000000
_symmetry_Int_Tables_number   1
_chemical_formula_structural   Na6Sn2P(CO4)4
_chemical_formula_sum   'Na12 Sn4 P2 C8 O32'
_cell_volume   767.47792632
_cell_formula_units_Z   2
loop_
 _symmetry_equiv_pos_site_id
 _symmetry_equiv_pos_as_xyz
  1  'x, y, z'
loop_
 _atom_site_type_symbol
 _atom_site_label
 _atom_site_symmetry_multiplicity
 _atom_site_fract_x
 _atom_site_fract_y
 _atom_site_fract_z
 _atom_site_occupancy
  Na  Na0  1  0.55038200  0.94961800  0.55038200  1
  Na  Na1  1  0.30038200  0.69961800  0.30038200  1
  Na  Na2  1  0.69961800  0.69961800  0.30038200  1
  Na  Na3  1  0.94961800  0.94961800  0.55038200  1
  Na  Na4  1  0.30038200  0.69961800  0.69961800  1
  Na  Na5  1  0.55038200  0.94961800  0.94961800  1
  Na  Na6  1  0.55038200  0.55038200  0.94961800  1
  Na  Na7  1  0.94961800  0.55038200  0.55038200  1
  Na  Na8  1  0.69961800  0.30038200  0.30038200  1
  Na  Na9  1  0.30038200  0.30038200  0.69961800  1
  Na  Na10  1  0.94961800  0.55038200  0.94961800  1
  Na  Na11  1  0.69961800  0.30038200  0.69961800  1
  Sn  Sn0  1  0.12500000  0.12500000  0.12500000  1
  Sn  Sn1  1  0.12500000  0.12500000  0.62500000  1
  Sn  Sn2  1  0.62500000  0.12500000  0.12500000  1
  Sn  Sn3  1  0.12500000  0.62500000  0.12500000  1
  P  P0  1  0.75000000  0.75000000  0.75000000  1
  P  P1  1  0.50000000  0.50000000  0.50000000  1
  C  C0  1  0.30224200  0.89925300  0.89925300  1
  C  C1  1  0.89925300  0.89925300  0.30224200  1
  C  C2  1  0.89925300  0.30224200  0.89925300  1
  C  C3  1  0.35074700  0.35074700  0.35074700  1
  C  C4  1  0.35074700  0.94775800  0.35074700  1
  C  C5  1  0.89925300  0.89925300  0.89925300  1
  C  C6  1  0.35074700  0.35074700  0.94775800  1
  C  C7  1  0.94775800  0.35074700  0.35074700  1
  O  O0  1  0.30250500  0.76988300  0.90400200  1
  O  O1  1  0.68803100  0.68803100  0.68803100  1
  O  O2  1  0.02360900  0.76988300  0.30250500  1
  O  O3  1  0.76988300  0.90400200  0.30250500  1
  O  O4  1  0.93590700  0.68803100  0.68803100  1
  O  O5  1  0.68803100  0.68803100  0.93590700  1
  O  O6  1  0.30250500  0.02360900  0.76988300  1
  O  O7  1  0.30250500  0.90400200  0.02360900  1
  O  O8  1  0.68803100  0.93590700  0.68803100  1
  O  O9  1  0.90400200  0.30250500  0.76988300  1
  O  O10  1  0.48011700  0.22639100  0.34599800  1
  O  O11  1  0.90400200  0.02360900  0.30250500  1
  O  O12  1  0.76988300  0.30250500  0.02360900  1
  O  O13  1  0.22639100  0.34599800  0.48011700  1
  O  O14  1  0.90400200  0.76988300  0.02360900  1
  O  O15  1  0.22639100  0.94749500  0.34599800  1
  O  O16  1  0.02360900  0.30250500  0.90400200  1
  O  O17  1  0.34599800  0.48011700  0.22639100  1
  O  O18  1  0.02360900  0.90400200  0.76988300  1
  O  O19  1  0.48011700  0.94749500  0.22639100  1
  O  O20  1  0.34599800  0.22639100  0.94749500  1
  O  O21  1  0.76988300  0.02360900  0.90400200  1
  O  O22  1  0.34599800  0.94749500  0.48011700  1
  O  O23  1  0.56196900  0.31409300  0.56196900  1
  O  O24  1  0.94749500  0.34599800  0.22639100  1
  O  O25  1  0.94749500  0.22639100  0.48011700  1
  O  O26  1  0.31409300  0.56196900  0.56196900  1
  O  O27  1  0.56196900  0.56196900  0.31409300  1
  O  O28  1  0.48011700  0.34599800  0.94749500  1
  O  O29  1  0.22639100  0.48011700  0.94749500  1
  O  O30  1  0.56196900  0.56196900  0.56196900  1
  O  O31  1  0.94749500  0.48011700  0.34599800  1
loop_
_geom_bond_atom_site_label_1
_geom_bond_atom_site_label_2
_geom_bond_distance
_geom_bond_site_symmetry_2
Na0 O8 2.371598 1_555
Na0 O1 2.371598 1_555
Na0 O6 2.487542 1_565
Na0 O3 2.487544 1_555
Na0 O22 2.551862 1_555
Na0 O10 2.551868 1_565
Na1 O26 2.371598 1_555
Na1 O27 2.371598 1_555
Na1 O17 2.487537 1_555
Na1 O15 2.487547 1_555
Na1 O7 2.551869 1_555
Na1 O2 2.551872 1_555
Na2 O27 2.371598 1_555
Na2 O30 2.371598 1_555
Na2 O19 2.487542 1_555
Na2 O31 2.487544 1_555
Na2 O3 2.551862 1_555
Na2 O14 2.551868 1_555
Na3 O8 2.371598 1_555
Na3 O4 2.371598 1_555
Na3 O18 2.487537 1_655
Na3 O11 2.487547 1_565
Na3 O15 2.551869 1_655
Na3 O25 2.551872 1_565
Na4 O26 2.371598 1_555
Na4 O30 2.371598 1_555
Na4 O29 2.487542 1_555
Na4 O22 2.487544 1_555
Na4 O0 2.551862 1_555
Na4 O18 2.551868 1_555
Na5 O8 2.371598 1_555
Na5 O5 2.371598 1_555
Na5 O21 2.487537 1_565
Na5 O7 2.487547 1_556
Na5 O20 2.551869 1_565
Na5 O19 2.551872 1_556
Na6 O5 2.371598 1_555
Na6 O1 2.371598 1_555
Na6 O12 2.487542 1_556
Na6 O0 2.487544 1_555
Na6 O28 2.551862 1_555
Na6 O17 2.551868 1_556
Na7 O4 2.371598 1_555
Na7 O1 2.371598 1_555
Na7 O2 2.487542 1_655
Na7 O9 2.487544 1_555
Na7 O31 2.551862 1_555
Na7 O13 2.551868 1_655
Na8 O23 2.371598 1_555
Na8 O27 2.371598 1_555
Na8 O10 2.487537 1_555
Na8 O24 2.487547 1_555
Na8 O11 2.551869 1_555
Na8 O12 2.551872 1_555
Na9 O23 2.371598 1_555
Na9 O26 2.371598 1_555
Na9 O13 2.487537 1_555
Na9 O20 2.487547 1_555
Na9 O16 2.551869 1_555
Na9 O6 2.551872 1_555
Na10 O4 2.371598 1_555
Na10 O5 2.371598 1_555
Na10 O14 2.487537 1_556
Na10 O16 2.487547 1_655
Na10 O24 2.551869 1_556
Na10 O29 2.551872 1_655
Na11 O23 2.371598 1_555
Na11 O30 2.371598 1_555
Na11 O25 2.487542 1_555
Na11 O28 2.487544 1_555
Na11 O9 2.551862 1_555
Na11 O21 2.551868 1_555
C0 O7 1.304455 1_556
C0 O6 1.304466 1_565
C0 O0 1.304475 1_555
C1 O11 1.304455 1_565
C1 O2 1.304466 1_655
C1 O3 1.304475 1_555
C2 O16 1.304455 1_655
C2 O12 1.304466 1_556
C2 O9 1.304475 1_555
C3 O10 1.304465 1_555
C3 O13 1.304465 1_555
C3 O17 1.304465 1_555
C4 O15 1.304455 1_555
C4 O19 1.304466 1_555
C4 O22 1.304475 1_555
C5 O14 1.304465 1_556
C5 O21 1.304465 1_565
C5 O18 1.304465 1_655
C6 O20 1.304455 1_555
C6 O29 1.304466 1_555
C6 O28 1.304475 1_555
C7 O24 1.304455 1_555
C7 O25 1.304466 1_555
C7 O31 1.304475 1_555
O0 Sn3 2.427810 1_556
O1 P0 1.559949 1_555
O2 Sn3 2.427807 1_555
O3 Sn2 2.427810 1_565
O4 P0 1.559949 1_555
O5 P0 1.559949 1_555
O6 Sn1 2.427807 1_555
O7 Sn0 2.427815 1_565
O8 P0 1.559949 1_555
O9 Sn1 2.427810 1_655
O10 Sn2 2.427816 1_555
O11 Sn0 2.427815 1_655
O12 Sn2 2.427807 1_555
O13 Sn1 2.427816 1_555
O14 Sn3 2.427816 1_655
O15 Sn0 2.427815 1_565
O16 Sn0 2.427815 1_556
O17 Sn3 2.427816 1_555
O18 Sn1 2.427816 1_565
O19 Sn2 2.427807 1_565
O20 Sn0 2.427815 1_556
O21 Sn2 2.427816 1_556
O22 Sn1 2.427810 1_565
O23 P1 1.559949 1_555
O24 Sn0 2.427815 1_655
O25 Sn1 2.427807 1_655
O26 P1 1.559949 1_555
O27 P1 1.559949 1_555
O28 Sn2 2.427810 1_556
O29 Sn3 2.427807 1_556
O30 P1 1.559949 1_555
O31 Sn3 2.427810 1_655
