# generated using pymatgen
data_Li11Ni13O24
_symmetry_space_group_name_H-M   'P 1'
_cell_length_a   7.62393677
_cell_length_b   7.62393677
_cell_length_c   9.71305910
_cell_angle_alpha   58.95232354
_cell_angle_beta   58.95232354
_cell_angle_gamma   69.49739733
_symmetry_Int_Tables_number   1
_chemical_formula_structural   Li11Ni13O24
_chemical_formula_sum   'Li11 Ni13 O24'
_cell_volume   411.65287670
_cell_formula_units_Z   1
loop_
 _symmetry_equiv_pos_site_id
 _symmetry_equiv_pos_as_xyz
  1  'x, y, z'
loop_
 _atom_site_type_symbol
 _atom_site_label
 _atom_site_symmetry_multiplicity
 _atom_site_fract_x
 _atom_site_fract_y
 _atom_site_fract_z
 _atom_site_occupancy
  Li  Li0  1  0.16685200  0.83314800  0.50000000  1
  Li  Li1  1  0.74991400  0.74991400  0.75263100  1
  Li  Li2  1  0.41641800  0.08735000  0.74799000  1
  Li  Li3  1  0.66469300  0.33530700  0.00000000  1
  Li  Li4  1  0.33530700  0.66469300  0.00000000  1
  Li  Li5  1  0.91265000  0.58358200  0.25201000  1
  Li  Li6  1  0.58358200  0.91265000  0.25201000  1
  Li  Li7  1  0.25008600  0.25008600  0.24736900  1
  Li  Li8  1  0.83314800  0.16685200  0.50000000  1
  Li  Li9  1  0.50000000  0.50000000  0.50000000  1
  Li  Li10  1  0.08735000  0.41641800  0.74799000  1
  Ni  Ni0  1  0.70930800  0.04111000  0.87589700  1
  Ni  Ni1  1  0.29069200  0.95889000  0.12410300  1
  Ni  Ni2  1  0.20722800  0.53769400  0.37664500  1
  Ni  Ni3  1  0.87625600  0.87625600  0.37289300  1
  Ni  Ni4  1  0.46230600  0.79277200  0.62335500  1
  Ni  Ni5  1  0.79277200  0.46230600  0.62335500  1
  Ni  Ni6  1  0.00000000  0.00000000  0.00000000  1
  Ni  Ni7  1  0.04111000  0.70930800  0.87589700  1
  Ni  Ni8  1  0.37626300  0.37626300  0.87267200  1
  Ni  Ni9  1  0.62373700  0.62373700  0.12732800  1
  Ni  Ni10  1  0.95889000  0.29069200  0.12410300  1
  Ni  Ni11  1  0.53769400  0.20722800  0.37664500  1
  Ni  Ni12  1  0.12374400  0.12374400  0.62710700  1
  O  O0  1  0.39736700  0.71741300  0.30267100  1
  O  O1  1  0.05271700  0.05271700  0.30989100  1
  O  O2  1  0.94728300  0.94728300  0.69010900  1
  O  O3  1  0.64132000  0.98454200  0.54771200  1
  O  O4  1  0.98454200  0.64132000  0.54771200  1
  O  O5  1  0.53178200  0.84882800  0.94963500  1
  O  O6  1  0.77914100  0.10823500  0.18887600  1
  O  O7  1  0.10823500  0.77914100  0.18887600  1
  O  O8  1  0.42630400  0.42630400  0.21046200  1
  O  O9  1  0.01545800  0.35868000  0.45228800  1
  O  O10  1  0.35868000  0.01545800  0.45228800  1
  O  O11  1  0.70253300  0.70253300  0.43259800  1
  O  O12  1  0.89176500  0.22085900  0.81112400  1
  O  O13  1  0.22085900  0.89176500  0.81112400  1
  O  O14  1  0.57369600  0.57369600  0.78953800  1
  O  O15  1  0.15117200  0.46821800  0.05036500  1
  O  O16  1  0.46821800  0.15117200  0.05036500  1
  O  O17  1  0.81540700  0.81540700  0.05457900  1
  O  O18  1  0.71741300  0.39736700  0.30267100  1
  O  O19  1  0.60263300  0.28258700  0.69732900  1
  O  O20  1  0.28258700  0.60263300  0.69732900  1
  O  O21  1  0.29746700  0.29746700  0.56740200  1
  O  O22  1  0.18459300  0.18459300  0.94542100  1
  O  O23  1  0.84882800  0.53178200  0.94963500  1
loop_
_geom_bond_atom_site_label_1
_geom_bond_atom_site_label_2
_geom_bond_distance
_geom_bond_site_symmetry_2
Li0 O10 2.084684 1_565
Li0 O4 2.084684 1_455
Li0 O2 2.101828 1_455
Li0 O1 2.101828 1_565
Li0 O20 2.173573 1_555
Li0 O0 2.173573 1_555
Li1 O14 2.002285 1_555
Li1 O23 2.079269 1_555
Li1 O5 2.079269 1_555
Li1 O2 2.144325 1_555
Li1 O3 2.199246 1_555
Li1 O4 2.199246 1_555
Li2 O21 2.046973 1_555
Li2 O22 2.098418 1_555
Li2 O19 2.115983 1_555
Li2 O13 2.119770 1_545
Li2 O3 2.128222 1_545
Li2 O5 2.213407 1_545
Li3 O12 2.107361 1_554
Li3 O6 2.107361 1_555
Li3 O16 2.112483 1_555
Li3 O23 2.112483 1_554
Li3 O8 2.170396 1_555
Li3 O14 2.170396 1_554
Li4 O13 2.107361 1_554
Li4 O7 2.107361 1_555
Li4 O5 2.112483 1_554
Li4 O15 2.112483 1_555
Li4 O8 2.170396 1_555
Li4 O14 2.170396 1_554
Li5 O11 2.046973 1_555
Li5 O17 2.098418 1_555
Li5 O18 2.115983 1_555
Li5 O7 2.119770 1_655
Li5 O9 2.128222 1_655
Li5 O15 2.213407 1_655
Li6 O11 2.046973 1_555
Li6 O17 2.098418 1_555
Li6 O0 2.115983 1_555
Li6 O6 2.119770 1_565
Li6 O10 2.128222 1_565
Li6 O16 2.213407 1_565
Li7 O8 2.002285 1_555
Li7 O16 2.079269 1_555
Li7 O15 2.079269 1_555
Li7 O1 2.144325 1_555
Li7 O9 2.199246 1_555
Li7 O10 2.199246 1_555
Li8 O9 2.084684 1_655
Li8 O3 2.084684 1_545
Li8 O2 2.101828 1_545
Li8 O1 2.101828 1_655
Li8 O19 2.173573 1_555
Li8 O18 2.173573 1_555
Li9 O20 2.096360 1_555
Li9 O19 2.096360 1_555
Li9 O0 2.096360 1_555
Li9 O18 2.096360 1_555
Li9 O11 2.186728 1_555
Li9 O21 2.186728 1_555
Li10 O21 2.046973 1_555
Li10 O22 2.098418 1_555
Li10 O20 2.115983 1_555
Li10 O12 2.119770 1_455
Li10 O4 2.128222 1_455
Li10 O23 2.213407 1_455
Ni0 O12 1.937027 1_555
Ni0 O5 1.949542 1_545
Ni0 O17 2.004983 1_546
Ni0 O2 2.026104 1_545
Ni0 O16 2.031677 1_556
Ni0 O19 2.042428 1_555
Ni1 O7 1.937027 1_555
Ni1 O16 1.949542 1_565
Ni1 O22 2.004983 1_564
Ni1 O1 2.026104 1_565
Ni1 O5 2.031677 1_554
Ni1 O0 2.042428 1_555
Ni2 O8 1.937978 1_555
Ni2 O4 1.942175 1_455
Ni2 O9 1.948188 1_555
Ni2 O0 1.948447 1_555
Ni2 O21 2.047562 1_555
Ni2 O7 2.065913 1_555
Ni3 O11 1.867864 1_555
Ni3 O1 1.887784 1_665
Ni3 O4 2.011462 1_555
Ni3 O3 2.011462 1_555
Ni3 O7 2.014413 1_655
Ni3 O6 2.014413 1_565
Ni4 O14 1.937978 1_555
Ni4 O10 1.942175 1_565
Ni4 O3 1.948188 1_555
Ni4 O20 1.948447 1_555
Ni4 O11 2.047562 1_555
Ni4 O13 2.065913 1_555
Ni5 O14 1.937978 1_555
Ni5 O9 1.942175 1_655
Ni5 O4 1.948188 1_555
Ni5 O19 1.948447 1_555
Ni5 O11 2.047562 1_555
Ni5 O12 2.065913 1_555
Ni6 O22 2.022478 1_554
Ni6 O17 2.022478 1_445
Ni6 O6 2.069690 1_455
Ni6 O7 2.069690 1_545
Ni6 O13 2.069690 1_544
Ni6 O12 2.069690 1_454
Ni7 O13 1.937027 1_555
Ni7 O23 1.949542 1_455
Ni7 O17 2.004983 1_456
Ni7 O2 2.026104 1_455
Ni7 O15 2.031677 1_556
Ni7 O20 2.042428 1_555
Ni8 O19 1.936107 1_555
Ni8 O20 1.936107 1_555
Ni8 O16 1.940485 1_556
Ni8 O15 1.940485 1_556
Ni8 O22 2.033619 1_555
Ni8 O14 2.064712 1_555
Ni9 O18 1.936107 1_555
Ni9 O0 1.936107 1_555
Ni9 O23 1.940485 1_554
Ni9 O5 1.940485 1_554
Ni9 O17 2.033619 1_555
Ni9 O8 2.064712 1_555
Ni10 O6 1.937027 1_555
Ni10 O15 1.949542 1_655
Ni10 O22 2.004983 1_654
Ni10 O1 2.026104 1_655
Ni10 O23 2.031677 1_554
Ni10 O18 2.042428 1_555
Ni11 O8 1.937978 1_555
Ni11 O3 1.942175 1_545
Ni11 O10 1.948188 1_555
Ni11 O18 1.948447 1_555
Ni11 O21 2.047562 1_555
Ni11 O6 2.065913 1_555
Ni12 O21 1.867864 1_555
Ni12 O2 1.887784 1_445
Ni12 O9 2.011462 1_555
Ni12 O10 2.011462 1_555
Ni12 O12 2.014413 1_455
Ni12 O13 2.014413 1_545
