# generated using pymatgen
data_Sr2Fe2H2OF10
_symmetry_space_group_name_H-M   'P 1'
_cell_length_a   10.78734414
_cell_length_b   10.78734414
_cell_length_c   10.94571700
_cell_angle_alpha   90.00000000
_cell_angle_beta   90.00000000
_cell_angle_gamma   136.72932990
_symmetry_Int_Tables_number   1
_chemical_formula_structural   Sr2Fe2H2OF10
_chemical_formula_sum   'Sr8 Fe8 H8 O4 F40'
_cell_volume   873.06453752
_cell_formula_units_Z   4
loop_
 _symmetry_equiv_pos_site_id
 _symmetry_equiv_pos_as_xyz
  1  'x, y, z'
loop_
 _atom_site_type_symbol
 _atom_site_label
 _atom_site_symmetry_multiplicity
 _atom_site_fract_x
 _atom_site_fract_y
 _atom_site_fract_z
 _atom_site_occupancy
  Sr  Sr0  1  0.53026700  0.96973300  0.75000000  1
  Sr  Sr1  1  0.96973300  0.53026700  0.25000000  1
  Sr  Sr2  1  0.46973300  0.03026700  0.25000000  1
  Sr  Sr3  1  0.03026700  0.46973300  0.75000000  1
  Sr  Sr4  1  0.61980800  0.38019200  0.95311400  1
  Sr  Sr5  1  0.38019200  0.61980800  0.04688600  1
  Sr  Sr6  1  0.88019200  0.11980800  0.45311400  1
  Sr  Sr7  1  0.11980800  0.88019200  0.54688600  1
  Fe  Fe0  1  0.71563700  0.78436300  0.75000000  1
  Fe  Fe1  1  0.78436300  0.71563700  0.25000000  1
  Fe  Fe2  1  0.28436300  0.21563700  0.25000000  1
  Fe  Fe3  1  0.21563700  0.28436300  0.75000000  1
  Fe  Fe4  1  0.68083200  0.31916800  0.56447200  1
  Fe  Fe5  1  0.31916800  0.68083200  0.43552800  1
  Fe  Fe6  1  0.81916800  0.18083200  0.06447200  1
  Fe  Fe7  1  0.18083200  0.81916800  0.93552800  1
  H  H0  1  0.45420600  0.34002300  0.57987200  1
  H  H1  1  0.34002300  0.45420600  0.42012800  1
  H  H2  1  0.84002300  0.95420600  0.07987200  1
  H  H3  1  0.95420600  0.84002300  0.92012800  1
  H  H4  1  0.54579400  0.65997700  0.42012800  1
  H  H5  1  0.65997700  0.54579400  0.57987200  1
  H  H6  1  0.15997700  0.04579400  0.92012800  1
  H  H7  1  0.04579400  0.15997700  0.07987200  1
  O  O0  1  0.58093300  0.41906700  0.55145900  1
  O  O1  1  0.41906700  0.58093300  0.44854100  1
  O  O2  1  0.91906700  0.08093300  0.05145900  1
  O  O3  1  0.08093300  0.91906700  0.94854100  1
  F  F0  1  0.69593200  0.90612900  0.63533500  1
  F  F1  1  0.90612900  0.69593200  0.36466500  1
  F  F2  1  0.40612900  0.19593200  0.13533500  1
  F  F3  1  0.19593200  0.40612900  0.86466500  1
  F  F4  1  0.30406800  0.09387100  0.36466500  1
  F  F5  1  0.09387100  0.30406800  0.63533500  1
  F  F6  1  0.59387100  0.80406800  0.86466500  1
  F  F7  1  0.80406800  0.59387100  0.13533500  1
  F  F8  1  0.44762000  0.07162800  0.57853600  1
  F  F9  1  0.07162800  0.44762000  0.42146400  1
  F  F10  1  0.57162800  0.94762000  0.07853600  1
  F  F11  1  0.94762000  0.57162800  0.92146400  1
  F  F12  1  0.55238000  0.92837200  0.42146400  1
  F  F13  1  0.92837200  0.55238000  0.57853600  1
  F  F14  1  0.42837200  0.05238000  0.92146400  1
  F  F15  1  0.05238000  0.42837200  0.07853600  1
  F  F16  1  0.24395200  0.17602400  0.62567000  1
  F  F17  1  0.17602400  0.24395200  0.37433000  1
  F  F18  1  0.67602400  0.74395200  0.12567000  1
  F  F19  1  0.74395200  0.67602400  0.87433000  1
  F  F20  1  0.75604800  0.82397600  0.37433000  1
  F  F21  1  0.82397600  0.75604800  0.62567000  1
  F  F22  1  0.32397600  0.25604800  0.87433000  1
  F  F23  1  0.25604800  0.32397600  0.12567000  1
  F  F24  1  0.80162700  0.19837300  0.88850900  1
  F  F25  1  0.19837300  0.80162700  0.11149100  1
  F  F26  1  0.69837300  0.30162700  0.38850900  1
  F  F27  1  0.30162700  0.69837300  0.61149100  1
  F  F28  1  0.67984700  0.32015300  0.74709900  1
  F  F29  1  0.32015300  0.67984700  0.25290100  1
  F  F30  1  0.82015300  0.17984700  0.24709900  1
  F  F31  1  0.17984700  0.82015300  0.75290100  1
  F  F32  1  0.97032400  0.02967600  0.78971100  1
  F  F33  1  0.02967600  0.97032400  0.21028900  1
  F  F34  1  0.52967600  0.47032400  0.28971100  1
  F  F35  1  0.47032400  0.52967600  0.71028900  1
  F  F36  1  0.78055200  0.21944800  0.60221200  1
  F  F37  1  0.21944800  0.78055200  0.39778800  1
  F  F38  1  0.71944800  0.28055200  0.10221200  1
  F  F39  1  0.28055200  0.71944800  0.89778800  1
loop_
_geom_bond_atom_site_label_1
_geom_bond_atom_site_label_2
_geom_bond_distance
_geom_bond_site_symmetry_2
Fe4 O0 2.008505 1_555
Fe5 O1 2.008505 1_555
Fe6 O2 2.008505 1_555
Fe7 O3 2.008505 1_555
H0 O0 0.997559 1_555
H1 O1 0.997559 1_555
H2 O2 0.997559 1_565
H3 O3 0.997559 1_655
H4 O1 0.997559 1_555
H5 O0 0.997559 1_555
H6 O3 0.997559 1_545
H7 O2 0.997559 1_455
F0 Fe0 1.937112 1_555
F0 Sr6 2.563237 1_565
F0 Sr0 2.650522 1_555
F1 Fe1 1.937112 1_555
F1 Sr7 2.563237 1_655
F1 Sr1 2.650522 1_555
F2 Fe2 1.937112 1_555
F2 Sr4 2.563237 1_554
F2 Sr2 2.650522 1_555
F3 Fe3 1.937112 1_555
F3 Sr5 2.563237 1_556
F3 Sr3 2.650522 1_555
F4 Fe2 1.937112 1_555
F4 Sr7 2.563237 1_545
F4 Sr2 2.650522 1_555
F5 Fe3 1.937112 1_555
F5 Sr6 2.563237 1_455
F5 Sr3 2.650522 1_555
F6 Fe0 1.937112 1_555
F6 Sr5 2.563237 1_556
F6 Sr0 2.650522 1_555
F7 Fe1 1.937112 1_555
F7 Sr4 2.563237 1_554
F7 Sr1 2.650522 1_555
F8 Fe4 1.923641 1_555
F8 Sr7 2.501012 1_545
F8 Sr0 2.636753 1_545
F9 Fe5 1.923641 1_555
F9 Sr6 2.501012 1_455
F9 Sr1 2.636753 1_455
F10 Fe6 1.923641 1_565
F10 Sr5 2.501012 1_555
F10 Sr2 2.636753 1_565
F11 Fe7 1.923641 1_655
F11 Sr4 2.501012 1_555
F11 Sr3 2.636753 1_655
F12 Fe5 1.923641 1_555
F12 Sr6 2.501012 1_565
F12 Sr2 2.636753 1_565
F13 Fe4 1.923641 1_555
F13 Sr7 2.501012 1_655
F13 Sr3 2.636753 1_655
F14 Fe7 1.923641 1_545
F14 Sr4 2.501012 1_555
F14 Sr0 2.636753 1_545
F15 Fe6 1.923641 1_455
F15 Sr5 2.501012 1_555
F15 Sr1 2.636753 1_455
F16 H0 1.637702 1_555
F16 Fe3 1.957285 1_555
F16 Sr7 2.549034 1_545
F17 H1 1.637702 1_555
F17 Fe2 1.957285 1_555
F17 Sr6 2.549034 1_455
F18 H2 1.637702 1_555
F18 Fe1 1.957285 1_555
F18 Sr5 2.549034 1_555
F19 H3 1.637702 1_555
F19 Fe0 1.957285 1_555
F19 Sr4 2.549034 1_555
F20 H4 1.637702 1_555
F20 Fe1 1.957285 1_555
F20 Sr6 2.549034 1_565
F21 H5 1.637702 1_555
F21 Fe0 1.957285 1_555
F21 Sr7 2.549034 1_655
F22 H6 1.637702 1_555
F22 Fe3 1.957285 1_555
F22 Sr4 2.549034 1_555
F23 H7 1.637702 1_555
F23 Fe2 1.957285 1_555
F23 Sr5 2.549034 1_555
F24 Fe6 1.957903 1_556
F24 Sr3 2.537059 1_655
F24 Sr0 2.537059 1_545
F25 Fe7 1.957903 1_554
F25 Sr2 2.537059 1_565
F25 Sr1 2.537059 1_455
F26 Fe4 1.957903 1_555
F26 Sr1 2.537059 1_555
F26 Sr2 2.537059 1_555
F27 Fe5 1.957903 1_555
F27 Sr0 2.537059 1_555
F27 Sr3 2.537059 1_555
F28 Fe4 1.999081 1_555
F28 Sr4 2.556310 1_555
F28 Sr0 2.830452 1_545
F28 Sr3 2.830452 1_655
F29 Fe5 1.999081 1_555
F29 Sr5 2.556310 1_555
F29 Sr1 2.830452 1_455
F29 Sr2 2.830452 1_565
F30 Fe6 1.999081 1_555
F30 Sr6 2.556310 1_555
F30 Sr1 2.830452 1_555
F30 Sr2 2.830452 1_555
F31 Fe7 1.999081 1_555
F31 Sr7 2.556310 1_555
F31 Sr0 2.830452 1_555
F31 Sr3 2.830452 1_555
F32 Fe0 2.037754 1_545
F32 Fe3 2.037754 1_655
F33 Fe1 2.037754 1_455
F33 Fe2 2.037754 1_565
F34 Fe2 2.037754 1_555
F34 Fe1 2.037754 1_555
F35 Fe3 2.037754 1_555
F35 Fe0 2.037754 1_555
F36 Fe4 2.042077 1_555
F36 Sr0 2.563490 1_545
F36 Sr3 2.563490 1_655
F36 Sr6 2.579998 1_555
F37 Fe5 2.042077 1_555
F37 Sr1 2.563490 1_455
F37 Sr2 2.563490 1_565
F37 Sr7 2.579998 1_555
F38 Fe6 2.042077 1_555
F38 Sr2 2.563490 1_555
F38 Sr1 2.563490 1_555
F38 Sr4 2.579998 1_554
F39 Fe7 2.042077 1_555
F39 Sr3 2.563490 1_555
F39 Sr0 2.563490 1_555
F39 Sr5 2.579998 1_556
