# generated using pymatgen
data_Na13Ti24O54
_symmetry_space_group_name_H-M   'P 1'
_cell_length_a   8.86437900
_cell_length_b   10.73424157
_cell_length_c   12.46903535
_cell_angle_alpha   101.87644006
_cell_angle_beta   110.77699635
_cell_angle_gamma   90.01870318
_symmetry_Int_Tables_number   1
_chemical_formula_structural   Na13Ti24O54
_chemical_formula_sum   'Na13 Ti24 O54'
_cell_volume   1082.06268976
_cell_formula_units_Z   1
loop_
 _symmetry_equiv_pos_site_id
 _symmetry_equiv_pos_as_xyz
  1  'x, y, z'
loop_
 _atom_site_type_symbol
 _atom_site_label
 _atom_site_symmetry_multiplicity
 _atom_site_fract_x
 _atom_site_fract_y
 _atom_site_fract_z
 _atom_site_occupancy
  Na  Na0  1  0.68344400  0.90011500  0.71544100  1
  Na  Na1  1  0.80178000  0.60437900  0.27254500  1
  Na  Na2  1  0.47146500  0.60436700  0.27362300  1
  Na  Na3  1  0.13700900  0.59503500  0.27521700  1
  Na  Na4  1  0.91224300  0.69560300  0.85875700  1
  Na  Na5  1  0.28677000  0.70693200  0.85375100  1
  Na  Na6  1  0.75463600  0.30498700  0.14019100  1
  Na  Na7  1  0.38653800  0.30129800  0.14134400  1
  Na  Na8  1  0.86475400  0.39669400  0.72693300  1
  Na  Na9  1  0.52996500  0.40643900  0.72625600  1
  Na  Na10  1  0.19488100  0.39663000  0.72524200  1
  Na  Na11  1  0.95650700  0.09917600  0.28551500  1
  Na  Na12  1  0.32795300  0.09864500  0.28506400  1
  Ti  Ti0  1  0.89454700  0.80855100  0.12209100  1
  Ti  Ti1  1  0.56218600  0.81822000  0.12582300  1
  Ti  Ti2  1  0.22712800  0.80842000  0.12024500  1
  Ti  Ti3  1  0.71315200  0.88301700  0.42896100  1
  Ti  Ti4  1  0.38180200  0.87675000  0.43057600  1
  Ti  Ti5  1  0.04985300  0.87552500  0.43344800  1
  Ti  Ti6  1  0.00541600  0.49055000  0.00974800  1
  Ti  Ti7  1  0.66259300  0.51099800  0.99171100  1
  Ti  Ti8  1  0.33303900  0.50101500  0.99849400  1
  Ti  Ti9  1  0.94307300  0.62769600  0.55592300  1
  Ti  Ti10  1  0.60966400  0.62007100  0.55190300  1
  Ti  Ti11  1  0.28163700  0.62984500  0.55980500  1
  Ti  Ti12  1  0.72132400  0.36917200  0.44022300  1
  Ti  Ti13  1  0.38592600  0.37558600  0.44420500  1
  Ti  Ti14  1  0.05781500  0.37883300  0.44745300  1
  Ti  Ti15  1  0.00147400  0.00776600  0.00624800  1
  Ti  Ti16  1  0.66341900  0.99376000  0.99412400  1
  Ti  Ti17  1  0.33041600  0.99840600  0.99709300  1
  Ti  Ti18  1  0.95362500  0.11852700  0.57041100  1
  Ti  Ti19  1  0.61754400  0.12537400  0.56854600  1
  Ti  Ti20  1  0.28641500  0.11890500  0.57264500  1
  Ti  Ti21  1  0.77215000  0.19400900  0.87915500  1
  Ti  Ti22  1  0.43917900  0.18778100  0.87805500  1
  Ti  Ti23  1  0.10456700  0.18470200  0.87432400  1
  O  O0  1  0.74471200  0.94242200  0.14852900  1
  O  O1  1  0.40592000  0.94373900  0.15089700  1
  O  O2  1  0.07573600  0.94450300  0.15273600  1
  O  O3  1  0.87240700  0.99133200  0.40722800  1
  O  O4  1  0.53364300  0.99211600  0.40531800  1
  O  O5  1  0.20372900  0.99108600  0.40609900  1
  O  O6  1  0.97172800  0.78271200  0.27421000  1
  O  O7  1  0.63589500  0.78241300  0.27454800  1
  O  O8  1  0.30358000  0.78114200  0.27403600  1
  O  O9  1  0.69612900  0.69558700  0.06242400  1
  O  O10  1  0.36558900  0.69578600  0.05977200  1
  O  O11  1  0.02941900  0.69376200  0.05967500  1
  O  O12  1  0.90619700  0.77803200  0.48119000  1
  O  O13  1  0.57753100  0.78262100  0.48603300  1
  O  O14  1  0.24187000  0.77881100  0.48398900  1
  O  O15  1  0.81351700  0.87699600  0.95270000  1
  O  O16  1  0.47826900  0.87531700  0.95924200  1
  O  O17  1  0.14458900  0.87455800  0.95703900  1
  O  O18  1  0.82542300  0.67889700  0.65558300  1
  O  O19  1  0.49690500  0.68103000  0.65349300  1
  O  O20  1  0.16004600  0.67237500  0.65653900  1
  O  O21  1  0.88680200  0.48971000  0.10985600  1
  O  O22  1  0.55144000  0.48295200  0.10626800  1
  O  O23  1  0.22483300  0.48764100  0.11228100  1
  O  O24  1  0.71404400  0.55065800  0.42947200  1
  O  O25  1  0.38134000  0.55250200  0.42930200  1
  O  O26  1  0.04912100  0.55325400  0.43047300  1
  O  O27  1  0.94964800  0.44598300  0.56713600  1
  O  O28  1  0.61628600  0.44472200  0.56787000  1
  O  O29  1  0.28569600  0.44767200  0.56944400  1
  O  O30  1  0.77951900  0.51041500  0.89064900  1
  O  O31  1  0.44188100  0.51369800  0.88761900  1
  O  O32  1  0.11432400  0.51684200  0.89337800  1
  O  O33  1  0.84071400  0.31808000  0.34202100  1
  O  O34  1  0.50192100  0.31783000  0.34184800  1
  O  O35  1  0.17285300  0.31198300  0.34758700  1
  O  O36  1  0.85502700  0.12375300  0.04968800  1
  O  O37  1  0.52179100  0.12485500  0.04119200  1
  O  O38  1  0.19341100  0.12407400  0.04876500  1
  O  O39  1  0.75963500  0.22194300  0.51719700  1
  O  O40  1  0.42275500  0.21763400  0.51234100  1
  O  O41  1  0.09020600  0.21807600  0.51547700  1
  O  O42  1  0.97211100  0.30524300  0.93977500  1
  O  O43  1  0.63599400  0.30629800  0.94005600  1
  O  O44  1  0.30139300  0.30457300  0.93900500  1
  O  O45  1  0.69544900  0.21981200  0.72650500  1
  O  O46  1  0.36427300  0.22012500  0.72612700  1
  O  O47  1  0.02997500  0.21910500  0.72597500  1
  O  O48  1  0.79268800  0.01001500  0.59170900  1
  O  O49  1  0.46574600  0.00957900  0.59318800  1
  O  O50  1  0.13011300  0.00875200  0.59242200  1
  O  O51  1  0.92389100  0.06030500  0.85371500  1
  O  O52  1  0.59626500  0.05827400  0.84968700  1
  O  O53  1  0.25766200  0.05878200  0.85106000  1
loop_
_geom_bond_atom_site_label_1
_geom_bond_atom_site_label_2
_geom_bond_distance
_geom_bond_site_symmetry_2
Na0 O52 2.455675 1_565
Na0 O49 2.465778 1_565
Na0 O48 2.553054 1_565
Na0 O51 2.577302 1_565
Na0 O19 2.684219 1_555
Na0 O13 2.695088 1_555
Na0 O18 2.778251 1_555
Na0 O15 2.832923 1_555
Na1 O7 2.413150 1_555
Na1 O6 2.427740 1_555
Na1 O21 2.501148 1_555
Na1 O24 2.511966 1_555
Na1 O26 2.523604 1_655
Na1 O22 2.558048 1_555
Na1 O12 2.719206 1_555
Na1 O9 2.831192 1_555
Na2 O7 2.398847 1_555
Na2 O8 2.412197 1_555
Na2 O24 2.495981 1_555
Na2 O23 2.497423 1_555
Na2 O25 2.502218 1_555
Na2 O22 2.546850 1_555
Na2 O13 2.776002 1_555
Na2 O10 2.873370 1_555
Na3 O26 2.446002 1_555
Na3 O25 2.449520 1_555
Na3 O8 2.489357 1_555
Na3 O6 2.490882 1_455
Na3 O23 2.494259 1_555
Na3 O21 2.498643 1_455
Na4 O18 2.339264 1_555
Na4 O11 2.351553 1_656
Na4 O15 2.391418 1_555
Na4 O30 2.479850 1_555
Na4 O17 2.582941 1_655
Na4 O32 2.621413 1_655
Na5 O20 2.260725 1_555
Na5 O16 2.305221 1_555
Na5 O10 2.440251 1_556
Na5 O31 2.514300 1_555
Na5 O17 2.585348 1_555
Na5 O32 2.773659 1_555
Na6 O33 2.329670 1_555
Na6 O43 2.342266 1_554
Na6 O36 2.379077 1_555
Na6 O21 2.463528 1_555
Na6 O37 2.594237 1_555
Na6 O22 2.620475 1_555
Na7 O34 2.308933 1_555
Na7 O38 2.360987 1_555
Na7 O44 2.371039 1_554
Na7 O23 2.473601 1_555
Na7 O37 2.583465 1_555
Na7 O22 2.633045 1_555
Na8 O47 2.404978 1_655
Na8 O45 2.417790 1_555
Na8 O30 2.509462 1_555
Na8 O27 2.512725 1_555
Na8 O28 2.524477 1_555
Na8 O32 2.550261 1_655
Na8 O39 2.734423 1_555
Na8 O42 2.862475 1_555
Na9 O28 2.461839 1_555
Na9 O29 2.461847 1_555
Na9 O31 2.478958 1_555
Na9 O46 2.480340 1_555
Na9 O45 2.483203 1_555
Na9 O30 2.486098 1_555
Na10 O47 2.404795 1_555
Na10 O46 2.417268 1_555
Na10 O29 2.503889 1_555
Na10 O31 2.505649 1_555
Na10 O27 2.506579 1_455
Na10 O32 2.553335 1_555
Na10 O41 2.754864 1_555
Na10 O44 2.876048 1_555
Na11 O3 2.392561 1_545
Na11 O0 2.411099 1_545
Na11 O2 2.593424 1_645
Na11 O5 2.606048 1_645
Na11 O33 2.627663 1_555
Na11 O41 2.708734 1_655
Na11 O35 2.776936 1_655
Na11 O36 2.822827 1_555
Na12 O4 2.376531 1_545
Na12 O1 2.391093 1_545
Na12 O2 2.591416 1_545
Na12 O5 2.592037 1_545
Na12 O34 2.636731 1_555
Na12 O40 2.681149 1_555
Na12 O35 2.787451 1_555
Na12 O38 2.831337 1_555
O0 Ti16 1.995579 1_554
O0 Ti1 1.998427 1_555
O0 Ti0 2.013617 1_555
O1 Ti1 1.991726 1_555
O1 Ti17 2.005750 1_554
O1 Ti2 2.026833 1_555
O2 Ti15 1.971955 1_565
O2 Ti0 2.046672 1_455
O2 Ti2 2.059682 1_555
O3 Ti3 1.954014 1_555
O3 Ti5 1.982440 1_655
O3 Ti18 2.083078 1_565
O4 Ti3 1.949593 1_555
O4 Ti4 1.976001 1_555
O4 Ti19 2.113940 1_565
O5 Ti4 1.976049 1_555
O5 Ti5 2.004641 1_555
O5 Ti20 2.116356 1_565
O6 Ti0 1.854391 1_555
O6 Ti5 1.903770 1_655
O7 Ti1 1.856762 1_555
O7 Ti3 1.884281 1_555
O8 Ti2 1.879240 1_555
O8 Ti4 1.886469 1_555
O9 Ti0 1.953545 1_555
O9 Ti7 1.971396 1_554
O9 Ti1 2.001524 1_555
O10 Ti2 1.954256 1_555
O10 Ti1 1.994309 1_555
O10 Ti8 2.055199 1_554
O11 Ti0 1.954401 1_455
O11 Ti2 1.957960 1_555
O11 Ti6 2.130210 1_555
O12 Ti5 1.965844 1_655
O12 Ti9 1.995633 1_555
O12 Ti3 2.033491 1_555
O13 Ti4 1.986682 1_555
O13 Ti3 2.008695 1_555
O13 Ti10 2.055346 1_555
O14 Ti5 1.970156 1_555
O14 Ti4 1.990193 1_555
O14 Ti11 1.990231 1_555
O15 Ti16 1.957096 1_555
O15 Ti15 2.003908 1_666
O15 Ti0 2.253797 1_556
O16 Ti16 1.940069 1_555
O16 Ti17 1.967116 1_555
O16 Ti1 2.161352 1_556
O17 Ti17 1.967688 1_555
O17 Ti15 2.054944 1_566
O17 Ti2 2.172396 1_556
O18 Ti9 1.890134 1_555
O18 Ti10 1.907087 1_555
O19 Ti11 1.860502 1_555
O19 Ti10 1.894569 1_555
O20 Ti11 1.876436 1_555
O20 Ti9 1.882289 1_455
O21 Ti6 1.897236 1_655
O21 Ti7 2.057693 1_554
O22 Ti8 1.962973 1_554
O22 Ti7 2.068126 1_554
O23 Ti6 1.915932 1_555
O23 Ti8 2.000730 1_554
O24 Ti12 1.979576 1_555
O24 Ti10 2.067889 1_555
O24 Ti9 2.117261 1_555
O25 Ti13 1.944879 1_555
O25 Ti10 2.075322 1_555
O25 Ti11 2.140806 1_555
O26 Ti14 1.925583 1_555
O26 Ti9 2.120923 1_455
O26 Ti11 2.149362 1_555
O27 Ti9 1.983467 1_555
O27 Ti14 2.058844 1_655
O27 Ti12 2.114234 1_555
O28 Ti10 1.931821 1_555
O28 Ti13 2.095783 1_555
O28 Ti12 2.139749 1_555
O29 Ti11 1.983278 1_555
O29 Ti14 2.072854 1_555
O29 Ti13 2.077064 1_555
O30 Ti7 1.893591 1_555
O30 Ti6 2.069171 1_656
O31 Ti7 1.930592 1_555
O31 Ti8 1.970897 1_555
O32 Ti8 1.947986 1_555
O32 Ti6 2.068653 1_556
O33 Ti12 1.887733 1_555
O33 Ti14 1.925746 1_655
O34 Ti12 1.902475 1_555
O34 Ti13 1.917367 1_555
O35 Ti13 1.879143 1_555
O35 Ti14 1.907609 1_555
O36 Ti15 1.936766 1_655
O36 Ti16 2.019308 1_544
O36 Ti21 2.276416 1_554
O37 Ti17 2.012971 1_544
O37 Ti16 2.021081 1_544
O37 Ti22 2.153918 1_554
O38 Ti15 1.954680 1_555
O38 Ti17 1.976914 1_544
O38 Ti23 2.267717 1_554
O39 Ti19 1.978742 1_555
O39 Ti12 1.981820 1_555
O39 Ti18 2.030893 1_555
O40 Ti19 1.970186 1_555
O40 Ti13 2.024741 1_555
O40 Ti20 2.030043 1_555
O41 Ti18 1.991395 1_455
O41 Ti20 2.024933 1_555
O41 Ti14 2.051723 1_555
O42 Ti21 1.953322 1_555
O42 Ti6 1.976759 1_656
O42 Ti23 1.991240 1_655
O43 Ti21 1.939236 1_555
O43 Ti22 1.974018 1_555
O43 Ti7 2.146617 1_555
O44 Ti22 1.976980 1_555
O44 Ti23 1.980733 1_555
O44 Ti8 2.069668 1_555
O45 Ti21 1.860347 1_555
O45 Ti19 1.896465 1_555
O46 Ti20 1.877751 1_555
O46 Ti22 1.878462 1_555
O47 Ti23 1.846297 1_555
O47 Ti18 1.895356 1_455
O48 Ti18 1.964051 1_555
O48 Ti19 1.964054 1_555
O48 Ti3 2.078273 1_545
O49 Ti20 1.950862 1_555
O49 Ti19 1.974702 1_555
O49 Ti4 2.106376 1_545
O50 Ti20 1.933887 1_555
O50 Ti18 1.934181 1_455
O50 Ti5 2.076687 1_545
O51 Ti15 1.980445 1_656
O51 Ti23 1.994873 1_655
O51 Ti21 2.021461 1_555
O52 Ti16 1.957167 1_545
O52 Ti21 2.015056 1_555
O52 Ti22 2.035914 1_555
O53 Ti17 1.950500 1_545
O53 Ti23 1.967720 1_555
O53 Ti22 2.010512 1_555
