# generated using pymatgen
data_LiCoSbO4
_symmetry_space_group_name_H-M   'P 1'
_cell_length_a   6.04214300
_cell_length_b   8.85068442
_cell_length_c   6.20417190
_cell_angle_alpha   89.99933914
_cell_angle_beta   90.00034657
_cell_angle_gamma   90.00028804
_symmetry_Int_Tables_number   1
_chemical_formula_structural   LiCoSbO4
_chemical_formula_sum   'Li4 Co4 Sb4 O16'
_cell_volume   331.78112680
_cell_formula_units_Z   4
loop_
 _symmetry_equiv_pos_site_id
 _symmetry_equiv_pos_as_xyz
  1  'x, y, z'
loop_
 _atom_site_type_symbol
 _atom_site_label
 _atom_site_symmetry_multiplicity
 _atom_site_fract_x
 _atom_site_fract_y
 _atom_site_fract_z
 _atom_site_occupancy
  Li  Li0  1  0.25000000  0.10443900  0.00000100  1
  Li  Li1  1  0.75000000  0.60443700  0.50000100  1
  Li  Li2  1  0.75000000  0.89556200  0.99999900  1
  Li  Li3  1  0.25000100  0.39556400  0.50000000  1
  Co  Co0  1  0.99999900  0.00000000  0.50000000  1
  Co  Co1  1  0.00000100  0.50000000  0.00000000  1
  Co  Co2  1  0.49999800  0.50000100  0.00000100  1
  Co  Co3  1  0.50000000  0.00000000  0.50000100  1
  Sb  Sb0  1  0.74999900  0.25000100  0.25000000  1
  Sb  Sb1  1  0.25000000  0.75000000  0.74999900  1
  Sb  Sb2  1  0.74999700  0.24999900  0.75000000  1
  Sb  Sb3  1  0.25000400  0.75000100  0.25000000  1
  O  O0  1  0.52348400  0.25022200  0.99999800  1
  O  O1  1  0.02348900  0.75022500  0.49999800  1
  O  O2  1  0.97650600  0.25022300  0.00000100  1
  O  O3  1  0.47651400  0.75022100  0.49999900  1
  O  O4  1  0.02349200  0.74977600  0.99999300  1
  O  O5  1  0.52348700  0.24977800  0.50000100  1
  O  O6  1  0.47651500  0.74978000  0.00000600  1
  O  O7  1  0.97651300  0.24977400  0.50000600  1
  O  O8  1  0.74998700  0.47295800  0.23030300  1
  O  O9  1  0.25000500  0.97296000  0.73029800  1
  O  O10  1  0.75001200  0.47296100  0.76970100  1
  O  O11  1  0.24999800  0.97296200  0.26970700  1
  O  O12  1  0.25001100  0.52703800  0.76969700  1
  O  O13  1  0.74999700  0.02704100  0.26970000  1
  O  O14  1  0.24998900  0.52703700  0.23029500  1
  O  O15  1  0.75000200  0.02703900  0.73029500  1
loop_
_geom_bond_atom_site_label_1
_geom_bond_atom_site_label_2
_geom_bond_distance
_geom_bond_site_symmetry_2
Li0 O11 2.038137 1_545
Li0 O9 2.038154 1_544
Li0 O0 2.096502 1_554
Li0 O2 2.096566 1_455
Li1 O10 2.038102 1_555
Li1 O8 2.038129 1_555
Li1 O3 2.096528 1_555
Li1 O1 2.096553 1_655
Li2 O15 2.038127 1_565
Li2 O13 2.038144 1_566
Li2 O6 2.096502 1_556
Li2 O4 2.096567 1_655
Li3 O12 2.038098 1_555
Li3 O14 2.038112 1_555
Li3 O5 2.096538 1_555
Li3 O7 2.096560 1_455
Co0 O11 2.092943 1_645
Co0 O15 2.092943 1_555
Co0 O13 2.092972 1_555
Co0 O9 2.092980 1_645
Co0 O7 2.215221 1_555
Co0 O1 2.215232 1_645
Co1 O14 2.092888 1_555
Co1 O10 2.092911 1_454
Co1 O12 2.093028 1_554
Co1 O8 2.093049 1_455
Co1 O4 2.215240 1_554
Co1 O2 2.215250 1_455
Co2 O12 2.092920 1_554
Co2 O8 2.092926 1_555
Co2 O14 2.092989 1_555
Co2 O10 2.093040 1_554
Co2 O6 2.215264 1_555
Co2 O0 2.215266 1_554
Co3 O9 2.092939 1_545
Co3 O11 2.092946 1_545
Co3 O15 2.092947 1_555
Co3 O13 2.092965 1_555
Co3 O5 2.215256 1_555
Co3 O3 2.215264 1_545
O0 Sb2 2.068540 1_555
O0 Sb0 2.068554 1_556
O1 Sb1 2.068533 1_555
O1 Sb3 2.068548 1_555
O2 Sb0 2.068520 1_555
O2 Sb2 2.068525 1_554
O3 Sb3 2.068520 1_555
O3 Sb1 2.068553 1_555
O4 Sb1 2.068501 1_555
O4 Sb3 2.068565 1_556
O5 Sb2 2.068520 1_555
O5 Sb0 2.068550 1_555
O6 Sb3 2.068513 1_555
O6 Sb1 2.068577 1_554
O7 Sb2 2.068533 1_555
O7 Sb0 2.068569 1_555
O8 Sb0 1.977101 1_555
O9 Sb1 1.977129 1_555
O10 Sb2 1.977149 1_555
O11 Sb3 1.977143 1_555
O12 Sb1 1.977145 1_555
O13 Sb0 1.977129 1_555
O14 Sb3 1.977169 1_555
O15 Sb2 1.977133 1_555
