# generated using pymatgen
data_MnPO4
_symmetry_space_group_name_H-M   'P 1'
_cell_length_a   5.26221910
_cell_length_b   9.11797831
_cell_length_c   5.26215161
_cell_angle_alpha   67.24597801
_cell_angle_beta   55.70645613
_cell_angle_gamma   67.24515942
_symmetry_Int_Tables_number   1
_chemical_formula_structural   MnPO4
_chemical_formula_sum   'Mn2 P2 O8'
_cell_volume   187.57272184
_cell_formula_units_Z   2
loop_
 _symmetry_equiv_pos_site_id
 _symmetry_equiv_pos_as_xyz
  1  'x, y, z'
loop_
 _atom_site_type_symbol
 _atom_site_label
 _atom_site_symmetry_multiplicity
 _atom_site_fract_x
 _atom_site_fract_y
 _atom_site_fract_z
 _atom_site_occupancy
  Mn  Mn0  1  0.21017200  0.25757300  0.27782600  1
  Mn  Mn1  1  0.77781000  0.75757000  0.71017900  1
  P  P0  1  0.15226600  0.62611100  0.09947900  1
  P  P1  1  0.59948600  0.12610900  0.65226600  1
  O  O0  1  0.02618800  0.76672200  0.26524400  1
  O  O1  1  0.19917800  0.45855100  0.32344600  1
  O  O2  1  0.29879200  0.15280100  0.97267000  1
  O  O3  1  0.50865700  0.12129200  0.42244500  1
  O  O4  1  0.47266800  0.65279500  0.79879000  1
  O  O5  1  0.76524800  0.26671900  0.52618800  1
  O  O6  1  0.92244800  0.62129400  0.00865200  1
  O  O7  1  0.82344700  0.95854800  0.69917700  1
loop_
_geom_bond_atom_site_label_1
_geom_bond_atom_site_label_2
_geom_bond_distance
_geom_bond_site_symmetry_2
Mn0 O1 1.913560 1_555
Mn0 O5 1.918807 1_455
Mn0 O3 1.922474 1_555
Mn0 O2 1.925300 1_554
Mn1 O7 1.913591 1_555
Mn1 O0 1.918824 1_655
Mn1 O6 1.922473 1_556
Mn1 O4 1.925309 1_555
O0 P0 1.549110 1_555
O1 P0 1.557995 1_555
O2 P1 1.555267 1_555
O3 P1 1.549708 1_555
O4 P0 1.555250 1_556
O5 P1 1.549118 1_555
O6 P0 1.549696 1_655
O7 P1 1.557980 1_565
