# generated using pymatgen
data_Li2CrO3
_symmetry_space_group_name_H-M   'P 1'
_cell_length_a   5.00143945
_cell_length_b   5.01608005
_cell_length_c   8.47552197
_cell_angle_alpha   90.00012035
_cell_angle_beta   90.00000492
_cell_angle_gamma   69.52573422
_symmetry_Int_Tables_number   1
_chemical_formula_structural   Li2CrO3
_chemical_formula_sum   'Li8 Cr4 O12'
_cell_volume   199.19867034
_cell_formula_units_Z   4
loop_
 _symmetry_equiv_pos_site_id
 _symmetry_equiv_pos_as_xyz
  1  'x, y, z'
loop_
 _atom_site_type_symbol
 _atom_site_label
 _atom_site_symmetry_multiplicity
 _atom_site_fract_x
 _atom_site_fract_y
 _atom_site_fract_z
 _atom_site_occupancy
  Li  Li0  1  0.00000032  0.49999884  0.50055339  1
  Li  Li1  1  0.50000264  0.49999698  0.99947420  1
  Li  Li2  1  0.00000252  0.00000004  0.00001114  1
  Li  Li3  1  0.50000093  0.00000046  0.49998481  1
  Li  Li4  1  0.00000075  0.50000095  0.84304453  1
  Li  Li5  1  0.50000087  0.49999611  0.34302236  1
  Li  Li6  1  0.00000244  0.49999902  0.15697549  1
  Li  Li7  1  0.50000106  0.50000317  0.65695788  1
  Cr  Cr0  1  0.50000118  0.00000070  0.82844631  1
  Cr  Cr1  1  0.00000215  1.00000028  0.67155736  1
  Cr  Cr2  1  0.00000344  0.99999977  0.32842718  1
  Cr  Cr3  1  0.50000007  0.99999970  0.17157033  1
  O  O0  1  0.22021195  0.77087240  0.50003125  1
  O  O1  1  0.72019488  0.77088848  0.99996202  1
  O  O2  1  0.77978326  0.22912839  0.50003103  1
  O  O3  1  0.27980034  0.22911063  0.99996349  1
  O  O4  1  0.24889757  0.22646161  0.31929921  1
  O  O5  1  0.74888355  0.22650065  0.81927059  1
  O  O6  1  0.24887196  0.22651068  0.68068222  1
  O  O7  1  0.74891894  0.22645459  0.18074264  1
  O  O8  1  0.75112124  0.77349092  0.68068082  1
  O  O9  1  0.25107804  0.77354544  0.18074258  1
  O  O10  1  0.75110112  0.77353772  0.31929899  1
  O  O11  1  0.25111278  0.77349945  0.81927118  1
loop_
_geom_bond_atom_site_label_1
_geom_bond_atom_site_label_2
_geom_bond_distance
_geom_bond_site_symmetry_2
Li0 O0 2.026342 1_555
Li0 O2 2.026350 1_455
Li0 O6 2.137167 1_555
Li0 O8 2.137176 1_455
Li0 O4 2.144140 1_555
Li0 O10 2.144152 1_455
Li1 O1 2.026344 1_555
Li1 O3 2.026361 1_555
Li1 O5 2.137650 1_555
Li1 O11 2.137680 1_555
Li1 O7 2.144276 1_556
Li1 O9 2.144299 1_556
Li2 O9 2.053217 1_545
Li2 O7 2.053231 1_455
Li2 O11 2.053418 1_544
Li2 O5 2.053444 1_454
Li2 O3 2.098600 1_554
Li2 O1 2.098646 1_444
Li3 O10 2.052991 1_545
Li3 O4 2.052997 1_555
Li3 O8 2.053180 1_545
Li3 O6 2.053205 1_555
Li3 O2 2.098601 1_555
Li3 O0 2.098630 1_545
Li4 O6 2.032333 1_555
Li4 O8 2.032360 1_455
Li4 O1 2.059914 1_455
Li4 O3 2.059917 1_555
Li4 O11 2.169188 1_555
Li4 O5 2.169216 1_455
Li5 O7 2.032066 1_555
Li5 O9 2.032097 1_555
Li5 O2 2.060322 1_555
Li5 O0 2.060352 1_555
Li5 O4 2.169264 1_555
Li5 O10 2.169282 1_555
Li6 O4 2.032270 1_555
Li6 O10 2.032279 1_455
Li6 O3 2.060415 1_554
Li6 O1 2.060450 1_454
Li6 O9 2.169238 1_555
Li6 O7 2.169262 1_455
Li7 O11 2.032098 1_555
Li7 O5 2.032102 1_555
Li7 O2 2.059885 1_555
Li7 O0 2.059891 1_555
Li7 O8 2.169136 1_555
Li7 O6 2.169193 1_555
Cr0 O8 1.854331 1_545
Cr0 O6 1.854348 1_555
Cr0 O1 1.939430 1_545
Cr0 O3 1.939444 1_555
Cr0 O5 1.958489 1_555
Cr0 O11 1.958520 1_545
Cr1 O11 1.854000 1_555
Cr1 O5 1.854011 1_465
Cr1 O0 1.939553 1_555
Cr1 O2 1.939574 1_465
Cr1 O6 1.958462 1_565
Cr1 O8 1.958504 1_455
Cr2 O9 1.853659 1_555
Cr2 O7 1.853685 1_465
Cr2 O0 1.940048 1_555
Cr2 O2 1.940067 1_465
Cr2 O4 1.958369 1_565
Cr2 O10 1.958404 1_455
Cr3 O10 1.853989 1_555
Cr3 O4 1.853991 1_565
Cr3 O1 1.940015 1_554
Cr3 O3 1.940017 1_564
Cr3 O7 1.958460 1_565
Cr3 O9 1.958471 1_555
