# generated using pymatgen
data_Li17Cr2O12
_symmetry_space_group_name_H-M   'P 1'
_cell_length_a   5.47705100
_cell_length_b   5.93237923
_cell_length_c   8.07882831
_cell_angle_alpha   96.64678595
_cell_angle_beta   90.02954565
_cell_angle_gamma   90.29982883
_symmetry_Int_Tables_number   1
_chemical_formula_structural   Li17Cr2O12
_chemical_formula_sum   'Li17 Cr2 O12'
_cell_volume   260.72874608
_cell_formula_units_Z   1
loop_
 _symmetry_equiv_pos_site_id
 _symmetry_equiv_pos_as_xyz
  1  'x, y, z'
loop_
 _atom_site_type_symbol
 _atom_site_label
 _atom_site_symmetry_multiplicity
 _atom_site_fract_x
 _atom_site_fract_y
 _atom_site_fract_z
 _atom_site_occupancy
  Li  Li0  1  0.99424300  0.32085400  0.84143200  1
  Li  Li1  1  0.86472200  0.72960400  0.37792300  1
  Li  Li2  1  0.82307800  0.42185200  0.07908700  1
  Li  Li3  1  0.79760800  0.04342900  0.69866800  1
  Li  Li4  1  0.67048500  0.08534600  0.42873100  1
  Li  Li5  1  0.65444000  0.45896200  0.78967200  1
  Li  Li6  1  0.64633800  0.77674100  0.12891900  1
  Li  Li7  1  0.48690600  0.17467900  0.15704800  1
  Li  Li8  1  0.51436100  0.83087100  0.85108100  1
  Li  Li9  1  0.37385300  0.21753600  0.87534300  1
  Li  Li10  1  0.32867600  0.91431900  0.57012400  1
  Li  Li11  1  0.30900700  0.55856000  0.20444200  1
  Li  Li12  1  0.19655100  0.93824600  0.29280200  1
  Li  Li13  1  0.18835700  0.60680800  0.94343000  1
  Li  Li14  1  0.14508200  0.26311600  0.60181800  1
  Li  Li15  1  0.99952400  0.31698700  0.33665400  1
  Li  Li16  1  0.00759500  0.67253100  0.66220200  1
  Cr  Cr0  1  0.49732500  0.50099700  0.49582700  1
  Cr  Cr1  1  0.00217100  0.99560200  0.00352500  1
  O  O0  1  0.86173300  0.99847200  0.23927100  1
  O  O1  1  0.84356200  0.67710400  0.92751900  1
  O  O2  1  0.80110300  0.33752900  0.58142800  1
  O  O3  1  0.70111500  0.16789100  0.92123100  1
  O  O4  1  0.65118300  0.79366200  0.57249100  1
  O  O5  1  0.64300300  0.50323800  0.27498500  1
  O  O6  1  0.34813900  0.19833500  0.42141100  1
  O  O7  1  0.33064500  0.49520700  0.72943900  1
  O  O8  1  0.32171900  0.84958000  0.07574400  1
  O  O9  1  0.19845900  0.65677500  0.42545400  1
  O  O10  1  0.15871900  0.31804800  0.06144000  1
  O  O11  1  0.13782600  0.01596400  0.76055200  1
loop_
_geom_bond_atom_site_label_1
_geom_bond_atom_site_label_2
_geom_bond_distance
_geom_bond_site_symmetry_2
Li0 O3 1.984403 1_555
Li0 O10 1.994073 1_656
Li0 O11 2.014621 1_655
Li0 O1 2.304318 1_555
Li0 O7 2.341289 1_655
Li0 O2 2.363880 1_555
Li1 O5 1.921715 1_555
Li1 O9 1.929058 1_655
Li1 O4 1.962491 1_555
Li1 O0 2.052551 1_555
Li2 O5 1.881560 1_555
Li2 O10 1.941846 1_655
Li2 O3 1.971349 1_554
Li2 O1 2.057311 1_554
Li3 O4 1.874782 1_545
Li3 O3 1.937830 1_555
Li3 O11 1.941597 1_655
Li3 O2 2.079357 1_555
Li4 O0 1.878905 1_545
Li4 O6 1.895061 1_555
Li4 O2 1.957652 1_555
Li4 O4 2.194930 1_545
Li5 O7 1.858882 1_555
Li5 O1 1.907616 1_555
Li5 O2 1.929110 1_555
Li5 O3 2.146119 1_555
Li6 O8 1.892780 1_555
Li6 O0 1.904736 1_555
Li6 O1 1.987324 1_554
Li6 O5 2.113850 1_555
Li7 O8 2.158100 1_545
Li7 O10 2.172010 1_555
Li7 O5 2.233762 1_555
Li7 O3 2.234422 1_554
Li7 O6 2.256579 1_555
Li7 O0 2.435230 1_545
Li8 O8 2.091989 1_556
Li8 O1 2.147306 1_555
Li8 O3 2.253984 1_565
Li8 O7 2.338471 1_555
Li8 O4 2.358882 1_555
Li8 O11 2.490328 1_565
Li9 O3 1.862014 1_555
Li9 O11 1.920154 1_555
Li9 O10 1.950881 1_556
Li9 O7 2.147587 1_555
Li10 O11 1.901718 1_565
Li10 O4 1.910288 1_555
Li10 O9 1.945083 1_555
Li10 O6 2.181859 1_565
Li11 O10 1.911324 1_555
Li11 O9 1.912624 1_555
Li11 O5 1.956373 1_555
Li11 O8 2.116800 1_555
Li12 O8 1.900833 1_555
Li12 O0 1.928566 1_455
Li12 O6 1.940137 1_565
Li12 O9 2.085959 1_555
Li13 O8 1.839071 1_556
Li13 O7 1.943251 1_555
Li13 O1 1.943480 1_455
Li13 O10 2.060364 1_556
Li14 O6 1.839917 1_555
Li14 O7 1.909799 1_555
Li14 O2 1.948499 1_455
Li14 O11 2.056828 1_555
Li15 O0 2.097438 1_545
Li15 O6 2.175858 1_655
Li15 O2 2.248149 1_555
Li15 O9 2.325196 1_655
Li15 O5 2.330457 1_555
Li15 O10 2.389352 1_655
Li16 O7 2.164042 1_555
Li16 O9 2.172891 1_555
Li16 O11 2.213694 1_565
Li16 O4 2.232954 1_455
Li16 O2 2.308681 1_455
Li16 O1 2.321863 1_455
Cr0 O5 1.956226 1_555
Cr0 O4 1.960441 1_555
Cr0 O6 1.996792 1_555
Cr0 O9 1.998301 1_555
Cr0 O2 2.087553 1_555
Cr0 O7 2.100712 1_555
Cr1 O0 2.052656 1_455
Cr1 O8 2.070207 1_555
Cr1 O3 2.092689 1_464
Cr1 O10 2.094850 1_565
Cr1 O1 2.101289 1_454
Cr1 O11 2.115467 1_564
