# generated using pymatgen
data_Li2Fe3CoO8
_symmetry_space_group_name_H-M   'P 1'
_cell_length_a   5.85755828
_cell_length_b   5.85755828
_cell_length_c   5.85755831
_cell_angle_alpha   61.09813503
_cell_angle_beta   61.09813503
_cell_angle_gamma   61.09814213
_symmetry_Int_Tables_number   1
_chemical_formula_structural   Li2Fe3CoO8
_chemical_formula_sum   'Li2 Fe3 Co1 O8'
_cell_volume   145.62623349
_cell_formula_units_Z   1
loop_
 _symmetry_equiv_pos_site_id
 _symmetry_equiv_pos_as_xyz
  1  'x, y, z'
loop_
 _atom_site_type_symbol
 _atom_site_label
 _atom_site_symmetry_multiplicity
 _atom_site_fract_x
 _atom_site_fract_y
 _atom_site_fract_z
 _atom_site_occupancy
  Li  Li0  1  0.87481000  0.87481000  0.87481000  1
  Li  Li1  1  0.12519000  0.12519000  0.12519000  1
  Fe  Fe0  1  0.00000000  0.50000000  0.50000000  1
  Fe  Fe1  1  0.50000000  0.00000000  0.50000000  1
  Fe  Fe2  1  0.50000000  0.50000000  0.00000000  1
  Co  Co0  1  0.50000000  0.50000000  0.50000000  1
  O  O0  1  0.73788300  0.73788300  0.73788300  1
  O  O1  1  0.72928500  0.72928500  0.28946600  1
  O  O2  1  0.72928500  0.28946600  0.72928500  1
  O  O3  1  0.28946600  0.72928500  0.72928500  1
  O  O4  1  0.71053400  0.27071500  0.27071500  1
  O  O5  1  0.27071500  0.71053400  0.27071500  1
  O  O6  1  0.27071500  0.27071500  0.71053400  1
  O  O7  1  0.26211700  0.26211700  0.26211700  1
loop_
_geom_bond_atom_site_label_1
_geom_bond_atom_site_label_2
_geom_bond_distance
_geom_bond_site_symmetry_2
Li0 O0 1.948170 1_555
Li0 O1 2.013058 1_556
Li0 O3 2.013058 1_655
Li0 O2 2.013058 1_565
Li1 O7 1.948170 1_555
Li1 O6 2.013058 1_554
Li1 O5 2.013058 1_545
Li1 O4 2.013058 1_455
Fe0 O0 1.995336 1_455
Fe0 O7 1.995336 1_555
Fe0 O2 2.017374 1_455
Fe0 O5 2.017374 1_555
Fe0 O6 2.017374 1_555
Fe0 O1 2.017374 1_455
Fe1 O0 1.995336 1_545
Fe1 O7 1.995336 1_555
Fe1 O4 2.017374 1_555
Fe1 O3 2.017374 1_545
Fe1 O6 2.017374 1_555
Fe1 O1 2.017374 1_545
Fe2 O0 1.995336 1_554
Fe2 O7 1.995336 1_555
Fe2 O4 2.017374 1_555
Fe2 O5 2.017374 1_555
Fe2 O2 2.017374 1_554
Fe2 O3 2.017374 1_554
Co0 O1 1.915722 1_555
Co0 O6 1.915722 1_555
Co0 O2 1.915722 1_555
Co0 O3 1.915722 1_555
Co0 O4 1.915722 1_555
Co0 O5 1.915722 1_555
