# generated using pymatgen
data_Li3Co2(PO4)3
_symmetry_space_group_name_H-M   'P 1'
_cell_length_a   8.48855442
_cell_length_b   8.48855442
_cell_length_c   8.41007114
_cell_angle_alpha   62.38991057
_cell_angle_beta   62.38991057
_cell_angle_gamma   62.27185302
_symmetry_Int_Tables_number   1
_chemical_formula_structural   Li3Co2(PO4)3
_chemical_formula_sum   'Li6 Co4 P6 O24'
_cell_volume   450.97124840
_cell_formula_units_Z   2
loop_
 _symmetry_equiv_pos_site_id
 _symmetry_equiv_pos_as_xyz
  1  'x, y, z'
loop_
 _atom_site_type_symbol
 _atom_site_label
 _atom_site_symmetry_multiplicity
 _atom_site_fract_x
 _atom_site_fract_y
 _atom_site_fract_z
 _atom_site_occupancy
  Li  Li0  1  0.49492200  0.00719900  0.22836500  1
  Li  Li1  1  0.35000200  0.64999800  0.50000000  1
  Li  Li2  1  0.99280100  0.50507800  0.77163500  1
  Li  Li3  1  0.65271400  0.34728600  0.00000000  1
  Li  Li4  1  0.24747900  0.15545800  0.59484200  1
  Li  Li5  1  0.84454200  0.75252100  0.40515800  1
  Co  Co0  1  0.35314300  0.86292800  0.10481100  1
  Co  Co1  1  0.13707200  0.64685700  0.89518900  1
  Co  Co2  1  0.85166900  0.35224900  0.60295700  1
  Co  Co3  1  0.64775100  0.14833100  0.39704300  1
  P  P0  1  0.74847200  0.55018400  0.20039900  1
  P  P1  1  0.44981600  0.25152800  0.79960100  1
  P  P2  1  0.04678500  0.95321500  0.50000000  1
  P  P3  1  0.95678300  0.04321700  0.00000000  1
  P  P4  1  0.54013700  0.74952700  0.70528100  1
  P  P5  1  0.25047300  0.45986300  0.29471900  1
  O  O0  1  0.20056700  0.50550000  0.12200400  1
  O  O1  1  0.99365400  0.88210200  0.93885700  1
  O  O2  1  0.57920700  0.73270200  0.20484500  1
  O  O3  1  0.38211500  0.69709600  0.71994900  1
  O  O4  1  0.90499200  0.56923400  0.00931300  1
  O  O5  1  0.68945400  0.38654300  0.23325200  1
  O  O6  1  0.43076600  0.09500800  0.99068700  1
  O  O7  1  0.26729800  0.42079300  0.79515500  1
  O  O8  1  0.06670000  0.75888900  0.65565200  1
  O  O9  1  0.11789800  0.00634600  0.06114300  1
  O  O10  1  0.76267000  0.06319100  0.15875700  1
  O  O11  1  0.49450000  0.79943300  0.87799600  1
  O  O12  1  0.48721800  0.18644500  0.63682600  1
  O  O13  1  0.24111100  0.93330000  0.34434800  1
  O  O14  1  0.88738000  0.98637200  0.43619900  1
  O  O15  1  0.93680900  0.23733000  0.84124300  1
  O  O16  1  0.73374600  0.58992400  0.68903400  1
  O  O17  1  0.56773300  0.91100400  0.51338900  1
  O  O18  1  0.30290400  0.61788500  0.28005100  1
  O  O19  1  0.08899600  0.43226700  0.48661100  1
  O  O20  1  0.61345700  0.31054600  0.76674800  1
  O  O21  1  0.41007600  0.26625400  0.31096600  1
  O  O22  1  0.01362800  0.11262000  0.56380100  1
  O  O23  1  0.81355500  0.51278200  0.36317400  1
loop_
_geom_bond_atom_site_label_1
_geom_bond_atom_site_label_2
_geom_bond_distance
_geom_bond_site_symmetry_2
Li0 O6 2.024347 1_554
Li0 O2 2.173712 1_545
Li0 O13 2.174704 1_545
Li0 O10 2.290907 1_555
Li0 O21 2.305498 1_555
Li0 O17 2.425707 1_545
Li1 O8 2.118091 1_555
Li1 O13 2.118091 1_555
Li1 O3 2.215880 1_555
Li1 O18 2.215880 1_555
Li1 O7 2.370487 1_555
Li1 O2 2.370487 1_555
Li2 O4 2.024347 1_556
Li2 O7 2.173712 1_655
Li2 O8 2.174704 1_655
Li2 O15 2.290907 1_555
Li2 O16 2.305498 1_555
Li2 O19 2.425707 1_655
Li3 O10 2.132022 1_555
Li3 O15 2.132022 1_554
Li3 O5 2.307841 1_555
Li3 O20 2.307841 1_554
Li3 O21 2.492583 1_555
Li3 O16 2.492583 1_554
Li4 O19 2.090578 1_555
Li4 O21 2.135816 1_555
Li4 O22 2.319668 1_555
Li4 O12 2.363358 1_555
Li4 O15 2.509139 1_455
Li4 O17 2.550981 1_545
Li5 O17 2.090578 1_555
Li5 O16 2.135816 1_555
Li5 O14 2.319668 1_555
Li5 O23 2.363358 1_555
Li5 O10 2.509139 1_565
Li5 O19 2.550981 1_655
Co0 O11 1.896985 1_554
Co0 O9 1.899385 1_565
Co0 O18 2.020387 1_555
Co0 O6 2.026199 1_564
Co0 O13 2.032379 1_555
Co0 O2 2.067020 1_555
Co1 O0 1.896985 1_556
Co1 O1 1.899385 1_455
Co1 O3 2.020387 1_555
Co1 O4 2.026199 1_456
Co1 O8 2.032379 1_555
Co1 O7 2.067020 1_555
Co2 O23 1.917187 1_555
Co2 O22 1.932629 1_655
Co2 O20 1.934919 1_555
Co2 O19 2.075435 1_655
Co2 O15 2.089101 1_555
Co2 O16 2.097433 1_555
Co3 O12 1.917187 1_555
Co3 O14 1.932629 1_545
Co3 O5 1.934919 1_555
Co3 O17 2.075435 1_545
Co3 O10 2.089101 1_555
Co3 O21 2.097433 1_555
O0 P5 1.528234 1_555
O1 P3 1.528777 1_566
O2 P0 1.548749 1_555
O3 P4 1.537488 1_555
O4 P0 1.534262 1_555
O5 P0 1.555755 1_555
O6 P1 1.534262 1_555
O7 P1 1.548749 1_555
O8 P2 1.551553 1_555
O9 P3 1.528777 1_455
O10 P3 1.561125 1_555
O11 P4 1.528234 1_555
O12 P1 1.554016 1_555
O13 P2 1.551553 1_555
O14 P2 1.541639 1_655
O15 P3 1.561125 1_556
O16 P4 1.564168 1_555
O17 P4 1.560813 1_555
O18 P5 1.537488 1_555
O19 P5 1.560813 1_555
O20 P1 1.555755 1_555
O21 P5 1.564168 1_555
O22 P2 1.541639 1_545
O23 P0 1.554016 1_555
