# generated using pymatgen
data_LiVPO4
_symmetry_space_group_name_H-M   'P 1'
_cell_length_a   5.77235548
_cell_length_b   5.77234437
_cell_length_c   9.97839004
_cell_angle_alpha   73.01991835
_cell_angle_beta   73.01974653
_cell_angle_gamma   60.41477783
_symmetry_Int_Tables_number   1
_chemical_formula_structural   LiVPO4
_chemical_formula_sum   'Li4 V4 P4 O16'
_cell_volume   272.12311779
_cell_formula_units_Z   4
loop_
 _symmetry_equiv_pos_site_id
 _symmetry_equiv_pos_as_xyz
  1  'x, y, z'
loop_
 _atom_site_type_symbol
 _atom_site_label
 _atom_site_symmetry_multiplicity
 _atom_site_fract_x
 _atom_site_fract_y
 _atom_site_fract_z
 _atom_site_occupancy
  Li  Li0  1  0.25009400  0.74988100  0.75002800  1
  Li  Li1  1  0.75009200  0.24988400  0.25002800  1
  Li  Li2  1  0.00012700  0.49991500  0.00004900  1
  Li  Li3  1  0.49997600  0.00004600  0.50002800  1
  V  V0  1  0.50009400  0.50018700  0.49990800  1
  V  V1  1  0.50003200  0.50016900  0.99995300  1
  V  V2  1  0.99982700  0.00006400  0.99990800  1
  V  V3  1  0.99985900  0.99977700  0.50014600  1
  P  P0  1  0.56498000  0.06516300  0.81507400  1
  P  P1  1  0.06512000  0.56500900  0.31504500  1
  P  P2  1  0.43484700  0.93502400  0.18489700  1
  P  P3  1  0.93498200  0.43487100  0.68486800  1
  O  O0  1  0.60298000  0.10309000  0.13203800  1
  O  O1  1  0.10314600  0.60284300  0.63209400  1
  O  O2  1  0.61785800  0.11811100  0.64701400  1
  O  O3  1  0.11801500  0.61803800  0.14695300  1
  O  O4  1  0.38194800  0.88218200  0.35296300  1
  O  O5  1  0.88208400  0.38212700  0.85290400  1
  O  O6  1  0.39694400  0.89704000  0.86795600  1
  O  O7  1  0.89709400  0.39681300  0.36800900  1
  O  O8  1  0.39630800  0.34040300  0.86838200  1
  O  O9  1  0.89626500  0.84023000  0.36838800  1
  O  O10  1  0.84027500  0.89619400  0.86828800  1
  O  O11  1  0.34034900  0.39630300  0.36835800  1
  O  O12  1  0.60378500  0.65967500  0.13171100  1
  O  O13  1  0.10373800  0.15951100  0.63171300  1
  O  O14  1  0.15955900  0.10367000  0.13161500  1
  O  O15  1  0.65962200  0.60378100  0.63168600  1
loop_
_geom_bond_atom_site_label_1
_geom_bond_atom_site_label_2
_geom_bond_distance
_geom_bond_site_symmetry_2
Li0 O8 2.162362 1_555
Li0 O15 2.162526 1_555
Li0 O13 2.162887 1_565
Li0 O10 2.163505 1_455
Li0 O1 2.168418 1_555
Li0 O6 2.168471 1_555
Li1 O14 2.162514 1_655
Li1 O9 2.163132 1_545
Li1 O11 2.163424 1_555
Li1 O12 2.163580 1_555
Li1 O0 2.168506 1_555
Li1 O7 2.168544 1_555
Li2 O14 2.162250 1_555
Li2 O8 2.162464 1_554
Li2 O12 2.163181 1_455
Li2 O10 2.163402 1_454
Li2 O3 2.168252 1_555
Li2 O5 2.169628 1_454
Li3 O13 2.162738 1_555
Li3 O15 2.162816 1_545
Li3 O11 2.162827 1_555
Li3 O9 2.162910 1_545
Li3 O2 2.168709 1_555
Li3 O4 2.169176 1_545
O0 P2 1.578963 1_545
O0 V2 2.165220 1_554
O0 V1 2.166080 1_554
O1 P3 1.578686 1_455
O1 V3 2.164801 1_455
O1 V0 2.166017 1_555
O2 P0 1.578792 1_555
O2 V3 2.164823 1_545
O2 V0 2.166202 1_555
O3 P1 1.579083 1_555
O3 V1 2.165479 1_554
O3 V2 2.165747 1_464
O4 P2 1.578859 1_555
O4 V0 2.165154 1_555
O4 V3 2.166603 1_455
O5 P3 1.578587 1_555
O5 V2 2.165671 1_555
O5 V1 2.165854 1_555
O6 P0 1.578768 1_565
O6 V1 2.164796 1_555
O6 V2 2.165708 1_465
O7 P1 1.579046 1_655
O7 V0 2.164863 1_555
O7 V3 2.166167 1_545
O8 P0 1.555247 1_555
O8 V1 2.155023 1_555
O9 P1 1.555341 1_655
O9 V3 2.155105 1_555
O10 P0 1.555120 1_565
O10 V2 2.155067 1_565
O11 P1 1.555228 1_555
O11 V0 2.155379 1_555
O12 P2 1.555236 1_555
O12 V1 2.155542 1_554
O13 P3 1.555123 1_455
O13 V3 2.155450 1_445
O14 P2 1.555355 1_545
O14 V2 2.155531 1_454
O15 P3 1.555271 1_555
O15 V0 2.155188 1_555
