# generated using pymatgen
data_MnFe3Co2(PO4)6
_symmetry_space_group_name_H-M   'P 1'
_cell_length_a   8.41791722
_cell_length_b   8.62042344
_cell_length_c   8.62042333
_cell_angle_alpha   59.99999864
_cell_angle_beta   59.20097229
_cell_angle_gamma   59.20096830
_symmetry_Int_Tables_number   1
_chemical_formula_structural   MnFe3Co2(PO4)6
_chemical_formula_sum   'Mn1 Fe3 Co2 P6 O24'
_cell_volume   436.91278819
_cell_formula_units_Z   1
loop_
 _symmetry_equiv_pos_site_id
 _symmetry_equiv_pos_as_xyz
  1  'x, y, z'
loop_
 _atom_site_type_symbol
 _atom_site_label
 _atom_site_symmetry_multiplicity
 _atom_site_fract_x
 _atom_site_fract_y
 _atom_site_fract_z
 _atom_site_occupancy
  Mn  Mn0  1  0.57634300  0.14121900  0.14121900  1
  Fe  Fe0  1  0.06403700  0.64532100  0.64532100  1
  Fe  Fe1  1  0.43173200  0.85608900  0.85608900  1
  Fe  Fe2  1  0.93277700  0.35574100  0.35574100  1
  Co  Co0  1  0.00544000  0.99818700  0.99818700  1
  Co  Co1  1  0.49861400  0.50046200  0.50046200  1
  P  P0  1  0.25331600  0.25131000  0.53937700  1
  P  P1  1  0.25331600  0.95599800  0.25131000  1
  P  P2  1  0.25331600  0.53937700  0.95599800  1
  P  P3  1  0.74476700  0.45401800  0.04832700  1
  P  P4  1  0.74476700  0.04832700  0.75288900  1
  P  P5  1  0.74476700  0.75288900  0.45401800  1
  O  O0  1  0.06759800  0.10873900  0.32552700  1
  O  O1  1  0.06759800  0.49813600  0.10873900  1
  O  O2  1  0.06759800  0.32552700  0.49813600  1
  O  O3  1  0.22311100  0.09344000  0.74027300  1
  O  O4  1  0.43996800  0.18367800  0.37839700  1
  O  O5  1  0.28432900  0.40700200  0.55491300  1
  O  O6  1  0.22311100  0.94317500  0.09344000  1
  O  O7  1  0.28432900  0.75375700  0.40700200  1
  O  O8  1  0.56041900  0.60928400  0.00637800  1
  O  O9  1  0.28432900  0.55491300  0.75375700  1
  O  O10  1  0.77282200  0.25103800  0.06151400  1
  O  O11  1  0.56041900  0.00637800  0.82391900  1
  O  O12  1  0.43996800  0.99795700  0.18367800  1
  O  O13  1  0.22311100  0.74027300  0.94317500  1
  O  O14  1  0.71822400  0.43562900  0.24912100  1
  O  O15  1  0.43996800  0.37839700  0.99795700  1
  O  O16  1  0.71822400  0.24912100  0.59702600  1
  O  O17  1  0.77282200  0.06151400  0.91462600  1
  O  O18  1  0.71822400  0.59702600  0.43562900  1
  O  O19  1  0.56041900  0.82391900  0.60928400  1
  O  O20  1  0.77282200  0.91462600  0.25103800  1
  O  O21  1  0.93246600  0.68736500  0.48976200  1
  O  O22  1  0.93246600  0.48976200  0.89040700  1
  O  O23  1  0.93246600  0.89040700  0.68736500  1
loop_
_geom_bond_atom_site_label_1
_geom_bond_atom_site_label_2
_geom_bond_distance
_geom_bond_site_symmetry_2
Mn0 O15 1.883234 1_554
Mn0 O4 1.883235 1_555
Mn0 O12 1.883235 1_545
Mn0 O20 1.973085 1_545
Mn0 O17 1.973085 1_554
Mn0 O10 1.973085 1_555
Fe0 O23 1.944253 1_455
Fe0 O21 1.944253 1_455
Fe0 O22 1.944253 1_455
Fe0 O5 2.118150 1_555
Fe0 O7 2.118154 1_555
Fe0 O9 2.118157 1_555
Fe1 O19 1.923307 1_555
Fe1 O8 1.923311 1_556
Fe1 O11 1.923315 1_565
Fe1 O3 2.083344 1_565
Fe1 O6 2.083344 1_556
Fe1 O13 2.083344 1_555
Fe2 O0 1.914898 1_655
Fe2 O2 1.914898 1_655
Fe2 O1 1.914898 1_655
Fe2 O18 2.091467 1_555
Fe2 O14 2.091467 1_555
Fe2 O16 2.091467 1_555
Co0 O6 2.125584 1_556
Co0 O3 2.125591 1_565
Co0 O13 2.125597 1_555
Co0 O10 2.146576 1_466
Co0 O20 2.146579 1_456
Co0 O17 2.146582 1_465
Co1 O5 2.089555 1_555
Co1 O7 2.089559 1_555
Co1 O9 2.089561 1_555
Co1 O16 2.115521 1_555
Co1 O14 2.115521 1_555
Co1 O18 2.115521 1_555
O0 P1 1.515663 1_545
O1 P2 1.515666 1_554
O2 P0 1.515667 1_555
O3 P0 1.569227 1_555
O4 P0 1.540297 1_555
O5 P0 1.569003 1_555
O6 P1 1.569237 1_555
O7 P1 1.569003 1_555
O8 P3 1.514608 1_555
O9 P2 1.569003 1_555
O10 P3 1.592423 1_555
O11 P4 1.514611 1_555
O12 P1 1.540292 1_555
O13 P2 1.569220 1_555
O14 P3 1.561088 1_555
O15 P2 1.540294 1_555
O16 P4 1.561091 1_555
O17 P4 1.592414 1_555
O18 P5 1.561096 1_555
O19 P5 1.514606 1_555
O20 P5 1.592419 1_555
O21 P5 1.523509 1_555
O22 P3 1.523511 1_556
O23 P4 1.523513 1_565
