# generated using pymatgen
data_Li2MnF6
_symmetry_space_group_name_H-M   'P 1'
_cell_length_a   5.73957856
_cell_length_b   5.73957856
_cell_length_c   4.85999000
_cell_angle_alpha   90.00000000
_cell_angle_beta   90.00000000
_cell_angle_gamma   120.00000644
_symmetry_Int_Tables_number   1
_chemical_formula_structural   Li2MnF6
_chemical_formula_sum   'Li2 Mn1 F6'
_cell_volume   138.65195203
_cell_formula_units_Z   1
loop_
 _symmetry_equiv_pos_site_id
 _symmetry_equiv_pos_as_xyz
  1  'x, y, z'
loop_
 _atom_site_type_symbol
 _atom_site_label
 _atom_site_symmetry_multiplicity
 _atom_site_fract_x
 _atom_site_fract_y
 _atom_site_fract_z
 _atom_site_occupancy
  Li  Li0  1  0.33333300  0.66666700  0.27351400  1
  Li  Li1  1  0.66666700  0.33333300  0.72648600  1
  Mn  Mn0  1  0.00000000  0.00000000  0.00000000  1
  F  F0  1  0.15113000  0.84887000  0.21835000  1
  F  F1  1  0.15113000  0.30226000  0.21835000  1
  F  F2  1  0.30226000  0.15113000  0.78165000  1
  F  F3  1  0.69774000  0.84887000  0.21835000  1
  F  F4  1  0.84887000  0.69774000  0.78165000  1
  F  F5  1  0.84887000  0.15113000  0.78165000  1
loop_
_geom_bond_atom_site_label_1
_geom_bond_atom_site_label_2
_geom_bond_distance
_geom_bond_site_symmetry_2
F0 Li0 1.831057 1_555
F0 Mn0 1.839393 1_565
F1 Li0 1.831062 1_555
F1 Mn0 1.839393 1_555
F2 Li1 1.831062 1_555
F2 Mn0 1.839393 1_556
F3 Li0 1.831062 1_555
F3 Mn0 1.839393 1_665
F4 Li1 1.831062 1_555
F4 Mn0 1.839393 1_666
F5 Li1 1.831057 1_555
F5 Mn0 1.839393 1_656
