# generated using pymatgen
data_Li24Ti7Cr5O36
_symmetry_space_group_name_H-M   'P 1'
_cell_length_a   5.05806000
_cell_length_b   9.79891258
_cell_length_c   13.44988268
_cell_angle_alpha   97.14326824
_cell_angle_beta   100.58667317
_cell_angle_gamma   94.61965009
_symmetry_Int_Tables_number   1
_chemical_formula_structural   Li24Ti7Cr5O36
_chemical_formula_sum   'Li24 Ti7 Cr5 O36'
_cell_volume   646.52678655
_cell_formula_units_Z   1
loop_
 _symmetry_equiv_pos_site_id
 _symmetry_equiv_pos_as_xyz
  1  'x, y, z'
loop_
 _atom_site_type_symbol
 _atom_site_label
 _atom_site_symmetry_multiplicity
 _atom_site_fract_x
 _atom_site_fract_y
 _atom_site_fract_z
 _atom_site_occupancy
  Li  Li0  1  0.15778900  0.00028400  0.83535500  1
  Li  Li1  1  0.05265600  0.00010700  0.61242100  1
  Li  Li2  1  0.00050200  0.74938600  0.25149400  1
  Li  Li3  1  0.33203900  0.75046900  0.91591600  1
  Li  Li4  1  0.04412900  0.49858000  0.11188200  1
  Li  Li5  1  0.38374400  0.49965900  0.77854100  1
  Li  Li6  1  0.16554200  0.49983300  0.33381900  1
  Li  Li7  1  0.49522100  0.50052500  0.99980500  1
  Li  Li8  1  0.28750800  0.49924100  0.55282700  1
  Li  Li9  1  0.33024400  0.24954700  0.41631800  1
  Li  Li10  1  0.49081800  0.00107200  0.50172100  1
  Li  Li11  1  0.28977900  0.00201600  0.05396200  1
  Li  Li12  1  0.62108600  0.00007800  0.71869100  1
  Li  Li13  1  0.37901100  0.00196900  0.27962700  1
  Li  Li14  1  0.71474100  0.99878600  0.94450900  1
  Li  Li15  1  0.66504200  0.75015200  0.58405700  1
  Li  Li16  1  0.71948100  0.50097100  0.44735800  1
  Li  Li17  1  0.82284800  0.49962000  0.66885300  1
  Li  Li18  1  0.62013000  0.50062300  0.22114500  1
  Li  Li19  1  0.95767000  0.50046800  0.88679500  1
  Li  Li20  1  0.66671700  0.24973200  0.08307200  1
  Li  Li21  1  0.83554400  0.99902700  0.16761900  1
  Li  Li22  1  0.00078400  0.25057700  0.75125100  1
  Li  Li23  1  0.95500800  0.99809300  0.38683800  1
  Ti  Ti0  1  0.22535900  0.74992000  0.69333000  1
  Ti  Ti1  1  0.56534500  0.25609300  0.86091400  1
  Ti  Ti2  1  0.44716900  0.74948600  0.13930300  1
  Ti  Ti3  1  0.55456600  0.74694700  0.36102300  1
  Ti  Ti4  1  0.77460000  0.24861500  0.30562100  1
  Ti  Ti5  1  0.88695000  0.24630700  0.52714400  1
  Ti  Ti6  1  0.89574600  0.75373300  0.02663900  1
  Cr  Cr0  1  0.12013000  0.25061800  0.97366800  1
  Cr  Cr1  1  0.10656400  0.75043500  0.47366600  1
  Cr  Cr2  1  0.21599400  0.24836800  0.19213600  1
  Cr  Cr3  1  0.43850200  0.25018800  0.64025900  1
  Cr  Cr4  1  0.77403300  0.74956200  0.80595700  1
  O  O0  1  0.00581800  0.86379300  0.92922700  1
  O  O1  1  0.06659400  0.63653300  0.78554400  1
  O  O2  1  0.99687200  0.36332500  0.42854000  1
  O  O3  1  0.15201300  0.36221900  0.64442000  1
  O  O4  1  0.26640000  0.36648000  0.88083400  1
  O  O5  1  0.33645000  0.86341100  0.59641000  1
  O  O6  1  0.06720700  0.13340200  0.28521400  1
  O  O7  1  0.18789400  0.13662100  0.52266300  1
  O  O8  1  0.39595200  0.13494900  0.95178800  1
  O  O9  1  0.14138200  0.86340200  0.14295100  1
  O  O10  1  0.26060700  0.86359900  0.38317500  1
  O  O11  1  0.48496900  0.86284600  0.81039100  1
  O  O12  1  0.33510500  0.13782900  0.73515600  1
  O  O13  1  0.19056300  0.63645900  0.02275800  1
  O  O14  1  0.40140000  0.63594900  0.45347500  1
  O  O15  1  0.52118100  0.63605600  0.68891100  1
  O  O16  1  0.33221200  0.63620100  0.23823900  1
  O  O17  1  0.66474700  0.63846500  0.90098600  1
  O  O18  1  0.33184200  0.36069700  0.09084000  1
  O  O19  1  0.67301700  0.36431200  0.76308400  1
  O  O20  1  0.47182900  0.36146500  0.30734200  1
  O  O21  1  0.59445400  0.36361200  0.54963900  1
  O  O22  1  0.81369800  0.36239100  0.97751300  1
  O  O23  1  0.66676000  0.86347800  0.26246500  1
  O  O24  1  0.51916900  0.13854500  0.18856200  1
  O  O25  1  0.73518900  0.13617200  0.62013800  1
  O  O26  1  0.86146300  0.13814600  0.85921000  1
  O  O27  1  0.59630800  0.86624900  0.04794100  1
  O  O28  1  0.81785600  0.86178300  0.47800000  1
  O  O29  1  0.92744000  0.86404400  0.71599400  1
  O  O30  1  0.66524400  0.13476800  0.40454500  1
  O  O31  1  0.73463900  0.63365600  0.11719500  1
  O  O32  1  0.85451600  0.63631900  0.35606400  1
  O  O33  1  0.99905500  0.63733700  0.56862600  1
  O  O34  1  0.93596400  0.36490000  0.21355700  1
  O  O35  1  0.00120000  0.13950500  0.07506500  1
loop_
_geom_bond_atom_site_label_1
_geom_bond_atom_site_label_2
_geom_bond_distance
_geom_bond_site_symmetry_2
Li0 O8 2.044908 1_555
Li0 O29 2.060619 1_445
Li0 O26 2.137624 1_455
Li0 O0 2.141197 1_545
Li0 O11 2.261825 1_545
Li0 O12 2.266776 1_555
Li1 O5 2.062191 1_545
Li1 O7 2.066981 1_555
Li1 O25 2.176835 1_455
Li1 O29 2.183895 1_445
Li1 O12 2.203658 1_555
Li1 O28 2.204222 1_445
Li2 O32 2.094812 1_455
Li2 O16 2.106511 1_555
Li2 O23 2.115605 1_455
Li2 O10 2.129284 1_555
Li2 O9 2.132349 1_555
Li2 O31 2.170136 1_455
Li3 O0 2.083761 1_555
Li3 O17 2.108020 1_555
Li3 O13 2.115064 1_556
Li3 O11 2.116656 1_555
Li3 O1 2.128483 1_555
Li3 O27 2.146993 1_556
Li4 O13 2.092532 1_555
Li4 O18 2.096746 1_555
Li4 O34 2.119031 1_455
Li4 O31 2.135157 1_455
Li4 O22 2.186587 1_454
Li4 O16 2.243573 1_555
Li5 O15 2.069261 1_555
Li5 O19 2.073352 1_555
Li5 O4 2.137770 1_555
Li5 O1 2.179850 1_555
Li5 O3 2.192329 1_555
Li5 O17 2.203128 1_555
Li6 O34 2.059999 1_455
Li6 O14 2.072826 1_555
Li6 O32 2.182995 1_455
Li6 O2 2.186210 1_455
Li6 O20 2.187745 1_555
Li6 O16 2.189263 1_555
Li7 O4 2.043816 1_555
Li7 O31 2.047413 1_556
Li7 O13 2.155766 1_556
Li7 O18 2.160108 1_556
Li7 O22 2.223671 1_555
Li7 O17 2.237774 1_555
Li8 O3 2.088883 1_555
Li8 O33 2.089361 1_455
Li8 O14 2.125023 1_555
Li8 O21 2.126311 1_555
Li8 O15 2.209960 1_555
Li8 O2 2.226475 1_455
Li9 O7 2.105332 1_555
Li9 O2 2.114816 1_455
Li9 O30 2.126614 1_555
Li9 O20 2.126694 1_555
Li9 O6 2.137678 1_555
Li9 O21 2.151981 1_555
Li10 O10 2.060022 1_545
Li10 O25 2.075015 1_555
Li10 O7 2.141158 1_555
Li10 O5 2.161986 1_545
Li10 O30 2.205972 1_555
Li10 O28 2.269427 1_545
Li11 O35 2.097641 1_555
Li11 O9 2.100247 1_545
Li11 O8 2.115976 1_554
Li11 O27 2.128828 1_545
Li11 O24 2.188426 1_555
Li11 O0 2.224436 1_544
Li12 O12 2.078772 1_555
Li12 O11 2.092563 1_545
Li12 O25 2.113120 1_555
Li12 O29 2.126180 1_545
Li12 O5 2.200616 1_545
Li12 O26 2.266137 1_555
Li13 O24 2.089898 1_555
Li13 O23 2.092113 1_545
Li13 O6 2.120923 1_555
Li13 O10 2.186783 1_545
Li13 O30 2.207091 1_555
Li13 O9 2.229807 1_545
Li14 O26 2.066640 1_565
Li14 O0 2.077718 1_655
Li14 O27 2.147333 1_556
Li14 O11 2.182143 1_555
Li14 O8 2.182175 1_565
Li14 O35 2.285882 1_666
Li15 O5 2.091506 1_555
Li15 O15 2.099161 1_555
Li15 O28 2.117958 1_555
Li15 O33 2.119438 1_555
Li15 O14 2.127308 1_555
Li15 O29 2.135290 1_555
Li16 O2 2.049943 1_555
Li16 O32 2.073757 1_555
Li16 O14 2.170014 1_555
Li16 O21 2.178777 1_555
Li16 O33 2.179817 1_555
Li16 O20 2.280654 1_555
Li17 O21 2.054649 1_555
Li17 O1 2.069311 1_655
Li17 O19 2.132502 1_555
Li17 O15 2.139747 1_555
Li17 O33 2.265572 1_555
Li17 O3 2.268223 1_655
Li18 O16 2.073007 1_555
Li18 O20 2.077038 1_555
Li18 O31 2.149118 1_555
Li18 O34 2.167847 1_555
Li18 O32 2.195896 1_555
Li18 O18 2.284534 1_555
Li19 O17 2.102993 1_555
Li19 O22 2.104289 1_555
Li19 O4 2.125754 1_655
Li19 O1 2.131822 1_655
Li19 O13 2.203867 1_656
Li19 O19 2.209024 1_555
Li20 O35 2.091149 1_655
Li20 O18 2.096588 1_555
Li20 O24 2.097531 1_555
Li20 O22 2.105354 1_554
Li20 O34 2.142413 1_555
Li20 O8 2.151269 1_554
Li21 O6 2.039835 1_665
Li21 O27 2.063468 1_555
Li21 O9 2.163191 1_655
Li21 O23 2.181577 1_555
Li21 O35 2.184074 1_665
Li21 O24 2.220679 1_565
Li22 O19 2.089587 1_455
Li22 O26 2.113652 1_455
Li22 O12 2.122019 1_555
Li22 O3 2.122841 1_555
Li22 O4 2.129323 1_555
Li22 O25 2.136934 1_455
Li23 O28 2.083092 1_555
Li23 O30 2.088919 1_565
Li23 O10 2.113896 1_655
Li23 O6 2.136067 1_665
Li23 O7 2.214153 1_665
Li23 O23 2.215672 1_555
Cr0 O18 1.888095 1_556
Cr0 O8 1.907946 1_555
Cr0 O22 1.973175 1_455
Cr0 O26 1.975349 1_455
Cr0 O4 1.987970 1_555
Cr0 O35 1.993100 1_556
Cr1 O28 1.896964 1_455
Cr1 O33 1.914493 1_455
Cr1 O10 1.965441 1_555
Cr1 O14 1.974531 1_555
Cr1 O5 1.983886 1_555
Cr1 O32 1.991760 1_455
Cr2 O35 1.888018 1_555
Cr2 O34 1.929192 1_455
Cr2 O24 1.947305 1_555
Cr2 O20 1.977071 1_555
Cr2 O6 1.990741 1_555
Cr2 O18 1.993363 1_555
Cr3 O3 1.891785 1_555
Cr3 O12 1.901789 1_555
Cr3 O21 1.972816 1_555
Cr3 O25 1.979274 1_555
Cr3 O7 1.986241 1_555
Cr3 O19 1.998376 1_555
Cr4 O17 1.906045 1_555
Cr4 O11 1.910641 1_555
Cr4 O1 1.956916 1_655
Cr4 O29 1.966457 1_555
Cr4 O15 1.986613 1_555
Cr4 O0 1.997271 1_655
O0 Ti6 1.926749 1_456
O1 Ti0 1.995641 1_555
O2 Ti4 1.977866 1_555
O2 Ti5 1.982225 1_555
O3 Ti5 2.026738 1_455
O4 Ti1 1.966834 1_555
O5 Ti0 1.944422 1_555
O6 Ti4 1.970206 1_455
O7 Ti5 1.938310 1_455
O8 Ti1 2.054008 1_555
O9 Ti6 1.948958 1_455
O9 Ti2 1.983191 1_555
O10 Ti3 1.989465 1_555
O11 Ti0 2.000159 1_555
O12 Ti1 2.032595 1_555
O13 Ti6 1.958747 1_455
O13 Ti2 1.989340 1_555
O14 Ti3 1.970791 1_555
O15 Ti0 1.942265 1_555
O16 Ti3 1.960866 1_555
O16 Ti2 1.971993 1_555
O17 Ti6 2.020945 1_556
O19 Ti1 1.915658 1_555
O20 Ti4 1.961653 1_555
O21 Ti5 1.988348 1_555
O22 Ti1 1.944592 1_555
O23 Ti2 1.972131 1_555
O23 Ti3 1.982827 1_555
O24 Ti4 1.979175 1_555
O25 Ti5 1.968085 1_555
O26 Ti1 1.965836 1_555
O27 Ti2 1.984776 1_555
O27 Ti6 1.985317 1_555
O28 Ti3 2.015817 1_555
O29 Ti0 1.992403 1_655
O30 Ti5 1.961126 1_555
O30 Ti4 1.964919 1_555
O31 Ti2 1.957465 1_555
O31 Ti6 2.024497 1_555
O32 Ti3 1.940488 1_555
O33 Ti0 1.992840 1_655
O34 Ti4 2.017489 1_555
