# generated using pymatgen
data_Ca5Mn4O9
_symmetry_space_group_name_H-M   'P 1'
_cell_length_a   8.72197345
_cell_length_b   8.72197345
_cell_length_c   9.90283086
_cell_angle_alpha   55.90449266
_cell_angle_beta   55.90449266
_cell_angle_gamma   22.00807081
_symmetry_Int_Tables_number   1
_chemical_formula_structural   Ca5Mn4O9
_chemical_formula_sum   'Ca5 Mn4 O9'
_cell_volume   231.74223944
_cell_formula_units_Z   1
loop_
 _symmetry_equiv_pos_site_id
 _symmetry_equiv_pos_as_xyz
  1  'x, y, z'
loop_
 _atom_site_type_symbol
 _atom_site_label
 _atom_site_symmetry_multiplicity
 _atom_site_fract_x
 _atom_site_fract_y
 _atom_site_fract_z
 _atom_site_occupancy
  Ca  Ca0  1  0.32956600  0.32956600  0.66896200  1
  Ca  Ca1  1  0.00125900  0.00125900  0.32538300  1
  Ca  Ca2  1  0.00381400  0.00381400  0.66901400  1
  Ca  Ca3  1  0.67066400  0.67066400  0.33466200  1
  Ca  Ca4  1  0.33679400  0.33679400  0.00260800  1
  Mn  Mn0  1  0.66798600  0.66798600  0.99930900  1
  Mn  Mn1  1  0.66736700  0.66736700  0.66969200  1
  Mn  Mn2  1  0.33454000  0.33454000  0.33410000  1
  Mn  Mn3  1  0.00493500  0.00493500  0.99908900  1
  O  O0  1  0.16375000  0.16375000  0.83921600  1
  O  O1  1  0.83008200  0.83008200  0.49620900  1
  O  O2  1  0.83139800  0.83139800  0.83782000  1
  O  O3  1  0.50333600  0.50333600  0.15584000  1
  O  O4  1  0.50206200  0.50206200  0.49958000  1
  O  O5  1  0.50674800  0.50674800  0.83519200  1
  O  O6  1  0.16897500  0.16897500  0.16071300  1
  O  O7  1  0.17199300  0.17199300  0.50479700  1
  O  O8  1  0.83883700  0.83883700  0.17208400  1
loop_
_geom_bond_atom_site_label_1
_geom_bond_atom_site_label_2
_geom_bond_distance
_geom_bond_site_symmetry_2
Ca0 O0 2.331674 1_555
Ca0 O2 2.372494 1_455
Ca0 O2 2.372494 1_545
Ca0 O1 2.383512 1_545
Ca0 O1 2.383512 1_455
Ca0 O4 2.424695 1_555
Ca1 O3 2.350240 1_545
Ca1 O3 2.350240 1_455
Ca1 O6 2.357506 1_555
Ca1 O4 2.403066 1_455
Ca1 O4 2.403066 1_545
Ca1 O1 2.406203 1_445
Ca2 O5 2.361510 1_545
Ca2 O5 2.361510 1_455
Ca2 O7 2.364067 1_555
Ca2 O4 2.375991 1_455
Ca2 O4 2.375991 1_545
Ca2 O2 2.423595 1_445
Ca3 O8 2.364163 1_555
Ca3 O4 2.369992 1_555
Ca3 O7 2.377939 1_655
Ca3 O7 2.377939 1_565
Ca3 O6 2.407637 1_655
Ca3 O6 2.407637 1_565
Ca4 O6 2.360138 1_555
Ca4 O2 2.369686 1_544
Ca4 O2 2.369686 1_454
Ca4 O8 2.378364 1_455
Ca4 O8 2.378364 1_545
Ca4 O5 2.388949 1_554
Mn0 O2 2.296989 1_555
Mn0 O6 2.314653 1_566
Mn0 O6 2.314653 1_656
Mn0 O3 2.315167 1_556
Mn0 O0 2.328451 1_565
Mn0 O0 2.328451 1_655
Mn1 O5 2.258761 1_555
Mn1 O1 2.290706 1_555
Mn1 O7 2.301448 1_655
Mn1 O7 2.301448 1_565
Mn1 O0 2.339875 1_565
Mn1 O0 2.339875 1_655
Mn2 O1 2.283560 1_545
Mn2 O1 2.283560 1_455
Mn2 O8 2.283946 1_455
Mn2 O8 2.283946 1_545
Mn2 O7 2.287057 1_555
Mn2 O3 2.375439 1_555
Mn3 O0 2.232576 1_555
Mn3 O3 2.265711 1_456
Mn3 O3 2.265711 1_546
Mn3 O5 2.312868 1_455
Mn3 O5 2.312868 1_545
Mn3 O8 2.336437 1_446
