# generated using pymatgen
data_K3CrPCO7
_symmetry_space_group_name_H-M   'P 1'
_cell_length_a   9.94343236
_cell_length_b   6.80709900
_cell_length_c   5.73324512
_cell_angle_alpha   89.99848373
_cell_angle_beta   88.62955287
_cell_angle_gamma   90.00328154
_symmetry_Int_Tables_number   1
_chemical_formula_structural   K3CrPCO7
_chemical_formula_sum   'K6 Cr2 P2 C2 O14'
_cell_volume   387.94901725
_cell_formula_units_Z   2
loop_
 _symmetry_equiv_pos_site_id
 _symmetry_equiv_pos_as_xyz
  1  'x, y, z'
loop_
 _atom_site_type_symbol
 _atom_site_label
 _atom_site_symmetry_multiplicity
 _atom_site_fract_x
 _atom_site_fract_y
 _atom_site_fract_z
 _atom_site_occupancy
  K  K0  1  0.07829500  0.24999500  0.75935000  1
  K  K1  1  0.27168200  0.01024700  0.24613900  1
  K  K2  1  0.27168000  0.48974400  0.24615500  1
  K  K3  1  0.72833700  0.51024300  0.75382200  1
  K  K4  1  0.72833100  0.98975000  0.75382900  1
  K  K5  1  0.92172300  0.74998400  0.24061200  1
  Cr  Cr0  1  0.35845700  0.75010500  0.75677900  1
  Cr  Cr1  1  0.64157900  0.25002800  0.24336800  1
  P  P0  1  0.42324400  0.24999800  0.70451500  1
  P  P1  1  0.57673300  0.75000500  0.29549800  1
  C  C0  1  0.07996100  0.74999300  0.73047500  1
  C  C1  1  0.92006000  0.25000200  0.26952600  1
  O  O0  1  0.04955200  0.24999800  0.23869100  1
  O  O1  1  0.15877200  0.74998100  0.91261900  1
  O  O2  1  0.13519600  0.74999600  0.52346100  1
  O  O3  1  0.33222300  0.06493400  0.75201400  1
  O  O4  1  0.33220200  0.43500000  0.75202700  1
  O  O5  1  0.46472600  0.24998800  0.43862400  1
  O  O6  1  0.45306000  0.74999700  0.13945100  1
  O  O7  1  0.54695000  0.24998600  0.86053000  1
  O  O8  1  0.53521700  0.74998800  0.56137000  1
  O  O9  1  0.66777300  0.56498400  0.24800600  1
  O  O10  1  0.66777100  0.93503500  0.24802300  1
  O  O11  1  0.86483200  0.25000100  0.47652500  1
  O  O12  1  0.84120200  0.25001000  0.08736000  1
  O  O13  1  0.95044200  0.75000700  0.76123000  1
loop_
_geom_bond_atom_site_label_1
_geom_bond_atom_site_label_2
_geom_bond_distance
_geom_bond_site_symmetry_2
K0 O11 2.701693 1_455
K0 O0 2.756194 1_556
K0 O4 2.820714 1_555
K0 O3 2.821201 1_555
K0 O12 2.980325 1_456
K0 O0 3.005513 1_555
K1 O6 2.590919 1_545
K1 O2 2.721130 1_545
K1 O0 2.747491 1_555
K1 O5 2.768881 1_555
K1 O1 2.856259 1_544
K1 O3 2.906003 1_554
K1 O3 2.999380 1_555
K2 O6 2.590803 1_555
K2 O2 2.721229 1_555
K2 O0 2.747309 1_555
K2 O5 2.769012 1_555
K2 O1 2.856208 1_554
K2 O4 2.906063 1_554
K2 O4 2.999359 1_555
K3 O7 2.590875 1_555
K3 O11 2.721208 1_555
K3 O13 2.747186 1_555
K3 O8 2.769445 1_555
K3 O12 2.856024 1_556
K3 O9 2.906449 1_556
K3 O9 2.999138 1_555
K4 O7 2.590890 1_565
K4 O11 2.721144 1_565
K4 O13 2.747297 1_555
K4 O8 2.769393 1_555
K4 O12 2.856118 1_566
K4 O10 2.906446 1_556
K4 O10 2.999062 1_555
K5 O2 2.701858 1_655
K5 O13 2.756409 1_554
K5 O9 2.821079 1_555
K5 O10 2.821381 1_555
K5 O1 2.979926 1_654
K5 O13 3.005251 1_555
Cr0 O8 2.061579 1_555
Cr0 O1 2.157743 1_555
Cr0 O3 2.159155 1_565
Cr0 O4 2.161016 1_555
Cr0 O6 2.407701 1_556
Cr0 O2 2.619106 1_555
Cr1 O5 2.061897 1_555
Cr1 O12 2.157560 1_555
Cr1 O9 2.159926 1_555
Cr1 O10 2.160203 1_545
Cr1 O7 2.408683 1_554
Cr1 O11 2.618548 1_555
C0 O13 1.295693 1_455
C0 O2 1.295805 1_555
C0 O1 1.320518 1_555
C1 O0 1.295479 1_655
C1 O11 1.295699 1_555
C1 O12 1.320906 1_555
O3 P0 1.571090 1_555
O4 P0 1.570978 1_555
O5 P0 1.569684 1_555
O6 P1 1.537947 1_555
O7 P0 1.538103 1_555
O8 P1 1.569660 1_555
O9 P1 1.571052 1_555
O10 P1 1.570980 1_555
