# generated using pymatgen
data_Li6Ti2O7
_symmetry_space_group_name_H-M   'P 1'
_cell_length_a   10.08878400
_cell_length_b   10.08878400
_cell_length_c   2.96324100
_cell_angle_alpha   90.00000000
_cell_angle_beta   90.00000000
_cell_angle_gamma   90.00000000
_symmetry_Int_Tables_number   1
_chemical_formula_structural   Li6Ti2O7
_chemical_formula_sum   'Li12 Ti4 O14'
_cell_volume   301.60922582
_cell_formula_units_Z   2
loop_
 _symmetry_equiv_pos_site_id
 _symmetry_equiv_pos_as_xyz
  1  'x, y, z'
loop_
 _atom_site_type_symbol
 _atom_site_label
 _atom_site_symmetry_multiplicity
 _atom_site_fract_x
 _atom_site_fract_y
 _atom_site_fract_z
 _atom_site_occupancy
  Li  Li0  1  0.30016000  0.10790700  0.03175200  1
  Li  Li1  1  0.08507600  0.08507600  0.53525100  1
  Li  Li2  1  0.60790700  0.19984000  0.53175200  1
  Li  Li3  1  0.10790700  0.30016000  0.03175200  1
  Li  Li4  1  0.58507600  0.41492400  0.03525100  1
  Li  Li5  1  0.80016000  0.39209300  0.53175200  1
  Li  Li6  1  0.19984000  0.60790700  0.53175200  1
  Li  Li7  1  0.41492400  0.58507600  0.03525100  1
  Li  Li8  1  0.89209300  0.69984000  0.03175200  1
  Li  Li9  1  0.39209300  0.80016000  0.53175200  1
  Li  Li10  1  0.91492400  0.91492400  0.53525100  1
  Li  Li11  1  0.69984000  0.89209300  0.03175200  1
  Ti  Ti0  1  0.84710200  0.15289800  0.04814700  1
  Ti  Ti1  1  0.34710200  0.34710200  0.54814700  1
  Ti  Ti2  1  0.65289800  0.65289800  0.54814700  1
  Ti  Ti3  1  0.15289800  0.84710200  0.04814700  1
  O  O0  1  0.00000000  0.00000000  0.03522100  1
  O  O1  1  0.75547800  0.05318700  0.53011700  1
  O  O2  1  0.44681300  0.25547800  0.03011700  1
  O  O3  1  0.21831100  0.21831100  0.53177900  1
  O  O4  1  0.71831100  0.28168900  0.03177900  1
  O  O5  1  0.94681300  0.24452200  0.53011700  1
  O  O6  1  0.25547800  0.44681300  0.03011700  1
  O  O7  1  0.50000000  0.50000000  0.53522100  1
  O  O8  1  0.74452200  0.55318700  0.03011700  1
  O  O9  1  0.05318700  0.75547800  0.53011700  1
  O  O10  1  0.28168900  0.71831100  0.03177900  1
  O  O11  1  0.78168900  0.78168900  0.53177900  1
  O  O12  1  0.55318700  0.74452200  0.03011700  1
  O  O13  1  0.24452200  0.94681300  0.53011700  1
loop_
_geom_bond_atom_site_label_1
_geom_bond_atom_site_label_2
_geom_bond_distance
_geom_bond_site_symmetry_2
Li0 O3 2.029158 1_554
Li0 O3 2.029275 1_555
Li0 O2 2.098965 1_555
Li0 O13 2.266574 1_545
Li0 O13 2.272900 1_544
Li1 O3 1.900984 1_555
Li1 O0 1.915291 1_556
Li1 O0 1.915429 1_555
Li1 O5 2.129234 1_455
Li1 O13 2.129234 1_545
Li2 O4 2.029158 1_555
Li2 O4 2.029275 1_556
Li2 O1 2.098965 1_555
Li2 O2 2.266574 1_556
Li2 O2 2.272900 1_555
Li3 O3 2.029158 1_554
Li3 O3 2.029275 1_555
Li3 O6 2.098965 1_555
Li3 O5 2.266574 1_455
Li3 O5 2.272900 1_454
Li4 O4 1.900984 1_555
Li4 O7 1.915291 1_555
Li4 O7 1.915429 1_554
Li4 O8 2.129234 1_555
Li4 O2 2.129234 1_555
Li5 O4 2.029158 1_555
Li5 O4 2.029275 1_556
Li5 O5 2.098965 1_555
Li5 O8 2.266574 1_556
Li5 O8 2.272900 1_555
Li6 O10 2.029158 1_555
Li6 O10 2.029275 1_556
Li6 O9 2.098965 1_555
Li6 O6 2.266574 1_556
Li6 O6 2.272900 1_555
Li7 O10 1.900984 1_555
Li7 O7 1.915291 1_555
Li7 O7 1.915429 1_554
Li7 O12 2.129234 1_555
Li7 O6 2.129234 1_555
Li8 O11 2.029158 1_554
Li8 O11 2.029275 1_555
Li8 O8 2.098965 1_555
Li8 O9 2.266574 1_655
Li8 O9 2.272900 1_654
Li9 O10 2.029158 1_555
Li9 O10 2.029275 1_556
Li9 O13 2.098965 1_555
Li9 O12 2.266574 1_556
Li9 O12 2.272900 1_555
Li10 O11 1.900984 1_555
Li10 O0 1.915291 1_666
Li10 O0 1.915429 1_665
Li10 O9 2.129234 1_655
Li10 O1 2.129234 1_565
Li11 O11 2.029158 1_554
Li11 O11 2.029275 1_555
Li11 O12 2.098965 1_555
Li11 O1 2.266574 1_565
Li11 O1 2.272900 1_564
O0 Ti0 2.181838 1_455
O0 Ti3 2.181838 1_545
O1 Ti0 1.976402 1_555
O1 Ti0 2.054946 1_556
O2 Ti1 1.976402 1_554
O2 Ti1 2.054946 1_555
O3 Ti1 1.838191 1_555
O4 Ti0 1.838191 1_555
O5 Ti0 1.976402 1_555
O5 Ti0 2.054946 1_556
O6 Ti1 1.976402 1_554
O6 Ti1 2.054946 1_555
O7 Ti2 2.181838 1_555
O7 Ti1 2.181838 1_555
O8 Ti2 1.976402 1_554
O8 Ti2 2.054946 1_555
O9 Ti3 1.976402 1_555
O9 Ti3 2.054946 1_556
O10 Ti3 1.838191 1_555
O11 Ti2 1.838191 1_555
O12 Ti2 1.976402 1_554
O12 Ti2 2.054946 1_555
O13 Ti3 1.976402 1_555
O13 Ti3 2.054946 1_556
