# generated using pymatgen
data_Li2TiVO4
_symmetry_space_group_name_H-M   'P 1'
_cell_length_a   5.98521448
_cell_length_b   5.98823888
_cell_length_c   8.44399801
_cell_angle_alpha   90.00008714
_cell_angle_beta   89.99979751
_cell_angle_gamma   90.03992464
_symmetry_Int_Tables_number   1
_chemical_formula_structural   Li2TiVO4
_chemical_formula_sum   'Li8 Ti4 V4 O16'
_cell_volume   302.64036443
_cell_formula_units_Z   4
loop_
 _symmetry_equiv_pos_site_id
 _symmetry_equiv_pos_as_xyz
  1  'x, y, z'
loop_
 _atom_site_type_symbol
 _atom_site_label
 _atom_site_symmetry_multiplicity
 _atom_site_fract_x
 _atom_site_fract_y
 _atom_site_fract_z
 _atom_site_occupancy
  Li  Li0  1  0.25000000  0.24999500  0.24998700  1
  Li  Li1  1  0.75000000  0.75000600  0.75001300  1
  Li  Li2  1  0.75000000  0.24999500  0.75001300  1
  Li  Li3  1  0.25000000  0.75000500  0.24998600  1
  Li  Li4  1  0.00000100  0.49999400  0.99999900  1
  Li  Li5  1  0.49999900  0.00000600  0.50000100  1
  Li  Li6  1  0.49999900  0.49999400  0.99999800  1
  Li  Li7  1  0.00000100  0.00000600  0.50000100  1
  Ti  Ti0  1  0.49999300  0.99999000  0.99999200  1
  Ti  Ti1  1  0.00000100  0.50000900  0.50000600  1
  Ti  Ti2  1  0.00000700  0.99999000  0.99999400  1
  Ti  Ti3  1  0.49999900  0.50000900  0.50000700  1
  V  V0  1  0.25000100  0.74999500  0.74999200  1
  V  V1  1  0.74999900  0.74999300  0.25001000  1
  V  V2  1  0.75000100  0.25000700  0.25001000  1
  V  V3  1  0.25000000  0.25000500  0.74999300  1
  O  O0  1  0.50072200  0.49987100  0.26520900  1
  O  O1  1  0.00071600  0.99986700  0.76520500  1
  O  O2  1  0.99927900  0.50013100  0.26520900  1
  O  O3  1  0.49928600  0.00013000  0.76520500  1
  O  O4  1  0.00072300  0.49987000  0.73479500  1
  O  O5  1  0.50071200  0.99986700  0.23479200  1
  O  O6  1  0.49927600  0.50013200  0.73479500  1
  O  O7  1  0.99928600  0.00013000  0.23479100  1
  O  O8  1  0.25018500  0.23002500  0.99955600  1
  O  O9  1  0.75018500  0.73002900  0.49955300  1
  O  O10  1  0.24981600  0.76997200  0.99955500  1
  O  O11  1  0.74981500  0.26997400  0.49955400  1
  O  O12  1  0.75018400  0.23002500  0.00044100  1
  O  O13  1  0.25018400  0.73003100  0.50044800  1
  O  O14  1  0.74981500  0.76997300  0.00044200  1
  O  O15  1  0.24981500  0.26997400  0.50044900  1
loop_
_geom_bond_atom_site_label_1
_geom_bond_atom_site_label_2
_geom_bond_distance
_geom_bond_site_symmetry_2
Li0 O8 2.118018 1_554
Li0 O15 2.118282 1_555
Li0 O7 2.122224 1_455
Li0 O0 2.122318 1_555
Li0 O5 2.124799 1_545
Li0 O2 2.124885 1_455
Li1 O14 2.118000 1_556
Li1 O9 2.118265 1_555
Li1 O1 2.122214 1_655
Li1 O6 2.122316 1_555
Li1 O3 2.124789 1_565
Li1 O4 2.124891 1_655
Li2 O12 2.117993 1_556
Li2 O11 2.118257 1_555
Li2 O3 2.122222 1_555
Li2 O4 2.122315 1_655
Li2 O1 2.124816 1_645
Li2 O6 2.124901 1_555
Li3 O10 2.118017 1_554
Li3 O13 2.118281 1_555
Li3 O5 2.122202 1_555
Li3 O2 2.122305 1_455
Li3 O7 2.124796 1_465
Li3 O0 2.124882 1_555
Li4 O12 2.201321 1_456
Li4 O10 2.201353 1_555
Li4 O8 2.204343 1_555
Li4 O14 2.204396 1_456
Li4 O4 2.239386 1_555
Li4 O2 2.239437 1_456
Li5 O11 2.201313 1_555
Li5 O13 2.201339 1_545
Li5 O15 2.204339 1_555
Li5 O9 2.204387 1_545
Li5 O3 2.239386 1_555
Li5 O5 2.239428 1_545
Li6 O8 2.201309 1_555
Li6 O14 2.201361 1_556
Li6 O12 2.204348 1_556
Li6 O10 2.204379 1_555
Li6 O6 2.239378 1_555
Li6 O0 2.239445 1_556
Li7 O15 2.201305 1_555
Li7 O9 2.201352 1_445
Li7 O11 2.204347 1_455
Li7 O13 2.204366 1_545
Li7 O1 2.239386 1_545
Li7 O7 2.239437 1_455
O0 Ti3 1.982639 1_555
O0 V1 2.117245 1_555
O0 V2 2.117631 1_555
O1 Ti2 1.982563 1_555
O1 V3 2.117349 1_565
O1 V0 2.117697 1_555
O2 Ti1 1.982630 1_655
O2 V2 2.117258 1_555
O2 V1 2.117627 1_555
O3 Ti0 1.982546 1_545
O3 V0 2.117341 1_545
O3 V3 2.117714 1_555
O4 Ti1 1.982563 1_555
O4 V0 2.117261 1_555
O4 V3 2.117627 1_555
O5 Ti0 1.982656 1_554
O5 V2 2.117382 1_565
O5 V1 2.117717 1_555
O6 Ti3 1.982554 1_555
O6 V3 2.117261 1_555
O6 V0 2.117608 1_555
O7 Ti2 1.982630 1_644
O7 V1 2.117361 1_545
O7 V2 2.117721 1_555
O8 Ti0 2.033689 1_545
O8 Ti2 2.033906 1_545
O8 V3 2.110704 1_555
O9 Ti1 2.033663 1_655
O9 Ti3 2.033880 1_555
O9 V1 2.110530 1_555
O10 Ti2 2.033624 1_555
O10 Ti0 2.033832 1_555
O10 V0 2.110702 1_555
O11 Ti3 2.033724 1_555
O11 Ti1 2.033941 1_655
O11 V2 2.110539 1_555
O12 Ti2 2.033755 1_644
O12 Ti0 2.033963 1_544
O12 V2 2.110755 1_555
O13 Ti3 2.033667 1_555
O13 Ti1 2.033875 1_555
O13 V0 2.110538 1_555
O14 Ti0 2.033677 1_554
O14 Ti2 2.033894 1_654
O14 V1 2.110746 1_555
O15 Ti1 2.033715 1_555
O15 Ti3 2.033932 1_555
O15 V3 2.110540 1_555
