# generated using pymatgen
data_Li2Cu2Si5O13
_symmetry_space_group_name_H-M   'P 1'
_cell_length_a   7.61286700
_cell_length_b   7.85429747
_cell_length_c   9.66428097
_cell_angle_alpha   83.02759866
_cell_angle_beta   111.25298316
_cell_angle_gamma   112.16236022
_symmetry_Int_Tables_number   1
_chemical_formula_structural   Li2Cu2Si5O13
_chemical_formula_sum   'Li4 Cu4 Si10 O26'
_cell_volume   498.69364784
_cell_formula_units_Z   2
loop_
 _symmetry_equiv_pos_site_id
 _symmetry_equiv_pos_as_xyz
  1  'x, y, z'
loop_
 _atom_site_type_symbol
 _atom_site_label
 _atom_site_symmetry_multiplicity
 _atom_site_fract_x
 _atom_site_fract_y
 _atom_site_fract_z
 _atom_site_occupancy
  Li  Li0  1  0.21448800  0.93235000  0.13639100  1
  Li  Li1  1  0.15370700  0.59807800  0.26041100  1
  Li  Li2  1  0.84629300  0.40192200  0.73958900  1
  Li  Li3  1  0.78551200  0.06765000  0.86360900  1
  Cu  Cu0  1  0.04738100  0.85248600  0.40157800  1
  Cu  Cu1  1  0.44041700  0.15545300  0.59083300  1
  Cu  Cu2  1  0.55958300  0.84454700  0.40916700  1
  Cu  Cu3  1  0.95261900  0.14751400  0.59842200  1
  Si  Si0  1  0.17478600  0.78047600  0.73927200  1
  Si  Si1  1  0.20523200  0.30831200  0.94840000  1
  Si  Si2  1  0.31164300  0.53908100  0.59710300  1
  Si  Si3  1  0.24412600  0.24406800  0.26592300  1
  Si  Si4  1  0.61506200  0.29043700  0.94769400  1
  Si  Si5  1  0.38493800  0.70956300  0.05230600  1
  Si  Si6  1  0.75587400  0.75593200  0.73407700  1
  Si  Si7  1  0.68835700  0.46091900  0.40289700  1
  Si  Si8  1  0.79476800  0.69168800  0.05160000  1
  Si  Si9  1  0.82521400  0.21952400  0.26072800  1
  O  O0  1  0.00576700  0.22568200  0.80560300  1
  O  O1  1  0.19802900  0.94474300  0.62041800  1
  O  O2  1  0.32429000  0.84638000  0.91228100  1
  O  O3  1  0.21570700  0.60497300  0.70116500  1
  O  O4  1  0.05675300  0.30734700  0.25298500  1
  O  O5  1  0.40427000  0.31654700  0.92131700  1
  O  O6  1  0.19283700  0.32049400  0.56612200  1
  O  O7  1  0.31621400  0.67698200  0.45691600  1
  O  O8  1  0.55346500  0.57225700  0.69476400  1
  O  O9  1  0.38006600  0.78889100  0.19638600  1
  O  O10  1  0.21015200  0.50235900  0.00100100  1
  O  O11  1  0.27600700  0.07593200  0.37658700  1
  O  O12  1  0.19393200  0.17105200  0.09499700  1
  O  O13  1  0.80606800  0.82894800  0.90500300  1
  O  O14  1  0.72399300  0.92406800  0.62341300  1
  O  O15  1  0.78984800  0.49764100  0.99899900  1
  O  O16  1  0.61993400  0.21110900  0.80361400  1
  O  O17  1  0.44653500  0.42774300  0.30523600  1
  O  O18  1  0.68378600  0.32301800  0.54308400  1
  O  O19  1  0.80716300  0.67950600  0.43387800  1
  O  O20  1  0.59573000  0.68345300  0.07868300  1
  O  O21  1  0.94324700  0.69265300  0.74701500  1
  O  O22  1  0.78429300  0.39502700  0.29883500  1
  O  O23  1  0.67571000  0.15362000  0.08771900  1
  O  O24  1  0.80197100  0.05525700  0.37958200  1
  O  O25  1  0.99423300  0.77431800  0.19439700  1
loop_
_geom_bond_atom_site_label_1
_geom_bond_atom_site_label_2
_geom_bond_distance
_geom_bond_site_symmetry_2
Li0 O9 1.891513 1_555
Li0 O25 1.899674 1_455
Li0 O12 1.921826 1_565
Li0 O11 2.515668 1_565
Li1 O7 1.877528 1_555
Li1 O9 2.048878 1_555
Li1 O25 2.071003 1_455
Li1 O4 2.119914 1_555
Li2 O18 1.877528 1_555
Li2 O16 2.048878 1_555
Li2 O0 2.071003 1_655
Li2 O21 2.119914 1_555
Li3 O16 1.891513 1_555
Li3 O0 1.899674 1_655
Li3 O13 1.921826 1_545
Li3 O14 2.515668 1_545
Cu0 O19 1.929766 1_455
Cu0 O11 2.016183 1_565
Cu0 O25 2.018263 1_455
Cu0 O1 2.073626 1_555
Cu1 O18 2.002599 1_555
Cu1 O16 2.004390 1_555
Cu1 O11 2.022168 1_555
Cu1 O1 2.046774 1_545
Cu1 O6 2.594546 1_555
Cu2 O7 2.002599 1_555
Cu2 O9 2.004390 1_555
Cu2 O14 2.022168 1_555
Cu2 O24 2.046774 1_565
Cu2 O19 2.594546 1_555
Cu3 O6 1.929766 1_655
Cu3 O14 2.016183 1_545
Cu3 O0 2.018263 1_655
Cu3 O24 2.073626 1_555
O0 Si1 1.608169 1_555
O1 Si0 1.621916 1_555
O2 Si0 1.656791 1_555
O2 Si5 1.663584 1_556
O3 Si0 1.631937 1_555
O3 Si2 1.660326 1_555
O4 Si3 1.639481 1_555
O4 Si9 1.659576 1_455
O5 Si1 1.605660 1_555
O5 Si4 1.619022 1_555
O6 Si2 1.616225 1_555
O7 Si2 1.630746 1_555
O8 Si6 1.622173 1_555
O8 Si2 1.669116 1_555
O9 Si5 1.610576 1_555
O10 Si1 1.647405 1_554
O10 Si5 1.657940 1_555
O11 Si3 1.630156 1_555
O12 Si3 1.676499 1_555
O12 Si1 1.680601 1_554
O13 Si6 1.676499 1_555
O13 Si8 1.680601 1_556
O14 Si6 1.630156 1_555
O15 Si8 1.647405 1_556
O15 Si4 1.657940 1_555
O16 Si4 1.610576 1_555
O17 Si3 1.622173 1_555
O17 Si7 1.669116 1_555
O18 Si7 1.630746 1_555
O19 Si7 1.616225 1_555
O20 Si8 1.605660 1_555
O20 Si5 1.619022 1_555
O21 Si6 1.639481 1_555
O21 Si0 1.659576 1_655
O22 Si9 1.631937 1_555
O22 Si7 1.660326 1_555
O23 Si9 1.656791 1_555
O23 Si4 1.663584 1_554
O24 Si9 1.621916 1_555
O25 Si8 1.608169 1_555
