# generated using pymatgen
data_Ti5V(PO4)6
_symmetry_space_group_name_H-M   'P 1'
_cell_length_a   8.44972173
_cell_length_b   8.75578764
_cell_length_c   8.75578724
_cell_angle_alpha   60.00000286
_cell_angle_beta   58.79437106
_cell_angle_gamma   58.79437798
_symmetry_Int_Tables_number   1
_chemical_formula_structural   Ti5V(PO4)6
_chemical_formula_sum   'Ti5 V1 P6 O24'
_cell_volume   449.52980338
_cell_formula_units_Z   1
loop_
 _symmetry_equiv_pos_site_id
 _symmetry_equiv_pos_as_xyz
  1  'x, y, z'
loop_
 _atom_site_type_symbol
 _atom_site_label
 _atom_site_symmetry_multiplicity
 _atom_site_fract_x
 _atom_site_fract_y
 _atom_site_fract_z
 _atom_site_occupancy
  Ti  Ti0  1  0.00091300  0.99969600  0.99969600  1
  Ti  Ti1  1  0.08149900  0.63950100  0.63950100  1
  Ti  Ti2  1  0.49615100  0.50128300  0.50128300  1
  Ti  Ti3  1  0.42549300  0.85816900  0.85816900  1
  Ti  Ti4  1  0.91897700  0.36034100  0.36034100  1
  V  V0  1  0.58083000  0.13972300  0.13972300  1
  P  P0  1  0.24997400  0.24893200  0.54125500  1
  P  P1  1  0.24997400  0.95983900  0.24893200  1
  P  P2  1  0.24997400  0.54125500  0.95983900  1
  P  P3  1  0.75119000  0.45711400  0.04072600  1
  P  P4  1  0.75119000  0.04072600  0.75097000  1
  P  P5  1  0.75119000  0.75097000  0.45711400  1
  O  O0  1  0.06257500  0.11580600  0.32125300  1
  O  O1  1  0.06257500  0.50036700  0.11580600  1
  O  O2  1  0.06257500  0.32125300  0.50036700  1
  O  O3  1  0.21812800  0.09501200  0.74226000  1
  O  O4  1  0.43581500  0.17957600  0.39088700  1
  O  O5  1  0.27617000  0.40432200  0.56076000  1
  O  O6  1  0.21812800  0.94460100  0.09501200  1
  O  O7  1  0.27617000  0.75875000  0.40432200  1
  O  O8  1  0.56486500  0.61338100  0.99855300  1
  O  O9  1  0.27617000  0.56076000  0.75875000  1
  O  O10  1  0.78737800  0.25847200  0.05392500  1
  O  O11  1  0.56486500  0.99855300  0.82320100  1
  O  O12  1  0.43581500  0.99372300  0.17957600  1
  O  O13  1  0.21812800  0.74226000  0.94460100  1
  O  O14  1  0.71725700  0.44559700  0.24049400  1
  O  O15  1  0.43581500  0.39088700  0.99372300  1
  O  O16  1  0.71725700  0.24049400  0.59665200  1
  O  O17  1  0.78737800  0.05392500  0.90022500  1
  O  O18  1  0.71725700  0.59665200  0.44559700  1
  O  O19  1  0.56486500  0.82320100  0.61338100  1
  O  O20  1  0.78737800  0.90022500  0.25847200  1
  O  O21  1  0.93536100  0.67574200  0.50334800  1
  O  O22  1  0.93536100  0.50334800  0.88554900  1
  O  O23  1  0.93536100  0.88554900  0.67574200  1
loop_
_geom_bond_atom_site_label_1
_geom_bond_atom_site_label_2
_geom_bond_distance
_geom_bond_site_symmetry_2
O0 P1 1.535659 1_545
O0 Ti4 1.945281 1_455
O1 P2 1.535656 1_554
O1 Ti4 1.945285 1_455
O2 P0 1.535654 1_555
O2 Ti4 1.945289 1_455
O3 P0 1.580916 1_555
O3 Ti3 2.091266 1_545
O3 Ti0 2.136613 1_545
O4 P0 1.495691 1_555
O4 V0 1.997860 1_555
O5 P0 1.585209 1_555
O5 Ti1 2.038615 1_555
O5 Ti2 2.153379 1_555
O6 P1 1.580911 1_555
O6 Ti3 2.091269 1_554
O6 Ti0 2.136613 1_554
O7 P1 1.585199 1_555
O7 Ti1 2.038615 1_555
O7 Ti2 2.153386 1_555
O8 P3 1.533674 1_556
O8 Ti3 1.934292 1_555
O9 P2 1.585192 1_555
O9 Ti1 2.038615 1_555
O9 Ti2 2.153392 1_555
O10 P3 1.554486 1_555
O10 V0 2.105249 1_555
O10 Ti0 2.136961 1_644
O11 P4 1.533674 1_565
O11 Ti3 1.934292 1_555
O12 P1 1.495696 1_555
O12 V0 1.997845 1_565
O13 P2 1.580920 1_555
O13 Ti3 2.091263 1_555
O13 Ti0 2.136613 1_555
O14 P3 1.576616 1_555
O14 Ti4 2.077315 1_555
O14 Ti2 2.165874 1_555
O15 P2 1.495694 1_555
O15 V0 1.997853 1_556
O16 P4 1.576616 1_555
O16 Ti4 2.077315 1_555
O16 Ti2 2.165874 1_555
O17 P4 1.554486 1_555
O17 V0 2.105242 1_556
O17 Ti0 2.136967 1_645
O18 P5 1.576616 1_555
O18 Ti4 2.077315 1_555
O18 Ti2 2.165874 1_555
O19 P5 1.533674 1_555
O19 Ti3 1.934292 1_555
O20 P5 1.554486 1_555
O20 V0 2.105246 1_565
O20 Ti0 2.136963 1_654
O21 P5 1.530835 1_555
O21 Ti1 1.946209 1_655
O22 P3 1.530835 1_556
O22 Ti1 1.946201 1_655
O23 P4 1.530835 1_565
O23 Ti1 1.946194 1_655
