# generated using pymatgen
data_Li5Fe8(BO3)8
_symmetry_space_group_name_H-M   'P 1'
_cell_length_a   5.25743700
_cell_length_b   9.08977118
_cell_length_c   11.35071626
_cell_angle_alpha   113.16161300
_cell_angle_beta   103.34945012
_cell_angle_gamma   90.16822337
_symmetry_Int_Tables_number   1
_chemical_formula_structural   Li5Fe8(BO3)8
_chemical_formula_sum   'Li5 Fe8 B8 O24'
_cell_volume   482.56969964
_cell_formula_units_Z   1
loop_
 _symmetry_equiv_pos_site_id
 _symmetry_equiv_pos_as_xyz
  1  'x, y, z'
loop_
 _atom_site_type_symbol
 _atom_site_label
 _atom_site_symmetry_multiplicity
 _atom_site_fract_x
 _atom_site_fract_y
 _atom_site_fract_z
 _atom_site_occupancy
  Li  Li0  1  0.29515800  0.27923100  0.90186800  1
  Li  Li1  1  0.48777100  0.51055900  0.66533700  1
  Li  Li2  1  0.27201600  0.24719000  0.16531600  1
  Li  Li3  1  0.97868200  0.00443500  0.65906900  1
  Li  Li4  1  0.77599400  0.74949500  0.16736400  1
  Fe  Fe0  1  0.01608600  0.35263400  0.38240400  1
  Fe  Fe1  1  0.26920300  0.92545900  0.87985700  1
  Fe  Fe2  1  0.46688900  0.15847200  0.62737400  1
  Fe  Fe3  1  0.25288000  0.56332100  0.13207500  1
  Fe  Fe4  1  0.77235900  0.44910200  0.88304900  1
  Fe  Fe5  1  0.51503100  0.85423600  0.38265600  1
  Fe  Fe6  1  0.96051500  0.65099200  0.62917500  1
  Fe  Fe7  1  0.75139600  0.05777300  0.12621600  1
  B  B0  1  0.01919200  0.68328000  0.37642500  1
  B  B1  1  0.27066800  0.59938900  0.87527200  1
  B  B2  1  0.47397100  0.81664800  0.62972400  1
  B  B3  1  0.23762400  0.89563500  0.12906500  1
  B  B4  1  0.51875200  0.18291300  0.37415100  1
  B  B5  1  0.76286100  0.10389400  0.87617500  1
  B  B6  1  0.97443700  0.31556900  0.62854700  1
  B  B7  1  0.73728200  0.39713300  0.12750000  1
  O  O0  1  0.02257100  0.08558600  0.86572100  1
  O  O1  1  0.11989200  0.71296900  0.84275600  1
  O  O2  1  0.16779000  0.49753100  0.92144900  1
  O  O3  1  0.10186200  0.18993800  0.64251100  1
  O  O4  1  0.09111200  0.41807500  0.58343900  1
  O  O5  1  0.24229400  0.85210700  0.67473300  1
  O  O6  1  0.25674300  0.67968200  0.34150800  1
  O  O7  1  0.51582000  0.59143200  0.85603600  1
  O  O8  1  0.62659700  0.21699100  0.84197200  1
  O  O9  1  0.44890600  0.07301400  0.42049200  1
  O  O10  1  0.35178800  0.29268500  0.35700700  1
  O  O11  1  0.63718900  0.00865500  0.92025800  1
  O  O12  1  0.33759900  0.00169500  0.08251800  1
  O  O13  1  0.59164400  0.68410600  0.62873000  1
  O  O14  1  0.58278700  0.92281800  0.58626700  1
  O  O15  1  0.41017100  0.79910800  0.17297800  1
  O  O16  1  0.46809100  0.37609600  0.11061500  1
  O  O17  1  0.73610500  0.34783400  0.66021100  1
  O  O18  1  0.75493300  0.17815300  0.33828700  1
  O  O19  1  0.95102900  0.57319400  0.42306800  1
  O  O20  1  0.85474100  0.79607900  0.36388700  1
  O  O21  1  0.84569000  0.51479300  0.09873300  1
  O  O22  1  0.90218800  0.29748900  0.17180100  1
  O  O23  1  0.98232000  0.88998400  0.13275600  1
loop_
_geom_bond_atom_site_label_1
_geom_bond_atom_site_label_2
_geom_bond_distance
_geom_bond_site_symmetry_2
Li0 O8 2.017160 1_555
Li0 O2 2.040792 1_555
Li0 O0 2.113280 1_555
Li0 O16 2.139024 1_556
Li1 O13 1.890703 1_555
Li1 O7 1.961566 1_555
Li1 O17 1.968383 1_555
Li1 O4 2.097510 1_555
Li2 O16 1.918823 1_555
Li2 O10 1.987691 1_555
Li2 O22 2.009920 1_455
Li2 O12 2.118041 1_555
Li3 O3 1.896580 1_655
Li3 O5 1.990158 1_645
Li3 O14 2.068785 1_545
Li3 O0 2.118345 1_655
Li4 O23 1.882818 1_555
Li4 O15 1.986345 1_555
Li4 O21 2.030149 1_555
Li4 O20 2.038651 1_555
Fe0 O10 1.900539 1_555
Fe0 O18 1.922553 1_455
Fe0 O19 1.923123 1_455
Fe0 O4 2.057100 1_555
Fe0 O22 2.172306 1_455
Fe1 O1 1.929451 1_555
Fe1 O11 1.958065 1_565
Fe1 O0 1.980987 1_565
Fe1 O12 2.064872 1_566
Fe1 O5 2.124079 1_555
Fe2 O3 1.977657 1_555
Fe2 O17 2.083836 1_555
Fe2 O14 2.128391 1_545
Fe2 O9 2.142142 1_555
Fe2 O8 2.225972 1_555
Fe3 O16 2.012024 1_555
Fe3 O21 2.099936 1_455
Fe3 O15 2.126605 1_555
Fe3 O2 2.157157 1_554
Fe3 O6 2.184016 1_555
Fe4 O7 1.928269 1_555
Fe4 O2 2.032501 1_655
Fe4 O8 2.075508 1_555
Fe4 O21 2.216201 1_556
Fe4 O17 2.286079 1_555
Fe5 O20 1.899291 1_555
Fe5 O9 1.913415 1_565
Fe5 O6 1.921228 1_555
Fe5 O14 2.083746 1_555
Fe5 O15 2.161878 1_555
Fe6 O13 1.962568 1_555
Fe6 O4 2.128810 1_655
Fe6 O19 2.149451 1_555
Fe6 O5 2.165793 1_655
Fe6 O1 2.209415 1_655
Fe7 O23 1.965685 1_545
Fe7 O12 2.129557 1_555
Fe7 O11 2.134057 1_554
Fe7 O22 2.134862 1_555
Fe7 O18 2.213430 1_555
B0 O20 1.371940 1_455
B0 O19 1.382857 1_455
B0 O6 1.391596 1_555
B1 O7 1.353577 1_555
B1 O2 1.390762 1_555
B1 O1 1.414186 1_555
B2 O13 1.353240 1_555
B2 O14 1.415447 1_555
B2 O5 1.417252 1_555
B3 O23 1.353983 1_455
B3 O15 1.407526 1_555
B3 O12 1.418017 1_565
B4 O10 1.372232 1_555
B4 O9 1.381966 1_555
B4 O18 1.388993 1_555
B5 O8 1.382258 1_555
B5 O11 1.387954 1_555
B5 O0 1.402403 1_655
B6 O3 1.369612 1_655
B6 O17 1.382908 1_555
B6 O4 1.422518 1_655
B7 O16 1.385846 1_555
B7 O21 1.390097 1_555
B7 O22 1.409417 1_555
