# generated using pymatgen
data_Sb2(SeO4)3
_symmetry_space_group_name_H-M   'P 1'
_cell_length_a   9.75879100
_cell_length_b   9.27270100
_cell_length_c   15.76693310
_cell_angle_alpha   55.52351763
_cell_angle_beta   90.00000000
_cell_angle_gamma   90.00000000
_symmetry_Int_Tables_number   1
_chemical_formula_structural   Sb2(SeO4)3
_chemical_formula_sum   'Sb8 Se12 O48'
_cell_volume   1176.15802043
_cell_formula_units_Z   4
loop_
 _symmetry_equiv_pos_site_id
 _symmetry_equiv_pos_as_xyz
  1  'x, y, z'
loop_
 _atom_site_type_symbol
 _atom_site_label
 _atom_site_symmetry_multiplicity
 _atom_site_fract_x
 _atom_site_fract_y
 _atom_site_fract_z
 _atom_site_occupancy
  Sb  Sb0  1  0.46498600  0.63241000  0.11414100  1
  Sb  Sb1  1  0.96498600  0.36759000  0.38585900  1
  Sb  Sb2  1  0.53118400  0.12948100  0.61822500  1
  Sb  Sb3  1  0.03118400  0.87051900  0.88177500  1
  Sb  Sb4  1  0.96881600  0.12948100  0.11822500  1
  Sb  Sb5  1  0.46881600  0.87051900  0.38177500  1
  Sb  Sb6  1  0.03501400  0.63241000  0.61414100  1
  Sb  Sb7  1  0.53501400  0.36759000  0.88585900  1
  Se  Se0  1  0.25257100  0.45440800  0.50642400  1
  Se  Se1  1  0.12464000  0.74629900  0.15306200  1
  Se  Se2  1  0.38031600  0.03272700  0.85637300  1
  Se  Se3  1  0.62464000  0.25370100  0.34693800  1
  Se  Se4  1  0.88031600  0.96727300  0.64362700  1
  Se  Se5  1  0.75257100  0.54559200  0.99357600  1
  Se  Se6  1  0.24742900  0.45440800  0.00642400  1
  Se  Se7  1  0.11968400  0.03272700  0.35637300  1
  Se  Se8  1  0.37536000  0.74629900  0.65306200  1
  Se  Se9  1  0.61968400  0.96727300  0.14362700  1
  Se  Se10  1  0.87536000  0.25370100  0.84693800  1
  Se  Se11  1  0.74742900  0.54559200  0.49357600  1
  O  O0  1  0.61556500  0.84726900  0.09425400  1
  O  O1  1  0.62735400  0.39124300  0.55888300  1
  O  O2  1  0.80921200  0.54151600  0.39458700  1
  O  O3  1  0.92101400  0.12524700  0.80694900  1
  O  O4  1  0.12593300  0.49286300  0.42368800  1
  O  O5  1  0.29205600  0.69986200  0.18057000  1
  O  O6  1  0.10197600  0.85590300  0.02541100  1
  O  O7  1  0.49865800  0.11501100  0.76176000  1
  O  O8  1  0.22554700  0.04061800  0.80816000  1
  O  O9  1  0.32079900  0.25572400  0.55336400  1
  O  O10  1  0.02884300  0.56347900  0.21444800  1
  O  O11  1  0.42072500  0.82169200  0.94686900  1
  O  O12  1  0.52884300  0.43652100  0.28555200  1
  O  O13  1  0.92072500  0.17830800  0.55313100  1
  O  O14  1  0.82079900  0.74427600  0.94663600  1
  O  O15  1  0.72554700  0.95938200  0.69184000  1
  O  O16  1  0.60197600  0.14409700  0.47458900  1
  O  O17  1  0.79205600  0.30013800  0.31943000  1
  O  O18  1  0.99865800  0.88498900  0.73824000  1
  O  O19  1  0.62593300  0.50713700  0.07631200  1
  O  O20  1  0.30921200  0.45848400  0.10541300  1
  O  O21  1  0.11556500  0.15273100  0.40574600  1
  O  O22  1  0.42101400  0.87475300  0.69305100  1
  O  O23  1  0.12735400  0.60875700  0.94111700  1
  O  O24  1  0.87264600  0.39124300  0.05888300  1
  O  O25  1  0.57898600  0.12524700  0.30694900  1
  O  O26  1  0.88443500  0.84726900  0.59425400  1
  O  O27  1  0.69078800  0.54151600  0.89458700  1
  O  O28  1  0.37406700  0.49286300  0.92368800  1
  O  O29  1  0.00134200  0.11501100  0.26176000  1
  O  O30  1  0.20794400  0.69986200  0.68057000  1
  O  O31  1  0.39802400  0.85590300  0.52541100  1
  O  O32  1  0.27445300  0.04061800  0.30816000  1
  O  O33  1  0.17920100  0.25572400  0.05336400  1
  O  O34  1  0.07927500  0.82169200  0.44686900  1
  O  O35  1  0.47115700  0.56347900  0.71444800  1
  O  O36  1  0.57927500  0.17830800  0.05313100  1
  O  O37  1  0.97115700  0.43652100  0.78555200  1
  O  O38  1  0.67920100  0.74427600  0.44663600  1
  O  O39  1  0.77445300  0.95938200  0.19184000  1
  O  O40  1  0.50134200  0.88498900  0.23824000  1
  O  O41  1  0.89802400  0.14409700  0.97458900  1
  O  O42  1  0.70794400  0.30013800  0.81943000  1
  O  O43  1  0.87406700  0.50713700  0.57631200  1
  O  O44  1  0.07898600  0.87475300  0.19305100  1
  O  O45  1  0.19078800  0.45848400  0.60541300  1
  O  O46  1  0.37264600  0.60875700  0.44111700  1
  O  O47  1  0.38443500  0.15273100  0.90574600  1
loop_
_geom_bond_atom_site_label_1
_geom_bond_atom_site_label_2
_geom_bond_distance
_geom_bond_site_symmetry_2
O0 Se9 1.681237 1_555
O0 Sb0 2.349416 1_555
O1 Se11 1.677294 1_555
O1 Sb2 2.253131 1_555
O2 Se11 1.693424 1_555
O2 Sb1 2.276426 1_555
O3 Se10 1.692638 1_555
O3 Sb3 2.229803 1_645
O4 Se0 1.682116 1_555
O4 Sb1 2.226306 1_455
O5 Se1 1.682652 1_555
O5 Sb0 2.253403 1_555
O6 Se1 1.678346 1_555
O6 Sb3 2.297173 1_554
O7 Se2 1.688975 1_555
O7 Sb2 2.212833 1_555
O8 Se2 1.673746 1_555
O8 Sb3 2.315171 1_545
O9 Se0 1.685702 1_555
O9 Sb2 2.296971 1_555
O10 Se1 1.681366 1_555
O10 Sb1 2.331123 1_455
O11 Se2 1.691043 1_565
O11 Sb0 2.232083 1_556
O12 Se3 1.681366 1_555
O12 Sb0 2.331123 1_555
O13 Se4 1.691043 1_545
O13 Sb1 2.232083 1_555
O14 Se5 1.685702 1_555
O14 Sb3 2.296971 1_655
O15 Se4 1.673746 1_555
O15 Sb2 2.315171 1_565
O16 Se3 1.678346 1_555
O16 Sb2 2.297173 1_555
O17 Se3 1.682652 1_555
O17 Sb1 2.253403 1_555
O18 Se4 1.688975 1_555
O18 Sb3 2.212833 1_655
O19 Se5 1.682116 1_554
O19 Sb0 2.226306 1_555
O20 Se6 1.693424 1_555
O20 Sb0 2.276426 1_555
O21 Se7 1.681237 1_555
O21 Sb1 2.349416 1_455
O22 Se8 1.692638 1_555
O22 Sb2 2.229803 1_565
O23 Se6 1.677294 1_556
O23 Sb3 2.253131 1_555
O24 Se5 1.677294 1_554
O24 Sb4 2.253131 1_555
O25 Se3 1.692638 1_555
O25 Sb5 2.229803 1_545
O26 Se4 1.681237 1_555
O26 Sb6 2.349416 1_655
O27 Se5 1.693424 1_555
O27 Sb7 2.276426 1_555
O28 Se6 1.682116 1_556
O28 Sb7 2.226306 1_555
O29 Se7 1.688975 1_555
O29 Sb4 2.212833 1_455
O30 Se8 1.682652 1_555
O30 Sb6 2.253403 1_555
O31 Se8 1.678346 1_555
O31 Sb5 2.297173 1_555
O32 Se7 1.673746 1_555
O32 Sb5 2.315171 1_545
O33 Se6 1.685702 1_555
O33 Sb4 2.296971 1_455
O34 Se7 1.691043 1_565
O34 Sb6 2.232083 1_555
O35 Se8 1.681366 1_555
O35 Sb7 2.331123 1_555
O36 Se9 1.691043 1_545
O36 Sb7 2.232083 1_554
O37 Se10 1.681366 1_555
O37 Sb6 2.331123 1_655
O38 Se11 1.685702 1_555
O38 Sb5 2.296971 1_555
O39 Se9 1.673746 1_555
O39 Sb4 2.315171 1_565
O40 Se9 1.688975 1_555
O40 Sb5 2.212833 1_555
O41 Se10 1.678346 1_555
O41 Sb4 2.297173 1_556
O42 Se10 1.682652 1_555
O42 Sb7 2.253403 1_555
O43 Se11 1.682116 1_555
O43 Sb6 2.226306 1_655
O44 Se1 1.692638 1_555
O44 Sb4 2.229803 1_465
O45 Se0 1.693424 1_555
O45 Sb6 2.276426 1_555
O46 Se0 1.677294 1_555
O46 Sb5 2.253131 1_555
O47 Se2 1.681237 1_555
O47 Sb7 2.349416 1_555
