# generated using pymatgen
data_Cs2CuH12(SO7)2
_symmetry_space_group_name_H-M   'P 1'
_cell_length_a   12.36752000
_cell_length_b   6.82013900
_cell_length_c   10.44080119
_cell_angle_alpha   70.75027018
_cell_angle_beta   90.00000000
_cell_angle_gamma   90.00000000
_symmetry_Int_Tables_number   1
_chemical_formula_structural   Cs2CuH12(SO7)2
_chemical_formula_sum   'Cs4 Cu2 H24 S4 O28'
_cell_volume   831.42549106
_cell_formula_units_Z   2
loop_
 _symmetry_equiv_pos_site_id
 _symmetry_equiv_pos_as_xyz
  1  'x, y, z'
loop_
 _atom_site_type_symbol
 _atom_site_label
 _atom_site_symmetry_multiplicity
 _atom_site_fract_x
 _atom_site_fract_y
 _atom_site_fract_z
 _atom_site_occupancy
  Cs  Cs0  1  0.14482400  0.68147400  0.60876400  1
  Cs  Cs1  1  0.64482400  0.31852600  0.89123600  1
  Cs  Cs2  1  0.85517600  0.31852600  0.39123600  1
  Cs  Cs3  1  0.35517600  0.68147400  0.10876400  1
  Cu  Cu0  1  0.50000000  0.00000000  0.50000000  1
  Cu  Cu1  1  0.00000000  0.00000000  0.00000000  1
  H  H0  1  0.40690900  0.69456300  0.63715800  1
  H  H1  1  0.90690900  0.30543700  0.86284200  1
  H  H2  1  0.59309100  0.30543700  0.36284200  1
  H  H3  1  0.09309100  0.69456300  0.13715800  1
  H  H4  1  0.37516900  0.89138200  0.71756400  1
  H  H5  1  0.87516900  0.10861800  0.78243600  1
  H  H6  1  0.62483100  0.10861800  0.28243600  1
  H  H7  1  0.12483100  0.89138200  0.21756400  1
  H  H8  1  0.57179900  0.98013500  0.18655400  1
  H  H9  1  0.07179900  0.01986500  0.31344600  1
  H  H10  1  0.42820100  0.01986500  0.81344600  1
  H  H11  1  0.92820100  0.98013500  0.68655400  1
  H  H12  1  0.21551900  0.06773000  0.31615800  1
  H  H13  1  0.71551900  0.93227000  0.18384200  1
  H  H14  1  0.78448100  0.93227000  0.68384200  1
  H  H15  1  0.28448100  0.06773000  0.81615800  1
  H  H16  1  0.56370400  0.68983900  0.40071300  1
  H  H17  1  0.06370400  0.31016100  0.09928700  1
  H  H18  1  0.43629600  0.31016100  0.59928700  1
  H  H19  1  0.93629600  0.68983900  0.90071300  1
  H  H20  1  0.63142800  0.67737800  0.52917300  1
  H  H21  1  0.13142800  0.32262200  0.97082700  1
  H  H22  1  0.36857200  0.32262200  0.47082700  1
  H  H23  1  0.86857200  0.67737800  0.02917300  1
  S  S0  1  0.32688300  0.32545700  0.87773600  1
  S  S1  1  0.82688300  0.67454300  0.62226400  1
  S  S2  1  0.67311700  0.67454300  0.12226400  1
  S  S3  1  0.17311700  0.32545700  0.37773600  1
  O  O0  1  0.26191000  0.49059500  0.90205700  1
  O  O1  1  0.76191000  0.50940500  0.59794300  1
  O  O2  1  0.73809000  0.50940500  0.09794300  1
  O  O3  1  0.23809000  0.49059500  0.40205700  1
  O  O4  1  0.38342700  0.19196900  0.99890000  1
  O  O5  1  0.88342700  0.80803100  0.50110000  1
  O  O6  1  0.61657300  0.80803100  0.00110000  1
  O  O7  1  0.11657300  0.19196900  0.49890000  1
  O  O8  1  0.40398500  0.40252200  0.76165500  1
  O  O9  1  0.90398500  0.59747800  0.73834500  1
  O  O10  1  0.59601500  0.59747800  0.23834500  1
  O  O11  1  0.09601500  0.40252200  0.26165500  1
  O  O12  1  0.36665100  0.93234700  0.81079200  1
  O  O13  1  0.86665100  0.06765300  0.68920800  1
  O  O14  1  0.63334900  0.06765300  0.18920800  1
  O  O15  1  0.13334900  0.93234700  0.31079200  1
  O  O16  1  0.38730500  0.84234400  0.60390000  1
  O  O17  1  0.88730500  0.15765600  0.89610000  1
  O  O18  1  0.61269500  0.15765600  0.39610000  1
  O  O19  1  0.11269500  0.84234400  0.10390000  1
  O  O20  1  0.26144100  0.19365700  0.33323200  1
  O  O21  1  0.76144100  0.80634300  0.16676800  1
  O  O22  1  0.73855900  0.80634300  0.66676800  1
  O  O23  1  0.23855900  0.19365700  0.83323200  1
  O  O24  1  0.55954500  0.71825000  0.48710900  1
  O  O25  1  0.05954500  0.28175000  0.01289100  1
  O  O26  1  0.44045500  0.28175000  0.51289100  1
  O  O27  1  0.94045500  0.71825000  0.98710900  1
loop_
_geom_bond_atom_site_label_1
_geom_bond_atom_site_label_2
_geom_bond_distance
_geom_bond_site_symmetry_2
Cs0 O15 3.019357 1_555
Cs0 O3 3.087969 1_555
Cs0 O16 3.187934 1_555
Cs0 O9 3.243377 1_455
Cs0 O0 3.246571 1_555
Cs0 H0 3.258773 1_555
Cs0 O7 3.305508 1_565
Cs0 O5 3.438030 1_455
Cs0 O23 3.572678 1_555
Cs1 O14 3.019357 1_556
Cs1 O2 3.087969 1_556
Cs1 O17 3.187934 1_555
Cs1 O8 3.243377 1_555
Cs1 O1 3.246571 1_555
Cs1 H1 3.258773 1_555
Cs1 O6 3.305508 1_546
Cs1 O4 3.438030 1_555
Cs1 O22 3.572678 1_555
Cs2 O13 3.019357 1_555
Cs2 O1 3.087969 1_555
Cs2 O18 3.187934 1_555
Cs2 O11 3.243377 1_655
Cs2 O2 3.246571 1_555
Cs2 H2 3.258773 1_555
Cs2 O5 3.305508 1_545
Cs2 O7 3.438030 1_655
Cs2 O21 3.572678 1_555
Cs3 O12 3.019357 1_554
Cs3 O0 3.087969 1_554
Cs3 O19 3.187934 1_555
Cs3 O10 3.243377 1_555
Cs3 O3 3.246571 1_555
Cs3 H3 3.258773 1_555
Cs3 O4 3.305508 1_564
Cs3 O6 3.438030 1_555
Cs3 O20 3.572678 1_555
Cu0 O18 1.872533 1_555
Cu0 O16 1.872533 1_545
Cu0 O24 2.103192 1_545
Cu0 O26 2.103192 1_555
Cu1 O17 1.872533 1_454
Cu1 O19 1.872533 1_545
Cu1 O27 2.103192 1_444
Cu1 O25 2.103192 1_555
H0 O16 0.982053 1_555
H1 O17 0.982053 1_555
H2 O18 0.982053 1_555
H3 O19 0.982053 1_555
H4 O12 1.102692 1_555
H4 O16 1.343297 1_555
H5 O13 1.102692 1_555
H5 O17 1.343297 1_555
H6 O14 1.102692 1_555
H6 O18 1.343297 1_555
H7 O15 1.102692 1_555
H7 O19 1.343297 1_555
H8 O14 0.973346 1_565
H9 O15 0.973346 1_545
H10 O12 0.973346 1_545
H11 O13 0.973346 1_565
H12 O20 1.092196 1_555
H12 O15 1.386553 1_545
H13 O21 1.092196 1_555
H13 O14 1.386553 1_565
H14 O22 1.092196 1_555
H14 O13 1.386553 1_565
H15 O23 1.092196 1_555
H15 O12 1.386553 1_545
H16 O24 0.984440 1_555
H17 O25 0.984440 1_555
H18 O26 0.984440 1_555
H19 O27 0.984440 1_555
H20 O24 0.990055 1_555
H21 O25 0.990055 1_556
H22 O26 0.990055 1_555
H23 O27 0.990055 1_554
O0 S0 1.472151 1_555
O1 S1 1.472151 1_555
O2 S2 1.472151 1_555
O3 S3 1.472151 1_555
O4 S0 1.469292 1_555
O5 S1 1.469292 1_555
O6 S2 1.469292 1_555
O7 S3 1.469292 1_555
O8 S0 1.494789 1_555
O9 S1 1.494789 1_555
O10 S2 1.494789 1_555
O11 S3 1.494789 1_555
O20 S3 1.578781 1_555
O21 S2 1.578781 1_555
O22 S1 1.578781 1_555
O23 S0 1.578781 1_555
