# generated using pymatgen
data_Ti2Mn3Fe3O16
_symmetry_space_group_name_H-M   'P 1'
_cell_length_a   5.89936237
_cell_length_b   5.86343604
_cell_length_c   9.03491664
_cell_angle_alpha   90.06492193
_cell_angle_beta   88.48127357
_cell_angle_gamma   119.69753786
_symmetry_Int_Tables_number   1
_chemical_formula_structural   Ti2Mn3Fe3O16
_chemical_formula_sum   'Ti2 Mn3 Fe3 O16'
_cell_volume   271.35235704
_cell_formula_units_Z   1
loop_
 _symmetry_equiv_pos_site_id
 _symmetry_equiv_pos_as_xyz
  1  'x, y, z'
loop_
 _atom_site_type_symbol
 _atom_site_label
 _atom_site_symmetry_multiplicity
 _atom_site_fract_x
 _atom_site_fract_y
 _atom_site_fract_z
 _atom_site_occupancy
  Ti  Ti0  1  0.34824900  0.67395200  0.49980800  1
  Ti  Ti1  1  0.67541900  0.33746600  0.00085700  1
  Mn  Mn0  1  0.65734300  0.82888100  0.21303900  1
  Mn  Mn1  1  0.83228900  0.66294900  0.71182300  1
  Mn  Mn2  1  0.83242400  0.16954900  0.71160800  1
  Fe  Fe0  1  0.16495900  0.83365400  0.20988300  1
  Fe  Fe1  1  0.16545100  0.33167000  0.21023900  1
  Fe  Fe2  1  0.33060100  0.16539000  0.70925900  1
  O  O0  1  0.16582100  0.82957200  0.59931900  1
  O  O1  1  0.04794000  0.52208500  0.33936300  1
  O  O2  1  0.34394500  0.67386300  0.10043300  1
  O  O3  1  0.98333600  0.99033000  0.31379000  1
  O  O4  1  0.98595700  0.99310600  0.81457400  1
  O  O5  1  0.16624600  0.33597200  0.59938000  1
  O  O6  1  0.48145300  0.95447500  0.33975400  1
  O  O7  1  0.48252600  0.52792300  0.33926200  1
  O  O8  1  0.33467600  0.16840700  0.09831600  1
  O  O9  1  0.66656400  0.83330400  0.60389300  1
  O  O10  1  0.52534500  0.47745400  0.83608200  1
  O  O11  1  0.52529700  0.04846400  0.83589800  1
  O  O12  1  0.68053000  0.34023800  0.60046900  1
  O  O13  1  0.82385100  0.66017000  0.09791400  1
  O  O14  1  0.95641700  0.47812000  0.83262200  1
  O  O15  1  0.82336100  0.16320700  0.09813300  1
loop_
_geom_bond_atom_site_label_1
_geom_bond_atom_site_label_2
_geom_bond_distance
_geom_bond_site_symmetry_2
Mn0 O7 1.901870 1_555
Mn0 O6 1.903143 1_555
Mn0 O3 1.926194 1_555
Mn0 O2 1.926653 1_555
Mn0 O15 1.981960 1_565
Mn0 O13 1.982848 1_555
Mn1 O10 1.914634 1_555
Mn1 O4 1.932059 1_555
Mn1 O14 1.932161 1_555
Mn1 O12 1.938817 1_555
Mn1 O0 1.962332 1_655
Mn1 O9 1.981119 1_555
Mn2 O11 1.915009 1_555
Mn2 O14 1.931468 1_555
Mn2 O4 1.931696 1_545
Mn2 O12 1.936869 1_555
Mn2 O5 1.962377 1_655
Mn2 O9 1.981468 1_545
Fe0 O3 1.947642 1_455
Fe0 O8 1.968472 1_565
Fe0 O2 1.973175 1_555
Fe0 O1 1.973565 1_555
Fe0 O6 2.041673 1_555
Fe0 O13 2.045706 1_455
Fe1 O1 1.951722 1_555
Fe1 O8 1.956222 1_555
Fe1 O3 1.963582 1_445
Fe1 O2 1.993618 1_555
Fe1 O7 2.040036 1_555
Fe1 O15 2.050678 1_455
Fe2 O4 1.980964 1_445
Fe2 O5 1.984998 1_555
Fe2 O11 1.987482 1_555
Fe2 O0 1.989708 1_545
Fe2 O10 1.990729 1_555
Fe2 O12 2.019021 1_555
O0 Ti0 1.928476 1_555
O1 Ti0 2.145471 1_555
O5 Ti0 1.932339 1_555
O6 Ti0 2.019544 1_555
O7 Ti0 2.018160 1_555
O8 Ti1 1.931970 1_555
O9 Ti0 1.907043 1_555
O10 Ti1 2.113421 1_556
O11 Ti1 2.110529 1_556
O13 Ti1 1.873824 1_555
O14 Ti1 2.062324 1_556
O15 Ti1 1.872008 1_555
