# generated using pymatgen
data_KMn2Zn3(Si2O5)6
_symmetry_space_group_name_H-M   'P 1'
_cell_length_a   10.32653060
_cell_length_b   10.32653060
_cell_length_c   14.37569400
_cell_angle_alpha   90.00000000
_cell_angle_beta   90.00000000
_cell_angle_gamma   120.00000381
_symmetry_Int_Tables_number   1
_chemical_formula_structural   KMn2Zn3(Si2O5)6
_chemical_formula_sum   'K2 Mn4 Zn6 Si24 O60'
_cell_volume   1327.60325038
_cell_formula_units_Z   2
loop_
 _symmetry_equiv_pos_site_id
 _symmetry_equiv_pos_as_xyz
  1  'x, y, z'
loop_
 _atom_site_type_symbol
 _atom_site_label
 _atom_site_symmetry_multiplicity
 _atom_site_fract_x
 _atom_site_fract_y
 _atom_site_fract_z
 _atom_site_occupancy
  K  K0  1  0.00000000  0.00000000  0.24717200  1
  K  K1  1  0.00000000  0.00000000  0.74717200  1
  Mn  Mn0  1  0.33333300  0.66666700  0.25037100  1
  Mn  Mn1  1  0.33333300  0.66666700  0.75037100  1
  Mn  Mn2  1  0.66666700  0.33333300  0.25037100  1
  Mn  Mn3  1  0.66666700  0.33333300  0.75037100  1
  Zn  Zn0  1  0.00000000  0.50000000  0.75063400  1
  Zn  Zn1  1  0.50000000  0.00000000  0.25063400  1
  Zn  Zn2  1  0.50000000  0.00000000  0.75063400  1
  Zn  Zn3  1  0.50000000  0.50000000  0.75063400  1
  Zn  Zn4  1  0.00000000  0.50000000  0.25063400  1
  Zn  Zn5  1  0.50000000  0.50000000  0.25063400  1
  Si  Si0  1  0.23526300  0.88713300  0.38925600  1
  Si  Si1  1  0.23529000  0.34809300  0.11192600  1
  Si  Si2  1  0.88713300  0.23526300  0.88925600  1
  Si  Si3  1  0.65187000  0.88713300  0.88925600  1
  Si  Si4  1  0.34813000  0.23526300  0.38925600  1
  Si  Si5  1  0.76471000  0.65190700  0.11192600  1
  Si  Si6  1  0.76473700  0.11286700  0.38925600  1
  Si  Si7  1  0.65190700  0.76471000  0.61192600  1
  Si  Si8  1  0.65190700  0.88719700  0.11192600  1
  Si  Si9  1  0.88719700  0.23529000  0.11192600  1
  Si  Si10  1  0.23529000  0.88719700  0.61192600  1
  Si  Si11  1  0.11286700  0.76473700  0.88925600  1
  Si  Si12  1  0.11286700  0.34813000  0.38925600  1
  Si  Si13  1  0.34813000  0.11286700  0.88925600  1
  Si  Si14  1  0.34809300  0.11280300  0.11192600  1
  Si  Si15  1  0.23526300  0.34813000  0.88925600  1
  Si  Si16  1  0.65187000  0.76473700  0.38925600  1
  Si  Si17  1  0.34809300  0.23529000  0.61192600  1
  Si  Si18  1  0.11280300  0.34809300  0.61192600  1
  Si  Si19  1  0.88719700  0.65190700  0.61192600  1
  Si  Si20  1  0.76473700  0.65187000  0.88925600  1
  Si  Si21  1  0.11280300  0.76471000  0.11192600  1
  Si  Si22  1  0.88713300  0.65187000  0.38925600  1
  Si  Si23  1  0.76471000  0.11280300  0.61192600  1
  O  O0  1  0.87742600  0.62158600  0.50059600  1
  O  O1  1  0.27640600  0.05834100  0.36096100  1
  O  O2  1  0.74416000  0.62158600  0.00059600  1
  O  O3  1  0.50244800  0.65774800  0.67123800  1
  O  O4  1  0.65796400  0.15558800  0.32981400  1
  O  O5  1  0.34203600  0.84441200  0.32981400  1
  O  O6  1  0.21781400  0.94168700  0.14040600  1
  O  O7  1  0.49755200  0.15530000  0.17123800  1
  O  O8  1  0.78218600  0.72387300  0.64040600  1
  O  O9  1  0.37841400  0.12257400  0.00059600  1
  O  O10  1  0.27640600  0.21806400  0.86096100  1
  O  O11  1  0.74416000  0.12257400  0.50059600  1
  O  O12  1  0.25584000  0.87742600  0.50059600  1
  O  O13  1  0.21781400  0.27612700  0.64040600  1
  O  O14  1  0.62158600  0.74416000  0.50059600  1
  O  O15  1  0.21806400  0.94165900  0.86096100  1
  O  O16  1  0.65774800  0.15530000  0.67123800  1
  O  O17  1  0.84470000  0.50244800  0.67123800  1
  O  O18  1  0.15558800  0.49762400  0.32981400  1
  O  O19  1  0.05831300  0.27612700  0.14040600  1
  O  O20  1  0.15530000  0.49755200  0.67123800  1
  O  O21  1  0.62158600  0.87742600  0.00059600  1
  O  O22  1  0.27612700  0.05831300  0.64040600  1
  O  O23  1  0.27612700  0.21781400  0.14040600  1
  O  O24  1  0.72387300  0.78218600  0.14040600  1
  O  O25  1  0.15530000  0.65774800  0.17123800  1
  O  O26  1  0.34225200  0.49755200  0.17123800  1
  O  O27  1  0.84470000  0.34225200  0.17123800  1
  O  O28  1  0.37841400  0.25584000  0.50059600  1
  O  O29  1  0.94165900  0.21806400  0.36096100  1
  O  O30  1  0.21806400  0.27640600  0.36096100  1
  O  O31  1  0.72359400  0.78193600  0.86096100  1
  O  O32  1  0.94168700  0.21781400  0.64040600  1
  O  O33  1  0.94165900  0.72359400  0.86096100  1
  O  O34  1  0.34203600  0.49762400  0.82981400  1
  O  O35  1  0.15558800  0.65796400  0.82981400  1
  O  O36  1  0.72359400  0.94165900  0.36096100  1
  O  O37  1  0.78218600  0.05831300  0.14040600  1
  O  O38  1  0.49762400  0.15558800  0.82981400  1
  O  O39  1  0.25584000  0.37841400  0.00059600  1
  O  O40  1  0.78193600  0.72359400  0.36096100  1
  O  O41  1  0.34225200  0.84470000  0.67123800  1
  O  O42  1  0.05834100  0.78193600  0.36096100  1
  O  O43  1  0.94168700  0.72387300  0.14040600  1
  O  O44  1  0.84441200  0.34203600  0.82981400  1
  O  O45  1  0.50244800  0.84470000  0.17123800  1
  O  O46  1  0.65774800  0.50244800  0.17123800  1
  O  O47  1  0.50237600  0.65796400  0.32981400  1
  O  O48  1  0.78193600  0.05834100  0.86096100  1
  O  O49  1  0.72387300  0.94168700  0.64040600  1
  O  O50  1  0.49755200  0.34225200  0.67123800  1
  O  O51  1  0.05831300  0.78218600  0.64040600  1
  O  O52  1  0.65796400  0.50237600  0.82981400  1
  O  O53  1  0.87742600  0.25584000  0.00059600  1
  O  O54  1  0.50237600  0.84441200  0.82981400  1
  O  O55  1  0.12257400  0.37841400  0.50059600  1
  O  O56  1  0.84441200  0.50237600  0.32981400  1
  O  O57  1  0.05834100  0.27640600  0.86096100  1
  O  O58  1  0.49762400  0.34203600  0.32981400  1
  O  O59  1  0.12257400  0.74416000  0.00059600  1
loop_
_geom_bond_atom_site_label_1
_geom_bond_atom_site_label_2
_geom_bond_distance
_geom_bond_site_symmetry_2
K0 O23 3.021912 1_555
K0 O24 3.021912 1_445
K0 O19 3.021912 1_555
K0 O43 3.021912 1_445
K0 O37 3.021912 1_455
K0 O6 3.021912 1_545
K0 O29 3.076725 1_455
K0 O42 3.076725 1_545
K0 O40 3.076731 1_445
K0 O30 3.076731 1_555
K0 O1 3.076734 1_555
K0 O36 3.076734 1_445
K1 O8 3.021912 1_445
K1 O13 3.021912 1_555
K1 O22 3.021912 1_555
K1 O49 3.021912 1_445
K1 O51 3.021912 1_545
K1 O32 3.021912 1_455
K1 O15 3.076725 1_545
K1 O48 3.076725 1_455
K1 O10 3.076731 1_555
K1 O31 3.076731 1_445
K1 O57 3.076734 1_555
K1 O33 3.076734 1_445
Mn0 O25 2.124434 1_555
Mn0 O45 2.124438 1_555
Mn0 O26 2.124442 1_555
Mn0 O5 2.125185 1_555
Mn0 O18 2.125189 1_555
Mn0 O47 2.125194 1_555
Mn1 O41 2.124434 1_555
Mn1 O20 2.124438 1_555
Mn1 O3 2.124442 1_555
Mn1 O35 2.125185 1_555
Mn1 O54 2.125189 1_555
Mn1 O34 2.125194 1_555
Mn2 O27 2.124434 1_555
Mn2 O7 2.124438 1_555
Mn2 O46 2.124442 1_555
Mn2 O4 2.125185 1_555
Mn2 O56 2.125189 1_555
Mn2 O58 2.125194 1_555
Mn3 O16 2.124434 1_555
Mn3 O17 2.124438 1_555
Mn3 O50 2.124442 1_555
Mn3 O44 2.125185 1_555
Mn3 O38 2.125189 1_555
Mn3 O52 2.125194 1_555
O0 Si19 1.624209 1_555
O0 Si22 1.624311 1_555
O1 Si4 1.642786 1_555
O1 Si0 1.649418 1_545
O2 Si5 1.624209 1_555
O2 Si20 1.624311 1_554
O3 Si7 1.619984 1_555
O3 Zn3 1.978837 1_555
O4 Si6 1.620790 1_555
O4 Zn1 1.979169 1_555
O5 Si0 1.620790 1_555
O5 Zn1 1.979169 1_565
O6 Si21 1.643689 1_555
O6 Si14 1.650062 1_565
O7 Si14 1.619984 1_555
O7 Zn1 1.978837 1_555
O8 Si19 1.643689 1_555
O8 Si7 1.650062 1_555
O9 Si14 1.624209 1_555
O9 Si13 1.624311 1_554
O10 Si13 1.642777 1_555
O10 Si15 1.649428 1_555
O11 Si23 1.624209 1_555
O11 Si6 1.624311 1_555
O12 Si10 1.624209 1_555
O12 Si0 1.624311 1_555
O13 Si18 1.643689 1_555
O13 Si17 1.650062 1_555
O14 Si7 1.624209 1_555
O14 Si16 1.624311 1_555
O15 Si11 1.642785 1_555
O15 Si13 1.649421 1_565
O16 Si23 1.619984 1_555
O16 Zn2 1.978837 1_555
O17 Si19 1.619984 1_555
O17 Zn0 1.978837 1_655
O18 Si12 1.620790 1_555
O18 Zn4 1.979169 1_555
O19 Si1 1.643689 1_555
O19 Si9 1.650062 1_455
O20 Si18 1.619984 1_555
O20 Zn0 1.978837 1_555
O21 Si8 1.624209 1_555
O21 Si3 1.624311 1_554
O22 Si17 1.643689 1_555
O22 Si10 1.650062 1_545
O23 Si14 1.643689 1_555
O23 Si1 1.650062 1_555
O24 Si8 1.643689 1_555
O24 Si5 1.650062 1_555
O25 Si21 1.619984 1_555
O25 Zn4 1.978837 1_555
O26 Si1 1.619984 1_555
O26 Zn5 1.978837 1_555
O27 Si9 1.619984 1_555
O27 Zn4 1.978837 1_655
O28 Si17 1.624209 1_555
O28 Si4 1.624311 1_555
O29 Si6 1.642785 1_555
O29 Si12 1.649421 1_655
O30 Si12 1.642777 1_555
O30 Si4 1.649428 1_555
O31 Si3 1.642777 1_555
O31 Si20 1.649428 1_555
O32 Si23 1.643689 1_555
O32 Si18 1.650062 1_655
O33 Si20 1.642786 1_555
O33 Si11 1.649418 1_655
O34 Si15 1.620790 1_555
O34 Zn3 1.979169 1_555
O35 Si11 1.620790 1_555
O35 Zn0 1.979169 1_555
O36 Si16 1.642786 1_555
O36 Si6 1.649418 1_565
O37 Si9 1.643689 1_555
O37 Si8 1.650062 1_545
O38 Si13 1.620790 1_555
O38 Zn2 1.979169 1_555
O39 Si1 1.624209 1_555
O39 Si15 1.624311 1_554
O40 Si22 1.642777 1_555
O40 Si16 1.649428 1_555
O41 Si10 1.619984 1_555
O41 Zn2 1.978837 1_565
O42 Si0 1.642785 1_555
O42 Si22 1.649421 1_455
O43 Si5 1.643689 1_555
O43 Si21 1.650062 1_655
O44 Si2 1.620790 1_555
O44 Zn0 1.979169 1_655
O45 Si8 1.619984 1_555
O45 Zn1 1.978837 1_565
O46 Si5 1.619984 1_555
O46 Zn5 1.978837 1_555
O47 Si16 1.620790 1_555
O47 Zn5 1.979169 1_555
O48 Si2 1.642785 1_555
O48 Si3 1.649421 1_545
O49 Si7 1.643689 1_555
O49 Si23 1.650062 1_565
O50 Si17 1.619984 1_555
O50 Zn3 1.978837 1_555
O51 Si10 1.643689 1_555
O51 Si19 1.650062 1_455
O52 Si20 1.620790 1_555
O52 Zn3 1.979169 1_555
O53 Si9 1.624209 1_555
O53 Si2 1.624311 1_554
O54 Si3 1.620790 1_555
O54 Zn2 1.979169 1_565
O55 Si18 1.624209 1_555
O55 Si12 1.624311 1_555
O56 Si22 1.620790 1_555
O56 Zn4 1.979169 1_655
O57 Si15 1.642786 1_555
O57 Si2 1.649418 1_455
O58 Si4 1.620790 1_555
O58 Zn5 1.979169 1_555
O59 Si21 1.624209 1_555
O59 Si11 1.624311 1_554
