# generated using pymatgen
data_FeOF
_symmetry_space_group_name_H-M   'P 1'
_cell_length_a   3.09667000
_cell_length_b   14.21629700
_cell_length_c   14.24045099
_cell_angle_alpha   89.64980455
_cell_angle_beta   90.00000000
_cell_angle_gamma   90.00000000
_symmetry_Int_Tables_number   1
_chemical_formula_structural   FeOF
_chemical_formula_sum   'Fe18 O18 F18'
_cell_volume   626.89823363
_cell_formula_units_Z   18
loop_
 _symmetry_equiv_pos_site_id
 _symmetry_equiv_pos_as_xyz
  1  'x, y, z'
loop_
 _atom_site_type_symbol
 _atom_site_label
 _atom_site_symmetry_multiplicity
 _atom_site_fract_x
 _atom_site_fract_y
 _atom_site_fract_z
 _atom_site_occupancy
  Fe  Fe0  1  0.00000000  0.99617700  0.98856500  1
  Fe  Fe1  1  0.00000000  0.99693100  0.34076300  1
  Fe  Fe2  1  0.00000000  0.98925000  0.66347400  1
  Fe  Fe3  1  0.50000000  0.84042400  0.18868700  1
  Fe  Fe4  1  0.50000000  0.84600100  0.49878100  1
  Fe  Fe5  1  0.50000000  0.84706700  0.83061700  1
  Fe  Fe6  1  0.00000000  0.66243900  0.00589700  1
  Fe  Fe7  1  0.00000000  0.66459900  0.32087300  1
  Fe  Fe8  1  0.00000000  0.65383600  0.66374400  1
  Fe  Fe9  1  0.50000000  0.49736600  0.51128600  1
  Fe  Fe10  1  0.50000000  0.51115900  0.16663200  1
  Fe  Fe11  1  0.50000000  0.49815100  0.81648200  1
  Fe  Fe12  1  0.00000000  0.32089500  0.99602000  1
  Fe  Fe13  1  0.00000000  0.31893200  0.33399100  1
  Fe  Fe14  1  0.00000000  0.34191500  0.66634200  1
  Fe  Fe15  1  0.50000000  0.18045200  0.16461200  1
  Fe  Fe16  1  0.50000000  0.16558200  0.48497600  1
  Fe  Fe17  1  0.50000000  0.16482500  0.84560900  1
  O  O0  1  0.50000000  0.94259900  0.26819900  1
  O  O1  1  0.50000000  0.93585800  0.60298900  1
  O  O2  1  0.50000000  0.92885700  0.93951800  1
  O  O3  1  0.00000000  0.89079800  0.43423800  1
  O  O4  1  0.00000000  0.89907800  0.77023200  1
  O  O5  1  0.00000000  0.76666500  0.23051900  1
  O  O6  1  0.50000000  0.59672600  0.27036600  1
  O  O7  1  0.50000000  0.60229800  0.60034800  1
  O  O8  1  0.00000000  0.56805600  0.09861200  1
  O  O9  1  0.00000000  0.56722400  0.77222200  1
  O  O10  1  0.00000000  0.43174700  0.56212200  1
  O  O11  1  0.50000000  0.39345700  0.73280400  1
  O  O12  1  0.50000000  0.27025000  0.26845600  1
  O  O13  1  0.50000000  0.27451200  0.92858200  1
  O  O14  1  0.00000000  0.23258200  0.09876300  1
  O  O15  1  0.00000000  0.23689800  0.44101000  1
  O  O16  1  0.00000000  0.10148700  0.89901800  1
  O  O17  1  0.50000000  0.06521200  0.39964500  1
  F  F0  1  0.00000000  0.89803100  0.10194700  1
  F  F1  1  0.00000000  0.76683000  0.56984000  1
  F  F2  1  0.00000000  0.76016600  0.90034900  1
  F  F3  1  0.50000000  0.73445300  0.05925400  1
  F  F4  1  0.50000000  0.73198800  0.73390600  1
  F  F5  1  0.50000000  0.72453900  0.40260200  1
  F  F6  1  0.50000000  0.60356400  0.93654900  1
  F  F7  1  0.00000000  0.56570600  0.43482500  1
  F  F8  1  0.00000000  0.43553200  0.22801100  1
  F  F9  1  0.00000000  0.44185400  0.90384800  1
  F  F10  1  0.50000000  0.40157300  0.06601300  1
  F  F11  1  0.50000000  0.40497900  0.39378900  1
  F  F12  1  0.50000000  0.26430500  0.60548000  1
  F  F13  1  0.00000000  0.22754400  0.76401800  1
  F  F14  1  0.00000000  0.10498700  0.22669400  1
  F  F15  1  0.00000000  0.10354800  0.57020900  1
  F  F16  1  0.50000000  0.06162400  0.06703600  1
  F  F17  1  0.50000000  0.06847100  0.73063500  1
loop_
_geom_bond_atom_site_label_1
_geom_bond_atom_site_label_2
_geom_bond_distance
_geom_bond_site_symmetry_2
Fe0 O2 1.951736 1_455
Fe0 O2 1.951736 1_555
Fe0 O16 1.960646 1_565
Fe1 O3 2.005961 1_555
Fe1 O17 2.013119 1_465
Fe1 O17 2.013119 1_565
Fe1 O0 2.017796 1_555
Fe1 O0 2.017796 1_455
Fe2 O1 1.929602 1_455
Fe2 O1 1.929602 1_555
Fe2 O4 1.982608 1_555
Fe3 O0 1.847182 1_555
Fe3 O5 1.960635 1_655
Fe3 O5 1.960635 1_555
Fe4 O3 1.908021 1_555
Fe4 O3 1.908021 1_655
Fe4 O1 1.963969 1_555
Fe5 O4 1.917220 1_655
Fe5 O4 1.917220 1_555
Fe5 O2 1.943968 1_555
Fe6 O8 1.876675 1_555
Fe7 O5 1.933425 1_555
Fe7 O6 1.963204 1_555
Fe7 O6 1.963204 1_455
Fe8 O7 1.938368 1_455
Fe8 O7 1.938368 1_555
Fe8 O9 1.969565 1_555
Fe9 O10 1.945092 1_655
Fe9 O10 1.945092 1_555
Fe9 O7 1.963917 1_555
Fe10 O6 1.919344 1_555
Fe10 O8 1.995064 1_555
Fe10 O8 1.995064 1_655
Fe11 O11 1.912286 1_555
Fe11 O9 1.936823 1_655
Fe11 O9 1.936823 1_555
Fe12 O14 1.922099 1_556
Fe12 O13 1.939626 1_455
Fe12 O13 1.939626 1_555
Fe13 O15 1.913352 1_555
Fe13 O12 1.937824 1_455
Fe13 O12 1.937824 1_555
Fe14 O10 1.952033 1_555
Fe14 O11 1.959206 1_455
Fe14 O11 1.959206 1_555
Fe15 O14 1.953813 1_655
Fe15 O14 1.953813 1_555
Fe15 O12 1.959484 1_555
Fe16 O17 1.879841 1_555
Fe16 O15 1.951786 1_655
Fe16 O15 1.951786 1_555
Fe17 O16 1.943762 1_655
Fe17 O16 1.943762 1_555
Fe17 O13 1.962190 1_555
F0 Fe0 2.127490 1_554
F0 Fe3 2.140427 1_555
F0 Fe3 2.140427 1_455
F1 Fe8 2.083824 1_555
F1 Fe4 2.161985 1_555
F1 Fe4 2.161985 1_455
F2 Fe6 2.040548 1_556
F2 Fe5 2.212389 1_455
F2 Fe5 2.212389 1_555
F3 Fe6 2.008058 1_655
F3 Fe6 2.008058 1_555
F3 Fe3 2.387647 1_555
F4 Fe5 2.144932 1_555
F4 Fe8 2.154897 1_655
F4 Fe8 2.154897 1_555
F5 Fe7 2.118997 1_655
F5 Fe7 2.118997 1_555
F5 Fe4 2.210528 1_555
F6 Fe6 2.020702 1_656
F6 Fe6 2.020702 1_556
F6 Fe11 2.280464 1_555
F7 Fe9 2.124588 1_455
F7 Fe9 2.124588 1_555
F7 Fe7 2.140535 1_555
F8 Fe10 2.075033 1_555
F8 Fe10 2.075033 1_455
F8 Fe13 2.234909 1_555
F9 Fe11 2.138590 1_455
F9 Fe11 2.138590 1_555
F9 Fe12 2.156905 1_555
F10 Fe10 2.123075 1_555
F10 Fe12 2.172618 1_654
F10 Fe12 2.172618 1_554
F11 Fe9 2.133429 1_555
F11 Fe13 2.152116 1_655
F11 Fe13 2.152116 1_555
F12 Fe14 2.092256 1_555
F12 Fe14 2.092256 1_655
F12 Fe16 2.223499 1_555
F13 Fe17 2.128304 1_455
F13 Fe17 2.128304 1_555
F13 Fe14 2.133249 1_555
F14 Fe15 2.078054 1_455
F14 Fe15 2.078054 1_555
F14 Fe1 2.228885 1_545
F15 Fe2 2.092330 1_545
F15 Fe16 2.152951 1_555
F15 Fe16 2.152951 1_455
F16 Fe0 2.127074 1_644
F16 Fe0 2.127074 1_544
F16 Fe15 2.193899 1_555
F17 Fe17 2.141133 1_555
F17 Fe2 2.143270 1_645
F17 Fe2 2.143270 1_545
