# generated using pymatgen
data_Li6V3P8O29
_symmetry_space_group_name_H-M   'P 1'
_cell_length_a   9.79866500
_cell_length_b   9.80183883
_cell_length_c   13.90678432
_cell_angle_alpha   89.91508133
_cell_angle_beta   89.91538366
_cell_angle_gamma   60.11184313
_symmetry_Int_Tables_number   1
_chemical_formula_structural   Li6V3P8O29
_chemical_formula_sum   'Li12 V6 P16 O58'
_cell_volume   1158.02926215
_cell_formula_units_Z   2
loop_
 _symmetry_equiv_pos_site_id
 _symmetry_equiv_pos_as_xyz
  1  'x, y, z'
loop_
 _atom_site_type_symbol
 _atom_site_label
 _atom_site_symmetry_multiplicity
 _atom_site_fract_x
 _atom_site_fract_y
 _atom_site_fract_z
 _atom_site_occupancy
  Li  Li0  1  0.77713100  0.91969600  0.93992900  1
  Li  Li1  1  0.33370700  0.90061900  0.43865300  1
  Li  Li2  1  0.67442600  0.65973200  0.11487200  1
  Li  Li3  1  0.31342200  0.77602300  0.93881500  1
  Li  Li4  1  0.91301300  0.31145900  0.94192000  1
  Li  Li5  1  0.23394900  0.66133900  0.55909800  1
  Li  Li6  1  0.76319300  0.33377000  0.43626700  1
  Li  Li7  1  0.09203200  0.68134100  0.06356700  1
  Li  Li8  1  0.66476000  0.09789000  0.55930900  1
  Li  Li9  1  0.10109300  0.23286800  0.55894600  1
  Li  Li10  1  0.22532000  0.09579700  0.06053600  1
  Li  Li11  1  0.98706100  0.96323200  0.49174200  1
  V  V0  1  0.43296800  0.56534900  0.75100500  1
  V  V1  1  0.56407800  0.43244300  0.24561200  1
  V  V2  1  0.99593600  0.56894100  0.25689400  1
  V  V3  1  0.00088000  0.43346800  0.74843400  1
  V  V4  1  0.56825200  0.00123600  0.75001200  1
  V  V5  1  0.43794400  0.00000500  0.25143200  1
  P  P0  1  0.77233300  0.91006300  0.15707900  1
  P  P1  1  0.91576200  0.77575100  0.65846500  1
  P  P2  1  0.31690000  0.91180000  0.65791800  1
  P  P3  1  0.66670300  0.66810200  0.87199500  1
  P  P4  1  0.66478400  0.66235100  0.37225900  1
  P  P5  1  0.32146600  0.77243600  0.15770900  1
  P  P6  1  0.22854200  0.68706200  0.34281500  1
  P  P7  1  0.90892900  0.32027800  0.15732200  1
  P  P8  1  0.08647900  0.67942600  0.84457700  1
  P  P9  1  0.77010100  0.31603500  0.65505600  1
  P  P10  1  0.68441400  0.23112600  0.84138300  1
  P  P11  1  0.33438200  0.33153200  0.62690500  1
  P  P12  1  0.32530700  0.33753600  0.12907100  1
  P  P13  1  0.68956300  0.08608900  0.34278200  1
  P  P14  1  0.08748600  0.22687600  0.34246200  1
  P  P15  1  0.23226200  0.08897500  0.84171700  1
  O  O0  1  0.77896600  0.00746600  0.43288000  1
  O  O1  1  0.74500800  0.91813800  0.65929000  1
  O  O2  1  0.99986600  0.75205900  0.93640800  1
  O  O3  1  0.92203000  0.74597400  0.15956200  1
  O  O4  1  0.62976200  0.88303900  0.17846300  1
  O  O5  1  0.67361900  0.81509400  0.83292100  1
  O  O6  1  0.47390400  0.90754600  0.67025700  1
  O  O7  1  0.24516600  0.99923000  0.93224700  1
  O  O8  1  0.33491300  0.92255800  0.15536100  1
  O  O9  1  0.80983300  0.66893300  0.32744700  1
  O  O10  1  0.91776900  0.61888700  0.66538300  1
  O  O11  1  0.51069600  0.81141400  0.33217600  1
  O  O12  1  0.66689900  0.66856700  0.98026300  1
  O  O13  1  0.66474200  0.65732600  0.47904000  1
  O  O14  1  0.51225000  0.67455900  0.83402900  1
  O  O15  1  0.88943100  0.48613700  0.17310200  1
  O  O16  1  0.81354700  0.51555300  0.83196100  1
  O  O17  1  0.33811200  0.74382900  0.66091900  1
  O  O18  1  0.21315000  0.79373900  0.24928500  1
  O  O19  1  0.22033100  0.78152100  0.43157500  1
  O  O20  1  0.24473800  0.75396400  0.06879400  1
  O  O21  1  0.48945900  0.62999100  0.17346900  1
  O  O22  1  0.67361400  0.50981000  0.32867600  1
  O  O23  1  0.25090900  0.66525600  0.84241200  1
  O  O24  1  0.61909800  0.47321100  0.66940100  1
  O  O25  1  0.91765500  0.33681500  0.65944500  1
  O  O26  1  0.98946700  0.79641200  0.75831100  1
  O  O27  1  0.00818500  0.79297600  0.57792700  1
  O  O28  1  0.99758400  0.22628100  0.43102400  1
  O  O29  1  0.08696700  0.66267800  0.33944400  1
  O  O30  1  0.38552400  0.53358200  0.33325000  1
  O  O31  1  0.74459800  0.33853600  0.15775100  1
  O  O32  1  0.32087400  0.48821100  0.66712600  1
  O  O33  1  0.52226700  0.38183800  0.82306700  1
  O  O34  1  0.76958300  0.24121200  0.92613400  1
  O  O35  1  0.77455100  0.22802300  0.56474200  1
  O  O36  1  0.78796600  0.20511500  0.74473600  1
  O  O37  1  0.66176800  0.25502400  0.33820900  1
  O  O38  1  0.17590200  0.48383500  0.17294200  1
  O  O39  1  0.10068400  0.51840800  0.82262000  1
  O  O40  1  0.46973300  0.34270900  0.17529200  1
  O  O41  1  0.32067700  0.34294200  0.02254900  1
  O  O42  1  0.33504900  0.32832800  0.51938400  1
  O  O43  1  0.49118600  0.18969300  0.66826200  1
  O  O44  1  0.09477200  0.37904700  0.33206400  1
  O  O45  1  0.19153900  0.31741700  0.66845700  1
  O  O46  1  0.66284700  0.08487900  0.84140100  1
  O  O47  1  0.79209900  0.99908900  0.24903100  1
  O  O48  1  0.75303100  0.99833100  0.06701100  1
  O  O49  1  0.53258300  0.08521200  0.33250500  1
  O  O50  1  0.33171100  0.18318200  0.17029300  1
  O  O51  1  0.38052100  0.10135800  0.82232100  1
  O  O52  1  0.08283500  0.25319100  0.84163200  1
  O  O53  1  0.00403600  0.24233700  0.06885600  1
  O  O54  1  0.00114700  0.20947500  0.24841200  1
  O  O55  1  0.25298300  0.08006000  0.34185200  1
  O  O56  1  0.22683600  0.99760700  0.56877800  1
  O  O57  1  0.21010000  0.99814200  0.75145700  1
loop_
_geom_bond_atom_site_label_1
_geom_bond_atom_site_label_2
_geom_bond_distance
_geom_bond_site_symmetry_2
Li0 O48 1.895946 1_556
Li0 O2 1.972699 1_555
Li0 O46 1.985936 1_565
Li0 O5 2.310830 1_555
Li1 O19 1.974790 1_555
Li1 O55 2.034958 1_565
Li1 O56 2.069406 1_555
Li1 O11 2.109454 1_555
Li2 O12 1.873714 1_554
Li2 O15 2.101857 1_555
Li2 O21 2.134347 1_555
Li2 O4 2.194183 1_555
Li3 O7 1.945141 1_555
Li3 O20 1.976702 1_556
Li3 O23 2.005218 1_555
Li3 O14 2.230062 1_555
Li4 O34 1.860994 1_555
Li4 O53 1.941540 1_656
Li4 O52 2.022045 1_655
Li4 O16 2.311375 1_555
Li5 O27 1.944676 1_555
Li5 O19 2.094855 1_555
Li5 O32 2.101876 1_555
Li5 O17 2.128543 1_555
Li6 O28 1.994594 1_555
Li6 O35 2.039383 1_555
Li6 O37 2.052968 1_555
Li6 O22 2.115036 1_555
Li7 O2 1.949466 1_454
Li7 O20 1.952681 1_555
Li7 O3 1.975496 1_455
Li7 O38 2.268514 1_555
Li8 O0 2.034583 1_555
Li8 O35 2.039165 1_555
Li8 O1 2.066659 1_545
Li8 O43 2.114087 1_555
Li9 O56 2.005573 1_545
Li9 O28 2.066056 1_455
Li9 O25 2.096159 1_455
Li9 O45 2.128689 1_555
Li10 O53 1.916725 1_555
Li10 O7 1.984250 1_544
Li10 O8 1.988924 1_545
Li10 O50 2.246934 1_555
Li11 O27 1.978609 1_655
Li11 O0 2.034352 1_565
Li11 O19 2.244646 1_655
O0 P13 1.502938 1_555
O1 P1 1.555695 1_555
O1 V4 1.961014 1_565
O2 P8 1.501790 1_655
O3 P0 1.545447 1_555
O3 V2 2.027620 1_555
O4 P0 1.574026 1_555
O4 V5 1.930579 1_565
O5 P3 1.571824 1_555
O5 V4 1.960662 1_565
O6 P2 1.527998 1_555
O6 V4 1.944313 1_565
O7 P15 1.503719 1_565
O8 P5 1.541665 1_555
O8 V5 2.037467 1_565
O9 P4 1.581529 1_555
O9 V2 1.861450 1_555
O10 P1 1.530736 1_555
O10 V3 1.954932 1_655
O11 P4 1.589552 1_555
O11 V5 1.966993 1_565
O12 P3 1.505680 1_555
O13 P4 1.485730 1_555
O14 P3 1.574818 1_555
O14 V0 1.979287 1_555
O15 P7 1.555319 1_555
O15 V2 1.989041 1_555
O16 P3 1.572265 1_555
O16 V3 1.972484 1_655
O17 P2 1.553843 1_555
O17 V0 1.967320 1_555
O18 P5 1.602457 1_555
O18 P6 1.627051 1_555
O19 P6 1.521915 1_555
O20 P5 1.505356 1_555
O21 P5 1.554588 1_555
O21 V1 1.968749 1_555
O22 P4 1.576076 1_555
O22 V1 1.969487 1_555
O23 P8 1.546929 1_555
O23 V0 2.003306 1_555
O24 P9 1.526697 1_555
O24 V0 1.945562 1_555
O25 P9 1.558664 1_555
O25 V3 1.967361 1_655
O26 P8 1.603336 1_655
O26 P1 1.624868 1_555
O27 P1 1.500647 1_455
O28 P14 1.514865 1_655
O29 P6 1.521329 1_555
O29 V2 1.944392 1_455
O30 P6 1.529942 1_555
O30 V1 1.948825 1_555
O31 P7 1.528943 1_555
O31 V1 1.960445 1_555
O32 P11 1.577541 1_555
O32 V0 1.993202 1_555
O33 P10 1.559630 1_555
O33 V0 1.853128 1_555
O34 P10 1.476767 1_555
O35 P9 1.512996 1_555
O36 P9 1.604696 1_555
O36 P10 1.624868 1_555
O37 P13 1.539617 1_555
O37 V1 1.984123 1_555
O38 P12 1.574647 1_555
O38 V2 1.923371 1_455
O39 P8 1.544644 1_555
O39 V3 1.879071 1_555
O40 P12 1.578855 1_555
O40 V1 1.843952 1_555
O41 P12 1.482200 1_555
O42 P11 1.495584 1_555
O43 P11 1.579796 1_555
O43 V4 1.970047 1_555
O44 P14 1.534992 1_555
O44 V2 1.922475 1_455
O45 P11 1.581930 1_555
O45 V3 1.975059 1_555
O46 P10 1.549665 1_555
O46 V4 1.977497 1_555
O47 P13 1.606868 1_565
O47 P0 1.614519 1_555
O48 P0 1.479062 1_555
O49 P13 1.549314 1_555
O49 V5 1.899058 1_555
O50 P12 1.588872 1_555
O50 V5 1.927519 1_555
O51 P15 1.540267 1_555
O51 V4 1.885849 1_555
O52 P15 1.544637 1_555
O52 V3 2.007296 1_555
O53 P7 1.501851 1_455
O54 P14 1.613458 1_555
O54 P7 1.619262 1_455
O55 P14 1.541091 1_555
O55 V5 2.015060 1_555
O56 P2 1.511076 1_555
O57 P15 1.616244 1_565
O57 P2 1.618680 1_555
