# generated using pymatgen
data_SrLa2O4
_symmetry_space_group_name_H-M   'P 1'
_cell_length_a   3.64805100
_cell_length_b   10.59836400
_cell_length_c   12.55077100
_cell_angle_alpha   90.00000000
_cell_angle_beta   90.00000000
_cell_angle_gamma   90.00000000
_symmetry_Int_Tables_number   1
_chemical_formula_structural   SrLa2O4
_chemical_formula_sum   'Sr4 La8 O16'
_cell_volume   485.25513294
_cell_formula_units_Z   4
loop_
 _symmetry_equiv_pos_site_id
 _symmetry_equiv_pos_as_xyz
  1  'x, y, z'
loop_
 _atom_site_type_symbol
 _atom_site_label
 _atom_site_symmetry_multiplicity
 _atom_site_fract_x
 _atom_site_fract_y
 _atom_site_fract_z
 _atom_site_occupancy
  Sr  Sr0  1  0.75000000  0.24701700  0.64647000  1
  Sr  Sr1  1  0.25000000  0.25298300  0.14647000  1
  Sr  Sr2  1  0.75000000  0.74701700  0.85353000  1
  Sr  Sr3  1  0.25000000  0.75298300  0.35353000  1
  La  La0  1  0.75000000  0.08013600  0.88633700  1
  La  La1  1  0.75000000  0.07800600  0.38588400  1
  La  La2  1  0.25000000  0.42199400  0.88588400  1
  La  La3  1  0.25000000  0.41986400  0.38633700  1
  La  La4  1  0.75000000  0.58013600  0.61366300  1
  La  La5  1  0.75000000  0.57800600  0.11411600  1
  La  La6  1  0.25000000  0.92199400  0.61411600  1
  La  La7  1  0.25000000  0.91986400  0.11366300  1
  O  O0  1  0.25000000  0.01677200  0.28356900  1
  O  O1  1  0.75000000  0.07523600  0.07886900  1
  O  O2  1  0.25000000  0.13182900  0.52324900  1
  O  O3  1  0.25000000  0.21097400  0.80994000  1
  O  O4  1  0.75000000  0.28902600  0.30994000  1
  O  O5  1  0.75000000  0.36817100  0.02324900  1
  O  O6  1  0.25000000  0.42476400  0.57886900  1
  O  O7  1  0.75000000  0.48322800  0.78356900  1
  O  O8  1  0.25000000  0.51677200  0.21643100  1
  O  O9  1  0.75000000  0.57523600  0.42113100  1
  O  O10  1  0.25000000  0.63182900  0.97675100  1
  O  O11  1  0.25000000  0.71097400  0.69006000  1
  O  O12  1  0.75000000  0.78902600  0.19006000  1
  O  O13  1  0.75000000  0.86817100  0.47675100  1
  O  O14  1  0.25000000  0.92476400  0.92113100  1
  O  O15  1  0.75000000  0.98322800  0.71643100  1
loop_
_geom_bond_atom_site_label_1
_geom_bond_atom_site_label_2
_geom_bond_distance
_geom_bond_site_symmetry_2
La0 O15 2.366900 1_545
La0 O1 2.416983 1_556
La0 O3 2.483807 1_555
La0 O3 2.483807 1_655
La0 O14 2.495867 1_545
La0 O14 2.495867 1_645
La1 O0 2.323196 1_555
La1 O0 2.323196 1_655
La1 O4 2.431109 1_555
La1 O13 2.499279 1_545
La1 O2 2.573863 1_555
La1 O2 2.573863 1_655
La2 O7 2.323196 1_455
La2 O7 2.323196 1_555
La2 O3 2.431109 1_555
La2 O10 2.499279 1_555
La2 O5 2.573863 1_456
La2 O5 2.573863 1_556
La3 O8 2.366900 1_555
La3 O6 2.416983 1_555
La3 O4 2.483807 1_555
La3 O4 2.483807 1_455
La3 O9 2.495867 1_455
La3 O9 2.495867 1_555
La4 O7 2.366900 1_555
La4 O9 2.416983 1_555
La4 O11 2.483807 1_555
La4 O11 2.483807 1_655
La4 O6 2.495867 1_655
La4 O6 2.495867 1_555
La5 O8 2.323196 1_655
La5 O8 2.323196 1_555
La5 O12 2.431109 1_555
La5 O5 2.499279 1_555
La5 O10 2.573863 1_654
La5 O10 2.573863 1_554
La6 O15 2.323196 1_455
La6 O15 2.323196 1_555
La6 O11 2.431109 1_555
La6 O2 2.499279 1_565
La6 O13 2.573863 1_555
La6 O13 2.573863 1_455
La7 O0 2.366900 1_565
La7 O14 2.416983 1_554
La7 O12 2.483807 1_455
La7 O12 2.483807 1_555
La7 O1 2.495867 1_565
La7 O1 2.495867 1_465
O0 Sr3 2.930378 1_545
O0 Sr1 3.037773 1_555
O1 Sr1 2.756036 1_655
O1 Sr1 2.756036 1_555
O2 Sr0 2.684986 1_455
O2 Sr0 2.684986 1_555
O3 Sr0 2.771707 1_455
O3 Sr0 2.771707 1_555
O4 Sr1 2.771707 1_655
O4 Sr1 2.771707 1_555
O5 Sr1 2.684986 1_655
O5 Sr1 2.684986 1_555
O6 Sr0 2.756036 1_455
O6 Sr0 2.756036 1_555
O7 Sr2 2.930378 1_555
O7 Sr0 3.037773 1_555
O8 Sr1 2.930378 1_555
O8 Sr3 3.037773 1_555
O9 Sr3 2.756036 1_555
O9 Sr3 2.756036 1_655
O10 Sr2 2.684986 1_555
O10 Sr2 2.684986 1_455
O11 Sr2 2.771707 1_455
O11 Sr2 2.771707 1_555
O12 Sr3 2.771707 1_555
O12 Sr3 2.771707 1_655
O13 Sr3 2.684986 1_555
O13 Sr3 2.684986 1_655
O14 Sr2 2.756036 1_555
O14 Sr2 2.756036 1_455
O15 Sr0 2.930378 1_565
O15 Sr2 3.037773 1_555
