# generated using pymatgen
data_Li2SiNiO4
_symmetry_space_group_name_H-M   'P 1'
_cell_length_a   5.35928100
_cell_length_b   10.45049100
_cell_length_c   12.78708200
_cell_angle_alpha   90.00000000
_cell_angle_beta   90.00000000
_cell_angle_gamma   90.00000000
_symmetry_Int_Tables_number   1
_chemical_formula_structural   Li2SiNiO4
_chemical_formula_sum   'Li16 Si8 Ni8 O32'
_cell_volume   716.16760862
_cell_formula_units_Z   8
loop_
 _symmetry_equiv_pos_site_id
 _symmetry_equiv_pos_as_xyz
  1  'x, y, z'
loop_
 _atom_site_type_symbol
 _atom_site_label
 _atom_site_symmetry_multiplicity
 _atom_site_fract_x
 _atom_site_fract_y
 _atom_site_fract_z
 _atom_site_occupancy
  Li  Li0  1  0.96233600  0.97016900  0.56005000  1
  Li  Li1  1  0.45747700  0.95715100  0.94147300  1
  Li  Li2  1  0.38760400  0.21754200  0.30260200  1
  Li  Li3  1  0.88049800  0.21192700  0.19461000  1
  Li  Li4  1  0.88049800  0.28807300  0.69461000  1
  Li  Li5  1  0.38760400  0.28245800  0.80260200  1
  Li  Li6  1  0.96233600  0.52983100  0.06005000  1
  Li  Li7  1  0.45747700  0.54284900  0.44147300  1
  Li  Li8  1  0.54252300  0.45715100  0.94147300  1
  Li  Li9  1  0.03766400  0.47016900  0.56005000  1
  Li  Li10  1  0.61239600  0.71754200  0.30260200  1
  Li  Li11  1  0.11950200  0.71192700  0.19461000  1
  Li  Li12  1  0.11950200  0.78807300  0.69461000  1
  Li  Li13  1  0.61239600  0.78245800  0.80260200  1
  Li  Li14  1  0.03766400  0.02983100  0.06005000  1
  Li  Li15  1  0.54252300  0.04284900  0.44147300  1
  Si  Si0  1  0.47286000  0.03111300  0.68971300  1
  Si  Si1  1  0.03257500  0.21137500  0.43843700  1
  Si  Si2  1  0.03257500  0.28862500  0.93843700  1
  Si  Si3  1  0.47286000  0.46888700  0.18971300  1
  Si  Si4  1  0.52714000  0.53111300  0.68971300  1
  Si  Si5  1  0.96742500  0.71137500  0.43843700  1
  Si  Si6  1  0.96742500  0.78862500  0.93843700  1
  Si  Si7  1  0.52714000  0.96888700  0.18971300  1
  Ni  Ni0  1  0.95732100  0.03724600  0.81177400  1
  Ni  Ni1  1  0.53128900  0.21310300  0.05887700  1
  Ni  Ni2  1  0.53128900  0.28689700  0.55887700  1
  Ni  Ni3  1  0.95732100  0.46275400  0.31177400  1
  Ni  Ni4  1  0.04267900  0.53724600  0.81177400  1
  Ni  Ni5  1  0.46871100  0.71310300  0.05887700  1
  Ni  Ni6  1  0.46871100  0.78689700  0.55887700  1
  Ni  Ni7  1  0.04267900  0.96275400  0.31177400  1
  O  O0  1  0.39152800  0.02793800  0.29567100  1
  O  O1  1  0.82695900  0.00706100  0.19126200  1
  O  O2  1  0.90630100  0.06884700  0.42851300  1
  O  O3  1  0.40920100  0.03873200  0.08489600  1
  O  O4  1  0.54191400  0.18613000  0.69012200  1
  O  O5  1  0.03022900  0.22098900  0.82132300  1
  O  O6  1  0.33289900  0.19494400  0.46098000  1
  O  O7  1  0.90024700  0.20222600  0.03042700  1
  O  O8  1  0.90024700  0.29777400  0.53042700  1
  O  O9  1  0.33289900  0.30505600  0.96098000  1
  O  O10  1  0.03022900  0.27901100  0.32132400  1
  O  O11  1  0.54191400  0.31387000  0.19012200  1
  O  O12  1  0.40920100  0.46126800  0.58489600  1
  O  O13  1  0.90630100  0.43115300  0.92851300  1
  O  O14  1  0.82695900  0.49293900  0.69126200  1
  O  O15  1  0.39152800  0.47206200  0.79567100  1
  O  O16  1  0.60847200  0.52793800  0.29567100  1
  O  O17  1  0.17304100  0.50706100  0.19126200  1
  O  O18  1  0.09369900  0.56884700  0.42851300  1
  O  O19  1  0.59079900  0.53873200  0.08489600  1
  O  O20  1  0.45808600  0.68613000  0.69012200  1
  O  O21  1  0.96977100  0.72098900  0.82132300  1
  O  O22  1  0.66710100  0.69494400  0.46098000  1
  O  O23  1  0.09975300  0.70222600  0.03042700  1
  O  O24  1  0.09975300  0.79777400  0.53042700  1
  O  O25  1  0.66710100  0.80505600  0.96098000  1
  O  O26  1  0.96977100  0.77901100  0.32132400  1
  O  O27  1  0.45808600  0.81387000  0.19012200  1
  O  O28  1  0.59079900  0.96126800  0.58489600  1
  O  O29  1  0.09369900  0.93115300  0.92851300  1
  O  O30  1  0.17304100  0.99293900  0.69126200  1
  O  O31  1  0.60847200  0.97206200  0.79567100  1
loop_
_geom_bond_atom_site_label_1
_geom_bond_atom_site_label_2
_geom_bond_distance
_geom_bond_site_symmetry_2
Li0 O24 1.982841 1_655
Li0 O2 1.995662 1_565
Li0 O28 2.018503 1_555
Li0 O30 2.036382 1_655
Li1 O25 1.962328 1_555
Li1 O29 1.975392 1_555
Li1 O31 2.038393 1_555
Li1 O3 2.038925 1_566
Li2 O11 1.940616 1_555
Li2 O0 1.983547 1_555
Li2 O10 2.034266 1_555
Li2 O6 2.059886 1_555
Li3 O10 1.939276 1_655
Li3 O7 2.104531 1_555
Li3 O11 2.104977 1_555
Li3 O1 2.160516 1_555
Li4 O5 1.939266 1_655
Li4 O8 2.104531 1_555
Li4 O4 2.104977 1_555
Li4 O14 2.160516 1_555
Li5 O4 1.940616 1_555
Li5 O15 1.983547 1_555
Li5 O5 2.034264 1_555
Li5 O9 2.059886 1_555
Li6 O23 1.982841 1_655
Li6 O13 1.995662 1_554
Li6 O19 2.018503 1_555
Li6 O17 2.036382 1_655
Li7 O22 1.962328 1_555
Li7 O18 1.975392 1_555
Li7 O16 2.038393 1_555
Li7 O12 2.038925 1_555
Li8 O9 1.962328 1_555
Li8 O13 1.975392 1_555
Li8 O15 2.038393 1_555
Li8 O19 2.038925 1_556
Li9 O8 1.982841 1_455
Li9 O18 1.995662 1_555
Li9 O12 2.018503 1_555
Li9 O14 2.036382 1_455
Li10 O27 1.940616 1_555
Li10 O16 1.983547 1_555
Li10 O26 2.034266 1_555
Li10 O22 2.059886 1_555
Li11 O26 1.939276 1_455
Li11 O23 2.104531 1_555
Li11 O27 2.104977 1_555
Li11 O17 2.160516 1_555
Li12 O21 1.939266 1_455
Li12 O24 2.104531 1_555
Li12 O20 2.104977 1_555
Li12 O30 2.160516 1_555
Li13 O20 1.940616 1_555
Li13 O31 1.983547 1_555
Li13 O21 2.034264 1_555
Li13 O25 2.059886 1_555
Li14 O7 1.982841 1_455
Li14 O29 1.995662 1_544
Li14 O3 2.018503 1_555
Li14 O1 2.036382 1_455
Li15 O6 1.962328 1_555
Li15 O2 1.975392 1_555
Li15 O0 2.038393 1_555
Li15 O28 2.038925 1_545
Ni0 O5 1.963356 1_655
Ni0 O30 1.981324 1_645
Ni0 O29 1.997942 1_645
Ni0 O31 2.000442 1_545
Ni1 O9 1.902875 1_554
Ni1 O3 1.964548 1_555
Ni1 O11 1.982090 1_555
Ni1 O7 2.013747 1_555
Ni2 O6 1.902875 1_555
Ni2 O12 1.964548 1_555
Ni2 O4 1.982090 1_555
Ni2 O8 2.013747 1_555
Ni3 O10 1.963357 1_655
Ni3 O17 1.981324 1_655
Ni3 O18 1.997942 1_655
Ni3 O16 2.000442 1_555
Ni4 O21 1.963356 1_455
Ni4 O14 1.981324 1_455
Ni4 O13 1.997942 1_455
Ni4 O15 2.000442 1_555
Ni5 O25 1.902875 1_554
Ni5 O19 1.964548 1_555
Ni5 O27 1.982090 1_555
Ni5 O23 2.013747 1_555
Ni6 O22 1.902875 1_555
Ni6 O28 1.964548 1_555
Ni6 O20 1.982090 1_555
Ni6 O24 2.013747 1_555
Ni7 O26 1.963357 1_455
Ni7 O1 1.981324 1_465
Ni7 O2 1.997942 1_465
Ni7 O0 2.000442 1_565
O0 Si7 1.656737 1_545
O1 Si7 1.655716 1_545
O2 Si1 1.640930 1_655
O3 Si7 1.651877 1_545
O4 Si0 1.661746 1_555
O5 Si2 1.656023 1_555
O6 Si1 1.644121 1_555
O7 Si2 1.643726 1_654
O8 Si1 1.643726 1_655
O9 Si2 1.644121 1_555
O10 Si1 1.656011 1_555
O11 Si3 1.661746 1_555
O12 Si4 1.651877 1_555
O13 Si2 1.640930 1_655
O14 Si4 1.655716 1_555
O15 Si4 1.656737 1_555
O16 Si3 1.656737 1_555
O17 Si3 1.655716 1_555
O18 Si5 1.640930 1_455
O19 Si3 1.651877 1_555
O20 Si4 1.661746 1_555
O21 Si6 1.656023 1_555
O22 Si5 1.644121 1_555
O23 Si6 1.643726 1_454
O24 Si5 1.643726 1_455
O25 Si6 1.644121 1_555
O26 Si5 1.656011 1_555
O27 Si7 1.661746 1_555
O28 Si0 1.651877 1_565
O29 Si6 1.640930 1_455
O30 Si0 1.655716 1_565
O31 Si0 1.656737 1_565
