# generated using pymatgen
data_Li3CoPCO7
_symmetry_space_group_name_H-M   'P 1'
_cell_length_a   6.38859700
_cell_length_b   8.48786800
_cell_length_c   9.85127697
_cell_angle_alpha   85.01437583
_cell_angle_beta   90.00000000
_cell_angle_gamma   90.00000000
_symmetry_Int_Tables_number   1
_chemical_formula_structural   Li3CoPCO7
_chemical_formula_sum   'Li12 Co4 P4 C4 O28'
_cell_volume   532.16999588
_cell_formula_units_Z   4
loop_
 _symmetry_equiv_pos_site_id
 _symmetry_equiv_pos_as_xyz
  1  'x, y, z'
loop_
 _atom_site_type_symbol
 _atom_site_label
 _atom_site_symmetry_multiplicity
 _atom_site_fract_x
 _atom_site_fract_y
 _atom_site_fract_z
 _atom_site_occupancy
  Li  Li0  1  0.74821300  0.90198300  0.61782200  1
  Li  Li1  1  0.75178700  0.90198300  0.11782200  1
  Li  Li2  1  0.98642400  0.71990200  0.88124600  1
  Li  Li3  1  0.51357600  0.71990200  0.38124600  1
  Li  Li4  1  0.25390900  0.65361300  0.60992500  1
  Li  Li5  1  0.24609100  0.65361300  0.10992500  1
  Li  Li6  1  0.75390900  0.34638700  0.89007500  1
  Li  Li7  1  0.74609100  0.34638700  0.39007500  1
  Li  Li8  1  0.48642400  0.28009800  0.61875400  1
  Li  Li9  1  0.01357600  0.28009800  0.11875400  1
  Li  Li10  1  0.24821300  0.09801700  0.88217800  1
  Li  Li11  1  0.25178700  0.09801700  0.38217800  1
  Co  Co0  1  0.50612600  0.72490500  0.87646900  1
  Co  Co1  1  0.99387400  0.72490500  0.37646900  1
  Co  Co2  1  0.00612600  0.27509500  0.62353100  1
  Co  Co3  1  0.49387400  0.27509500  0.12353100  1
  P  P0  1  0.74784600  0.59116100  0.64013200  1
  P  P1  1  0.75215400  0.59116100  0.14013200  1
  P  P2  1  0.24784600  0.40883900  0.85986800  1
  P  P3  1  0.25215400  0.40883900  0.35986800  1
  C  C0  1  0.25062600  0.96211100  0.64806500  1
  C  C1  1  0.24937400  0.96211100  0.14806500  1
  C  C2  1  0.75062600  0.03788900  0.85193500  1
  C  C3  1  0.74937400  0.03788900  0.35193500  1
  O  O0  1  0.24503800  0.93062100  0.52340700  1
  O  O1  1  0.74033700  0.88909400  0.82036900  1
  O  O2  1  0.25496200  0.93062100  0.02340700  1
  O  O3  1  0.26603900  0.85246100  0.74742300  1
  O  O4  1  0.75966300  0.88909400  0.32036900  1
  O  O5  1  0.23396100  0.85246100  0.24742300  1
  O  O6  1  0.94150800  0.68989800  0.58474300  1
  O  O7  1  0.55711700  0.68628700  0.58505400  1
  O  O8  1  0.94288300  0.68628700  0.08505400  1
  O  O9  1  0.55849200  0.68989800  0.08474300  1
  O  O10  1  0.25490500  0.57958300  0.90591000  1
  O  O11  1  0.74740600  0.57876300  0.79950400  1
  O  O12  1  0.24509500  0.57958300  0.40591000  1
  O  O13  1  0.75259400  0.57876300  0.29950400  1
  O  O14  1  0.24740600  0.42123700  0.70049600  1
  O  O15  1  0.75490500  0.42041700  0.59409000  1
  O  O16  1  0.25259400  0.42123700  0.20049600  1
  O  O17  1  0.74509500  0.42041700  0.09409000  1
  O  O18  1  0.05711700  0.31371300  0.91494600  1
  O  O19  1  0.44150800  0.31010200  0.91525700  1
  O  O20  1  0.44288300  0.31371300  0.41494600  1
  O  O21  1  0.05849200  0.31010200  0.41525700  1
  O  O22  1  0.76603900  0.14753900  0.75257700  1
  O  O23  1  0.24033700  0.11090600  0.67963100  1
  O  O24  1  0.73396100  0.14753900  0.25257700  1
  O  O25  1  0.74503800  0.06937900  0.97659300  1
  O  O26  1  0.25966300  0.11090600  0.17963100  1
  O  O27  1  0.75496200  0.06937900  0.47659300  1
loop_
_geom_bond_atom_site_label_1
_geom_bond_atom_site_label_2
_geom_bond_distance
_geom_bond_site_symmetry_2
Li0 O27 1.900716 1_565
Li0 O1 1.989464 1_555
Li0 O6 2.230163 1_555
Li0 O7 2.247040 1_555
Li1 O25 1.900716 1_564
Li1 O4 1.989464 1_555
Li1 O9 2.230163 1_555
Li1 O8 2.247040 1_555
Li2 O8 2.022462 1_556
Li2 O10 2.090265 1_655
Li2 O11 2.140782 1_555
Li2 O1 2.178061 1_555
Li2 O3 2.436628 1_655
Li3 O7 2.022462 1_555
Li3 O12 2.090265 1_555
Li3 O13 2.140782 1_555
Li3 O4 2.178061 1_555
Li3 O5 2.436628 1_555
Li4 O7 1.969108 1_555
Li4 O6 2.031342 1_455
Li4 O14 2.093373 1_555
Li4 O12 2.157970 1_555
Li4 O3 2.255388 1_555
Li4 O0 2.430949 1_555
Li5 O8 1.969108 1_455
Li5 O9 2.031342 1_555
Li5 O16 2.093373 1_555
Li5 O10 2.157970 1_554
Li5 O5 2.255388 1_555
Li5 O2 2.430949 1_555
Li6 O18 1.969108 1_655
Li6 O19 2.031342 1_555
Li6 O11 2.093373 1_555
Li6 O17 2.157970 1_556
Li6 O22 2.255388 1_555
Li6 O25 2.430949 1_555
Li7 O20 1.969108 1_555
Li7 O21 2.031342 1_655
Li7 O13 2.093373 1_555
Li7 O15 2.157970 1_555
Li7 O24 2.255388 1_555
Li7 O27 2.430949 1_555
Li8 O20 2.022462 1_555
Li8 O15 2.090265 1_555
Li8 O14 2.140782 1_555
Li8 O23 2.178061 1_555
Li8 O22 2.436628 1_555
Li9 O18 2.022462 1_554
Li9 O17 2.090265 1_455
Li9 O16 2.140782 1_555
Li9 O26 2.178061 1_555
Li9 O24 2.436628 1_455
Li10 O2 1.900716 1_546
Li10 O23 1.989464 1_555
Li10 O19 2.230163 1_555
Li10 O18 2.247040 1_555
Li11 O0 1.900716 1_545
Li11 O26 1.989464 1_555
Li11 O21 2.230163 1_555
Li11 O20 2.247040 1_555
Co0 O10 2.029596 1_555
Co0 O9 2.074605 1_556
Co0 O1 2.086283 1_555
Co0 O11 2.157095 1_555
Co0 O3 2.213975 1_555
Co1 O12 2.029596 1_655
Co1 O6 2.074605 1_555
Co1 O4 2.086283 1_555
Co1 O13 2.157095 1_555
Co1 O5 2.213975 1_655
Co2 O15 2.029596 1_455
Co2 O21 2.074605 1_555
Co2 O23 2.086283 1_555
Co2 O14 2.157095 1_555
Co2 O22 2.213975 1_455
Co3 O17 2.029596 1_555
Co3 O19 2.074605 1_554
Co3 O26 2.086283 1_555
Co3 O16 2.157095 1_555
Co3 O24 2.213975 1_555
C0 O0 1.279785 1_555
C0 O3 1.294453 1_555
C0 O23 1.328281 1_565
C1 O2 1.279785 1_555
C1 O5 1.294453 1_555
C1 O26 1.328281 1_565
C2 O25 1.279785 1_555
C2 O22 1.294453 1_555
C2 O1 1.328281 1_545
C3 O27 1.279785 1_555
C3 O24 1.294453 1_555
C3 O4 1.328281 1_545
O6 P0 1.565677 1_555
O7 P0 1.534568 1_555
O8 P1 1.534568 1_555
O9 P1 1.565677 1_555
O10 P2 1.556389 1_555
O11 P0 1.564392 1_555
O12 P3 1.556389 1_555
O13 P1 1.564392 1_555
O14 P2 1.564392 1_555
O15 P0 1.556389 1_555
O16 P3 1.564392 1_555
O17 P1 1.556389 1_555
O18 P2 1.534568 1_555
O19 P2 1.565677 1_555
O20 P3 1.534568 1_555
O21 P3 1.565677 1_555
