# generated using pymatgen
data_LiCu5F12
_symmetry_space_group_name_H-M   'P 1'
_cell_length_a   4.74697772
_cell_length_b   4.74697772
_cell_length_c   8.82668857
_cell_angle_alpha   90.00000000
_cell_angle_beta   90.00000000
_cell_angle_gamma   90.66538356
_symmetry_Int_Tables_number   1
_chemical_formula_structural   LiCu5F12
_chemical_formula_sum   'Li1 Cu5 F12'
_cell_volume   198.88540054
_cell_formula_units_Z   1
loop_
 _symmetry_equiv_pos_site_id
 _symmetry_equiv_pos_as_xyz
  1  'x, y, z'
loop_
 _atom_site_type_symbol
 _atom_site_label
 _atom_site_symmetry_multiplicity
 _atom_site_fract_x
 _atom_site_fract_y
 _atom_site_fract_z
 _atom_site_occupancy
  Li  Li0  1  -0.00000000  -0.00000000  -0.00000000  1
  Cu  Cu0  1  -0.00000000  -0.00000000  0.32809329  1
  Cu  Cu1  1  -0.00000000  -0.00000000  0.67190671  1
  Cu  Cu2  1  0.50000000  0.50000000  0.16399691  1
  Cu  Cu3  1  0.50000000  0.50000000  0.50000000  1
  Cu  Cu4  1  0.50000000  0.50000000  0.83600309  1
  F  F0  1  0.18665819  0.18665819  0.50000000  1
  F  F1  1  0.19387804  0.19387804  0.17213970  1
  F  F2  1  0.19387804  0.19387804  0.82786030  1
  F  F3  1  0.68795541  0.31204459  0.33352796  1
  F  F4  1  0.68795541  0.31204459  0.66647204  1
  F  F5  1  0.68834710  0.31165290  -0.00000000  1
  F  F6  1  0.31165290  0.68834710  -0.00000000  1
  F  F7  1  0.31204459  0.68795541  0.33352796  1
  F  F8  1  0.31204459  0.68795541  0.66647204  1
  F  F9  1  0.80612196  0.80612196  0.17213970  1
  F  F10  1  0.80612196  0.80612196  0.82786030  1
  F  F11  1  0.81334181  0.81334181  0.50000000  1
loop_
_geom_bond_atom_site_label_1
_geom_bond_atom_site_label_2
_geom_bond_distance
_geom_bond_site_symmetry_2
Cu0 F9 1.889248 1_445
Cu0 F1 1.889248 1_555
Cu0 F11 1.963258 1_445
Cu0 F0 1.963258 1_555
Cu0 F7 2.107505 1_545
Cu0 F3 2.107505 1_455
Cu1 F10 1.889248 1_445
Cu1 F2 1.889248 1_555
Cu1 F11 1.963258 1_445
Cu1 F0 1.963258 1_555
Cu1 F4 2.107505 1_455
Cu1 F8 2.107505 1_545
Cu2 F5 1.926843 1_555
Cu2 F6 1.926843 1_555
Cu2 F7 1.962093 1_555
Cu2 F3 1.962093 1_555
Cu2 F9 2.044367 1_555
Cu2 F1 2.044367 1_555
Cu3 F3 1.941579 1_555
Cu3 F7 1.941579 1_555
Cu3 F4 1.941579 1_555
Cu3 F8 1.941579 1_555
Cu3 F0 2.091289 1_555
Cu3 F11 2.091289 1_555
Cu4 F5 1.926843 1_556
Cu4 F6 1.926843 1_556
Cu4 F4 1.962093 1_555
Cu4 F8 1.962093 1_555
Cu4 F10 2.044367 1_555
Cu4 F2 2.044367 1_555
F1 Li0 1.995747 1_555
F2 Li0 1.995747 1_556
F5 Li0 2.104314 1_655
F6 Li0 2.104314 1_565
F9 Li0 1.995747 1_665
F10 Li0 1.995747 1_666
