# generated using pymatgen
data_Li4V3FeO10
_symmetry_space_group_name_H-M   'P 1'
_cell_length_a   6.69595400
_cell_length_b   6.69595400
_cell_length_c   4.65389700
_cell_angle_alpha   90.00000000
_cell_angle_beta   90.00000000
_cell_angle_gamma   90.00000000
_symmetry_Int_Tables_number   1
_chemical_formula_structural   Li4V3FeO10
_chemical_formula_sum   'Li4 V3 Fe1 O10'
_cell_volume   208.66119497
_cell_formula_units_Z   1
loop_
 _symmetry_equiv_pos_site_id
 _symmetry_equiv_pos_as_xyz
  1  'x, y, z'
loop_
 _atom_site_type_symbol
 _atom_site_label
 _atom_site_symmetry_multiplicity
 _atom_site_fract_x
 _atom_site_fract_y
 _atom_site_fract_z
 _atom_site_occupancy
  Li  Li0  1  0.23904900  0.76095100  0.00000000  1
  Li  Li1  1  0.76095100  0.76095100  0.00000000  1
  Li  Li2  1  0.76095100  0.23904900  0.00000000  1
  Li  Li3  1  0.23904900  0.23904900  0.00000000  1
  V  V0  1  0.50000000  0.00000000  0.60463900  1
  V  V1  1  0.00000000  0.50000000  0.39536100  1
  V  V2  1  0.50000000  0.50000000  0.50000000  1
  Fe  Fe0  1  0.00000000  0.00000000  0.50000000  1
  O  O0  1  0.00000000  0.77090800  0.25735700  1
  O  O1  1  0.50000000  0.00000000  0.24169700  1
  O  O2  1  0.77090800  0.00000000  0.74264300  1
  O  O3  1  0.22909200  0.00000000  0.74264300  1
  O  O4  1  0.00000000  0.22909200  0.25735700  1
  O  O5  1  0.50000000  0.29202700  0.72637200  1
  O  O6  1  0.29202700  0.50000000  0.27362800  1
  O  O7  1  0.70797300  0.50000000  0.27362800  1
  O  O8  1  0.00000000  0.50000000  0.75830300  1
  O  O9  1  0.50000000  0.70797300  0.72637200  1
loop_
_geom_bond_atom_site_label_1
_geom_bond_atom_site_label_2
_geom_bond_distance
_geom_bond_site_symmetry_2
Li0 O0 2.000269 1_555
Li0 O3 2.000269 1_564
Li0 O6 2.191025 1_555
Li0 O9 2.191025 1_554
Li1 O0 2.000269 1_655
Li1 O2 2.000269 1_564
Li1 O9 2.191025 1_554
Li1 O7 2.191025 1_555
Li2 O2 2.000269 1_554
Li2 O4 2.000269 1_655
Li2 O5 2.191025 1_554
Li2 O7 2.191025 1_555
Li3 O4 2.000269 1_555
Li3 O3 2.000269 1_554
Li3 O5 2.191025 1_554
Li3 O6 2.191025 1_555
Fe0 O3 1.904809 1_555
Fe0 O4 1.904809 1_555
Fe0 O2 1.904809 1_455
Fe0 O0 1.904809 1_545
O0 V1 1.924329 1_555
O1 V0 1.689095 1_555
O2 V0 1.924329 1_555
O3 V0 1.924329 1_555
O4 V1 1.924329 1_555
O5 V2 1.746184 1_555
O5 V0 2.035816 1_555
O6 V2 1.746184 1_555
O6 V1 2.035816 1_555
O7 V2 1.746184 1_555
O7 V1 2.035816 1_655
O8 V1 1.689095 1_555
O9 V2 1.746184 1_555
O9 V0 2.035816 1_565
