# generated using pymatgen
data_ZnH6(SeO4)2
_symmetry_space_group_name_H-M   'P 1'
_cell_length_a   6.99396800
_cell_length_b   7.23639200
_cell_length_c   8.54551550
_cell_angle_alpha   61.14274954
_cell_angle_beta   90.00000000
_cell_angle_gamma   90.00000000
_symmetry_Int_Tables_number   1
_chemical_formula_structural   ZnH6(SeO4)2
_chemical_formula_sum   'Zn2 H12 Se4 O16'
_cell_volume   378.79240728
_cell_formula_units_Z   2
loop_
 _symmetry_equiv_pos_site_id
 _symmetry_equiv_pos_as_xyz
  1  'x, y, z'
loop_
 _atom_site_type_symbol
 _atom_site_label
 _atom_site_symmetry_multiplicity
 _atom_site_fract_x
 _atom_site_fract_y
 _atom_site_fract_z
 _atom_site_occupancy
  Zn  Zn0  1  0.50000000  0.00000000  0.50000000  1
  Zn  Zn1  1  0.00000000  0.00000000  0.00000000  1
  H  H0  1  0.33823700  0.20527000  0.91671300  1
  H  H1  1  0.52239400  0.50050600  0.73728900  1
  H  H2  1  0.02239400  0.49949400  0.76271100  1
  H  H3  1  0.78777700  0.88851300  0.37620800  1
  H  H4  1  0.83823700  0.79473000  0.58328700  1
  H  H5  1  0.28777700  0.11148700  0.12379200  1
  H  H6  1  0.71222300  0.88851300  0.87620800  1
  H  H7  1  0.16176300  0.20527000  0.41671300  1
  H  H8  1  0.21222300  0.11148700  0.62379200  1
  H  H9  1  0.97760600  0.50050600  0.23728900  1
  H  H10  1  0.47760600  0.49949400  0.26271100  1
  H  H11  1  0.66176300  0.79473000  0.08328700  1
  Se  Se0  1  0.27096600  0.67538500  0.37534500  1
  Se  Se1  1  0.22903400  0.67538500  0.87534500  1
  Se  Se2  1  0.77096600  0.32461500  0.12465500  1
  Se  Se3  1  0.72903400  0.32461500  0.62465500  1
  O  O0  1  0.92313800  0.28077100  0.75958500  1
  O  O1  1  0.23383100  0.19174900  0.99986300  1
  O  O2  1  0.53927700  0.35114200  0.76108500  1
  O  O3  1  0.03927700  0.64885800  0.73891500  1
  O  O4  1  0.73383100  0.80825100  0.50013700  1
  O  O5  1  0.33347600  0.92200100  0.33391500  1
  O  O6  1  0.42313800  0.71922900  0.74041500  1
  O  O7  1  0.83347600  0.07799900  0.16608500  1
  O  O8  1  0.16652400  0.92200100  0.83391500  1
  O  O9  1  0.57686200  0.28077100  0.25958500  1
  O  O10  1  0.66652400  0.07799900  0.66608500  1
  O  O11  1  0.26616900  0.19174900  0.49986300  1
  O  O12  1  0.96072300  0.35114200  0.26108500  1
  O  O13  1  0.46072300  0.64885800  0.23891500  1
  O  O14  1  0.76616900  0.80825100  0.00013700  1
  O  O15  1  0.07686200  0.71922900  0.24041500  1
loop_
_geom_bond_atom_site_label_1
_geom_bond_atom_site_label_2
_geom_bond_distance
_geom_bond_site_symmetry_2
H0 O1 0.990237 1_555
H1 O2 1.005678 1_555
H1 O6 1.740280 1_555
H2 O3 1.005678 1_555
H2 O0 1.740280 1_455
H3 O4 1.003754 1_555
H3 O7 1.682246 1_565
H4 O4 0.990237 1_555
H5 O1 1.003754 1_554
H5 O5 1.682246 1_545
H6 O14 1.003754 1_556
H6 O10 1.682246 1_565
H7 O11 0.990237 1_555
H8 O11 1.003754 1_555
H8 O8 1.682246 1_545
H9 O12 1.005678 1_555
H9 O15 1.740280 1_655
H10 O13 1.005678 1_555
H10 O9 1.740280 1_555
H11 O14 0.990237 1_555
O0 Se3 1.708806 1_555
O0 Zn1 2.146794 1_656
O1 Zn1 2.144374 1_556
O2 Se3 1.836696 1_555
O3 Se1 1.836696 1_555
O4 Zn0 2.144374 1_565
O5 Se0 1.700424 1_555
O5 Zn0 2.112496 1_565
O6 Se1 1.708806 1_555
O6 Zn0 2.146794 1_565
O7 Se2 1.700424 1_555
O7 Zn1 2.112496 1_655
O8 Se1 1.700424 1_555
O8 Zn1 2.112496 1_566
O9 Se2 1.708806 1_555
O9 Zn0 2.146794 1_555
O10 Se3 1.700424 1_555
O10 Zn0 2.112496 1_555
O11 Zn0 2.144374 1_555
O12 Se2 1.836696 1_555
O13 Se0 1.836696 1_555
O14 Zn1 2.144374 1_665
O15 Se0 1.708806 1_555
O15 Zn1 2.146794 1_565
