# generated using pymatgen
data_Li4Mn3Fe(BO3)4
_symmetry_space_group_name_H-M   'P 1'
_cell_length_a   5.17509600
_cell_length_b   6.25005472
_cell_length_c   8.07214455
_cell_angle_alpha   78.39409844
_cell_angle_beta   88.80720771
_cell_angle_gamma   87.69620077
_symmetry_Int_Tables_number   1
_chemical_formula_structural   Li4Mn3Fe(BO3)4
_chemical_formula_sum   'Li4 Mn3 Fe1 B4 O12'
_cell_volume   255.52410548
_cell_formula_units_Z   1
loop_
 _symmetry_equiv_pos_site_id
 _symmetry_equiv_pos_as_xyz
  1  'x, y, z'
loop_
 _atom_site_type_symbol
 _atom_site_label
 _atom_site_symmetry_multiplicity
 _atom_site_fract_x
 _atom_site_fract_y
 _atom_site_fract_z
 _atom_site_occupancy
  Li  Li0  1  0.91656800  0.52177600  0.15056800  1
  Li  Li1  1  0.41519000  0.01983300  0.65148600  1
  Li  Li2  1  0.58382900  0.97908000  0.34707000  1
  Li  Li3  1  0.08513300  0.48202500  0.84947600  1
  Mn  Mn0  1  0.90369000  0.25618000  0.50954500  1
  Mn  Mn1  1  0.09548800  0.74391600  0.49101400  1
  Mn  Mn2  1  0.59533000  0.24227700  0.98955800  1
  Fe  Fe0  1  0.41117600  0.75451000  0.01168500  1
  B  B0  1  0.09772600  0.09298000  0.16677500  1
  B  B1  1  0.39980700  0.40790200  0.33122000  1
  B  B2  1  0.59758900  0.59478000  0.66840600  1
  B  B3  1  0.90331800  0.90314700  0.83420900  1
  O  O0  1  0.98986900  0.25493600  0.04207500  1
  O  O1  1  0.95721200  0.01079700  0.31331600  1
  O  O2  1  0.35537200  0.01965300  0.15061100  1
  O  O3  1  0.53921200  0.49551700  0.18478100  1
  O  O4  1  0.50956100  0.24635400  0.45482100  1
  O  O5  1  0.14212900  0.47898800  0.34786500  1
  O  O6  1  0.85531900  0.52106500  0.65286200  1
  O  O7  1  0.49094700  0.75574300  0.54239600  1
  O  O8  1  0.45595700  0.51035600  0.81347900  1
  O  O9  1  0.64208300  0.97105000  0.84994500  1
  O  O10  1  0.04093900  0.99016400  0.68745300  1
  O  O11  1  0.01655600  0.74697000  0.95938200  1
loop_
_geom_bond_atom_site_label_1
_geom_bond_atom_site_label_2
_geom_bond_distance
_geom_bond_site_symmetry_2
Li0 O11 1.944681 1_654
Li0 O5 1.962510 1_655
Li0 O3 1.975328 1_555
Li0 O0 2.053118 1_555
Li1 O10 1.963062 1_545
Li1 O4 1.970302 1_555
Li1 O9 1.972579 1_545
Li1 O7 2.042540 1_545
Li2 O7 1.949957 1_555
Li2 O1 1.958171 1_565
Li2 O2 1.967019 1_565
Li2 O4 2.052755 1_565
Li3 O8 1.944721 1_555
Li3 O0 1.952196 1_456
Li3 O6 1.972894 1_455
Li3 O11 2.045935 1_555
Mn0 O10 2.077976 1_645
Mn0 O4 2.101808 1_555
Mn0 O5 2.122495 1_655
Mn0 O6 2.206150 1_555
Mn0 O1 2.421337 1_555
Mn1 O1 2.082298 1_465
Mn1 O7 2.103723 1_555
Mn1 O6 2.128620 1_455
Mn1 O5 2.204837 1_555
Mn1 O10 2.427175 1_555
Mn2 O8 2.082084 1_555
Mn2 O0 2.101748 1_556
Mn2 O2 2.124170 1_556
Mn2 O9 2.219598 1_545
Mn2 O3 2.453652 1_556
Fe0 O3 2.013428 1_555
Fe0 O9 2.078046 1_554
Fe0 O11 2.098256 1_554
Fe0 O2 2.186998 1_565
Fe0 O8 2.424999 1_554
B0 O0 1.384705 1_455
B0 O1 1.393419 1_455
B0 O2 1.404476 1_555
B1 O4 1.381913 1_555
B1 O3 1.397657 1_555
B1 O5 1.400935 1_555
B2 O7 1.385028 1_555
B2 O8 1.390591 1_555
B2 O6 1.404941 1_555
B3 O11 1.378035 1_655
B3 O10 1.393974 1_655
B3 O9 1.411502 1_555
