# generated using pymatgen
data_Rb2FeH2Cl5O
_symmetry_space_group_name_H-M   'P 1'
_cell_length_a   7.20839400
_cell_length_b   10.01856900
_cell_length_c   14.05443900
_cell_angle_alpha   90.00000000
_cell_angle_beta   90.00000000
_cell_angle_gamma   90.00000000
_symmetry_Int_Tables_number   1
_chemical_formula_structural   Rb2FeH2Cl5O
_chemical_formula_sum   'Rb8 Fe4 H8 Cl20 O4'
_cell_volume   1014.98056177
_cell_formula_units_Z   4
loop_
 _symmetry_equiv_pos_site_id
 _symmetry_equiv_pos_as_xyz
  1  'x, y, z'
loop_
 _atom_site_type_symbol
 _atom_site_label
 _atom_site_symmetry_multiplicity
 _atom_site_fract_x
 _atom_site_fract_y
 _atom_site_fract_z
 _atom_site_occupancy
  Rb  Rb0  1  0.34451300  0.50009600  0.85657800  1
  Rb  Rb1  1  0.15548700  0.99990400  0.35657800  1
  Rb  Rb2  1  0.65548700  0.00009600  0.14342200  1
  Rb  Rb3  1  0.84451300  0.49990400  0.64342200  1
  Rb  Rb4  1  0.65548700  0.49990400  0.14342200  1
  Rb  Rb5  1  0.84451300  0.00009600  0.64342200  1
  Rb  Rb6  1  0.34451300  0.99990400  0.85657800  1
  Rb  Rb7  1  0.15548700  0.50009600  0.35657800  1
  Fe  Fe0  1  0.30933600  0.25000000  0.61459100  1
  Fe  Fe1  1  0.19066400  0.25000000  0.11459100  1
  Fe  Fe2  1  0.69066400  0.75000000  0.38540900  1
  Fe  Fe3  1  0.80933600  0.75000000  0.88540900  1
  H  H0  1  0.54713100  0.33029700  0.46461100  1
  H  H1  1  0.95286900  0.16970300  0.96461100  1
  H  H2  1  0.45286900  0.83029700  0.53538900  1
  H  H3  1  0.04713100  0.66970300  0.03538900  1
  H  H4  1  0.45286900  0.66970300  0.53538900  1
  H  H5  1  0.04713100  0.83029700  0.03538900  1
  H  H6  1  0.54713100  0.16970300  0.46461100  1
  H  H7  1  0.95286900  0.33029700  0.96461100  1
  Cl  Cl0  1  0.10174400  0.25000000  0.74557700  1
  Cl  Cl1  1  0.39825600  0.25000000  0.24557700  1
  Cl  Cl2  1  0.89825600  0.75000000  0.25442300  1
  Cl  Cl3  1  0.60174400  0.75000000  0.75442300  1
  Cl  Cl4  1  0.56913300  0.25000000  0.72069100  1
  Cl  Cl5  1  0.93086700  0.25000000  0.22069100  1
  Cl  Cl6  1  0.43086700  0.75000000  0.27930900  1
  Cl  Cl7  1  0.06913300  0.75000000  0.77930900  1
  Cl  Cl8  1  0.04685800  0.25000000  0.50652800  1
  Cl  Cl9  1  0.45314200  0.25000000  0.00652800  1
  Cl  Cl10  1  0.95314200  0.75000000  0.49347200  1
  Cl  Cl11  1  0.54685800  0.75000000  0.99347200  1
  Cl  Cl12  1  0.32361000  0.49104700  0.60369700  1
  Cl  Cl13  1  0.17639000  0.00895300  0.10369700  1
  Cl  Cl14  1  0.67639000  0.99104700  0.39630300  1
  Cl  Cl15  1  0.82361000  0.50895300  0.89630300  1
  Cl  Cl16  1  0.67639000  0.50895300  0.39630300  1
  Cl  Cl17  1  0.82361000  0.99104700  0.89630300  1
  Cl  Cl18  1  0.32361000  0.00895300  0.60369700  1
  Cl  Cl19  1  0.17639000  0.49104700  0.10369700  1
  O  O0  1  0.49370200  0.25000000  0.49502900  1
  O  O1  1  0.00629800  0.25000000  0.99502900  1
  O  O2  1  0.50629800  0.75000000  0.50497100  1
  O  O3  1  0.99370200  0.75000000  0.00497100  1
loop_
_geom_bond_atom_site_label_1
_geom_bond_atom_site_label_2
_geom_bond_distance
_geom_bond_site_symmetry_2
Fe0 O0 2.142396 1_555
Fe1 O1 2.142396 1_554
Fe2 O2 2.142396 1_555
Fe3 O3 2.142396 1_556
H0 O0 0.989066 1_555
H1 O1 0.989066 1_655
H2 O2 0.989066 1_555
H3 O3 0.989066 1_455
H4 O2 0.989066 1_555
H5 O3 0.989066 1_455
H6 O0 0.989066 1_555
H7 O1 0.989066 1_655
Cl0 Fe0 2.372397 1_555
Cl0 Rb5 3.430434 1_455
Cl0 Rb3 3.430434 1_455
Cl0 Rb0 3.431361 1_555
Cl0 Rb6 3.431361 1_545
Cl1 Fe1 2.372397 1_555
Cl1 Rb4 3.430434 1_555
Cl1 Rb2 3.430434 1_555
Cl1 Rb1 3.431361 1_545
Cl1 Rb7 3.431361 1_555
Cl2 Fe2 2.372397 1_555
Cl2 Rb1 3.430434 1_655
Cl2 Rb7 3.430434 1_655
Cl2 Rb4 3.431361 1_555
Cl2 Rb2 3.431361 1_565
Cl3 Fe3 2.372397 1_555
Cl3 Rb0 3.430434 1_555
Cl3 Rb6 3.430434 1_555
Cl3 Rb3 3.431361 1_555
Cl3 Rb5 3.431361 1_565
Cl4 Fe0 2.393884 1_555
Cl4 Rb3 3.374636 1_555
Cl4 Rb5 3.374636 1_555
Cl4 Rb0 3.542187 1_555
Cl4 Rb6 3.542187 1_545
Cl5 Fe1 2.393884 1_655
Cl5 Rb4 3.374636 1_555
Cl5 Rb2 3.374636 1_555
Cl5 Rb7 3.542187 1_655
Cl5 Rb1 3.542187 1_645
Cl6 Fe2 2.393884 1_555
Cl6 Rb7 3.374636 1_555
Cl6 Rb1 3.374636 1_555
Cl6 Rb4 3.542187 1_555
Cl6 Rb2 3.542187 1_565
Cl7 Fe3 2.393884 1_455
Cl7 Rb0 3.374636 1_555
Cl7 Rb6 3.374636 1_555
Cl7 Rb3 3.542187 1_455
Cl7 Rb5 3.542187 1_465
Cl8 Fe0 2.426207 1_555
Cl8 Rb1 3.366393 1_545
Cl8 Rb7 3.366393 1_555
Cl8 Rb5 3.478151 1_455
Cl8 Rb3 3.478151 1_455
Cl9 Fe1 2.426207 1_555
Cl9 Rb0 3.366393 1_554
Cl9 Rb6 3.366393 1_544
Cl9 Rb2 3.478151 1_555
Cl9 Rb4 3.478151 1_555
Cl10 Fe2 2.426207 1_555
Cl10 Rb3 3.366393 1_555
Cl10 Rb5 3.366393 1_565
Cl10 Rb1 3.478151 1_655
Cl10 Rb7 3.478151 1_655
Cl11 Fe3 2.426207 1_555
Cl11 Rb4 3.366393 1_556
Cl11 Rb2 3.366393 1_566
Cl11 Rb0 3.478151 1_555
Cl11 Rb6 3.478151 1_555
Cl12 Fe0 2.421981 1_555
Cl12 Rb3 3.499484 1_455
Cl12 Rb0 3.558448 1_555
Cl12 Rb7 3.679602 1_555
Cl12 Rb3 3.797192 1_555
Cl13 Fe1 2.421981 1_555
Cl13 Rb2 3.499484 1_555
Cl13 Rb1 3.558448 1_545
Cl13 Rb6 3.679602 1_544
Cl13 Rb2 3.797192 1_455
Cl14 Fe2 2.421981 1_555
Cl14 Rb1 3.499484 1_655
Cl14 Rb2 3.558448 1_565
Cl14 Rb5 3.679602 1_565
Cl14 Rb1 3.797192 1_555
Cl15 Fe3 2.421981 1_555
Cl15 Rb0 3.499484 1_555
Cl15 Rb3 3.558448 1_555
Cl15 Rb4 3.679602 1_556
Cl15 Rb0 3.797192 1_655
Cl16 Fe2 2.421981 1_555
Cl16 Rb7 3.499484 1_655
Cl16 Rb4 3.558448 1_555
Cl16 Rb3 3.679602 1_555
Cl16 Rb7 3.797192 1_555
Cl17 Fe3 2.421981 1_555
Cl17 Rb6 3.499484 1_555
Cl17 Rb5 3.558448 1_565
Cl17 Rb2 3.679602 1_566
Cl17 Rb6 3.797192 1_655
Cl18 Fe0 2.421981 1_555
Cl18 Rb5 3.499484 1_455
Cl18 Rb6 3.558448 1_545
Cl18 Rb1 3.679602 1_545
Cl18 Rb5 3.797192 1_555
Cl19 Fe1 2.421981 1_555
Cl19 Rb4 3.499484 1_555
Cl19 Rb7 3.558448 1_555
Cl19 Rb0 3.679602 1_554
Cl19 Rb4 3.797192 1_455
