# generated using pymatgen
data_Mn2OF3
_symmetry_space_group_name_H-M   'P 1'
_cell_length_a   10.27272386
_cell_length_b   10.27272386
_cell_length_c   4.87083405
_cell_angle_alpha   87.78170397
_cell_angle_beta   87.78170397
_cell_angle_gamma   35.84071807
_symmetry_Int_Tables_number   1
_chemical_formula_structural   Mn2OF3
_chemical_formula_sum   'Mn8 O4 F12'
_cell_volume   300.72322205
_cell_formula_units_Z   4
loop_
 _symmetry_equiv_pos_site_id
 _symmetry_equiv_pos_as_xyz
  1  'x, y, z'
loop_
 _atom_site_type_symbol
 _atom_site_label
 _atom_site_symmetry_multiplicity
 _atom_site_fract_x
 _atom_site_fract_y
 _atom_site_fract_z
 _atom_site_occupancy
  Mn  Mn0  1  0.87109800  0.37949500  0.50037600  1
  Mn  Mn1  1  0.37949500  0.87109800  0.50037600  1
  Mn  Mn2  1  0.12890200  0.62050500  0.49962400  1
  Mn  Mn3  1  0.62050500  0.12890200  0.49962400  1
  Mn  Mn4  1  0.50000000  0.50000000  0.00000000  1
  Mn  Mn5  1  0.24108900  0.24108900  0.03508200  1
  Mn  Mn6  1  0.00000000  0.00000000  0.00000000  1
  Mn  Mn7  1  0.75891100  0.75891100  0.96491800  1
  O  O0  1  0.58224100  0.58224100  0.67412900  1
  O  O1  1  0.83328500  0.83328500  0.66930100  1
  O  O2  1  0.16671500  0.16671500  0.33069900  1
  O  O3  1  0.41775900  0.41775900  0.32587100  1
  F  F0  1  0.94902200  0.44996300  0.79684600  1
  F  F1  1  0.44996300  0.94902200  0.79684600  1
  F  F2  1  0.69820400  0.20020900  0.79656600  1
  F  F3  1  0.20020900  0.69820400  0.79656600  1
  F  F4  1  0.07460400  0.07460400  0.69914300  1
  F  F5  1  0.32078400  0.32078400  0.71372400  1
  F  F6  1  0.92539600  0.92539600  0.30085700  1
  F  F7  1  0.67921600  0.67921600  0.28627600  1
  F  F8  1  0.55003700  0.05097800  0.20315400  1
  F  F9  1  0.30179600  0.79979100  0.20343400  1
  F  F10  1  0.05097800  0.55003700  0.20315400  1
  F  F11  1  0.79979100  0.30179600  0.20343400  1
loop_
_geom_bond_atom_site_label_1
_geom_bond_atom_site_label_2
_geom_bond_distance
_geom_bond_site_symmetry_2
Mn0 O0 1.944557 1_555
Mn0 O2 1.966353 1_655
Mn1 O0 1.944557 1_555
Mn1 O2 1.966353 1_565
Mn2 O3 1.944557 1_555
Mn2 O1 1.966353 1_455
Mn3 O3 1.944557 1_555
Mn3 O1 1.966353 1_545
Mn4 O3 2.212803 1_555
Mn4 O0 2.212803 1_554
Mn5 O2 2.004209 1_555
Mn7 O1 2.004209 1_555
F0 Mn0 2.088067 1_555
F0 Mn7 2.141293 1_555
F0 Mn5 2.142829 1_656
F1 Mn1 2.088067 1_555
F1 Mn7 2.141293 1_555
F1 Mn5 2.142829 1_566
F2 Mn3 2.094026 1_555
F2 Mn4 2.127354 1_556
F2 Mn6 2.136750 1_656
F3 Mn2 2.094026 1_555
F3 Mn4 2.127354 1_556
F3 Mn6 2.136750 1_566
F4 Mn6 2.024980 1_556
F4 Mn1 2.103251 1_545
F4 Mn0 2.103251 1_455
F5 Mn3 2.126899 1_555
F5 Mn2 2.126899 1_555
F5 Mn5 2.163066 1_556
F6 Mn6 2.024980 1_665
F6 Mn3 2.103251 1_565
F6 Mn2 2.103251 1_655
F7 Mn0 2.126899 1_555
F7 Mn1 2.126899 1_555
F7 Mn7 2.163066 1_554
F8 Mn3 2.088067 1_555
F8 Mn5 2.141293 1_555
F8 Mn7 2.142829 1_544
F9 Mn1 2.094026 1_555
F9 Mn4 2.127354 1_555
F9 Mn6 2.136750 1_565
F10 Mn2 2.088067 1_555
F10 Mn5 2.141293 1_555
F10 Mn7 2.142829 1_454
F11 Mn0 2.094026 1_555
F11 Mn4 2.127354 1_555
F11 Mn6 2.136750 1_655
