# generated using pymatgen
data_Li2SnP2O7
_symmetry_space_group_name_H-M   'P 1'
_cell_length_a   5.09438100
_cell_length_b   8.69417300
_cell_length_c   15.08748589
_cell_angle_alpha   68.63879763
_cell_angle_beta   90.00000000
_cell_angle_gamma   90.00000000
_symmetry_Int_Tables_number   1
_chemical_formula_structural   Li2SnP2O7
_chemical_formula_sum   'Li8 Sn4 P8 O28'
_cell_volume   622.33958797
_cell_formula_units_Z   4
loop_
 _symmetry_equiv_pos_site_id
 _symmetry_equiv_pos_as_xyz
  1  'x, y, z'
loop_
 _atom_site_type_symbol
 _atom_site_label
 _atom_site_symmetry_multiplicity
 _atom_site_fract_x
 _atom_site_fract_y
 _atom_site_fract_z
 _atom_site_occupancy
  Li  Li0  1  0.25074800  0.99522500  0.67883300  1
  Li  Li1  1  0.24925200  0.99522500  0.17883300  1
  Li  Li2  1  0.73217200  0.41244300  0.82543600  1
  Li  Li3  1  0.23217200  0.58755700  0.67456400  1
  Li  Li4  1  0.76782800  0.41244300  0.32543600  1
  Li  Li5  1  0.26782800  0.58755700  0.17456400  1
  Li  Li6  1  0.75074800  0.00477500  0.82116700  1
  Li  Li7  1  0.74925200  0.00477500  0.32116700  1
  Sn  Sn0  1  0.27543300  0.71472400  0.88489300  1
  Sn  Sn1  1  0.22456700  0.71472400  0.38489300  1
  Sn  Sn2  1  0.77543300  0.28527600  0.61510700  1
  Sn  Sn3  1  0.72456700  0.28527600  0.11510700  1
  P  P0  1  0.75860900  0.78726600  0.70166300  1
  P  P1  1  0.72176700  0.70066000  0.53449100  1
  P  P2  1  0.74139100  0.78726600  0.20166300  1
  P  P3  1  0.22176700  0.29934000  0.96550900  1
  P  P4  1  0.77823300  0.70066000  0.03449100  1
  P  P5  1  0.25860900  0.21273400  0.79833700  1
  P  P6  1  0.27823300  0.29934000  0.46550900  1
  P  P7  1  0.24139100  0.21273400  0.29833700  1
  O  O0  1  0.38225100  0.06333700  0.78392400  1
  O  O1  1  0.11774900  0.06333700  0.28392400  1
  O  O2  1  0.69527000  0.79006300  0.92968300  1
  O  O3  1  0.79578100  0.82889700  0.58669000  1
  O  O4  1  0.45879500  0.77636400  0.71954000  1
  O  O5  1  0.90438600  0.62594900  0.75390300  1
  O  O6  1  0.42782000  0.66498000  0.54627800  1
  O  O7  1  0.80473000  0.79006300  0.42968300  1
  O  O8  1  0.70421900  0.82889700  0.08669000  1
  O  O9  1  0.39510500  0.45331600  0.91757300  1
  O  O10  1  0.04120500  0.77636400  0.21954000  1
  O  O11  1  0.59561400  0.62594900  0.25390300  1
  O  O12  1  0.89510500  0.54668400  0.58242700  1
  O  O13  1  0.07218000  0.66498000  0.04627800  1
  O  O14  1  0.92782000  0.33502000  0.95372200  1
  O  O15  1  0.10489500  0.45331600  0.41757300  1
  O  O16  1  0.40438600  0.37405100  0.74609700  1
  O  O17  1  0.95879500  0.22363600  0.78046000  1
  O  O18  1  0.60489500  0.54668400  0.08242700  1
  O  O19  1  0.29578100  0.17110300  0.91331000  1
  O  O20  1  0.19527000  0.20993700  0.57031700  1
  O  O21  1  0.57218000  0.33502000  0.45372200  1
  O  O22  1  0.09561400  0.37405100  0.24609700  1
  O  O23  1  0.54120500  0.22363600  0.28046000  1
  O  O24  1  0.20421900  0.17110300  0.41331000  1
  O  O25  1  0.30473000  0.20993700  0.07031700  1
  O  O26  1  0.88225100  0.93666300  0.71607600  1
  O  O27  1  0.61774900  0.93666300  0.21607600  1
loop_
_geom_bond_atom_site_label_1
_geom_bond_atom_site_label_2
_geom_bond_distance
_geom_bond_site_symmetry_2
Li0 O26 1.972479 1_455
Li0 O0 1.999369 1_565
Li0 O20 2.004658 1_565
Li0 O4 2.066370 1_555
Li1 O27 1.972479 1_555
Li1 O1 1.999369 1_565
Li1 O25 2.004658 1_565
Li1 O10 2.066370 1_555
Li2 O5 1.980085 1_555
Li2 O14 2.060005 1_555
Li2 O16 2.150305 1_555
Li2 O17 2.302042 1_555
Li2 O9 2.316714 1_555
Li3 O16 1.980085 1_555
Li3 O6 2.060005 1_555
Li3 O5 2.150305 1_455
Li3 O4 2.302042 1_555
Li3 O12 2.316714 1_455
Li4 O11 1.980085 1_555
Li4 O21 2.060005 1_555
Li4 O22 2.150305 1_655
Li4 O23 2.302042 1_555
Li4 O15 2.316714 1_655
Li5 O22 1.980085 1_555
Li5 O13 2.060005 1_555
Li5 O11 2.150305 1_555
Li5 O10 2.302042 1_555
Li5 O18 2.316714 1_555
Li6 O0 1.972479 1_555
Li6 O26 1.999369 1_545
Li6 O2 2.004658 1_545
Li6 O17 2.066370 1_555
Li7 O1 1.972479 1_655
Li7 O27 1.999369 1_545
Li7 O7 2.004658 1_545
Li7 O23 2.066370 1_555
O0 P5 1.528691 1_555
O1 P7 1.528691 1_555
O2 P4 1.545276 1_556
O2 Sn0 2.404717 1_555
O3 P1 1.626376 1_555
O3 P0 1.648788 1_555
O4 P0 1.547888 1_555
O4 Sn0 2.531726 1_555
O5 P0 1.527906 1_555
O6 P1 1.526469 1_555
O6 Sn1 2.533923 1_555
O7 P1 1.545276 1_555
O7 Sn1 2.404717 1_655
O8 P4 1.626376 1_555
O8 P2 1.648788 1_555
O9 P3 1.545842 1_555
O9 Sn0 2.227943 1_555
O10 P2 1.547888 1_455
O10 Sn1 2.531726 1_555
O11 P2 1.527906 1_555
O12 P1 1.545842 1_555
O12 Sn2 2.227943 1_555
O13 P4 1.526469 1_455
O13 Sn0 2.533923 1_554
O14 P3 1.526469 1_655
O14 Sn3 2.533923 1_556
O15 P6 1.545842 1_555
O15 Sn1 2.227943 1_555
O16 P5 1.527906 1_555
O17 P5 1.547888 1_655
O17 Sn2 2.531726 1_555
O18 P4 1.545842 1_555
O18 Sn3 2.227943 1_555
O19 P3 1.626376 1_555
O19 P5 1.648788 1_555
O20 P6 1.545276 1_555
O20 Sn2 2.404717 1_455
O21 P6 1.526469 1_555
O21 Sn2 2.533923 1_555
O22 P7 1.527906 1_555
O23 P7 1.547888 1_555
O23 Sn3 2.531726 1_555
O24 P6 1.626376 1_555
O24 P7 1.648788 1_555
O25 P3 1.545276 1_554
O25 Sn3 2.404717 1_555
O26 P0 1.528691 1_555
O27 P2 1.528691 1_555
