# generated using pymatgen
data_Li3Y3ZrO8
_symmetry_space_group_name_H-M   'P 1'
_cell_length_a   6.18796697
_cell_length_b   6.18796697
_cell_length_c   6.12722300
_cell_angle_alpha   90.00000000
_cell_angle_beta   90.00000000
_cell_angle_gamma   119.54888697
_symmetry_Int_Tables_number   1
_chemical_formula_structural   Li3Y3ZrO8
_chemical_formula_sum   'Li3 Y3 Zr1 O8'
_cell_volume   204.10167839
_cell_formula_units_Z   1
loop_
 _symmetry_equiv_pos_site_id
 _symmetry_equiv_pos_as_xyz
  1  'x, y, z'
loop_
 _atom_site_type_symbol
 _atom_site_label
 _atom_site_symmetry_multiplicity
 _atom_site_fract_x
 _atom_site_fract_y
 _atom_site_fract_z
 _atom_site_occupancy
  Li  Li0  1  0.50000000  0.00000000  0.25674700  1
  Li  Li1  1  0.00000000  0.00000000  0.50000000  1
  Li  Li2  1  0.00000000  0.50000000  0.74325300  1
  Y  Y0  1  0.00000000  0.50000000  0.24702900  1
  Y  Y1  1  0.50000000  0.50000000  0.50000000  1
  Y  Y2  1  0.50000000  0.00000000  0.75297100  1
  Zr  Zr0  1  0.00000000  0.00000000  0.00000000  1
  O  O0  1  0.19384700  0.25622800  0.25727500  1
  O  O1  1  0.80615300  0.74377200  0.25727500  1
  O  O2  1  0.20450300  0.79549700  0.00000000  1
  O  O3  1  0.79549700  0.20450300  0.00000000  1
  O  O4  1  0.71411500  0.28588500  0.50000000  1
  O  O5  1  0.28588500  0.71411500  0.50000000  1
  O  O6  1  0.25622800  0.19384700  0.74272500  1
  O  O7  1  0.74377200  0.80615300  0.74272500  1
loop_
_geom_bond_atom_site_label_1
_geom_bond_atom_site_label_2
_geom_bond_distance
_geom_bond_site_symmetry_2
Li0 O4 2.189665 1_555
Li0 O5 2.189665 1_545
Li0 O2 2.266580 1_545
Li0 O3 2.266580 1_555
Li1 O6 2.070924 1_555
Li1 O7 2.070924 1_445
Li1 O1 2.070924 1_445
Li1 O0 2.070924 1_555
Li2 O5 2.189665 1_555
Li2 O4 2.189665 1_455
Li2 O3 2.266580 1_456
Li2 O2 2.266580 1_556
O0 Zr0 2.135849 1_555
O0 Y1 2.292952 1_555
O0 Y0 2.345827 1_555
O1 Zr0 2.135849 1_665
O1 Y1 2.292952 1_555
O1 Y0 2.345827 1_655
O2 Zr0 2.186839 1_565
O2 Y0 2.225665 1_555
O2 Y2 2.225665 1_564
O3 Zr0 2.186839 1_655
O3 Y0 2.225665 1_655
O3 Y2 2.225665 1_554
O4 Y2 2.230622 1_555
O4 Y0 2.230622 1_655
O4 Y1 2.289624 1_555
O5 Y0 2.230622 1_555
O5 Y2 2.230622 1_565
O5 Y1 2.289624 1_555
O6 Zr0 2.135849 1_556
O6 Y1 2.292952 1_555
O6 Y2 2.345827 1_555
O7 Zr0 2.135849 1_666
O7 Y1 2.292952 1_555
O7 Y2 2.345827 1_565
