# generated using pymatgen
data_La(BC)2
_symmetry_space_group_name_H-M   'P 1'
_cell_length_a   3.83664600
_cell_length_b   3.83664600
_cell_length_c   7.97289700
_cell_angle_alpha   90.00000000
_cell_angle_beta   90.00000000
_cell_angle_gamma   90.00000000
_symmetry_Int_Tables_number   1
_chemical_formula_structural   La(BC)2
_chemical_formula_sum   'La2 B4 C4'
_cell_volume   117.35986807
_cell_formula_units_Z   2
loop_
 _symmetry_equiv_pos_site_id
 _symmetry_equiv_pos_as_xyz
  1  'x, y, z'
loop_
 _atom_site_type_symbol
 _atom_site_label
 _atom_site_symmetry_multiplicity
 _atom_site_fract_x
 _atom_site_fract_y
 _atom_site_fract_z
 _atom_site_occupancy
  La  La0  1  0.00000000  0.00000000  0.75000000  1
  La  La1  1  0.00000000  0.00000000  0.25000000  1
  B  B0  1  0.50000000  0.78306700  0.50000000  1
  B  B1  1  0.21693300  0.50000000  0.00000000  1
  B  B2  1  0.50000000  0.21693300  0.50000000  1
  B  B3  1  0.78306700  0.50000000  0.00000000  1
  C  C0  1  0.50000000  0.81352800  0.00000000  1
  C  C1  1  0.81352800  0.50000000  0.50000000  1
  C  C2  1  0.18647200  0.50000000  0.50000000  1
  C  C3  1  0.50000000  0.18647200  0.00000000  1
loop_
_geom_bond_atom_site_label_1
_geom_bond_atom_site_label_2
_geom_bond_distance
_geom_bond_site_symmetry_2
B0 C1 1.620622 1_555
B0 C2 1.620622 1_555
B0 La1 2.888879 1_565
B0 La0 2.888879 1_565
B0 La0 2.888879 1_665
B0 La1 2.888879 1_665
B1 C0 1.620622 1_555
B1 C3 1.620622 1_555
B1 La0 2.888879 1_564
B1 La1 2.888879 1_565
B1 La0 2.888879 1_554
B1 La1 2.888879 1_555
B2 C1 1.620622 1_555
B2 C2 1.620622 1_555
B2 La0 2.888879 1_555
B2 La0 2.888879 1_655
B2 La1 2.888879 1_555
B2 La1 2.888879 1_655
B3 C0 1.620622 1_555
B3 C3 1.620622 1_555
B3 La1 2.888879 1_655
B3 La1 2.888879 1_665
B3 La0 2.888879 1_654
B3 La0 2.888879 1_664
C0 C3 1.430854 1_565
C0 La0 2.857401 1_564
C0 La1 2.857401 1_565
C0 La1 2.857401 1_665
C0 La0 2.857401 1_664
C1 C2 1.430854 1_655
C1 La1 2.857401 1_655
C1 La0 2.857401 1_655
C1 La1 2.857401 1_665
C1 La0 2.857401 1_665
C2 La0 2.857401 1_555
C2 La1 2.857401 1_565
C2 La1 2.857401 1_555
C2 La0 2.857401 1_565
C3 La0 2.857401 1_654
C3 La0 2.857401 1_554
C3 La1 2.857401 1_555
C3 La1 2.857401 1_655
