# generated using pymatgen
data_Li4Ti3Co5O16
_symmetry_space_group_name_H-M   'P 1'
_cell_length_a   5.72685104
_cell_length_b   5.72685104
_cell_length_c   9.31004518
_cell_angle_alpha   89.68678152
_cell_angle_beta   89.68678152
_cell_angle_gamma   60.89370060
_symmetry_Int_Tables_number   1
_chemical_formula_structural   Li4Ti3Co5O16
_chemical_formula_sum   'Li4 Ti3 Co5 O16'
_cell_volume   266.77583365
_cell_formula_units_Z   1
loop_
 _symmetry_equiv_pos_site_id
 _symmetry_equiv_pos_as_xyz
  1  'x, y, z'
loop_
 _atom_site_type_symbol
 _atom_site_label
 _atom_site_symmetry_multiplicity
 _atom_site_fract_x
 _atom_site_fract_y
 _atom_site_fract_z
 _atom_site_occupancy
  Li  Li0  1  0.67110000  0.67110000  0.88842700  1
  Li  Li1  1  0.98798500  0.98798500  0.99468900  1
  Li  Li2  1  0.99391400  0.99391400  0.49911000  1
  Li  Li3  1  0.33716800  0.33716800  0.39571500  1
  Ti  Ti0  1  0.83290800  0.33913800  0.21201100  1
  Ti  Ti1  1  0.33913800  0.83290800  0.21201100  1
  Ti  Ti2  1  0.17048300  0.17048300  0.71270100  1
  Co  Co0  1  0.66717400  0.66717400  0.48477700  1
  Co  Co1  1  0.82659600  0.82659600  0.21407100  1
  Co  Co2  1  0.33631900  0.33631900  0.97914300  1
  Co  Co3  1  0.66187000  0.16697100  0.70893100  1
  Co  Co4  1  0.16697100  0.66187000  0.70893100  1
  O  O0  1  0.82865400  0.33588200  0.60283300  1
  O  O1  1  0.52418900  0.52418900  0.34526800  1
  O  O2  1  0.66530300  0.66530300  0.09775700  1
  O  O3  1  0.99534100  0.99534100  0.31069200  1
  O  O4  1  0.99420100  0.99420100  0.80723900  1
  O  O5  1  0.33588200  0.82865400  0.60283300  1
  O  O6  1  0.95826800  0.52654000  0.34679900  1
  O  O7  1  0.52654000  0.95826800  0.34679900  1
  O  O8  1  0.17081100  0.17081100  0.10081500  1
  O  O9  1  0.83328900  0.83328900  0.60832900  1
  O  O10  1  0.48466000  0.04492300  0.84319500  1
  O  O11  1  0.04492300  0.48466000  0.84319500  1
  O  O12  1  0.33741500  0.33741500  0.60199600  1
  O  O13  1  0.66490800  0.17159300  0.10250500  1
  O  O14  1  0.47951900  0.47951900  0.83314400  1
  O  O15  1  0.17159300  0.66490800  0.10250500  1
loop_
_geom_bond_atom_site_label_1
_geom_bond_atom_site_label_2
_geom_bond_distance
_geom_bond_site_symmetry_2
Li0 O10 1.916192 1_565
Li0 O11 1.916192 1_655
Li0 O2 1.949349 1_556
Li0 O14 1.963629 1_555
Li1 O4 1.745858 1_555
Li1 O15 1.906575 1_656
Li1 O13 1.906575 1_566
Li1 O8 2.063450 1_666
Li2 O3 1.754147 1_555
Li2 O9 1.878576 1_555
Li2 O0 1.967502 1_565
Li2 O5 1.967502 1_655
Li3 O1 1.902589 1_555
Li3 O12 1.920502 1_555
Li3 O6 1.951416 1_455
Li3 O7 1.951416 1_545
Co0 O1 1.924473 1_555
Co0 O6 1.938961 1_555
Co0 O7 1.938961 1_555
Co0 O0 1.986008 1_555
Co0 O5 1.986008 1_555
Co0 O9 2.009355 1_555
Co1 O3 1.898553 1_555
Co1 O2 1.931589 1_555
Co1 O6 1.942875 1_555
Co1 O7 1.942875 1_555
Co1 O15 2.011990 1_655
Co1 O13 2.011990 1_565
Co2 O10 1.934066 1_555
Co2 O11 1.934066 1_555
Co2 O14 1.955140 1_555
Co2 O8 1.982552 1_556
Co2 O15 2.008694 1_556
Co2 O13 2.008694 1_556
Co3 O4 1.901583 1_545
Co3 O12 1.908300 1_555
Co3 O9 1.917586 1_545
Co3 O0 1.924016 1_555
Co3 O10 1.935881 1_555
Co3 O14 1.955155 1_555
Co4 O4 1.901583 1_455
Co4 O12 1.908300 1_555
Co4 O9 1.917586 1_455
Co4 O5 1.924016 1_555
Co4 O11 1.935881 1_555
Co4 O14 1.955155 1_555
O0 Ti2 1.995758 1_655
O1 Ti0 1.988876 1_555
O1 Ti1 1.988876 1_555
O2 Ti1 1.946028 1_555
O2 Ti0 1.946028 1_555
O3 Ti1 1.947720 1_655
O3 Ti0 1.947720 1_565
O4 Ti2 1.945533 1_665
O5 Ti2 1.995758 1_565
O6 Ti0 2.004020 1_555
O7 Ti1 2.004020 1_555
O8 Ti0 1.979869 1_455
O8 Ti1 1.979869 1_545
O10 Ti2 1.996501 1_555
O11 Ti2 1.996501 1_555
O12 Ti2 1.938481 1_555
O13 Ti0 1.950697 1_555
O15 Ti1 1.950697 1_555
