# generated using pymatgen
data_Rb2CaH8(N3O)4
_symmetry_space_group_name_H-M   'P 1'
_cell_length_a   11.30211090
_cell_length_b   11.30211090
_cell_length_c   6.32673700
_cell_angle_alpha   90.00000000
_cell_angle_beta   90.00000000
_cell_angle_gamma   120.41539683
_symmetry_Int_Tables_number   1
_chemical_formula_structural   Rb2CaH8(N3O)4
_chemical_formula_sum   'Rb4 Ca2 H16 N24 O8'
_cell_volume   696.94162721
_cell_formula_units_Z   2
loop_
 _symmetry_equiv_pos_site_id
 _symmetry_equiv_pos_as_xyz
  1  'x, y, z'
loop_
 _atom_site_type_symbol
 _atom_site_label
 _atom_site_symmetry_multiplicity
 _atom_site_fract_x
 _atom_site_fract_y
 _atom_site_fract_z
 _atom_site_occupancy
  Rb  Rb0  1  0.33144600  0.66855400  0.00000000  1
  Rb  Rb1  1  0.16855400  0.83144600  0.50000000  1
  Rb  Rb2  1  0.83144600  0.16855400  0.50000000  1
  Rb  Rb3  1  0.66855400  0.33144600  0.00000000  1
  Ca  Ca0  1  0.00000000  0.00000000  0.00000000  1
  Ca  Ca1  1  0.50000000  0.50000000  0.50000000  1
  H  H0  1  0.28188800  0.12389500  0.14774000  1
  H  H1  1  0.62389500  0.78188800  0.64774000  1
  H  H2  1  0.37610500  0.21811200  0.64774000  1
  H  H3  1  0.71811200  0.87610500  0.14774000  1
  H  H4  1  0.21811200  0.37610500  0.35226000  1
  H  H5  1  0.87610500  0.71811200  0.85226000  1
  H  H6  1  0.12389500  0.28188800  0.85226000  1
  H  H7  1  0.78188800  0.62389500  0.35226000  1
  H  H8  1  0.27253100  0.00166900  0.01567900  1
  H  H9  1  0.50166900  0.77253100  0.51567900  1
  H  H10  1  0.49833100  0.22746900  0.51567900  1
  H  H11  1  0.72746900  0.99833100  0.01567900  1
  H  H12  1  0.22746900  0.49833100  0.48432100  1
  H  H13  1  0.99833100  0.72746900  0.98432100  1
  H  H14  1  0.00166900  0.27253100  0.98432100  1
  H  H15  1  0.77253100  0.50166900  0.48432100  1
  N  N0  1  0.38016200  0.95580900  0.85040100  1
  N  N1  1  0.45580900  0.88016200  0.35040100  1
  N  N2  1  0.54419100  0.11983800  0.35040100  1
  N  N3  1  0.61983800  0.04419100  0.85040100  1
  N  N4  1  0.11983800  0.54419100  0.64959900  1
  N  N5  1  0.04419100  0.61983800  0.14959900  1
  N  N6  1  0.95580900  0.38016200  0.14959900  1
  N  N7  1  0.88016200  0.45580900  0.64959900  1
  N  N8  1  0.50000000  0.00000000  0.85152500  1
  N  N9  1  0.50000000  0.00000000  0.35152500  1
  N  N10  1  0.00000000  0.50000000  0.64847500  1
  N  N11  1  0.00000000  0.50000000  0.14847500  1
  N  N12  1  0.33230300  0.40287400  0.84783100  1
  N  N13  1  0.90287400  0.83230300  0.34783100  1
  N  N14  1  0.09712600  0.16769700  0.34783100  1
  N  N15  1  0.66769700  0.59712600  0.84783100  1
  N  N16  1  0.16769700  0.09712600  0.65216900  1
  N  N17  1  0.59712600  0.66769700  0.15216900  1
  N  N18  1  0.40287400  0.33230300  0.15216900  1
  N  N19  1  0.83230300  0.90287400  0.65216900  1
  N  N20  1  0.86774000  0.86774000  0.50000000  1
  N  N21  1  0.36774000  0.36774000  0.00000000  1
  N  N22  1  0.63226000  0.63226000  0.00000000  1
  N  N23  1  0.13226000  0.13226000  0.50000000  1
  O  O0  1  0.21814000  0.02732700  0.10873000  1
  O  O1  1  0.52732700  0.71814000  0.60873000  1
  O  O2  1  0.47267300  0.28186000  0.60873000  1
  O  O3  1  0.78186000  0.97267300  0.10873000  1
  O  O4  1  0.28186000  0.47267300  0.39127000  1
  O  O5  1  0.97267300  0.78186000  0.89127000  1
  O  O6  1  0.02732700  0.21814000  0.89127000  1
  O  O7  1  0.71814000  0.52732700  0.39127000  1
loop_
_geom_bond_atom_site_label_1
_geom_bond_atom_site_label_2
_geom_bond_distance
_geom_bond_site_symmetry_2
Ca0 O3 2.424048 1_445
Ca0 O5 2.424048 1_444
Ca0 O6 2.424048 1_554
Ca0 O0 2.424048 1_555
Ca0 N16 2.744713 1_554
Ca0 N14 2.744713 1_555
Ca0 N19 2.744713 1_444
Ca0 N13 2.744713 1_445
Ca1 O4 2.424048 1_555
Ca1 O2 2.424048 1_555
Ca1 O7 2.424048 1_555
Ca1 O1 2.424048 1_555
Ca1 N17 2.744713 1_555
Ca1 N15 2.744713 1_555
Ca1 N18 2.744713 1_555
Ca1 N12 2.744713 1_555
H0 O0 0.987425 1_555
H1 O1 0.987425 1_555
H2 O2 0.987425 1_555
H3 O3 0.987425 1_555
H4 O4 0.987425 1_555
H5 O5 0.987425 1_555
H6 O6 0.987425 1_555
H7 O7 0.987425 1_555
H8 O0 0.994520 1_555
H8 N0 1.865544 1_544
H9 O1 0.994520 1_555
H9 N1 1.865544 1_555
H10 O2 0.994520 1_555
H10 N2 1.865544 1_555
H11 O3 0.994520 1_555
H11 N3 1.865544 1_564
H12 O4 0.994520 1_555
H12 N4 1.865544 1_555
H13 O5 0.994520 1_555
H13 N5 1.865544 1_656
H14 O6 0.994520 1_555
H14 N6 1.865544 1_456
H15 O7 0.994520 1_555
H15 N7 1.865544 1_555
N0 N8 1.182801 1_565
N0 Rb1 3.034200 1_555
N0 Rb0 3.151087 1_556
N1 N9 1.182801 1_565
N1 Rb0 3.034200 1_555
N1 Rb1 3.151087 1_555
N2 N9 1.182801 1_555
N2 Rb3 3.034200 1_555
N2 Rb2 3.151087 1_555
N3 N8 1.182801 1_555
N3 Rb2 3.034200 1_555
N3 Rb3 3.151087 1_556
N4 Rb0 3.034200 1_556
N4 Rb1 3.151087 1_555
N5 Rb1 3.034200 1_555
N5 Rb0 3.151087 1_555
N6 Rb2 3.034200 1_555
N6 Rb3 3.151087 1_555
N7 Rb3 3.034200 1_556
N7 Rb2 3.151087 1_555
N10 N7 1.182801 1_455
N10 N4 1.182801 1_555
N11 N6 1.182801 1_455
N11 N5 1.182801 1_555
N12 N21 1.185739 1_556
N12 Rb0 3.157986 1_556
N13 N20 1.185739 1_555
N13 Rb1 3.157986 1_655
N14 N23 1.185739 1_555
N14 Rb2 3.157986 1_455
N15 N22 1.185739 1_556
N15 Rb3 3.157986 1_556
N16 N23 1.185739 1_555
N16 Rb1 3.157986 1_545
N17 N22 1.185739 1_555
N17 Rb0 3.157986 1_555
N18 N21 1.185739 1_555
N18 Rb3 3.157986 1_555
N19 N20 1.185739 1_555
N19 Rb2 3.157986 1_565
O0 Rb1 3.175996 1_545
O1 Rb0 3.175996 1_556
O2 Rb3 3.175996 1_556
O3 Rb2 3.175996 1_565
O4 Rb0 3.175996 1_555
O5 Rb1 3.175996 1_655
O6 Rb2 3.175996 1_455
O7 Rb3 3.175996 1_555
