# generated using pymatgen
data_LiMn2(PO4)2
_symmetry_space_group_name_H-M   'P 1'
_cell_length_a   6.14993288
_cell_length_b   10.17784044
_cell_length_c   4.87360753
_cell_angle_alpha   89.97607089
_cell_angle_beta   90.16731258
_cell_angle_gamma   90.02353807
_symmetry_Int_Tables_number   1
_chemical_formula_structural   LiMn2(PO4)2
_chemical_formula_sum   'Li2 Mn4 P4 O16'
_cell_volume   305.05253654
_cell_formula_units_Z   2
loop_
 _symmetry_equiv_pos_site_id
 _symmetry_equiv_pos_as_xyz
  1  'x, y, z'
loop_
 _atom_site_type_symbol
 _atom_site_label
 _atom_site_symmetry_multiplicity
 _atom_site_fract_x
 _atom_site_fract_y
 _atom_site_fract_z
 _atom_site_occupancy
  Li  Li0  1  0.25994900  0.79464200  0.74844700  1
  Li  Li1  1  0.74172300  0.29633700  0.24748800  1
  Mn  Mn0  1  0.00282600  0.51470000  0.70628300  1
  Mn  Mn1  1  0.49464200  0.08004800  0.79229300  1
  Mn  Mn2  1  0.50447900  0.57857600  0.21051200  1
  Mn  Mn3  1  0.99691800  0.01392700  0.29600400  1
  P  P0  1  0.00665500  0.69988600  0.16968400  1
  P  P1  1  0.50268000  0.39358900  0.67134600  1
  P  P2  1  0.49728300  0.89551100  0.32939700  1
  P  P3  1  0.99341600  0.19894400  0.82957800  1
  O  O0  1  0.99724200  0.34495500  0.91801600  1
  O  O1  1  0.01987500  0.68621900  0.48461700  1
  O  O2  1  0.18636200  0.12138800  0.95811300  1
  O  O3  1  0.21039600  0.63942400  0.01934200  1
  O  O4  1  0.29486800  0.96097500  0.47783000  1
  O  O5  1  0.30793200  0.47142600  0.54621500  1
  O  O6  1  0.49990500  0.24884300  0.57388800  1
  O  O7  1  0.51759900  0.40431800  0.98500000  1
  O  O8  1  0.48302200  0.90754500  0.01506400  1
  O  O9  1  0.49902500  0.75148800  0.42650600  1
  O  O10  1  0.69179800  0.97375900  0.45473000  1
  O  O11  1  0.70513700  0.45805200  0.52182900  1
  O  O12  1  0.78976000  0.13712600  0.97889100  1
  O  O13  1  0.81369200  0.62252800  0.04155400  1
  O  O14  1  0.98111500  0.18496100  0.51455000  1
  O  O15  1  0.00170100  0.84668500  0.08282300  1
loop_
_geom_bond_atom_site_label_1
_geom_bond_atom_site_label_2
_geom_bond_distance
_geom_bond_site_symmetry_2
Li0 O3 2.081303 1_556
Li0 O4 2.156618 1_555
Li0 O9 2.197972 1_555
Li0 O8 2.209177 1_556
Li0 O1 2.244919 1_555
Li0 O15 2.339904 1_556
Li1 O12 2.105006 1_554
Li1 O11 2.133353 1_555
Li1 O7 2.175766 1_554
Li1 O6 2.233467 1_555
Li1 O14 2.266158 1_555
Li1 O0 2.303474 1_554
Mn0 O0 2.012313 1_455
Mn0 O1 2.055347 1_555
Mn0 O5 2.081556 1_555
Mn0 O11 2.117121 1_455
Mn0 O13 2.289299 1_456
Mn0 O3 2.357486 1_556
Mn1 O6 2.020911 1_555
Mn1 O8 2.065216 1_546
Mn1 O2 2.105814 1_555
Mn1 O12 2.109147 1_555
Mn1 O4 2.305703 1_545
Mn1 O10 2.315416 1_545
Mn2 O9 2.051386 1_555
Mn2 O7 2.088600 1_554
Mn2 O13 2.121915 1_555
Mn2 O3 2.124423 1_555
Mn2 O11 2.306150 1_555
Mn2 O5 2.310009 1_555
Mn3 O15 1.994833 1_645
Mn3 O14 2.043630 1_555
Mn3 O10 2.072259 1_545
Mn3 O4 2.103386 1_645
Mn3 O2 2.296528 1_654
Mn3 O12 2.360525 1_554
O0 P3 1.547642 1_555
O1 P0 1.543002 1_555
O2 P3 1.555486 1_455
O3 P0 1.578578 1_555
O4 P2 1.588462 1_555
O5 P1 1.558868 1_555
O6 P1 1.548137 1_555
O7 P1 1.535042 1_555
O8 P2 1.539022 1_555
O9 P2 1.540195 1_555
O10 P2 1.560042 1_555
O11 P1 1.586171 1_555
O12 P3 1.580624 1_555
O13 P0 1.553525 1_655
O14 P3 1.543596 1_555
O15 P0 1.553027 1_555
