# generated using pymatgen
data_Li5Fe8(BO3)8
_symmetry_space_group_name_H-M   'P 1'
_cell_length_a   5.22009500
_cell_length_b   9.08148314
_cell_length_c   10.25588674
_cell_angle_alpha   89.01411516
_cell_angle_beta   89.23996784
_cell_angle_gamma   89.82965466
_symmetry_Int_Tables_number   1
_chemical_formula_structural   Li5Fe8(BO3)8
_chemical_formula_sum   'Li5 Fe8 B8 O24'
_cell_volume   486.07609179
_cell_formula_units_Z   1
loop_
 _symmetry_equiv_pos_site_id
 _symmetry_equiv_pos_as_xyz
  1  'x, y, z'
loop_
 _atom_site_type_symbol
 _atom_site_label
 _atom_site_symmetry_multiplicity
 _atom_site_fract_x
 _atom_site_fract_y
 _atom_site_fract_z
 _atom_site_occupancy
  Li  Li0  1  0.14668300  0.17007600  0.66171600  1
  Li  Li1  1  0.18704500  0.16624600  0.16992100  1
  Li  Li2  1  0.32265700  0.33489000  0.40885700  1
  Li  Li3  1  0.33704600  0.32209700  0.91523300  1
  Li  Li4  1  0.68192900  0.66786500  0.15498600  1
  Fe  Fe0  1  0.16794400  0.83008800  0.63098500  1
  Fe  Fe1  1  0.18143600  0.50323900  0.13630000  1
  Fe  Fe2  1  0.31865400  0.98725500  0.88007000  1
  Fe  Fe3  1  0.33784000  0.66671600  0.38218300  1
  Fe  Fe4  1  0.65502300  0.34751700  0.62577000  1
  Fe  Fe5  1  0.67016400  0.00546900  0.12768800  1
  Fe  Fe6  1  0.82883100  0.15111400  0.38917800  1
  Fe  Fe7  1  0.83730300  0.50506900  0.87468000  1
  B  B0  1  0.15369100  0.49755600  0.62627400  1
  B  B1  1  0.16559000  0.83890400  0.12969000  1
  B  B2  1  0.33710900  0.00020000  0.37747900  1
  B  B3  1  0.33962300  0.65755000  0.87539900  1
  B  B4  1  0.67125900  0.00144100  0.63620500  1
  B  B5  1  0.67622300  0.32942300  0.12025300  1
  B  B6  1  0.82883300  0.48874400  0.36673900  1
  B  B7  1  0.82515400  0.17507700  0.88309300  1
  O  O0  1  0.09352800  0.48351500  0.34061100  1
  O  O1  1  0.08782100  0.16985500  0.86389000  1
  O  O2  1  0.21436900  0.78133900  0.82806600  1
  O  O3  1  0.23220800  0.87659200  0.43713000  1
  O  O4  1  0.20653600  0.13332900  0.36822000  1
  O  O5  1  0.19959300  0.53101400  0.91360700  1
  O  O6  1  0.27599000  0.36387800  0.60791900  1
  O  O7  1  0.29940700  0.96804100  0.09376700  1
  O  O8  1  0.26667400  0.62833600  0.58567600  1
  O  O9  1  0.30098300  0.71278400  0.16205700  1
  O  O10  1  0.41146500  0.32258600  0.11510600  1
  O  O11  1  0.40541800  0.00130700  0.66635300  1
  O  O12  1  0.58139800  0.99553600  0.32047300  1
  O  O13  1  0.59821800  0.65569100  0.89145700  1
  O  O14  1  0.68874300  0.30450600  0.84893200  1
  O  O15  1  0.70461200  0.36356600  0.41786800  1
  O  O16  1  0.69212200  0.61349100  0.33919000  1
  O  O17  1  0.68394200  0.05866800  0.93489000  1
  O  O18  1  0.80647800  0.45761800  0.08236400  1
  O  O19  1  0.81685700  0.87692200  0.64402500  1
  O  O20  1  0.78590100  0.13456000  0.59747100  1
  O  O21  1  0.81728300  0.20549300  0.16058700  1
  O  O22  1  0.90299500  0.84225300  0.13042300  1
  O  O23  1  0.91093600  0.49979000  0.68317500  1
loop_
_geom_bond_atom_site_label_1
_geom_bond_atom_site_label_2
_geom_bond_distance
_geom_bond_site_symmetry_2
Li0 O6 1.954848 1_555
Li0 O20 2.031967 1_455
Li0 O11 2.040199 1_555
Li0 O1 2.092049 1_555
Li1 O10 1.915521 1_555
Li1 O21 1.965065 1_455
Li1 O4 2.054305 1_555
Li1 O7 2.055228 1_545
Li2 O0 1.929346 1_555
Li2 O4 1.982754 1_555
Li2 O15 2.015085 1_555
Li2 O6 2.074011 1_555
Li3 O14 1.956339 1_555
Li3 O1 1.983753 1_555
Li3 O5 2.026302 1_555
Li3 O10 2.091499 1_556
Li4 O16 1.945780 1_555
Li4 O22 1.972988 1_555
Li4 O9 2.029400 1_555
Li4 O18 2.156799 1_555
Fe0 O19 1.883725 1_455
Fe0 O8 1.963635 1_555
Fe0 O11 2.031959 1_565
Fe0 O3 2.048880 1_555
Fe0 O2 2.078870 1_555
Fe1 O9 2.027136 1_555
Fe1 O10 2.043109 1_555
Fe1 O18 2.085703 1_455
Fe1 O0 2.143686 1_555
Fe1 O5 2.294220 1_554
Fe2 O2 2.031223 1_555
Fe2 O1 2.052640 1_565
Fe2 O17 2.102635 1_565
Fe2 O7 2.196585 1_556
Fe2 O11 2.233839 1_565
Fe3 O16 1.956699 1_555
Fe3 O3 2.068059 1_555
Fe3 O8 2.137811 1_555
Fe3 O0 2.151215 1_555
Fe3 O9 2.299411 1_555
Fe4 O6 1.994325 1_555
Fe4 O23 2.025684 1_555
Fe4 O20 2.073020 1_555
Fe4 O15 2.146974 1_555
Fe4 O14 2.324076 1_555
Fe5 O22 1.914103 1_545
Fe5 O7 2.002030 1_545
Fe5 O21 2.009880 1_555
Fe5 O12 2.025314 1_545
Fe5 O17 2.027786 1_554
Fe6 O4 1.986900 1_655
Fe6 O12 2.056764 1_545
Fe6 O15 2.058297 1_555
Fe6 O20 2.147730 1_555
Fe6 O21 2.389032 1_555
Fe7 O13 1.857565 1_555
Fe7 O5 1.953820 1_655
Fe7 O23 1.997661 1_555
Fe7 O14 2.004755 1_555
Fe7 O18 2.169828 1_556
B0 O8 1.382901 1_555
B0 O6 1.384506 1_555
B0 O23 1.388311 1_455
B1 O22 1.370942 1_455
B1 O9 1.381983 1_555
B1 O7 1.407913 1_555
B2 O3 1.380350 1_545
B2 O4 1.388585 1_555
B2 O12 1.396611 1_545
B3 O13 1.362086 1_555
B3 O2 1.382833 1_555
B3 O5 1.410773 1_555
B4 O19 1.362431 1_545
B4 O20 1.399605 1_555
B4 O11 1.417734 1_555
B5 O10 1.385386 1_555
B5 O18 1.396716 1_555
B5 O21 1.402545 1_555
B6 O16 1.364580 1_555
B6 O15 1.400934 1_555
B6 O0 1.404803 1_655
B7 O1 1.383420 1_655
B7 O17 1.384953 1_555
B7 O14 1.413809 1_555
