# generated using pymatgen
data_Li2TiV3O8
_symmetry_space_group_name_H-M   'P 1'
_cell_length_a   8.35635057
_cell_length_b   8.35124814
_cell_length_c   8.35860053
_cell_angle_alpha   90.01189528
_cell_angle_beta   89.96113630
_cell_angle_gamma   89.98312971
_symmetry_Int_Tables_number   1
_chemical_formula_structural   Li2TiV3O8
_chemical_formula_sum   'Li8 Ti4 V12 O32'
_cell_volume   583.31276587
_cell_formula_units_Z   4
loop_
 _symmetry_equiv_pos_site_id
 _symmetry_equiv_pos_as_xyz
  1  'x, y, z'
loop_
 _atom_site_type_symbol
 _atom_site_label
 _atom_site_symmetry_multiplicity
 _atom_site_fract_x
 _atom_site_fract_y
 _atom_site_fract_z
 _atom_site_occupancy
  Li  Li0  1  0.99911000  0.00034600  0.00087900  1
  Li  Li1  1  0.24586700  0.24873900  0.24712100  1
  Li  Li2  1  0.25413300  0.75149100  0.74712800  1
  Li  Li3  1  0.50094200  0.99946000  0.50090000  1
  Li  Li4  1  0.49902800  0.49960700  0.99940100  1
  Li  Li5  1  0.74592400  0.25144800  0.75277000  1
  Li  Li6  1  0.75394200  0.74868600  0.25275000  1
  Li  Li7  1  0.00105000  0.50035500  0.49928000  1
  Ti  Ti0  1  0.12895300  0.87044500  0.37111300  1
  Ti  Ti1  1  0.37095200  0.12947300  0.87096700  1
  Ti  Ti2  1  0.62907800  0.62948200  0.62897800  1
  Ti  Ti3  1  0.87100600  0.37050200  0.12901400  1
  V  V0  1  0.11766500  0.12525300  0.62104100  1
  V  V1  1  0.12033200  0.38170000  0.87376900  1
  V  V2  1  0.12556400  0.62076300  0.11680300  1
  V  V3  1  0.37451100  0.37927900  0.61693400  1
  V  V4  1  0.37974800  0.61837800  0.37367900  1
  V  V5  1  0.38236700  0.87468100  0.12105800  1
  V  V6  1  0.61759900  0.37473300  0.37891900  1
  V  V7  1  0.62015200  0.11824700  0.12627900  1
  V  V8  1  0.62562100  0.87925900  0.88313700  1
  V  V9  1  0.87431200  0.12065800  0.38311100  1
  V  V10  1  0.87977300  0.88168500  0.62627300  1
  V  V11  1  0.88232400  0.62535700  0.87894000  1
  O  O0  1  0.11271700  0.11227100  0.38552700  1
  O  O1  1  0.11510200  0.88678800  0.61278400  1
  O  O2  1  0.11952600  0.61906600  0.88018700  1
  O  O3  1  0.13624900  0.13892400  0.86310900  1
  O  O4  1  0.11197400  0.38527500  0.11164500  1
  O  O5  1  0.13693400  0.36321600  0.63647000  1
  O  O6  1  0.13736400  0.63642900  0.35968800  1
  O  O7  1  0.13939100  0.86286800  0.13635200  1
  O  O8  1  0.36071800  0.13710400  0.63639400  1
  O  O9  1  0.36264100  0.36351600  0.85973400  1
  O  O10  1  0.36313400  0.63672400  0.13642900  1
  O  O11  1  0.38807300  0.61480800  0.61170900  1
  O  O12  1  0.36376900  0.86106300  0.36304300  1
  O  O13  1  0.38058700  0.38096500  0.38020400  1
  O  O14  1  0.38481200  0.11322900  0.11283500  1
  O  O15  1  0.38726100  0.88765000  0.88551700  1
  O  O16  1  0.61283100  0.38768100  0.61440900  1
  O  O17  1  0.61517600  0.61314400  0.38712400  1
  O  O18  1  0.61927600  0.88092900  0.11980300  1
  O  O19  1  0.63615100  0.36108200  0.13700800  1
  O  O20  1  0.61209600  0.11473300  0.88828900  1
  O  O21  1  0.63669600  0.13687600  0.36352600  1
  O  O22  1  0.63757400  0.86365000  0.64027900  1
  O  O23  1  0.63924500  0.63725000  0.86354900  1
  O  O24  1  0.86067200  0.36280700  0.36360000  1
  O  O25  1  0.86239100  0.13638600  0.14018500  1
  O  O26  1  0.86317600  0.86319600  0.86363100  1
  O  O27  1  0.88794100  0.88525100  0.38832400  1
  O  O28  1  0.86384100  0.63896500  0.63694500  1
  O  O29  1  0.88061400  0.11904900  0.61989300  1
  O  O30  1  0.88495900  0.38687800  0.88719700  1
  O  O31  1  0.88715400  0.61234000  0.11450900  1
loop_
_geom_bond_atom_site_label_1
_geom_bond_atom_site_label_2
_geom_bond_distance
_geom_bond_site_symmetry_2
Li0 O26 1.979959 1_544
Li0 O25 1.987131 1_555
Li0 O7 1.994016 1_645
Li0 O3 1.994558 1_654
Li1 O13 1.930299 1_555
Li1 O4 1.958523 1_555
Li1 O0 1.968444 1_555
Li1 O14 1.971191 1_555
Li2 O2 1.929969 1_555
Li2 O11 1.958035 1_555
Li2 O15 1.967373 1_555
Li2 O1 1.972035 1_555
Li3 O21 1.980376 1_565
Li3 O22 1.987159 1_555
Li3 O8 1.993461 1_565
Li3 O12 1.994885 1_555
Li4 O10 1.977262 1_556
Li4 O9 1.988843 1_555
Li4 O19 1.993943 1_556
Li4 O23 1.995791 1_555
Li5 O29 1.928729 1_555
Li5 O20 1.958798 1_555
Li5 O16 1.967326 1_555
Li5 O30 1.973211 1_555
Li6 O18 1.929346 1_555
Li6 O27 1.959754 1_555
Li6 O31 1.966680 1_555
Li6 O17 1.971543 1_555
Li7 O5 1.979273 1_555
Li7 O6 1.987414 1_555
Li7 O28 1.993873 1_455
Li7 O24 1.995940 1_455
O0 V0 1.971990 1_555
O0 V9 1.993522 1_455
O0 Ti0 2.027613 1_545
O1 V10 1.970119 1_455
O1 V0 1.992784 1_565
O1 Ti0 2.027834 1_555
O2 V2 1.978504 1_556
O2 V11 1.982858 1_455
O2 V1 1.983026 1_555
O3 Ti1 1.963969 1_555
O3 V0 2.032593 1_555
O3 V1 2.033732 1_555
O4 V2 1.970393 1_555
O4 V1 1.989707 1_554
O4 Ti3 2.022546 1_455
O5 V1 1.994188 1_555
O5 V3 1.996424 1_555
O5 V0 1.997995 1_555
O6 Ti0 1.957877 1_555
O6 V4 2.034448 1_555
O6 V2 2.036820 1_555
O7 Ti0 1.965157 1_555
O7 V2 2.031765 1_555
O7 V5 2.036747 1_555
O8 Ti1 1.963671 1_555
O8 V3 2.032326 1_555
O8 V0 2.037606 1_555
O9 Ti1 1.958038 1_555
O9 V1 2.033766 1_555
O9 V3 2.036113 1_555
O10 V4 1.993949 1_555
O10 V2 1.996587 1_555
O10 V5 1.997928 1_555
O11 V3 1.970748 1_555
O11 V4 1.991090 1_555
O11 Ti2 2.022936 1_555
O12 Ti0 1.964857 1_555
O12 V5 2.031724 1_555
O12 V4 2.033044 1_555
O13 V3 1.979401 1_555
O13 V6 1.981246 1_555
O13 V4 1.983467 1_555
O14 V7 1.970325 1_555
O14 V5 1.993483 1_545
O14 Ti1 2.029636 1_554
O15 V5 1.972189 1_556
O15 V8 1.993117 1_555
O15 Ti1 2.027758 1_565
O16 V6 1.971687 1_555
O16 V3 1.992839 1_555
O16 Ti2 2.027579 1_555
O17 V4 1.971075 1_555
O17 V6 1.992292 1_555
O17 Ti2 2.029540 1_555
O18 V8 1.978917 1_554
O18 V5 1.980418 1_555
O18 V7 1.982645 1_565
O19 Ti3 1.965221 1_555
O19 V6 2.031043 1_555
O19 V7 2.034380 1_555
O20 V8 1.970174 1_545
O20 V7 1.990658 1_556
O20 Ti1 2.024089 1_555
O21 V7 1.994009 1_555
O21 V6 1.996872 1_555
O21 V9 1.997011 1_555
O22 Ti2 1.959165 1_555
O22 V10 2.032837 1_555
O22 V8 2.036489 1_555
O23 Ti2 1.963642 1_555
O23 V8 2.030818 1_555
O23 V11 2.037804 1_555
O24 Ti3 1.963719 1_555
O24 V9 2.032017 1_555
O24 V6 2.037554 1_555
O25 Ti3 1.958751 1_555
O25 V7 2.033340 1_555
O25 V9 2.037295 1_555
O26 V10 1.994749 1_555
O26 V8 1.996138 1_555
O26 V11 1.996778 1_555
O27 V9 1.969698 1_565
O27 V10 1.990274 1_555
O27 Ti0 2.022760 1_655
O28 Ti2 1.964557 1_555
O28 V11 2.031934 1_555
O28 V10 2.033394 1_555
O29 V9 1.979951 1_555
O29 V0 1.981604 1_655
O29 V10 1.983028 1_545
O30 V1 1.970444 1_655
O30 V11 1.992923 1_555
O30 Ti3 2.029177 1_556
O31 V11 1.972488 1_554
O31 V2 1.993605 1_655
O31 Ti3 2.027839 1_555
