# generated using pymatgen
data_Fe10O11F9
_symmetry_space_group_name_H-M   'P 1'
_cell_length_a   4.74086800
_cell_length_b   4.73994438
_cell_length_c   15.35227554
_cell_angle_alpha   89.95522290
_cell_angle_beta   89.81748650
_cell_angle_gamma   86.49378346
_symmetry_Int_Tables_number   1
_chemical_formula_structural   Fe10O11F9
_chemical_formula_sum   'Fe10 O11 F9'
_cell_volume   344.34033601
_cell_formula_units_Z   1
loop_
 _symmetry_equiv_pos_site_id
 _symmetry_equiv_pos_as_xyz
  1  'x, y, z'
loop_
 _atom_site_type_symbol
 _atom_site_label
 _atom_site_symmetry_multiplicity
 _atom_site_fract_x
 _atom_site_fract_y
 _atom_site_fract_z
 _atom_site_occupancy
  Fe  Fe0  1  0.98707000  0.99352900  0.99837600  1
  Fe  Fe1  1  0.99304800  0.98900100  0.20422100  1
  Fe  Fe2  1  0.95124400  0.00662800  0.39904200  1
  Fe  Fe3  1  0.98996700  0.98989900  0.59292400  1
  Fe  Fe4  1  0.01777800  0.95860600  0.80462000  1
  Fe  Fe5  1  0.49234600  0.49351100  0.10067500  1
  Fe  Fe6  1  0.53401700  0.51510000  0.50416300  1
  Fe  Fe7  1  0.53008600  0.51776000  0.29479600  1
  Fe  Fe8  1  0.48232900  0.49858300  0.69458600  1
  Fe  Fe9  1  0.52009800  0.53397800  0.90658500  1
  O  O0  1  0.80327800  0.81614700  0.29737100  1
  O  O1  1  0.80257700  0.81379300  0.49828900  1
  O  O2  1  0.81650800  0.80738700  0.90169100  1
  O  O3  1  0.30301300  0.69672100  0.00661000  1
  O  O4  1  0.30293000  0.69115800  0.19448300  1
  O  O5  1  0.29901900  0.69798800  0.59973000  1
  O  O6  1  0.32301300  0.67990800  0.80101500  1
  O  O7  1  0.69234700  0.30582900  0.00504100  1
  O  O8  1  0.69317600  0.30211000  0.19296900  1
  O  O9  1  0.68434800  0.32673500  0.39772000  1
  O  O10  1  0.69927200  0.29903000  0.60432400  1
  F  F0  1  0.80388700  0.80511300  0.10034900  1
  F  F1  1  0.81066200  0.79612000  0.70329100  1
  F  F2  1  0.29512100  0.71479600  0.39649200  1
  F  F3  1  0.71300300  0.28977200  0.80135900  1
  F  F4  1  0.18453300  0.18599200  0.10019200  1
  F  F5  1  0.19168300  0.20041100  0.49613500  1
  F  F6  1  0.19216200  0.19970400  0.29897400  1
  F  F7  1  0.20079700  0.19270500  0.90006200  1
  F  F8  1  0.19069000  0.18198600  0.70391600  1
loop_
_geom_bond_atom_site_label_1
_geom_bond_atom_site_label_2
_geom_bond_distance
_geom_bond_site_symmetry_2
Fe0 O2 1.931973 1_555
Fe0 O7 1.974928 1_566
Fe0 O3 1.995479 1_656
Fe1 O0 1.898924 1_555
Fe1 O4 1.979633 1_655
Fe1 O8 1.999161 1_565
Fe2 O9 1.915438 1_555
Fe2 O1 1.929649 1_545
Fe2 O0 1.957103 1_545
Fe3 O1 1.922927 1_555
Fe3 O5 1.955736 1_655
Fe3 O10 1.956729 1_565
Fe4 O6 1.899464 1_555
Fe4 O2 1.928224 1_455
Fe5 O8 1.907402 1_555
Fe5 O4 1.910264 1_555
Fe5 O3 1.928535 1_555
Fe5 O7 1.932885 1_555
Fe6 O1 1.962956 1_555
Fe6 O9 1.972955 1_555
Fe6 O10 1.983505 1_555
Fe6 O5 2.004675 1_555
Fe7 O9 1.943088 1_555
Fe7 O0 1.975814 1_555
Fe7 O8 1.996149 1_555
Fe7 O4 2.026645 1_555
Fe8 O5 1.916954 1_555
Fe8 O10 1.935639 1_555
Fe8 O6 1.973275 1_555
Fe9 O2 1.970213 1_555
Fe9 O3 1.976619 1_556
Fe9 O6 1.976641 1_555
Fe9 O7 2.004571 1_556
F0 Fe0 2.021548 1_554
F0 Fe1 2.052758 1_555
F0 Fe5 2.151674 1_555
F1 Fe4 2.020249 1_655
F1 Fe3 2.126283 1_555
F1 Fe8 2.167928 1_555
F2 Fe2 2.072826 1_465
F2 Fe7 2.101095 1_555
F2 Fe6 2.188476 1_555
F3 Fe4 2.068126 1_645
F3 Fe9 2.156380 1_555
F3 Fe8 2.176938 1_555
F4 Fe0 2.065892 1_444
F4 Fe1 2.082963 1_445
F4 Fe5 2.124744 1_555
F5 Fe3 2.055115 1_445
F5 Fe2 2.122720 1_455
F5 Fe6 2.274148 1_555
F6 Fe1 2.032471 1_445
F6 Fe2 2.148644 1_455
F6 Fe7 2.266728 1_555
F7 Fe4 2.063847 1_545
F7 Fe0 2.073915 1_445
F7 Fe9 2.284494 1_555
F8 Fe4 2.068533 1_545
F8 Fe8 2.106253 1_555
F8 Fe3 2.181009 1_445
