# generated using pymatgen
data_Rb2Be2O3
_symmetry_space_group_name_H-M   'P 1'
_cell_length_a   8.64228189
_cell_length_b   4.95254820
_cell_length_c   6.49503798
_cell_angle_alpha   65.00356550
_cell_angle_beta   90.00000000
_cell_angle_gamma   90.00000000
_symmetry_Int_Tables_number   1
_chemical_formula_structural   Rb2Be2O3
_chemical_formula_sum   'Rb4 Be4 O6'
_cell_volume   251.95741663
_cell_formula_units_Z   2
loop_
 _symmetry_equiv_pos_site_id
 _symmetry_equiv_pos_as_xyz
  1  'x, y, z'
loop_
 _atom_site_type_symbol
 _atom_site_label
 _atom_site_symmetry_multiplicity
 _atom_site_fract_x
 _atom_site_fract_y
 _atom_site_fract_z
 _atom_site_occupancy
  Rb  Rb0  1  0.34765230  0.77844718  0.92872855  1
  Rb  Rb1  1  0.15234770  0.77844718  0.42872855  1
  Rb  Rb2  1  0.84765230  0.22155282  0.57127145  1
  Rb  Rb3  1  0.65234770  0.22155282  0.07127145  1
  Be  Be0  1  0.50817806  0.69710632  0.50361193  1
  Be  Be1  1  0.00817806  0.30289368  0.99638807  1
  Be  Be2  1  0.99182194  0.69710632  0.00361193  1
  Be  Be3  1  0.49182194  0.30289368  0.49638807  1
  O  O0  1  0.50000000  -0.00000000  0.50000000  1
  O  O1  1  0.00000000  -0.00000000  0.00000000  1
  O  O2  1  0.94877154  0.60553183  0.80636357  1
  O  O3  1  0.44877154  0.39446817  0.69363643  1
  O  O4  1  0.55122846  0.60553183  0.30636357  1
  O  O5  1  0.05122846  0.39446817  0.19363643  1
loop_
_geom_bond_atom_site_label_1
_geom_bond_atom_site_label_2
_geom_bond_distance
_geom_bond_site_symmetry_2
Be0 O0 1.492009 1_565
Be0 O3 1.571621 1_555
Be0 O4 1.573678 1_555
Be0 Rb1 3.112880 1_555
Be1 O1 1.492009 1_556
Be1 O2 1.571621 1_455
Be1 O5 1.573678 1_556
Be1 Rb3 3.112880 1_456
Be2 O1 1.492009 1_665
Be2 O5 1.571621 1_655
Be2 O2 1.573678 1_554
Be2 Rb0 3.112880 1_654
Be3 O0 1.492009 1_555
Be3 O4 1.571621 1_555
Be3 O3 1.573678 1_555
Be3 Rb2 3.112880 1_555
O0 Rb0 2.847687 1_545
O0 Rb3 2.847687 1_555
O0 Rb1 3.297664 1_545
O0 Rb2 3.297664 1_555
O1 Rb2 2.847687 1_454
O1 Rb1 2.847687 1_545
O1 Rb3 3.297664 1_455
O1 Rb0 3.297664 1_544
O2 Rb1 2.840700 1_655
O2 Rb2 2.909650 1_565
O2 Rb2 3.027474 1_555
O2 Rb3 3.220909 1_556
O3 Rb3 2.840700 1_556
O3 Rb0 2.909650 1_545
O3 Rb0 3.027474 1_555
O3 Rb1 3.220909 1_555
O4 Rb0 2.840700 1_554
O4 Rb3 2.909650 1_565
O4 Rb3 3.027474 1_555
O4 Rb2 3.220909 1_555
O5 Rb2 2.840700 1_455
O5 Rb1 2.909650 1_545
O5 Rb1 3.027474 1_555
O5 Rb0 3.220909 1_554
