# generated using pymatgen
data_Li3SbS4
_symmetry_space_group_name_H-M   'P 1'
_cell_length_a   7.50807800
_cell_length_b   6.37415200
_cell_length_c   6.46716083
_cell_angle_alpha   70.78091256
_cell_angle_beta   90.00000000
_cell_angle_gamma   90.00000000
_symmetry_Int_Tables_number   1
_chemical_formula_structural   Li3SbS4
_chemical_formula_sum   'Li6 Sb2 S8'
_cell_volume   292.25338800
_cell_formula_units_Z   2
loop_
 _symmetry_equiv_pos_site_id
 _symmetry_equiv_pos_as_xyz
  1  'x, y, z'
loop_
 _atom_site_type_symbol
 _atom_site_label
 _atom_site_symmetry_multiplicity
 _atom_site_fract_x
 _atom_site_fract_y
 _atom_site_fract_z
 _atom_site_occupancy
  Li  Li0  1  0.61302600  0.25000000  0.00000000  1
  Li  Li1  1  0.38697400  0.75000000  0.00000000  1
  Li  Li2  1  0.40135000  0.25000000  0.50000000  1
  Li  Li3  1  0.85738100  0.25000000  0.50000000  1
  Li  Li4  1  0.59865000  0.75000000  0.50000000  1
  Li  Li5  1  0.14261900  0.75000000  0.50000000  1
  Sb  Sb0  1  0.13727200  0.25000000  0.00000000  1
  Sb  Sb1  1  0.86272800  0.75000000  0.00000000  1
  S  S0  1  0.36407700  0.02168900  0.25105600  1
  S  S1  1  0.10972700  0.49986600  0.23541700  1
  S  S2  1  0.63592300  0.52168900  0.25105600  1
  S  S3  1  0.89027300  0.99986600  0.23541700  1
  S  S4  1  0.10972700  0.00013400  0.76458300  1
  S  S5  1  0.36407700  0.47831100  0.74894400  1
  S  S6  1  0.89027300  0.50013400  0.76458300  1
  S  S7  1  0.63592300  0.97831100  0.74894400  1
loop_
_geom_bond_atom_site_label_1
_geom_bond_atom_site_label_2
_geom_bond_distance
_geom_bond_site_symmetry_2
Li0 S5 2.586899 1_554
Li0 S0 2.586899 1_555
Li0 S7 2.741521 1_544
Li0 S2 2.741521 1_555
Li0 S3 2.755890 1_545
Li0 S6 2.755890 1_554
Li1 S7 2.586899 1_554
Li1 S2 2.586899 1_555
Li1 S5 2.741521 1_554
Li1 S0 2.741521 1_565
Li1 S1 2.755890 1_555
Li1 S4 2.755890 1_564
Li2 S0 2.516083 1_555
Li2 S5 2.516083 1_555
Li2 S2 2.618639 1_555
Li2 S7 2.618639 1_545
Li2 S1 2.909355 1_555
Li2 S4 2.909355 1_555
Li3 S2 2.553453 1_555
Li3 S7 2.553453 1_545
Li3 S1 2.694429 1_655
Li3 S4 2.694429 1_655
Li3 S6 2.706855 1_555
Li3 S3 2.706855 1_545
Li4 S2 2.516083 1_555
Li4 S7 2.516083 1_555
Li4 S5 2.618639 1_555
Li4 S0 2.618639 1_565
Li4 S6 2.909355 1_555
Li4 S3 2.909355 1_555
Li5 S5 2.553453 1_555
Li5 S0 2.553453 1_565
Li5 S6 2.694429 1_455
Li5 S3 2.694429 1_455
Li5 S1 2.706855 1_555
Li5 S4 2.706855 1_565
S0 Sb0 2.469447 1_555
S1 Sb0 2.548288 1_555
S1 Sb1 2.588634 1_455
S2 Sb1 2.469447 1_555
S3 Sb1 2.548288 1_555
S3 Sb0 2.588634 1_665
S4 Sb0 2.548288 1_556
S4 Sb1 2.588634 1_446
S5 Sb0 2.469447 1_556
S6 Sb1 2.548288 1_556
S6 Sb0 2.588634 1_656
S7 Sb1 2.469447 1_556
