# generated using pymatgen
data_Al2Si2H4O9
_symmetry_space_group_name_H-M   'P 1'
_cell_length_a   5.28407758
_cell_length_b   5.28407758
_cell_length_c   18.50374386
_cell_angle_alpha   85.66232719
_cell_angle_beta   85.66232719
_cell_angle_gamma   61.89594118
_symmetry_Int_Tables_number   1
_chemical_formula_structural   Al2Si2H4O9
_chemical_formula_sum   'Al4 Si4 H8 O18'
_cell_volume   453.95955190
_cell_formula_units_Z   2
loop_
 _symmetry_equiv_pos_site_id
 _symmetry_equiv_pos_as_xyz
  1  'x, y, z'
loop_
 _atom_site_type_symbol
 _atom_site_label
 _atom_site_symmetry_multiplicity
 _atom_site_fract_x
 _atom_site_fract_y
 _atom_site_fract_z
 _atom_site_occupancy
  Al  Al0  1  0.15596800  0.46134200  0.25503200  1
  Al  Al1  1  0.46134200  0.15596800  0.75503200  1
  Al  Al2  1  0.93612700  0.05837500  0.31468100  1
  Al  Al3  1  0.05837500  0.93612700  0.81468100  1
  Si  Si0  1  0.90045400  0.22702700  0.48369600  1
  Si  Si1  1  0.22702700  0.90045400  0.98369600  1
  Si  Si2  1  0.25717000  0.58446600  0.48655300  1
  Si  Si3  1  0.58446600  0.25717000  0.98655300  1
  H  H0  1  0.51937600  0.53902400  0.38565700  1
  H  H1  1  0.53902400  0.51937600  0.88565700  1
  H  H2  1  0.59530000  0.81959100  0.13204700  1
  H  H3  1  0.81959100  0.59530000  0.63204700  1
  H  H4  1  0.95002700  0.50714400  0.09625100  1
  H  H5  1  0.50714400  0.95002700  0.59625100  1
  H  H6  1  0.47090100  0.92425700  0.15504000  1
  H  H7  1  0.92425700  0.47090100  0.65504000  1
  O  O0  1  0.57415500  0.40283700  0.52200600  1
  O  O1  1  0.40283700  0.57415500  0.02200600  1
  O  O2  1  0.05859800  0.89938600  0.52138300  1
  O  O3  1  0.89938600  0.05859800  0.02138300  1
  O  O4  1  0.08988500  0.39145800  0.49598800  1
  O  O5  1  0.39145800  0.08988500  0.99598800  1
  O  O6  1  0.85429200  0.22446500  0.39793200  1
  O  O7  1  0.22446500  0.85429200  0.89793200  1
  O  O8  1  0.31431800  0.66040900  0.40002900  1
  O  O9  1  0.66040900  0.31431800  0.90002900  1
  O  O10  1  0.49525800  0.42970200  0.20742200  1
  O  O11  1  0.42970200  0.49525800  0.70742200  1
  O  O12  1  0.54253100  0.33175900  0.27900000  1
  O  O13  1  0.33175900  0.54253100  0.77900000  1
  O  O14  1  0.90512700  0.76589100  0.29223300  1
  O  O15  1  0.76589100  0.90512700  0.79223300  1
  O  O16  1  0.12669200  0.16008700  0.25085100  1
  O  O17  1  0.16008700  0.12669200  0.75085100  1
loop_
_geom_bond_atom_site_label_1
_geom_bond_atom_site_label_2
_geom_bond_distance
_geom_bond_site_symmetry_2
Al0 O16 1.678203 1_555
Al0 O14 1.685331 1_455
Al0 O10 1.875971 1_555
Al0 O12 1.900327 1_555
Al1 O17 1.678203 1_555
Al1 O15 1.685331 1_545
Al1 O11 1.875971 1_555
Al1 O13 1.900327 1_555
Al2 O16 1.712240 1_655
Al2 O14 1.712858 1_545
Al2 O6 1.753973 1_555
Al2 O12 2.020168 1_555
Al3 O17 1.712240 1_565
Al3 O15 1.712858 1_455
Al3 O7 1.753973 1_555
Al3 O13 2.020168 1_555
H0 O8 0.991775 1_555
H1 O9 0.991775 1_555
H2 H6 0.754820 1_555
H3 H7 0.754820 1_555
O0 Si2 1.647248 1_555
O0 Si0 1.656502 1_555
O1 Si3 1.647248 1_554
O1 Si1 1.656502 1_554
O2 Si2 1.643267 1_555
O2 Si0 1.650580 1_465
O3 Si3 1.643267 1_554
O3 Si1 1.650580 1_644
O4 Si2 1.628206 1_555
O4 Si0 1.640831 1_455
O5 Si3 1.628206 1_555
O5 Si1 1.640831 1_545
O6 Si0 1.625738 1_555
O7 Si1 1.625738 1_555
O8 Si2 1.661123 1_555
O9 Si3 1.661123 1_555
O10 O12 1.381665 1_555
O11 O13 1.381665 1_555
