# generated using pymatgen
data_Mn12O5F19
_symmetry_space_group_name_H-M   'P 1'
_cell_length_a   4.87664600
_cell_length_b   5.84058767
_cell_length_c   15.90876608
_cell_angle_alpha   89.48107224
_cell_angle_beta   89.96178424
_cell_angle_gamma   87.50433870
_symmetry_Int_Tables_number   1
_chemical_formula_structural   Mn12O5F19
_chemical_formula_sum   'Mn12 O5 F19'
_cell_volume   452.67272865
_cell_formula_units_Z   1
loop_
 _symmetry_equiv_pos_site_id
 _symmetry_equiv_pos_as_xyz
  1  'x, y, z'
loop_
 _atom_site_type_symbol
 _atom_site_label
 _atom_site_symmetry_multiplicity
 _atom_site_fract_x
 _atom_site_fract_y
 _atom_site_fract_z
 _atom_site_occupancy
  Mn  Mn0  1  0.98386500  0.16728400  0.41514800  1
  Mn  Mn1  1  0.01833400  0.83802100  0.23820000  1
  Mn  Mn2  1  0.99535500  0.16262600  0.07880700  1
  Mn  Mn3  1  0.04916200  0.19578800  0.75645500  1
  Mn  Mn4  1  0.01114200  0.81785700  0.59110800  1
  Mn  Mn5  1  0.98805900  0.83779300  0.91529000  1
  Mn  Mn6  1  0.49104200  0.34227800  0.58649300  1
  Mn  Mn7  1  0.50815500  0.35400100  0.92005600  1
  Mn  Mn8  1  0.51164200  0.33123300  0.25652100  1
  Mn  Mn9  1  0.48887700  0.65497500  0.08414800  1
  Mn  Mn10  1  0.51630400  0.65002200  0.41322900  1
  Mn  Mn11  1  0.48596300  0.63896300  0.74888000  1
  O  O0  1  0.22305200  0.88522400  0.12975600  1
  O  O1  1  0.28547300  0.59317300  0.64696600  1
  O  O2  1  0.30598300  0.40552200  0.81335400  1
  O  O3  1  0.70854000  0.39175200  0.02731100  1
  O  O4  1  0.71678600  0.39836800  0.36662200  1
  F  F0  1  0.21987400  0.11057800  0.30545700  1
  F  F1  1  0.23102900  0.09727800  0.63875800  1
  F  F2  1  0.21991600  0.12157600  0.96920900  1
  F  F3  1  0.24022900  0.88227000  0.46837500  1
  F  F4  1  0.23630100  0.89816800  0.80862100  1
  F  F5  1  0.25911100  0.39051900  0.14454400  1
  F  F6  1  0.26868500  0.62011500  0.30910200  1
  F  F7  1  0.26249100  0.39185400  0.47574700  1
  F  F8  1  0.26606300  0.61127500  0.97440800  1
  F  F9  1  0.71954800  0.61630900  0.19255300  1
  F  F10  1  0.73233400  0.61397500  0.52495700  1
  F  F11  1  0.72627400  0.62367600  0.85293400  1
  F  F12  1  0.75497000  0.37133300  0.68833200  1
  F  F13  1  0.77291600  0.11505600  0.18864500  1
  F  F14  1  0.76575300  0.10471200  0.53141900  1
  F  F15  1  0.77243100  0.88816300  0.35282400  1
  F  F16  1  0.74589500  0.88889700  0.02469500  1
  F  F17  1  0.77096800  0.12880600  0.86192600  1
  F  F18  1  0.74748000  0.86055600  0.69914800  1
loop_
_geom_bond_atom_site_label_1
_geom_bond_atom_site_label_2
_geom_bond_distance
_geom_bond_site_symmetry_2
Mn0 O4 1.985780 1_555
Mn1 O0 2.015463 1_555
Mn2 O3 2.058403 1_555
Mn2 O0 2.082236 1_645
Mn3 O2 2.010895 1_555
Mn4 O1 2.032015 1_555
Mn6 O1 1.993530 1_555
Mn7 O2 1.977683 1_555
Mn7 O3 1.985647 1_556
Mn8 O4 2.066765 1_555
Mn9 O0 1.969769 1_555
Mn9 O3 2.051608 1_555
Mn10 O4 1.886686 1_555
Mn11 O1 1.920650 1_555
Mn11 O2 1.938827 1_555
F0 Mn8 2.105115 1_555
F0 Mn0 2.110479 1_455
F0 Mn1 2.193959 1_545
F1 Mn6 2.117027 1_555
F1 Mn4 2.136296 1_545
F1 Mn3 2.143927 1_555
F2 Mn2 2.068557 1_456
F2 Mn7 2.139059 1_555
F2 Mn5 2.225234 1_445
F3 Mn10 2.069584 1_555
F3 Mn0 2.201299 1_465
F3 Mn4 2.285252 1_555
F4 Mn3 2.092825 1_565
F4 Mn5 2.119712 1_455
F4 Mn11 2.131087 1_555
F5 Mn9 2.164903 1_555
F5 Mn2 2.166992 1_455
F5 Mn8 2.182788 1_555
F6 Mn1 2.055021 1_555
F6 Mn10 2.063750 1_555
F6 Mn8 2.190992 1_555
F7 Mn6 2.096525 1_555
F7 Mn0 2.162369 1_455
F7 Mn10 2.220042 1_555
F8 Mn7 2.065684 1_555
F8 Mn5 2.072634 1_455
F8 Mn9 2.080500 1_556
F9 Mn9 2.064951 1_555
F9 Mn1 2.123679 1_655
F9 Mn8 2.225036 1_555
F10 Mn10 2.071217 1_555
F10 Mn4 2.130666 1_655
F10 Mn6 2.234743 1_555
F11 Mn11 2.027905 1_555
F11 Mn5 2.083504 1_555
F11 Mn7 2.205999 1_555
F12 Mn3 2.034172 1_655
F12 Mn6 2.082545 1_555
F12 Mn11 2.222417 1_555
F13 Mn8 2.065520 1_555
F13 Mn2 2.078984 1_555
F13 Mn1 2.116947 1_645
F14 Mn6 2.084746 1_555
F14 Mn0 2.169193 1_555
F14 Mn4 2.222341 1_645
F15 Mn10 2.131573 1_555
F15 Mn1 2.196639 1_655
F15 Mn0 2.209274 1_565
F16 Mn9 2.110999 1_555
F16 Mn5 2.118734 1_554
F16 Mn2 2.229951 1_565
F17 Mn7 2.025195 1_555
F17 Mn5 2.132794 1_545
F17 Mn3 2.200056 1_655
F18 Mn11 2.012785 1_555
F18 Mn4 2.155585 1_655
