# generated using pymatgen
data_Hf2N2O
_symmetry_space_group_name_H-M   'P 1'
_cell_length_a   8.62879212
_cell_length_b   8.67081468
_cell_length_c   8.69200495
_cell_angle_alpha   109.47367735
_cell_angle_beta   109.31979384
_cell_angle_gamma   109.30375864
_symmetry_Int_Tables_number   1
_chemical_formula_structural   Hf2N2O
_chemical_formula_sum   'Hf16 N16 O8'
_cell_volume   502.56425518
_cell_formula_units_Z   8
loop_
 _symmetry_equiv_pos_site_id
 _symmetry_equiv_pos_as_xyz
  1  'x, y, z'
loop_
 _atom_site_type_symbol
 _atom_site_label
 _atom_site_symmetry_multiplicity
 _atom_site_fract_x
 _atom_site_fract_y
 _atom_site_fract_z
 _atom_site_occupancy
  Hf  Hf0  1  0.98995031  0.00122417  0.49162885  1
  Hf  Hf1  1  0.25179485  0.70766169  0.46511895  1
  Hf  Hf2  1  0.29115918  0.04021142  0.25061971  1
  Hf  Hf3  1  0.77659992  0.52748685  0.24939228  1
  Hf  Hf4  1  0.74220058  0.78752298  0.03273247  1
  Hf  Hf5  1  0.03254576  0.25920075  0.28579171  1
  Hf  Hf6  1  0.46993153  0.74807481  0.21489981  1
  Hf  Hf7  1  0.49020765  0.49184088  0.48983851  1
  Hf  Hf8  1  0.50134948  0.00024530  0.01092844  1
  Hf  Hf9  1  0.00500888  0.49169525  0.99571832  1
  Hf  Hf10  1  0.96735689  0.74173102  0.71451778  1
  Hf  Hf11  1  0.54159481  0.25279822  0.78494906  1
  Hf  Hf12  1  0.25608412  0.21461162  0.97287642  1
  Hf  Hf13  1  0.71375297  0.96874673  0.74969865  1
  Hf  Hf14  1  0.21174393  0.46582966  0.75067105  1
  Hf  Hf15  1  0.74797452  0.28547687  0.53496785  1
  N  N0  1  0.73379187  0.76269689  0.27222272  1
  N  N1  1  0.98873173  0.46343003  0.23071506  1
  N  N2  1  0.53346943  0.27509935  0.04029575  1
  N  N3  1  0.54294854  0.03221560  0.27180229  1
  N  N4  1  0.51190540  0.74416533  0.46972278  1
  N  N5  1  0.22511469  0.95489550  0.96432299  1
  N  N6  1  0.26025976  0.27192913  0.22849672  1
  N  N7  1  0.73068970  0.49291432  0.45659150  1
  N  N8  1  0.48504358  0.26314307  0.53818961  1
  N  N9  1  0.77362696  0.22710399  0.76821484  1
  N  N10  1  0.77497472  0.04222527  0.03078122  1
  N  N11  1  0.46810643  0.72613222  0.95120326  1
  N  N12  1  0.23842014  0.46426667  0.01133528  1
  N  N13  1  0.01214177  0.54624695  0.77517574  1
  N  N14  1  0.27369495  0.51650677  0.54862121  1
  N  N15  1  0.95461039  0.22207871  0.48797461  1
  O  O0  1  0.96000770  0.00573864  0.72929227  1
  O  O1  1  0.45083433  0.96723768  0.72452458  1
  O  O2  1  0.05851966  0.78523132  0.52438345  1
  O  O3  1  0.03922590  0.98534780  0.26770587  1
  O  O4  1  0.22115620  0.77330942  0.23544991  1
  O  O5  1  0.74907733  0.73039752  0.77722109  1
  O  O6  1  0.75827338  0.53597703  0.97776627  1
  O  O7  1  0.26612503  0.22735354  0.72363409  1
loop_
_geom_bond_atom_site_label_1
_geom_bond_atom_site_label_2
_geom_bond_distance
_geom_bond_site_symmetry_2
Hf0 N15 2.044850 1_555
Hf0 N0 2.087738 1_545
Hf0 O3 2.096571 1_645
Hf0 O0 2.154444 1_555
Hf0 O7 2.164411 1_655
Hf0 O2 2.217050 1_645
Hf1 N14 2.056240 1_555
Hf1 O2 2.139654 1_555
Hf1 O1 2.144227 1_555
Hf1 N4 2.145166 1_555
Hf1 N1 2.161758 1_455
Hf1 O4 2.210651 1_555
Hf2 O3 2.133334 1_545
Hf2 O4 2.134866 1_545
Hf2 N3 2.145338 1_555
Hf2 N5 2.149444 1_544
Hf2 N8 2.157920 1_555
Hf2 N6 2.173184 1_555
Hf3 N7 2.060060 1_555
Hf3 N2 2.069624 1_555
Hf3 N1 2.119917 1_555
Hf3 N0 2.147548 1_555
Hf3 O6 2.341189 1_554
Hf3 O2 2.371081 1_655
Hf4 N11 2.046061 1_554
Hf4 O6 2.133958 1_554
Hf4 O5 2.134117 1_554
Hf4 N10 2.138422 1_565
Hf4 N0 2.184778 1_555
Hf4 O3 2.230780 1_655
Hf5 N1 2.096681 1_455
Hf5 N10 2.141873 1_455
Hf5 N15 2.158758 1_455
Hf5 N6 2.159111 1_555
Hf5 N14 2.216606 1_555
Hf5 O3 2.348196 1_545
Hf6 N0 2.112945 1_555
Hf6 N4 2.136722 1_555
Hf6 N3 2.160235 1_565
Hf6 N12 2.164491 1_555
Hf6 N11 2.230095 1_554
Hf6 O4 2.286044 1_555
Hf7 N6 2.088347 1_555
Hf7 N14 2.149433 1_555
Hf7 N8 2.149539 1_555
Hf7 N7 2.185250 1_555
Hf7 N4 2.204142 1_555
Hf7 O5 2.305646 1_555
Hf8 N3 2.079393 1_555
Hf8 N11 2.151492 1_544
Hf8 N5 2.152988 1_544
Hf8 N10 2.203901 1_555
Hf8 N2 2.220930 1_555
Hf8 O1 2.278952 1_544
Hf9 N12 2.070925 1_556
Hf9 N9 2.119988 1_455
Hf9 N13 2.136734 1_555
Hf9 N1 2.180097 1_456
Hf9 O4 2.192712 1_556
Hf9 O6 2.250585 1_455
Hf10 N13 2.048040 1_655
Hf10 O5 2.108745 1_555
Hf10 N5 2.118588 1_655
Hf10 O2 2.138209 1_655
Hf10 N7 2.164221 1_555
Hf10 O0 2.272912 1_565
Hf11 N8 2.076334 1_555
Hf11 O6 2.116868 1_555
Hf11 N9 2.132001 1_555
Hf11 O1 2.144453 1_545
Hf11 O7 2.172409 1_555
Hf11 N2 2.189555 1_556
Hf12 N6 2.093769 1_556
Hf12 N2 2.093884 1_556
Hf12 N12 2.142507 1_556
Hf12 N5 2.150714 1_545
Hf12 O7 2.233948 1_555
Hf12 O0 2.257168 1_455
Hf13 N9 2.061692 1_565
Hf13 O0 2.118057 1_565
Hf13 N10 2.130656 1_566
Hf13 N4 2.130994 1_555
Hf13 O1 2.201116 1_555
Hf13 O5 2.262562 1_555
Hf14 N13 2.106110 1_555
Hf14 N14 2.131564 1_555
Hf14 N11 2.133174 1_555
Hf14 N12 2.205446 1_556
Hf14 N15 2.221098 1_455
Hf14 O7 2.222975 1_555
Hf15 N3 2.142218 1_555
Hf15 N15 2.151372 1_555
Hf15 N7 2.156063 1_555
Hf15 N9 2.208341 1_555
Hf15 N8 2.222793 1_555
Hf15 N13 2.227854 1_655
