# generated using pymatgen
data_Li4TiMn3O8
_symmetry_space_group_name_H-M   'P 1'
_cell_length_a   5.96131300
_cell_length_b   6.07887458
_cell_length_c   14.81995044
_cell_angle_alpha   87.83523516
_cell_angle_beta   88.17908501
_cell_angle_gamma   60.84435395
_symmetry_Int_Tables_number   1
_chemical_formula_structural   Li4TiMn3O8
_chemical_formula_sum   'Li12 Ti3 Mn9 O24'
_cell_volume   468.61265187
_cell_formula_units_Z   3
loop_
 _symmetry_equiv_pos_site_id
 _symmetry_equiv_pos_as_xyz
  1  'x, y, z'
loop_
 _atom_site_type_symbol
 _atom_site_label
 _atom_site_symmetry_multiplicity
 _atom_site_fract_x
 _atom_site_fract_y
 _atom_site_fract_z
 _atom_site_occupancy
  Li  Li0  1  0.99395800  0.49421400  0.49727300  1
  Li  Li1  1  0.83216200  0.81497500  0.33125000  1
  Li  Li2  1  0.99744000  0.99978700  0.49800300  1
  Li  Li3  1  0.83051100  0.33155300  0.33295600  1
  Li  Li4  1  0.66643300  0.66393500  0.16653200  1
  Li  Li5  1  0.67459100  0.16930800  0.17094000  1
  Li  Li6  1  0.33432500  0.83323300  0.83277600  1
  Li  Li7  1  0.50054700  0.50401300  0.99634100  1
  Li  Li8  1  0.49753000  0.00462500  0.00000200  1
  Li  Li9  1  0.33344700  0.33629000  0.83410900  1
  Li  Li10  1  0.17242900  0.66071000  0.66676500  1
  Li  Li11  1  0.16897800  0.16252000  0.67117300  1
  Ti  Ti0  1  0.68551900  0.65318800  0.66509500  1
  Ti  Ti1  1  0.98486600  0.01006400  0.00130500  1
  Ti  Ti2  1  0.33137600  0.33501500  0.33374000  1
  Mn  Mn0  1  0.83347400  0.83295800  0.83334000  1
  Mn  Mn1  1  0.49748700  0.99678100  0.50116700  1
  Mn  Mn2  1  0.16832800  0.66986900  0.16513500  1
  Mn  Mn3  1  0.83420300  0.33269000  0.83333300  1
  Mn  Mn4  1  0.68124300  0.15528900  0.66635700  1
  Mn  Mn5  1  0.32927400  0.83557600  0.33319700  1
  Mn  Mn6  1  0.49947900  0.49501000  0.50082200  1
  Mn  Mn7  1  0.16538100  0.17352900  0.16585600  1
  Mn  Mn8  1  0.98797700  0.50903300  0.00025600  1
  O  O0  1  0.82542100  0.87251400  0.08039900  1
  O  O1  1  0.84272700  0.79242500  0.58566600  1
  O  O2  1  0.98284700  0.49077600  0.74882100  1
  O  O3  1  0.83477300  0.33509700  0.07270200  1
  O  O4  1  0.68675400  0.66338200  0.92369100  1
  O  O5  1  0.52151400  0.97261800  0.73423000  1
  O  O6  1  0.98225500  0.00086900  0.74308300  1
  O  O7  1  0.83424900  0.32988600  0.59408800  1
  O  O8  1  0.62467600  0.67367900  0.41528600  1
  O  O9  1  0.68620600  0.17373000  0.91814200  1
  O  O10  1  0.37385000  0.77602600  0.58488300  1
  O  O11  1  0.52754200  0.49874800  0.75640100  1
  O  O12  1  0.63340800  0.20761600  0.41778800  1
  O  O13  1  0.49610600  0.47737400  0.25235900  1
  O  O14  1  0.29550500  0.88791300  0.08139600  1
  O  O15  1  0.37948800  0.31637100  0.58703300  1
  O  O16  1  0.16582600  0.66196300  0.40197600  1
  O  O17  1  0.49386500  0.00922800  0.26461000  1
  O  O18  1  0.28845500  0.34856600  0.08008800  1
  O  O19  1  0.14802100  0.69081000  0.93197600  1
  O  O20  1  0.16668300  0.19094900  0.41430000  1
  O  O21  1  0.02534500  0.46700800  0.24990400  1
  O  O22  1  0.14165500  0.16564100  0.91048200  1
  O  O23  1  0.03647100  0.99742800  0.24978700  1
loop_
_geom_bond_atom_site_label_1
_geom_bond_atom_site_label_2
_geom_bond_distance
_geom_bond_site_symmetry_2
Li0 O20 2.052326 1_655
Li0 O1 2.080134 1_555
Li0 O7 2.166686 1_555
Li0 O16 2.213905 1_655
Li0 O8 2.289644 1_555
Li0 O15 2.425905 1_655
Li1 O17 2.038361 1_565
Li1 O16 2.043614 1_655
Li1 O8 2.162205 1_555
Li1 O21 2.232651 1_655
Li1 O23 2.300577 1_655
Li1 O12 2.474811 1_565
Li2 O20 2.204757 1_665
Li2 O1 2.249508 1_555
Li2 O12 2.257829 1_565
Li2 O7 2.286138 1_565
Li2 O16 2.317660 1_655
Li2 O10 2.370742 1_655
Li3 O12 2.055698 1_555
Li3 O21 2.075184 1_655
Li3 O13 2.129790 1_555
Li3 O20 2.146311 1_655
Li3 O23 2.194348 1_645
Li3 O8 2.220294 1_555
Li4 O13 2.205885 1_555
Li4 O21 2.257903 1_655
Li4 O3 2.259046 1_555
Li4 O0 2.259886 1_555
Li4 O14 2.334357 1_555
Li4 O17 2.368177 1_565
Li5 O13 2.059775 1_555
Li5 O0 2.095125 1_545
Li5 O3 2.187599 1_555
Li5 O17 2.204342 1_555
Li5 O23 2.232194 1_645
Li5 O18 2.437417 1_555
Li6 O11 2.133346 1_555
Li6 O22 2.135143 1_565
Li6 O5 2.195508 1_555
Li6 O19 2.209369 1_555
Li6 O6 2.280641 1_465
Li6 O4 2.292717 1_555
Li7 O4 2.054997 1_555
Li7 O19 2.082330 1_555
Li7 O3 2.089706 1_556
Li7 O9 2.127949 1_555
Li7 O18 2.237782 1_556
Li7 O14 2.423622 1_556
Li8 O14 2.020990 1_545
Li8 O0 2.105105 1_545
Li8 O4 2.161168 1_544
Li8 O9 2.176971 1_554
Li8 O18 2.210839 1_555
Li8 O22 2.297021 1_554
Li9 O11 2.140817 1_555
Li9 O22 2.156173 1_555
Li9 O9 2.235694 1_555
Li9 O2 2.239092 1_455
Li9 O19 2.404784 1_555
Li9 O5 2.462108 1_545
Li10 O10 2.017168 1_555
Li10 O1 2.119597 1_455
Li10 O6 2.156679 1_465
Li10 O2 2.185971 1_455
Li10 O15 2.208613 1_555
Li10 O11 2.294455 1_555
Li11 O6 2.061948 1_455
Li11 O5 2.074125 1_545
Li11 O7 2.097819 1_455
Li11 O2 2.114732 1_455
Li11 O15 2.227194 1_555
Li11 O10 2.445146 1_545
Mn0 O4 2.078539 1_555
Mn0 O6 2.078758 1_565
Mn0 O5 2.208534 1_555
Mn0 O19 2.213490 1_655
Mn0 O9 2.235152 1_565
Mn0 O2 2.238254 1_555
Mn1 O12 2.157453 1_565
Mn1 O10 2.159424 1_555
Mn1 O15 2.164887 1_565
Mn1 O20 2.172081 1_565
Mn1 O8 2.174615 1_555
Mn1 O1 2.214096 1_555
Mn2 O21 2.159752 1_555
Mn2 O14 2.160278 1_555
Mn2 O13 2.162562 1_555
Mn2 O18 2.163799 1_555
Mn2 O23 2.181187 1_555
Mn2 O0 2.205857 1_455
Mn3 O11 1.976936 1_555
Mn3 O22 1.982330 1_655
Mn3 O2 1.986356 1_555
Mn3 O9 1.990042 1_555
Mn3 O4 2.239138 1_555
Mn3 O6 2.242926 1_555
Mn4 O6 1.949833 1_555
Mn4 O7 1.975050 1_555
Mn4 O15 1.976825 1_555
Mn4 O5 2.009109 1_545
Mn4 O11 2.290891 1_555
Mn4 O1 2.297699 1_545
Mn5 O8 1.976530 1_555
Mn5 O23 1.978557 1_555
Mn5 O16 1.989911 1_555
Mn5 O17 1.993729 1_565
Mn5 O20 2.265573 1_565
Mn5 O13 2.275300 1_555
Mn6 O10 1.971276 1_555
Mn6 O15 1.979197 1_555
Mn6 O12 1.986137 1_555
Mn6 O8 1.992297 1_555
Mn6 O7 2.240393 1_555
Mn6 O16 2.288677 1_555
Mn7 O18 1.971115 1_555
Mn7 O23 1.980885 1_545
Mn7 O14 1.993270 1_545
Mn7 O21 2.020342 1_555
Mn7 O3 2.222431 1_455
Mn7 O17 2.267165 1_555
Mn8 O4 1.949298 1_554
Mn8 O3 1.974238 1_555
Mn8 O18 1.976059 1_655
Mn8 O19 2.009137 1_654
Mn8 O22 2.288183 1_654
Mn8 O0 2.295798 1_555
O0 Ti1 1.898978 1_565
O1 Ti0 1.899431 1_555
O2 Ti0 1.999533 1_555
O3 Ti1 2.049216 1_555
O5 Ti0 2.003241 1_555
O7 Ti0 2.038394 1_555
O9 Ti1 1.999888 1_556
O10 Ti0 2.035726 1_555
O11 Ti0 2.069737 1_555
O12 Ti2 2.025852 1_555
O13 Ti2 1.960032 1_555
O14 Ti1 2.030450 1_465
O16 Ti2 2.030743 1_555
O17 Ti2 2.032486 1_555
O19 Ti1 2.003978 1_466
O20 Ti2 1.959728 1_555
O21 Ti2 2.039158 1_555
O22 Ti1 2.065159 1_456
