# generated using pymatgen
data_TiV3Sn2(PO4)6
_symmetry_space_group_name_H-M   'P 1'
_cell_length_a   9.01225029
_cell_length_b   9.01225029
_cell_length_c   9.01225078
_cell_angle_alpha   57.38759542
_cell_angle_beta   57.38759542
_cell_angle_gamma   57.38760118
_symmetry_Int_Tables_number   1
_chemical_formula_structural   TiV3Sn2(PO4)6
_chemical_formula_sum   'Ti1 V3 Sn2 P6 O24'
_cell_volume   486.47195308
_cell_formula_units_Z   1
loop_
 _symmetry_equiv_pos_site_id
 _symmetry_equiv_pos_as_xyz
  1  'x, y, z'
loop_
 _atom_site_type_symbol
 _atom_site_label
 _atom_site_symmetry_multiplicity
 _atom_site_fract_x
 _atom_site_fract_y
 _atom_site_fract_z
 _atom_site_occupancy
  Ti  Ti0  1  0.14750200  0.14750200  0.14750200  1
  V  V0  1  0.64722700  0.64722700  0.64722700  1
  V  V1  1  0.85141000  0.85141000  0.85141000  1
  V  V2  1  0.35354200  0.35354200  0.35354200  1
  Sn  Sn0  1  0.99661300  0.99661300  0.99661300  1
  Sn  Sn1  1  0.50032700  0.50032700  0.50032700  1
  P  P0  1  0.24990100  0.53719900  0.96446900  1
  P  P1  1  0.96446900  0.24990100  0.53719900  1
  P  P2  1  0.53719900  0.96446900  0.24990100  1
  P  P3  1  0.46167500  0.03667100  0.75099000  1
  P  P4  1  0.03667100  0.75099000  0.46167500  1
  P  P5  1  0.75099000  0.46167500  0.03667100  1
  O  O0  1  0.12582300  0.28917200  0.50752600  1
  O  O1  1  0.50752600  0.12582300  0.28917200  1
  O  O2  1  0.28917200  0.50752600  0.12582300  1
  O  O3  1  0.07692900  0.72131500  0.93943700  1
  O  O4  1  0.20796900  0.37227600  0.00072100  1
  O  O5  1  0.42169100  0.55822300  0.77929100  1
  O  O6  1  0.93943700  0.07692900  0.72131500  1
  O  O7  1  0.77929100  0.42169100  0.55822300  1
  O  O8  1  0.62404200  0.00729500  0.78940200  1
  O  O9  1  0.55822300  0.77929100  0.42169100  1
  O  O10  1  0.27762900  0.06352600  0.92483300  1
  O  O11  1  0.00729500  0.78940200  0.62404200  1
  O  O12  1  0.00072100  0.20796900  0.37227600  1
  O  O13  1  0.72131500  0.93943700  0.07692900  1
  O  O14  1  0.43462100  0.22273300  0.57987800  1
  O  O15  1  0.37227600  0.00072100  0.20796900  1
  O  O16  1  0.22273300  0.57987800  0.43462100  1
  O  O17  1  0.06352600  0.92483300  0.27762900  1
  O  O18  1  0.57987800  0.43462100  0.22273300  1
  O  O19  1  0.78940200  0.62404200  0.00729500  1
  O  O20  1  0.92483300  0.27762900  0.06352600  1
  O  O21  1  0.71338600  0.49016500  0.87457000  1
  O  O22  1  0.49016500  0.87457000  0.71338600  1
  O  O23  1  0.87457000  0.71338600  0.49016500  1
loop_
_geom_bond_atom_site_label_1
_geom_bond_atom_site_label_2
_geom_bond_distance
_geom_bond_site_symmetry_2
O0 P1 1.531315 1_455
O0 V2 1.954427 1_555
O1 P2 1.531315 1_545
O1 V2 1.954427 1_555
O2 P0 1.531316 1_554
O2 V2 1.954427 1_555
O3 P0 1.556172 1_555
O3 V1 2.074032 1_455
O3 Sn0 2.446492 1_455
O4 P0 1.551660 1_554
O4 Ti0 1.916980 1_555
O5 P0 1.551868 1_555
O5 V0 2.076556 1_555
O5 Sn1 2.487979 1_555
O6 P1 1.556172 1_555
O6 V1 2.074032 1_545
O6 Sn0 2.446492 1_545
O7 P1 1.551868 1_555
O7 V0 2.076556 1_555
O7 Sn1 2.487979 1_555
O8 P3 1.536493 1_555
O8 V1 1.941605 1_545
O9 P2 1.551868 1_555
O9 V0 2.076556 1_555
O9 Sn1 2.487979 1_555
O10 P3 1.561811 1_555
O10 Ti0 2.029471 1_556
O10 Sn0 2.579901 1_445
O11 P4 1.536493 1_555
O11 V1 1.941605 1_455
O12 P1 1.551660 1_455
O12 Ti0 1.916980 1_555
O13 P2 1.556172 1_555
O13 V1 2.074032 1_554
O13 Sn0 2.446492 1_554
O14 P3 1.557753 1_555
O14 V2 2.042186 1_555
O14 Sn1 2.515809 1_555
O15 P2 1.551660 1_545
O15 Ti0 1.916980 1_555
O16 P4 1.557753 1_555
O16 V2 2.042186 1_555
O16 Sn1 2.515809 1_555
O17 P4 1.561811 1_555
O17 Ti0 2.029470 1_565
O17 Sn0 2.579901 1_454
O18 P5 1.557753 1_555
O18 V2 2.042186 1_555
O18 Sn1 2.515809 1_555
O19 P5 1.536493 1_555
O19 V1 1.941605 1_554
O20 P5 1.561811 1_555
O20 Ti0 2.029471 1_655
O20 Sn0 2.579901 1_544
O21 P5 1.533147 1_556
O21 V0 1.959072 1_555
O22 P3 1.533147 1_565
O22 V0 1.959072 1_555
O23 P4 1.533147 1_655
O23 V0 1.959072 1_555
