# generated using pymatgen
data_Al2O3
_symmetry_space_group_name_H-M   'P 1'
_cell_length_a   5.65803700
_cell_length_b   5.65688200
_cell_length_c   24.26605600
_cell_angle_alpha   77.35923953
_cell_angle_beta   90.00000000
_cell_angle_gamma   90.00000000
_symmetry_Int_Tables_number   1
_chemical_formula_structural   Al2O3
_chemical_formula_sum   'Al32 O48'
_cell_volume   757.85426608
_cell_formula_units_Z   16
loop_
 _symmetry_equiv_pos_site_id
 _symmetry_equiv_pos_as_xyz
  1  'x, y, z'
loop_
 _atom_site_type_symbol
 _atom_site_label
 _atom_site_symmetry_multiplicity
 _atom_site_fract_x
 _atom_site_fract_y
 _atom_site_fract_z
 _atom_site_occupancy
  Al  Al0  1  0.24696200  0.30849000  0.20895600  1
  Al  Al1  1  0.26456400  0.03713800  0.95876800  1
  Al  Al2  1  0.23422700  0.17742300  0.07915000  1
  Al  Al3  1  0.23395400  0.67016200  0.08006200  1
  Al  Al4  1  0.24696200  0.69151000  0.29104400  1
  Al  Al5  1  0.23422700  0.82257700  0.42085000  1
  Al  Al6  1  0.23395400  0.32983800  0.41993800  1
  Al  Al7  1  0.25005700  0.37695100  0.62337300  1
  Al  Al8  1  0.26456400  0.96286200  0.54123200  1
  Al  Al9  1  0.25395900  0.50000000  0.75000000  1
  Al  Al10  1  0.25005700  0.62304900  0.87662700  1
  Al  Al11  1  0.00791400  0.85050100  0.66954400  1
  Al  Al12  1  0.00791400  0.14949900  0.83045600  1
  Al  Al13  1  0.99208600  0.85050100  0.16954400  1
  Al  Al14  1  0.99208600  0.14949900  0.33045600  1
  Al  Al15  1  0.73543600  0.96286200  0.04123200  1
  Al  Al16  1  0.74994300  0.62304900  0.37662700  1
  Al  Al17  1  0.75303800  0.30849000  0.70895600  1
  Al  Al18  1  0.76604600  0.32983800  0.91993800  1
  Al  Al19  1  0.76604600  0.67016200  0.58006200  1
  Al  Al20  1  0.73543600  0.03713800  0.45876800  1
  Al  Al21  1  0.75303800  0.69151000  0.79104400  1
  Al  Al22  1  0.74604100  0.50000000  0.25000000  1
  Al  Al23  1  0.74994300  0.37695100  0.12337300  1
  Al  Al24  1  0.76577300  0.82257700  0.92085000  1
  Al  Al25  1  0.76577300  0.17742300  0.57915000  1
  Al  Al26  1  0.50030200  0.15200800  0.32968400  1
  Al  Al27  1  0.50000000  0.50000000  0.50000000  1
  Al  Al28  1  0.50000000  0.50000000  0.00000000  1
  Al  Al29  1  0.50030200  0.84799200  0.17031600  1
  Al  Al30  1  0.49969800  0.15200800  0.82968400  1
  Al  Al31  1  0.49969800  0.84799200  0.67031600  1
  O  O0  1  0.27028800  0.25072000  0.00211900  1
  O  O1  1  0.26922000  0.74284100  0.00244100  1
  O  O2  1  0.24775500  0.07676500  0.16556400  1
  O  O3  1  0.24785400  0.61564000  0.16250300  1
  O  O4  1  0.27028800  0.74928000  0.49788100  1
  O  O5  1  0.26922000  0.25715900  0.49755900  1
  O  O6  1  0.25400000  0.60471300  0.66668100  1
  O  O7  1  0.25412900  0.07061400  0.66046200  1
  O  O8  1  0.25400000  0.39528700  0.83331900  1
  O  O9  1  0.25412900  0.92938600  0.83953800  1
  O  O10  1  0.24775500  0.92323500  0.33443600  1
  O  O11  1  0.24785400  0.38436000  0.33749700  1
  O  O12  1  0.02277100  0.41436100  0.08872300  1
  O  O13  1  0.99175200  0.08322900  0.91449400  1
  O  O14  1  0.00666600  0.73436900  0.74628500  1
  O  O15  1  0.00666600  0.26563100  0.75371500  1
  O  O16  1  0.00824800  0.08322900  0.41449400  1
  O  O17  1  0.02277100  0.58563900  0.41127700  1
  O  O18  1  0.00824800  0.91677100  0.08550600  1
  O  O19  1  0.99333400  0.26563100  0.25371500  1
  O  O20  1  0.97722900  0.58563900  0.91127700  1
  O  O21  1  0.99175200  0.91677100  0.58550600  1
  O  O22  1  0.97722900  0.41436100  0.58872300  1
  O  O23  1  0.99333400  0.73436900  0.24628500  1
  O  O24  1  0.73078000  0.25715900  0.99755900  1
  O  O25  1  0.74587100  0.92938600  0.33953800  1
  O  O26  1  0.75214600  0.61564000  0.66250300  1
  O  O27  1  0.75214600  0.38436000  0.83749700  1
  O  O28  1  0.73078000  0.74284100  0.50244100  1
  O  O29  1  0.74600000  0.39528700  0.33331900  1
  O  O30  1  0.75224500  0.07676500  0.66556400  1
  O  O31  1  0.74587100  0.07061400  0.16046200  1
  O  O32  1  0.72971200  0.74928000  0.99788100  1
  O  O33  1  0.75224500  0.92323500  0.83443600  1
  O  O34  1  0.72971200  0.25072000  0.50211900  1
  O  O35  1  0.74600000  0.60471300  0.16668100  1
  O  O36  1  0.50081100  0.73261200  0.24777000  1
  O  O37  1  0.51974700  0.42348300  0.58050800  1
  O  O38  1  0.52672400  0.91824100  0.58605800  1
  O  O39  1  0.51974700  0.57651700  0.91949200  1
  O  O40  1  0.50081100  0.26738800  0.25223000  1
  O  O41  1  0.47327600  0.91824100  0.08605800  1
  O  O42  1  0.48025300  0.57651700  0.41949200  1
  O  O43  1  0.47327600  0.08175900  0.41394200  1
  O  O44  1  0.49918900  0.26738800  0.75223000  1
  O  O45  1  0.49918900  0.73261200  0.74777000  1
  O  O46  1  0.52672400  0.08175900  0.91394200  1
  O  O47  1  0.48025300  0.42348300  0.08050800  1
loop_
_geom_bond_atom_site_label_1
_geom_bond_atom_site_label_2
_geom_bond_distance
_geom_bond_site_symmetry_2
Al0 O40 1.764315 1_555
Al0 O19 1.783963 1_455
Al0 O2 1.852333 1_555
Al0 O3 1.852674 1_555
Al1 O1 1.767254 1_546
Al1 O0 1.767402 1_556
Al1 O46 1.823994 1_555
Al1 O13 1.866081 1_455
Al2 O0 1.835316 1_555
Al2 O12 1.848826 1_555
Al2 O18 1.932136 1_545
Al2 O47 1.973922 1_555
Al2 O41 1.974727 1_545
Al2 O2 2.050512 1_555
Al3 O1 1.848701 1_555
Al3 O12 1.852760 1_555
Al3 O18 1.917057 1_555
Al3 O3 1.957890 1_555
Al3 O47 1.970476 1_555
Al3 O41 1.978258 1_555
Al4 O36 1.764315 1_555
Al4 O23 1.783963 1_455
Al4 O10 1.852333 1_555
Al4 O11 1.852674 1_555
Al5 O4 1.835316 1_555
Al5 O17 1.848826 1_555
Al5 O16 1.932136 1_565
Al5 O42 1.973922 1_555
Al5 O43 1.974727 1_565
Al5 O10 2.050512 1_555
Al6 O5 1.848701 1_555
Al6 O17 1.852760 1_555
Al6 O16 1.917057 1_555
Al6 O11 1.957890 1_555
Al6 O42 1.970476 1_555
Al6 O43 1.978258 1_555
Al7 O22 1.748371 1_455
Al7 O7 1.769439 1_555
Al7 O6 1.832368 1_555
Al7 O37 1.832980 1_555
Al8 O5 1.767254 1_565
Al8 O4 1.767402 1_555
Al8 O38 1.823994 1_555
Al8 O21 1.866081 1_455
Al9 O44 1.904852 1_555
Al9 O45 1.904852 1_555
Al9 O15 1.916063 1_555
Al9 O14 1.916063 1_555
Al9 O8 1.978504 1_555
Al9 O6 1.978504 1_555
Al10 O20 1.748371 1_455
Al10 O9 1.769439 1_555
Al10 O8 1.832368 1_555
Al10 O39 1.832980 1_555
Al11 O14 1.834117 1_555
Al11 O7 1.849211 1_565
Al11 O30 1.919922 1_465
Al11 O6 1.979640 1_555
Al11 O21 1.993220 1_455
Al11 O26 1.996972 1_455
Al12 O15 1.834117 1_555
Al12 O9 1.849211 1_545
Al12 O33 1.919922 1_445
Al12 O8 1.979640 1_555
Al12 O13 1.993220 1_455
Al12 O27 1.996972 1_455
Al13 O23 1.834117 1_555
Al13 O31 1.849211 1_565
Al13 O2 1.919922 1_665
Al13 O35 1.979640 1_555
Al13 O18 1.993220 1_655
Al13 O3 1.996972 1_655
Al14 O19 1.834117 1_555
Al14 O25 1.849211 1_545
Al14 O10 1.919922 1_645
Al14 O29 1.979640 1_555
Al14 O16 1.993220 1_655
Al14 O11 1.996972 1_655
Al15 O24 1.767254 1_564
Al15 O32 1.767402 1_554
Al15 O41 1.823994 1_555
Al15 O18 1.866081 1_655
Al16 O17 1.748371 1_655
Al16 O25 1.769439 1_555
Al16 O29 1.832368 1_555
Al16 O42 1.832980 1_555
Al17 O44 1.764315 1_555
Al17 O15 1.783963 1_655
Al17 O30 1.852333 1_555
Al17 O26 1.852674 1_555
Al18 O24 1.848701 1_555
Al18 O20 1.852760 1_555
Al18 O13 1.917057 1_555
Al18 O27 1.957890 1_555
Al18 O39 1.970476 1_555
Al18 O46 1.978258 1_555
Al19 O28 1.848701 1_555
Al19 O22 1.852760 1_555
Al19 O21 1.917057 1_555
Al19 O26 1.957890 1_555
Al19 O37 1.970476 1_555
Al19 O38 1.978258 1_555
Al20 O28 1.767254 1_545
Al20 O34 1.767402 1_555
Al20 O43 1.823994 1_555
Al20 O16 1.866081 1_655
Al21 O45 1.764315 1_555
Al21 O14 1.783963 1_655
Al21 O33 1.852333 1_555
Al21 O27 1.852674 1_555
Al22 O40 1.904852 1_555
Al22 O36 1.904852 1_555
Al22 O19 1.916063 1_555
Al22 O23 1.916063 1_555
Al22 O29 1.978504 1_555
Al22 O35 1.978504 1_555
Al23 O12 1.748371 1_655
Al23 O31 1.769439 1_555
Al23 O35 1.832368 1_555
Al23 O47 1.832980 1_555
Al24 O32 1.835316 1_555
Al24 O20 1.848826 1_555
Al24 O13 1.932136 1_565
Al24 O39 1.973922 1_555
Al24 O46 1.974727 1_565
Al24 O33 2.050512 1_555
Al25 O34 1.835316 1_555
Al25 O22 1.848826 1_555
Al25 O21 1.932136 1_545
Al25 O37 1.973922 1_555
Al25 O38 1.974727 1_545
Al25 O30 2.050512 1_555
Al26 O40 1.849766 1_555
Al26 O25 1.855228 1_545
Al26 O10 1.914314 1_545
Al26 O29 1.971651 1_555
Al26 O11 1.978090 1_555
Al26 O43 2.001528 1_555
Al27 O28 1.905584 1_555
Al27 O5 1.905584 1_555
Al27 O37 1.909538 1_555
Al27 O42 1.909538 1_555
Al27 O4 1.910155 1_555
Al27 O34 1.910155 1_555
Al28 O1 1.905584 1_555
Al28 O24 1.905584 1_554
Al28 O47 1.909538 1_555
Al28 O39 1.909538 1_554
Al28 O32 1.910155 1_554
Al28 O0 1.910155 1_555
Al29 O36 1.849766 1_555
Al29 O31 1.855228 1_565
Al29 O2 1.914314 1_565
Al29 O35 1.971651 1_555
Al29 O3 1.978090 1_555
Al29 O41 2.001528 1_555
Al30 O44 1.849766 1_555
Al30 O9 1.855228 1_545
Al30 O33 1.914314 1_545
Al30 O8 1.971651 1_555
Al30 O27 1.978090 1_555
Al30 O46 2.001528 1_555
Al31 O45 1.849766 1_555
Al31 O7 1.855228 1_565
Al31 O30 1.914314 1_565
Al31 O6 1.971651 1_555
Al31 O26 1.978090 1_555
Al31 O38 2.001528 1_555
