# generated using pymatgen
data_Li2Nb6NiO18
_symmetry_space_group_name_H-M   'P 1'
_cell_length_a   7.65656900
_cell_length_b   8.96129904
_cell_length_c   11.18404420
_cell_angle_alpha   104.79273979
_cell_angle_beta   96.51630012
_cell_angle_gamma   113.42358420
_symmetry_Int_Tables_number   1
_chemical_formula_structural   Li2Nb6NiO18
_chemical_formula_sum   'Li4 Nb12 Ni2 O36'
_cell_volume   660.50218617
_cell_formula_units_Z   2
loop_
 _symmetry_equiv_pos_site_id
 _symmetry_equiv_pos_as_xyz
  1  'x, y, z'
loop_
 _atom_site_type_symbol
 _atom_site_label
 _atom_site_symmetry_multiplicity
 _atom_site_fract_x
 _atom_site_fract_y
 _atom_site_fract_z
 _atom_site_occupancy
  Li  Li0  1  0.04686200  0.67334400  0.95205800  1
  Li  Li1  1  0.54494700  0.67131200  0.44886100  1
  Li  Li2  1  0.88981500  0.34572500  0.12284600  1
  Li  Li3  1  0.38403600  0.34176300  0.61578400  1
  Nb  Nb0  1  0.33403700  0.64515000  0.15849100  1
  Nb  Nb1  1  0.50526200  0.01271900  0.50724800  1
  Nb  Nb2  1  0.15842400  0.33054100  0.33265100  1
  Nb  Nb3  1  0.32139700  0.66919700  0.65563400  1
  Nb  Nb4  1  0.02569400  0.00631400  0.50493700  1
  Nb  Nb5  1  0.51100500  0.97737900  0.99426700  1
  Nb  Nb6  1  0.84885100  0.68330600  0.17239500  1
  Nb  Nb7  1  0.65599900  0.34267400  0.32040100  1
  Nb  Nb8  1  0.18015400  0.35466600  0.82900400  1
  Nb  Nb9  1  0.81427400  0.64823100  0.65681200  1
  Nb  Nb10  1  0.99914100  0.00917000  0.00277200  1
  Nb  Nb11  1  0.67002300  0.32658900  0.84488800  1
  Ni  Ni0  1  0.69453100  0.99727700  0.30381200  1
  Ni  Ni1  1  0.19688000  0.99837200  0.80529700  1
  O  O0  1  0.01158800  0.86316400  0.09534000  1
  O  O1  1  0.33920700  0.78172000  0.02029400  1
  O  O2  1  0.06572000  0.59414700  0.13499200  1
  O  O3  1  0.04260200  0.89277700  0.62738500  1
  O  O4  1  0.42977500  0.88324800  0.29072900  1
  O  O5  1  0.31893300  0.46823800  0.00476900  1
  O  O6  1  0.65569400  0.78059700  0.18463100  1
  O  O7  1  0.36856900  0.79184300  0.52254100  1
  O  O8  1  0.72563600  0.92252700  0.44533200  1
  O  O9  1  0.05663800  0.58909300  0.62708600  1
  O  O10  1  0.34848800  0.53865200  0.28090200  1
  O  O11  1  0.37113500  0.88806300  0.79279500  1
  O  O12  1  0.05314900  0.21322900  0.12680900  1
  O  O13  1  0.97719500  0.79698000  0.34146300  1
  O  O14  1  0.30219900  0.45796100  0.50539500  1
  O  O15  1  0.63460200  0.73877400  0.65780200  1
  O  O16  1  0.98009400  0.10888200  0.34873500  1
  O  O17  1  0.69675000  0.45787800  0.19027200  1
  O  O18  1  0.71762000  0.91395700  0.95123200  1
  O  O19  1  0.38830500  0.25664200  0.29583800  1
  O  O20  1  0.34671700  0.53094800  0.76452900  1
  O  O21  1  0.72445100  0.54188500  0.46398400  1
  O  O22  1  0.07678700  0.21034700  0.62974200  1
  O  O23  1  0.00118100  0.80729900  0.83066100  1
  O  O24  1  0.64365800  0.10473200  0.17778900  1
  O  O25  1  0.96538200  0.40365600  0.32297900  1
  O  O26  1  0.30831600  0.09657700  0.50013900  1
  O  O27  1  0.67488300  0.45766000  0.70189000  1
  O  O28  1  0.04460800  0.11174000  0.84885600  1
  O  O29  1  0.37600900  0.21976500  0.79599500  1
  O  O30  1  0.68562800  0.18292100  0.41976900  1
  O  O31  1  0.73894900  0.53855100  0.96616600  1
  O  O32  1  0.64304600  0.13608500  0.67162600  1
  O  O33  1  0.29785500  0.06772000  0.97939000  1
  O  O34  1  0.97146100  0.40930200  0.84461200  1
  O  O35  1  0.68764100  0.20871500  0.95757600  1
loop_
_geom_bond_atom_site_label_1
_geom_bond_atom_site_label_2
_geom_bond_distance
_geom_bond_site_symmetry_2
Li0 O1 2.010308 1_556
Li0 O23 2.113048 1_555
Li0 O0 2.146139 1_556
Li0 O34 2.163462 1_455
Li0 O31 2.227038 1_455
Li0 O2 2.338013 1_556
Li1 O10 2.000280 1_555
Li1 O8 2.136606 1_555
Li1 O21 2.139515 1_555
Li1 O7 2.151087 1_555
Li1 O15 2.209509 1_555
Li1 O14 2.359750 1_555
Li2 O35 2.000209 1_554
Li2 O12 2.042182 1_655
Li2 O2 2.051476 1_655
Li2 O25 2.118520 1_555
Li2 O17 2.193410 1_555
Li2 O24 2.509606 1_555
Li3 O14 2.000186 1_555
Li3 O27 2.031946 1_555
Li3 O26 2.049991 1_555
Li3 O20 2.185438 1_555
Li3 O22 2.218105 1_555
Li3 O29 2.522116 1_555
Nb0 O10 1.874596 1_555
Nb0 O2 1.888933 1_555
Nb0 O5 1.974790 1_555
Nb0 O4 2.043582 1_555
Nb0 O1 2.197622 1_555
Nb0 O6 2.214228 1_555
Nb1 O32 1.819223 1_555
Nb1 O7 1.899709 1_545
Nb1 O26 1.936265 1_555
Nb1 O30 2.141189 1_555
Nb1 O8 2.245756 1_545
Nb1 O4 2.293168 1_545
Nb2 O25 1.842673 1_455
Nb2 O14 1.907771 1_555
Nb2 O16 1.980950 1_455
Nb2 O10 2.124928 1_555
Nb2 O19 2.158233 1_555
Nb2 O12 2.173481 1_555
Nb3 O9 1.818154 1_555
Nb3 O20 1.990860 1_555
Nb3 O11 2.020447 1_555
Nb3 O7 2.048393 1_555
Nb3 O14 2.127609 1_555
Nb3 O15 2.220457 1_555
Nb4 O22 1.857032 1_555
Nb4 O3 1.924412 1_545
Nb4 O26 1.999149 1_555
Nb4 O8 2.076440 1_445
Nb4 O13 2.130798 1_445
Nb4 O16 2.226046 1_455
Nb5 O1 1.844750 1_556
Nb5 O18 1.950701 1_555
Nb5 O24 1.988963 1_566
Nb5 O33 2.098595 1_565
Nb5 O35 2.150900 1_565
Nb5 O11 2.171314 1_555
Nb6 O13 1.837801 1_555
Nb6 O17 1.966162 1_555
Nb6 O6 1.994044 1_555
Nb6 O0 2.061387 1_655
Nb6 O2 2.147625 1_655
Nb6 O31 2.207811 1_554
Nb7 O19 1.838073 1_555
Nb7 O21 1.908277 1_555
Nb7 O17 1.973693 1_555
Nb7 O30 2.085523 1_555
Nb7 O25 2.204086 1_555
Nb7 O24 2.273411 1_555
Nb8 O34 1.861463 1_455
Nb8 O5 1.916660 1_556
Nb8 O20 1.957181 1_555
Nb8 O28 2.090043 1_555
Nb8 O22 2.139989 1_555
Nb8 O29 2.277164 1_555
Nb9 O27 1.849964 1_555
Nb9 O15 1.853979 1_555
Nb9 O21 2.030979 1_555
Nb9 O23 2.047349 1_655
Nb9 O9 2.160288 1_655
Nb9 O3 2.328080 1_655
Nb10 O12 1.847307 1_655
Nb10 O0 1.887132 1_645
Nb10 O18 1.926403 1_544
Nb10 O28 2.149153 1_654
Nb10 O33 2.196897 1_654
Nb10 O23 2.286738 1_644
Nb11 O31 1.857725 1_555
Nb11 O35 1.864633 1_555
Nb11 O29 2.005745 1_555
Nb11 O34 2.125763 1_555
Nb11 O32 2.156749 1_555
Nb11 O27 2.208333 1_555
Ni0 O4 1.839635 1_555
Ni0 O30 1.860814 1_565
Ni0 O8 1.895589 1_555
Ni0 O6 1.940304 1_555
Ni0 O16 1.946458 1_565
Ni0 O24 1.982967 1_565
Ni1 O33 1.852954 1_565
Ni1 O28 1.856500 1_565
Ni1 O23 1.887370 1_555
Ni1 O11 1.948618 1_555
Ni1 O29 1.949980 1_565
Ni1 O3 1.966297 1_555
