# generated using pymatgen
data_Ca3La5Mn6(CuO12)2
_symmetry_space_group_name_H-M   'P 1'
_cell_length_a   5.46895400
_cell_length_b   5.47602328
_cell_length_c   15.67773533
_cell_angle_alpha   89.98333021
_cell_angle_beta   89.97358093
_cell_angle_gamma   89.98158507
_symmetry_Int_Tables_number   1
_chemical_formula_structural   Ca3La5Mn6(CuO12)2
_chemical_formula_sum   'Ca3 La5 Mn6 Cu2 O24'
_cell_volume   469.51859613
_cell_formula_units_Z   1
loop_
 _symmetry_equiv_pos_site_id
 _symmetry_equiv_pos_as_xyz
  1  'x, y, z'
loop_
 _atom_site_type_symbol
 _atom_site_label
 _atom_site_symmetry_multiplicity
 _atom_site_fract_x
 _atom_site_fract_y
 _atom_site_fract_z
 _atom_site_occupancy
  Ca  Ca0  1  0.53338600  0.51021100  0.87875500  1
  Ca  Ca1  1  0.46690500  0.49078600  0.11912100  1
  Ca  Ca2  1  0.03588800  0.99014600  0.87622400  1
  La  La0  1  0.97484600  0.00476600  0.11943100  1
  La  La1  1  0.97554200  0.00736700  0.62570400  1
  La  La2  1  0.52189100  0.50825500  0.37674100  1
  La  La3  1  0.47571200  0.49186500  0.62537400  1
  La  La4  1  0.02253800  0.99264600  0.37860500  1
  Mn  Mn0  1  0.49853800  0.00258800  0.24449300  1
  Mn  Mn1  1  0.50157700  0.99703800  0.75737300  1
  Mn  Mn2  1  0.49983500  0.00061400  0.99681100  1
  Mn  Mn3  1  0.99836200  0.49823900  0.24475000  1
  Mn  Mn4  1  0.99981300  0.50037100  0.99660200  1
  Mn  Mn5  1  0.00103500  0.50232700  0.75737600  1
  Cu  Cu0  1  0.49974600  0.99945500  0.50093800  1
  Cu  Cu1  1  0.99951200  0.49940300  0.50097500  1
  O  O0  1  0.99046300  0.43172300  0.36582400  1
  O  O1  1  0.97827600  0.41658500  0.87752600  1
  O  O2  1  0.77084600  0.77039200  0.48302200  1
  O  O3  1  0.77491000  0.77654900  0.26751500  1
  O  O4  1  0.78173300  0.78111900  0.77534500  1
  O  O5  1  0.78462600  0.78631900  0.97969000  1
  O  O6  1  0.72212800  0.27708600  0.22397600  1
  O  O7  1  0.72549400  0.27456100  0.73157200  1
  O  O8  1  0.72142700  0.27885100  0.02122400  1
  O  O9  1  0.72779000  0.27092500  0.51732200  1
  O  O10  1  0.50950000  0.92082200  0.12138300  1
  O  O11  1  0.50817100  0.93028600  0.63562400  1
  O  O12  1  0.49253100  0.06963600  0.36579100  1
  O  O13  1  0.48034700  0.08405600  0.87735600  1
  O  O14  1  0.27187600  0.72769000  0.48292800  1
  O  O15  1  0.27910100  0.72158200  0.97919500  1
  O  O16  1  0.27022700  0.73008200  0.26839500  1
  O  O17  1  0.28206500  0.71769200  0.77562800  1
  O  O18  1  0.22309100  0.22354400  0.01884900  1
  O  O19  1  0.22373400  0.22522900  0.22629900  1
  O  O20  1  0.22734800  0.22722800  0.51753700  1
  O  O21  1  0.22487700  0.22410500  0.73194900  1
  O  O22  1  0.00838800  0.56894200  0.63555100  1
  O  O23  1  0.01592300  0.56892200  0.12122500  1
loop_
_geom_bond_atom_site_label_1
_geom_bond_atom_site_label_2
_geom_bond_distance
_geom_bond_site_symmetry_2
Ca0 O13 2.351796 1_555
Ca0 O15 2.398189 1_555
Ca0 O17 2.407082 1_555
Ca0 O1 2.486420 1_555
Ca0 O4 2.582971 1_555
Ca0 O5 2.585115 1_555
Ca0 O8 2.766092 1_556
Ca0 O7 2.844676 1_555
Ca1 O10 2.366733 1_555
Ca1 O8 2.374474 1_555
Ca1 O6 2.453571 1_555
Ca1 O23 2.503307 1_555
Ca1 O18 2.528915 1_555
Ca1 O19 2.589304 1_555
Ca1 O15 2.732081 1_554
Ca1 O16 2.889558 1_555
Ca1 O23 3.033220 1_655
Ca2 O1 2.356343 1_465
Ca2 O4 2.397416 1_455
Ca2 O5 2.400667 1_455
Ca2 O13 2.484763 1_565
Ca2 O17 2.554209 1_555
Ca2 O15 2.556862 1_555
Ca2 O18 2.772395 1_566
Ca2 O21 2.796941 1_565
La0 O23 2.397327 1_645
La0 O18 2.400636 1_655
La0 O19 2.474205 1_655
La0 O8 2.557999 1_555
La0 O10 2.586448 1_545
La0 O6 2.611207 1_555
La0 O5 2.705052 1_544
La0 O3 2.853803 1_545
La0 O10 2.959935 1_645
La0 O23 3.097697 1_655
La0 O15 3.162943 1_644
La0 O16 3.213440 1_645
La1 O22 2.412384 1_645
La1 O21 2.459030 1_655
La1 O20 2.493889 1_655
La1 O11 2.595368 1_545
La1 O7 2.600725 1_555
La1 O9 2.608737 1_555
La1 O2 2.818862 1_545
La1 O4 2.856423 1_545
La1 O11 2.947383 1_645
La2 O12 2.413469 1_555
La2 O14 2.466365 1_555
La2 O16 2.501013 1_555
La2 O2 2.587553 1_555
La2 O0 2.602074 1_555
La2 O3 2.646373 1_555
La2 O9 2.795403 1_555
La2 O6 2.921679 1_555
La2 O0 2.941618 1_455
La3 O11 2.412824 1_555
La3 O7 2.460494 1_555
La3 O9 2.496393 1_555
La3 O22 2.595102 1_555
La3 O20 2.609231 1_555
La3 O21 2.611757 1_555
La3 O14 2.810230 1_555
La3 O17 2.863293 1_555
La3 O22 2.948132 1_655
La4 O0 2.418992 1_465
La4 O2 2.460420 1_455
La4 O3 2.504411 1_455
La4 O14 2.576626 1_555
La4 O12 2.612485 1_565
La4 O16 2.624063 1_555
La4 O20 2.766558 1_565
La4 O19 2.920826 1_565
La4 O12 2.935915 1_465
Mn0 O12 1.937164 1_555
Mn0 O19 1.955882 1_555
Mn0 O6 1.964366 1_555
Mn0 O16 1.981597 1_545
Mn0 O10 1.982344 1_545
Mn0 O3 1.986449 1_545
Mn1 O11 1.943855 1_555
Mn1 O13 1.944022 1_565
Mn1 O4 1.955495 1_555
Mn1 O17 1.965634 1_555
Mn1 O7 1.993285 1_565
Mn1 O21 1.998497 1_565
Mn2 O13 1.930575 1_555
Mn2 O15 1.967244 1_545
Mn2 O5 1.968139 1_545
Mn2 O18 1.974566 1_556
Mn2 O8 1.984577 1_556
Mn2 O10 2.001882 1_546
Mn3 O0 1.933160 1_555
Mn3 O19 1.958736 1_655
Mn3 O6 1.963873 1_555
Mn3 O23 1.977080 1_655
Mn3 O3 1.985491 1_555
Mn3 O16 1.990444 1_655
Mn4 O1 1.926193 1_555
Mn4 O15 1.968620 1_655
Mn4 O5 1.976371 1_555
Mn4 O18 1.977273 1_656
Mn4 O8 1.984645 1_556
Mn4 O23 1.991644 1_656
Mn5 O22 1.944760 1_555
Mn5 O1 1.945123 1_455
Mn5 O17 1.958746 1_555
Mn5 O4 1.961453 1_455
Mn5 O21 1.994353 1_555
Mn5 O7 1.998042 1_455
Cu0 O9 1.957808 1_565
Cu0 O20 1.959947 1_565
Cu0 O2 1.961919 1_555
Cu0 O14 1.961948 1_555
Cu0 O11 2.145679 1_555
Cu0 O12 2.153638 1_565
Cu1 O9 1.959596 1_555
Cu1 O20 1.959663 1_655
Cu1 O2 1.960639 1_555
Cu1 O14 1.965239 1_655
Cu1 O22 2.144619 1_655
Cu1 O0 2.151731 1_555
