# generated using pymatgen
data_Os3C9SO13
_symmetry_space_group_name_H-M   'P 1'
_cell_length_a   15.64317039
_cell_length_b   15.64317039
_cell_length_c   14.01609276
_cell_angle_alpha   79.65576814
_cell_angle_beta   79.65576814
_cell_angle_gamma   32.06291164
_symmetry_Int_Tables_number   1
_chemical_formula_structural   Os3C9SO13
_chemical_formula_sum   'Os12 C36 S4 O52'
_cell_volume   1788.68383249
_cell_formula_units_Z   4
loop_
 _symmetry_equiv_pos_site_id
 _symmetry_equiv_pos_as_xyz
  1  'x, y, z'
loop_
 _atom_site_type_symbol
 _atom_site_label
 _atom_site_symmetry_multiplicity
 _atom_site_fract_x
 _atom_site_fract_y
 _atom_site_fract_z
 _atom_site_occupancy
  Os  Os0  1  0.08383800  0.55523800  0.58791400  1
  Os  Os1  1  0.44476200  0.91616200  0.91208600  1
  Os  Os2  1  0.91616200  0.44476200  0.41208600  1
  Os  Os3  1  0.55523800  0.08383800  0.08791400  1
  Os  Os4  1  0.89655900  0.88222500  0.54974200  1
  Os  Os5  1  0.11777500  0.10344100  0.95025800  1
  Os  Os6  1  0.10344100  0.11777500  0.45025800  1
  Os  Os7  1  0.88222500  0.89655900  0.04974200  1
  Os  Os8  1  0.22297200  0.59878200  0.45937700  1
  Os  Os9  1  0.40121800  0.77702800  0.04062300  1
  Os  Os10  1  0.77702800  0.40121800  0.54062300  1
  Os  Os11  1  0.59878200  0.22297200  0.95937700  1
  C  C0  1  0.16714500  0.50322300  0.70545000  1
  C  C1  1  0.49677700  0.83285500  0.79455000  1
  C  C2  1  0.83285500  0.49677700  0.29455000  1
  C  C3  1  0.50322300  0.16714500  0.20545000  1
  C  C4  1  0.23931700  0.33633600  0.57333900  1
  C  C5  1  0.66366400  0.76068300  0.92666100  1
  C  C6  1  0.76068300  0.66366400  0.42666100  1
  C  C7  1  0.33633600  0.23931700  0.07333900  1
  C  C8  1  0.93109400  0.60333800  0.65788900  1
  C  C9  1  0.39666200  0.06890600  0.84211100  1
  C  C10  1  0.06890600  0.39666200  0.34211100  1
  C  C11  1  0.60333800  0.93109400  0.15788900  1
  C  C12  1  0.97306600  0.85834500  0.65802700  1
  C  C13  1  0.14165500  0.02693400  0.84197300  1
  C  C14  1  0.02693400  0.14165500  0.34197300  1
  C  C15  1  0.85834500  0.97306600  0.15802700  1
  C  C16  1  0.67745300  0.06231600  0.60143800  1
  C  C17  1  0.93768400  0.32254700  0.89856200  1
  C  C18  1  0.32254700  0.93768400  0.39856200  1
  C  C19  1  0.06231600  0.67745300  0.10143800  1
  C  C20  1  0.86984800  0.01870200  0.48059400  1
  C  C21  1  0.98129800  0.13015200  0.01940600  1
  C  C22  1  0.13015200  0.98129800  0.51940600  1
  C  C23  1  0.01870200  0.86984800  0.98059400  1
  C  C24  1  0.32079000  0.55451500  0.56254800  1
  C  C25  1  0.44548500  0.67921000  0.93745200  1
  C  C26  1  0.67921000  0.44548500  0.43745200  1
  C  C27  1  0.55451500  0.32079000  0.06254800  1
  C  C28  1  0.21285700  0.72279600  0.39254300  1
  C  C29  1  0.27720400  0.78714300  0.10745700  1
  C  C30  1  0.78714300  0.27720400  0.60745700  1
  C  C31  1  0.72279600  0.21285700  0.89254300  1
  C  C32  1  0.42729500  0.40929400  0.39492900  1
  C  C33  1  0.59070600  0.57270500  0.10507100  1
  C  C34  1  0.57270500  0.59070600  0.60507100  1
  C  C35  1  0.40929400  0.42729500  0.89492900  1
  S  S0  1  0.94383400  0.73338200  0.38061100  1
  S  S1  1  0.26661800  0.05616600  0.11938900  1
  S  S2  1  0.05616600  0.26661800  0.61938900  1
  S  S3  1  0.73338200  0.94383400  0.88061100  1
  O  O0  1  0.98572600  0.61899000  0.45534400  1
  O  O1  1  0.38101000  0.01427400  0.04465600  1
  O  O2  1  0.01427400  0.38101000  0.54465600  1
  O  O3  1  0.61899000  0.98572600  0.95534400  1
  O  O4  1  0.82370700  0.88918300  0.42923400  1
  O  O5  1  0.11081700  0.17629300  0.07076600  1
  O  O6  1  0.17629300  0.11081700  0.57076600  1
  O  O7  1  0.88918300  0.82370700  0.92923400  1
  O  O8  1  0.09947200  0.65281800  0.35047500  1
  O  O9  1  0.34718200  0.90052800  0.14952500  1
  O  O10  1  0.90052800  0.34718200  0.64952500  1
  O  O11  1  0.65281800  0.09947200  0.85047500  1
  O  O12  1  0.87664700  0.76362600  0.29809700  1
  O  O13  1  0.23637400  0.12335300  0.20190300  1
  O  O14  1  0.12335300  0.23637400  0.70190300  1
  O  O15  1  0.76362600  0.87664700  0.79809700  1
  O  O16  1  0.21542400  0.47003200  0.77966200  1
  O  O17  1  0.52996800  0.78457600  0.72033800  1
  O  O18  1  0.78457600  0.52996800  0.22033800  1
  O  O19  1  0.47003200  0.21542400  0.27966200  1
  O  O20  1  0.33825900  0.20272000  0.56020000  1
  O  O21  1  0.79728000  0.66174100  0.93980000  1
  O  O22  1  0.66174100  0.79728000  0.43980000  1
  O  O23  1  0.20272000  0.33825900  0.06020000  1
  O  O24  1  0.83134600  0.64163700  0.69920600  1
  O  O25  1  0.35836300  0.16865400  0.80079400  1
  O  O26  1  0.16865400  0.35836300  0.30079400  1
  O  O27  1  0.64163700  0.83134600  0.19920600  1
  O  O28  1  0.01741500  0.84889800  0.72358800  1
  O  O29  1  0.15110200  0.98258500  0.77641200  1
  O  O30  1  0.98258500  0.15110200  0.27641200  1
  O  O31  1  0.84889800  0.01741500  0.22358800  1
  O  O32  1  0.54430400  0.17258800  0.63161400  1
  O  O33  1  0.82741200  0.45569600  0.86838600  1
  O  O34  1  0.45569600  0.82741200  0.36838600  1
  O  O35  1  0.17258800  0.54430400  0.13161400  1
  O  O36  1  0.85347900  0.10272300  0.43736400  1
  O  O37  1  0.89727700  0.14652100  0.06263600  1
  O  O38  1  0.14652100  0.89727700  0.56263600  1
  O  O39  1  0.10272300  0.85347900  0.93736400  1
  O  O40  1  0.38501600  0.52663200  0.62348100  1
  O  O41  1  0.47336800  0.61498400  0.87651900  1
  O  O42  1  0.61498400  0.47336800  0.37651900  1
  O  O43  1  0.52663200  0.38501600  0.12348100  1
  O  O44  1  0.20439700  0.80177000  0.35291800  1
  O  O45  1  0.19823000  0.79560300  0.14708200  1
  O  O46  1  0.79560300  0.19823000  0.64708200  1
  O  O47  1  0.80177000  0.20439700  0.85291800  1
  O  O48  1  0.55468000  0.29317800  0.36000600  1
  O  O49  1  0.70682200  0.44532000  0.13999400  1
  O  O50  1  0.44532000  0.70682200  0.63999400  1
  O  O51  1  0.29317800  0.55468000  0.86000600  1
loop_
_geom_bond_atom_site_label_1
_geom_bond_atom_site_label_2
_geom_bond_distance
_geom_bond_site_symmetry_2
C0 O16 1.159930 1_555
C0 Os0 1.888549 1_555
C1 O17 1.159930 1_555
C1 Os1 1.888549 1_555
C2 O18 1.159930 1_555
C2 Os2 1.888549 1_555
C3 O19 1.159930 1_555
C3 Os3 1.888549 1_555
C4 O20 1.162293 1_555
C4 Os0 1.907785 1_555
C5 O21 1.162293 1_555
C5 Os1 1.907785 1_555
C6 O22 1.162293 1_555
C6 Os2 1.907785 1_555
C7 O23 1.162293 1_555
C7 Os3 1.907785 1_555
C8 O24 1.159593 1_555
C8 Os0 1.900915 1_655
C9 O25 1.159593 1_555
C9 Os1 1.900915 1_545
C10 O26 1.159593 1_555
C10 Os2 1.900915 1_455
C11 O27 1.159593 1_555
C11 Os3 1.900915 1_565
C12 O28 1.163588 1_655
C12 Os4 1.888482 1_555
C13 O29 1.163588 1_545
C13 Os5 1.888482 1_555
C14 O30 1.163588 1_455
C14 Os6 1.888482 1_555
C15 O31 1.163588 1_565
C15 Os7 1.888482 1_555
C16 O32 1.161335 1_555
C16 Os4 1.919484 1_545
C17 O33 1.161335 1_555
C17 Os5 1.919484 1_655
C18 O34 1.161335 1_555
C18 Os6 1.919484 1_565
C19 O35 1.161335 1_555
C19 Os7 1.919484 1_455
C20 O36 1.165978 1_555
C20 Os4 1.887382 1_545
C21 O37 1.165978 1_555
C21 Os5 1.887382 1_654
C22 O38 1.165978 1_555
C22 Os6 1.887382 1_565
C23 O39 1.165978 1_555
C23 Os7 1.887382 1_456
C24 O40 1.166474 1_555
C24 Os8 1.884440 1_555
C25 O41 1.166474 1_555
C25 Os9 1.884440 1_556
C26 O42 1.166474 1_555
C26 Os10 1.884440 1_555
C27 O43 1.166474 1_555
C27 Os11 1.884440 1_554
C28 O44 1.164075 1_555
C28 Os8 1.883177 1_555
C29 O45 1.164075 1_555
C29 Os9 1.883177 1_555
C30 O46 1.164075 1_555
C30 Os10 1.883177 1_555
C31 O47 1.164075 1_555
C31 Os11 1.883177 1_555
C32 O48 1.159270 1_555
C32 Os8 1.919599 1_555
C33 O49 1.159270 1_555
C33 Os9 1.919599 1_555
C34 O50 1.159270 1_555
C34 Os10 1.919599 1_555
C35 O51 1.159270 1_555
C35 Os11 1.919599 1_555
O0 S0 1.521366 1_555
O0 Os0 2.137078 1_655
O1 S1 1.521366 1_555
O1 Os1 2.137078 1_544
O2 S2 1.521366 1_555
O2 Os2 2.137078 1_455
O3 S3 1.521366 1_555
O3 Os3 2.137078 1_566
O4 S0 1.519754 1_555
O4 Os4 2.139748 1_555
O5 S1 1.519754 1_555
O5 Os5 2.139748 1_554
O6 S2 1.519754 1_555
O6 Os6 2.139748 1_555
O7 S3 1.519754 1_555
O7 Os7 2.139748 1_556
O8 S0 1.521688 1_455
O8 Os8 2.145801 1_555
O9 S1 1.521688 1_565
O9 Os9 2.145801 1_555
O10 S2 1.521688 1_655
O10 Os10 2.145801 1_555
O11 S3 1.521688 1_545
O11 Os11 2.145801 1_555
O12 S0 1.436399 1_555
O13 S1 1.436399 1_555
O14 S2 1.436399 1_555
O15 S3 1.436399 1_555
