# generated using pymatgen
data_Li3TiCo3O8
_symmetry_space_group_name_H-M   'P 1'
_cell_length_a   5.73178216
_cell_length_b   5.73178216
_cell_length_c   9.16050400
_cell_angle_alpha   90.00000000
_cell_angle_beta   90.00000000
_cell_angle_gamma   120.00000179
_symmetry_Int_Tables_number   1
_chemical_formula_structural   Li3TiCo3O8
_chemical_formula_sum   'Li6 Ti2 Co6 O16'
_cell_volume   260.63296497
_cell_formula_units_Z   2
loop_
 _symmetry_equiv_pos_site_id
 _symmetry_equiv_pos_as_xyz
  1  'x, y, z'
loop_
 _atom_site_type_symbol
 _atom_site_label
 _atom_site_symmetry_multiplicity
 _atom_site_fract_x
 _atom_site_fract_y
 _atom_site_fract_z
 _atom_site_occupancy
  Li  Li0  1  0.17171100  0.82828900  0.05595500  1
  Li  Li1  1  0.65657800  0.82828900  0.05595500  1
  Li  Li2  1  0.17171100  0.34342200  0.05595500  1
  Li  Li3  1  0.82828900  0.65657800  0.55595500  1
  Li  Li4  1  0.34342200  0.17171100  0.55595500  1
  Li  Li5  1  0.82828900  0.17171100  0.55595500  1
  Ti  Ti0  1  0.33333300  0.66666700  0.49775400  1
  Ti  Ti1  1  0.66666700  0.33333300  0.99775400  1
  Co  Co0  1  0.16891000  0.83109000  0.78402100  1
  Co  Co1  1  0.66218000  0.83109000  0.78402100  1
  Co  Co2  1  0.16891000  0.33782000  0.78402100  1
  Co  Co3  1  0.83109000  0.66218000  0.28402100  1
  Co  Co4  1  0.33782000  0.16891000  0.28402100  1
  Co  Co5  1  0.83109000  0.16891000  0.28402100  1
  O  O0  1  0.16253900  0.83746100  0.40498200  1
  O  O1  1  0.48140800  0.96281600  0.66102700  1
  O  O2  1  0.67492200  0.83746100  0.40498200  1
  O  O3  1  0.03718400  0.51859200  0.66102700  1
  O  O4  1  0.33333300  0.66666700  0.89366500  1
  O  O5  1  0.48140800  0.51859200  0.66102700  1
  O  O6  1  0.83746100  0.67492200  0.90498200  1
  O  O7  1  0.16253900  0.32507800  0.40498200  1
  O  O8  1  0.51859200  0.48140800  0.16102700  1
  O  O9  1  0.96281600  0.48140800  0.16102700  1
  O  O10  1  0.00000000  0.00000000  0.18053600  1
  O  O11  1  0.66666700  0.33333300  0.39366500  1
  O  O12  1  0.32507800  0.16253900  0.90498200  1
  O  O13  1  0.51859200  0.03718400  0.16102700  1
  O  O14  1  0.83746100  0.16253900  0.90498200  1
  O  O15  1  0.00000000  0.00000000  0.68053600  1
loop_
_geom_bond_atom_site_label_1
_geom_bond_atom_site_label_2
_geom_bond_distance
_geom_bond_site_symmetry_2
Li0 O9 1.983071 1_455
Li0 O13 1.983071 1_565
Li0 O10 2.051439 1_565
Li0 O6 2.161419 1_454
Li0 O12 2.161419 1_564
Li0 O4 2.187397 1_554
Li1 O8 1.983071 1_555
Li1 O13 1.983071 1_565
Li1 O10 2.051439 1_665
Li1 O14 2.161419 1_564
Li1 O6 2.161419 1_554
Li1 O4 2.187400 1_554
Li2 O8 1.983071 1_555
Li2 O9 1.983071 1_455
Li2 O10 2.051439 1_555
Li2 O14 2.161419 1_454
Li2 O12 2.161419 1_554
Li2 O4 2.187400 1_554
Li3 O5 1.983071 1_555
Li3 O3 1.983071 1_655
Li3 O15 2.051439 1_665
Li3 O0 2.161419 1_655
Li3 O2 2.161419 1_555
Li3 O11 2.187400 1_555
Li4 O5 1.983071 1_555
Li4 O1 1.983071 1_545
Li4 O15 2.051439 1_555
Li4 O0 2.161419 1_545
Li4 O7 2.161419 1_555
Li4 O11 2.187400 1_555
Li5 O1 1.983071 1_545
Li5 O3 1.983071 1_655
Li5 O15 2.051439 1_655
Li5 O2 2.161419 1_545
Li5 O7 2.161419 1_655
Li5 O11 2.187397 1_555
Co0 O4 1.916604 1_555
Co0 O1 1.922342 1_555
Co0 O3 1.922342 1_555
Co0 O15 1.926300 1_565
Co0 O12 1.984368 1_565
Co0 O6 1.984368 1_455
Co1 O4 1.916608 1_555
Co1 O5 1.922342 1_555
Co1 O1 1.922342 1_555
Co1 O15 1.926300 1_665
Co1 O14 1.984368 1_565
Co1 O6 1.984368 1_555
Co2 O4 1.916608 1_555
Co2 O5 1.922342 1_555
Co2 O3 1.922342 1_555
Co2 O15 1.926300 1_555
Co2 O14 1.984368 1_455
Co2 O12 1.984368 1_555
Co3 O11 1.916608 1_555
Co3 O8 1.922342 1_555
Co3 O9 1.922342 1_555
Co3 O10 1.926300 1_665
Co3 O0 1.984368 1_655
Co3 O2 1.984368 1_555
Co4 O11 1.916608 1_555
Co4 O8 1.922342 1_555
Co4 O13 1.922342 1_555
Co4 O10 1.926300 1_555
Co4 O0 1.984368 1_545
Co4 O7 1.984368 1_555
Co5 O11 1.916604 1_555
Co5 O9 1.922342 1_555
Co5 O13 1.922342 1_555
Co5 O10 1.926300 1_655
Co5 O7 1.984368 1_655
Co5 O2 1.984368 1_545
O0 Ti0 1.896649 1_555
O1 Ti0 2.097150 1_555
O2 Ti0 1.896654 1_555
O3 Ti0 2.097150 1_555
O5 Ti0 2.097154 1_555
O6 Ti1 1.896654 1_555
O7 Ti0 1.896654 1_555
O8 Ti1 2.097154 1_554
O9 Ti1 2.097150 1_554
O12 Ti1 1.896654 1_555
O13 Ti1 2.097150 1_554
O14 Ti1 1.896649 1_555
