# generated using pymatgen
data_Gd3NbO7
_symmetry_space_group_name_H-M   'P 1'
_cell_length_a   6.55239857
_cell_length_b   6.55239857
_cell_length_c   7.60520200
_cell_angle_alpha   90.00000000
_cell_angle_beta   90.00000000
_cell_angle_gamma   110.71413354
_symmetry_Int_Tables_number   1
_chemical_formula_structural   Gd3NbO7
_chemical_formula_sum   'Gd6 Nb2 O14'
_cell_volume   305.41381556
_cell_formula_units_Z   2
loop_
 _symmetry_equiv_pos_site_id
 _symmetry_equiv_pos_as_xyz
  1  'x, y, z'
loop_
 _atom_site_type_symbol
 _atom_site_label
 _atom_site_symmetry_multiplicity
 _atom_site_fract_x
 _atom_site_fract_y
 _atom_site_fract_z
 _atom_site_occupancy
  Gd  Gd0  1  0.51884000  0.06060400  0.25000000  1
  Gd  Gd1  1  0.93939600  0.48116000  0.75000000  1
  Gd  Gd2  1  0.00000000  0.00000000  0.00000000  1
  Gd  Gd3  1  0.00000000  0.00000000  0.50000000  1
  Gd  Gd4  1  0.06060400  0.51884000  0.25000000  1
  Gd  Gd5  1  0.48116000  0.93939600  0.75000000  1
  Nb  Nb0  1  0.50000000  0.50000000  0.00000000  1
  Nb  Nb1  1  0.50000000  0.50000000  0.50000000  1
  O  O0  1  0.84559000  0.10920200  0.75000000  1
  O  O1  1  0.89079800  0.15441000  0.25000000  1
  O  O2  1  0.43743700  0.17972200  0.53737600  1
  O  O3  1  0.82027800  0.56256300  0.03737600  1
  O  O4  1  0.82027800  0.56256300  0.46262400  1
  O  O5  1  0.43743700  0.17972200  0.96262400  1
  O  O6  1  0.58068700  0.58068700  0.75000000  1
  O  O7  1  0.41931300  0.41931300  0.25000000  1
  O  O8  1  0.17972200  0.43743700  0.96262400  1
  O  O9  1  0.56256300  0.82027800  0.03737600  1
  O  O10  1  0.17972200  0.43743700  0.53737600  1
  O  O11  1  0.56256300  0.82027800  0.46262400  1
  O  O12  1  0.10920200  0.84559000  0.75000000  1
  O  O13  1  0.15441000  0.89079800  0.25000000  1
loop_
_geom_bond_atom_site_label_1
_geom_bond_atom_site_label_2
_geom_bond_distance
_geom_bond_site_symmetry_2
Gd0 O13 2.249554 1_545
Gd0 O1 2.293053 1_555
Gd0 O11 2.344308 1_545
Gd0 O9 2.344308 1_545
Gd0 O2 2.442301 1_555
Gd0 O5 2.442301 1_554
Gd0 O7 2.652170 1_555
Gd1 O12 2.249554 1_655
Gd1 O0 2.293053 1_555
Gd1 O8 2.344308 1_655
Gd1 O10 2.344308 1_655
Gd1 O3 2.442301 1_556
Gd1 O4 2.442301 1_555
Gd1 O6 2.652170 1_555
Gd2 O0 2.379645 1_454
Gd2 O12 2.379645 1_544
Gd2 O13 2.379645 1_545
Gd2 O1 2.379645 1_455
Gd2 O8 2.700975 1_554
Gd2 O5 2.700975 1_554
Gd2 O3 2.700975 1_445
Gd2 O9 2.700975 1_445
Gd3 O0 2.379645 1_455
Gd3 O12 2.379645 1_545
Gd3 O13 2.379645 1_545
Gd3 O1 2.379645 1_455
Gd3 O10 2.700975 1_555
Gd3 O2 2.700975 1_555
Gd3 O11 2.700975 1_445
Gd3 O4 2.700975 1_445
Gd4 O1 2.249554 1_455
Gd4 O13 2.293053 1_555
Gd4 O4 2.344308 1_455
Gd4 O3 2.344308 1_455
Gd4 O10 2.442301 1_555
Gd4 O8 2.442301 1_554
Gd4 O7 2.652170 1_555
Gd5 O0 2.249554 1_565
Gd5 O12 2.293053 1_555
Gd5 O5 2.344308 1_565
Gd5 O2 2.344308 1_565
Gd5 O9 2.442301 1_556
Gd5 O11 2.442301 1_555
Gd5 O6 2.652170 1_555
Nb0 O7 1.994052 1_555
Nb0 O6 1.994052 1_554
Nb0 O8 2.011056 1_554
Nb0 O5 2.011056 1_554
Nb0 O3 2.011056 1_555
Nb0 O9 2.011056 1_555
Nb1 O7 1.994052 1_555
Nb1 O6 1.994052 1_555
Nb1 O10 2.011056 1_555
Nb1 O2 2.011056 1_555
Nb1 O11 2.011056 1_555
Nb1 O4 2.011056 1_555
