# generated using pymatgen
data_Li2FePCO7
_symmetry_space_group_name_H-M   'P 1'
_cell_length_a   6.49422300
_cell_length_b   9.38609900
_cell_length_c   10.16284447
_cell_angle_alpha   62.19374046
_cell_angle_beta   90.00000000
_cell_angle_gamma   90.00000000
_symmetry_Int_Tables_number   1
_chemical_formula_structural   Li2FePCO7
_chemical_formula_sum   'Li8 Fe4 P4 C4 O28'
_cell_volume   547.94905623
_cell_formula_units_Z   4
loop_
 _symmetry_equiv_pos_site_id
 _symmetry_equiv_pos_as_xyz
  1  'x, y, z'
loop_
 _atom_site_type_symbol
 _atom_site_label
 _atom_site_symmetry_multiplicity
 _atom_site_fract_x
 _atom_site_fract_y
 _atom_site_fract_z
 _atom_site_occupancy
  Li  Li0  1  0.25768400  0.09571100  0.57111500  1
  Li  Li1  1  0.24231600  0.09571100  0.07111500  1
  Li  Li2  1  0.46680800  0.27511500  0.73571700  1
  Li  Li3  1  0.03319200  0.27511500  0.23571700  1
  Li  Li4  1  0.96680800  0.72488500  0.76428300  1
  Li  Li5  1  0.53319200  0.72488500  0.26428300  1
  Li  Li6  1  0.75768400  0.90428900  0.92888500  1
  Li  Li7  1  0.74231600  0.90428900  0.42888500  1
  Fe  Fe0  1  0.75631600  0.32951800  0.93530000  1
  Fe  Fe1  1  0.74368400  0.32951800  0.43530000  1
  Fe  Fe2  1  0.25631600  0.67048200  0.56470000  1
  Fe  Fe3  1  0.24368400  0.67048200  0.06470000  1
  P  P0  1  0.24590200  0.42015600  0.92928700  1
  P  P1  1  0.25409800  0.42015600  0.42928700  1
  P  P2  1  0.74590200  0.57984400  0.57071300  1
  P  P3  1  0.75409800  0.57984400  0.07071300  1
  C  C0  1  0.75788600  0.03938100  0.62919400  1
  C  C1  1  0.74211400  0.03938100  0.12919400  1
  C  C2  1  0.25788600  0.96061900  0.87080600  1
  C  C3  1  0.24211400  0.96061900  0.37080600  1
  O  O0  1  0.73644700  0.07766700  0.98698100  1
  O  O1  1  0.76355300  0.07766700  0.48698100  1
  O  O2  1  0.27668800  0.10300000  0.76627500  1
  O  O3  1  0.73353400  0.16183700  0.65641000  1
  O  O4  1  0.22331200  0.10300000  0.26627500  1
  O  O5  1  0.76646600  0.16183700  0.15641000  1
  O  O6  1  0.06299500  0.30504800  0.94944300  1
  O  O7  1  0.43664300  0.31740700  0.93485300  1
  O  O8  1  0.06335700  0.31740700  0.43485300  1
  O  O9  1  0.43700500  0.30504800  0.44944300  1
  O  O10  1  0.72830800  0.42026200  0.71643900  1
  O  O11  1  0.25956800  0.46075600  0.56159100  1
  O  O12  1  0.77169200  0.42026200  0.21643900  1
  O  O13  1  0.24043200  0.46075600  0.06159100  1
  O  O14  1  0.75956800  0.53924400  0.93840900  1
  O  O15  1  0.22830800  0.57973800  0.78356100  1
  O  O16  1  0.74043200  0.53924400  0.43840900  1
  O  O17  1  0.27169200  0.57973800  0.28356100  1
  O  O18  1  0.56299500  0.69495200  0.55055700  1
  O  O19  1  0.93664300  0.68259300  0.56514700  1
  O  O20  1  0.93700500  0.69495200  0.05055700  1
  O  O21  1  0.56335700  0.68259300  0.06514700  1
  O  O22  1  0.23353400  0.83816300  0.84359000  1
  O  O23  1  0.77668800  0.89700000  0.73372500  1
  O  O24  1  0.26646600  0.83816300  0.34359000  1
  O  O25  1  0.72331200  0.89700000  0.23372500  1
  O  O26  1  0.23644700  0.92233300  0.51301900  1
  O  O27  1  0.26355300  0.92233300  0.01301900  1
loop_
_geom_bond_atom_site_label_1
_geom_bond_atom_site_label_2
_geom_bond_distance
_geom_bond_site_symmetry_2
Li0 O26 1.977947 1_545
Li0 O2 2.019977 1_555
Li0 O9 2.116391 1_555
Li0 O8 2.269779 1_555
Li1 O27 1.977947 1_545
Li1 O4 2.019977 1_555
Li1 O6 2.116391 1_554
Li1 O7 2.269779 1_554
Li2 O2 1.939747 1_555
Li2 O10 2.128242 1_555
Li2 O7 2.245256 1_555
Li2 O11 2.258813 1_555
Li2 O3 2.362210 1_555
Li3 O4 1.939747 1_555
Li3 O12 2.128242 1_455
Li3 O8 2.245256 1_555
Li3 O13 2.258813 1_555
Li3 O5 2.362210 1_455
Li4 O23 1.939747 1_555
Li4 O15 2.128242 1_655
Li4 O19 2.245256 1_555
Li4 O14 2.258813 1_555
Li4 O22 2.362210 1_655
Li5 O25 1.939747 1_555
Li5 O17 2.128242 1_555
Li5 O21 2.245256 1_555
Li5 O16 2.258813 1_555
Li5 O24 2.362210 1_555
Li6 O0 1.977947 1_565
Li6 O23 2.019977 1_555
Li6 O20 2.116391 1_556
Li6 O21 2.269779 1_556
Li7 O1 1.977947 1_565
Li7 O25 2.019977 1_555
Li7 O18 2.116391 1_555
Li7 O19 2.269779 1_555
Fe0 O14 1.983557 1_555
Fe0 O10 1.984527 1_555
Fe0 O6 2.002311 1_655
Fe0 O5 2.057017 1_556
Fe0 O7 2.079258 1_555
Fe0 O0 2.173056 1_555
Fe1 O16 1.983557 1_555
Fe1 O12 1.984527 1_555
Fe1 O9 2.002311 1_555
Fe1 O3 2.057017 1_555
Fe1 O8 2.079258 1_655
Fe1 O1 2.173056 1_555
Fe2 O11 1.983557 1_555
Fe2 O15 1.984527 1_555
Fe2 O18 2.002311 1_555
Fe2 O24 2.057017 1_555
Fe2 O19 2.079258 1_455
Fe2 O26 2.173056 1_555
Fe3 O13 1.983557 1_555
Fe3 O17 1.984527 1_555
Fe3 O20 2.002311 1_455
Fe3 O22 2.057017 1_554
Fe3 O21 2.079258 1_555
Fe3 O27 2.173056 1_555
C0 O23 1.266844 1_545
C0 O3 1.311182 1_555
C0 O1 1.317115 1_555
C1 O25 1.266844 1_545
C1 O5 1.311182 1_555
C1 O0 1.317115 1_554
C2 O2 1.266844 1_565
C2 O22 1.311182 1_555
C2 O27 1.317115 1_556
C3 O4 1.266844 1_565
C3 O24 1.311182 1_555
C3 O26 1.317115 1_555
O6 P0 1.553621 1_555
O7 P0 1.554609 1_555
O8 P1 1.554609 1_555
O9 P1 1.553621 1_555
O10 P2 1.542837 1_555
O11 P1 1.559625 1_555
O12 P3 1.542837 1_555
O13 P0 1.559625 1_554
O14 P3 1.559625 1_556
O15 P0 1.542837 1_555
O16 P2 1.559625 1_555
O17 P1 1.542837 1_555
O18 P2 1.553621 1_555
O19 P2 1.554609 1_555
O20 P3 1.553621 1_555
O21 P3 1.554609 1_555
