# generated using pymatgen
data_CrTe
_symmetry_space_group_name_H-M   'P 1'
_cell_length_a   4.13682875
_cell_length_b   4.13682875
_cell_length_c   6.32906600
_cell_angle_alpha   90.00000000
_cell_angle_beta   90.00000000
_cell_angle_gamma   120.00001192
_symmetry_Int_Tables_number   1
_chemical_formula_structural   CrTe
_chemical_formula_sum   'Cr2 Te2'
_cell_volume   93.80052933
_cell_formula_units_Z   2
loop_
 _symmetry_equiv_pos_site_id
 _symmetry_equiv_pos_as_xyz
  1  'x, y, z'
loop_
 _atom_site_type_symbol
 _atom_site_label
 _atom_site_symmetry_multiplicity
 _atom_site_fract_x
 _atom_site_fract_y
 _atom_site_fract_z
 _atom_site_occupancy
  Cr  Cr0  1  0.00000000  0.00000000  0.00000000  1
  Cr  Cr1  1  0.00000000  0.00000000  0.50000000  1
  Te  Te0  1  0.33333300  0.66666700  0.75000000  1
  Te  Te1  1  0.66666700  0.33333300  0.25000000  1
loop_
_geom_bond_atom_site_label_1
_geom_bond_atom_site_label_2
_geom_bond_distance
_geom_bond_site_symmetry_2
Cr0 Te0 2.864962 1_544
Cr0 Te1 2.864962 1_455
Cr0 Te1 2.864965 1_555
Cr0 Te0 2.864965 1_554
Cr0 Te0 2.864965 1_444
Cr0 Te1 2.864965 1_445
Cr1 Te0 2.864962 1_545
Cr1 Te1 2.864962 1_455
Cr1 Te0 2.864965 1_445
Cr1 Te1 2.864965 1_555
Cr1 Te0 2.864965 1_555
Cr1 Te1 2.864965 1_445
