# generated using pymatgen
data_Li2Mn(SiO3)2
_symmetry_space_group_name_H-M   'P 1'
_cell_length_a   7.20112400
_cell_length_b   10.14167900
_cell_length_c   10.27872600
_cell_angle_alpha   90.00000000
_cell_angle_beta   90.00000000
_cell_angle_gamma   90.00000000
_symmetry_Int_Tables_number   1
_chemical_formula_structural   Li2Mn(SiO3)2
_chemical_formula_sum   'Li12 Mn6 Si12 O36'
_cell_volume   750.67065501
_cell_formula_units_Z   6
loop_
 _symmetry_equiv_pos_site_id
 _symmetry_equiv_pos_as_xyz
  1  'x, y, z'
loop_
 _atom_site_type_symbol
 _atom_site_label
 _atom_site_symmetry_multiplicity
 _atom_site_fract_x
 _atom_site_fract_y
 _atom_site_fract_z
 _atom_site_occupancy
  Li  Li0  1  0.50207600  0.50447000  0.00000000  1
  Li  Li1  1  0.27450500  0.26001500  0.00000000  1
  Li  Li2  1  0.70704000  0.54901000  0.78969100  1
  Li  Li3  1  0.25051700  0.49178100  0.77296100  1
  Li  Li4  1  0.74948300  0.99178100  0.72703900  1
  Li  Li5  1  0.29296000  0.04901000  0.71030900  1
  Li  Li6  1  0.72549500  0.76001500  0.50000000  1
  Li  Li7  1  0.49792400  0.00447000  0.50000000  1
  Li  Li8  1  0.29296000  0.04901000  0.28969100  1
  Li  Li9  1  0.74948300  0.99178100  0.27296100  1
  Li  Li10  1  0.25051700  0.49178100  0.22703900  1
  Li  Li11  1  0.70704000  0.54901000  0.21030900  1
  Mn  Mn0  1  0.01731000  0.99510600  0.00000000  1
  Mn  Mn1  1  0.75031100  0.75808700  0.00000000  1
  Mn  Mn2  1  0.26444900  0.74436900  0.00000000  1
  Mn  Mn3  1  0.98269000  0.49510600  0.50000000  1
  Mn  Mn4  1  0.73555100  0.24436900  0.50000000  1
  Mn  Mn5  1  0.24968900  0.25808700  0.50000000  1
  Si  Si0  1  0.00693100  0.46562500  0.00000000  1
  Si  Si1  1  0.49151100  0.04002600  0.00000000  1
  Si  Si2  1  0.97834200  0.24576100  0.77338800  1
  Si  Si3  1  0.53106200  0.25499200  0.77689400  1
  Si  Si4  1  0.46893800  0.75499200  0.72310600  1
  Si  Si5  1  0.02165800  0.74576100  0.72661200  1
  Si  Si6  1  0.50848900  0.54002600  0.50000000  1
  Si  Si7  1  0.99306900  0.96562500  0.50000000  1
  Si  Si8  1  0.02165800  0.74576100  0.27338800  1
  Si  Si9  1  0.46893800  0.75499200  0.27689400  1
  Si  Si10  1  0.53106200  0.25499200  0.22310600  1
  Si  Si11  1  0.97834200  0.24576100  0.22661200  1
  O  O0  1  0.69999300  0.98137700  0.00000000  1
  O  O1  1  0.80485000  0.53321600  0.00000000  1
  O  O2  1  0.31749300  0.93829800  0.00000000  1
  O  O3  1  0.19747200  0.55230800  0.00000000  1
  O  O4  1  0.44290000  0.14397900  0.87867000  1
  O  O5  1  0.04481000  0.36636400  0.87334000  1
  O  O6  1  0.97894500  0.80120700  0.87132600  1
  O  O7  1  0.53814000  0.70408000  0.86513200  1
  O  O8  1  0.48033900  0.40207500  0.82477500  1
  O  O9  1  0.06990600  0.10817600  0.82096600  1
  O  O10  1  0.75356000  0.22012900  0.78209200  1
  O  O11  1  0.24644000  0.72012900  0.71790800  1
  O  O12  1  0.93009400  0.60817600  0.67903400  1
  O  O13  1  0.51966100  0.90207500  0.67522500  1
  O  O14  1  0.46186000  0.20408000  0.63486800  1
  O  O15  1  0.02105500  0.30120700  0.62867400  1
  O  O16  1  0.95519000  0.86636400  0.62666000  1
  O  O17  1  0.55710000  0.64397900  0.62133000  1
  O  O18  1  0.30000700  0.48137700  0.50000000  1
  O  O19  1  0.68250700  0.43829800  0.50000000  1
  O  O20  1  0.19515000  0.03321600  0.50000000  1
  O  O21  1  0.80252800  0.05230800  0.50000000  1
  O  O22  1  0.55710000  0.64397900  0.37867000  1
  O  O23  1  0.95519000  0.86636400  0.37334000  1
  O  O24  1  0.02105500  0.30120700  0.37132600  1
  O  O25  1  0.46186000  0.20408000  0.36513200  1
  O  O26  1  0.51966100  0.90207500  0.32477500  1
  O  O27  1  0.93009400  0.60817600  0.32096600  1
  O  O28  1  0.24644000  0.72012900  0.28209200  1
  O  O29  1  0.75356000  0.22012900  0.21790800  1
  O  O30  1  0.06990600  0.10817600  0.17903400  1
  O  O31  1  0.48033900  0.40207500  0.17522500  1
  O  O32  1  0.53814000  0.70408000  0.13486800  1
  O  O33  1  0.97894500  0.80120700  0.12867400  1
  O  O34  1  0.04481000  0.36636400  0.12666000  1
  O  O35  1  0.44290000  0.14397900  0.12133000  1
loop_
_geom_bond_atom_site_label_1
_geom_bond_atom_site_label_2
_geom_bond_distance
_geom_bond_site_symmetry_2
Li0 O31 2.084903 1_555
Li0 O8 2.084903 1_554
Li0 O1 2.199717 1_555
Li0 O3 2.246504 1_555
Li0 O32 2.467247 1_555
Li0 O7 2.467247 1_554
Li1 O4 2.100152 1_554
Li1 O35 2.100152 1_555
Li1 O5 2.365198 1_554
Li1 O34 2.365198 1_555
Li2 O12 2.057611 1_555
Li2 O7 2.133988 1_555
Li2 O8 2.239578 1_555
Li2 O17 2.255712 1_555
Li2 O1 2.279197 1_556
Li3 O8 1.962211 1_555
Li3 O5 2.208322 1_555
Li3 O11 2.384146 1_555
Li3 O3 2.443101 1_556
Li4 O13 1.962211 1_555
Li4 O16 2.208322 1_555
Li4 O10 2.384146 1_565
Li4 O21 2.443101 1_565
Li5 O9 2.057611 1_555
Li5 O14 2.133988 1_555
Li5 O13 2.239578 1_545
Li5 O4 2.255712 1_555
Li5 O20 2.279197 1_555
Li6 O22 2.100152 1_555
Li6 O17 2.100152 1_555
Li6 O23 2.365198 1_555
Li6 O16 2.365198 1_555
Li7 O13 2.084903 1_545
Li7 O26 2.084903 1_545
Li7 O20 2.199717 1_555
Li7 O21 2.246504 1_555
Li7 O14 2.467247 1_555
Li7 O25 2.467247 1_555
Li8 O30 2.057611 1_555
Li8 O25 2.133988 1_555
Li8 O26 2.239578 1_545
Li8 O35 2.255712 1_555
Li8 O20 2.279197 1_555
Li9 O26 1.962211 1_555
Li9 O23 2.208322 1_555
Li9 O29 2.384146 1_565
Li9 O21 2.443101 1_565
Li10 O31 1.962211 1_555
Li10 O34 2.208322 1_555
Li10 O28 2.384146 1_555
Li10 O3 2.443101 1_555
Li11 O27 2.057611 1_555
Li11 O32 2.133988 1_555
Li11 O31 2.239578 1_555
Li11 O22 2.255712 1_555
Li11 O1 2.279197 1_555
Mn0 O30 2.201115 1_565
Mn0 O9 2.201115 1_564
Mn0 O2 2.237113 1_555
Mn0 O0 2.289277 1_455
Mn0 O33 2.385913 1_455
Mn0 O6 2.385913 1_454
Mn1 O7 2.134510 1_554
Mn1 O32 2.134510 1_555
Mn1 O33 2.156670 1_555
Mn1 O6 2.156670 1_554
Mn1 O0 2.293342 1_555
Mn1 O1 2.314140 1_555
Mn2 O2 2.003515 1_555
Mn2 O3 2.006646 1_555
Mn2 O7 2.443988 1_554
Mn2 O32 2.443988 1_555
Mn2 O33 2.511670 1_455
Mn2 O6 2.511670 1_454
Mn3 O12 2.201115 1_555
Mn3 O27 2.201115 1_555
Mn3 O19 2.237113 1_555
Mn3 O18 2.289277 1_655
Mn3 O15 2.385913 1_655
Mn3 O24 2.385913 1_655
Mn4 O19 2.003515 1_555
Mn4 O21 2.006646 1_555
Mn4 O14 2.443988 1_555
Mn4 O25 2.443988 1_555
Mn4 O15 2.511670 1_655
Mn4 O24 2.511670 1_655
Mn5 O14 2.134510 1_555
Mn5 O25 2.134510 1_555
Mn5 O24 2.156670 1_555
Mn5 O15 2.156670 1_555
Mn5 O18 2.293342 1_555
Mn5 O20 2.314140 1_555
O0 Si1 1.614838 1_565
O1 Si0 1.608580 1_655
O2 Si1 1.623180 1_565
O3 Si0 1.629577 1_555
O4 Si3 1.662827 1_555
O4 Si1 1.670120 1_556
O5 Si2 1.667520 1_455
O5 Si0 1.668157 1_556
O6 Si5 1.619688 1_655
O7 Si4 1.626680 1_555
O8 Si3 1.612671 1_555
O9 Si2 1.618921 1_455
O10 Si3 1.641653 1_555
O10 Si2 1.641863 1_555
O11 Si4 1.641653 1_555
O11 Si5 1.641863 1_555
O12 Si5 1.618921 1_655
O13 Si4 1.612671 1_555
O14 Si3 1.626680 1_555
O15 Si2 1.619688 1_455
O16 Si5 1.667520 1_655
O16 Si7 1.668157 1_555
O17 Si4 1.662827 1_555
O17 Si6 1.670120 1_555
O18 Si6 1.614838 1_555
O19 Si6 1.623180 1_555
O20 Si7 1.608580 1_445
O21 Si7 1.629577 1_545
O22 Si9 1.662827 1_555
O22 Si6 1.670120 1_555
O23 Si8 1.667520 1_655
O23 Si7 1.668157 1_555
O24 Si11 1.619688 1_455
O25 Si10 1.626680 1_555
O26 Si9 1.612671 1_555
O27 Si8 1.618921 1_655
O28 Si9 1.641653 1_555
O28 Si8 1.641863 1_555
O29 Si10 1.641653 1_555
O29 Si11 1.641863 1_555
O30 Si11 1.618921 1_455
O31 Si10 1.612671 1_555
O32 Si9 1.626680 1_555
O33 Si8 1.619688 1_655
O34 Si11 1.667520 1_455
O34 Si0 1.668157 1_555
O35 Si10 1.662827 1_555
O35 Si1 1.670120 1_555
