# generated using pymatgen
data_K4Cd2S4O19
_symmetry_space_group_name_H-M   'P 1'
_cell_length_a   9.90870300
_cell_length_b   10.05612900
_cell_length_c   20.39071179
_cell_angle_alpha   78.68557028
_cell_angle_beta   90.00000000
_cell_angle_gamma   90.00000000
_symmetry_Int_Tables_number   1
_chemical_formula_structural   K4Cd2S4O19
_chemical_formula_sum   'K16 Cd8 S16 O76'
_cell_volume   1992.30830136
_cell_formula_units_Z   4
loop_
 _symmetry_equiv_pos_site_id
 _symmetry_equiv_pos_as_xyz
  1  'x, y, z'
loop_
 _atom_site_type_symbol
 _atom_site_label
 _atom_site_symmetry_multiplicity
 _atom_site_fract_x
 _atom_site_fract_y
 _atom_site_fract_z
 _atom_site_occupancy
  K  K0  1  0.96106500  0.38620700  0.45181000  1
  K  K1  1  0.03893500  0.38620700  0.95181000  1
  K  K2  1  0.53898000  0.61389500  0.54810900  1
  K  K3  1  0.46102000  0.61389500  0.04810900  1
  K  K4  1  0.78201300  0.05564200  0.21875000  1
  K  K5  1  0.21798700  0.05564200  0.71875000  1
  K  K6  1  0.71789200  0.94448100  0.78112100  1
  K  K7  1  0.28210800  0.94448100  0.28112100  1
  K  K8  1  0.51735500  0.09570000  0.05972300  1
  K  K9  1  0.48264500  0.09570000  0.55972300  1
  K  K10  1  0.98265000  0.90430700  0.94033900  1
  K  K11  1  0.01735000  0.90430700  0.44033900  1
  K  K12  1  0.65881700  0.73900100  0.37896000  1
  K  K13  1  0.34118300  0.73900100  0.87896000  1
  K  K14  1  0.84121300  0.26101500  0.62094700  1
  K  K15  1  0.15878700  0.26101500  0.12094700  1
  Cd  Cd0  1  0.27631900  0.41979800  0.77490500  1
  Cd  Cd1  1  0.72368100  0.41979800  0.27490500  1
  Cd  Cd2  1  0.22377300  0.58018600  0.22507000  1
  Cd  Cd3  1  0.77622700  0.58018600  0.72507000  1
  Cd  Cd4  1  0.68889500  0.21705400  0.89624100  1
  Cd  Cd5  1  0.31110500  0.21705400  0.39624100  1
  Cd  Cd6  1  0.81120000  0.78289400  0.10376900  1
  Cd  Cd7  1  0.18880000  0.78289400  0.60376900  1
  S  S0  1  0.86318800  0.13705900  0.05020400  1
  S  S1  1  0.13681200  0.13705900  0.55020400  1
  S  S2  1  0.63686300  0.86294500  0.94975200  1
  S  S3  1  0.36313700  0.86294500  0.44975200  1
  S  S4  1  0.55203500  0.73287300  0.22018900  1
  S  S5  1  0.44796500  0.73287300  0.72018900  1
  S  S6  1  0.94785300  0.26734800  0.77972800  1
  S  S7  1  0.05214700  0.26734800  0.27972800  1
  S  S8  1  0.94825000  0.72004900  0.27043700  1
  S  S9  1  0.05175000  0.72004900  0.77043700  1
  S  S10  1  0.55203100  0.28011700  0.72944100  1
  S  S11  1  0.44796900  0.28011700  0.22944100  1
  S  S12  1  0.38104900  0.36228600  0.94129900  1
  S  S13  1  0.61895100  0.36228600  0.44129900  1
  S  S14  1  0.11899200  0.63763800  0.05870200  1
  S  S15  1  0.88100800  0.63763800  0.55870200  1
  O  O0  1  0.59399000  0.73509900  0.14944600  1
  O  O1  1  0.40601000  0.73509900  0.64944600  1
  O  O2  1  0.90603000  0.26504200  0.85051200  1
  O  O3  1  0.09397000  0.26504200  0.35051200  1
  O  O4  1  0.73124400  0.49416700  0.85765000  1
  O  O5  1  0.26875600  0.49416700  0.35765000  1
  O  O6  1  0.76871800  0.50596500  0.14238800  1
  O  O7  1  0.23128200  0.50596500  0.64238800  1
  O  O8  1  0.01887400  0.74666600  0.06550800  1
  O  O9  1  0.98112600  0.74666600  0.56550800  1
  O  O10  1  0.48122200  0.25330900  0.93454300  1
  O  O11  1  0.51877800  0.25330900  0.43454300  1
  O  O12  1  0.58719900  0.85942200  0.24202800  1
  O  O13  1  0.41280100  0.85942200  0.74202800  1
  O  O14  1  0.91285600  0.14059600  0.75791500  1
  O  O15  1  0.08714400  0.14059600  0.25791500  1
  O  O16  1  0.78090600  0.01039700  0.07643600  1
  O  O17  1  0.21909400  0.01039700  0.57643600  1
  O  O18  1  0.71919900  0.98960100  0.92358300  1
  O  O19  1  0.28080100  0.98960100  0.42358300  1
  O  O20  1  0.98741300  0.10616500  0.01584400  1
  O  O21  1  0.01258700  0.10616500  0.51584400  1
  O  O22  1  0.51258900  0.89391700  0.98415000  1
  O  O23  1  0.48741100  0.89391700  0.48415000  1
  O  O24  1  0.10539400  0.73175800  0.26297900  1
  O  O25  1  0.89460600  0.73175800  0.76297900  1
  O  O26  1  0.39468300  0.26828900  0.73689100  1
  O  O27  1  0.60531700  0.26828900  0.23689100  1
  O  O28  1  0.77326200  0.23111100  0.00154300  1
  O  O29  1  0.22673800  0.23111100  0.50154300  1
  O  O30  1  0.72671500  0.76888500  0.99846600  1
  O  O31  1  0.27328500  0.76888500  0.49846600  1
  O  O32  1  0.89499500  0.20208600  0.10733400  1
  O  O33  1  0.10500500  0.20208600  0.60733400  1
  O  O34  1  0.60505400  0.79806100  0.89266900  1
  O  O35  1  0.39494600  0.79806100  0.39266900  1
  O  O36  1  0.89099200  0.80311300  0.20450000  1
  O  O37  1  0.10900800  0.80311300  0.70450000  1
  O  O38  1  0.60887700  0.19673800  0.79556900  1
  O  O39  1  0.39112300  0.19673800  0.29556900  1
  O  O40  1  0.30774100  0.31875200  0.00543300  1
  O  O41  1  0.69225900  0.31875200  0.50543300  1
  O  O42  1  0.19225900  0.68115800  0.99461000  1
  O  O43  1  0.80774100  0.68115800  0.49461000  1
  O  O44  1  0.69257200  0.04126300  0.38403400  1
  O  O45  1  0.30742800  0.04126300  0.88403400  1
  O  O46  1  0.80794100  0.95904300  0.61674500  1
  O  O47  1  0.19205900  0.95904300  0.11674500  1
  O  O48  1  0.30900100  0.95561500  0.13796300  1
  O  O49  1  0.69099900  0.95561500  0.63796300  1
  O  O50  1  0.19099400  0.04428300  0.86191400  1
  O  O51  1  0.80900600  0.04428300  0.36191400  1
  O  O52  1  0.40246600  0.71519900  0.22506400  1
  O  O53  1  0.59753400  0.71519900  0.72506400  1
  O  O54  1  0.09742000  0.28527500  0.77474100  1
  O  O55  1  0.90258000  0.28527500  0.27474100  1
  O  O56  1  0.41419700  0.20238700  0.17508400  1
  O  O57  1  0.58580300  0.20238700  0.67508400  1
  O  O58  1  0.08588300  0.79754400  0.82490800  1
  O  O59  1  0.91411700  0.79754400  0.32490800  1
  O  O60  1  0.55073100  0.49385200  0.43718100  1
  O  O61  1  0.44926900  0.49385200  0.93718100  1
  O  O62  1  0.94915500  0.50624200  0.56276900  1
  O  O63  1  0.05084500  0.50624200  0.06276900  1
  O  O64  1  0.61776400  0.61610700  0.26679400  1
  O  O65  1  0.38223600  0.61610700  0.76679400  1
  O  O66  1  0.88174700  0.38390400  0.73314800  1
  O  O67  1  0.11825300  0.38390400  0.23314800  1
  O  O68  1  0.69445900  0.45023500  0.10689200  1
  O  O69  1  0.30554100  0.45023500  0.60689200  1
  O  O70  1  0.80587900  0.55026400  0.89326500  1
  O  O71  1  0.19412100  0.55026400  0.39326500  1
  O  O72  1  0.72347600  0.37227300  0.38608900  1
  O  O73  1  0.27652400  0.37227300  0.88608900  1
  O  O74  1  0.77646600  0.62789500  0.61385900  1
  O  O75  1  0.22353400  0.62789500  0.11385900  1
loop_
_geom_bond_atom_site_label_1
_geom_bond_atom_site_label_2
_geom_bond_distance
_geom_bond_site_symmetry_2
K0 O72 2.726065 1_555
K0 O62 2.767974 1_555
K0 O21 2.907455 1_655
K0 O41 2.908434 1_555
K0 O3 2.910821 1_655
K0 O71 2.950739 1_655
K0 O29 3.125739 1_655
K1 O73 2.726065 1_555
K1 O63 2.767974 1_556
K1 O20 2.907455 1_456
K1 O40 2.908434 1_556
K1 O2 2.910821 1_455
K1 O70 2.950739 1_455
K1 O28 3.125739 1_456
K2 O74 2.725579 1_555
K2 O60 2.767384 1_555
K2 O43 2.906884 1_555
K2 O23 2.906964 1_555
K2 O1 2.911961 1_555
K2 O69 2.953234 1_555
K2 O31 3.125044 1_555
K3 O75 2.725579 1_555
K3 O61 2.767384 1_554
K3 O42 2.906884 1_554
K3 O22 2.906964 1_554
K3 O0 2.911961 1_555
K3 O68 2.953234 1_555
K3 O30 3.125044 1_554
K4 O32 2.696393 1_555
K4 O12 2.734525 1_545
K4 O36 2.826464 1_545
K4 O27 2.843482 1_555
K4 O51 2.911282 1_555
K4 O55 3.016236 1_555
K4 O16 3.024259 1_555
K4 O15 3.282770 1_655
K4 O59 3.306207 1_545
K5 O33 2.696393 1_555
K5 O13 2.734525 1_545
K5 O37 2.826464 1_545
K5 O26 2.843482 1_555
K5 O50 2.911282 1_555
K5 O54 3.016236 1_555
K5 O17 3.024259 1_555
K5 O14 3.282770 1_455
K5 O58 3.306207 1_545
K6 O34 2.697690 1_555
K6 O14 2.734802 1_565
K6 O38 2.825218 1_565
K6 O25 2.844192 1_555
K6 O49 2.911427 1_555
K6 O53 3.013164 1_555
K6 O18 3.026826 1_555
K6 O13 3.282299 1_555
K6 O57 3.303646 1_565
K7 O35 2.697690 1_555
K7 O15 2.734802 1_565
K7 O39 2.825218 1_565
K7 O24 2.844192 1_555
K7 O48 2.911427 1_555
K7 O52 3.013164 1_555
K7 O19 3.026826 1_555
K7 O12 3.282299 1_555
K7 O56 3.303646 1_565
K8 O16 2.748990 1_555
K8 O10 2.751016 1_554
K8 O22 2.778723 1_544
K8 O48 2.812482 1_545
K8 O56 2.952859 1_555
K8 O28 3.009580 1_555
K8 O40 3.097793 1_555
K9 O17 2.748990 1_555
K9 O11 2.751016 1_555
K9 O23 2.778723 1_545
K9 O49 2.812482 1_545
K9 O57 2.952859 1_555
K9 O29 3.009580 1_555
K9 O41 3.097793 1_555
K10 O18 2.748078 1_555
K10 O8 2.751078 1_656
K10 O20 2.778388 1_566
K10 O50 2.813754 1_665
K10 O58 2.954752 1_655
K10 O30 3.009525 1_555
K10 O42 3.098314 1_655
K11 O19 2.748078 1_555
K11 O9 2.751078 1_455
K11 O21 2.778388 1_565
K11 O51 2.813754 1_465
K11 O59 2.954752 1_455
K11 O31 3.009525 1_555
K11 O43 3.098314 1_455
K12 O35 2.707814 1_555
K12 O60 2.735958 1_555
K12 O43 2.745665 1_555
K12 O59 2.775982 1_555
K12 O64 2.834236 1_555
K12 O12 2.905057 1_555
K12 O44 3.079781 1_565
K13 O34 2.707814 1_555
K13 O61 2.735958 1_555
K13 O42 2.745665 1_555
K13 O58 2.775982 1_555
K13 O65 2.834236 1_555
K13 O13 2.905057 1_555
K13 O45 3.079781 1_565
K14 O33 2.706457 1_655
K14 O62 2.735815 1_555
K14 O41 2.743512 1_555
K14 O57 2.777707 1_555
K14 O66 2.834110 1_555
K14 O14 2.905758 1_555
K14 O46 3.072375 1_545
K15 O32 2.706457 1_455
K15 O63 2.735815 1_555
K15 O40 2.743512 1_555
K15 O56 2.777707 1_555
K15 O67 2.834110 1_555
K15 O15 2.905758 1_555
K15 O47 3.072375 1_545
Cd0 O26 2.181997 1_555
Cd0 O65 2.213097 1_555
Cd0 O73 2.223308 1_555
Cd0 O54 2.230272 1_555
Cd0 O7 2.707892 1_555
Cd1 O27 2.181997 1_555
Cd1 O64 2.213097 1_555
Cd1 O72 2.223308 1_555
Cd1 O55 2.230272 1_555
Cd1 O6 2.707892 1_555
Cd2 O24 2.181511 1_555
Cd2 O67 2.211063 1_555
Cd2 O75 2.223874 1_555
Cd2 O52 2.231230 1_555
Cd2 O5 2.708821 1_555
Cd3 O25 2.181511 1_555
Cd3 O66 2.211063 1_555
Cd3 O74 2.223874 1_555
Cd3 O53 2.231230 1_555
Cd3 O4 2.708821 1_555
Cd4 O38 2.246960 1_555
Cd4 O10 2.255890 1_555
Cd4 O18 2.265468 1_545
Cd4 O28 2.334163 1_556
Cd4 O2 2.356870 1_555
Cd4 O4 2.774971 1_555
Cd5 O39 2.246960 1_555
Cd5 O11 2.255890 1_555
Cd5 O19 2.265468 1_545
Cd5 O29 2.334163 1_555
Cd5 O3 2.356870 1_555
Cd5 O5 2.774971 1_555
Cd6 O36 2.247028 1_555
Cd6 O8 2.255521 1_655
Cd6 O16 2.265929 1_565
Cd6 O30 2.334485 1_554
Cd6 O0 2.356926 1_555
Cd6 O6 2.773465 1_555
Cd7 O37 2.247028 1_555
Cd7 O9 2.255521 1_455
Cd7 O17 2.265929 1_565
Cd7 O31 2.334485 1_555
Cd7 O1 2.356926 1_555
Cd7 O7 2.773465 1_555
O0 S4 1.497151 1_555
O1 S5 1.497151 1_555
O2 S6 1.497451 1_555
O3 S7 1.497451 1_555
O4 O70 1.246307 1_555
O5 O71 1.246307 1_555
O6 O68 1.240375 1_555
O8 S14 1.505058 1_555
O9 S15 1.505058 1_555
O10 S12 1.504795 1_555
O11 S13 1.504795 1_555
O12 S4 1.470226 1_555
O13 S5 1.470226 1_555
O14 S6 1.471474 1_555
O15 S7 1.471474 1_555
O16 S0 1.518514 1_555
O17 S1 1.518514 1_555
O18 S2 1.518515 1_555
O19 S3 1.518515 1_555
O20 S0 1.479168 1_555
O21 S1 1.479168 1_555
O22 S2 1.480209 1_555
O23 S3 1.480209 1_555
O24 S8 1.566686 1_455
O25 S9 1.566686 1_655
O26 S10 1.568749 1_555
O27 S11 1.568749 1_555
O28 S0 1.518155 1_555
O29 S1 1.518155 1_555
O30 S2 1.518339 1_555
O31 S3 1.518339 1_555
O32 S0 1.477460 1_555
O33 S1 1.477460 1_555
O34 S2 1.475767 1_555
O35 S3 1.475767 1_555
O36 S8 1.544872 1_555
O37 S9 1.544872 1_555
O38 S10 1.547531 1_555
O39 S11 1.547531 1_555
O40 S12 1.484866 1_554
O41 S13 1.484866 1_555
O42 S14 1.483946 1_556
O43 S15 1.483946 1_555
O44 O51 1.236945 1_555
O45 O50 1.236945 1_555
O46 O49 1.234993 1_555
O47 O48 1.234993 1_555
O52 S4 1.493641 1_555
O53 S5 1.493641 1_555
O54 S6 1.493993 1_455
O55 S7 1.493993 1_655
O56 S11 1.513749 1_555
O57 S10 1.513749 1_555
O58 S9 1.514924 1_555
O59 S8 1.514924 1_555
O60 S13 1.473378 1_555
O61 S12 1.473378 1_555
O62 S15 1.471655 1_555
O63 S14 1.471655 1_555
O64 S4 1.506052 1_555
O65 S5 1.506052 1_555
O66 S6 1.506045 1_555
O67 S7 1.506045 1_555
O69 O7 1.240375 1_555
O72 S13 1.518477 1_555
O73 S12 1.518477 1_555
O74 S15 1.518001 1_555
O75 S14 1.518001 1_555
