# generated using pymatgen
data_Co(SO4)2
_symmetry_space_group_name_H-M   'P 1'
_cell_length_a   8.90595611
_cell_length_b   8.90595611
_cell_length_c   8.90595590
_cell_angle_alpha   56.11049889
_cell_angle_beta   56.11049889
_cell_angle_gamma   56.11050132
_symmetry_Int_Tables_number   1
_chemical_formula_structural   Co(SO4)2
_chemical_formula_sum   'Co3 S6 O24'
_cell_volume   454.50421586
_cell_formula_units_Z   3
loop_
 _symmetry_equiv_pos_site_id
 _symmetry_equiv_pos_as_xyz
  1  'x, y, z'
loop_
 _atom_site_type_symbol
 _atom_site_label
 _atom_site_symmetry_multiplicity
 _atom_site_fract_x
 _atom_site_fract_y
 _atom_site_fract_z
 _atom_site_occupancy
  Co  Co0  1  0.85213800  0.85213800  0.85213800  1
  Co  Co1  1  0.35496500  0.35496500  0.35496500  1
  Co  Co2  1  0.14846800  0.14846800  0.14846800  1
  S  S0  1  0.25225900  0.53721100  0.95731200  1
  S  S1  1  0.95731200  0.25225900  0.53721100  1
  S  S2  1  0.53721100  0.95731200  0.25225900  1
  S  S3  1  0.46142200  0.04256300  0.74663300  1
  S  S4  1  0.04256300  0.74663300  0.46142200  1
  S  S5  1  0.74663300  0.46142200  0.04256300  1
  O  O0  1  0.70600400  0.49002200  0.88843900  1
  O  O1  1  0.49002200  0.88843900  0.70600400  1
  O  O2  1  0.04515300  0.67280100  0.98558700  1
  O  O3  1  0.88843900  0.70600400  0.49002200  1
  O  O4  1  0.27721900  0.34723000  0.97812800  1
  O  O5  1  0.37373100  0.62557700  0.76242500  1
  O  O6  1  0.76242500  0.37373100  0.62557700  1
  O  O7  1  0.98558700  0.04515300  0.67280100  1
  O  O8  1  0.62557700  0.76242500  0.37373100  1
  O  O9  1  0.32622800  0.02312600  0.95177700  1
  O  O10  1  0.65170500  0.02569900  0.71852100  1
  O  O11  1  0.02569900  0.71852100  0.65170500  1
  O  O12  1  0.97812800  0.27721900  0.34723000  1
  O  O13  1  0.34723000  0.97812800  0.27721900  1
  O  O14  1  0.67280100  0.98558700  0.04515300  1
  O  O15  1  0.37806300  0.23940800  0.61592200  1
  O  O16  1  0.02312600  0.95177700  0.32622800  1
  O  O17  1  0.23940800  0.61592200  0.37806300  1
  O  O18  1  0.61592200  0.37806300  0.23940800  1
  O  O19  1  0.71852100  0.65170500  0.02569900  1
  O  O20  1  0.10956500  0.29825800  0.51148100  1
  O  O21  1  0.95177700  0.32622800  0.02312600  1
  O  O22  1  0.51148100  0.10956500  0.29825800  1
  O  O23  1  0.29825800  0.51148100  0.10956500  1
loop_
_geom_bond_atom_site_label_1
_geom_bond_atom_site_label_2
_geom_bond_distance
_geom_bond_site_symmetry_2
Co0 O7 2.004511 1_565
Co0 O14 2.004511 1_556
Co0 O2 2.004511 1_655
Co0 O19 2.057258 1_556
Co0 O11 2.057258 1_655
Co0 O10 2.057258 1_565
Co1 O23 2.005755 1_555
Co1 O20 2.005755 1_555
Co1 O22 2.005755 1_555
Co1 O15 2.032859 1_555
Co1 O18 2.032859 1_555
Co1 O17 2.032859 1_555
Co2 O16 1.984482 1_545
Co2 O9 1.984482 1_554
Co2 O21 1.984482 1_455
Co2 O4 2.019567 1_554
Co2 O12 2.019567 1_455
Co2 O13 2.019567 1_545
O0 S5 1.463250 1_556
O1 S3 1.463250 1_565
O2 S0 1.503654 1_555
O3 S4 1.463250 1_655
O4 S0 1.491055 1_555
O5 S0 1.460961 1_555
O6 S1 1.460961 1_555
O7 S1 1.503654 1_555
O8 S2 1.460961 1_555
O9 S3 1.498061 1_555
O10 S3 1.497341 1_555
O11 S4 1.497341 1_555
O12 S1 1.491055 1_555
O13 S2 1.491055 1_555
O14 S2 1.503654 1_555
O15 S3 1.488671 1_555
O16 S4 1.498061 1_555
O17 S4 1.488671 1_555
O18 S5 1.488671 1_555
O19 S5 1.497341 1_555
O20 S1 1.492393 1_455
O21 S5 1.498061 1_555
O22 S2 1.492393 1_545
O23 S0 1.492393 1_554
