# generated using pymatgen
data_LiFeSiO4
_symmetry_space_group_name_H-M   'P 1'
_cell_length_a   8.78220917
_cell_length_b   8.78220917
_cell_length_c   8.30091800
_cell_angle_alpha   90.00000000
_cell_angle_beta   90.00000000
_cell_angle_gamma   119.99999373
_symmetry_Int_Tables_number   1
_chemical_formula_structural   LiFeSiO4
_chemical_formula_sum   'Li6 Fe6 Si6 O24'
_cell_volume   554.45248720
_cell_formula_units_Z   6
loop_
 _symmetry_equiv_pos_site_id
 _symmetry_equiv_pos_as_xyz
  1  'x, y, z'
loop_
 _atom_site_type_symbol
 _atom_site_label
 _atom_site_symmetry_multiplicity
 _atom_site_fract_x
 _atom_site_fract_y
 _atom_site_fract_z
 _atom_site_occupancy
  Li  Li0  1  0.33333300  0.66666700  0.98498600  1
  Li  Li1  1  0.33333300  0.66666700  0.55072900  1
  Li  Li2  1  0.00000000  0.00000000  0.81586000  1
  Li  Li3  1  0.00000000  0.00000000  0.31586000  1
  Li  Li4  1  0.66666700  0.33333300  0.48498600  1
  Li  Li5  1  0.66666700  0.33333300  0.05072900  1
  Fe  Fe0  1  0.04463300  0.68671400  0.26374600  1
  Fe  Fe1  1  0.31328600  0.35791900  0.26374600  1
  Fe  Fe2  1  0.64208100  0.95536700  0.26374600  1
  Fe  Fe3  1  0.35791900  0.04463300  0.76374600  1
  Fe  Fe4  1  0.68671400  0.64208100  0.76374600  1
  Fe  Fe5  1  0.95536700  0.31328600  0.76374600  1
  Si  Si0  1  0.03979700  0.68381800  0.88176000  1
  Si  Si1  1  0.31618200  0.35597900  0.88176000  1
  Si  Si2  1  0.64402100  0.96020300  0.88176000  1
  Si  Si3  1  0.35597900  0.03979700  0.38176000  1
  Si  Si4  1  0.68381800  0.64402100  0.38176000  1
  Si  Si5  1  0.96020300  0.31618200  0.38176000  1
  O  O0  1  0.11218800  0.87323900  0.78747400  1
  O  O1  1  0.14318800  0.72447400  0.05601700  1
  O  O2  1  0.09838500  0.55883600  0.78330600  1
  O  O3  1  0.24075900  0.82377900  0.40444000  1
  O  O4  1  0.17622100  0.41698100  0.40444000  1
  O  O5  1  0.12676100  0.23894800  0.78747400  1
  O  O6  1  0.46045100  0.90161500  0.78330600  1
  O  O7  1  0.27552600  0.41871400  0.05601700  1
  O  O8  1  0.58128600  0.85681200  0.05601700  1
  O  O9  1  0.23894800  0.11218800  0.28747400  1
  O  O10  1  0.44116400  0.53954900  0.78330600  1
  O  O11  1  0.58301900  0.75924100  0.40444000  1
  O  O12  1  0.41698100  0.24075900  0.90444000  1
  O  O13  1  0.55883600  0.46045100  0.28330600  1
  O  O14  1  0.76105200  0.88781200  0.78747400  1
  O  O15  1  0.41871400  0.14318800  0.55601700  1
  O  O16  1  0.72447400  0.58128600  0.55601700  1
  O  O17  1  0.53954900  0.09838500  0.28330600  1
  O  O18  1  0.87323900  0.76105200  0.28747400  1
  O  O19  1  0.82377900  0.58301900  0.90444000  1
  O  O20  1  0.75924100  0.17622100  0.90444000  1
  O  O21  1  0.90161500  0.44116400  0.28330600  1
  O  O22  1  0.85681200  0.27552600  0.55601700  1
  O  O23  1  0.88781200  0.12676100  0.28747400  1
loop_
_geom_bond_atom_site_label_1
_geom_bond_atom_site_label_2
_geom_bond_distance
_geom_bond_site_symmetry_2
Li0 O1 2.059536 1_556
Li0 O8 2.059542 1_556
Li0 O7 2.059545 1_556
Li0 O2 2.450098 1_555
Li0 O6 2.450098 1_555
Li0 O10 2.450103 1_555
Li1 O3 2.271822 1_555
Li1 O11 2.271823 1_555
Li1 O4 2.271823 1_555
Li1 O2 2.632014 1_555
Li1 O6 2.632014 1_555
Li1 O10 2.632019 1_555
Li2 O14 1.833675 1_445
Li2 O5 1.833676 1_555
Li2 O0 1.833683 1_545
Li3 O9 1.833675 1_555
Li3 O18 1.833676 1_445
Li3 O23 1.833683 1_455
Li4 O22 2.059536 1_555
Li4 O15 2.059542 1_555
Li4 O16 2.059545 1_555
Li4 O21 2.450098 1_555
Li4 O17 2.450098 1_555
Li4 O13 2.450103 1_555
Li5 O20 2.271822 1_554
Li5 O12 2.271823 1_554
Li5 O19 2.271823 1_554
Li5 O21 2.632014 1_555
Li5 O17 2.632014 1_555
Li5 O13 2.632019 1_555
Fe0 O1 1.882934 1_555
Fe0 O21 1.883015 1_455
Fe0 O3 1.925184 1_555
Fe0 O18 1.927012 1_455
Fe1 O7 1.882934 1_555
Fe1 O13 1.883015 1_555
Fe1 O4 1.925189 1_555
Fe1 O9 1.927004 1_555
Fe2 O8 1.882934 1_555
Fe2 O17 1.883015 1_565
Fe2 O11 1.925183 1_555
Fe2 O23 1.927006 1_565
Fe3 O15 1.882934 1_555
Fe3 O6 1.883015 1_545
Fe3 O12 1.925183 1_555
Fe3 O0 1.927006 1_545
Fe4 O16 1.882934 1_555
Fe4 O10 1.883015 1_555
Fe4 O19 1.925189 1_555
Fe4 O14 1.927004 1_555
Fe5 O22 1.882934 1_555
Fe5 O2 1.883015 1_655
Fe5 O20 1.925184 1_555
Fe5 O5 1.927012 1_655
O0 Si0 1.651209 1_555
O1 Si0 1.649270 1_554
O2 Si0 1.643831 1_555
O3 Si3 1.654914 1_565
O4 Si5 1.654913 1_455
O5 Si1 1.651210 1_555
O6 Si2 1.643831 1_555
O7 Si1 1.649270 1_554
O8 Si2 1.649270 1_554
O9 Si3 1.651216 1_555
O10 Si1 1.643831 1_555
O11 Si4 1.654921 1_555
O12 Si1 1.654921 1_555
O13 Si4 1.643831 1_555
O14 Si2 1.651216 1_555
O15 Si3 1.649270 1_555
O16 Si4 1.649270 1_555
O17 Si3 1.643831 1_555
O18 Si4 1.651210 1_555
O19 Si0 1.654913 1_655
O20 Si2 1.654914 1_545
O21 Si5 1.643831 1_555
O22 Si5 1.649270 1_555
O23 Si5 1.651209 1_555
