# generated using pymatgen
data_LiCo2OF5
_symmetry_space_group_name_H-M   'P 1'
_cell_length_a   4.57867249
_cell_length_b   4.57867249
_cell_length_c   18.36822503
_cell_angle_alpha   89.24174627
_cell_angle_beta   89.24174627
_cell_angle_gamma   89.94535186
_symmetry_Int_Tables_number   1
_chemical_formula_structural   LiCo2OF5
_chemical_formula_sum   'Li4 Co8 O4 F20'
_cell_volume   385.00835599
_cell_formula_units_Z   4
loop_
 _symmetry_equiv_pos_site_id
 _symmetry_equiv_pos_as_xyz
  1  'x, y, z'
loop_
 _atom_site_type_symbol
 _atom_site_label
 _atom_site_symmetry_multiplicity
 _atom_site_fract_x
 _atom_site_fract_y
 _atom_site_fract_z
 _atom_site_occupancy
  Li  Li0  1  0.99432400  0.98605400  0.99989700  1
  Li  Li1  1  0.98605400  0.99432400  0.49989700  1
  Li  Li2  1  0.49595800  0.51363700  0.75009100  1
  Li  Li3  1  0.51363700  0.49595800  0.25009100  1
  Co  Co0  1  0.00766300  0.00970300  0.66439800  1
  Co  Co1  1  0.97703900  0.02904300  0.83283400  1
  Co  Co2  1  0.02904300  0.97703900  0.33283400  1
  Co  Co3  1  0.00970300  0.00766300  0.16439800  1
  Co  Co4  1  0.49074500  0.50739000  0.41414100  1
  Co  Co5  1  0.50739000  0.49074500  0.91414100  1
  Co  Co6  1  0.47361300  0.47782200  0.58266200  1
  Co  Co7  1  0.47782200  0.47361300  0.08266200  1
  O  O0  1  0.20338300  0.20623600  0.59114200  1
  O  O1  1  0.20623600  0.20338300  0.09114200  1
  O  O2  1  0.29952600  0.70595100  0.34136300  1
  O  O3  1  0.70595100  0.29952600  0.84136300  1
  F  F0  1  0.20944100  0.19961200  0.91603500  1
  F  F1  1  0.19811500  0.20093900  0.74907000  1
  F  F2  1  0.19961200  0.20944100  0.41603500  1
  F  F3  1  0.20093900  0.19811500  0.24907000  1
  F  F4  1  0.31346300  0.68362200  0.99510000  1
  F  F5  1  0.29166800  0.71404000  0.83545400  1
  F  F6  1  0.29968900  0.70924700  0.16555100  1
  F  F7  1  0.29978300  0.69820100  0.49954200  1
  F  F8  1  0.29711800  0.71134800  0.66572000  1
  F  F9  1  0.69820100  0.29978300  0.99954200  1
  F  F10  1  0.70924700  0.29968900  0.66555100  1
  F  F11  1  0.68362200  0.31346300  0.49510000  1
  F  F12  1  0.71134800  0.29711800  0.16572000  1
  F  F13  1  0.71404000  0.29166800  0.33545400  1
  F  F14  1  0.81372000  0.81676800  0.74625900  1
  F  F15  1  0.79884500  0.78836800  0.91512800  1
  F  F16  1  0.78699000  0.79093500  0.58561100  1
  F  F17  1  0.78836800  0.79884500  0.41512800  1
  F  F18  1  0.81676800  0.81372000  0.24625900  1
  F  F19  1  0.79093500  0.78699000  0.08561100  1
loop_
_geom_bond_atom_site_label_1
_geom_bond_atom_site_label_2
_geom_bond_distance
_geom_bond_site_symmetry_2
Li0 O1 2.197645 1_666
Li1 O0 2.197645 1_665
Li2 O3 2.166465 1_555
Li3 O2 2.166465 1_555
Co0 O0 1.833298 1_555
Co0 F8 1.902558 1_545
Co0 F10 1.904416 1_455
Co0 F14 1.939292 1_445
Co0 F1 2.004838 1_555
Co0 F16 2.048791 1_445
Co1 O3 1.759545 1_555
Co1 F1 1.984843 1_655
Co1 F15 2.022357 1_545
Co1 F14 2.026435 1_545
Co1 F5 2.038099 1_645
Co1 F0 2.038137 1_655
Co2 O2 1.759545 1_555
Co2 F3 1.984843 1_565
Co2 F17 2.022357 1_455
Co2 F18 2.026435 1_455
Co2 F13 2.038099 1_465
Co2 F2 2.038137 1_565
Co3 O1 1.833298 1_555
Co3 F12 1.902558 1_455
Co3 F6 1.904416 1_545
Co3 F18 1.939292 1_445
Co3 F3 2.004838 1_555
Co3 F19 2.048791 1_445
Co4 O2 1.837779 1_555
Co4 F2 1.907921 1_555
Co4 F17 1.908644 1_555
Co4 F11 1.943713 1_555
Co4 F7 1.996747 1_555
Co4 F13 2.026484 1_555
Co5 O3 1.837779 1_555
Co5 F0 1.907921 1_555
Co5 F15 1.908644 1_555
Co5 F4 1.943713 1_555
Co5 F9 1.996747 1_555
Co5 F5 2.026484 1_555
Co6 O0 1.759025 1_555
Co6 F7 1.993117 1_555
Co6 F11 2.016796 1_555
Co6 F16 2.031033 1_555
Co6 F8 2.032918 1_555
Co6 F10 2.038686 1_555
Co7 O1 1.759025 1_555
Co7 F9 1.993117 1_554
Co7 F4 2.016796 1_554
Co7 F19 2.031033 1_555
Co7 F12 2.032918 1_555
Co7 F6 2.038686 1_555
F0 Li0 2.054478 1_445
F1 Li2 1.978660 1_555
F2 Li1 2.054478 1_445
F3 Li3 1.978660 1_555
F4 Li0 2.014057 1_455
F5 Li2 2.042799 1_555
F6 Li3 2.079174 1_555
F7 Li1 1.974352 1_455
F8 Li2 2.012140 1_555
F9 Li0 1.974352 1_545
F10 Li2 2.079174 1_555
F11 Li1 2.014057 1_545
F12 Li3 2.012140 1_555
F13 Li3 2.042799 1_555
F14 Li2 2.011640 1_555
F15 Li0 2.029906 1_555
F16 Li1 2.025236 1_555
F17 Li1 2.029906 1_555
F18 Li3 2.011640 1_555
F19 Li0 2.025236 1_554
