# generated using pymatgen
data_VSn(PO4)2
_symmetry_space_group_name_H-M   'P 1'
_cell_length_a   6.02187400
_cell_length_b   10.03414802
_cell_length_c   10.18719879
_cell_angle_alpha   90.41729266
_cell_angle_beta   90.00024288
_cell_angle_gamma   90.00006798
_symmetry_Int_Tables_number   1
_chemical_formula_structural   VSn(PO4)2
_chemical_formula_sum   'V4 Sn4 P8 O32'
_cell_volume   615.53879470
_cell_formula_units_Z   4
loop_
 _symmetry_equiv_pos_site_id
 _symmetry_equiv_pos_as_xyz
  1  'x, y, z'
loop_
 _atom_site_type_symbol
 _atom_site_label
 _atom_site_symmetry_multiplicity
 _atom_site_fract_x
 _atom_site_fract_y
 _atom_site_fract_z
 _atom_site_occupancy
  V  V0  1  0.74999900  0.72528400  0.22820500  1
  V  V1  1  0.25000100  0.27475300  0.77169900  1
  V  V2  1  0.75001500  0.22528600  0.22836300  1
  V  V3  1  0.24999300  0.77450300  0.77175000  1
  Sn  Sn0  1  0.25000400  0.47664800  0.27762100  1
  Sn  Sn1  1  0.24999100  0.97665000  0.27772400  1
  Sn  Sn2  1  0.75000200  0.02337400  0.72233800  1
  Sn  Sn3  1  0.75000200  0.52330600  0.72228200  1
  P  P0  1  0.25000000  0.19168600  0.09577500  1
  P  P1  1  0.25000200  0.69166800  0.09575000  1
  P  P2  1  0.75000200  0.30833900  0.90427700  1
  P  P3  1  0.74999300  0.80830600  0.90422000  1
  P  P4  1  0.75000500  0.45337600  0.40861600  1
  P  P5  1  0.74999300  0.95340500  0.40860200  1
  P  P6  1  0.25000600  0.04666100  0.59140700  1
  P  P7  1  0.25000700  0.54663100  0.59140700  1
  O  O0  1  0.75000500  0.33096200  0.04982000  1
  O  O1  1  0.74999900  0.83091300  0.04976500  1
  O  O2  1  0.24999300  0.16900500  0.95024100  1
  O  O3  1  0.24999400  0.66907200  0.95020500  1
  O  O4  1  0.25000000  0.34294200  0.12737500  1
  O  O5  1  0.25000000  0.84292900  0.12736800  1
  O  O6  1  0.74999500  0.15704500  0.87265900  1
  O  O7  1  0.74999900  0.65704700  0.87262800  1
  O  O8  1  0.74999900  0.10229900  0.39493700  1
  O  O9  1  0.74999300  0.60226100  0.39489900  1
  O  O10  1  0.25000100  0.39771400  0.60499100  1
  O  O11  1  0.25000200  0.89777500  0.60509400  1
  O  O12  1  0.24999900  0.09038100  0.44551600  1
  O  O13  1  0.25000100  0.59037900  0.44557000  1
  O  O14  1  0.75001000  0.40963000  0.55445000  1
  O  O15  1  0.74999800  0.90970100  0.55444400  1
  O  O16  1  0.05136400  0.11840100  0.16988100  1
  O  O17  1  0.05133900  0.61839400  0.16988900  1
  O  O18  1  0.44863200  0.11839800  0.16988200  1
  O  O19  1  0.44866400  0.61838400  0.16988800  1
  O  O20  1  0.55139600  0.38161900  0.83013000  1
  O  O21  1  0.55133100  0.88162300  0.83010700  1
  O  O22  1  0.94860800  0.38160700  0.83013200  1
  O  O23  1  0.94866100  0.88161300  0.83010800  1
  O  O24  1  0.95225900  0.38181100  0.33612300  1
  O  O25  1  0.95229300  0.88183600  0.33614000  1
  O  O26  1  0.54774300  0.38181100  0.33612800  1
  O  O27  1  0.54769900  0.88183900  0.33614500  1
  O  O28  1  0.04772200  0.11820800  0.66384100  1
  O  O29  1  0.04765200  0.61816200  0.66388600  1
  O  O30  1  0.45228400  0.11820900  0.66383900  1
  O  O31  1  0.45234800  0.61815400  0.66388600  1
loop_
_geom_bond_atom_site_label_1
_geom_bond_atom_site_label_2
_geom_bond_distance
_geom_bond_site_symmetry_2
O0 P2 1.498317 1_554
O0 V2 2.112037 1_555
O1 P3 1.498314 1_554
O1 V0 2.110890 1_555
O2 P0 1.498311 1_556
O2 V1 2.112396 1_555
O3 P1 1.498298 1_556
O3 V3 2.110013 1_555
O4 P0 1.549194 1_555
O4 Sn0 2.027990 1_555
O5 P1 1.549280 1_555
O5 Sn1 2.028929 1_555
O6 P2 1.549604 1_555
O6 Sn2 2.028332 1_555
O7 P3 1.549207 1_555
O7 Sn3 2.028984 1_555
O8 P5 1.501505 1_545
O8 V2 2.105464 1_555
O9 P4 1.501468 1_555
O9 V0 2.106668 1_555
O10 P7 1.501653 1_555
O10 V1 2.106415 1_555
O11 P6 1.501448 1_565
O11 V3 2.107834 1_555
O12 P6 1.552675 1_555
O12 Sn1 2.048346 1_545
O13 P7 1.552229 1_555
O13 Sn0 2.049674 1_555
O14 P4 1.552194 1_555
O14 Sn3 2.048380 1_555
O15 P5 1.552150 1_555
O15 Sn2 2.048888 1_565
O16 P0 1.596734 1_555
O16 Sn1 2.164132 1_545
O16 V2 2.188375 1_455
O17 P1 1.596965 1_555
O17 Sn0 2.163646 1_555
O17 V0 2.187901 1_455
O18 P0 1.596731 1_555
O18 Sn1 2.164157 1_545
O18 V2 2.188551 1_555
O19 P1 1.596998 1_555
O19 Sn0 2.163572 1_555
O19 V0 2.187921 1_555
O20 P2 1.596771 1_555
O20 Sn3 2.163667 1_555
O20 V1 2.188366 1_555
O21 P3 1.597031 1_555
O21 Sn2 2.163896 1_565
O21 V3 2.189124 1_555
O22 P2 1.596709 1_555
O22 Sn3 2.163754 1_555
O22 V1 2.188309 1_655
O23 P3 1.597010 1_555
O23 Sn2 2.163924 1_565
O23 V3 2.189054 1_655
O24 P4 1.592710 1_555
O24 Sn0 2.117497 1_655
O24 V2 2.264949 1_555
O25 P5 1.592794 1_555
O25 Sn1 2.116904 1_655
O25 V0 2.266153 1_555
O26 P4 1.592717 1_555
O26 Sn0 2.117479 1_555
O26 V2 2.265071 1_555
O27 P5 1.592724 1_555
O27 Sn1 2.116954 1_555
O27 V0 2.266225 1_555
O28 P6 1.592491 1_555
O28 Sn2 2.117342 1_455
O28 V1 2.265680 1_555
O29 P7 1.592957 1_555
O29 Sn3 2.116792 1_455
O29 V3 2.264499 1_555
O30 P6 1.592452 1_555
O30 Sn2 2.117339 1_555
O30 V1 2.265703 1_555
O31 P7 1.592850 1_555
O31 Sn3 2.116773 1_555
O31 V3 2.264606 1_555
