# generated using pymatgen
data_Li3MnV(PO4)3
_symmetry_space_group_name_H-M   'P 1'
_cell_length_a   9.83647900
_cell_length_b   9.85937551
_cell_length_c   9.86788639
_cell_angle_alpha   86.16424974
_cell_angle_beta   87.28021969
_cell_angle_gamma   87.77032757
_symmetry_Int_Tables_number   1
_chemical_formula_structural   Li3MnV(PO4)3
_chemical_formula_sum   'Li12 Mn4 V4 P12 O48'
_cell_volume   953.17029764
_cell_formula_units_Z   4
loop_
 _symmetry_equiv_pos_site_id
 _symmetry_equiv_pos_as_xyz
  1  'x, y, z'
loop_
 _atom_site_type_symbol
 _atom_site_label
 _atom_site_symmetry_multiplicity
 _atom_site_fract_x
 _atom_site_fract_y
 _atom_site_fract_z
 _atom_site_occupancy
  Li  Li0  1  0.98045500  0.00187400  0.04774500  1
  Li  Li1  1  0.13946200  0.05446100  0.73925800  1
  Li  Li2  1  0.72946200  0.13066100  0.07205700  1
  Li  Li3  1  0.64418300  0.23061400  0.55569000  1
  Li  Li4  1  0.94583800  0.27425300  0.85625800  1
  Li  Li5  1  0.43199700  0.36684300  0.76980900  1
  Li  Li6  1  0.76569200  0.44314900  0.35710600  1
  Li  Li7  1  0.45349200  0.49808600  0.51496500  1
  Li  Li8  1  0.54593200  0.64455200  0.23694900  1
  Li  Li9  1  0.34951200  0.76508900  0.46801400  1
  Li  Li10  1  0.03807100  0.72549500  0.15568700  1
  Li  Li11  1  0.26698100  0.85353900  0.94783300  1
  Mn  Mn0  1  0.25545000  0.24799100  0.24524600  1
  Mn  Mn1  1  0.97374400  0.74029800  0.52642400  1
  Mn  Mn2  1  0.75248800  0.75884300  0.74223600  1
  Mn  Mn3  1  0.52962000  0.97309000  0.76214400  1
  V  V0  1  0.47587700  0.02914800  0.26247400  1
  V  V1  1  0.03626500  0.24873000  0.46586600  1
  V  V2  1  0.24164300  0.46874900  0.01951600  1
  V  V3  1  0.74752300  0.53694100  0.96065000  1
  P  P0  1  0.85413700  0.05420200  0.67441900  1
  P  P1  1  0.33019800  0.14634600  0.95568300  1
  P  P2  1  0.35719500  0.17186000  0.55463900  1
  P  P3  1  0.94708300  0.32817400  0.14377800  1
  P  P4  1  0.54718500  0.35440400  0.16763300  1
  P  P5  1  0.83574700  0.44848400  0.64301000  1
  P  P6  1  0.18005300  0.54515600  0.33810700  1
  P  P7  1  0.45240200  0.64802800  0.81605600  1
  P  P8  1  0.04758600  0.67828500  0.84633100  1
  P  P9  1  0.65460100  0.82597700  0.45176700  1
  P  P10  1  0.67039900  0.85218400  0.05034300  1
  P  P11  1  0.15232600  0.95009900  0.32424700  1
  O  O0  1  0.40356700  0.03353600  0.62755900  1
  O  O1  1  0.22272200  0.05343700  0.91135600  1
  O  O2  1  0.12562800  0.11129600  0.33042700  1
  O  O3  1  0.33364600  0.12135900  0.11775300  1
  O  O4  1  0.70097000  0.09360600  0.69509500  1
  O  O5  1  0.47377700  0.11219500  0.89545200  1
  O  O6  1  0.94484500  0.09853600  0.78480700  1
  O  O7  1  0.90092200  0.11803500  0.53257900  1
  O  O8  1  0.38646600  0.16396200  0.39813600  1
  O  O9  1  0.20174200  0.18662000  0.58934800  1
  O  O10  1  0.58197800  0.19939100  0.19418700  1
  O  O11  1  0.90142900  0.21207400  0.06100900  1
  O  O12  1  0.10508000  0.33307200  0.11496600  1
  O  O13  1  0.44219500  0.28847100  0.59726900  1
  O  O14  1  0.30065200  0.30021500  0.91661600  1
  O  O15  1  0.91184600  0.31168100  0.29949500  1
  O  O16  1  0.38506500  0.37607000  0.16192300  1
  O  O17  1  0.17565700  0.38246000  0.36985300  1
  O  O18  1  0.60900800  0.39863900  0.02663700  1
  O  O19  1  0.97344600  0.37563300  0.60570100  1
  O  O20  1  0.72251000  0.40600300  0.55494400  1
  O  O21  1  0.59010200  0.44193800  0.27951900  1
  O  O22  1  0.80679900  0.41629400  0.79901400  1
  O  O23  1  0.88189400  0.46684700  0.09226000  1
  O  O24  1  0.10384100  0.53311000  0.88984800  1
  O  O25  1  0.19031500  0.57803600  0.18071700  1
  O  O26  1  0.30281200  0.59138400  0.40803900  1
  O  O27  1  0.41699300  0.56325000  0.70017100  1
  O  O28  1  0.04174700  0.60865300  0.38274500  1
  O  O29  1  0.38798500  0.59337400  0.95424500  1
  O  O30  1  0.84858100  0.60735900  0.61586700  1
  O  O31  1  0.61501600  0.63061600  0.82593100  1
  O  O32  1  0.68645400  0.69434600  0.08173400  1
  O  O33  1  0.08602300  0.71194300  0.69514700  1
  O  O34  1  0.55695900  0.72008100  0.40976500  1
  O  O35  1  0.88449500  0.67528000  0.86958900  1
  O  O36  1  0.09163300  0.78186400  0.94309700  1
  O  O37  1  0.80575900  0.79599600  0.41631100  1
  O  O38  1  0.40982200  0.80129700  0.80262700  1
  O  O39  1  0.62687100  0.83248700  0.61297500  1
  O  O40  1  0.09871100  0.88022000  0.46106300  1
  O  O41  1  0.08727400  0.90609900  0.19928500  1
  O  O42  1  0.53534100  0.89528700  0.12515100  1
  O  O43  1  0.30964200  0.91952600  0.32391200  1
  O  O44  1  0.65441100  0.88311600  0.89132000  1
  O  O45  1  0.79059200  0.93386600  0.08615900  1
  O  O46  1  0.87582200  0.89504000  0.67060400  1
  O  O47  1  0.61161400  0.97079800  0.39259000  1
loop_
_geom_bond_atom_site_label_1
_geom_bond_atom_site_label_2
_geom_bond_distance
_geom_bond_site_symmetry_2
Li0 O45 2.019257 1_545
Li0 O41 2.028505 1_645
Li0 O11 2.194922 1_555
Li1 O1 1.919356 1_555
Li1 O6 1.983766 1_455
Li1 O9 1.994906 1_555
Li2 O11 1.895775 1_555
Li2 O10 1.970547 1_555
Li2 O45 2.006648 1_545
Li3 O20 1.919717 1_555
Li3 O4 1.947992 1_555
Li3 O13 2.075349 1_555
Li4 O6 1.914167 1_555
Li4 O22 1.992293 1_555
Li4 O11 2.102441 1_556
Li5 O13 1.913052 1_555
Li5 O14 1.990094 1_555
Li5 O27 2.013253 1_555
Li6 O21 1.922971 1_555
Li6 O15 1.986491 1_555
Li6 O20 1.990867 1_555
Li7 O27 1.989634 1_555
Li7 O26 2.017108 1_555
Li7 O13 2.174359 1_555
Li8 O34 1.915251 1_555
Li8 O21 2.047765 1_555
Li8 O32 2.061268 1_555
Li9 O26 1.927946 1_555
Li9 O43 2.052092 1_555
Li9 O34 2.131548 1_555
Li10 O41 1.944050 1_555
Li10 O25 2.057908 1_555
Li10 O36 2.179262 1_554
Li10 O28 2.451063 1_555
Li11 O36 1.892997 1_555
Li11 O1 2.014104 1_565
Li11 O38 2.035676 1_555
Mn0 O3 1.943396 1_555
Mn0 O16 1.945005 1_555
Mn0 O17 1.982730 1_555
Mn0 O2 2.008505 1_555
Mn0 O12 2.117499 1_555
Mn0 O8 2.134854 1_555
Mn1 O40 1.941086 1_655
Mn1 O30 1.969861 1_555
Mn1 O33 2.039155 1_655
Mn1 O28 2.056918 1_655
Mn1 O37 2.057314 1_555
Mn1 O46 2.307736 1_555
Mn2 O39 1.907043 1_555
Mn2 O46 1.921711 1_555
Mn2 O35 1.969071 1_555
Mn2 O31 1.999072 1_555
Mn2 O44 2.147259 1_555
Mn2 O30 2.169461 1_555
Mn3 O0 1.910292 1_565
Mn3 O44 1.957297 1_555
Mn3 O5 2.006827 1_565
Mn3 O38 2.106455 1_555
Mn3 O4 2.152967 1_565
Mn3 O39 2.244935 1_555
O0 P2 1.561155 1_555
O1 P1 1.523456 1_555
O2 P11 1.605471 1_545
O2 V1 2.105488 1_555
O3 P1 1.603543 1_554
O3 V0 2.177215 1_555
O4 P0 1.548665 1_555
O5 P1 1.539923 1_555
O6 P0 1.536236 1_555
O7 P0 1.552569 1_555
O7 V1 1.950119 1_655
O8 P2 1.564014 1_555
O8 V0 2.089906 1_555
O9 P2 1.554450 1_555
O9 V1 2.126036 1_555
O10 P4 1.560710 1_555
O10 V0 2.068542 1_555
O11 P3 1.542377 1_555
O12 P3 1.568620 1_455
O12 V2 2.081393 1_555
O13 P2 1.539723 1_555
O14 P1 1.559682 1_555
O14 V2 2.055181 1_556
O15 P3 1.558243 1_555
O15 V1 2.138583 1_655
O16 P4 1.603824 1_555
O16 V2 2.171636 1_555
O17 P6 1.615537 1_555
O17 V1 2.089573 1_555
O18 P4 1.534594 1_555
O18 V3 2.020223 1_554
O19 P5 1.548677 1_555
O19 V1 1.985260 1_655
O20 P5 1.532370 1_555
O21 P4 1.530389 1_555
O22 P5 1.565795 1_555
O22 V3 2.100130 1_555
O23 P3 1.551986 1_555
O23 V3 1.970530 1_554
O24 P8 1.554994 1_555
O24 V2 1.966289 1_556
O25 P6 1.564521 1_555
O25 V2 2.014214 1_555
O26 P6 1.518561 1_555
O27 P7 1.521838 1_555
O28 P6 1.533138 1_555
O29 P7 1.548422 1_555
O29 V2 1.985068 1_556
O30 P5 1.580303 1_555
O31 P7 1.608947 1_555
O31 V3 2.055635 1_555
O32 P10 1.569595 1_555
O32 V3 2.074698 1_554
O33 P8 1.539068 1_555
O34 P9 1.535591 1_555
O35 P8 1.610897 1_655
O35 V3 2.084984 1_555
O36 P8 1.531850 1_555
O37 P9 1.533238 1_555
O38 P7 1.551047 1_555
O39 P9 1.606309 1_555
O40 P11 1.552992 1_555
O41 P11 1.512038 1_555
O42 P10 1.547710 1_555
O42 V0 2.006045 1_565
O43 P11 1.564858 1_555
O43 V0 2.040890 1_565
O44 P10 1.592436 1_556
O45 P10 1.524163 1_555
O46 P0 1.578138 1_565
O47 P9 1.556738 1_555
O47 V0 1.940704 1_565
