# generated using pymatgen
data_Li4MnCr3O8
_symmetry_space_group_name_H-M   'P 1'
_cell_length_a   5.95795616
_cell_length_b   5.95795616
_cell_length_c   5.90544564
_cell_angle_alpha   60.53089605
_cell_angle_beta   60.53089605
_cell_angle_gamma   59.27015554
_symmetry_Int_Tables_number   1
_chemical_formula_structural   Li4MnCr3O8
_chemical_formula_sum   'Li4 Mn1 Cr3 O8'
_cell_volume   148.55288803
_cell_formula_units_Z   1
loop_
 _symmetry_equiv_pos_site_id
 _symmetry_equiv_pos_as_xyz
  1  'x, y, z'
loop_
 _atom_site_type_symbol
 _atom_site_label
 _atom_site_symmetry_multiplicity
 _atom_site_fract_x
 _atom_site_fract_y
 _atom_site_fract_z
 _atom_site_occupancy
  Li  Li0  1  0.50000000  0.50000000  0.00000000  1
  Li  Li1  1  0.00000000  0.50000000  0.50000000  1
  Li  Li2  1  0.50000000  0.00000000  0.50000000  1
  Li  Li3  1  0.00000000  0.00000000  0.00000000  1
  Mn  Mn0  1  0.00000000  0.00000000  0.50000000  1
  Cr  Cr0  1  0.50000000  0.00000000  0.00000000  1
  Cr  Cr1  1  0.00000000  0.50000000  0.00000000  1
  Cr  Cr2  1  0.50000000  0.50000000  0.50000000  1
  O  O0  1  0.73826500  0.73826500  0.24768500  1
  O  O1  1  0.23220500  0.74482400  0.74162800  1
  O  O2  1  0.74482400  0.23220500  0.74162800  1
  O  O3  1  0.26173500  0.26173500  0.75231500  1
  O  O4  1  0.25836700  0.25836600  0.22520100  1
  O  O5  1  0.76779500  0.25517600  0.25837200  1
  O  O6  1  0.25517600  0.76779500  0.25837200  1
  O  O7  1  0.74163400  0.74163400  0.77479900  1
loop_
_geom_bond_atom_site_label_1
_geom_bond_atom_site_label_2
_geom_bond_distance
_geom_bond_site_symmetry_2
Li0 O4 2.065031 1_555
Li0 O7 2.065036 1_554
Li0 O1 2.197362 1_554
Li0 O5 2.197362 1_555
Li0 O6 2.197362 1_555
Li0 O2 2.197362 1_554
Li1 O3 2.147040 1_555
Li1 O0 2.147040 1_455
Li1 O7 2.156771 1_455
Li1 O4 2.156771 1_555
Li1 O2 2.235545 1_455
Li1 O6 2.235545 1_555
Li2 O3 2.147040 1_555
Li2 O0 2.147040 1_545
Li2 O4 2.156767 1_555
Li2 O7 2.156771 1_545
Li2 O1 2.235545 1_545
Li2 O5 2.235545 1_555
Li3 O6 2.146940 1_545
Li3 O1 2.146940 1_544
Li3 O5 2.146940 1_455
Li3 O2 2.146940 1_454
Li3 O3 2.236002 1_554
Li3 O0 2.236002 1_445
Mn0 O2 1.979843 1_455
Mn0 O6 1.979843 1_545
Mn0 O1 1.979843 1_545
Mn0 O5 1.979843 1_455
Mn0 O7 2.208743 1_445
Mn0 O4 2.208747 1_555
Cr0 O7 2.019017 1_544
Cr0 O4 2.019017 1_555
Cr0 O0 2.030469 1_545
Cr0 O3 2.030469 1_554
Cr0 O6 2.040917 1_545
Cr0 O2 2.040917 1_554
Cr1 O7 2.019017 1_454
Cr1 O4 2.019021 1_555
Cr1 O0 2.030469 1_455
Cr1 O3 2.030469 1_554
Cr1 O5 2.040917 1_455
Cr1 O1 2.040917 1_554
Cr2 O5 2.034410 1_555
Cr2 O6 2.034410 1_555
Cr2 O1 2.034410 1_555
Cr2 O2 2.034410 1_555
Cr2 O3 2.036592 1_555
Cr2 O0 2.036592 1_555
