# generated using pymatgen
data_LiMnVO4
_symmetry_space_group_name_H-M   'P 1'
_cell_length_a   4.99937300
_cell_length_b   6.27652900
_cell_length_c   10.79546301
_cell_angle_alpha   89.99948433
_cell_angle_beta   89.99583367
_cell_angle_gamma   89.99972553
_symmetry_Int_Tables_number   1
_chemical_formula_structural   LiMnVO4
_chemical_formula_sum   'Li4 Mn4 V4 O16'
_cell_volume   338.74769819
_cell_formula_units_Z   4
loop_
 _symmetry_equiv_pos_site_id
 _symmetry_equiv_pos_as_xyz
  1  'x, y, z'
loop_
 _atom_site_type_symbol
 _atom_site_label
 _atom_site_symmetry_multiplicity
 _atom_site_fract_x
 _atom_site_fract_y
 _atom_site_fract_z
 _atom_site_occupancy
  Li  Li0  1  0.99999800  0.00000900  0.00000300  1
  Li  Li1  1  0.50000500  0.00000200  0.50000000  1
  Li  Li2  1  0.99999800  0.49999300  0.00000300  1
  Li  Li3  1  0.50000400  0.50000000  0.50000100  1
  Mn  Mn0  1  0.51545600  0.25001000  0.77330800  1
  Mn  Mn1  1  0.48449900  0.74997600  0.22669400  1
  Mn  Mn2  1  0.98461900  0.25000200  0.27328000  1
  Mn  Mn3  1  0.01539500  0.75000500  0.72672100  1
  V  V0  1  0.07524600  0.25000200  0.59095100  1
  V  V1  1  0.92475500  0.75000200  0.40904600  1
  V  V2  1  0.42474400  0.24999500  0.09087400  1
  V  V3  1  0.57526200  0.75000200  0.90912400  1
  O  O0  1  0.21166200  0.25000200  0.44278700  1
  O  O1  1  0.28832600  0.25000000  0.94270900  1
  O  O2  1  0.78834300  0.75000100  0.55721200  1
  O  O3  1  0.71166500  0.74999800  0.05729800  1
  O  O4  1  0.77312000  0.25000100  0.09411600  1
  O  O5  1  0.72685800  0.25000200  0.59415200  1
  O  O6  1  0.27314300  0.75000000  0.40585000  1
  O  O7  1  0.22688000  0.75000000  0.90588200  1
  O  O8  1  0.27727600  0.03005100  0.16490100  1
  O  O9  1  0.22273800  0.03006400  0.66495800  1
  O  O10  1  0.27726500  0.46993900  0.16489800  1
  O  O11  1  0.22273500  0.46993900  0.66495900  1
  O  O12  1  0.72273900  0.53004800  0.83509600  1
  O  O13  1  0.77726600  0.53006200  0.33504000  1
  O  O14  1  0.77726700  0.96994000  0.33504000  1
  O  O15  1  0.72273500  0.96995900  0.83509700  1
loop_
_geom_bond_atom_site_label_1
_geom_bond_atom_site_label_2
_geom_bond_distance
_geom_bond_site_symmetry_2
Li0 O4 2.186464 1_555
Li0 O7 2.186591 1_644
Li0 O1 2.218612 1_654
Li0 O3 2.218720 1_545
Li0 O8 2.264167 1_655
Li0 O15 2.264193 1_544
Li1 O5 2.186715 1_555
Li1 O6 2.186737 1_545
Li1 O2 2.218491 1_545
Li1 O0 2.218506 1_555
Li1 O9 2.264493 1_555
Li1 O14 2.264495 1_545
Li2 O4 2.186458 1_555
Li2 O7 2.186576 1_654
Li2 O1 2.218619 1_654
Li2 O3 2.218691 1_555
Li2 O10 2.264110 1_655
Li2 O12 2.264188 1_554
Li3 O5 2.186683 1_555
Li3 O6 2.186710 1_555
Li3 O2 2.218509 1_555
Li3 O0 2.218514 1_555
Li3 O11 2.264498 1_555
Li3 O13 2.264502 1_555
Mn0 O12 2.146706 1_555
Mn0 O15 2.146749 1_545
Mn0 O1 2.152544 1_555
Mn0 O5 2.203934 1_555
Mn0 O11 2.327107 1_555
Mn0 O9 2.327187 1_555
Mn1 O10 2.146609 1_555
Mn1 O8 2.146750 1_565
Mn1 O3 2.152593 1_555
Mn1 O6 2.203824 1_555
Mn1 O13 2.327180 1_555
Mn1 O14 2.327390 1_555
Mn2 O13 2.146839 1_555
Mn2 O14 2.146845 1_545
Mn2 O0 2.153427 1_655
Mn2 O4 2.204378 1_555
Mn2 O10 2.326982 1_655
Mn2 O8 2.327056 1_655
Mn3 O9 2.146818 1_565
Mn3 O11 2.146845 1_555
Mn3 O2 2.153470 1_455
Mn3 O7 2.204316 1_555
Mn3 O12 2.327049 1_455
Mn3 O15 2.327060 1_455
O0 V0 1.738780 1_555
O1 V2 1.738885 1_556
O2 V1 1.738792 1_555
O3 V3 1.738945 1_554
O4 V2 1.742016 1_555
O5 V0 1.742062 1_655
O6 V1 1.742061 1_455
O7 V3 1.742046 1_555
O8 V2 1.757221 1_555
O9 V0 1.757187 1_555
O10 V2 1.757235 1_555
O11 V0 1.757198 1_555
O12 V3 1.757300 1_555
O13 V1 1.757203 1_555
O14 V1 1.757174 1_555
O15 V3 1.757296 1_555
