# generated using pymatgen
data_CaP3H16(NO4)3
_symmetry_space_group_name_H-M   'P 1'
_cell_length_a   20.70775500
_cell_length_b   7.03561700
_cell_length_c   11.74451404
_cell_angle_alpha   62.10075224
_cell_angle_beta   90.00000000
_cell_angle_gamma   90.00000000
_symmetry_Int_Tables_number   1
_chemical_formula_structural   CaP3H16(NO4)3
_chemical_formula_sum   'Ca4 P12 H64 N12 O48'
_cell_volume   1512.20401101
_cell_formula_units_Z   4
loop_
 _symmetry_equiv_pos_site_id
 _symmetry_equiv_pos_as_xyz
  1  'x, y, z'
loop_
 _atom_site_type_symbol
 _atom_site_label
 _atom_site_symmetry_multiplicity
 _atom_site_fract_x
 _atom_site_fract_y
 _atom_site_fract_z
 _atom_site_occupancy
  Ca  Ca0  1  0.83408500  0.39154100  0.96763200  1
  Ca  Ca1  1  0.66591500  0.39154100  0.46763200  1
  Ca  Ca2  1  0.16591500  0.60845900  0.03236800  1
  Ca  Ca3  1  0.33408500  0.60845900  0.53236800  1
  P  P0  1  0.70642100  0.95353900  0.40531900  1
  P  P1  1  0.79357900  0.95353900  0.90531900  1
  P  P2  1  0.29357900  0.04646100  0.59468100  1
  P  P3  1  0.20642100  0.04646100  0.09468100  1
  P  P4  1  0.68987700  0.37504600  0.17011500  1
  P  P5  1  0.81012300  0.37504600  0.67011500  1
  P  P6  1  0.31012300  0.62495400  0.82988500  1
  P  P7  1  0.18987700  0.62495400  0.32988500  1
  P  P8  1  0.51850200  0.48447200  0.29332300  1
  P  P9  1  0.98149800  0.48447200  0.79332300  1
  P  P10  1  0.48149800  0.51552800  0.70667700  1
  P  P11  1  0.01850200  0.51552800  0.20667700  1
  H  H0  1  0.66260100  0.15013100  0.75147900  1
  H  H1  1  0.83739900  0.15013100  0.25147900  1
  H  H2  1  0.33739900  0.84986900  0.24852100  1
  H  H3  1  0.16260100  0.84986900  0.74852100  1
  H  H4  1  0.60058000  0.30537600  0.70133200  1
  H  H5  1  0.89942000  0.30537600  0.20133200  1
  H  H6  1  0.39942000  0.69462400  0.29866800  1
  H  H7  1  0.10058000  0.69462400  0.79866800  1
  H  H8  1  0.54016100  0.80685800  0.92278000  1
  H  H9  1  0.95983900  0.80685800  0.42278000  1
  H  H10  1  0.45983900  0.19314200  0.07722000  1
  H  H11  1  0.04016100  0.19314200  0.57722000  1
  H  H12  1  0.42559200  0.59357400  0.84936400  1
  H  H13  1  0.07440800  0.59357400  0.34936400  1
  H  H14  1  0.57440800  0.40642600  0.15063600  1
  H  H15  1  0.92559200  0.40642600  0.65063600  1
  H  H16  1  0.38857200  0.88709400  0.99737700  1
  H  H17  1  0.11142800  0.88709400  0.49737700  1
  H  H18  1  0.61142800  0.11290600  0.00262300  1
  H  H19  1  0.88857200  0.11290600  0.50262300  1
  H  H20  1  0.32566500  0.03596400  0.00758900  1
  H  H21  1  0.17433500  0.03596400  0.50758900  1
  H  H22  1  0.67433500  0.96403600  0.99241100  1
  H  H23  1  0.82566500  0.96403600  0.49241100  1
  H  H24  1  0.38397000  0.14315900  0.88383400  1
  H  H25  1  0.11603000  0.14315900  0.38383400  1
  H  H26  1  0.61603000  0.85684100  0.11616600  1
  H  H27  1  0.88397000  0.85684100  0.61616600  1
  H  H28  1  0.33023800  0.95889300  0.88852500  1
  H  H29  1  0.16976200  0.95889300  0.38852500  1
  H  H30  1  0.66976200  0.04110700  0.11147500  1
  H  H31  1  0.83023800  0.04110700  0.61147500  1
  H  H32  1  0.87368900  0.67502000  0.26662500  1
  H  H33  1  0.62631100  0.67502000  0.76662500  1
  H  H34  1  0.12631100  0.32498000  0.73337500  1
  H  H35  1  0.37368900  0.32498000  0.23337500  1
  H  H36  1  0.81413200  0.79929300  0.31124100  1
  H  H37  1  0.68586800  0.79929300  0.81124100  1
  H  H38  1  0.18586800  0.20070700  0.68875900  1
  H  H39  1  0.31413200  0.20070700  0.18875900  1
  H  H40  1  0.82467900  0.86098900  0.15214900  1
  H  H41  1  0.67532100  0.86098900  0.65214900  1
  H  H42  1  0.17532100  0.13901100  0.84785100  1
  H  H43  1  0.32467900  0.13901100  0.34785100  1
  H  H44  1  0.79491100  0.62042200  0.25788700  1
  H  H45  1  0.70508900  0.62042200  0.75788700  1
  H  H46  1  0.20508900  0.37957800  0.74211300  1
  H  H47  1  0.29491100  0.37957800  0.24211300  1
  H  H48  1  0.58235800  0.84163000  0.43009300  1
  H  H49  1  0.91764200  0.84163000  0.93009300  1
  H  H50  1  0.41764200  0.15837000  0.56990700  1
  H  H51  1  0.08235800  0.15837000  0.06990700  1
  H  H52  1  0.53303000  0.05206700  0.33748900  1
  H  H53  1  0.96697000  0.05206700  0.83748900  1
  H  H54  1  0.46697000  0.94793300  0.66251100  1
  H  H55  1  0.03303000  0.94793300  0.16251100  1
  H  H56  1  0.50085200  0.80818400  0.45042300  1
  H  H57  1  0.99914800  0.80818400  0.95042300  1
  H  H58  1  0.49914800  0.19181600  0.54957700  1
  H  H59  1  0.00085200  0.19181600  0.04957700  1
  H  H60  1  0.53833300  0.83124600  0.31462400  1
  H  H61  1  0.96166700  0.83124600  0.81462400  1
  H  H62  1  0.46166700  0.16875400  0.68537600  1
  H  H63  1  0.03833300  0.16875400  0.18537600  1
  N  N0  1  0.64323300  0.99204400  0.05570100  1
  N  N1  1  0.85676700  0.99204400  0.55570100  1
  N  N2  1  0.35676700  0.00795600  0.94429900  1
  N  N3  1  0.14323300  0.00795600  0.44429900  1
  N  N4  1  0.67230600  0.73723000  0.74893600  1
  N  N5  1  0.82769400  0.73723000  0.24893600  1
  N  N6  1  0.32769400  0.26277000  0.25106400  1
  N  N7  1  0.17230600  0.26277000  0.75106400  1
  N  N8  1  0.53785300  0.88618200  0.38417600  1
  N  N9  1  0.96214700  0.88618200  0.88417600  1
  N  N10  1  0.46214700  0.11381800  0.61582400  1
  N  N11  1  0.03785300  0.11381800  0.11582400  1
  O  O0  1  0.62747100  0.45573400  0.08907000  1
  O  O1  1  0.87252900  0.45573400  0.58907000  1
  O  O2  1  0.37252900  0.54426600  0.91093000  1
  O  O3  1  0.12747100  0.54426600  0.41093000  1
  O  O4  1  0.70495600  0.48437600  0.25305600  1
  O  O5  1  0.79504400  0.48437600  0.75305600  1
  O  O6  1  0.29504400  0.51562400  0.74694400  1
  O  O7  1  0.20495600  0.51562400  0.24694400  1
  O  O8  1  0.44509000  0.48658500  0.30924100  1
  O  O9  1  0.05491000  0.48658500  0.80924100  1
  O  O10  1  0.55491000  0.51341500  0.69075900  1
  O  O11  1  0.94509000  0.51341500  0.19075900  1
  O  O12  1  0.55450700  0.36312300  0.42385900  1
  O  O13  1  0.94549300  0.36312300  0.92385900  1
  O  O14  1  0.44549300  0.63687700  0.57614100  1
  O  O15  1  0.05450700  0.63687700  0.07614100  1
  O  O16  1  0.67063600  0.74677700  0.43568000  1
  O  O17  1  0.82936400  0.74677700  0.93568000  1
  O  O18  1  0.32936400  0.25322300  0.56432000  1
  O  O19  1  0.17063600  0.25322300  0.06432000  1
  O  O20  1  0.67319100  0.12168000  0.26620400  1
  O  O21  1  0.82680900  0.12168000  0.76620400  1
  O  O22  1  0.32680900  0.87832000  0.73379600  1
  O  O23  1  0.17319100  0.87832000  0.23379600  1
  O  O24  1  0.69121400  0.04230300  0.49946600  1
  O  O25  1  0.80878600  0.04230300  0.99946600  1
  O  O26  1  0.30878600  0.95769700  0.50053400  1
  O  O27  1  0.19121400  0.95769700  0.00053400  1
  O  O28  1  0.74314600  0.37670600  0.08200900  1
  O  O29  1  0.75685400  0.37670600  0.58200900  1
  O  O30  1  0.25685400  0.62329400  0.91799100  1
  O  O31  1  0.24314600  0.62329400  0.41799100  1
  O  O32  1  0.77944900  0.95150300  0.38104700  1
  O  O33  1  0.72055100  0.95150300  0.88104700  1
  O  O34  1  0.22055100  0.04849700  0.61895300  1
  O  O35  1  0.27944900  0.04849700  0.11895300  1
  O  O36  1  0.52968900  0.35504600  0.21508900  1
  O  O37  1  0.97031100  0.35504600  0.71508900  1
  O  O38  1  0.47031100  0.64495400  0.78491100  1
  O  O39  1  0.02968900  0.64495400  0.28491100  1
  O  O40  1  0.87277700  0.19924000  0.18787900  1
  O  O41  1  0.62722300  0.19924000  0.68787900  1
  O  O42  1  0.12722300  0.80076000  0.81212100  1
  O  O43  1  0.37277700  0.80076000  0.31212100  1
  O  O44  1  0.54722900  0.71365900  0.21926100  1
  O  O45  1  0.95277100  0.71365900  0.71926100  1
  O  O46  1  0.45277100  0.28634100  0.78073900  1
  O  O47  1  0.04722900  0.28634100  0.28073900  1
loop_
_geom_bond_atom_site_label_1
_geom_bond_atom_site_label_2
_geom_bond_distance
_geom_bond_site_symmetry_2
Ca0 O28 2.287001 1_556
Ca0 O17 2.349295 1_555
Ca0 O25 2.364719 1_555
Ca0 O13 2.392227 1_555
Ca0 O40 2.426583 1_556
Ca0 O5 2.427070 1_555
Ca1 O29 2.287001 1_555
Ca1 O16 2.349295 1_555
Ca1 O24 2.364719 1_555
Ca1 O12 2.392227 1_555
Ca1 O41 2.426583 1_555
Ca1 O4 2.427070 1_555
Ca2 O30 2.287001 1_554
Ca2 O19 2.349295 1_555
Ca2 O27 2.364719 1_555
Ca2 O15 2.392227 1_555
Ca2 O42 2.426583 1_554
Ca2 O7 2.427070 1_555
Ca3 O31 2.287001 1_555
Ca3 O18 2.349295 1_555
Ca3 O26 2.364719 1_555
Ca3 O14 2.392227 1_555
Ca3 O43 2.426583 1_555
Ca3 O6 2.427070 1_555
H0 O41 0.986151 1_555
H1 O40 0.986151 1_555
H2 O43 0.986151 1_555
H3 O42 0.986151 1_555
H4 O41 0.998688 1_555
H4 O10 1.697671 1_555
H5 O40 0.998688 1_555
H5 O11 1.697671 1_555
H6 O43 0.998688 1_555
H6 O8 1.697671 1_555
H7 O42 0.998688 1_555
H7 O9 1.697671 1_555
H12 O38 1.142423 1_555
H12 O2 1.271149 1_555
H13 O39 1.142423 1_555
H13 O3 1.271149 1_555
H14 O36 1.142423 1_555
H14 O0 1.271149 1_555
H15 O37 1.142423 1_555
H15 O1 1.271149 1_555
H16 N2 1.024388 1_565
H17 N3 1.024388 1_565
H18 N0 1.024388 1_545
H19 N1 1.024388 1_545
H20 N2 1.069214 1_554
H20 O35 1.655975 1_555
H21 N3 1.069214 1_555
H21 O34 1.655975 1_555
H22 N0 1.069214 1_556
H22 O33 1.655975 1_555
H23 N1 1.069214 1_555
H23 O32 1.655975 1_555
H24 N2 1.046088 1_555
H25 N3 1.046088 1_555
H26 N0 1.046088 1_555
H27 N1 1.046088 1_555
H28 N2 1.030352 1_565
H29 N3 1.030352 1_565
H30 N0 1.030352 1_545
H31 N1 1.030352 1_545
H32 N5 1.028008 1_555
H33 N4 1.028008 1_555
H34 N7 1.028008 1_555
H35 N6 1.028008 1_555
H36 N5 1.050712 1_555
H37 N4 1.050712 1_555
H38 N7 1.050712 1_555
H39 N6 1.050712 1_555
H40 N5 1.062036 1_555
H40 O25 1.676429 1_564
H41 N4 1.062036 1_555
H41 O24 1.676429 1_565
H42 N7 1.062036 1_555
H42 O27 1.676429 1_546
H43 N6 1.062036 1_555
H43 O26 1.676429 1_545
H44 N5 1.032684 1_555
H45 N4 1.032684 1_555
H46 N7 1.032684 1_555
H47 N6 1.032684 1_555
H48 N8 1.039337 1_555
H49 N9 1.039337 1_555
H50 N10 1.039337 1_555
H51 N11 1.039337 1_555
H52 N8 1.036279 1_545
H53 N9 1.036279 1_545
H54 N10 1.036279 1_565
H55 N11 1.036279 1_565
H56 N8 1.045943 1_555
H57 N9 1.045943 1_555
H58 N10 1.045943 1_555
H59 N11 1.045943 1_555
H60 N8 1.054610 1_555
H60 O44 1.685186 1_555
H61 N9 1.054610 1_555
H61 O45 1.685186 1_555
H62 N10 1.054610 1_555
H62 O46 1.685186 1_555
H63 N11 1.054610 1_555
H63 O47 1.685186 1_555
O0 P4 1.546801 1_555
O1 P5 1.546801 1_555
O2 P6 1.546801 1_555
O3 P7 1.546801 1_555
O4 P4 1.529463 1_555
O5 P5 1.529463 1_555
O6 P6 1.529463 1_555
O7 P7 1.529463 1_555
O8 P8 1.532571 1_555
O9 P9 1.532571 1_455
O10 P10 1.532571 1_555
O11 P11 1.532571 1_655
O12 P8 1.552495 1_555
O13 P9 1.552495 1_555
O14 P10 1.552495 1_555
O15 P11 1.552495 1_555
O16 P0 1.518877 1_555
O17 P1 1.518877 1_555
O18 P2 1.518877 1_555
O19 P3 1.518877 1_555
O20 P4 1.639498 1_555
O20 P0 1.653357 1_545
O21 P5 1.639498 1_555
O21 P1 1.653357 1_545
O22 P6 1.639498 1_555
O22 P2 1.653357 1_565
O23 P7 1.639498 1_555
O23 P3 1.653357 1_565
O24 P0 1.535576 1_545
O25 P1 1.535576 1_545
O26 P2 1.535576 1_565
O27 P3 1.535576 1_565
O28 P4 1.508757 1_555
O29 P5 1.508757 1_555
O30 P6 1.508757 1_555
O31 P7 1.508757 1_555
O32 P0 1.540187 1_555
O33 P1 1.540187 1_555
O34 P2 1.540187 1_555
O35 P3 1.540187 1_555
O36 P8 1.584317 1_555
O37 P9 1.584317 1_555
O38 P10 1.584317 1_555
O39 P11 1.584317 1_555
O44 P8 1.548534 1_555
O45 P9 1.548534 1_555
O46 P10 1.548534 1_555
O47 P11 1.548534 1_555
