# generated using pymatgen
data_Li32Ti13Cr3O48
_symmetry_space_group_name_H-M   'P 1'
_cell_length_a   5.08462600
_cell_length_b   8.83329700
_cell_length_c   19.63116720
_cell_angle_alpha   98.32689647
_cell_angle_beta   94.70945148
_cell_angle_gamma   89.81914753
_symmetry_Int_Tables_number   1
_chemical_formula_structural   Li32Ti13Cr3O48
_chemical_formula_sum   'Li32 Ti13 Cr3 O48'
_cell_volume   869.43984797
_cell_formula_units_Z   1
loop_
 _symmetry_equiv_pos_site_id
 _symmetry_equiv_pos_as_xyz
  1  'x, y, z'
loop_
 _atom_site_type_symbol
 _atom_site_label
 _atom_site_symmetry_multiplicity
 _atom_site_fract_x
 _atom_site_fract_y
 _atom_site_fract_z
 _atom_site_occupancy
  Li  Li0  1  0.98948100  0.16790400  0.25034500  1
  Li  Li1  1  0.87429600  0.37339900  0.37478700  1
  Li  Li2  1  0.75217900  0.24899800  0.99939900  1
  Li  Li3  1  0.74317400  0.92106500  0.99980100  1
  Li  Li4  1  0.99036200  0.16882900  0.74999000  1
  Li  Li5  1  0.75613700  0.58029500  0.49964300  1
  Li  Li6  1  0.87567700  0.37349400  0.87511600  1
  Li  Li7  1  0.75541100  0.24843400  0.49971900  1
  Li  Li8  1  0.74312700  0.92043600  0.49964900  1
  Li  Li9  1  0.62492400  0.12504300  0.12494100  1
  Li  Li10  1  0.75735300  0.58013700  0.99954700  1
  Li  Li11  1  0.50930300  0.33168200  0.25008900  1
  Li  Li12  1  0.62640600  0.12524100  0.62478800  1
  Li  Li13  1  0.50340500  0.99996700  0.25002700  1
  Li  Li14  1  0.48968600  0.66751100  0.24940500  1
  Li  Li15  1  0.50533000  0.33186400  0.74994700  1
  Li  Li16  1  0.37360500  0.87548900  0.37520600  1
  Li  Li17  1  0.50564200  0.99809500  0.75064400  1
  Li  Li18  1  0.25138100  0.74930400  0.00035600  1
  Li  Li19  1  0.48954500  0.66900700  0.74974900  1
  Li  Li20  1  0.24261500  0.42067300  0.00050600  1
  Li  Li21  1  0.37604100  0.87559600  0.87487900  1
  Li  Li22  1  0.25218100  0.07971800  0.49985200  1
  Li  Li23  1  0.25149800  0.75004200  0.50015500  1
  Li  Li24  1  0.12487300  0.62505600  0.12503200  1
  Li  Li25  1  0.24281800  0.42060000  0.50076200  1
  Li  Li26  1  0.00879700  0.83268200  0.25060600  1
  Li  Li27  1  0.25370400  0.07960800  0.99948600  1
  Li  Li28  1  0.12576200  0.62385200  0.62523500  1
  Li  Li29  1  0.99953200  0.50029100  0.25018600  1
  Li  Li30  1  0.00788000  0.83291400  0.75053900  1
  Li  Li31  1  0.00229600  0.49901100  0.74946400  1
  Ti  Ti0  1  0.87919800  0.71113200  0.37687100  1
  Ti  Ti1  1  0.86837100  0.70961700  0.87331600  1
  Ti  Ti2  1  0.62683500  0.79107600  0.12492300  1
  Ti  Ti3  1  0.62409300  0.45852700  0.12481400  1
  Ti  Ti4  1  0.62278400  0.79131800  0.62518300  1
  Ti  Ti5  1  0.62675900  0.45855900  0.62667500  1
  Ti  Ti6  1  0.37967800  0.54116800  0.37467300  1
  Ti  Ti7  1  0.37163700  0.20775900  0.37345100  1
  Ti  Ti8  1  0.37263100  0.54130000  0.87516900  1
  Ti  Ti9  1  0.37542900  0.20889100  0.87661600  1
  Ti  Ti10  1  0.12418900  0.95882800  0.12504100  1
  Ti  Ti11  1  0.12657700  0.29107800  0.12506300  1
  Ti  Ti12  1  0.11864500  0.95955500  0.62343900  1
  Cr  Cr0  1  0.87088700  0.04044200  0.37513400  1
  Cr  Cr1  1  0.88030400  0.04056500  0.87468400  1
  Cr  Cr2  1  0.13130800  0.29010300  0.62493000  1
  O  O0  1  0.96264500  0.10653700  0.06850100  1
  O  O1  1  0.92897000  0.78475500  0.06826500  1
  O  O2  1  0.92777900  0.42734400  0.06723700  1
  O  O3  1  0.96027700  0.10582000  0.56841700  1
  O  O4  1  0.82133600  0.96544600  0.18159800  1
  O  O5  1  0.82233500  0.32272000  0.18274100  1
  O  O6  1  0.92964700  0.78532600  0.56833400  1
  O  O7  1  0.93027600  0.42459500  0.56821100  1
  O  O8  1  0.78694900  0.64366700  0.18163400  1
  O  O9  1  0.71489200  0.86237000  0.31932800  1
  O  O10  1  0.82153900  0.96564200  0.68167200  1
  O  O11  1  0.82536100  0.32062400  0.68193600  1
  O  O12  1  0.67747100  0.53598500  0.31830500  1
  O  O13  1  0.67440300  0.17846100  0.31714900  1
  O  O14  1  0.78632400  0.64296900  0.68187100  1
  O  O15  1  0.71010700  0.85606600  0.81828800  1
  O  O16  1  0.46262000  0.60652000  0.06836800  1
  O  O17  1  0.57088600  0.71581800  0.43161800  1
  O  O18  1  0.58094600  0.07099100  0.43203700  1
  O  O19  1  0.67911600  0.53530100  0.81816900  1
  O  O20  1  0.68014300  0.17494600  0.81811700  1
  O  O21  1  0.42740300  0.92730700  0.06712000  1
  O  O22  1  0.42863900  0.28456900  0.06834300  1
  O  O23  1  0.53459900  0.39293000  0.43189700  1
  O  O24  1  0.46520000  0.60596500  0.56829100  1
  O  O25  1  0.57164000  0.71554300  0.93162900  1
  O  O26  1  0.57584200  0.07062800  0.93176100  1
  O  O27  1  0.32277900  0.82282000  0.18288100  1
  O  O28  1  0.32142200  0.46547000  0.18164200  1
  O  O29  1  0.42800000  0.92772700  0.56724100  1
  O  O30  1  0.42017800  0.28333000  0.56885000  1
  O  O31  1  0.53652300  0.39307600  0.93189700  1
  O  O32  1  0.28724300  0.14337200  0.18167700  1
  O  O33  1  0.21332300  0.35618500  0.31815800  1
  O  O34  1  0.32367700  0.82423500  0.68288500  1
  O  O35  1  0.32406300  0.46598500  0.68159200  1
  O  O36  1  0.17705400  0.67747800  0.31720600  1
  O  O37  1  0.17434600  0.03315900  0.31932900  1
  O  O38  1  0.28481600  0.14851900  0.68108000  1
  O  O39  1  0.21507400  0.35603600  0.81845800  1
  O  O40  1  0.07136500  0.57340000  0.43297200  1
  O  O41  1  0.06829400  0.21210100  0.43054800  1
  O  O42  1  0.17784400  0.67766700  0.81719800  1
  O  O43  1  0.17096800  0.03341000  0.81882700  1
  O  O44  1  0.04018800  0.89252400  0.43185400  1
  O  O45  1  0.07320500  0.57422000  0.93278000  1
  O  O46  1  0.07349800  0.21578500  0.93148600  1
  O  O47  1  0.03505800  0.89850500  0.93077000  1
loop_
_geom_bond_atom_site_label_1
_geom_bond_atom_site_label_2
_geom_bond_distance
_geom_bond_site_symmetry_2
Li0 O37 2.094028 1_655
Li0 O32 2.098768 1_655
Li0 O13 2.145642 1_555
Li0 O5 2.164922 1_555
Li0 O4 2.207197 1_545
Li0 O33 2.226101 1_655
Li1 O41 2.113496 1_655
Li1 O33 2.120052 1_655
Li1 O23 2.128407 1_555
Li1 O13 2.129858 1_555
Li1 O12 2.136247 1_555
Li1 O40 2.160700 1_655
Li2 O26 2.063241 1_555
Li2 O2 2.063619 1_556
Li2 O46 2.184980 1_655
Li2 O0 2.194669 1_556
Li2 O31 2.195261 1_555
Li2 O22 2.208171 1_556
Li3 O47 2.080613 1_655
Li3 O1 2.098024 1_556
Li3 O26 2.137944 1_565
Li3 O21 2.157353 1_556
Li3 O0 2.207428 1_566
Li3 O25 2.227594 1_555
Li4 O43 2.087541 1_655
Li4 O38 2.089108 1_655
Li4 O20 2.145822 1_555
Li4 O11 2.148089 1_555
Li4 O10 2.209161 1_545
Li4 O39 2.227700 1_655
Li5 O24 2.071865 1_555
Li5 O17 2.086386 1_555
Li5 O40 2.146284 1_655
Li5 O7 2.195515 1_555
Li5 O23 2.214728 1_555
Li5 O6 2.232530 1_555
Li6 O46 2.105209 1_655
Li6 O39 2.121979 1_655
Li6 O31 2.122296 1_555
Li6 O19 2.135848 1_555
Li6 O20 2.139249 1_555
Li6 O45 2.162676 1_655
Li7 O18 2.054534 1_555
Li7 O7 2.055782 1_555
Li7 O41 2.168672 1_655
Li7 O3 2.178059 1_555
Li7 O23 2.213616 1_555
Li7 O30 2.257787 1_555
Li8 O44 2.084757 1_655
Li8 O6 2.095438 1_555
Li8 O18 2.129551 1_565
Li8 O29 2.157760 1_555
Li8 O3 2.202160 1_565
Li8 O17 2.221773 1_555
Li9 O0 2.112170 1_555
Li9 O32 2.115375 1_555
Li9 O22 2.116313 1_555
Li9 O4 2.117727 1_545
Li9 O5 2.143412 1_555
Li9 O21 2.144190 1_545
Li10 O25 2.085193 1_555
Li10 O16 2.089138 1_556
Li10 O45 2.150624 1_655
Li10 O2 2.159007 1_556
Li10 O31 2.210440 1_555
Li10 O1 2.226791 1_556
Li11 O33 2.083683 1_555
Li11 O28 2.087290 1_555
Li11 O13 2.144072 1_555
Li11 O5 2.145240 1_555
Li11 O12 2.214284 1_555
Li11 O32 2.227380 1_555
Li12 O3 2.094657 1_555
Li12 O10 2.117581 1_545
Li12 O30 2.121634 1_555
Li12 O11 2.127082 1_555
Li12 O38 2.127734 1_555
Li12 O29 2.142670 1_545
Li13 O13 2.048653 1_565
Li13 O27 2.059721 1_555
Li13 O9 2.171390 1_555
Li13 O4 2.178451 1_555
Li13 O32 2.203271 1_565
Li13 O37 2.234148 1_565
Li14 O12 2.080157 1_555
Li14 O8 2.084697 1_555
Li14 O36 2.149146 1_555
Li14 O27 2.153458 1_555
Li14 O28 2.195863 1_555
Li14 O9 2.286514 1_555
Li15 O39 2.067213 1_555
Li15 O35 2.074661 1_555
Li15 O11 2.181211 1_555
Li15 O38 2.199134 1_555
Li15 O20 2.199194 1_555
Li15 O19 2.218642 1_555
Li16 O44 2.095919 1_555
Li16 O37 2.102519 1_565
Li16 O17 2.117302 1_555
Li16 O9 2.121919 1_555
Li16 O18 2.144466 1_565
Li16 O36 2.145198 1_555
Li17 O20 2.049044 1_565
Li17 O34 2.049189 1_555
Li17 O15 2.160051 1_555
Li17 O10 2.176516 1_555
Li17 O43 2.243749 1_565
Li17 O38 2.270586 1_565
Li18 O45 2.046885 1_554
Li18 O21 2.051954 1_555
Li18 O16 2.184203 1_555
Li18 O1 2.190307 1_455
Li18 O25 2.191367 1_554
Li18 O47 2.253547 1_554
Li19 O14 2.084432 1_555
Li19 O19 2.089928 1_555
Li19 O42 2.141365 1_555
Li19 O34 2.155596 1_555
Li19 O35 2.200910 1_555
Li19 O15 2.217727 1_555
Li20 O31 2.083237 1_554
Li20 O22 2.088839 1_555
Li20 O2 2.145607 1_455
Li20 O45 2.162443 1_554
Li20 O16 2.203308 1_555
Li20 O46 2.226891 1_554
Li21 O15 2.098026 1_555
Li21 O43 2.118505 1_565
Li21 O25 2.120019 1_555
Li21 O47 2.120523 1_555
Li21 O26 2.124744 1_565
Li21 O42 2.145900 1_555
Li22 O3 2.074565 1_455
Li22 O41 2.082714 1_555
Li22 O29 2.159748 1_545
Li22 O44 2.194001 1_545
Li22 O18 2.215303 1_555
Li22 O30 2.216594 1_555
Li23 O29 2.054122 1_555
Li23 O40 2.056109 1_555
Li23 O17 2.185591 1_555
Li23 O44 2.186310 1_555
Li23 O6 2.191408 1_455
Li23 O24 2.198910 1_555
Li24 O16 2.114836 1_555
Li24 O8 2.114898 1_455
Li24 O28 2.117415 1_555
Li24 O1 2.118553 1_455
Li24 O2 2.142916 1_455
Li24 O27 2.145415 1_555
Li25 O23 2.078409 1_555
Li25 O30 2.082007 1_555
Li25 O7 2.147453 1_455
Li25 O40 2.162198 1_555
Li25 O24 2.203140 1_555
Li25 O41 2.270146 1_555
Li26 O9 2.085222 1_455
Li26 O4 2.088100 1_455
Li26 O27 2.153620 1_555
Li26 O36 2.156140 1_555
Li26 O37 2.189885 1_565
Li26 O8 2.235999 1_455
Li27 O0 2.077510 1_456
Li27 O46 2.079859 1_555
Li27 O21 2.161043 1_546
Li27 O47 2.180542 1_545
Li27 O26 2.187013 1_555
Li27 O22 2.236094 1_556
Li28 O35 2.107144 1_555
Li28 O14 2.121873 1_455
Li28 O24 2.125401 1_555
Li28 O6 2.132177 1_455
Li28 O7 2.143998 1_455
Li28 O34 2.161153 1_555
Li29 O36 2.052539 1_655
Li29 O5 2.058308 1_555
Li29 O12 2.191682 1_555
Li29 O28 2.196037 1_655
Li29 O33 2.197185 1_655
Li29 O8 2.197624 1_555
Li30 O10 2.083693 1_455
Li30 O15 2.086389 1_455
Li30 O42 2.160194 1_555
Li30 O34 2.160559 1_555
Li30 O43 2.181840 1_565
Li30 O14 2.238051 1_455
Li31 O11 2.063439 1_455
Li31 O42 2.064340 1_555
Li31 O35 2.186201 1_555
Li31 O14 2.196432 1_455
Li31 O39 2.201412 1_555
Li31 O19 2.203988 1_455
Cr0 O9 1.915622 1_545
Cr0 O18 1.916939 1_555
Cr0 O37 1.959999 1_655
Cr0 O41 1.960268 1_655
Cr0 O44 1.986197 1_645
Cr0 O13 1.996934 1_555
Cr1 O43 1.906851 1_655
Cr1 O47 1.912534 1_645
Cr1 O20 1.966362 1_555
Cr1 O26 1.979546 1_555
Cr1 O46 1.983383 1_655
Cr1 O15 1.989880 1_545
Cr2 O30 1.902327 1_555
Cr2 O38 1.907947 1_555
Cr2 O7 1.970932 1_455
Cr2 O11 1.985160 1_455
Cr2 O35 1.985360 1_555
Cr2 O3 1.991059 1_455
O0 Ti10 1.967751 1_645
O0 Ti11 1.979217 1_655
O1 Ti2 1.965284 1_555
O1 Ti10 1.980777 1_655
O2 Ti3 1.982808 1_555
O2 Ti11 1.989701 1_655
O3 Ti12 1.933706 1_645
O4 Ti10 1.966924 1_655
O4 Ti2 1.980129 1_555
O5 Ti11 1.986579 1_655
O5 Ti3 1.986849 1_555
O6 Ti12 1.954154 1_655
O6 Ti4 1.987730 1_555
O7 Ti5 1.994276 1_555
O8 Ti2 1.965216 1_555
O8 Ti3 1.983164 1_555
O9 Ti0 2.008439 1_555
O10 Ti12 1.963963 1_655
O10 Ti4 1.988321 1_555
O11 Ti5 1.968844 1_555
O12 Ti6 1.944045 1_555
O12 Ti0 2.017101 1_555
O13 Ti7 1.962792 1_555
O14 Ti5 1.959230 1_555
O14 Ti4 1.977530 1_555
O15 Ti1 1.934800 1_555
O16 Ti3 1.968330 1_555
O16 Ti2 1.979803 1_555
O17 Ti0 1.969185 1_555
O17 Ti6 1.976467 1_555
O18 Ti7 2.026888 1_555
O19 Ti1 1.955615 1_555
O19 Ti8 1.987976 1_555
O20 Ti9 1.999686 1_555
O21 Ti10 1.985146 1_555
O21 Ti2 1.990694 1_555
O22 Ti11 1.965646 1_555
O22 Ti3 1.978174 1_555
O23 Ti6 1.967565 1_555
O23 Ti7 1.996825 1_555
O24 Ti4 1.975286 1_555
O24 Ti5 1.988661 1_555
O25 Ti1 1.963499 1_555
O25 Ti8 1.988195 1_555
O26 Ti9 1.973808 1_555
O27 Ti10 1.987822 1_555
O27 Ti2 1.989227 1_555
O28 Ti3 1.969329 1_555
O28 Ti11 1.980294 1_555
O29 Ti4 1.982694 1_555
O29 Ti12 1.990646 1_555
O30 Ti5 2.023194 1_555
O31 Ti9 1.961302 1_555
O31 Ti8 1.977867 1_555
O32 Ti11 1.966999 1_555
O32 Ti10 1.978147 1_545
O33 Ti7 1.951213 1_555
O33 Ti6 1.986428 1_555
O34 Ti4 1.966051 1_555
O34 Ti12 2.018388 1_555
O35 Ti5 1.945952 1_555
O36 Ti0 1.985337 1_455
O36 Ti6 1.994665 1_555
O37 Ti7 1.968241 1_555
O38 Ti12 2.021213 1_545
O39 Ti8 1.973186 1_555
O39 Ti9 1.981912 1_555
O40 Ti0 1.962578 1_455
O40 Ti6 2.011430 1_555
O41 Ti7 1.976830 1_555
O42 Ti8 1.982799 1_555
O42 Ti1 1.990271 1_455
O43 Ti9 2.019332 1_555
O44 Ti0 1.940290 1_455
O45 Ti8 1.966280 1_555
O45 Ti1 2.018596 1_455
O46 Ti9 1.942369 1_555
O47 Ti1 2.020210 1_455
