# generated using pymatgen
data_Li5Fe7O12
_symmetry_space_group_name_H-M   'P 1'
_cell_length_a   5.20290377
_cell_length_b   5.20290377
_cell_length_c   9.87344815
_cell_angle_alpha   84.80911320
_cell_angle_beta   84.80911320
_cell_angle_gamma   120.23472066
_symmetry_Int_Tables_number   1
_chemical_formula_structural   Li5Fe7O12
_chemical_formula_sum   'Li5 Fe7 O12'
_cell_volume   227.07934424
_cell_formula_units_Z   1
loop_
 _symmetry_equiv_pos_site_id
 _symmetry_equiv_pos_as_xyz
  1  'x, y, z'
loop_
 _atom_site_type_symbol
 _atom_site_label
 _atom_site_symmetry_multiplicity
 _atom_site_fract_x
 _atom_site_fract_y
 _atom_site_fract_z
 _atom_site_occupancy
  Li  Li0  1  0.83288800  0.66782700  0.25545300  1
  Li  Li1  1  0.67542200  0.83903400  0.74472100  1
  Li  Li2  1  0.33217300  0.16711200  0.74454700  1
  Li  Li3  1  0.16096600  0.32457800  0.25527900  1
  Li  Li4  1  0.08390900  0.91609100  0.50000000  1
  Fe  Fe0  1  0.92380000  0.07620000  0.00000000  1
  Fe  Fe1  1  0.00331400  0.51190000  0.74884300  1
  Fe  Fe2  1  0.75009700  0.24990300  0.50000000  1
  Fe  Fe3  1  0.48810000  0.99668600  0.25115700  1
  Fe  Fe4  1  0.57702700  0.42297300  0.00000000  1
  Fe  Fe5  1  0.42006100  0.57993900  0.50000000  1
  Fe  Fe6  1  0.24591600  0.75408400  0.00000000  1
  O  O0  1  0.04305900  0.23756200  0.61990500  1
  O  O1  1  0.76243800  0.95694100  0.38009500  1
  O  O2  1  0.86338200  0.35071500  0.12236400  1
  O  O3  1  0.64928500  0.13661800  0.87763600  1
  O  O4  1  0.71018900  0.52730300  0.61940900  1
  O  O5  1  0.47269700  0.28981100  0.38059100  1
  O  O6  1  0.55409200  0.73214000  0.12450500  1
  O  O7  1  0.26786000  0.44590800  0.87549500  1
  O  O8  1  0.37948500  0.85934500  0.62308800  1
  O  O9  1  0.14065500  0.62051500  0.37691200  1
  O  O10  1  0.20198000  0.03879900  0.13159100  1
  O  O11  1  0.96120100  0.79802000  0.86840900  1
loop_
_geom_bond_atom_site_label_1
_geom_bond_atom_site_label_2
_geom_bond_distance
_geom_bond_site_symmetry_2
Li0 O10 2.079393 1_665
Li0 O5 2.082350 1_555
Li0 O6 2.153499 1_555
Li0 O1 2.172598 1_555
Li0 O9 2.180332 1_655
Li0 O2 2.256608 1_555
Li1 O8 2.073569 1_555
Li1 O11 2.085353 1_555
Li1 O0 2.143287 1_665
Li1 O3 2.164568 1_565
Li1 O4 2.193672 1_555
Li1 O7 2.237417 1_555
Li2 O11 2.079393 1_445
Li2 O4 2.082350 1_555
Li2 O7 2.153499 1_555
Li2 O0 2.172598 1_555
Li2 O8 2.180332 1_545
Li2 O3 2.256608 1_555
Li3 O9 2.073569 1_555
Li3 O10 2.085353 1_555
Li3 O1 2.143287 1_445
Li3 O2 2.164568 1_455
Li3 O5 2.193672 1_555
Li3 O6 2.237417 1_555
Li4 O4 2.110723 1_455
Li4 O5 2.110723 1_565
Li4 O8 2.158620 1_555
Li4 O9 2.158620 1_555
Li4 O0 2.216990 1_565
Li4 O1 2.216990 1_455
Fe0 O6 2.030242 1_545
Fe0 O7 2.030242 1_654
Fe0 O2 2.072221 1_555
Fe0 O3 2.072221 1_554
Fe0 O10 2.097355 1_655
Fe0 O11 2.097355 1_544
Fe1 O8 2.056963 1_555
Fe1 O11 2.063355 1_455
Fe1 O0 2.068626 1_555
Fe1 O7 2.070220 1_555
Fe1 O3 2.080199 1_455
Fe1 O4 2.103037 1_455
Fe2 O4 2.020294 1_555
Fe2 O5 2.020294 1_555
Fe2 O0 2.034789 1_655
Fe2 O1 2.034789 1_545
Fe2 O9 2.123053 1_655
Fe2 O8 2.123053 1_545
Fe3 O9 2.056963 1_555
Fe3 O10 2.063355 1_565
Fe3 O1 2.068626 1_555
Fe3 O6 2.070220 1_555
Fe3 O2 2.080199 1_565
Fe3 O5 2.103037 1_565
Fe4 O2 2.151354 1_555
Fe4 O3 2.151354 1_554
Fe4 O10 2.152759 1_555
Fe4 O11 2.152759 1_554
Fe4 O6 2.153476 1_555
Fe4 O7 2.153476 1_554
Fe5 O0 2.025239 1_555
Fe5 O1 2.025239 1_555
Fe5 O8 2.053576 1_555
Fe5 O9 2.053576 1_555
Fe5 O4 2.103220 1_555
Fe5 O5 2.103220 1_555
Fe6 O10 2.137815 1_565
Fe6 O11 2.137815 1_454
Fe6 O6 2.147265 1_555
Fe6 O7 2.147265 1_554
Fe6 O2 2.173678 1_455
Fe6 O3 2.173678 1_564
