# generated using pymatgen
data_CaCeO3
_symmetry_space_group_name_H-M   'P 1'
_cell_length_a   5.84071900
_cell_length_b   6.06215000
_cell_length_c   8.51260200
_cell_angle_alpha   90.00000000
_cell_angle_beta   90.00000000
_cell_angle_gamma   90.00000000
_symmetry_Int_Tables_number   1
_chemical_formula_structural   CaCeO3
_chemical_formula_sum   'Ca4 Ce4 O12'
_cell_volume   301.40837781
_cell_formula_units_Z   4
loop_
 _symmetry_equiv_pos_site_id
 _symmetry_equiv_pos_as_xyz
  1  'x, y, z'
loop_
 _atom_site_type_symbol
 _atom_site_label
 _atom_site_symmetry_multiplicity
 _atom_site_fract_x
 _atom_site_fract_y
 _atom_site_fract_z
 _atom_site_occupancy
  Ca  Ca0  1  0.01214500  0.94915500  0.75000000  1
  Ca  Ca1  1  0.48785500  0.44915500  0.75000000  1
  Ca  Ca2  1  0.51214500  0.55084500  0.25000000  1
  Ca  Ca3  1  0.98785500  0.05084500  0.25000000  1
  Ce  Ce0  1  0.00000000  0.50000000  0.00000000  1
  Ce  Ce1  1  0.00000000  0.50000000  0.50000000  1
  Ce  Ce2  1  0.50000000  0.00000000  0.00000000  1
  Ce  Ce3  1  0.50000000  0.00000000  0.50000000  1
  O  O0  1  0.13018200  0.43135300  0.25000000  1
  O  O1  1  0.18791500  0.18909800  0.56987700  1
  O  O2  1  0.18791500  0.18909800  0.93012300  1
  O  O3  1  0.31208500  0.68909800  0.56987700  1
  O  O4  1  0.31208500  0.68909800  0.93012300  1
  O  O5  1  0.36981800  0.93135300  0.25000000  1
  O  O6  1  0.63018200  0.06864700  0.75000000  1
  O  O7  1  0.68791500  0.31090200  0.06987700  1
  O  O8  1  0.68791500  0.31090200  0.43012300  1
  O  O9  1  0.81208500  0.81090200  0.06987700  1
  O  O10  1  0.81208500  0.81090200  0.43012300  1
  O  O11  1  0.86981800  0.56864700  0.75000000  1
loop_
_geom_bond_atom_site_label_1
_geom_bond_atom_site_label_2
_geom_bond_distance
_geom_bond_site_symmetry_2
Ca0 O6 2.345594 1_465
Ca0 O2 2.349635 1_565
Ca0 O1 2.349635 1_565
Ca0 O11 2.451917 1_455
Ca0 O4 2.811664 1_555
Ca0 O3 2.811664 1_555
Ca0 O9 3.079360 1_456
Ca0 O10 3.079360 1_455
Ca1 O11 2.345594 1_555
Ca1 O4 2.349635 1_555
Ca1 O3 2.349635 1_555
Ca1 O6 2.451917 1_555
Ca1 O2 2.811664 1_555
Ca1 O1 2.811664 1_555
Ca1 O7 3.079360 1_556
Ca1 O8 3.079360 1_555
Ca2 O0 2.345594 1_555
Ca2 O8 2.349635 1_555
Ca2 O7 2.349635 1_555
Ca2 O5 2.451917 1_555
Ca2 O10 2.811664 1_555
Ca2 O9 2.811664 1_555
Ca2 O3 3.079360 1_555
Ca2 O4 3.079360 1_554
Ca3 O5 2.345594 1_645
Ca3 O10 2.349635 1_545
Ca3 O9 2.349635 1_545
Ca3 O0 2.451917 1_655
Ca3 O8 2.811664 1_555
Ca3 O7 2.811664 1_555
Ca3 O1 3.079360 1_655
Ca3 O2 3.079360 1_654
Ce0 O4 2.233949 1_554
Ce0 O7 2.233949 1_455
Ce0 O9 2.260683 1_455
Ce0 O2 2.260683 1_554
Ce0 O0 2.297900 1_555
Ce0 O11 2.297900 1_454
Ce1 O3 2.233949 1_555
Ce1 O8 2.233949 1_455
Ce1 O1 2.260683 1_555
Ce1 O10 2.260683 1_455
Ce1 O0 2.297900 1_555
Ce1 O11 2.297900 1_455
Ce2 O9 2.233949 1_545
Ce2 O2 2.233949 1_554
Ce2 O7 2.260683 1_555
Ce2 O4 2.260683 1_544
Ce2 O6 2.297900 1_554
Ce2 O5 2.297900 1_545
Ce3 O10 2.233949 1_545
Ce3 O1 2.233949 1_555
Ce3 O8 2.260683 1_555
Ce3 O3 2.260683 1_545
Ce3 O6 2.297900 1_555
Ce3 O5 2.297900 1_545
