# generated using pymatgen
data_Fe4O7F
_symmetry_space_group_name_H-M   'P 1'
_cell_length_a   4.64560400
_cell_length_b   7.54737556
_cell_length_c   7.59230981
_cell_angle_alpha   104.24729041
_cell_angle_beta   91.58467660
_cell_angle_gamma   90.91365102
_symmetry_Int_Tables_number   1
_chemical_formula_structural   Fe4O7F
_chemical_formula_sum   'Fe8 O14 F2'
_cell_volume   257.84495511
_cell_formula_units_Z   2
loop_
 _symmetry_equiv_pos_site_id
 _symmetry_equiv_pos_as_xyz
  1  'x, y, z'
loop_
 _atom_site_type_symbol
 _atom_site_label
 _atom_site_symmetry_multiplicity
 _atom_site_fract_x
 _atom_site_fract_y
 _atom_site_fract_z
 _atom_site_occupancy
  Fe  Fe0  1  0.50336500  0.12340800  0.37082900  1
  Fe  Fe1  1  0.47573900  0.38671100  0.13468800  1
  Fe  Fe2  1  0.49663500  0.87659200  0.62917100  1
  Fe  Fe3  1  0.52426100  0.61328900  0.86531200  1
  Fe  Fe4  1  0.98231600  0.75452200  0.26406600  1
  Fe  Fe5  1  0.00000000  0.50000000  0.50000000  1
  Fe  Fe6  1  0.01768400  0.24547800  0.73593400  1
  Fe  Fe7  1  0.00000000  0.00000000  0.00000000  1
  O  O0  1  0.19652700  0.28441000  0.51845100  1
  O  O1  1  0.18005000  0.53323300  0.28763900  1
  O  O2  1  0.18780900  0.03048600  0.78092400  1
  O  O3  1  0.30671800  0.90477500  0.40448100  1
  O  O4  1  0.30729900  0.15345100  0.14941800  1
  O  O5  1  0.30927900  0.40301500  0.90321100  1
  O  O6  1  0.30921000  0.65484600  0.65897600  1
  O  O7  1  0.69072100  0.59698500  0.09678900  1
  O  O8  1  0.69079000  0.34515400  0.34102400  1
  O  O9  1  0.69270100  0.84654900  0.85058200  1
  O  O10  1  0.69328200  0.09522500  0.59551900  1
  O  O11  1  0.80347300  0.71559000  0.48154900  1
  O  O12  1  0.81219100  0.96951400  0.21907600  1
  O  O13  1  0.81995000  0.46676700  0.71236100  1
  F  F0  1  0.19969700  0.77125600  0.02869100  1
  F  F1  1  0.80030300  0.22874400  0.97130900  1
loop_
_geom_bond_atom_site_label_1
_geom_bond_atom_site_label_2
_geom_bond_distance
_geom_bond_site_symmetry_2
Fe0 O8 1.939356 1_555
Fe0 O3 1.948086 1_545
Fe0 O4 1.953561 1_555
Fe0 O10 1.958356 1_555
Fe0 O12 2.054440 1_545
Fe0 O0 2.058614 1_555
Fe1 O8 1.927659 1_555
Fe1 O5 1.932892 1_554
Fe1 O4 1.944737 1_555
Fe1 O7 1.946530 1_555
Fe1 O1 1.990710 1_555
Fe2 O6 1.939356 1_555
Fe2 O10 1.948086 1_565
Fe2 O9 1.953561 1_555
Fe2 O3 1.958356 1_555
Fe2 O2 2.054440 1_565
Fe2 O11 2.058614 1_555
Fe3 O6 1.927659 1_555
Fe3 O7 1.932892 1_556
Fe3 O9 1.944737 1_555
Fe3 O5 1.946530 1_555
Fe3 O13 1.990710 1_555
Fe4 O12 1.916506 1_555
Fe4 O11 1.951918 1_555
Fe4 O1 1.962706 1_655
Fe4 O3 1.988784 1_655
Fe4 O7 1.992962 1_555
Fe5 O1 1.905004 1_555
Fe5 O13 1.905004 1_455
Fe5 O11 1.911347 1_455
Fe5 O0 1.911347 1_555
Fe5 O6 2.010558 1_555
Fe5 O8 2.010558 1_455
Fe6 O2 1.916506 1_555
Fe6 O0 1.951918 1_555
Fe6 O13 1.962706 1_455
Fe6 O10 1.988784 1_455
Fe6 O5 1.992962 1_555
Fe7 O12 1.960345 1_445
Fe7 O2 1.960345 1_554
Fe7 O4 1.969077 1_555
Fe7 O9 1.969077 1_444
F0 Fe7 2.028207 1_565
F0 Fe4 2.106212 1_455
F0 Fe3 2.160179 1_554
F1 Fe7 2.028207 1_656
F1 Fe6 2.106212 1_655
F1 Fe1 2.160179 1_556
