# generated using pymatgen
data_Mn12O7F17
_symmetry_space_group_name_H-M   'P 1'
_cell_length_a   4.76830200
_cell_length_b   5.76432795
_cell_length_c   15.88855464
_cell_angle_alpha   89.80035208
_cell_angle_beta   89.47258543
_cell_angle_gamma   88.60397794
_symmetry_Int_Tables_number   1
_chemical_formula_structural   Mn12O7F17
_chemical_formula_sum   'Mn12 O7 F17'
_cell_volume   436.56326805
_cell_formula_units_Z   1
loop_
 _symmetry_equiv_pos_site_id
 _symmetry_equiv_pos_as_xyz
  1  'x, y, z'
loop_
 _atom_site_type_symbol
 _atom_site_label
 _atom_site_symmetry_multiplicity
 _atom_site_fract_x
 _atom_site_fract_y
 _atom_site_fract_z
 _atom_site_occupancy
  Mn  Mn0  1  0.99200400  0.15585600  0.41511600  1
  Mn  Mn1  1  0.02846600  0.83876900  0.23804200  1
  Mn  Mn2  1  0.00966700  0.15996600  0.07556100  1
  Mn  Mn3  1  0.05222300  0.17136600  0.74924500  1
  Mn  Mn4  1  0.02243600  0.85351400  0.58064100  1
  Mn  Mn5  1  0.00093800  0.85758700  0.91845700  1
  Mn  Mn6  1  0.47342900  0.32111900  0.58505500  1
  Mn  Mn7  1  0.49058700  0.33068900  0.92359600  1
  Mn  Mn8  1  0.52990500  0.34083600  0.25936100  1
  Mn  Mn9  1  0.48676200  0.64949200  0.08240700  1
  Mn  Mn10  1  0.50319500  0.66554200  0.42041000  1
  Mn  Mn11  1  0.51012300  0.63083700  0.75506200  1
  O  O0  1  0.21124300  0.09699500  0.63990000  1
  O  O1  1  0.20636400  0.12173000  0.96892900  1
  O  O2  1  0.23027800  0.88858000  0.12725900  1
  O  O3  1  0.21611000  0.89927800  0.46859900  1
  O  O4  1  0.30569100  0.38797400  0.80984200  1
  O  O5  1  0.70082300  0.38260800  0.02948600  1
  O  O6  1  0.72737900  0.38706400  0.36885700  1
  F  F0  1  0.22497600  0.11840200  0.30591400  1
  F  F1  1  0.25002300  0.87642700  0.80711700  1
  F  F2  1  0.26713900  0.39608800  0.15093000  1
  F  F3  1  0.27778800  0.61859900  0.30968500  1
  F  F4  1  0.24515700  0.40060800  0.47359400  1
  F  F5  1  0.26466400  0.60259100  0.64521800  1
  F  F6  1  0.24948600  0.61457900  0.97644900  1
  F  F7  1  0.72375200  0.61880000  0.19267100  1
  F  F8  1  0.72600200  0.62576800  0.53319600  1
  F  F9  1  0.73871800  0.61422600  0.86723500  1
  F  F10  1  0.74078400  0.38001400  0.69288600  1
  F  F11  1  0.78827000  0.12569200  0.18634500  1
  F  F12  1  0.75363000  0.11434500  0.52065700  1
  F  F13  1  0.76392600  0.89195400  0.35072100  1
  F  F14  1  0.73756700  0.88230900  0.02380400  1
  F  F15  1  0.78390600  0.12028000  0.85102800  1
  F  F16  1  0.76658500  0.85951900  0.69672400  1
loop_
_geom_bond_atom_site_label_1
_geom_bond_atom_site_label_2
_geom_bond_distance
_geom_bond_site_symmetry_2
Mn0 O6 1.958808 1_555
Mn0 O3 1.995598 1_645
Mn1 O2 2.021252 1_555
Mn2 O1 1.939572 1_554
Mn2 O2 2.038448 1_545
Mn2 O5 2.067106 1_455
Mn3 O0 1.934467 1_555
Mn3 O4 2.012475 1_555
Mn4 O0 1.937324 1_565
Mn4 O3 2.017381 1_555
Mn5 O1 2.004132 1_565
Mn6 O0 2.010515 1_555
Mn7 O1 1.965170 1_555
Mn7 O5 1.993562 1_556
Mn7 O4 2.040580 1_555
Mn8 O6 2.007470 1_555
Mn9 O2 1.952336 1_555
Mn9 O5 2.008047 1_555
Mn10 O3 2.042905 1_555
Mn10 O6 2.073611 1_555
Mn11 O4 1.926135 1_555
F0 Mn0 2.060715 1_455
F0 Mn8 2.090363 1_555
F0 Mn1 2.177945 1_545
F1 Mn11 2.032256 1_555
F1 Mn5 2.125604 1_555
F1 Mn3 2.133640 1_565
F2 Mn9 2.111431 1_555
F2 Mn8 2.157746 1_555
F2 Mn2 2.216680 1_555
F3 Mn1 2.064245 1_555
F3 Mn10 2.091825 1_555
F3 Mn8 2.132029 1_555
F4 Mn0 2.103237 1_455
F4 Mn6 2.129912 1_555
F4 Mn10 2.150257 1_555
F5 Mn4 2.099753 1_555
F5 Mn6 2.109922 1_555
F5 Mn11 2.119248 1_555
F6 Mn5 2.036167 1_555
F6 Mn9 2.050204 1_556
F6 Mn7 2.145909 1_555
F7 Mn1 2.086615 1_655
F7 Mn9 2.098122 1_555
F7 Mn8 2.141664 1_555
F8 Mn4 2.099188 1_655
F8 Mn10 2.100687 1_555
F8 Mn6 2.299552 1_555
F9 Mn5 2.075028 1_655
F9 Mn11 2.098393 1_555
F9 Mn7 2.222064 1_555
F10 Mn11 2.046581 1_555
F10 Mn3 2.093718 1_655
F10 Mn6 2.177411 1_555
F11 Mn2 2.055562 1_655
F11 Mn8 2.076265 1_555
F11 Mn1 2.153475 1_645
F12 Mn0 2.033850 1_555
F12 Mn6 2.039223 1_555
F12 Mn4 2.174939 1_645
F13 Mn10 2.125710 1_555
F13 Mn0 2.157689 1_565
F13 Mn1 2.198577 1_655
F14 Mn9 2.036477 1_555
F14 Mn5 2.086459 1_654
F14 Mn2 2.247500 1_665
F15 Mn3 2.077464 1_655
F15 Mn5 2.108187 1_645
F15 Mn7 2.157321 1_555
F16 Mn11 2.035048 1_555
F16 Mn4 2.201881 1_655
F16 Mn3 2.435863 1_665
