# generated using pymatgen
data_PH5NO4
_symmetry_space_group_name_H-M   'P 1'
_cell_length_a   8.07528900
_cell_length_b   4.50824800
_cell_length_c   10.78601173
_cell_angle_alpha   80.59424809
_cell_angle_beta   90.00000000
_cell_angle_gamma   90.00000000
_symmetry_Int_Tables_number   1
_chemical_formula_structural   PH5NO4
_chemical_formula_sum   'P4 H20 N4 O16'
_cell_volume   387.38999256
_cell_formula_units_Z   4
loop_
 _symmetry_equiv_pos_site_id
 _symmetry_equiv_pos_as_xyz
  1  'x, y, z'
loop_
 _atom_site_type_symbol
 _atom_site_label
 _atom_site_symmetry_multiplicity
 _atom_site_fract_x
 _atom_site_fract_y
 _atom_site_fract_z
 _atom_site_occupancy
  P  P0  1  0.66579600  0.99755100  0.67379500  1
  P  P1  1  0.16579600  0.00244900  0.82620500  1
  P  P2  1  0.33420400  0.00244900  0.32620500  1
  P  P3  1  0.83420400  0.99755100  0.17379500  1
  H  H0  1  0.35022100  0.83848200  0.70355500  1
  H  H1  1  0.85022100  0.16151800  0.79644500  1
  H  H2  1  0.64977900  0.16151800  0.29644500  1
  H  H3  1  0.14977900  0.83848200  0.20355500  1
  H  H4  1  0.05579900  0.54630600  0.85688500  1
  H  H5  1  0.55579900  0.45369400  0.64311500  1
  H  H6  1  0.94420100  0.45369400  0.14311500  1
  H  H7  1  0.44420100  0.54630600  0.35688500  1
  H  H8  1  0.56984500  0.59016800  0.87341600  1
  H  H9  1  0.06984500  0.40983200  0.62658400  1
  H  H10  1  0.43015500  0.40983200  0.12658400  1
  H  H11  1  0.93015500  0.59016800  0.37341600  1
  H  H12  1  0.65489700  0.65295300  0.01674800  1
  H  H13  1  0.15489700  0.34704700  0.48325200  1
  H  H14  1  0.34510300  0.34704700  0.98325200  1
  H  H15  1  0.84510300  0.65295300  0.51674800  1
  H  H16  1  0.62834400  0.28398300  0.98626300  1
  H  H17  1  0.12834400  0.71601700  0.51373700  1
  H  H18  1  0.37165600  0.71601700  0.01373700  1
  H  H19  1  0.87165600  0.28398300  0.48626300  1
  N  N0  1  0.58111200  0.50429800  0.97100700  1
  N  N1  1  0.08111200  0.49570200  0.52899300  1
  N  N2  1  0.41888800  0.49570200  0.02899300  1
  N  N3  1  0.91888800  0.50429800  0.47100700  1
  O  O0  1  0.80994100  0.92388300  0.59438000  1
  O  O1  1  0.30994100  0.07611700  0.90562000  1
  O  O2  1  0.19005900  0.07611700  0.40562000  1
  O  O3  1  0.69005900  0.92388300  0.09438000  1
  O  O4  1  0.22901400  0.89892400  0.70020700  1
  O  O5  1  0.72901400  0.10107600  0.79979300  1
  O  O6  1  0.77098600  0.10107600  0.29979300  1
  O  O7  1  0.27098600  0.89892400  0.20020700  1
  O  O8  1  0.06641300  0.72787200  0.90101100  1
  O  O9  1  0.56641300  0.27212800  0.59898900  1
  O  O10  1  0.93358700  0.27212800  0.09898900  1
  O  O11  1  0.43358700  0.72787200  0.40101100  1
  O  O12  1  0.54354900  0.73590700  0.71530100  1
  O  O13  1  0.04354900  0.26409300  0.78469900  1
  O  O14  1  0.45645100  0.26409300  0.28469900  1
  O  O15  1  0.95645100  0.73590700  0.21530100  1
loop_
_geom_bond_atom_site_label_1
_geom_bond_atom_site_label_2
_geom_bond_distance
_geom_bond_site_symmetry_2
H0 O4 1.015062 1_555
H0 O12 1.627276 1_555
H1 O5 1.015062 1_555
H1 O13 1.627276 1_655
H2 O6 1.015062 1_555
H2 O14 1.627276 1_555
H3 O7 1.015062 1_555
H3 O15 1.627276 1_455
H4 O8 1.015489 1_555
H4 O13 1.599529 1_555
H5 O9 1.015489 1_555
H5 O12 1.599529 1_555
H6 O10 1.015489 1_555
H6 O15 1.599529 1_555
H7 O11 1.015489 1_555
H7 O14 1.599529 1_555
H8 N0 1.064405 1_555
H8 O12 1.737535 1_555
H9 N1 1.064405 1_555
H9 O13 1.737535 1_555
H10 N2 1.064405 1_555
H10 O14 1.737535 1_555
H11 N3 1.064405 1_555
H11 O15 1.737535 1_555
H12 N0 1.075002 1_554
H12 O3 1.614903 1_555
H13 N1 1.075002 1_555
H13 O2 1.614903 1_555
H14 N2 1.075002 1_556
H14 O1 1.614903 1_555
H15 N3 1.075002 1_555
H15 O0 1.614903 1_555
H16 N0 1.051498 1_555
H17 N1 1.051498 1_555
H18 N2 1.051498 1_555
H19 N3 1.051498 1_555
O0 P0 1.513909 1_555
O1 P1 1.513909 1_555
O2 P2 1.513909 1_555
O3 P3 1.513909 1_555
O4 P1 1.591438 1_565
O5 P0 1.591438 1_545
O6 P3 1.591438 1_545
O7 P2 1.591438 1_565
O8 P1 1.581439 1_565
O9 P0 1.581439 1_545
O10 P3 1.581439 1_545
O11 P2 1.581439 1_565
O12 P0 1.547158 1_555
O13 P1 1.547158 1_555
O14 P2 1.547158 1_555
O15 P3 1.547158 1_555
