# generated using pymatgen
data_Li4CoOF5
_symmetry_space_group_name_H-M   'P 1'
_cell_length_a   5.49829648
_cell_length_b   7.30555005
_cell_length_c   6.69797471
_cell_angle_alpha   89.98896531
_cell_angle_beta   115.39986073
_cell_angle_gamma   109.41378451
_symmetry_Int_Tables_number   1
_chemical_formula_structural   Li4CoOF5
_chemical_formula_sum   'Li8 Co2 O2 F10'
_cell_volume   225.99595357
_cell_formula_units_Z   2
loop_
 _symmetry_equiv_pos_site_id
 _symmetry_equiv_pos_as_xyz
  1  'x, y, z'
loop_
 _atom_site_type_symbol
 _atom_site_label
 _atom_site_symmetry_multiplicity
 _atom_site_fract_x
 _atom_site_fract_y
 _atom_site_fract_z
 _atom_site_occupancy
  Li  Li0  1  0.73277300  0.68337300  0.61430000  1
  Li  Li1  1  0.73276400  0.18337000  0.61430100  1
  Li  Li2  1  0.26813100  0.31723300  0.38732900  1
  Li  Li3  1  0.26813500  0.81723300  0.38732600  1
  Li  Li4  1  0.66397100  0.16615800  0.19275200  1
  Li  Li5  1  0.66396900  0.66615300  0.19276000  1
  Li  Li6  1  0.33642700  0.83441000  0.80883200  1
  Li  Li7  1  0.33643000  0.33441600  0.80882500  1
  Co  Co0  1  0.00008800  0.50019000  0.00110400  1
  Co  Co1  1  0.00008300  0.00019300  0.00110400  1
  O  O0  1  0.00008100  0.25020100  0.00145900  1
  O  O1  1  0.00008600  0.75023300  0.00144000  1
  F  F0  1  0.00034900  0.75036200  0.50072000  1
  F  F1  1  0.00033800  0.25036400  0.50071800  1
  F  F2  1  0.70581300  0.42663300  0.12081200  1
  F  F3  1  0.70579300  0.92661200  0.12079200  1
  F  F4  1  0.29342800  0.57362600  0.88065900  1
  F  F5  1  0.29344100  0.07364100  0.88067400  1
  F  F6  1  0.63503000  0.40894400  0.68129900  1
  F  F7  1  0.63504800  0.90894800  0.68129900  1
  F  F8  1  0.36587700  0.59169100  0.32080300  1
  F  F9  1  0.36587000  0.09168000  0.32080100  1
loop_
_geom_bond_atom_site_label_1
_geom_bond_atom_site_label_2
_geom_bond_distance
_geom_bond_site_symmetry_2
Li0 O1 2.318724 1_656
Li1 O0 2.318828 1_656
Li2 O0 2.311880 1_555
Li3 O1 2.311970 1_555
Co0 O0 1.826295 1_555
Co0 O1 1.826707 1_555
Co0 F4 2.020107 1_554
Co0 F2 2.020983 1_455
Co0 F6 2.117601 1_454
Co0 F8 2.118821 1_555
Co1 O1 1.826102 1_545
Co1 O0 1.826452 1_555
Co1 F5 2.020119 1_554
Co1 F3 2.020956 1_445
Co1 F7 2.117550 1_444
Co1 F9 2.118808 1_555
F0 Li0 1.861207 1_455
F0 Li3 1.861290 1_555
F0 Li5 2.006308 1_455
F0 Li6 2.006324 1_555
F1 Li1 1.861212 1_455
F1 Li2 1.861299 1_555
F1 Li4 2.006306 1_455
F1 Li7 2.006331 1_555
F2 Li4 1.926111 1_555
F2 Li5 1.926167 1_555
F2 Li7 2.096567 1_554
F3 Li5 1.926067 1_555
F3 Li4 1.926308 1_565
F3 Li6 2.096421 1_554
F4 Li7 1.927164 1_555
F4 Li6 1.927385 1_555
F4 Li5 2.099781 1_556
F5 Li6 1.927279 1_545
F5 Li7 1.927373 1_555
F5 Li4 2.099665 1_556
F6 Li0 1.999983 1_555
F6 Li1 2.000427 1_555
F6 Li2 2.022353 1_555
F6 Li7 2.080898 1_555
F7 Li1 1.999929 1_565
F7 Li0 2.000405 1_555
F7 Li3 2.022400 1_555
F7 Li6 2.081035 1_555
F8 Li2 1.999103 1_555
F8 Li3 1.999163 1_555
F8 Li0 2.020617 1_555
F8 Li5 2.081042 1_555
F9 Li3 1.999026 1_545
F9 Li2 1.999237 1_555
F9 Li1 2.020623 1_555
F9 Li4 2.081115 1_555
