# generated using pymatgen
data_LiV2(PO4)3
_symmetry_space_group_name_H-M   'P 1'
_cell_length_a   9.60232732
_cell_length_b   9.60232732
_cell_length_c   8.05362650
_cell_angle_alpha   74.62007375
_cell_angle_beta   74.62007375
_cell_angle_gamma   36.54352596
_symmetry_Int_Tables_number   1
_chemical_formula_structural   LiV2(PO4)3
_chemical_formula_sum   'Li2 V4 P6 O24'
_cell_volume   424.56186211
_cell_formula_units_Z   2
loop_
 _symmetry_equiv_pos_site_id
 _symmetry_equiv_pos_as_xyz
  1  'x, y, z'
loop_
 _atom_site_type_symbol
 _atom_site_label
 _atom_site_symmetry_multiplicity
 _atom_site_fract_x
 _atom_site_fract_y
 _atom_site_fract_z
 _atom_site_occupancy
  Li  Li0  1  0.41075200  0.58924800  0.75000000  1
  Li  Li1  1  0.58924800  0.41075200  0.25000000  1
  V  V0  1  0.03060200  0.70028000  0.59240100  1
  V  V1  1  0.70028000  0.03060200  0.09240100  1
  V  V2  1  0.29972000  0.96939800  0.90759900  1
  V  V3  1  0.96939800  0.29972000  0.40759900  1
  P  P0  1  0.49612700  0.14632100  0.73123300  1
  P  P1  1  0.14632100  0.49612700  0.23123300  1
  P  P2  1  0.85367900  0.50387300  0.76876700  1
  P  P3  1  0.50387300  0.85367900  0.26876700  1
  P  P4  1  0.93807500  0.06192500  0.75000000  1
  P  P5  1  0.06192500  0.93807500  0.25000000  1
  O  O0  1  0.74831900  0.18473800  0.90497600  1
  O  O1  1  0.18473800  0.74831900  0.40497600  1
  O  O2  1  0.04274900  0.83268600  0.72869400  1
  O  O3  1  0.83268600  0.04274900  0.22869400  1
  O  O4  1  0.33494100  0.40789600  0.68668300  1
  O  O5  1  0.70223400  0.01694400  0.58804900  1
  O  O6  1  0.58390500  0.06604700  0.91355800  1
  O  O7  1  0.40789600  0.33494100  0.18668300  1
  O  O8  1  0.01694400  0.70223400  0.08804900  1
  O  O9  1  0.90116100  0.62415500  0.75754400  1
  O  O10  1  0.06604700  0.58390500  0.41355800  1
  O  O11  1  0.62415500  0.90116100  0.25754400  1
  O  O12  1  0.37584500  0.09883900  0.74245600  1
  O  O13  1  0.93395300  0.41609500  0.58644200  1
  O  O14  1  0.09883900  0.37584500  0.24245600  1
  O  O15  1  0.98305600  0.29776600  0.91195100  1
  O  O16  1  0.59210400  0.66505900  0.81331700  1
  O  O17  1  0.41609500  0.93395300  0.08644200  1
  O  O18  1  0.29776600  0.98305600  0.41195100  1
  O  O19  1  0.66505900  0.59210400  0.31331700  1
  O  O20  1  0.16731400  0.95725100  0.77130600  1
  O  O21  1  0.95725100  0.16731400  0.27130600  1
  O  O22  1  0.81526200  0.25168100  0.59502400  1
  O  O23  1  0.25168100  0.81526200  0.09502400  1
loop_
_geom_bond_atom_site_label_1
_geom_bond_atom_site_label_2
_geom_bond_distance
_geom_bond_site_symmetry_2
Li0 O20 2.194732 1_555
Li0 O2 2.194732 1_555
Li0 O0 2.548704 1_555
Li0 O22 2.548704 1_555
Li0 O16 2.554854 1_555
Li0 O4 2.554854 1_555
Li1 O21 2.194732 1_555
Li1 O3 2.194732 1_555
Li1 O23 2.548704 1_555
Li1 O1 2.548704 1_555
Li1 O19 2.554854 1_555
Li1 O7 2.554854 1_555
O0 P4 1.546064 1_555
O0 V1 2.055350 1_556
O1 P5 1.546064 1_555
O1 V0 2.055350 1_555
O2 P4 1.561707 1_465
O2 V0 1.970120 1_555
O3 P5 1.561707 1_645
O3 V1 1.970120 1_555
O4 P0 1.550179 1_555
O4 V0 1.965195 1_555
O5 P0 1.545532 1_555
O5 V0 1.945694 1_645
O6 P0 1.572547 1_555
O6 V1 1.849795 1_556
O7 P1 1.550179 1_555
O7 V1 1.965195 1_555
O8 P1 1.545532 1_555
O8 V1 1.945694 1_465
O9 P2 1.522813 1_555
O9 V0 1.978746 1_655
O10 P1 1.572547 1_555
O10 V0 1.849795 1_555
O11 P3 1.522813 1_555
O11 V1 1.978746 1_565
O12 P0 1.522813 1_555
O12 V2 1.978746 1_545
O13 P2 1.572547 1_555
O13 V3 1.849795 1_555
O14 P1 1.522813 1_555
O14 V3 1.978746 1_455
O15 P2 1.545532 1_555
O15 V2 1.945694 1_645
O16 P2 1.550179 1_555
O16 V2 1.965195 1_555
O17 P3 1.572547 1_555
O17 V2 1.849795 1_554
O18 P3 1.545532 1_555
O18 V3 1.945694 1_465
O19 P3 1.550179 1_555
O19 V3 1.965195 1_555
O20 P4 1.561707 1_465
O20 V2 1.970120 1_555
O21 P5 1.561707 1_645
O21 V3 1.970120 1_555
O22 P4 1.546064 1_555
O22 V3 2.055350 1_555
O23 P5 1.546064 1_555
O23 V2 2.055350 1_554
