# generated using pymatgen
data_Li2TiMn2O6
_symmetry_space_group_name_H-M   'P 1'
_cell_length_a   10.33416100
_cell_length_b   8.87085200
_cell_length_c   9.08017136
_cell_angle_alpha   61.34589805
_cell_angle_beta   90.00000000
_cell_angle_gamma   90.00000000
_symmetry_Int_Tables_number   1
_chemical_formula_structural   Li2TiMn2O6
_chemical_formula_sum   'Li12 Ti6 Mn12 O36'
_cell_volume   730.46070631
_cell_formula_units_Z   6
loop_
 _symmetry_equiv_pos_site_id
 _symmetry_equiv_pos_as_xyz
  1  'x, y, z'
loop_
 _atom_site_type_symbol
 _atom_site_label
 _atom_site_symmetry_multiplicity
 _atom_site_fract_x
 _atom_site_fract_y
 _atom_site_fract_z
 _atom_site_occupancy
  Li  Li0  1  0.27802200  0.61875400  0.44568500  1
  Li  Li1  1  0.23272500  0.10486600  0.13190600  1
  Li  Li2  1  0.22954100  0.41938600  0.80310600  1
  Li  Li3  1  0.72954100  0.08061400  0.19689400  1
  Li  Li4  1  0.73272500  0.39513400  0.86809400  1
  Li  Li5  1  0.77802200  0.88124600  0.55431500  1
  Li  Li6  1  0.22197800  0.11875400  0.44568500  1
  Li  Li7  1  0.26727500  0.60486600  0.13190600  1
  Li  Li8  1  0.27045900  0.91938600  0.80310600  1
  Li  Li9  1  0.77045900  0.58061400  0.19689400  1
  Li  Li10  1  0.76727500  0.89513400  0.86809400  1
  Li  Li11  1  0.72197800  0.38124600  0.55431500  1
  Ti  Ti0  1  0.51344100  0.82443400  0.33848500  1
  Ti  Ti1  1  0.01344100  0.67556600  0.66151500  1
  Ti  Ti2  1  0.50000000  0.50000000  0.00000000  1
  Ti  Ti3  1  0.98655900  0.32443400  0.33848500  1
  Ti  Ti4  1  0.48655900  0.17556600  0.66151500  1
  Ti  Ti5  1  0.00000000  0.00000000  0.00000000  1
  Mn  Mn0  1  0.00206800  0.66995500  0.33609300  1
  Mn  Mn1  1  0.49495500  0.16187800  0.00664800  1
  Mn  Mn2  1  0.50273200  0.49377700  0.67258000  1
  Mn  Mn3  1  0.99495500  0.33812200  0.99335200  1
  Mn  Mn4  1  0.00273200  0.00622300  0.32742000  1
  Mn  Mn5  1  0.49793200  0.16995500  0.33609300  1
  Mn  Mn6  1  0.50206800  0.83004500  0.66390700  1
  Mn  Mn7  1  0.99726800  0.99377700  0.67258000  1
  Mn  Mn8  1  0.00504500  0.66187800  0.00664800  1
  Mn  Mn9  1  0.49726800  0.50622300  0.32742000  1
  Mn  Mn10  1  0.50504500  0.83812200  0.99335200  1
  Mn  Mn11  1  0.99793200  0.33004500  0.66390700  1
  O  O0  1  0.60988000  0.61442100  0.42048200  1
  O  O1  1  0.59892900  0.95383300  0.11533500  1
  O  O2  1  0.60553400  0.28440900  0.76028800  1
  O  O3  1  0.10951100  0.57249800  0.55109200  1
  O  O4  1  0.10177600  0.22141000  0.88565600  1
  O  O5  1  0.10288700  0.91864900  0.20501800  1
  O  O6  1  0.90170500  0.45506800  0.75351500  1
  O  O7  1  0.90993800  0.78604700  0.44365300  1
  O  O8  1  0.89328900  0.13204200  0.08113400  1
  O  O9  1  0.39328900  0.36795800  0.91886600  1
  O  O10  1  0.40170500  0.04493200  0.24648500  1
  O  O11  1  0.40993800  0.71395300  0.55634700  1
  O  O12  1  0.60177600  0.27859000  0.11434400  1
  O  O13  1  0.60288700  0.58135100  0.79498200  1
  O  O14  1  0.60951100  0.92750200  0.44890800  1
  O  O15  1  0.10553400  0.21559100  0.23971200  1
  O  O16  1  0.09892900  0.54616700  0.88466500  1
  O  O17  1  0.10988000  0.88557900  0.57951800  1
  O  O18  1  0.89012000  0.11442100  0.42048200  1
  O  O19  1  0.90107100  0.45383300  0.11533500  1
  O  O20  1  0.89446600  0.78440900  0.76028800  1
  O  O21  1  0.39048900  0.07249800  0.55109200  1
  O  O22  1  0.39711300  0.41864900  0.20501800  1
  O  O23  1  0.39822400  0.72141000  0.88565600  1
  O  O24  1  0.59006200  0.28604700  0.44365300  1
  O  O25  1  0.59829500  0.95506800  0.75351500  1
  O  O26  1  0.60671100  0.63204200  0.08113400  1
  O  O27  1  0.10671100  0.86795800  0.91886600  1
  O  O28  1  0.09006200  0.21395300  0.55634700  1
  O  O29  1  0.09829500  0.54493200  0.24648500  1
  O  O30  1  0.89711300  0.08135100  0.79498200  1
  O  O31  1  0.89822400  0.77859000  0.11434400  1
  O  O32  1  0.89048900  0.42750200  0.44890800  1
  O  O33  1  0.39446600  0.71559100  0.23971200  1
  O  O34  1  0.40107100  0.04616700  0.88466500  1
  O  O35  1  0.39012000  0.38557900  0.57951800  1
loop_
_geom_bond_atom_site_label_1
_geom_bond_atom_site_label_2
_geom_bond_distance
_geom_bond_site_symmetry_2
Li0 O3 1.933994 1_555
Li0 O33 2.035457 1_555
Li0 O11 2.096450 1_555
Li0 O35 2.164854 1_555
Li1 O10 1.970800 1_555
Li1 O5 1.979423 1_545
Li1 O15 2.138411 1_555
Li1 O4 2.383860 1_554
Li2 O9 1.927855 1_555
Li2 O4 2.031494 1_555
Li2 O16 2.105690 1_555
Li2 O3 2.374676 1_555
Li3 O8 1.927855 1_555
Li3 O12 2.031494 1_555
Li3 O1 2.105690 1_545
Li3 O14 2.374676 1_545
Li4 O6 1.970800 1_555
Li4 O13 1.979423 1_555
Li4 O2 2.138411 1_555
Li4 O12 2.383860 1_556
Li5 O14 1.933994 1_555
Li5 O20 2.035457 1_555
Li5 O7 2.096450 1_555
Li5 O18 2.164854 1_565
Li6 O21 1.933994 1_555
Li6 O15 2.035457 1_555
Li6 O28 2.096450 1_555
Li6 O17 2.164854 1_545
Li7 O29 1.970800 1_555
Li7 O22 1.979423 1_555
Li7 O33 2.138411 1_555
Li7 O23 2.383860 1_554
Li8 O27 1.927855 1_555
Li8 O23 2.031494 1_555
Li8 O34 2.105690 1_565
Li8 O21 2.374676 1_565
Li9 O26 1.927855 1_555
Li9 O31 2.031494 1_555
Li9 O19 2.105690 1_555
Li9 O32 2.374676 1_555
Li10 O25 1.970800 1_555
Li10 O30 1.979423 1_565
Li10 O20 2.138411 1_555
Li10 O31 2.383860 1_556
Li11 O32 1.933994 1_555
Li11 O2 2.035457 1_555
Li11 O24 2.096450 1_555
Li11 O0 2.164854 1_555
Mn0 O29 1.935553 1_555
Mn0 O7 1.971168 1_455
Mn0 O3 2.042747 1_555
Mn0 O31 2.067282 1_455
Mn0 O5 2.202475 1_555
Mn0 O32 2.211734 1_455
Mn1 O9 1.919289 1_554
Mn1 O1 1.946210 1_545
Mn1 O12 2.053727 1_555
Mn1 O34 2.076565 1_554
Mn1 O10 2.140282 1_555
Mn1 O2 2.271462 1_554
Mn2 O13 1.933418 1_555
Mn2 O35 1.940990 1_555
Mn2 O2 1.947768 1_555
Mn2 O11 1.967567 1_555
Mn2 O9 2.265446 1_555
Mn2 O0 2.293884 1_555
Mn3 O8 1.919289 1_556
Mn3 O16 1.946210 1_655
Mn3 O4 2.053727 1_655
Mn3 O19 2.076565 1_556
Mn3 O6 2.140282 1_555
Mn3 O15 2.271462 1_656
Mn4 O5 1.933418 1_545
Mn4 O18 1.940990 1_455
Mn4 O15 1.947768 1_555
Mn4 O7 1.967567 1_445
Mn4 O8 2.265446 1_455
Mn4 O17 2.293884 1_545
Mn5 O10 1.935553 1_555
Mn5 O24 1.971168 1_555
Mn5 O21 2.042747 1_555
Mn5 O12 2.067282 1_555
Mn5 O22 2.202475 1_555
Mn5 O14 2.211734 1_545
Mn6 O25 1.935553 1_555
Mn6 O11 1.971168 1_555
Mn6 O14 2.042747 1_555
Mn6 O23 2.067282 1_555
Mn6 O13 2.202475 1_555
Mn6 O21 2.211734 1_565
Mn7 O30 1.933418 1_565
Mn7 O17 1.940990 1_655
Mn7 O20 1.947768 1_555
Mn7 O28 1.967567 1_665
Mn7 O27 2.265446 1_655
Mn7 O18 2.293884 1_565
Mn8 O27 1.919289 1_554
Mn8 O19 1.946210 1_455
Mn8 O31 2.053727 1_455
Mn8 O16 2.076565 1_554
Mn8 O29 2.140282 1_555
Mn8 O20 2.271462 1_454
Mn9 O22 1.933418 1_555
Mn9 O0 1.940990 1_555
Mn9 O33 1.947768 1_555
Mn9 O24 1.967567 1_555
Mn9 O26 2.265446 1_555
Mn9 O35 2.293884 1_555
Mn10 O26 1.919289 1_556
Mn10 O34 1.946210 1_565
Mn10 O23 2.053727 1_555
Mn10 O1 2.076565 1_556
Mn10 O25 2.140282 1_555
Mn10 O33 2.271462 1_556
Mn11 O6 1.935553 1_555
Mn11 O28 1.971168 1_655
Mn11 O32 2.042747 1_555
Mn11 O4 2.067282 1_655
Mn11 O30 2.202475 1_555
Mn11 O3 2.211734 1_655
O0 Ti0 1.920434 1_555
O1 Ti0 1.993274 1_555
O2 Ti4 2.019607 1_555
O3 Ti1 1.925127 1_555
O4 Ti5 2.021425 1_556
O5 Ti5 1.956638 1_565
O6 Ti1 2.071247 1_655
O7 Ti1 2.039265 1_655
O8 Ti5 1.989580 1_655
O9 Ti2 1.989580 1_556
O10 Ti0 2.071247 1_545
O11 Ti0 2.039265 1_555
O12 Ti2 2.021425 1_555
O13 Ti2 1.956638 1_556
O14 Ti0 1.925127 1_555
O15 Ti3 2.019607 1_455
O16 Ti1 1.993274 1_555
O17 Ti1 1.920434 1_555
O18 Ti3 1.920434 1_555
O19 Ti3 1.993274 1_555
O20 Ti1 2.019607 1_655
O21 Ti4 1.925127 1_555
O22 Ti2 1.956638 1_555
O23 Ti2 2.021425 1_556
O24 Ti4 2.039265 1_555
O25 Ti4 2.071247 1_565
O26 Ti2 1.989580 1_555
O27 Ti5 1.989580 1_566
O28 Ti3 2.039265 1_455
O29 Ti3 2.071247 1_455
O30 Ti5 1.956638 1_656
O31 Ti5 2.021425 1_665
O32 Ti3 1.925127 1_555
O33 Ti0 2.019607 1_555
O34 Ti4 1.993274 1_555
O35 Ti4 1.920434 1_555
