# generated using pymatgen
data_Li4NbIn3(PO4)6
_symmetry_space_group_name_H-M   'P 1'
_cell_length_a   9.01364800
_cell_length_b   8.75089700
_cell_length_c   15.20923989
_cell_angle_alpha   55.23212383
_cell_angle_beta   90.00000000
_cell_angle_gamma   90.00000000
_symmetry_Int_Tables_number   1
_chemical_formula_structural   Li4NbIn3(PO4)6
_chemical_formula_sum   'Li8 Nb2 In6 P12 O48'
_cell_volume   985.48924030
_cell_formula_units_Z   2
loop_
 _symmetry_equiv_pos_site_id
 _symmetry_equiv_pos_as_xyz
  1  'x, y, z'
loop_
 _atom_site_type_symbol
 _atom_site_label
 _atom_site_symmetry_multiplicity
 _atom_site_fract_x
 _atom_site_fract_y
 _atom_site_fract_z
 _atom_site_occupancy
  Li  Li0  1  0.04607400  0.96814400  0.82449800  1
  Li  Li1  1  0.97015000  0.59337200  0.17428700  1
  Li  Li2  1  0.46769000  0.40260100  0.32737300  1
  Li  Li3  1  0.53663500  0.03574600  0.67200800  1
  Li  Li4  1  0.95392600  0.96814400  0.32449800  1
  Li  Li5  1  0.02985000  0.59337200  0.67428700  1
  Li  Li6  1  0.53231000  0.40260100  0.82737300  1
  Li  Li7  1  0.46336500  0.03574600  0.17200800  1
  Nb  Nb0  1  0.71005300  0.85812200  0.89019900  1
  Nb  Nb1  1  0.28994700  0.85812200  0.39019900  1
  In  In0  1  0.29043200  0.63421700  0.11270800  1
  In  In1  1  0.79313700  0.36406200  0.38834600  1
  In  In2  1  0.20902400  0.13883200  0.60949700  1
  In  In3  1  0.70956800  0.63421700  0.61270800  1
  In  In4  1  0.20686300  0.36406200  0.88834600  1
  In  In5  1  0.79097600  0.13883200  0.10949700  1
  P  P0  1  0.50293000  0.45435100  0.50073400  1
  P  P1  1  0.64112700  0.74369300  0.15025000  1
  P  P2  1  0.36022300  0.04626100  0.85102400  1
  P  P3  1  0.85967500  0.95352800  0.65339000  1
  P  P4  1  0.14072600  0.25236900  0.35060100  1
  P  P5  1  0.99557000  0.54432800  0.99813000  1
  P  P6  1  0.49707000  0.45435100  0.00073400  1
  P  P7  1  0.35887300  0.74369300  0.65025000  1
  P  P8  1  0.63977700  0.04626100  0.35102400  1
  P  P9  1  0.14032500  0.95352800  0.15339000  1
  P  P10  1  0.85927400  0.25236900  0.85060100  1
  P  P11  1  0.00443000  0.54432800  0.49813000  1
  O  O0  1  0.91976400  0.54417100  0.41188700  1
  O  O1  1  0.12524000  0.39939200  0.55540300  1
  O  O2  1  0.12853800  0.78937700  0.14224000  1
  O  O3  1  0.83456800  0.09425700  0.83072600  1
  O  O4  1  0.59665700  0.48558000  0.40727500  1
  O  O5  1  0.66374300  0.82943600  0.02601800  1
  O  O6  1  0.24562300  0.09575200  0.76349900  1
  O  O7  1  0.48539900  0.65715000  0.18478700  1
  O  O8  1  0.51871800  0.01009800  0.81861900  1
  O  O9  1  0.42563100  0.26417300  0.55318300  1
  O  O10  1  0.30750500  0.86693600  0.95278800  1
  O  O11  1  0.76318200  0.59709700  0.21143600  1
  O  O12  1  0.26026800  0.40249200  0.28672400  1
  O  O13  1  0.79882700  0.13228400  0.55389600  1
  O  O14  1  0.91297900  0.74388300  0.93604100  1
  O  O15  1  0.00937000  0.98064200  0.69233000  1
  O  O16  1  0.98245500  0.33218700  0.31090400  1
  O  O17  1  0.73988200  0.89966100  0.74443000  1
  O  O18  1  0.15187000  0.15626600  0.47087800  1
  O  O19  1  0.09030700  0.54119700  0.08304200  1
  O  O20  1  0.35242900  0.90215300  0.66599700  1
  O  O21  1  0.62115800  0.20861400  0.36390100  1
  O  O22  1  0.41668400  0.45809100  0.08691400  1
  O  O23  1  0.61592400  0.61948500  0.94403600  1
  O  O24  1  0.87476000  0.39939200  0.05540300  1
  O  O25  1  0.08023600  0.54417100  0.91188700  1
  O  O26  1  0.87146200  0.78937700  0.64224000  1
  O  O27  1  0.16543200  0.09425700  0.33072600  1
  O  O28  1  0.40334300  0.48558000  0.90727500  1
  O  O29  1  0.33625700  0.82943600  0.52601800  1
  O  O30  1  0.75437700  0.09575200  0.26349900  1
  O  O31  1  0.51460100  0.65715000  0.68478700  1
  O  O32  1  0.48128200  0.01009800  0.31861900  1
  O  O33  1  0.57436900  0.26417300  0.05318300  1
  O  O34  1  0.69249500  0.86693600  0.45278800  1
  O  O35  1  0.23681800  0.59709700  0.71143600  1
  O  O36  1  0.73973200  0.40249200  0.78672400  1
  O  O37  1  0.20117300  0.13228400  0.05389600  1
  O  O38  1  0.08702100  0.74388300  0.43604100  1
  O  O39  1  0.99063000  0.98064200  0.19233000  1
  O  O40  1  0.01754500  0.33218700  0.81090400  1
  O  O41  1  0.26011800  0.89966100  0.24443000  1
  O  O42  1  0.84813000  0.15626600  0.97087800  1
  O  O43  1  0.90969300  0.54119700  0.58304200  1
  O  O44  1  0.64757100  0.90215300  0.16599700  1
  O  O45  1  0.37884200  0.20861400  0.86390100  1
  O  O46  1  0.38407600  0.61948500  0.44403600  1
  O  O47  1  0.58331600  0.45809100  0.58691400  1
loop_
_geom_bond_atom_site_label_1
_geom_bond_atom_site_label_2
_geom_bond_distance
_geom_bond_site_symmetry_2
Li0 O15 1.977745 1_555
Li0 O6 2.039933 1_565
Li0 O14 2.090814 1_455
Li0 O3 2.231737 1_465
Li1 O11 1.954873 1_555
Li1 O19 2.007490 1_655
Li1 O16 2.034037 1_555
Li1 O2 2.065009 1_655
Li2 O12 1.969367 1_555
Li2 O21 2.007059 1_555
Li2 O7 2.044722 1_555
Li2 O4 2.088507 1_555
Li3 O9 2.035394 1_555
Li3 O20 2.062468 1_545
Li3 O8 2.116095 1_555
Li3 O17 2.119343 1_545
Li4 O39 1.977745 1_555
Li4 O30 2.039933 1_565
Li4 O38 2.090814 1_655
Li4 O27 2.231737 1_665
Li5 O35 1.954873 1_555
Li5 O43 2.007490 1_455
Li5 O40 2.034037 1_555
Li5 O26 2.065009 1_455
Li6 O36 1.969367 1_555
Li6 O45 2.007059 1_555
Li6 O31 2.044722 1_555
Li6 O28 2.088507 1_555
Li7 O33 2.035394 1_555
Li7 O44 2.062468 1_545
Li7 O32 2.116095 1_555
Li7 O41 2.119343 1_545
Nb0 O23 1.949637 1_555
Nb0 O5 1.978125 1_556
Nb0 O14 2.009025 1_555
Nb0 O17 2.049521 1_555
Nb0 O3 2.053302 1_565
Nb0 O8 2.068082 1_565
Nb1 O46 1.949637 1_555
Nb1 O29 1.978125 1_555
Nb1 O38 2.009025 1_555
Nb1 O41 2.049521 1_555
Nb1 O27 2.053302 1_565
Nb1 O32 2.068082 1_565
In0 O10 2.106571 1_554
In0 O22 2.124622 1_555
In0 O19 2.130486 1_555
In0 O7 2.140401 1_555
In0 O2 2.206879 1_555
In0 O12 2.251600 1_555
In1 O0 2.135103 1_555
In1 O13 2.152151 1_555
In1 O4 2.167785 1_555
In1 O16 2.179852 1_555
In1 O21 2.229007 1_555
In1 O11 2.283255 1_555
In2 O1 2.075261 1_555
In2 O18 2.089669 1_555
In2 O20 2.160804 1_545
In2 O9 2.162673 1_555
In2 O6 2.174863 1_555
In2 O15 2.180146 1_545
In3 O34 2.106571 1_555
In3 O47 2.124622 1_555
In3 O43 2.130486 1_555
In3 O31 2.140401 1_555
In3 O26 2.206879 1_555
In3 O36 2.251600 1_555
In4 O25 2.135103 1_555
In4 O37 2.152151 1_556
In4 O28 2.167785 1_555
In4 O40 2.179852 1_555
In4 O45 2.229007 1_555
In4 O35 2.283255 1_555
In5 O24 2.075261 1_555
In5 O42 2.089669 1_554
In5 O44 2.160804 1_545
In5 O33 2.162673 1_555
In5 O30 2.174863 1_555
In5 O39 2.180146 1_545
O0 P11 1.518218 1_655
O1 P11 1.514319 1_555
O2 P9 1.543151 1_555
O3 P10 1.591348 1_555
O4 P0 1.538137 1_555
O5 P1 1.599292 1_555
O6 P2 1.539193 1_555
O7 P1 1.538204 1_555
O8 P2 1.600589 1_555
O9 P0 1.541865 1_555
O10 P2 1.521123 1_565
O11 P1 1.536394 1_555
O12 P4 1.541133 1_555
O13 P3 1.529029 1_545
O14 P5 1.617003 1_555
O15 P3 1.545292 1_455
O16 P4 1.551328 1_655
O17 P3 1.600298 1_555
O18 P4 1.519596 1_555
O19 P5 1.535389 1_454
O20 P7 1.536994 1_555
O21 P8 1.549953 1_555
O22 P6 1.514272 1_555
O23 P6 1.599477 1_556
O24 P5 1.514319 1_554
O25 P5 1.518218 1_455
O26 P3 1.543151 1_555
O27 P4 1.591348 1_555
O28 P6 1.538137 1_556
O29 P7 1.599292 1_555
O30 P8 1.539193 1_555
O31 P7 1.538204 1_555
O32 P8 1.600589 1_555
O33 P6 1.541865 1_555
O34 P8 1.521123 1_565
O35 P7 1.536394 1_555
O36 P10 1.541133 1_555
O37 P9 1.529029 1_545
O38 P11 1.617003 1_555
O39 P9 1.545292 1_655
O40 P10 1.551328 1_455
O41 P9 1.600298 1_555
O42 P10 1.519596 1_555
O43 P11 1.535389 1_655
O44 P1 1.536994 1_555
O45 P2 1.549953 1_555
O46 P0 1.599477 1_555
O47 P0 1.514272 1_555
