# generated using pymatgen
data_SrTaNO2
_symmetry_space_group_name_H-M   'P 1'
_cell_length_a   7.05208367
_cell_length_b   7.05208367
_cell_length_c   5.80719287
_cell_angle_alpha   89.96231185
_cell_angle_beta   89.96231185
_cell_angle_gamma   70.06317202
_symmetry_Int_Tables_number   1
_chemical_formula_structural   SrTaNO2
_chemical_formula_sum   'Sr4 Ta4 N4 O8'
_cell_volume   271.49436660
_cell_formula_units_Z   4
loop_
 _symmetry_equiv_pos_site_id
 _symmetry_equiv_pos_as_xyz
  1  'x, y, z'
loop_
 _atom_site_type_symbol
 _atom_site_label
 _atom_site_symmetry_multiplicity
 _atom_site_fract_x
 _atom_site_fract_y
 _atom_site_fract_z
 _atom_site_occupancy
  Sr  Sr0  1  0.74743700  0.25256300  0.00000000  1
  Sr  Sr1  1  0.25256300  0.74743700  0.00000000  1
  Sr  Sr2  1  0.00000000  0.50000000  0.50000000  1
  Sr  Sr3  1  0.50000000  0.00000000  0.50000000  1
  Ta  Ta0  1  0.75157100  0.75157100  0.02685000  1
  Ta  Ta1  1  0.24842900  0.24842900  0.97315000  1
  Ta  Ta2  1  0.00000000  0.00000000  0.50000000  1
  Ta  Ta3  1  0.50000000  0.50000000  0.50000000  1
  N  N0  1  0.63273900  0.63273900  0.26545700  1
  N  N1  1  0.88709300  0.88709300  0.22680200  1
  N  N2  1  0.11290700  0.11290700  0.77319800  1
  N  N3  1  0.36726100  0.36726100  0.73454300  1
  O  O0  1  0.13682000  0.13682000  0.28094000  1
  O  O1  1  0.38432000  0.38432000  0.23815500  1
  O  O2  1  0.50000000  0.00000000  0.00000000  1
  O  O3  1  0.00000000  0.50000000  0.00000000  1
  O  O4  1  0.61568000  0.61568000  0.76184500  1
  O  O5  1  0.86318000  0.86318000  0.71906000  1
  O  O6  1  0.24983800  0.75016200  0.50000000  1
  O  O7  1  0.75016200  0.24983800  0.50000000  1
loop_
_geom_bond_atom_site_label_1
_geom_bond_atom_site_label_2
_geom_bond_distance
_geom_bond_site_symmetry_2
N0 Ta0 1.949459 1_555
N0 Ta3 2.049850 1_555
N0 Sr2 2.790852 1_655
N0 Sr3 2.790852 1_565
N0 Sr0 2.956940 1_555
N0 Sr1 2.956940 1_555
N1 Ta0 1.949586 1_555
N1 Ta2 2.054426 1_665
N1 Sr0 2.759250 1_565
N1 Sr1 2.759250 1_655
N1 Sr2 3.019362 1_655
N1 Sr3 3.019362 1_565
N2 Ta1 1.949586 1_555
N2 Ta2 2.054426 1_555
N2 Sr1 2.759250 1_546
N2 Sr0 2.759250 1_456
N2 Sr2 3.019362 1_555
N2 Sr3 3.019362 1_555
N3 Ta1 1.949459 1_555
N3 Ta3 2.049850 1_555
N3 Sr2 2.790852 1_555
N3 Sr3 2.790852 1_555
N3 Sr1 2.956940 1_556
N3 Sr0 2.956940 1_556
O0 Ta2 2.027780 1_555
O0 Ta1 2.202846 1_554
O0 Sr2 2.725121 1_555
O0 Sr3 2.725121 1_555
O0 Sr1 3.056773 1_545
O0 Sr0 3.056773 1_455
O1 Ta3 2.024921 1_555
O1 Ta1 2.198916 1_554
O1 Sr0 2.776295 1_555
O1 Sr1 2.776295 1_555
O1 Sr2 2.968428 1_555
O1 Sr3 2.968428 1_555
O2 Ta1 2.030126 1_554
O2 Ta0 2.030126 1_545
O2 Sr1 2.887324 1_545
O2 Sr0 2.887324 1_555
O2 Sr3 2.903596 1_554
O2 Sr3 2.903596 1_555
O3 Ta1 2.030126 1_554
O3 Ta0 2.030126 1_455
O3 Sr0 2.887324 1_455
O3 Sr1 2.887324 1_555
O3 Sr2 2.903596 1_555
O3 Sr2 2.903596 1_554
O4 Ta3 2.024921 1_555
O4 Ta0 2.198916 1_556
O4 Sr0 2.776295 1_556
O4 Sr1 2.776295 1_556
O4 Sr2 2.968428 1_655
O4 Sr3 2.968428 1_565
O5 Ta2 2.027780 1_665
O5 Ta0 2.202846 1_556
O5 Sr2 2.725121 1_655
O5 Sr3 2.725121 1_565
O5 Sr0 3.056773 1_566
O5 Sr1 3.056773 1_656
O6 Ta2 2.022735 1_565
O6 Ta3 2.025358 1_555
O6 Sr3 2.887249 1_565
O6 Sr2 2.887249 1_555
O6 Sr1 2.903680 1_555
O6 Sr1 2.903680 1_556
O7 Ta2 2.022735 1_655
O7 Ta3 2.025358 1_555
O7 Sr3 2.887249 1_555
O7 Sr2 2.887249 1_655
O7 Sr0 2.903680 1_555
O7 Sr0 2.903680 1_556
