# generated using pymatgen
data_Li4Mn2(PO4)3
_symmetry_space_group_name_H-M   'P 1'
_cell_length_a   8.37664100
_cell_length_b   8.51945820
_cell_length_c   9.23860982
_cell_angle_alpha   92.29689528
_cell_angle_beta   115.48487041
_cell_angle_gamma   119.11043786
_symmetry_Int_Tables_number   1
_chemical_formula_structural   Li4Mn2(PO4)3
_chemical_formula_sum   'Li8 Mn4 P6 O24'
_cell_volume   493.29461387
_cell_formula_units_Z   2
loop_
 _symmetry_equiv_pos_site_id
 _symmetry_equiv_pos_as_xyz
  1  'x, y, z'
loop_
 _atom_site_type_symbol
 _atom_site_label
 _atom_site_symmetry_multiplicity
 _atom_site_fract_x
 _atom_site_fract_y
 _atom_site_fract_z
 _atom_site_occupancy
  Li  Li0  1  0.93143200  0.66213900  0.85437000  1
  Li  Li1  1  0.19490700  0.26761000  0.86431800  1
  Li  Li2  1  0.63249100  0.94175100  0.90186000  1
  Li  Li3  1  0.66869500  0.20532000  0.40855200  1
  Li  Li4  1  0.33130500  0.79468000  0.59144800  1
  Li  Li5  1  0.36750900  0.05824900  0.09814000  1
  Li  Li6  1  0.80509300  0.73239000  0.13568200  1
  Li  Li7  1  0.06856800  0.33786100  0.14563000  1
  Mn  Mn0  1  0.31131300  0.65027900  0.96600700  1
  Mn  Mn1  1  0.28368600  0.14701100  0.43723300  1
  Mn  Mn2  1  0.71631400  0.85298900  0.56276700  1
  Mn  Mn3  1  0.68868700  0.34972100  0.03399300  1
  P  P0  1  0.80551300  0.25311500  0.76065000  1
  P  P1  1  0.21451400  0.95189800  0.75156800  1
  P  P2  1  0.49665800  0.55010800  0.75255300  1
  P  P3  1  0.50334200  0.44989200  0.24744700  1
  P  P4  1  0.78548600  0.04810200  0.24843200  1
  P  P5  1  0.19448700  0.74688500  0.23935000  1
  O  O0  1  0.35929600  0.15057300  0.89771800  1
  O  O1  1  0.69641300  0.56418600  0.89776200  1
  O  O2  1  0.74867800  0.21196400  0.90541600  1
  O  O3  1  0.98325700  0.46753600  0.81915200  1
  O  O4  1  0.88840700  0.12934000  0.74942200  1
  O  O5  1  0.61224100  0.20244100  0.59275900  1
  O  O6  1  0.99899500  0.85200900  0.74373200  1
  O  O7  1  0.32030100  0.83889400  0.80752400  1
  O  O8  1  0.33469600  0.50440200  0.81507200  1
  O  O9  1  0.61688000  0.60565900  0.40792700  1
  O  O10  1  0.42930700  0.25216200  0.27403100  1
  O  O11  1  0.79972900  0.02573900  0.41478600  1
  O  O12  1  0.20027100  0.97426100  0.58521400  1
  O  O13  1  0.57069300  0.74783800  0.72596900  1
  O  O14  1  0.38312000  0.39434100  0.59207300  1
  O  O15  1  0.66530400  0.49559800  0.18492800  1
  O  O16  1  0.67969900  0.16110600  0.19247600  1
  O  O17  1  0.00100500  0.14799100  0.25626800  1
  O  O18  1  0.38775900  0.79755900  0.40724100  1
  O  O19  1  0.11159300  0.87066000  0.25057800  1
  O  O20  1  0.01674300  0.53246400  0.18084800  1
  O  O21  1  0.25132200  0.78803600  0.09458400  1
  O  O22  1  0.30358700  0.43581400  0.10223800  1
  O  O23  1  0.64070400  0.84942700  0.10228200  1
loop_
_geom_bond_atom_site_label_1
_geom_bond_atom_site_label_2
_geom_bond_distance
_geom_bond_site_symmetry_2
Li0 O6 1.929057 1_555
Li0 O3 1.954891 1_555
Li0 O1 1.959652 1_555
Li0 O21 2.269603 1_656
Li1 O4 1.928202 1_455
Li1 O8 1.970127 1_555
Li1 O0 1.995133 1_555
Li1 O22 2.114217 1_556
Li2 O13 1.966372 1_555
Li2 O2 2.008548 1_565
Li2 O23 2.027723 1_556
Li2 O7 2.028301 1_555
Li3 O5 1.950646 1_555
Li3 O16 2.065726 1_555
Li3 O10 2.097300 1_555
Li3 O11 2.266139 1_555
Li4 O18 1.950646 1_555
Li4 O7 2.065726 1_555
Li4 O13 2.097300 1_555
Li4 O12 2.266139 1_555
Li5 O10 1.966372 1_555
Li5 O21 2.008548 1_545
Li5 O0 2.027723 1_554
Li5 O16 2.028301 1_555
Li6 O19 1.928202 1_655
Li6 O15 1.970127 1_555
Li6 O23 1.995133 1_555
Li6 O1 2.114217 1_554
Li7 O17 1.929057 1_555
Li7 O20 1.954891 1_555
Li7 O22 1.959652 1_555
Li7 O2 2.269603 1_454
Mn0 O8 1.964769 1_555
Mn0 O21 2.004177 1_556
Mn0 O3 2.067775 1_455
Mn0 O23 2.088371 1_556
Mn0 O7 2.212983 1_555
Mn0 O22 2.250773 1_556
Mn1 O14 2.050718 1_555
Mn1 O12 2.122749 1_545
Mn1 O19 2.197241 1_545
Mn1 O17 2.239605 1_555
Mn1 O5 2.267180 1_555
Mn1 O10 2.278495 1_555
Mn2 O9 2.050718 1_555
Mn2 O11 2.122749 1_565
Mn2 O4 2.197241 1_565
Mn2 O6 2.239605 1_555
Mn2 O18 2.267180 1_555
Mn2 O13 2.278495 1_555
Mn3 O15 1.964769 1_555
Mn3 O2 2.004177 1_554
Mn3 O20 2.067775 1_655
Mn3 O0 2.088371 1_554
Mn3 O16 2.212983 1_555
Mn3 O1 2.250773 1_554
O0 P1 1.602867 1_545
O1 P2 1.572916 1_555
O2 P0 1.600446 1_555
O3 P0 1.558184 1_555
O4 P0 1.539652 1_555
O5 P0 1.522695 1_555
O6 P1 1.541558 1_655
O7 P1 1.566874 1_555
O8 P2 1.582469 1_555
O9 P3 1.504851 1_555
O10 P3 1.558972 1_555
O11 P4 1.516683 1_555
O12 P1 1.516683 1_555
O13 P2 1.558972 1_555
O14 P2 1.504851 1_555
O15 P3 1.582469 1_555
O16 P4 1.566874 1_555
O17 P4 1.541558 1_455
O18 P5 1.522695 1_555
O19 P5 1.539652 1_555
O20 P5 1.558184 1_555
O21 P5 1.600446 1_555
O22 P3 1.572916 1_555
O23 P4 1.602867 1_565
