# generated using pymatgen
data_ScRe4H8NO20
_symmetry_space_group_name_H-M   'P 1'
_cell_length_a   12.22472900
_cell_length_b   12.22472900
_cell_length_c   6.20531500
_cell_angle_alpha   90.00000000
_cell_angle_beta   90.00000000
_cell_angle_gamma   90.00000000
_symmetry_Int_Tables_number   1
_chemical_formula_structural   ScRe4H8NO20
_chemical_formula_sum   'Sc2 Re8 H16 N2 O40'
_cell_volume   927.34708942
_cell_formula_units_Z   2
loop_
 _symmetry_equiv_pos_site_id
 _symmetry_equiv_pos_as_xyz
  1  'x, y, z'
loop_
 _atom_site_type_symbol
 _atom_site_label
 _atom_site_symmetry_multiplicity
 _atom_site_fract_x
 _atom_site_fract_y
 _atom_site_fract_z
 _atom_site_occupancy
  Sc  Sc0  1  0.50000000  0.00000000  0.25000000  1
  Sc  Sc1  1  0.00000000  0.50000000  0.75000000  1
  Re  Re0  1  0.40511400  0.27564300  0.97874100  1
  Re  Re1  1  0.90511400  0.22435700  0.47874100  1
  Re  Re2  1  0.27564300  0.59488600  0.02125900  1
  Re  Re3  1  0.77564300  0.90511400  0.52125900  1
  Re  Re4  1  0.59488600  0.72435700  0.97874100  1
  Re  Re5  1  0.09488600  0.77564300  0.47874100  1
  Re  Re6  1  0.72435700  0.40511400  0.02125900  1
  Re  Re7  1  0.22435700  0.09488600  0.52125900  1
  H  H0  1  0.51117600  0.21423300  0.43059000  1
  H  H1  1  0.01117600  0.28576700  0.93059000  1
  H  H2  1  0.21423300  0.48882400  0.56941000  1
  H  H3  1  0.71423300  0.01117600  0.06941000  1
  H  H4  1  0.48882400  0.78576700  0.43059000  1
  H  H5  1  0.98882400  0.71423300  0.93059000  1
  H  H6  1  0.78576700  0.51117600  0.56941000  1
  H  H7  1  0.28576700  0.98882400  0.06941000  1
  H  H8  1  0.63205200  0.16733300  0.46234600  1
  H  H9  1  0.13205200  0.33266700  0.96234600  1
  H  H10  1  0.16733300  0.36794800  0.53765400  1
  H  H11  1  0.66733300  0.13205200  0.03765400  1
  H  H12  1  0.36794800  0.83266700  0.46234600  1
  H  H13  1  0.86794800  0.66733300  0.96234600  1
  H  H14  1  0.83266700  0.63205200  0.53765400  1
  H  H15  1  0.33266700  0.86794800  0.03765400  1
  N  N0  1  0.50000000  0.50000000  0.50000000  1
  N  N1  1  0.00000000  0.00000000  0.00000000  1
  O  O0  1  0.43924700  0.13893600  0.04595800  1
  O  O1  1  0.93924700  0.36106400  0.54595800  1
  O  O2  1  0.13893600  0.56075300  0.95404200  1
  O  O3  1  0.63893600  0.93924700  0.45404200  1
  O  O4  1  0.56075300  0.86106400  0.04595800  1
  O  O5  1  0.06075300  0.63893600  0.54595800  1
  O  O6  1  0.86106400  0.43924700  0.95404200  1
  O  O7  1  0.36106400  0.06075300  0.45404200  1
  O  O8  1  0.26376500  0.29620200  0.01167600  1
  O  O9  1  0.76376500  0.20379800  0.51167600  1
  O  O10  1  0.29620200  0.73623500  0.98832400  1
  O  O11  1  0.79620200  0.76376500  0.48832400  1
  O  O12  1  0.73623500  0.70379800  0.01167600  1
  O  O13  1  0.23623500  0.79620200  0.51167600  1
  O  O14  1  0.70379800  0.26376500  0.98832400  1
  O  O15  1  0.20379800  0.23623500  0.48832400  1
  O  O16  1  0.44452000  0.29841500  0.71284100  1
  O  O17  1  0.94452000  0.20158500  0.21284100  1
  O  O18  1  0.29841500  0.55548000  0.28715900  1
  O  O19  1  0.79841500  0.94452000  0.78715900  1
  O  O20  1  0.55548000  0.70158500  0.71284100  1
  O  O21  1  0.05548000  0.79841500  0.21284100  1
  O  O22  1  0.70158500  0.44452000  0.28715900  1
  O  O23  1  0.20158500  0.05548000  0.78715900  1
  O  O24  1  0.47835700  0.35905400  0.15575100  1
  O  O25  1  0.97835700  0.14094600  0.65575100  1
  O  O26  1  0.35905400  0.52164300  0.84424900  1
  O  O27  1  0.85905400  0.97835700  0.34424900  1
  O  O28  1  0.52164300  0.64094600  0.15575100  1
  O  O29  1  0.02164300  0.85905400  0.65575100  1
  O  O30  1  0.64094600  0.47835700  0.84424900  1
  O  O31  1  0.14094600  0.02164300  0.34424900  1
  O  O32  1  0.55460700  0.14622900  0.43016000  1
  O  O33  1  0.05460700  0.35377100  0.93016000  1
  O  O34  1  0.14622900  0.44539300  0.56984000  1
  O  O35  1  0.64622900  0.05460700  0.06984000  1
  O  O36  1  0.44539300  0.85377100  0.43016000  1
  O  O37  1  0.94539300  0.64622900  0.93016000  1
  O  O38  1  0.85377100  0.55460700  0.56984000  1
  O  O39  1  0.35377100  0.94539300  0.06984000  1
loop_
_geom_bond_atom_site_label_1
_geom_bond_atom_site_label_2
_geom_bond_distance
_geom_bond_site_symmetry_2
H0 O32 0.986411 1_555
H1 O33 0.986411 1_555
H2 O34 0.986411 1_555
H3 O35 0.986411 1_555
H4 O36 0.986411 1_555
H5 O37 0.986411 1_555
H6 O38 0.986411 1_555
H7 O39 0.986411 1_555
H8 O32 1.001386 1_555
H8 O9 1.698534 1_555
H9 O33 1.001386 1_555
H9 O8 1.698534 1_556
H10 O34 1.001386 1_555
H10 O15 1.698534 1_555
H11 O35 1.001386 1_555
H11 O14 1.698534 1_554
H12 O36 1.001386 1_555
H12 O13 1.698534 1_555
H13 O37 1.001386 1_555
H13 O12 1.698534 1_556
H14 O38 1.001386 1_555
H14 O11 1.698534 1_555
H15 O39 1.001386 1_555
H15 O10 1.698534 1_554
O0 Re0 1.772291 1_554
O0 Sc0 2.244874 1_555
O1 Re1 1.772291 1_555
O1 Sc1 2.244874 1_655
O2 Re2 1.772291 1_556
O2 Sc1 2.244874 1_555
O3 Re3 1.772291 1_555
O3 Sc0 2.244874 1_565
O4 Re4 1.772291 1_554
O4 Sc0 2.244874 1_565
O5 Re5 1.772291 1_555
O5 Sc1 2.244874 1_555
O6 Re6 1.772291 1_556
O6 Sc1 2.244874 1_655
O7 Re7 1.772291 1_555
O7 Sc0 2.244874 1_555
O8 Re0 1.758055 1_554
O9 Re1 1.758055 1_555
O10 Re2 1.758055 1_556
O11 Re3 1.758055 1_555
O12 Re4 1.758055 1_554
O13 Re5 1.758055 1_555
O14 Re6 1.758055 1_556
O15 Re7 1.758055 1_555
O16 Re0 1.741274 1_555
O17 Re1 1.741274 1_555
O18 Re2 1.741274 1_555
O19 Re3 1.741274 1_555
O20 Re4 1.741274 1_555
O21 Re5 1.741274 1_555
O22 Re6 1.741274 1_555
O23 Re7 1.741274 1_555
O24 Re0 1.745831 1_554
O25 Re1 1.745831 1_555
O26 Re2 1.745831 1_556
O27 Re3 1.745831 1_555
O28 Re4 1.745831 1_554
O29 Re5 1.745831 1_555
O30 Re6 1.745831 1_556
O31 Re7 1.745831 1_555
O32 Sc0 2.211559 1_555
O33 Sc1 2.211559 1_555
O34 Sc1 2.211559 1_555
O35 Sc0 2.211559 1_555
O36 Sc0 2.211559 1_565
O37 Sc1 2.211559 1_655
O38 Sc1 2.211559 1_655
O39 Sc0 2.211559 1_565
