# generated using pymatgen
data_Li2V3Cr2O12
_symmetry_space_group_name_H-M   'P 1'
_cell_length_a   9.07939100
_cell_length_b   9.15262400
_cell_length_c   12.62142200
_cell_angle_alpha   90.00000000
_cell_angle_beta   90.00000000
_cell_angle_gamma   90.00000000
_symmetry_Int_Tables_number   1
_chemical_formula_structural   Li2V3Cr2O12
_chemical_formula_sum   'Li8 V12 Cr8 O48'
_cell_volume   1048.84334844
_cell_formula_units_Z   4
loop_
 _symmetry_equiv_pos_site_id
 _symmetry_equiv_pos_as_xyz
  1  'x, y, z'
loop_
 _atom_site_type_symbol
 _atom_site_label
 _atom_site_symmetry_multiplicity
 _atom_site_fract_x
 _atom_site_fract_y
 _atom_site_fract_z
 _atom_site_occupancy
  Li  Li0  1  0.27259200  0.22157900  0.18872600  1
  Li  Li1  1  0.77259200  0.77842100  0.18872600  1
  Li  Li2  1  0.77259200  0.27842100  0.31127400  1
  Li  Li3  1  0.27259200  0.72157900  0.31127400  1
  Li  Li4  1  0.72740800  0.27842100  0.68872600  1
  Li  Li5  1  0.22740800  0.72157900  0.68872600  1
  Li  Li6  1  0.22740800  0.22157900  0.81127400  1
  Li  Li7  1  0.72740800  0.77842100  0.81127400  1
  V  V0  1  0.25000000  0.46640200  0.00000000  1
  V  V1  1  0.75000000  0.53359800  0.00000000  1
  V  V2  1  0.75000000  0.03359800  0.50000000  1
  V  V3  1  0.25000000  0.96640200  0.50000000  1
  V  V4  1  0.60472400  0.10244700  0.14197200  1
  V  V5  1  0.10472400  0.89755300  0.14197200  1
  V  V6  1  0.10472400  0.39755300  0.35802800  1
  V  V7  1  0.60472400  0.60244700  0.35802800  1
  V  V8  1  0.39527600  0.39755300  0.64197200  1
  V  V9  1  0.89527600  0.60244700  0.64197200  1
  V  V10  1  0.89527600  0.10244700  0.85802800  1
  V  V11  1  0.39527600  0.89755300  0.85802800  1
  Cr  Cr0  1  0.96921400  0.25229300  0.12081900  1
  Cr  Cr1  1  0.46921400  0.74770700  0.12081900  1
  Cr  Cr2  1  0.96921400  0.75229300  0.37918100  1
  Cr  Cr3  1  0.46921400  0.24770700  0.37918100  1
  Cr  Cr4  1  0.03078600  0.24770700  0.62081900  1
  Cr  Cr5  1  0.53078600  0.75229300  0.62081900  1
  Cr  Cr6  1  0.53078600  0.25229300  0.87918100  1
  Cr  Cr7  1  0.03078600  0.74770700  0.87918100  1
  O  O0  1  0.55383200  0.15737500  0.01776600  1
  O  O1  1  0.05383200  0.84262500  0.01776600  1
  O  O2  1  0.36844300  0.57364600  0.07258700  1
  O  O3  1  0.86844300  0.42635400  0.07258700  1
  O  O4  1  0.15850100  0.35103900  0.08975400  1
  O  O5  1  0.65850100  0.64896100  0.08975400  1
  O  O6  1  0.10047900  0.08859600  0.15947000  1
  O  O7  1  0.60047900  0.91140400  0.15947000  1
  O  O8  1  0.78077100  0.16262600  0.17209400  1
  O  O9  1  0.28077100  0.83737400  0.17209400  1
  O  O10  1  0.97653800  0.82217300  0.23082200  1
  O  O11  1  0.47653800  0.17782700  0.23082200  1
  O  O12  1  0.97653800  0.32217300  0.26917800  1
  O  O13  1  0.47653800  0.67782700  0.26917800  1
  O  O14  1  0.78077100  0.66262600  0.32790600  1
  O  O15  1  0.28077100  0.33737400  0.32790600  1
  O  O16  1  0.60047900  0.41140400  0.34053000  1
  O  O17  1  0.10047900  0.58859600  0.34053000  1
  O  O18  1  0.65850100  0.14896100  0.41024600  1
  O  O19  1  0.15850100  0.85103900  0.41024600  1
  O  O20  1  0.36844300  0.07364600  0.42741300  1
  O  O21  1  0.86844300  0.92635400  0.42741300  1
  O  O22  1  0.55383200  0.65737500  0.48223400  1
  O  O23  1  0.05383200  0.34262500  0.48223400  1
  O  O24  1  0.44616800  0.34262500  0.51776600  1
  O  O25  1  0.94616800  0.65737500  0.51776600  1
  O  O26  1  0.13155700  0.07364600  0.57258700  1
  O  O27  1  0.63155700  0.92635400  0.57258700  1
  O  O28  1  0.84149900  0.14896100  0.58975400  1
  O  O29  1  0.34149900  0.85103900  0.58975400  1
  O  O30  1  0.89952100  0.41140400  0.65947000  1
  O  O31  1  0.39952100  0.58859600  0.65947000  1
  O  O32  1  0.21922900  0.33737400  0.67209400  1
  O  O33  1  0.71922900  0.66262600  0.67209400  1
  O  O34  1  0.52346200  0.32217300  0.73082200  1
  O  O35  1  0.02346200  0.67782700  0.73082200  1
  O  O36  1  0.02346200  0.17782700  0.76917800  1
  O  O37  1  0.52346200  0.82217300  0.76917800  1
  O  O38  1  0.71922900  0.16262600  0.82790600  1
  O  O39  1  0.21922900  0.83737400  0.82790600  1
  O  O40  1  0.39952100  0.08859600  0.84053000  1
  O  O41  1  0.89952100  0.91140400  0.84053000  1
  O  O42  1  0.34149900  0.35103900  0.91024600  1
  O  O43  1  0.84149900  0.64896100  0.91024600  1
  O  O44  1  0.63155700  0.42635400  0.92741300  1
  O  O45  1  0.13155700  0.57364600  0.92741300  1
  O  O46  1  0.94616800  0.15737500  0.98223400  1
  O  O47  1  0.44616800  0.84262500  0.98223400  1
loop_
_geom_bond_atom_site_label_1
_geom_bond_atom_site_label_2
_geom_bond_distance
_geom_bond_site_symmetry_2
Li0 O11 1.967603 1_555
Li0 O4 2.009339 1_555
Li0 O6 2.014884 1_555
Li0 O15 2.052941 1_555
Li1 O10 1.967603 1_555
Li1 O5 2.009339 1_555
Li1 O7 2.014884 1_555
Li1 O14 2.052941 1_555
Li2 O12 1.967603 1_555
Li2 O18 2.009339 1_555
Li2 O16 2.014884 1_555
Li2 O8 2.052941 1_555
Li3 O13 1.967603 1_555
Li3 O19 2.009339 1_555
Li3 O17 2.014884 1_555
Li3 O9 2.052941 1_555
Li4 O34 1.967603 1_555
Li4 O28 2.009339 1_555
Li4 O30 2.014884 1_555
Li4 O38 2.052941 1_555
Li5 O35 1.967603 1_555
Li5 O29 2.009339 1_555
Li5 O31 2.014884 1_555
Li5 O39 2.052941 1_555
Li6 O36 1.967603 1_555
Li6 O42 2.009339 1_555
Li6 O40 2.014884 1_555
Li6 O32 2.052941 1_555
Li7 O37 1.967603 1_555
Li7 O43 2.009339 1_555
Li7 O41 2.014884 1_555
Li7 O33 2.052941 1_555
Cr0 O3 1.935385 1_555
Cr0 O46 1.964179 1_554
Cr0 O6 1.975640 1_655
Cr0 O12 1.979837 1_555
Cr0 O4 1.980954 1_655
Cr0 O8 2.004917 1_555
Cr1 O2 1.935385 1_555
Cr1 O47 1.964179 1_554
Cr1 O7 1.975640 1_555
Cr1 O13 1.979837 1_555
Cr1 O5 1.980954 1_555
Cr1 O9 2.004917 1_555
Cr2 O21 1.935385 1_555
Cr2 O25 1.964179 1_555
Cr2 O17 1.975640 1_655
Cr2 O10 1.979837 1_555
Cr2 O19 1.980954 1_655
Cr2 O14 2.004917 1_555
Cr3 O20 1.935385 1_555
Cr3 O24 1.964179 1_555
Cr3 O16 1.975640 1_555
Cr3 O11 1.979837 1_555
Cr3 O18 1.980954 1_555
Cr3 O15 2.004917 1_555
Cr4 O26 1.935385 1_555
Cr4 O23 1.964179 1_555
Cr4 O30 1.975640 1_455
Cr4 O36 1.979837 1_555
Cr4 O28 1.980954 1_455
Cr4 O32 2.004917 1_555
Cr5 O27 1.935385 1_555
Cr5 O22 1.964179 1_555
Cr5 O31 1.975640 1_555
Cr5 O37 1.979837 1_555
Cr5 O29 1.980954 1_555
Cr5 O33 2.004917 1_555
Cr6 O44 1.935385 1_555
Cr6 O0 1.964179 1_556
Cr6 O40 1.975640 1_555
Cr6 O34 1.979837 1_555
Cr6 O42 1.980954 1_555
Cr6 O38 2.004917 1_555
Cr7 O45 1.935385 1_555
Cr7 O1 1.964179 1_556
Cr7 O41 1.975640 1_455
Cr7 O35 1.979837 1_555
Cr7 O43 1.980954 1_455
Cr7 O39 2.004917 1_555
O0 V4 1.709911 1_555
O1 V5 1.709911 1_555
O2 V0 1.720251 1_555
O3 V1 1.720251 1_555
O4 V0 1.757360 1_555
O5 V1 1.757360 1_555
O6 V5 1.762858 1_545
O7 V4 1.762858 1_565
O8 V4 1.732858 1_555
O9 V5 1.732858 1_555
O10 V5 1.757303 1_655
O11 V4 1.757303 1_555
O12 V6 1.757303 1_655
O13 V7 1.757303 1_555
O14 V7 1.732858 1_555
O15 V6 1.732858 1_555
O16 V7 1.762858 1_555
O17 V6 1.762858 1_555
O18 V2 1.757360 1_555
O19 V3 1.757360 1_555
O20 V3 1.720251 1_545
O21 V2 1.720251 1_565
O22 V7 1.709911 1_555
O23 V6 1.709911 1_555
O24 V8 1.709911 1_555
O25 V9 1.709911 1_555
O26 V3 1.720251 1_545
O27 V2 1.720251 1_565
O28 V2 1.757360 1_555
O29 V3 1.757360 1_555
O30 V9 1.762858 1_555
O31 V8 1.762858 1_555
O32 V8 1.732858 1_555
O33 V9 1.732858 1_555
O34 V8 1.757303 1_555
O35 V9 1.757303 1_455
O36 V10 1.757303 1_455
O37 V11 1.757303 1_555
O38 V10 1.732858 1_555
O39 V11 1.732858 1_555
O40 V11 1.762858 1_545
O41 V10 1.762858 1_565
O42 V0 1.757360 1_556
O43 V1 1.757360 1_556
O44 V1 1.720251 1_556
O45 V0 1.720251 1_556
O46 V10 1.709911 1_555
O47 V11 1.709911 1_555
