# generated using pymatgen
data_ScFeO3
_symmetry_space_group_name_H-M   'P 1'
_cell_length_a   5.84717964
_cell_length_b   5.84717964
_cell_length_c   11.58148600
_cell_angle_alpha   90.00000000
_cell_angle_beta   90.00000000
_cell_angle_gamma   119.99999588
_symmetry_Int_Tables_number   1
_chemical_formula_structural   ScFeO3
_chemical_formula_sum   'Sc6 Fe6 O18'
_cell_volume   342.91604719
_cell_formula_units_Z   6
loop_
 _symmetry_equiv_pos_site_id
 _symmetry_equiv_pos_as_xyz
  1  'x, y, z'
loop_
 _atom_site_type_symbol
 _atom_site_label
 _atom_site_symmetry_multiplicity
 _atom_site_fract_x
 _atom_site_fract_y
 _atom_site_fract_z
 _atom_site_occupancy
  Sc  Sc0  1  0.33333300  0.66666700  0.23488800  1
  Sc  Sc1  1  0.00000000  0.00000000  0.27690900  1
  Sc  Sc2  1  0.00000000  0.00000000  0.77690900  1
  Sc  Sc3  1  0.33333300  0.66666700  0.73488800  1
  Sc  Sc4  1  0.66666700  0.33333300  0.73488800  1
  Sc  Sc5  1  0.66666700  0.33333300  0.23488800  1
  Fe  Fe0  1  0.00000000  0.66612000  0.50271900  1
  Fe  Fe1  1  0.00000000  0.33388000  0.00271900  1
  Fe  Fe2  1  0.33388000  0.33388000  0.50271900  1
  Fe  Fe3  1  0.66612000  0.66612000  0.00271900  1
  Fe  Fe4  1  0.33388000  0.00000000  0.00271900  1
  Fe  Fe5  1  0.66612000  0.00000000  0.50271900  1
  O  O0  1  0.00000000  0.69867100  0.67307000  1
  O  O1  1  0.00000000  0.63250000  0.33610700  1
  O  O2  1  0.00000000  0.36750000  0.83610700  1
  O  O3  1  0.00000000  0.30132900  0.17307000  1
  O  O4  1  0.33333300  0.66666700  0.03029400  1
  O  O5  1  0.00000000  0.00000000  0.47185200  1
  O  O6  1  0.00000000  0.00000000  0.97185200  1
  O  O7  1  0.33333300  0.66666700  0.53029400  1
  O  O8  1  0.30132900  0.30132900  0.67307000  1
  O  O9  1  0.36750000  0.36750000  0.33610700  1
  O  O10  1  0.30132900  0.00000000  0.17307000  1
  O  O11  1  0.63250000  0.63250000  0.83610700  1
  O  O12  1  0.69867100  0.69867100  0.17307000  1
  O  O13  1  0.36750000  0.00000000  0.83610700  1
  O  O14  1  0.66666700  0.33333300  0.53029400  1
  O  O15  1  0.66666700  0.33333300  0.03029400  1
  O  O16  1  0.63250000  0.00000000  0.33610700  1
  O  O17  1  0.69867100  0.00000000  0.67307000  1
loop_
_geom_bond_atom_site_label_1
_geom_bond_atom_site_label_2
_geom_bond_distance
_geom_bond_site_symmetry_2
Fe0 O1 1.939602 1_555
Fe0 O7 1.973472 1_555
Fe0 O14 1.973475 1_455
Fe0 O0 1.982077 1_555
Fe0 O5 1.984717 1_565
Fe1 O2 1.939602 1_554
Fe1 O15 1.973472 1_455
Fe1 O4 1.973475 1_555
Fe1 O3 1.982077 1_555
Fe1 O6 1.984717 1_554
Fe2 O9 1.939602 1_555
Fe2 O14 1.973478 1_555
Fe2 O7 1.973478 1_555
Fe2 O8 1.982077 1_555
Fe2 O5 1.984717 1_555
Fe3 O11 1.939602 1_554
Fe3 O4 1.973478 1_555
Fe3 O15 1.973478 1_555
Fe3 O12 1.982077 1_555
Fe3 O6 1.984717 1_664
Fe4 O13 1.939602 1_554
Fe4 O4 1.973472 1_545
Fe4 O15 1.973475 1_555
Fe4 O10 1.982077 1_555
Fe4 O6 1.984717 1_554
Fe5 O16 1.939602 1_555
Fe5 O14 1.973472 1_555
Fe5 O7 1.973475 1_545
Fe5 O17 1.982077 1_555
Fe5 O5 1.984717 1_655
O0 Sc2 2.133225 1_565
O0 Sc3 2.170520 1_555
O0 Sc4 2.170523 1_455
O1 Sc0 2.196261 1_555
O1 Sc5 2.196263 1_455
O1 Sc1 2.255561 1_565
O2 Sc4 2.196261 1_455
O2 Sc3 2.196263 1_555
O2 Sc2 2.255561 1_555
O3 Sc1 2.133225 1_555
O3 Sc5 2.170520 1_455
O3 Sc0 2.170523 1_555
O4 Sc0 2.369503 1_555
O5 Sc1 2.257730 1_555
O6 Sc2 2.257730 1_555
O7 Sc3 2.369503 1_555
O8 Sc2 2.133225 1_555
O8 Sc3 2.170525 1_555
O8 Sc4 2.170525 1_555
O9 Sc5 2.196266 1_555
O9 Sc0 2.196266 1_555
O9 Sc1 2.255561 1_555
O10 Sc1 2.133225 1_555
O10 Sc0 2.170520 1_545
O10 Sc5 2.170523 1_555
O11 Sc3 2.196266 1_555
O11 Sc4 2.196266 1_555
O11 Sc2 2.255561 1_665
O12 Sc1 2.133225 1_665
O12 Sc5 2.170525 1_555
O12 Sc0 2.170525 1_555
O13 Sc3 2.196261 1_545
O13 Sc4 2.196263 1_555
O13 Sc2 2.255561 1_555
O14 Sc4 2.369503 1_555
O15 Sc5 2.369503 1_555
O16 Sc5 2.196261 1_555
O16 Sc0 2.196263 1_545
O16 Sc1 2.255561 1_655
O17 Sc2 2.133225 1_655
O17 Sc4 2.170520 1_555
O17 Sc3 2.170523 1_545
