# generated using pymatgen
data_Na4Ti7O16
_symmetry_space_group_name_H-M   'P 1'
_cell_length_a   6.03373400
_cell_length_b   5.51814500
_cell_length_c   9.58328672
_cell_angle_alpha   88.77096210
_cell_angle_beta   90.00000000
_cell_angle_gamma   90.00000000
_symmetry_Int_Tables_number   1
_chemical_formula_structural   Na4Ti7O16
_chemical_formula_sum   'Na4 Ti7 O16'
_cell_volume   319.00230822
_cell_formula_units_Z   1
loop_
 _symmetry_equiv_pos_site_id
 _symmetry_equiv_pos_as_xyz
  1  'x, y, z'
loop_
 _atom_site_type_symbol
 _atom_site_label
 _atom_site_symmetry_multiplicity
 _atom_site_fract_x
 _atom_site_fract_y
 _atom_site_fract_z
 _atom_site_occupancy
  Na  Na0  1  0.50000000  0.56647000  0.96007900  1
  Na  Na1  1  0.50000000  0.52674200  0.65466600  1
  Na  Na2  1  0.25660600  0.04447400  0.54438000  1
  Na  Na3  1  0.74339400  0.04447400  0.54438000  1
  Ti  Ti0  1  0.00000000  0.95767200  0.13592900  1
  Ti  Ti1  1  0.50000000  0.99411900  0.15942100  1
  Ti  Ti2  1  0.00000000  0.54253600  0.65081700  1
  Ti  Ti3  1  0.24839700  0.48158100  0.36050000  1
  Ti  Ti4  1  0.75160300  0.48158100  0.36050000  1
  Ti  Ti5  1  0.25291000  0.04803900  0.86230900  1
  Ti  Ti6  1  0.74709000  0.04803900  0.86230900  1
  O  O0  1  0.00000000  0.82546100  0.76587700  1
  O  O1  1  0.50000000  0.88037300  0.77433700  1
  O  O2  1  0.25314700  0.82894800  0.04063800  1
  O  O3  1  0.74685300  0.82894800  0.04063800  1
  O  O4  1  0.77585400  0.66159800  0.52389600  1
  O  O5  1  0.22414600  0.66159800  0.52389600  1
  O  O6  1  0.50000000  0.68565300  0.27249700  1
  O  O7  1  0.00000000  0.66190900  0.26398300  1
  O  O8  1  0.21768800  0.30542800  0.73552600  1
  O  O9  1  0.78231200  0.30542800  0.73552600  1
  O  O10  1  0.00000000  0.30395500  0.45241700  1
  O  O11  1  0.50000000  0.31098200  0.43915400  1
  O  O12  1  0.50000000  0.18467900  0.97011500  1
  O  O13  1  0.00000000  0.17214000  0.96916700  1
  O  O14  1  0.24884700  0.16064400  0.22795700  1
  O  O15  1  0.75115300  0.16064400  0.22795700  1
loop_
_geom_bond_atom_site_label_1
_geom_bond_atom_site_label_2
_geom_bond_distance
_geom_bond_site_symmetry_2
Na0 O12 2.106911 1_555
Na0 O2 2.227166 1_556
Na0 O3 2.227166 1_556
Na0 O1 2.456946 1_555
Na1 O4 2.203319 1_555
Na1 O5 2.203319 1_555
Na1 O8 2.225505 1_555
Na1 O9 2.225505 1_555
Na1 O1 2.284548 1_555
Na1 O11 2.405934 1_555
Na2 O5 2.135056 1_545
Na2 O10 2.273760 1_555
Na2 O11 2.296244 1_555
Na2 O8 2.365874 1_555
Na2 O1 2.783448 1_545
Na3 O4 2.135056 1_545
Na3 O10 2.273760 1_655
Na3 O11 2.296244 1_555
Na3 O9 2.365874 1_555
Na3 O1 2.783448 1_545
O0 Ti2 1.930571 1_555
O0 Ti6 2.177128 1_465
O0 Ti5 2.177128 1_565
O1 Ti5 1.955231 1_565
O1 Ti6 1.955231 1_565
O2 Ti0 1.923364 1_555
O2 Ti5 2.072100 1_564
O2 Ti1 2.095107 1_555
O3 Ti0 1.923364 1_655
O3 Ti6 2.072100 1_564
O3 Ti1 2.095107 1_555
O4 Ti4 1.877992 1_555
O4 Ti2 1.925069 1_655
O5 Ti3 1.877992 1_555
O5 Ti2 1.925069 1_555
O6 Ti1 1.998123 1_555
O6 Ti4 2.059916 1_555
O6 Ti3 2.059916 1_555
O7 Ti4 2.013085 1_455
O7 Ti3 2.013085 1_555
O7 Ti0 2.020811 1_555
O8 Ti5 1.861353 1_555
O8 Ti2 2.012597 1_555
O9 Ti6 1.861353 1_555
O9 Ti2 2.012597 1_655
O10 Ti4 1.986429 1_455
O10 Ti3 1.986429 1_555
O10 Ti2 2.335733 1_555
O11 Ti4 1.930953 1_555
O11 Ti3 1.930953 1_555
O12 Ti5 1.972818 1_555
O12 Ti6 1.972818 1_555
O12 Ti1 2.077287 1_546
O13 Ti0 1.968113 1_546
O13 Ti6 1.968851 1_455
O13 Ti5 1.968851 1_555
O14 Ti1 1.896860 1_545
O14 Ti0 2.080642 1_545
O14 Ti3 2.201424 1_555
O15 Ti1 1.896860 1_545
O15 Ti0 2.080642 1_645
O15 Ti4 2.201424 1_555
