# generated using pymatgen
data_Pu5Rh4
_symmetry_space_group_name_H-M   'P 1'
_cell_length_a   6.90193900
_cell_length_b   7.33397600
_cell_length_c   14.59176400
_cell_angle_alpha   90.00000000
_cell_angle_beta   90.00000000
_cell_angle_gamma   90.00000000
_symmetry_Int_Tables_number   1
_chemical_formula_structural   Pu5Rh4
_chemical_formula_sum   'Pu20 Rh16'
_cell_volume   738.61546746
_cell_formula_units_Z   4
loop_
 _symmetry_equiv_pos_site_id
 _symmetry_equiv_pos_as_xyz
  1  'x, y, z'
loop_
 _atom_site_type_symbol
 _atom_site_label
 _atom_site_symmetry_multiplicity
 _atom_site_fract_x
 _atom_site_fract_y
 _atom_site_fract_z
 _atom_site_occupancy
  Pu  Pu0  1  0.99363200  0.81959500  0.91170900  1
  Pu  Pu1  1  0.49363200  0.68040500  0.58829100  1
  Pu  Pu2  1  0.50636800  0.31959500  0.08829100  1
  Pu  Pu3  1  0.00636800  0.18040500  0.41170900  1
  Pu  Pu4  1  0.99363200  0.81959500  0.58829100  1
  Pu  Pu5  1  0.49363200  0.68040500  0.91170900  1
  Pu  Pu6  1  0.50636800  0.31959500  0.41170900  1
  Pu  Pu7  1  0.00636800  0.18040500  0.08829100  1
  Pu  Pu8  1  0.87406500  0.65327300  0.36537300  1
  Pu  Pu9  1  0.37406500  0.84672700  0.13462700  1
  Pu  Pu10  1  0.62593500  0.15327300  0.63462700  1
  Pu  Pu11  1  0.12593500  0.34672700  0.86537300  1
  Pu  Pu12  1  0.12593500  0.34672700  0.63462700  1
  Pu  Pu13  1  0.62593500  0.15327300  0.86537300  1
  Pu  Pu14  1  0.37406500  0.84672700  0.36537300  1
  Pu  Pu15  1  0.87406500  0.65327300  0.13462700  1
  Pu  Pu16  1  0.37458100  0.03431400  0.75000000  1
  Pu  Pu17  1  0.87458100  0.46568600  0.75000000  1
  Pu  Pu18  1  0.12541900  0.53431400  0.25000000  1
  Pu  Pu19  1  0.62541900  0.96568600  0.25000000  1
  Rh  Rh0  1  0.79795200  0.45550500  0.53320400  1
  Rh  Rh1  1  0.29795200  0.04449500  0.96679600  1
  Rh  Rh2  1  0.70204800  0.95550500  0.46679600  1
  Rh  Rh3  1  0.20204800  0.54449500  0.03320400  1
  Rh  Rh4  1  0.20204800  0.54449500  0.46679600  1
  Rh  Rh5  1  0.70204800  0.95550500  0.03320400  1
  Rh  Rh6  1  0.29795200  0.04449500  0.53320400  1
  Rh  Rh7  1  0.79795200  0.45550500  0.96679600  1
  Rh  Rh8  1  0.19887800  0.71220600  0.75000000  1
  Rh  Rh9  1  0.69887800  0.78779400  0.75000000  1
  Rh  Rh10  1  0.30112200  0.21220600  0.25000000  1
  Rh  Rh11  1  0.80112200  0.28779400  0.25000000  1
  Rh  Rh12  1  0.97972200  0.05198600  0.75000000  1
  Rh  Rh13  1  0.47972200  0.44801400  0.75000000  1
  Rh  Rh14  1  0.52027800  0.55198600  0.25000000  1
  Rh  Rh15  1  0.02027800  0.94801400  0.25000000  1
loop_
_geom_bond_atom_site_label_1
_geom_bond_atom_site_label_2
_geom_bond_distance
_geom_bond_site_symmetry_2
Pu0 Rh1 2.788969 1_665
Pu0 Rh5 2.861220 1_556
Pu0 Rh8 2.862664 1_655
Pu0 Rh12 2.912358 1_565
Pu0 Rh3 3.046759 1_656
Pu0 Rh7 3.098432 1_555
Pu0 Rh9 3.124240 1_555
Pu1 Rh0 2.788969 1_555
Pu1 Rh4 2.861220 1_555
Pu1 Rh9 2.862664 1_555
Pu1 Rh13 2.912358 1_555
Pu1 Rh2 3.046759 1_555
Pu1 Rh6 3.098432 1_565
Pu1 Rh8 3.124240 1_555
Pu2 Rh3 2.788969 1_555
Pu2 Rh7 2.861220 1_554
Pu2 Rh10 2.862664 1_555
Pu2 Rh14 2.912358 1_555
Pu2 Rh1 3.046759 1_554
Pu2 Rh5 3.098432 1_545
Pu2 Rh11 3.124240 1_555
Pu3 Rh2 2.788969 1_445
Pu3 Rh6 2.861220 1_555
Pu3 Rh11 2.862664 1_455
Pu3 Rh15 2.912358 1_545
Pu3 Rh0 3.046759 1_455
Pu3 Rh4 3.098432 1_555
Pu3 Rh10 3.124240 1_555
Pu4 Rh6 2.788969 1_665
Pu4 Rh2 2.861220 1_555
Pu4 Rh8 2.862664 1_655
Pu4 Rh12 2.912358 1_565
Pu4 Rh4 3.046759 1_655
Pu4 Rh0 3.098432 1_555
Pu4 Rh9 3.124240 1_555
Pu5 Rh7 2.788969 1_555
Pu5 Rh3 2.861220 1_556
Pu5 Rh9 2.862664 1_555
Pu5 Rh13 2.912358 1_555
Pu5 Rh5 3.046759 1_556
Pu5 Rh1 3.098432 1_565
Pu5 Rh8 3.124240 1_555
Pu6 Rh4 2.788969 1_555
Pu6 Rh0 2.861220 1_555
Pu6 Rh10 2.862664 1_555
Pu6 Rh14 2.912358 1_555
Pu6 Rh6 3.046759 1_555
Pu6 Rh2 3.098432 1_545
Pu6 Rh11 3.124240 1_555
Pu7 Rh5 2.788969 1_445
Pu7 Rh1 2.861220 1_554
Pu7 Rh11 2.862664 1_455
Pu7 Rh15 2.912358 1_545
Pu7 Rh7 3.046759 1_454
Pu7 Rh3 3.098432 1_555
Pu7 Rh10 3.124240 1_555
Pu8 Rh4 2.819768 1_655
Pu8 Rh0 2.894315 1_555
Pu8 Rh2 2.917694 1_555
Pu8 Rh15 2.919788 1_655
Pu8 Rh14 3.057520 1_555
Pu8 Rh11 3.205033 1_555
Pu9 Rh5 2.819768 1_555
Pu9 Rh1 2.894315 1_564
Pu9 Rh3 2.917694 1_555
Pu9 Rh14 2.919788 1_555
Pu9 Rh15 3.057520 1_555
Pu9 Rh10 3.205033 1_565
Pu10 Pu16 2.570009 1_555
Pu10 Rh6 2.819768 1_555
Pu10 Rh2 2.894315 1_545
Pu10 Rh0 2.917694 1_555
Pu10 Rh13 2.919788 1_555
Pu10 Rh12 3.057520 1_555
Pu10 Rh9 3.205033 1_545
Pu11 Pu17 2.570009 1_455
Pu11 Rh7 2.819768 1_455
Pu11 Rh3 2.894315 1_556
Pu11 Rh1 2.917694 1_555
Pu11 Rh12 2.919788 1_455
Pu11 Rh13 3.057520 1_555
Pu11 Rh8 3.205033 1_555
Pu12 Pu17 2.570009 1_455
Pu12 Rh0 2.819768 1_455
Pu12 Rh4 2.894315 1_555
Pu12 Rh6 2.917694 1_555
Pu12 Rh12 2.919788 1_455
Pu12 Rh13 3.057520 1_555
Pu12 Rh8 3.205033 1_555
Pu13 Pu16 2.570009 1_555
Pu13 Rh1 2.819768 1_555
Pu13 Rh5 2.894315 1_546
Pu13 Rh7 2.917694 1_555
Pu13 Rh13 2.919788 1_555
Pu13 Rh12 3.057520 1_555
Pu13 Rh9 3.205033 1_545
Pu14 Pu19 2.570009 1_555
Pu14 Rh2 2.819768 1_555
Pu14 Rh6 2.894315 1_565
Pu14 Rh4 2.917694 1_555
Pu14 Rh14 2.919788 1_555
Pu14 Rh15 3.057520 1_555
Pu14 Rh10 3.205033 1_565
Pu15 Pu18 2.570009 1_655
Pu15 Rh3 2.819768 1_655
Pu15 Rh7 2.894315 1_554
Pu15 Rh5 2.917694 1_555
Pu15 Rh15 2.919788 1_655
Pu15 Rh14 3.057520 1_555
Pu15 Rh11 3.205033 1_555
Pu16 Rh8 2.655416 1_545
Pu16 Rh12 2.728373 1_455
Pu16 Rh9 2.877264 1_545
Pu16 Rh13 3.119641 1_555
Pu16 Rh6 3.208212 1_555
Pu16 Rh1 3.208212 1_555
Pu17 Rh9 2.655416 1_555
Pu17 Rh13 2.728373 1_555
Pu17 Rh8 2.877264 1_655
Pu17 Rh12 3.119641 1_555
Pu17 Rh7 3.208212 1_555
Pu17 Rh0 3.208212 1_555
Pu18 Pu8 2.570009 1_455
Pu18 Rh10 2.655416 1_555
Pu18 Rh14 2.728373 1_555
Pu18 Rh11 2.877264 1_455
Pu18 Rh15 3.119641 1_555
Pu18 Rh3 3.208212 1_555
Pu18 Rh4 3.208212 1_555
Pu19 Pu9 2.570009 1_555
Pu19 Rh11 2.655416 1_565
Pu19 Rh15 2.728373 1_655
Pu19 Rh10 2.877264 1_565
Pu19 Rh14 3.119641 1_555
Pu19 Rh5 3.208212 1_555
Pu19 Rh2 3.208212 1_555
Rh10 Rh15 2.740708 1_545
Rh10 Rh14 2.915085 1_555
Rh11 Rh14 2.740708 1_555
Rh11 Rh15 2.915085 1_645
Rh12 Rh9 2.740708 1_545
Rh12 Rh8 2.915085 1_645
Rh13 Rh8 2.740708 1_555
Rh13 Rh9 2.915085 1_555
