# generated using pymatgen
data_Li7Mn7P6(O8F)3
_symmetry_space_group_name_H-M   'P 1'
_cell_length_a   13.73675766
_cell_length_b   13.73675766
_cell_length_c   6.52297900
_cell_angle_alpha   90.00000000
_cell_angle_beta   90.00000000
_cell_angle_gamma   119.99999836
_symmetry_Int_Tables_number   1
_chemical_formula_structural   Li7Mn7P6(O8F)3
_chemical_formula_sum   'Li14 Mn14 P12 O48 F6'
_cell_volume   1065.97027016
_cell_formula_units_Z   2
loop_
 _symmetry_equiv_pos_site_id
 _symmetry_equiv_pos_as_xyz
  1  'x, y, z'
loop_
 _atom_site_type_symbol
 _atom_site_label
 _atom_site_symmetry_multiplicity
 _atom_site_fract_x
 _atom_site_fract_y
 _atom_site_fract_z
 _atom_site_occupancy
  Li  Li0  1  0.18177000  0.25839700  0.74440200  1
  Li  Li1  1  0.92337300  0.18177000  0.24440200  1
  Li  Li2  1  0.37439500  0.50062400  0.24290000  1
  Li  Li3  1  0.50062400  0.12622900  0.74290000  1
  Li  Li4  1  0.25839700  0.07662700  0.24440200  1
  Li  Li5  1  0.87377100  0.37439500  0.74290000  1
  Li  Li6  1  0.66666700  0.33333300  0.57085100  1
  Li  Li7  1  0.33333300  0.66666700  0.07085100  1
  Li  Li8  1  0.12622900  0.62560500  0.24290000  1
  Li  Li9  1  0.74160300  0.92337300  0.74440200  1
  Li  Li10  1  0.49937600  0.87377100  0.24290000  1
  Li  Li11  1  0.62560500  0.49937600  0.74290000  1
  Li  Li12  1  0.07662700  0.81823000  0.74440200  1
  Li  Li13  1  0.81823000  0.74160300  0.24440200  1
  Mn  Mn0  1  0.70288100  0.12621700  0.99034700  1
  Mn  Mn1  1  0.70215800  0.11865200  0.48762700  1
  Mn  Mn2  1  0.12621700  0.42333600  0.49034700  1
  Mn  Mn3  1  0.11865200  0.41649400  0.98762700  1
  Mn  Mn4  1  0.58350600  0.70215800  0.98762700  1
  Mn  Mn5  1  0.57666400  0.70288100  0.49034700  1
  Mn  Mn6  1  0.00000000  0.00000000  0.99324500  1
  Mn  Mn7  1  0.00000000  0.00000000  0.49324500  1
  Mn  Mn8  1  0.42333600  0.29711900  0.99034700  1
  Mn  Mn9  1  0.41649400  0.29784200  0.48762700  1
  Mn  Mn10  1  0.88134800  0.58350600  0.48762700  1
  Mn  Mn11  1  0.87378300  0.57666400  0.99034700  1
  Mn  Mn12  1  0.29784200  0.88134800  0.98762700  1
  Mn  Mn13  1  0.29711900  0.87378300  0.49034700  1
  P  P0  1  0.18250500  0.24455400  0.24145000  1
  P  P1  1  0.93795100  0.18250500  0.74145000  1
  P  P2  1  0.36732200  0.48482500  0.73999300  1
  P  P3  1  0.48482500  0.11750300  0.23999300  1
  P  P4  1  0.88249700  0.36732200  0.23999300  1
  P  P5  1  0.24455400  0.06204900  0.74145000  1
  P  P6  1  0.75544600  0.93795100  0.24145000  1
  P  P7  1  0.11750300  0.63267800  0.73999300  1
  P  P8  1  0.51517500  0.88249700  0.73999300  1
  P  P9  1  0.63267800  0.51517500  0.23999300  1
  P  P10  1  0.06204900  0.81749500  0.24145000  1
  P  P11  1  0.81749500  0.75544600  0.74145000  1
  O  O0  1  0.12582000  0.11250800  0.24251600  1
  O  O1  1  0.01331200  0.12582000  0.74251600  1
  O  O2  1  0.69161700  0.00704300  0.23946300  1
  O  O3  1  0.36517500  0.36865900  0.74793100  1
  O  O4  1  0.14604800  0.28062600  0.43686400  1
  O  O5  1  0.86542200  0.14604800  0.93686400  1
  O  O6  1  0.14451700  0.27889000  0.04529700  1
  O  O7  1  0.86562700  0.14451700  0.54529700  1
  O  O8  1  0.00704300  0.31542600  0.73946300  1
  O  O9  1  0.36865900  0.00348400  0.24793100  1
  O  O10  1  0.42809000  0.54545900  0.54046600  1
  O  O11  1  0.54545900  0.11736900  0.04046600  1
  O  O12  1  0.24357700  0.45843000  0.73765700  1
  O  O13  1  0.55402500  0.13036000  0.43693800  1
  O  O14  1  0.42366500  0.55402500  0.93693800  1
  O  O15  1  0.68457400  0.69161700  0.73946300  1
  O  O16  1  0.78514700  0.24357700  0.23765700  1
  O  O17  1  0.99651600  0.36517500  0.24793100  1
  O  O18  1  0.11250800  0.98668800  0.74251600  1
  O  O19  1  0.45843000  0.21485300  0.23765700  1
  O  O20  1  0.27889000  0.13437300  0.54529700  1
  O  O21  1  0.88263100  0.42809000  0.04046600  1
  O  O22  1  0.28062600  0.13457800  0.93686400  1
  O  O23  1  0.13036000  0.57633500  0.93693800  1
  O  O24  1  0.86964000  0.42366500  0.43693800  1
  O  O25  1  0.71937400  0.86542200  0.43686400  1
  O  O26  1  0.11736900  0.57191000  0.54046600  1
  O  O27  1  0.72111000  0.86562700  0.04529700  1
  O  O28  1  0.54157000  0.78514700  0.73765700  1
  O  O29  1  0.88749200  0.01331200  0.24251600  1
  O  O30  1  0.00348400  0.63482500  0.74793100  1
  O  O31  1  0.21485300  0.75642300  0.73765700  1
  O  O32  1  0.31542600  0.30838300  0.23946300  1
  O  O33  1  0.57633500  0.44597500  0.43693800  1
  O  O34  1  0.44597500  0.86964000  0.93693800  1
  O  O35  1  0.75642300  0.54157000  0.23765700  1
  O  O36  1  0.45454100  0.88263100  0.54046600  1
  O  O37  1  0.57191000  0.45454100  0.04046600  1
  O  O38  1  0.63134100  0.99651600  0.74793100  1
  O  O39  1  0.99295700  0.68457400  0.23946300  1
  O  O40  1  0.13437300  0.85548300  0.04529700  1
  O  O41  1  0.85548300  0.72111000  0.54529700  1
  O  O42  1  0.13457800  0.85395200  0.43686400  1
  O  O43  1  0.85395200  0.71937400  0.93686400  1
  O  O44  1  0.63482500  0.63134100  0.24793100  1
  O  O45  1  0.30838300  0.99295700  0.73946300  1
  O  O46  1  0.98668800  0.87418000  0.24251600  1
  O  O47  1  0.87418000  0.88749200  0.74251600  1
  F  F0  1  0.72554600  0.24399400  0.72489600  1
  F  F1  1  0.24399400  0.51844800  0.22489600  1
  F  F2  1  0.48155200  0.72554600  0.22489600  1
  F  F3  1  0.51844800  0.27445400  0.72489600  1
  F  F4  1  0.75600600  0.48155200  0.72489600  1
  F  F5  1  0.27445400  0.75600600  0.22489600  1
loop_
_geom_bond_atom_site_label_1
_geom_bond_atom_site_label_2
_geom_bond_distance
_geom_bond_site_symmetry_2
Li0 O6 2.082665 1_556
Li0 O1 2.111260 1_555
Li0 O4 2.123244 1_555
Li0 O3 2.196821 1_555
Li0 O12 2.437263 1_555
Li1 O7 2.082665 1_555
Li1 O29 2.111260 1_555
Li1 O5 2.123244 1_554
Li1 O17 2.196821 1_555
Li1 O16 2.437263 1_555
Li2 O10 2.058309 1_555
Li2 O14 2.117274 1_554
Li2 O32 2.343329 1_555
Li3 O11 2.058309 1_556
Li3 O13 2.117274 1_555
Li3 O45 2.343329 1_545
Li4 O20 2.082665 1_555
Li4 O0 2.111260 1_555
Li4 O22 2.123244 1_554
Li4 O9 2.196821 1_555
Li4 O19 2.437263 1_555
Li5 O21 2.058309 1_556
Li5 O24 2.117274 1_555
Li5 O8 2.343329 1_655
Li6 O24 2.572354 1_555
Li6 O13 2.572355 1_555
Li6 O33 2.572366 1_555
Li7 O23 2.572354 1_554
Li7 O34 2.572355 1_554
Li7 O14 2.572366 1_554
Li8 O26 2.058309 1_555
Li8 O23 2.117274 1_554
Li8 O39 2.343329 1_455
Li9 O27 2.082665 1_556
Li9 O47 2.111260 1_555
Li9 O25 2.123244 1_555
Li9 O38 2.196821 1_555
Li9 O28 2.437263 1_555
Li10 O36 2.058309 1_555
Li10 O34 2.117274 1_554
Li10 O2 2.343329 1_565
Li11 O37 2.058309 1_556
Li11 O33 2.117274 1_555
Li11 O15 2.343329 1_555
Li12 O40 2.082665 1_556
Li12 O18 2.111260 1_555
Li12 O42 2.123244 1_555
Li12 O30 2.196821 1_555
Li12 O31 2.437263 1_555
Li13 O41 2.082665 1_555
Li13 O46 2.111260 1_555
Li13 O43 2.123244 1_554
Li13 O44 2.196821 1_555
Li13 O35 2.437263 1_555
Mn0 O11 2.129574 1_556
Mn0 O5 2.138460 1_555
Mn0 O16 2.157925 1_556
Mn0 O38 2.211252 1_545
Mn0 O2 2.256363 1_556
Mn1 O7 2.124225 1_555
Mn1 O13 2.145494 1_555
Mn1 O2 2.184014 1_555
Mn1 O16 2.224152 1_555
Mn1 O38 2.238780 1_545
Mn2 O26 2.129574 1_555
Mn2 O4 2.138460 1_555
Mn2 O12 2.157925 1_555
Mn2 O17 2.211252 1_455
Mn2 O8 2.256363 1_555
Mn3 O6 2.124225 1_556
Mn3 O23 2.145494 1_555
Mn3 O8 2.184014 1_555
Mn3 O12 2.224152 1_555
Mn3 O17 2.238780 1_456
Mn4 O27 2.124225 1_556
Mn4 O14 2.145494 1_555
Mn4 O15 2.184014 1_555
Mn4 O28 2.224152 1_555
Mn4 O44 2.238780 1_556
Mn5 O10 2.129575 1_555
Mn5 O25 2.138460 1_555
Mn5 O28 2.157925 1_555
Mn5 O44 2.211252 1_555
Mn5 O15 2.256363 1_555
Mn6 O29 2.312672 1_456
Mn6 O46 2.312672 1_446
Mn6 O0 2.312672 1_556
Mn6 O18 2.319368 1_545
Mn6 O1 2.319368 1_555
Mn6 O47 2.319368 1_445
Mn7 O18 2.312672 1_545
Mn7 O1 2.312672 1_555
Mn7 O47 2.312672 1_445
Mn7 O29 2.319368 1_455
Mn7 O46 2.319368 1_445
Mn7 O0 2.319368 1_555
Mn8 O37 2.129575 1_556
Mn8 O22 2.138460 1_555
Mn8 O19 2.157925 1_556
Mn8 O3 2.211252 1_555
Mn8 O32 2.256363 1_556
Mn9 O20 2.124225 1_555
Mn9 O33 2.145494 1_555
Mn9 O32 2.184014 1_555
Mn9 O19 2.224152 1_555
Mn9 O3 2.238780 1_555
Mn10 O41 2.124225 1_555
Mn10 O24 2.145494 1_555
Mn10 O39 2.184014 1_555
Mn10 O35 2.224152 1_555
Mn10 O30 2.238780 1_655
Mn11 O21 2.129574 1_556
Mn11 O43 2.138460 1_555
Mn11 O35 2.157925 1_556
Mn11 O30 2.211252 1_655
Mn11 O39 2.256363 1_556
Mn12 O40 2.124225 1_556
Mn12 O34 2.145494 1_555
Mn12 O45 2.184014 1_555
Mn12 O31 2.224152 1_555
Mn12 O9 2.238780 1_566
Mn13 O36 2.129574 1_555
Mn13 O42 2.138460 1_555
Mn13 O31 2.157925 1_555
Mn13 O9 2.211252 1_565
Mn13 O45 2.256363 1_555
O0 P0 1.576113 1_555
O1 P1 1.576113 1_455
O2 P6 1.581745 1_545
O3 P2 1.582052 1_555
O4 P0 1.539253 1_555
O5 P1 1.539253 1_555
O6 P0 1.542087 1_555
O7 P1 1.542087 1_555
O8 P1 1.581745 1_455
O9 P3 1.582052 1_555
O10 P2 1.545708 1_555
O11 P3 1.545708 1_555
O12 P2 1.550764 1_555
O13 P3 1.554763 1_555
O14 P2 1.554763 1_555
O15 P11 1.581745 1_555
O16 P4 1.550764 1_555
O17 P4 1.582052 1_555
O18 P5 1.576113 1_565
O19 P3 1.550764 1_555
O20 P5 1.542087 1_555
O21 P4 1.545708 1_555
O22 P5 1.539253 1_555
O23 P7 1.554763 1_555
O24 P4 1.554763 1_555
O25 P6 1.539253 1_555
O26 P7 1.545708 1_555
O27 P6 1.542087 1_555
O28 P8 1.550764 1_555
O29 P6 1.576113 1_545
O30 P7 1.582052 1_555
O31 P7 1.550764 1_555
O32 P0 1.581745 1_555
O33 P9 1.554763 1_555
O34 P8 1.554763 1_555
O35 P9 1.550764 1_555
O36 P8 1.545708 1_555
O37 P9 1.545708 1_555
O38 P8 1.582052 1_555
O39 P10 1.581745 1_655
O40 P10 1.542087 1_555
O41 P11 1.542087 1_555
O42 P10 1.539253 1_555
O43 P11 1.539253 1_555
O44 P9 1.582052 1_555
O45 P5 1.581745 1_565
O46 P10 1.576113 1_655
O47 P11 1.576113 1_555
F0 Li5 1.928999 1_555
F0 Li6 2.040229 1_555
F0 Mn1 2.215851 1_555
F0 Mn0 2.282310 1_555
F1 Li2 1.928999 1_555
F1 Li7 2.040239 1_555
F1 Mn3 2.215851 1_554
F1 Mn2 2.282310 1_555
F2 Li10 1.928999 1_555
F2 Li7 2.040240 1_555
F2 Mn4 2.215851 1_554
F2 Mn5 2.282310 1_555
F3 Li3 1.928999 1_555
F3 Li6 2.040240 1_555
F3 Mn9 2.215851 1_555
F3 Mn8 2.282310 1_555
F4 Li11 1.928999 1_555
F4 Li6 2.040239 1_555
F4 Mn10 2.215851 1_555
F4 Mn11 2.282310 1_555
F5 Li8 1.928999 1_555
F5 Li7 2.040229 1_555
F5 Mn12 2.215851 1_554
F5 Mn13 2.282310 1_555
