# generated using pymatgen
data_KAl11O17
_symmetry_space_group_name_H-M   'P 1'
_cell_length_a   11.83674989
_cell_length_b   11.83674989
_cell_length_c   11.83674904
_cell_angle_alpha   27.32115798
_cell_angle_beta   27.32115798
_cell_angle_gamma   27.32115467
_symmetry_Int_Tables_number   1
_chemical_formula_structural   KAl11O17
_chemical_formula_sum   'K1 Al11 O17'
_cell_volume   308.28702817
_cell_formula_units_Z   1
loop_
 _symmetry_equiv_pos_site_id
 _symmetry_equiv_pos_as_xyz
  1  'x, y, z'
loop_
 _atom_site_type_symbol
 _atom_site_label
 _atom_site_symmetry_multiplicity
 _atom_site_fract_x
 _atom_site_fract_y
 _atom_site_fract_z
 _atom_site_occupancy
  K  K0  1  0.17053867  0.17053867  0.17053867  1
  Al  Al0  1  0.90201941  0.40738614  0.90201941  1
  Al  Al1  1  0.00014858  0.00014858  0.00014858  1
  Al  Al2  1  0.90201941  0.90201941  0.40738614  1
  Al  Al3  1  0.40738614  0.90201941  0.90201941  1
  Al  Al4  1  0.54994876  0.54994876  0.54994876  1
  Al  Al5  1  0.65009910  0.65009910  0.65009910  1
  Al  Al6  1  0.44992406  0.44992406  0.44992406  1
  Al  Al7  1  0.35029326  0.35029326  0.35029326  1
  Al  Al8  1  0.59532905  0.09709261  0.09709261  1
  Al  Al9  1  0.09709261  0.09709261  0.59532905  1
  Al  Al10  1  0.09709261  0.59532905  0.09709261  1
  O  O0  1  0.70309029  0.70309029  0.70309029  1
  O  O1  1  0.90653809  0.90653809  0.90653809  1
  O  O2  1  0.71993170  0.18928896  0.18928896  1
  O  O3  1  0.81024459  0.28073605  0.81024459  1
  O  O4  1  0.90808936  0.40185624  0.40185624  1
  O  O5  1  0.59667188  0.09379039  0.59667188  1
  O  O6  1  0.40185624  0.40185624  0.90808936  1
  O  O7  1  0.81024459  0.81024459  0.28073605  1
  O  O8  1  0.18928896  0.18928896  0.71993170  1
  O  O9  1  0.50000558  0.50000558  0.50000558  1
  O  O10  1  0.59667188  0.59667188  0.09379039  1
  O  O11  1  0.09379039  0.59667188  0.59667188  1
  O  O12  1  0.40185624  0.90808936  0.40185624  1
  O  O13  1  0.18928896  0.71993170  0.18928896  1
  O  O14  1  0.28073605  0.81024459  0.81024459  1
  O  O15  1  0.29694105  0.29694105  0.29694105  1
  O  O16  1  0.09354147  0.09354147  0.09354147  1
loop_
_geom_bond_atom_site_label_1
_geom_bond_atom_site_label_2
_geom_bond_distance
_geom_bond_site_symmetry_2
K0 O16 2.630557 1_555
K0 O4 2.781648 1_455
K0 O12 2.781648 1_545
K0 O6 2.781649 1_554
K0 O9 3.230645 1_455
K0 O9 3.230645 1_545
K0 O9 3.230645 1_554
Al0 O16 1.811670 1_656
Al0 O10 1.818109 1_556
Al0 O11 1.818109 1_655
Al0 O0 1.975512 1_555
Al0 O8 2.034339 1_655
Al0 O2 2.034340 1_556
Al1 O13 1.882169 1_545
Al1 O2 1.882169 1_455
Al1 O8 1.882169 1_554
Al1 O14 1.892950 1_544
Al1 O3 1.892950 1_454
Al1 O7 1.892950 1_445
Al2 O16 1.811670 1_665
Al2 O11 1.818109 1_655
Al2 O5 1.818109 1_565
Al2 O0 1.975513 1_555
Al2 O13 2.034339 1_655
Al2 O2 2.034339 1_565
Al3 O16 1.811670 1_566
Al3 O10 1.818109 1_556
Al3 O5 1.818109 1_565
Al3 O0 1.975512 1_555
Al3 O8 2.034339 1_565
Al3 O13 2.034340 1_556
Al4 O9 1.706275 1_555
Al4 O6 1.779906 1_555
Al4 O4 1.779906 1_555
Al4 O12 1.779906 1_555
Al5 O7 1.798262 1_555
Al5 O3 1.798262 1_555
Al5 O14 1.798262 1_555
Al5 O0 1.810408 1_555
Al6 O9 1.711001 1_555
Al6 O10 1.773091 1_555
Al6 O11 1.773091 1_555
Al6 O5 1.773091 1_555
Al7 O8 1.796715 1_555
Al7 O13 1.796715 1_555
Al7 O2 1.796715 1_555
Al7 O15 1.822742 1_555
Al8 O1 1.804709 1_544
Al8 O6 1.829422 1_554
Al8 O12 1.829423 1_545
Al8 O15 1.979298 1_555
Al8 O7 2.021989 1_545
Al8 O3 2.021989 1_554
Al9 O1 1.804709 1_445
Al9 O4 1.829422 1_455
Al9 O12 1.829422 1_545
Al9 O15 1.979299 1_555
Al9 O3 2.021989 1_455
Al9 O14 2.021989 1_545
Al10 O1 1.804709 1_454
Al10 O6 1.829422 1_554
Al10 O4 1.829423 1_455
Al10 O15 1.979298 1_555
Al10 O7 2.021989 1_455
Al10 O14 2.021989 1_554
