# generated using pymatgen
data_Na3Mn2P2(CO7)2
_symmetry_space_group_name_H-M   'P 1'
_cell_length_a   8.38495300
_cell_length_b   8.43076525
_cell_length_c   10.28638249
_cell_angle_alpha   106.54951386
_cell_angle_beta   108.09256619
_cell_angle_gamma   103.21053669
_symmetry_Int_Tables_number   1
_chemical_formula_structural   Na3Mn2P2(CO7)2
_chemical_formula_sum   'Na6 Mn4 P4 C4 O28'
_cell_volume   621.18567910
_cell_formula_units_Z   2
loop_
 _symmetry_equiv_pos_site_id
 _symmetry_equiv_pos_as_xyz
  1  'x, y, z'
loop_
 _atom_site_type_symbol
 _atom_site_label
 _atom_site_symmetry_multiplicity
 _atom_site_fract_x
 _atom_site_fract_y
 _atom_site_fract_z
 _atom_site_occupancy
  Na  Na0  1  0.00919600  0.97358800  0.24804100  1
  Na  Na1  1  0.48683700  0.48933100  0.23136900  1
  Na  Na2  1  0.73387900  0.24660000  0.23765200  1
  Na  Na3  1  0.26612100  0.75340000  0.76234800  1
  Na  Na4  1  0.99080400  0.02641200  0.75195900  1
  Na  Na5  1  0.51316300  0.51066900  0.76863100  1
  Mn  Mn0  1  0.68293600  0.94137900  0.34777700  1
  Mn  Mn1  1  0.18950100  0.44438500  0.34846300  1
  Mn  Mn2  1  0.31706400  0.05862100  0.65222300  1
  Mn  Mn3  1  0.81049900  0.55561500  0.65153700  1
  P  P0  1  0.94872100  0.69069500  0.42735100  1
  P  P1  1  0.44543500  0.20887200  0.42791500  1
  P  P2  1  0.05127900  0.30930500  0.57264900  1
  P  P3  1  0.55456500  0.79112800  0.57208500  1
  C  C0  1  0.53121600  0.78160900  0.07900000  1
  C  C1  1  0.02837700  0.27802700  0.08018900  1
  C  C2  1  0.46878400  0.21839100  0.92100000  1
  C  C3  1  0.97162300  0.72197300  0.91981100  1
  O  O0  1  0.05080500  0.80924200  0.05357500  1
  O  O1  1  0.54011600  0.29737000  0.05851200  1
  O  O2  1  0.16832000  0.42486100  0.14432500  1
  O  O3  1  0.67197000  0.93003000  0.14808600  1
  O  O4  1  0.47949500  0.73059100  0.17264600  1
  O  O5  1  0.98382300  0.23532900  0.18351100  1
  O  O6  1  0.02584200  0.57328200  0.33638400  1
  O  O7  1  0.84468500  0.76804000  0.32640600  1
  O  O8  1  0.52897200  0.11153600  0.33384100  1
  O  O9  1  0.33028000  0.28768800  0.33000000  1
  O  O10  1  0.90546900  0.16382000  0.42498000  1
  O  O11  1  0.31848500  0.08414500  0.46890000  1
  O  O12  1  0.81229300  0.56545800  0.46406200  1
  O  O13  1  0.41042600  0.64350600  0.42443800  1
  O  O14  1  0.09453100  0.83618000  0.57502000  1
  O  O15  1  0.18770700  0.43454200  0.53593800  1
  O  O16  1  0.68151500  0.91585500  0.53110000  1
  O  O17  1  0.58957400  0.35649400  0.57556200  1
  O  O18  1  0.97415800  0.42671800  0.66361600  1
  O  O19  1  0.15531500  0.23196000  0.67359400  1
  O  O20  1  0.47102800  0.88846400  0.66615900  1
  O  O21  1  0.66972000  0.71231200  0.67000000  1
  O  O22  1  0.52050500  0.26940900  0.82735400  1
  O  O23  1  0.01617700  0.76467100  0.81648900  1
  O  O24  1  0.32803000  0.06997000  0.85191400  1
  O  O25  1  0.83168000  0.57513900  0.85567500  1
  O  O26  1  0.45988400  0.70263000  0.94148800  1
  O  O27  1  0.94919500  0.19075800  0.94642500  1
loop_
_geom_bond_atom_site_label_1
_geom_bond_atom_site_label_2
_geom_bond_distance
_geom_bond_site_symmetry_2
Na0 O0 2.262383 1_555
Na0 O7 2.439154 1_455
Na0 O5 2.513286 1_465
Na0 O10 2.568870 1_465
Na0 O3 2.586894 1_455
Na0 O11 2.604817 1_565
Na1 O1 2.272611 1_555
Na1 O4 2.289087 1_555
Na1 O13 2.396766 1_555
Na1 O2 2.409156 1_555
Na1 O9 2.536212 1_555
Na1 O12 2.802765 1_555
Na2 O1 2.264086 1_555
Na2 O5 2.344619 1_555
Na2 O10 2.402765 1_555
Na2 O3 2.431124 1_545
Na2 O8 2.455832 1_555
Na2 O12 2.785175 1_555
Na2 O6 2.896663 1_655
Na3 O26 2.264086 1_555
Na3 O23 2.344619 1_555
Na3 O14 2.402765 1_555
Na3 O24 2.431124 1_565
Na3 O20 2.455832 1_555
Na3 O15 2.785175 1_555
Na3 O18 2.896663 1_455
Na4 O27 2.262383 1_555
Na4 O19 2.439154 1_655
Na4 O23 2.513286 1_645
Na4 O14 2.568870 1_645
Na4 O24 2.586894 1_655
Na4 O16 2.604817 1_545
Na5 O26 2.272611 1_555
Na5 O22 2.289087 1_555
Na5 O17 2.396766 1_555
Na5 O25 2.409156 1_555
Na5 O21 2.536212 1_555
Na5 O15 2.802765 1_555
Mn0 O16 1.961219 1_555
Mn0 O3 2.000908 1_555
Mn0 O4 2.048232 1_555
Mn0 O10 2.064247 1_565
Mn0 O8 2.143315 1_565
Mn0 O7 2.220688 1_555
Mn1 O6 1.931864 1_555
Mn1 O13 1.947448 1_555
Mn1 O15 1.958215 1_555
Mn1 O9 1.970730 1_555
Mn1 O2 2.006507 1_555
Mn1 O5 2.012261 1_455
Mn2 O11 1.961219 1_555
Mn2 O24 2.000908 1_555
Mn2 O22 2.048232 1_555
Mn2 O14 2.064247 1_545
Mn2 O20 2.143315 1_545
Mn2 O19 2.220688 1_555
Mn3 O18 1.931864 1_555
Mn3 O17 1.947448 1_555
Mn3 O12 1.958215 1_555
Mn3 O21 1.970730 1_555
Mn3 O25 2.006507 1_555
Mn3 O23 2.012261 1_655
C0 O26 1.248139 1_554
C0 O4 1.308142 1_555
C0 O3 1.327094 1_555
C1 O27 1.227994 1_454
C1 O2 1.317040 1_555
C1 O5 1.342315 1_455
C2 O1 1.248139 1_556
C2 O22 1.308142 1_555
C2 O24 1.327094 1_555
C3 O0 1.227994 1_656
C3 O25 1.317040 1_555
C3 O23 1.342315 1_655
O6 P0 1.553809 1_455
O7 P0 1.532152 1_555
O8 P1 1.527018 1_555
O9 P1 1.568048 1_555
O10 P2 1.551206 1_655
O11 P1 1.560852 1_555
O12 P0 1.584111 1_555
O13 P3 1.553020 1_555
O14 P0 1.551206 1_455
O15 P2 1.584111 1_555
O16 P3 1.560852 1_555
O17 P1 1.553020 1_555
O18 P2 1.553809 1_655
O19 P2 1.532152 1_555
O20 P3 1.527018 1_555
O21 P3 1.568048 1_555
