# generated using pymatgen
data_Li2FeF4
_symmetry_space_group_name_H-M   'P 1'
_cell_length_a   5.21312555
_cell_length_b   5.21312555
_cell_length_c   6.56963700
_cell_angle_alpha   90.00000000
_cell_angle_beta   90.00000000
_cell_angle_gamma   112.99822853
_symmetry_Int_Tables_number   1
_chemical_formula_structural   Li2FeF4
_chemical_formula_sum   'Li4 Fe2 F8'
_cell_volume   164.34993010
_cell_formula_units_Z   2
loop_
 _symmetry_equiv_pos_site_id
 _symmetry_equiv_pos_as_xyz
  1  'x, y, z'
loop_
 _atom_site_type_symbol
 _atom_site_label
 _atom_site_symmetry_multiplicity
 _atom_site_fract_x
 _atom_site_fract_y
 _atom_site_fract_z
 _atom_site_occupancy
  Li  Li0  1  0.84527900  0.15472100  0.25000000  1
  Li  Li1  1  0.50000000  0.50000000  0.00000000  1
  Li  Li2  1  0.50000000  0.50000000  0.50000000  1
  Li  Li3  1  0.15472100  0.84527900  0.75000000  1
  Fe  Fe0  1  0.83001200  0.16998800  0.75000000  1
  Fe  Fe1  1  0.16998800  0.83001200  0.25000000  1
  F  F0  1  0.24889100  0.23827700  0.75000000  1
  F  F1  1  0.23827700  0.24889100  0.25000000  1
  F  F2  1  0.72914500  0.27085500  0.01326900  1
  F  F3  1  0.72914500  0.27085500  0.48673100  1
  F  F4  1  0.27085500  0.72914500  0.98673100  1
  F  F5  1  0.27085500  0.72914500  0.51326900  1
  F  F6  1  0.76172300  0.75110900  0.75000000  1
  F  F7  1  0.75110900  0.76172300  0.25000000  1
loop_
_geom_bond_atom_site_label_1
_geom_bond_atom_site_label_2
_geom_bond_distance
_geom_bond_site_symmetry_2
F0 Li3 1.911140 1_545
F0 Fe0 2.070674 1_455
F0 Li1 2.208410 1_556
F0 Li2 2.208410 1_555
F1 Li0 1.911140 1_455
F1 Fe1 2.070674 1_545
F1 Li2 2.208410 1_555
F1 Li1 2.208410 1_555
F2 Li0 1.854250 1_555
F2 Fe0 1.939204 1_554
F2 Li1 1.994142 1_555
F3 Li0 1.854250 1_555
F3 Fe0 1.939204 1_555
F3 Li2 1.994142 1_555
F4 Li3 1.854250 1_555
F4 Fe1 1.939204 1_556
F4 Li1 1.994142 1_556
F5 Li3 1.854250 1_555
F5 Fe1 1.939204 1_555
F5 Li2 1.994142 1_555
F6 Li3 1.911140 1_655
F6 Fe0 2.070674 1_565
F6 Li1 2.208410 1_556
F6 Li2 2.208410 1_555
F7 Li0 1.911140 1_565
F7 Fe1 2.070674 1_655
F7 Li2 2.208410 1_555
F7 Li1 2.208410 1_555
