# generated using pymatgen
data_Ga2WO6
_symmetry_space_group_name_H-M   'P 1'
_cell_length_a   9.53704641
_cell_length_b   9.53704641
_cell_length_c   5.03933211
_cell_angle_alpha   85.56576648
_cell_angle_beta   85.56576648
_cell_angle_gamma   83.29010550
_symmetry_Int_Tables_number   1
_chemical_formula_structural   Ga2WO6
_chemical_formula_sum   'Ga8 W4 O24'
_cell_volume   452.77127752
_cell_formula_units_Z   4
loop_
 _symmetry_equiv_pos_site_id
 _symmetry_equiv_pos_as_xyz
  1  'x, y, z'
loop_
 _atom_site_type_symbol
 _atom_site_label
 _atom_site_symmetry_multiplicity
 _atom_site_fract_x
 _atom_site_fract_y
 _atom_site_fract_z
 _atom_site_occupancy
  Ga  Ga0  1  0.15527400  0.84472600  0.75000000  1
  Ga  Ga1  1  0.69638100  0.30361900  0.75000000  1
  Ga  Ga2  1  0.94255500  0.79296700  0.29703200  1
  Ga  Ga3  1  0.79296700  0.94255500  0.79703200  1
  Ga  Ga4  1  0.20703300  0.05744500  0.20296800  1
  Ga  Ga5  1  0.05744500  0.20703300  0.70296800  1
  Ga  Ga6  1  0.30361900  0.69638100  0.25000000  1
  Ga  Ga7  1  0.84472600  0.15527400  0.25000000  1
  W  W0  1  0.49394100  0.84373700  0.61090800  1
  W  W1  1  0.15626300  0.50605900  0.88909200  1
  W  W2  1  0.84373700  0.49394100  0.11090800  1
  W  W3  1  0.50605900  0.15626300  0.38909200  1
  O  O0  1  0.85769000  0.96244900  0.12524700  1
  O  O1  1  0.55651000  0.95467500  0.29623300  1
  O  O2  1  0.26586800  0.89295200  0.41067500  1
  O  O3  1  0.47849600  0.68875300  0.42109900  1
  O  O4  1  0.31124700  0.52150400  0.07890100  1
  O  O5  1  0.10704800  0.73413200  0.08932500  1
  O  O6  1  0.96244900  0.85769000  0.62524700  1
  O  O7  1  0.19614500  0.64436100  0.60249000  1
  O  O8  1  0.64436100  0.19614500  0.10249000  1
  O  O9  1  0.18957500  0.33622800  0.73214300  1
  O  O10  1  0.33622800  0.18957500  0.23214300  1
  O  O11  1  0.04532500  0.44349000  0.20376700  1
  O  O12  1  0.95467500  0.55651000  0.79623300  1
  O  O13  1  0.66377200  0.81042500  0.76785700  1
  O  O14  1  0.81042500  0.66377200  0.26785700  1
  O  O15  1  0.35563900  0.80385500  0.89751000  1
  O  O16  1  0.80385500  0.35563900  0.39751000  1
  O  O17  1  0.03755100  0.14231000  0.37475300  1
  O  O18  1  0.89295200  0.26586800  0.91067500  1
  O  O19  1  0.68875300  0.47849600  0.92109900  1
  O  O20  1  0.52150400  0.31124700  0.57890100  1
  O  O21  1  0.73413200  0.10704800  0.58932500  1
  O  O22  1  0.44349000  0.04532500  0.70376700  1
  O  O23  1  0.14231000  0.03755100  0.87475300  1
loop_
_geom_bond_atom_site_label_1
_geom_bond_atom_site_label_2
_geom_bond_distance
_geom_bond_site_symmetry_2
Ga0 O6 1.976356 1_455
Ga0 O23 1.976356 1_565
Ga0 O2 1.990197 1_555
Ga0 O5 1.990197 1_556
Ga0 O15 2.087293 1_555
Ga0 O7 2.087293 1_555
Ga1 O19 1.927336 1_555
Ga1 O20 1.927336 1_555
Ga1 O16 2.037903 1_555
Ga1 O8 2.037903 1_556
Ga1 O18 2.081266 1_555
Ga1 O21 2.081266 1_555
Ga2 O6 1.840228 1_555
Ga2 O5 1.871551 1_655
Ga2 O14 1.883401 1_555
Ga2 O0 1.898249 1_555
Ga3 O0 1.840228 1_556
Ga3 O21 1.871551 1_565
Ga3 O13 1.883401 1_555
Ga3 O6 1.898249 1_555
Ga4 O23 1.840228 1_554
Ga4 O2 1.871551 1_545
Ga4 O10 1.883401 1_555
Ga4 O17 1.898249 1_555
Ga5 O17 1.840228 1_555
Ga5 O18 1.871551 1_455
Ga5 O9 1.883401 1_555
Ga5 O23 1.898249 1_555
Ga6 O3 1.927336 1_555
Ga6 O4 1.927336 1_555
Ga6 O15 2.037903 1_554
Ga6 O7 2.037903 1_555
Ga6 O2 2.081266 1_555
Ga6 O5 2.081266 1_555
Ga7 O0 1.976356 1_545
Ga7 O17 1.976356 1_655
Ga7 O21 1.990197 1_555
Ga7 O18 1.990197 1_554
Ga7 O16 2.087293 1_555
Ga7 O8 2.087293 1_555
O1 W0 1.931808 1_555
O1 W3 2.008688 1_565
O2 W0 2.448935 1_555
O3 W0 1.847333 1_555
O4 W1 1.847333 1_554
O5 W1 2.448935 1_554
O7 W1 1.925640 1_555
O8 W3 1.925640 1_555
O9 W1 1.840883 1_555
O10 W3 1.840883 1_555
O11 W1 1.931808 1_554
O11 W2 2.008688 1_455
O12 W2 1.931808 1_556
O12 W1 2.008688 1_655
O13 W0 1.840883 1_555
O14 W2 1.840883 1_555
O15 W0 1.925640 1_555
O16 W2 1.925640 1_555
O18 W2 2.448935 1_556
O19 W2 1.847333 1_556
O20 W3 1.847333 1_555
O21 W3 2.448935 1_555
O22 W3 1.931808 1_555
O22 W0 2.008688 1_545
