# generated using pymatgen
data_Na2LiMnPCO7
_symmetry_space_group_name_H-M   'P 1'
_cell_length_a   6.78714500
_cell_length_b   8.88558200
_cell_length_c   10.26288681
_cell_angle_alpha   89.47990915
_cell_angle_beta   90.00000000
_cell_angle_gamma   90.00000000
_symmetry_Int_Tables_number   1
_chemical_formula_structural   Na2LiMnPCO7
_chemical_formula_sum   'Na8 Li4 Mn4 P4 C4 O28'
_cell_volume   618.90594338
_cell_formula_units_Z   4
loop_
 _symmetry_equiv_pos_site_id
 _symmetry_equiv_pos_as_xyz
  1  'x, y, z'
loop_
 _atom_site_type_symbol
 _atom_site_label
 _atom_site_symmetry_multiplicity
 _atom_site_fract_x
 _atom_site_fract_y
 _atom_site_fract_z
 _atom_site_occupancy
  Na  Na0  1  0.50135200  0.08355800  0.87934300  1
  Na  Na1  1  0.49864800  0.08355800  0.37934300  1
  Na  Na2  1  0.24893400  0.25545100  0.62481800  1
  Na  Na3  1  0.75106600  0.25545100  0.12481800  1
  Na  Na4  1  0.75143700  0.74365400  0.87642500  1
  Na  Na5  1  0.24825300  0.74324200  0.87599300  1
  Na  Na6  1  0.75174700  0.74324200  0.37599300  1
  Na  Na7  1  0.24856300  0.74365400  0.37642500  1
  Li  Li0  1  0.73358000  0.27043700  0.61774800  1
  Li  Li1  1  0.26642000  0.27043700  0.11774800  1
  Li  Li2  1  0.99259900  0.91444900  0.62643300  1
  Li  Li3  1  0.00740100  0.91444900  0.12643300  1
  Mn  Mn0  1  0.00170300  0.35997800  0.88912200  1
  Mn  Mn1  1  0.99829700  0.35997800  0.38912200  1
  Mn  Mn2  1  0.49907900  0.63972800  0.61200200  1
  Mn  Mn3  1  0.50092100  0.63972800  0.11200200  1
  P  P0  1  0.50459800  0.40893800  0.85338900  1
  P  P1  1  0.49540200  0.40893800  0.35338900  1
  P  P2  1  0.99507900  0.59071000  0.64911500  1
  P  P3  1  0.00492100  0.59071000  0.14911500  1
  C  C0  1  0.99901500  0.05315600  0.86509800  1
  C  C1  1  0.00098500  0.05315600  0.36509800  1
  C  C2  1  0.50833400  0.94483900  0.63161400  1
  C  C3  1  0.49166600  0.94483900  0.13161400  1
  O  O0  1  0.52512300  0.09048600  0.64064800  1
  O  O1  1  0.47487700  0.09048600  0.14064800  1
  O  O2  1  0.99902400  0.09251100  0.98686000  1
  O  O3  1  0.00097600  0.09251100  0.48686000  1
  O  O4  1  0.99835100  0.15463900  0.77234600  1
  O  O5  1  0.00164900  0.15463900  0.27234600  1
  O  O6  1  0.31952800  0.31679900  0.89552400  1
  O  O7  1  0.68692700  0.31810400  0.89993600  1
  O  O8  1  0.31307300  0.31810400  0.39993600  1
  O  O9  1  0.68047200  0.31679900  0.39552400  1
  O  O10  1  0.51199000  0.42268700  0.70080400  1
  O  O11  1  0.98168900  0.43017900  0.58926700  1
  O  O12  1  0.48801000  0.42268700  0.20080400  1
  O  O13  1  0.01831100  0.43017900  0.08926700  1
  O  O14  1  0.49978300  0.56970100  0.91076300  1
  O  O15  1  0.99880400  0.57150800  0.80023800  1
  O  O16  1  0.50021700  0.56970100  0.41076300  1
  O  O17  1  0.00119600  0.57150800  0.30023800  1
  O  O18  1  0.81691500  0.69195500  0.60955900  1
  O  O19  1  0.18173500  0.67980900  0.60597100  1
  O  O20  1  0.81826500  0.67980900  0.10597100  1
  O  O21  1  0.18308500  0.69195500  0.10955900  1
  O  O22  1  0.49887400  0.86085600  0.73613600  1
  O  O23  1  0.50112600  0.86085600  0.23613600  1
  O  O24  1  0.49972400  0.88062600  0.51858200  1
  O  O25  1  0.50027600  0.88062600  0.01858200  1
  O  O26  1  0.00003000  0.91200000  0.83227000  1
  O  O27  1  0.99997000  0.91200000  0.33227000  1
loop_
_geom_bond_atom_site_label_1
_geom_bond_atom_site_label_2
_geom_bond_distance
_geom_bond_site_symmetry_2
Na0 O25 2.290571 1_546
Na0 O6 2.419075 1_555
Na0 O7 2.445904 1_555
Na0 O0 2.455221 1_555
Na0 O22 2.475671 1_545
Na0 O1 2.689019 1_556
Na1 O24 2.290571 1_545
Na1 O9 2.419075 1_555
Na1 O8 2.445904 1_555
Na1 O1 2.455221 1_555
Na1 O23 2.475671 1_545
Na1 O0 2.689019 1_555
Na2 O0 2.384229 1_555
Na2 O8 2.408876 1_555
Na2 O11 2.413143 1_455
Na2 O4 2.441865 1_455
Na2 O10 2.454587 1_555
Na2 O3 2.640124 1_555
Na2 O6 2.876238 1_555
Na3 O1 2.384229 1_555
Na3 O7 2.408876 1_554
Na3 O13 2.413143 1_655
Na3 O5 2.441865 1_655
Na3 O12 2.454587 1_555
Na3 O2 2.640124 1_554
Na3 O9 2.876238 1_555
Na4 O26 2.297257 1_655
Na4 O14 2.328243 1_555
Na4 O15 2.406567 1_555
Na4 O20 2.460307 1_556
Na4 O22 2.463466 1_555
Na4 O25 2.558888 1_556
Na4 O18 2.816465 1_555
Na5 O26 2.296950 1_555
Na5 O14 2.325850 1_555
Na5 O15 2.412662 1_455
Na5 O22 2.453270 1_555
Na5 O21 2.475759 1_556
Na5 O25 2.567092 1_556
Na5 O19 2.868701 1_555
Na6 O27 2.296950 1_555
Na6 O16 2.325850 1_555
Na6 O17 2.412662 1_655
Na6 O23 2.453270 1_555
Na6 O18 2.475759 1_555
Na6 O24 2.567092 1_555
Na6 O20 2.868701 1_555
Na7 O27 2.297257 1_455
Na7 O16 2.328243 1_555
Na7 O17 2.406567 1_555
Na7 O19 2.460307 1_555
Na7 O23 2.463466 1_555
Na7 O24 2.558888 1_555
Na7 O21 2.816465 1_555
Li0 O0 2.146358 1_555
Li0 O10 2.199901 1_555
Li0 O11 2.219977 1_555
Li0 O9 2.341791 1_555
Li0 O4 2.603033 1_555
Li1 O1 2.146358 1_555
Li1 O12 2.199901 1_555
Li1 O13 2.219977 1_555
Li1 O6 2.341791 1_554
Li1 O5 2.603033 1_555
Li2 O26 2.112998 1_655
Li2 O3 2.125377 1_665
Li2 O18 2.316569 1_555
Li2 O19 2.459020 1_655
Li3 O27 2.112998 1_455
Li3 O2 2.125377 1_464
Li3 O21 2.316569 1_555
Li3 O20 2.459020 1_455
Mn0 O15 2.081863 1_455
Mn0 O13 2.155052 1_556
Mn0 O7 2.171254 1_455
Mn0 O6 2.191859 1_555
Mn0 O4 2.192151 1_455
Mn0 O2 2.571272 1_455
Mn1 O17 2.081863 1_655
Mn1 O11 2.155052 1_555
Mn1 O8 2.171254 1_655
Mn1 O9 2.191859 1_555
Mn1 O5 2.192151 1_655
Mn1 O3 2.571272 1_655
Mn2 O10 2.127347 1_555
Mn2 O16 2.162405 1_555
Mn2 O19 2.183891 1_555
Mn2 O18 2.206645 1_555
Mn2 O24 2.337478 1_555
Mn2 O22 2.351402 1_555
Mn3 O12 2.127347 1_555
Mn3 O14 2.162405 1_554
Mn3 O20 2.183891 1_555
Mn3 O21 2.206645 1_555
Mn3 O25 2.337478 1_555
Mn3 O23 2.351402 1_555
C0 O2 1.300689 1_555
C0 O26 1.301683 1_645
C0 O4 1.305252 1_555
C1 O3 1.300689 1_555
C1 O27 1.301683 1_445
C1 O5 1.305252 1_555
C2 O24 1.298715 1_555
C2 O22 1.302744 1_555
C2 O0 1.303305 1_565
C3 O25 1.298715 1_555
C3 O23 1.302744 1_555
C3 O1 1.303305 1_565
O6 P0 1.558406 1_555
O7 P0 1.550492 1_555
O8 P1 1.550492 1_555
O9 P1 1.558406 1_555
O10 P0 1.570416 1_555
O11 P2 1.560792 1_555
O12 P1 1.570416 1_555
O13 P3 1.560792 1_555
O14 P0 1.550350 1_555
O15 P2 1.558980 1_555
O16 P1 1.550350 1_555
O17 P3 1.558980 1_555
O18 P2 1.558754 1_555
O19 P2 1.556089 1_455
O20 P3 1.556089 1_655
O21 P3 1.558754 1_555
