# generated using pymatgen
data_Y15TmO24
_symmetry_space_group_name_H-M   'P 1'
_cell_length_a   9.17640353
_cell_length_b   9.17640353
_cell_length_c   10.59172273
_cell_angle_alpha   54.71797780
_cell_angle_beta   54.71797780
_cell_angle_gamma   70.50556679
_symmetry_Int_Tables_number   1
_chemical_formula_structural   Y15TmO24
_chemical_formula_sum   'Y15 Tm1 O24'
_cell_volume   594.33495380
_cell_formula_units_Z   1
loop_
 _symmetry_equiv_pos_site_id
 _symmetry_equiv_pos_as_xyz
  1  'x, y, z'
loop_
 _atom_site_type_symbol
 _atom_site_label
 _atom_site_symmetry_multiplicity
 _atom_site_fract_x
 _atom_site_fract_y
 _atom_site_fract_z
 _atom_site_occupancy
  Y  Y0  1  0.00048721  0.99956258  0.74945485  1
  Y  Y1  1  0.78260436  0.21739564  0.00000000  1
  Y  Y2  1  0.24990972  0.25117696  0.78195948  1
  Y  Y3  1  0.74882304  0.75009028  0.21804052  1
  Y  Y4  1  0.96805273  0.46787669  0.53242891  1
  Y  Y5  1  0.46656352  0.96726917  0.03374210  1
  Y  Y6  1  0.00043742  0.99951279  0.25054515  1
  Y  Y7  1  0.71755712  0.28244288  0.50000000  1
  Y  Y8  1  0.49887676  0.50024086  0.25106810  1
  Y  Y9  1  0.28245464  0.71754536  0.00000000  1
  Y  Y10  1  0.49975914  0.50112324  0.74893190  1
  Y  Y11  1  0.53212331  0.03194727  0.46757109  1
  Y  Y12  1  0.03273083  0.53343648  0.96625790  1
  Y  Y13  1  0.75089320  0.74994839  0.71742186  1
  Y  Y14  1  0.25005161  0.24910680  0.28257814  1
  Tm  Tm0  1  0.21682497  0.78317503  0.50000000  1
  O  O0  1  0.51016100  0.22977904  0.78204742  1
  O  O1  1  0.72902523  0.01051922  0.97821364  1
  O  O2  1  0.96006799  0.76188254  0.75773656  1
  O  O3  1  0.76136408  0.95720320  0.26091348  1
  O  O4  1  0.73951590  0.54273201  0.47898019  1
  O  O5  1  0.54314522  0.73906689  0.97955476  1
  O  O6  1  0.77022096  0.48983900  0.21795258  1
  O  O7  1  0.98948078  0.27097477  0.02178636  1
  O  O8  1  0.22823747  0.96844933  0.01091049  1
  O  O9  1  0.72820988  0.46847470  0.79237783  1
  O  O10  1  0.46472401  0.72836801  0.29603434  1
  O  O11  1  0.96841821  0.22825900  0.51092182  1
  O  O12  1  0.53152530  0.27179012  0.20762217  1
  O  O13  1  0.77174100  0.03158179  0.48907818  1
  O  O14  1  0.27163199  0.53527599  0.70396566  1
  O  O15  1  0.03155067  0.77176253  0.98908951  1
  O  O16  1  0.22917717  0.51076030  0.28151901  1
  O  O17  1  0.01411713  0.72881763  0.47889740  1
  O  O18  1  0.45726799  0.26048410  0.52101981  1
  O  O19  1  0.26093311  0.45685478  0.02044524  1
  O  O20  1  0.04279680  0.23863592  0.73908652  1
  O  O21  1  0.23811746  0.03993201  0.24226344  1
  O  O22  1  0.48923970  0.77082283  0.71848099  1
  O  O23  1  0.27118237  0.98588287  0.52110260  1
loop_
_geom_bond_atom_site_label_1
_geom_bond_atom_site_label_2
_geom_bond_distance
_geom_bond_site_symmetry_2
O0 Y5 2.249976 1_546
O0 Y7 2.271165 1_555
O0 Y10 2.281052 1_555
O0 Y2 2.330514 1_555
O1 Y5 2.244113 1_546
O1 Y1 2.271322 1_556
O1 Y0 2.286465 1_645
O1 Y3 2.329659 1_546
O2 Y13 2.240500 1_555
O2 Y12 2.266460 1_655
O2 Y0 2.276744 1_655
O2 Tm0 2.302736 1_655
O3 Y3 2.243853 1_555
O3 Y11 2.266912 1_565
O3 Y6 2.283992 1_655
O3 Y1 2.332778 1_565
O4 Y3 2.242132 1_555
O4 Y4 2.269615 1_555
O4 Y10 2.279058 1_555
O4 Y7 2.334586 1_555
O5 Y13 2.246158 1_555
O5 Y5 2.269073 1_556
O5 Y8 2.280827 1_556
O5 Y9 2.340087 1_556
O6 Y12 2.249976 1_654
O6 Y7 2.271165 1_555
O6 Y8 2.281052 1_555
O6 Y3 2.330514 1_555
O7 Y12 2.244113 1_654
O7 Y1 2.271322 1_555
O7 Y6 2.286465 1_645
O7 Y2 2.329659 1_654
O8 Y9 2.244620 1_555
O8 Y2 2.273874 1_564
O8 Y6 2.280805 1_555
O8 Y5 2.331004 1_555
O9 Y1 2.245200 1_556
O9 Y13 2.268070 1_555
O9 Y10 2.287393 1_555
O9 Y4 2.331058 1_555
O10 Tm0 2.215685 1_555
O10 Y3 2.277584 1_555
O10 Y8 2.291020 1_555
O10 Y5 2.336487 1_555
O11 Y7 2.244342 1_555
O11 Y14 2.267148 1_655
O11 Y0 2.279374 1_645
O11 Y4 2.336573 1_555
O12 Y1 2.245200 1_555
O12 Y14 2.268070 1_555
O12 Y8 2.287393 1_555
O12 Y11 2.331058 1_555
O13 Y7 2.244342 1_555
O13 Y13 2.267148 1_545
O13 Y6 2.279374 1_645
O13 Y11 2.336573 1_555
O14 Tm0 2.215685 1_555
O14 Y2 2.277584 1_555
O14 Y10 2.291020 1_555
O14 Y12 2.336487 1_555
O15 Y9 2.244620 1_556
O15 Y3 2.273874 1_456
O15 Y0 2.280805 1_555
O15 Y12 2.331004 1_555
O16 Y4 2.241450 1_455
O16 Y9 2.264865 1_555
O16 Y8 2.278761 1_555
O16 Y14 2.337991 1_555
O17 Tm0 2.233204 1_555
O17 Y4 2.250355 1_455
O17 Y6 2.288696 1_555
O17 Y13 2.336335 1_455
O18 Y2 2.242132 1_555
O18 Y11 2.269615 1_555
O18 Y8 2.279058 1_555
O18 Y7 2.334586 1_555
O19 Y14 2.246158 1_555
O19 Y12 2.269073 1_554
O19 Y10 2.280827 1_554
O19 Y9 2.340087 1_555
O20 Y2 2.243853 1_555
O20 Y4 2.266912 1_455
O20 Y0 2.283992 1_545
O20 Y1 2.332778 1_456
O21 Y14 2.240500 1_555
O21 Y5 2.266460 1_545
O21 Y6 2.276744 1_545
O21 Tm0 2.302736 1_545
O22 Y11 2.241450 1_565
O22 Y9 2.264865 1_556
O22 Y10 2.278761 1_555
O22 Y13 2.337991 1_555
O23 Tm0 2.233204 1_555
O23 Y11 2.250355 1_565
O23 Y0 2.288696 1_555
O23 Y14 2.336335 1_565
