# generated using pymatgen
data_Li4V3Cr3(CuO8)2
_symmetry_space_group_name_H-M   'P 1'
_cell_length_a   5.83872500
_cell_length_b   5.84457850
_cell_length_c   9.75097184
_cell_angle_alpha   92.67301122
_cell_angle_beta   90.61734035
_cell_angle_gamma   119.34978709
_symmetry_Int_Tables_number   1
_chemical_formula_structural   Li4V3Cr3(CuO8)2
_chemical_formula_sum   'Li4 V3 Cr3 Cu2 O16'
_cell_volume   289.50834261
_cell_formula_units_Z   1
loop_
 _symmetry_equiv_pos_site_id
 _symmetry_equiv_pos_as_xyz
  1  'x, y, z'
loop_
 _atom_site_type_symbol
 _atom_site_label
 _atom_site_symmetry_multiplicity
 _atom_site_fract_x
 _atom_site_fract_y
 _atom_site_fract_z
 _atom_site_occupancy
  Li  Li0  1  0.31682400  0.65615900  0.09758300  1
  Li  Li1  1  0.01798000  0.03339600  0.00468100  1
  Li  Li2  1  0.02422300  0.01510400  0.50742100  1
  Li  Li3  1  0.64664400  0.32381700  0.60541600  1
  V  V0  1  0.79064000  0.64159100  0.27322400  1
  V  V1  1  0.13990800  0.81459900  0.78944900  1
  V  V2  1  0.32830500  0.11710900  0.29722300  1
  Cr  Cr0  1  0.65586000  0.84810600  0.78253700  1
  Cr  Cr1  1  0.17134000  0.34412500  0.78697400  1
  Cr  Cr2  1  0.85031000  0.17931000  0.28704200  1
  Cu  Cu0  1  0.35104200  0.66281100  0.51652700  1
  Cu  Cu1  1  0.67155200  0.33341500  0.99925900  1
  O  O0  1  0.70470600  0.84247400  0.39215400  1
  O  O1  1  0.47269400  0.51465300  0.66716100  1
  O  O2  1  0.33116600  0.69371600  0.89441300  1
  O  O3  1  0.99530900  0.99143500  0.68783600  1
  O  O4  1  0.00966000  0.98538000  0.18857000  1
  O  O5  1  0.19359400  0.32205000  0.39479900  1
  O  O6  1  0.45620600  0.95670800  0.66100500  1
  O  O7  1  0.01459700  0.51863600  0.67382400  1
  O  O8  1  0.84856700  0.17592500  0.89833800  1
  O  O9  1  0.18320900  0.84367000  0.39651800  1
  O  O10  1  0.96162500  0.47886600  0.16847100  1
  O  O11  1  0.50022000  0.01774600  0.18003900  1
  O  O12  1  0.66906700  0.34598100  0.39172400  1
  O  O13  1  0.85653200  0.70371500  0.89437900  1
  O  O14  1  0.51183600  0.47944500  0.16194300  1
  O  O15  1  0.32667800  0.16035700  0.89364800  1
loop_
_geom_bond_atom_site_label_1
_geom_bond_atom_site_label_2
_geom_bond_distance
_geom_bond_site_symmetry_2
Li0 O10 1.960534 1_455
Li0 O11 1.965667 1_565
Li0 O14 1.988687 1_555
Li0 O2 2.001521 1_554
Li1 O4 1.825310 1_545
Li1 O8 1.901005 1_454
Li1 O13 1.939708 1_444
Li1 O15 1.943548 1_554
Li2 O3 1.774459 1_445
Li2 O0 1.940497 1_445
Li2 O9 1.966569 1_545
Li2 O5 1.967314 1_555
Li3 O1 1.923294 1_555
Li3 O7 1.963991 1_655
Li3 O6 1.979027 1_545
Li3 O12 2.095275 1_555
Cr0 O8 1.967108 1_565
Cr0 O6 1.982896 1_555
Cr0 O1 1.983437 1_555
Cr0 O3 1.991641 1_555
Cr0 O2 2.014396 1_555
Cr0 O13 2.074104 1_555
Cr1 O1 1.971801 1_555
Cr1 O3 1.988920 1_445
Cr1 O8 2.006190 1_455
Cr1 O2 2.013275 1_555
Cr1 O7 2.023211 1_555
Cr1 O15 2.024091 1_555
Cr2 O10 1.978368 1_555
Cr2 O4 2.005943 1_645
Cr2 O5 2.012737 1_655
Cr2 O12 2.012894 1_555
Cr2 O11 2.031896 1_555
Cr2 O0 2.053102 1_545
Cu0 O6 2.008480 1_555
Cu0 O1 2.027528 1_555
Cu0 O5 2.044922 1_555
Cu0 O9 2.133788 1_555
Cu0 O0 2.210112 1_555
Cu0 O7 2.341861 1_555
Cu1 O8 1.937492 1_555
Cu1 O15 1.999967 1_555
Cu1 O10 2.170518 1_556
Cu1 O14 2.190959 1_556
Cu1 O13 2.198908 1_555
Cu1 O11 2.458472 1_556
O0 V0 1.854207 1_555
O2 V1 1.899989 1_555
O3 V1 1.922391 1_655
O4 V2 1.911523 1_565
O4 V0 2.003154 1_455
O5 V2 1.947305 1_555
O6 V1 2.076611 1_555
O7 V1 1.832563 1_555
O9 V2 1.744705 1_565
O9 V0 2.290952 1_455
O10 V0 1.951063 1_555
O11 V2 1.784576 1_555
O12 V0 1.955939 1_555
O12 V2 1.957959 1_555
O13 V1 1.803227 1_655
O14 V0 1.754769 1_555
O14 V2 2.332268 1_555
O15 V1 1.982317 1_545
