# generated using pymatgen
data_LiMn3Al2(HO2)6
_symmetry_space_group_name_H-M   'P 1'
_cell_length_a   10.53346683
_cell_length_b   7.73136804
_cell_length_c   5.85237775
_cell_angle_alpha   100.97994151
_cell_angle_beta   105.96410267
_cell_angle_gamma   68.62014844
_symmetry_Int_Tables_number   1
_chemical_formula_structural   LiMn3Al2(HO2)6
_chemical_formula_sum   'Li2 Mn6 Al4 H12 O24'
_cell_volume   424.52137924
_cell_formula_units_Z   2
loop_
 _symmetry_equiv_pos_site_id
 _symmetry_equiv_pos_as_xyz
  1  'x, y, z'
loop_
 _atom_site_type_symbol
 _atom_site_label
 _atom_site_symmetry_multiplicity
 _atom_site_fract_x
 _atom_site_fract_y
 _atom_site_fract_z
 _atom_site_occupancy
  Li  Li0  1  0.50051300  0.01139000  0.25907800  1
  Li  Li1  1  0.49944500  0.32202000  0.57425100  1
  Mn  Mn0  1  0.00238200  0.99925000  0.00017200  1
  Mn  Mn1  1  0.00118400  0.99930100  0.49984000  1
  Mn  Mn2  1  0.99895800  0.33401500  0.33338300  1
  Mn  Mn3  1  0.99924600  0.66726900  0.16666000  1
  Mn  Mn4  1  0.99744800  0.33401300  0.83345800  1
  Mn  Mn5  1  0.00081000  0.66611200  0.66633400  1
  Al  Al0  1  0.50190400  0.00615900  0.74815700  1
  Al  Al1  1  0.49806600  0.32726900  0.08521900  1
  Al  Al2  1  0.50000200  0.66668200  0.41669400  1
  Al  Al3  1  0.49993000  0.66670300  0.91666500  1
  H  H0  1  0.70984700  0.02535700  0.09726000  1
  H  H1  1  0.28945600  0.32413300  0.20299900  1
  H  H2  1  0.71055800  0.00913300  0.63024100  1
  H  H3  1  0.28718500  0.65189800  0.05708100  1
  H  H4  1  0.29003300  0.30813400  0.73598200  1
  H  H5  1  0.70491400  0.36214100  0.42694500  1
  H  H6  1  0.29569500  0.65806200  0.55875100  1
  H  H7  1  0.70426100  0.67527800  0.27416000  1
  H  H8  1  0.69997700  0.35896600  0.95540700  1
  H  H9  1  0.29505000  0.97126000  0.40642400  1
  H  H10  1  0.71271000  0.68152800  0.77682500  1
  H  H11  1  0.29995300  0.97426200  0.87799600  1
  O  O0  1  0.10323600  0.06631900  0.31809400  1
  O  O1  1  0.60650100  0.07273100  0.05456100  1
  O  O2  1  0.39206100  0.28489300  0.24998400  1
  O  O3  1  0.09800800  0.40018900  0.14879900  1
  O  O4  1  0.10344300  0.06698600  0.81703900  1
  O  O5  1  0.60791200  0.04857300  0.58340900  1
  O  O6  1  0.89649900  0.26611600  0.01625100  1
  O  O7  1  0.39159200  0.60929300  0.09589800  1
  O  O8  1  0.10038300  0.39833800  0.65135200  1
  O  O9  1  0.39347700  0.26066100  0.77877800  1
  O  O10  1  0.89683000  0.26726500  0.51529800  1
  O  O11  1  0.60192300  0.40843000  0.38617700  1
  O  O12  1  0.39887200  0.61562800  0.60337100  1
  O  O13  1  0.10374200  0.73137800  0.48328800  1
  O  O14  1  0.89632500  0.60214800  0.35016200  1
  O  O15  1  0.59696300  0.40908200  0.91713200  1
  O  O16  1  0.60105600  0.71776300  0.22989900  1
  O  O17  1  0.39803400  0.92498800  0.44721100  1
  O  O18  1  0.10503000  0.72978700  0.98499300  1
  O  O19  1  0.89950600  0.93487700  0.18191500  1
  O  O20  1  0.89495400  0.60310400  0.84765900  1
  O  O21  1  0.60839500  0.72418200  0.73767200  1
  O  O22  1  0.40294700  0.92436100  0.91625800  1
  O  O23  1  0.90218600  0.93277200  0.68441900  1
loop_
_geom_bond_atom_site_label_1
_geom_bond_atom_site_label_2
_geom_bond_distance
_geom_bond_site_symmetry_2
Li0 O5 1.952780 1_555
Li0 O2 2.006836 1_555
Li0 O1 2.059417 1_555
Li0 O17 2.069637 1_545
Li0 O22 2.095219 1_544
Li0 O16 2.122075 1_545
Li1 O2 1.952353 1_555
Li1 O5 2.006522 1_555
Li1 O9 2.059372 1_555
Li1 O11 2.069413 1_555
Li1 O15 2.095398 1_555
Li1 O12 2.121983 1_555
Mn0 O23 1.937450 1_454
Mn0 O19 1.944776 1_455
Mn0 O4 1.950382 1_564
Mn0 O0 1.950931 1_565
Mn0 O6 1.953391 1_465
Mn0 O18 1.963969 1_554
Mn1 O23 1.934223 1_455
Mn1 O19 1.948547 1_455
Mn1 O0 1.949442 1_565
Mn1 O13 1.953653 1_555
Mn1 O4 1.954787 1_565
Mn1 O10 1.957411 1_465
Mn2 O3 1.933118 1_655
Mn2 O8 1.947516 1_655
Mn2 O10 1.949640 1_555
Mn2 O14 1.955174 1_555
Mn2 O0 1.955511 1_655
Mn2 O6 1.955789 1_555
Mn3 O3 1.941224 1_655
Mn3 O19 1.946487 1_555
Mn3 O13 1.953686 1_655
Mn3 O14 1.956132 1_555
Mn3 O18 1.961041 1_654
Mn3 O20 1.963337 1_554
Mn4 O3 1.936433 1_656
Mn4 O8 1.946656 1_655
Mn4 O6 1.948663 1_556
Mn4 O10 1.950342 1_555
Mn4 O4 1.954680 1_655
Mn4 O20 1.961274 1_555
Mn5 O23 1.938200 1_455
Mn5 O8 1.947313 1_555
Mn5 O14 1.951340 1_455
Mn5 O13 1.954855 1_555
Mn5 O18 1.960501 1_555
Mn5 O20 1.962275 1_455
Al0 O5 1.806555 1_555
Al0 O9 1.883601 1_555
Al0 O1 1.915581 1_556
Al0 O17 1.926786 1_545
Al0 O22 1.932874 1_545
Al0 O21 2.053939 1_545
Al1 O2 1.806453 1_555
Al1 O1 1.883860 1_555
Al1 O9 1.915787 1_554
Al1 O11 1.926747 1_555
Al1 O15 1.932382 1_554
Al1 O7 2.054195 1_555
Al2 O11 1.891512 1_555
Al2 O17 1.891962 1_555
Al2 O12 1.896081 1_555
Al2 O16 1.896085 1_555
Al2 O7 1.974434 1_555
Al2 O21 1.975379 1_555
Al3 O15 1.878314 1_555
Al3 O22 1.878459 1_555
Al3 O16 1.899420 1_556
Al3 O12 1.899452 1_555
Al3 O7 1.950555 1_556
Al3 O21 1.950895 1_555
H0 O1 0.988006 1_555
H1 O2 0.982339 1_555
H2 O5 0.982641 1_555
H3 O7 0.998275 1_555
H3 O18 1.741034 1_554
H4 O9 0.988957 1_555
H5 O11 0.984371 1_555
H6 O12 0.986682 1_555
H7 O16 0.986892 1_555
H8 O15 0.985169 1_555
H9 O17 0.984304 1_555
H10 O21 0.997352 1_555
H10 O20 1.741826 1_555
H11 O22 0.984923 1_555
