# generated using pymatgen
data_NaMn10O20
_symmetry_space_group_name_H-M   'P 1'
_cell_length_a   10.22204912
_cell_length_b   10.22204912
_cell_length_c   10.22204912
_cell_angle_alpha   99.59279615
_cell_angle_beta   99.59279615
_cell_angle_gamma   131.81368060
_symmetry_Int_Tables_number   1
_chemical_formula_structural   NaMn10O20
_chemical_formula_sum   'Na2 Mn20 O40'
_cell_volume   726.72466346
_cell_formula_units_Z   2
loop_
 _symmetry_equiv_pos_site_id
 _symmetry_equiv_pos_as_xyz
  1  'x, y, z'
loop_
 _atom_site_type_symbol
 _atom_site_label
 _atom_site_symmetry_multiplicity
 _atom_site_fract_x
 _atom_site_fract_y
 _atom_site_fract_z
 _atom_site_occupancy
  Na  Na0  1  0.25000000  0.75000000  0.50000000  1
  Na  Na1  1  0.00000000  0.00000000  0.00000000  1
  Mn  Mn0  1  0.73012400  0.17973500  0.65172800  1
  Mn  Mn1  1  0.52814300  0.07861800  0.85378100  1
  Mn  Mn2  1  0.92160400  0.26987600  0.44961100  1
  Mn  Mn3  1  0.62500000  0.87500000  0.75000000  1
  Mn  Mn4  1  0.92436200  0.27814300  0.94952500  1
  Mn  Mn5  1  0.32563800  0.47185700  0.55047500  1
  Mn  Mn6  1  0.52800700  0.07839600  0.34827200  1
  Mn  Mn7  1  0.22483700  0.67436200  0.14621900  1
  Mn  Mn8  1  0.12500000  0.37500000  0.25000000  1
  Mn  Mn9  1  0.92138200  0.77516300  0.44952500  1
  Mn  Mn10  1  0.72185700  0.67138200  0.64621900  1
  Mn  Mn11  1  0.51987600  0.57026500  0.84827200  1
  Mn  Mn12  1  0.32839600  0.48012400  0.05038900  1
  Mn  Mn13  1  0.02516300  0.07563800  0.35378100  1
  Mn  Mn14  1  0.82026500  0.47199300  0.55038900  1
  Mn  Mn15  1  0.42973500  0.27800700  0.94961100  1
  Mn  Mn16  1  0.12500000  0.87500000  0.75000000  1
  Mn  Mn17  1  0.72199300  0.67160400  0.15172800  1
  Mn  Mn18  1  0.32861800  0.97483700  0.05047500  1
  Mn  Mn19  1  0.12500000  0.87500000  0.25000000  1
  O  O0  1  0.77336700  0.31680100  0.36970200  1
  O  O1  1  0.94709900  0.40366500  0.63029800  1
  O  O2  1  0.68319900  0.05290100  0.45656600  1
  O  O3  1  0.16258500  0.48838600  0.44280400  1
  O  O4  1  0.51161400  0.95441800  0.67419900  1
  O  O5  1  0.76771500  0.29968800  0.84505100  1
  O  O6  1  0.07733600  0.23228500  0.53197300  1
  O  O7  1  0.85527300  0.12389800  0.75848500  1
  O  O8  1  0.68117500  0.03665200  0.93244000  1
  O  O9  1  0.45463700  0.92266400  0.15494900  1
  O  O10  1  0.25126500  0.31882500  0.35547600  1
  O  O11  1  0.56882500  0.71334800  0.56756000  1
  O  O12  1  0.17266400  0.51771500  0.96802700  1
  O  O13  1  0.39472700  0.62610200  0.74151500  1
  O  O14  1  0.99873500  0.43117500  0.14452400  1
  O  O15  1  0.48228500  0.45031200  0.65494900  1
  O  O16  1  0.73838600  0.79558200  0.82580100  1
  O  O17  1  0.08741500  0.26161400  0.05719600  1
  O  O18  1  0.34678800  0.60527300  0.23137500  1
  O  O19  1  0.14578900  0.00126500  0.43244000  1
  O  O20  1  0.96334800  0.89578900  0.64452400  1
  O  O21  1  0.30290100  0.34633500  0.86970200  1
  O  O22  1  0.70031200  0.54536300  0.46802700  1
  O  O23  1  0.56680100  0.69709900  0.04343400  1
  O  O24  1  0.90321200  0.14472700  0.26862500  1
  O  O25  1  0.87610200  0.63458600  0.73137500  1
  O  O26  1  0.04558200  0.71978100  0.55719600  1
  O  O27  1  0.47663300  0.43319900  0.13029800  1
  O  O28  1  0.65366500  0.52336700  0.95656600  1
  O  O29  1  0.96978100  0.91258500  0.17419900  1
  O  O30  1  0.37389800  0.11541400  0.76862500  1
  O  O31  1  0.59633500  0.22663300  0.54343400  1
  O  O32  1  0.20441800  0.03021900  0.94280400  1
  O  O33  1  0.79536300  0.82733600  0.34505100  1
  O  O34  1  0.88458600  0.65321200  0.25848500  1
  O  O35  1  0.54968800  0.20463700  0.03197300  1
  O  O36  1  0.28665200  0.85421100  0.85547600  1
  O  O37  1  0.10421100  0.74873500  0.06756000  1
  O  O38  1  0.36541400  0.09678800  0.24151500  1
  O  O39  1  0.28021900  0.83741500  0.32580100  1
loop_
_geom_bond_atom_site_label_1
_geom_bond_atom_site_label_2
_geom_bond_distance
_geom_bond_site_symmetry_2
Na0 O4 2.100057 1_555
Na0 O3 2.100057 1_555
Na0 O26 2.100057 1_555
Na0 O39 2.100057 1_555
Na1 O16 2.100057 1_444
Na1 O29 2.100057 1_445
Na1 O32 2.100057 1_554
Na1 O17 2.100057 1_555
Mn0 O1 1.940681 1_555
Mn0 O4 1.958093 1_545
Mn0 O5 1.966570 1_555
Mn0 O7 1.967015 1_555
Mn0 O31 1.967759 1_555
Mn0 O2 1.969932 1_555
Mn1 O35 1.931758 1_556
Mn1 O30 1.956437 1_555
Mn1 O36 1.957766 1_545
Mn1 O4 1.960613 1_545
Mn1 O8 1.966752 1_555
Mn1 O5 1.967905 1_555
Mn2 O2 1.940681 1_555
Mn2 O3 1.958093 1_655
Mn2 O6 1.966570 1_655
Mn2 O24 1.967015 1_555
Mn2 O1 1.967759 1_555
Mn2 O0 1.969932 1_555
Mn3 O4 1.941074 1_555
Mn3 O16 1.941074 1_555
Mn3 O8 1.972028 1_565
Mn3 O11 1.972028 1_555
Mn3 O13 1.973370 1_555
Mn3 O7 1.973370 1_565
Mn4 O5 1.931758 1_555
Mn4 O7 1.956428 1_555
Mn4 O8 1.957767 1_555
Mn4 O17 1.960613 1_656
Mn4 O14 1.966760 1_556
Mn4 O12 1.967905 1_655
Mn5 O15 1.931758 1_555
Mn5 O13 1.956428 1_555
Mn5 O11 1.957767 1_555
Mn5 O3 1.960613 1_555
Mn5 O10 1.966760 1_555
Mn5 O6 1.967905 1_555
Mn6 O0 1.940681 1_555
Mn6 O39 1.958093 1_545
Mn6 O9 1.966570 1_545
Mn6 O38 1.967007 1_555
Mn6 O2 1.967759 1_555
Mn6 O31 1.969932 1_555
Mn7 O12 1.931758 1_554
Mn7 O18 1.956428 1_555
Mn7 O14 1.957771 1_455
Mn7 O39 1.960613 1_555
Mn7 O37 1.966760 1_555
Mn7 O9 1.967905 1_555
Mn8 O3 1.941074 1_555
Mn8 O17 1.941074 1_555
Mn8 O14 1.972023 1_455
Mn8 O10 1.972023 1_555
Mn8 O18 1.973370 1_555
Mn8 O24 1.973370 1_455
Mn9 O33 1.931758 1_555
Mn9 O34 1.956424 1_555
Mn9 O19 1.957771 1_665
Mn9 O26 1.960613 1_655
Mn9 O20 1.966764 1_555
Mn9 O22 1.967905 1_555
Mn10 O22 1.931758 1_555
Mn10 O25 1.956437 1_555
Mn10 O20 1.957766 1_555
Mn10 O16 1.960613 1_555
Mn10 O11 1.966752 1_555
Mn10 O15 1.967905 1_555
Mn11 O21 1.940681 1_555
Mn11 O16 1.958093 1_555
Mn11 O15 1.966570 1_555
Mn11 O13 1.967015 1_555
Mn11 O28 1.967759 1_555
Mn11 O23 1.969932 1_556
Mn12 O23 1.940681 1_555
Mn12 O17 1.958093 1_555
Mn12 O12 1.966570 1_554
Mn12 O18 1.967015 1_555
Mn12 O21 1.967759 1_554
Mn12 O27 1.969932 1_555
Mn13 O6 1.931758 1_555
Mn13 O24 1.956428 1_455
Mn13 O10 1.957771 1_555
Mn13 O29 1.960613 1_445
Mn13 O19 1.966760 1_555
Mn13 O33 1.967905 1_445
Mn14 O31 1.940681 1_555
Mn14 O26 1.958093 1_655
Mn14 O22 1.966570 1_555
Mn14 O25 1.967010 1_555
Mn14 O0 1.967759 1_555
Mn14 O1 1.969932 1_555
Mn15 O28 1.940681 1_555
Mn15 O32 1.958093 1_555
Mn15 O35 1.966570 1_556
Mn15 O30 1.967010 1_555
Mn15 O27 1.967759 1_556
Mn15 O21 1.969932 1_555
Mn16 O26 1.941074 1_555
Mn16 O32 1.941074 1_565
Mn16 O20 1.972032 1_455
Mn16 O36 1.972032 1_555
Mn16 O30 1.973374 1_565
Mn16 O25 1.973374 1_455
Mn17 O27 1.940681 1_555
Mn17 O29 1.958093 1_555
Mn17 O33 1.966570 1_555
Mn17 O34 1.967007 1_555
Mn17 O23 1.967759 1_555
Mn17 O28 1.969932 1_554
Mn18 O9 1.931758 1_555
Mn18 O38 1.956424 1_565
Mn18 O37 1.957771 1_555
Mn18 O32 1.960613 1_564
Mn18 O36 1.966764 1_554
Mn18 O35 1.967905 1_565
Mn19 O39 1.941074 1_555
Mn19 O29 1.941074 1_455
Mn19 O37 1.972023 1_555
Mn19 O19 1.972023 1_565
Mn19 O38 1.973375 1_565
Mn19 O34 1.973375 1_455
