# generated using pymatgen
data_LiV2F7
_symmetry_space_group_name_H-M   'P 1'
_cell_length_a   5.40283400
_cell_length_b   7.45877800
_cell_length_c   11.71867000
_cell_angle_alpha   90.00000000
_cell_angle_beta   90.00000000
_cell_angle_gamma   90.00000000
_symmetry_Int_Tables_number   1
_chemical_formula_structural   LiV2F7
_chemical_formula_sum   'Li4 V8 F28'
_cell_volume   472.24528444
_cell_formula_units_Z   4
loop_
 _symmetry_equiv_pos_site_id
 _symmetry_equiv_pos_as_xyz
  1  'x, y, z'
loop_
 _atom_site_type_symbol
 _atom_site_label
 _atom_site_symmetry_multiplicity
 _atom_site_fract_x
 _atom_site_fract_y
 _atom_site_fract_z
 _atom_site_occupancy
  Li  Li0  1  0.38445500  0.25000000  0.65021700  1
  Li  Li1  1  0.88445500  0.75000000  0.84978300  1
  Li  Li2  1  0.11554500  0.25000000  0.15021700  1
  Li  Li3  1  0.61554500  0.75000000  0.34978300  1
  V  V0  1  0.87497200  0.47758200  0.62565600  1
  V  V1  1  0.87497200  0.02241800  0.62565600  1
  V  V2  1  0.37497200  0.52241800  0.87434400  1
  V  V3  1  0.37497200  0.97758200  0.87434400  1
  V  V4  1  0.62502800  0.47758200  0.12565600  1
  V  V5  1  0.62502800  0.02241800  0.12565600  1
  V  V6  1  0.12502800  0.52241800  0.37434400  1
  V  V7  1  0.12502800  0.97758200  0.37434400  1
  F  F0  1  0.20425800  0.02405600  0.54210300  1
  F  F1  1  0.20425800  0.47594400  0.54210300  1
  F  F2  1  0.68975900  0.25000000  0.56598000  1
  F  F3  1  0.82609400  0.75000000  0.62585600  1
  F  F4  1  0.03510900  0.25000000  0.68420200  1
  F  F5  1  0.55883600  0.45203500  0.72780700  1
  F  F6  1  0.55883600  0.04796500  0.72780700  1
  F  F7  1  0.05883600  0.54796500  0.77219300  1
  F  F8  1  0.05883600  0.95203500  0.77219300  1
  F  F9  1  0.53510900  0.75000000  0.81579800  1
  F  F10  1  0.32609400  0.25000000  0.87414400  1
  F  F11  1  0.18975900  0.75000000  0.93402000  1
  F  F12  1  0.70425800  0.97594400  0.95789700  1
  F  F13  1  0.70425800  0.52405600  0.95789700  1
  F  F14  1  0.29574200  0.02405600  0.04210300  1
  F  F15  1  0.29574200  0.47594400  0.04210300  1
  F  F16  1  0.81024100  0.25000000  0.06598000  1
  F  F17  1  0.67390600  0.75000000  0.12585600  1
  F  F18  1  0.46489100  0.25000000  0.18420200  1
  F  F19  1  0.94116400  0.45203500  0.22780700  1
  F  F20  1  0.94116400  0.04796500  0.22780700  1
  F  F21  1  0.44116400  0.54796500  0.27219300  1
  F  F22  1  0.44116400  0.95203500  0.27219300  1
  F  F23  1  0.96489100  0.75000000  0.31579800  1
  F  F24  1  0.17390600  0.25000000  0.37414400  1
  F  F25  1  0.31024100  0.75000000  0.43402000  1
  F  F26  1  0.79574200  0.97594400  0.45789700  1
  F  F27  1  0.79574200  0.52405600  0.45789700  1
loop_
_geom_bond_atom_site_label_1
_geom_bond_atom_site_label_2
_geom_bond_distance
_geom_bond_site_symmetry_2
F0 V1 2.030754 1_455
F0 V7 2.041620 1_545
F0 Li0 2.322313 1_555
F1 V0 2.030754 1_455
F1 V6 2.041620 1_555
F1 Li0 2.322313 1_555
F2 Li0 1.922324 1_555
F2 V1 2.090898 1_555
F2 V0 2.090898 1_555
F3 V0 2.048996 1_555
F3 V1 2.048996 1_565
F4 Li0 1.929018 1_555
F4 V1 2.025023 1_455
F4 V0 2.025023 1_455
F5 Li0 1.996306 1_555
F5 V2 2.052134 1_555
F5 V0 2.094436 1_555
F6 Li0 1.996306 1_555
F6 V3 2.052134 1_545
F6 V1 2.094436 1_555
F7 Li1 1.996306 1_455
F7 V0 2.052134 1_455
F7 V2 2.094436 1_555
F8 Li1 1.996306 1_455
F8 V1 2.052134 1_465
F8 V3 2.094436 1_555
F9 Li1 1.929018 1_555
F9 V2 2.025023 1_555
F9 V3 2.025023 1_555
F10 V3 2.048996 1_545
F10 V2 2.048996 1_555
F11 Li1 1.922324 1_455
F11 V3 2.090898 1_555
F11 V2 2.090898 1_555
F12 V3 2.030754 1_555
F12 V5 2.041620 1_566
F12 Li1 2.322313 1_555
F13 V2 2.030754 1_555
F13 V4 2.041620 1_556
F13 Li1 2.322313 1_555
F14 V5 2.030754 1_555
F14 V3 2.041620 1_544
F14 Li2 2.322313 1_555
F15 V4 2.030754 1_555
F15 V2 2.041620 1_554
F15 Li2 2.322313 1_555
F16 Li2 1.922324 1_655
F16 V4 2.090898 1_555
F16 V5 2.090898 1_555
F17 V4 2.048996 1_555
F17 V5 2.048996 1_565
F18 Li2 1.929018 1_555
F18 V4 2.025023 1_555
F18 V5 2.025023 1_555
F19 Li2 1.996306 1_655
F19 V6 2.052134 1_655
F19 V4 2.094436 1_555
F20 Li2 1.996306 1_655
F20 V7 2.052134 1_645
F20 V5 2.094436 1_555
F21 Li3 1.996306 1_555
F21 V4 2.052134 1_555
F21 V6 2.094436 1_555
F22 Li3 1.996306 1_555
F22 V5 2.052134 1_565
F22 V7 2.094436 1_555
F23 Li3 1.929018 1_555
F23 V6 2.025023 1_655
F23 V7 2.025023 1_655
F24 V7 2.048996 1_545
F24 V6 2.048996 1_555
F25 Li3 1.922324 1_555
F25 V6 2.090898 1_555
F25 V7 2.090898 1_555
F26 V7 2.030754 1_655
F26 V1 2.041620 1_565
F26 Li3 2.322313 1_555
F27 V6 2.030754 1_655
F27 V0 2.041620 1_555
F27 Li3 2.322313 1_555
