# generated using pymatgen
data_Sb(SO4)2
_symmetry_space_group_name_H-M   'P 1'
_cell_length_a   9.37954500
_cell_length_b   9.54857400
_cell_length_c   14.13305300
_cell_angle_alpha   90.00000000
_cell_angle_beta   90.00000000
_cell_angle_gamma   90.00000000
_symmetry_Int_Tables_number   1
_chemical_formula_structural   Sb(SO4)2
_chemical_formula_sum   'Sb8 S16 O64'
_cell_volume   1265.77431019
_cell_formula_units_Z   8
loop_
 _symmetry_equiv_pos_site_id
 _symmetry_equiv_pos_as_xyz
  1  'x, y, z'
loop_
 _atom_site_type_symbol
 _atom_site_label
 _atom_site_symmetry_multiplicity
 _atom_site_fract_x
 _atom_site_fract_y
 _atom_site_fract_z
 _atom_site_occupancy
  Sb  Sb0  1  0.89797900  0.85869700  0.12523000  1
  Sb  Sb1  1  0.60202100  0.85869700  0.62523000  1
  Sb  Sb2  1  0.39797900  0.64130300  0.12523000  1
  Sb  Sb3  1  0.10202100  0.64130300  0.62523000  1
  Sb  Sb4  1  0.89797900  0.35869700  0.37477000  1
  Sb  Sb5  1  0.60202100  0.35869700  0.87477000  1
  Sb  Sb6  1  0.39797900  0.14130300  0.37477000  1
  Sb  Sb7  1  0.10202100  0.14130300  0.87477000  1
  S  S0  1  0.93228000  0.92620100  0.72434300  1
  S  S1  1  0.56772000  0.92620100  0.22434300  1
  S  S2  1  0.06772000  0.57379900  0.22434300  1
  S  S3  1  0.43228000  0.57379900  0.72434300  1
  S  S4  1  0.56772000  0.42620100  0.27565700  1
  S  S5  1  0.93228000  0.42620100  0.77565700  1
  S  S6  1  0.43228000  0.07379900  0.77565700  1
  S  S7  1  0.06772000  0.07379900  0.27565700  1
  S  S8  1  0.31196900  0.83884500  0.48686600  1
  S  S9  1  0.18803100  0.83884500  0.98686600  1
  S  S10  1  0.81196900  0.66115500  0.48686600  1
  S  S11  1  0.68803100  0.66115500  0.98686600  1
  S  S12  1  0.31196900  0.33884500  0.01313400  1
  S  S13  1  0.18803100  0.33884500  0.51313400  1
  S  S14  1  0.81196900  0.16115500  0.01313400  1
  S  S15  1  0.68803100  0.16115500  0.51313400  1
  O  O0  1  0.30535000  0.99687600  0.47808500  1
  O  O1  1  0.19465000  0.99687600  0.97808500  1
  O  O2  1  0.00721600  0.98688500  0.34758800  1
  O  O3  1  0.49278400  0.98688500  0.84758800  1
  O  O4  1  0.53445900  0.97555400  0.32521900  1
  O  O5  1  0.96554100  0.97555400  0.82521900  1
  O  O6  1  0.77042300  0.91979500  0.72533800  1
  O  O7  1  0.72957700  0.91979500  0.22533800  1
  O  O8  1  0.27016600  0.81314000  0.07883700  1
  O  O9  1  0.22983400  0.81314000  0.57883700  1
  O  O10  1  0.03387500  0.79918100  0.00861800  1
  O  O11  1  0.46612500  0.79918100  0.50861800  1
  O  O12  1  0.98450100  0.77472700  0.72221500  1
  O  O13  1  0.51549900  0.77472700  0.22221500  1
  O  O14  1  0.25928300  0.76300500  0.40716500  1
  O  O15  1  0.24071700  0.76300500  0.90716500  1
  O  O16  1  0.75928300  0.73699500  0.40716500  1
  O  O17  1  0.74071700  0.73699500  0.90716500  1
  O  O18  1  0.01549900  0.72527300  0.22221500  1
  O  O19  1  0.48450100  0.72527300  0.72221500  1
  O  O20  1  0.96612500  0.70081900  0.50861800  1
  O  O21  1  0.53387500  0.70081900  0.00861800  1
  O  O22  1  0.77016600  0.68686000  0.07883700  1
  O  O23  1  0.72983400  0.68686000  0.57883700  1
  O  O24  1  0.22957700  0.58020500  0.22533800  1
  O  O25  1  0.27042300  0.58020500  0.72533800  1
  O  O26  1  0.46554100  0.52444600  0.82521900  1
  O  O27  1  0.03445900  0.52444600  0.32521900  1
  O  O28  1  0.50721600  0.51311500  0.34758800  1
  O  O29  1  0.99278400  0.51311500  0.84758800  1
  O  O30  1  0.80535000  0.50312400  0.47808500  1
  O  O31  1  0.69465000  0.50312400  0.97808500  1
  O  O32  1  0.30535000  0.49687600  0.02191500  1
  O  O33  1  0.19465000  0.49687600  0.52191500  1
  O  O34  1  0.49278400  0.48688500  0.65241200  1
  O  O35  1  0.00721600  0.48688500  0.15241200  1
  O  O36  1  0.53445900  0.47555400  0.17478100  1
  O  O37  1  0.96554100  0.47555400  0.67478100  1
  O  O38  1  0.72957700  0.41979500  0.27466200  1
  O  O39  1  0.77042300  0.41979500  0.77466200  1
  O  O40  1  0.27016600  0.31314000  0.42116300  1
  O  O41  1  0.22983400  0.31314000  0.92116300  1
  O  O42  1  0.46612500  0.29918100  0.99138200  1
  O  O43  1  0.03387500  0.29918100  0.49138200  1
  O  O44  1  0.51549900  0.27472700  0.27778500  1
  O  O45  1  0.98450100  0.27472700  0.77778500  1
  O  O46  1  0.25928300  0.26300500  0.09283500  1
  O  O47  1  0.24071700  0.26300500  0.59283500  1
  O  O48  1  0.75928300  0.23699500  0.09283500  1
  O  O49  1  0.74071700  0.23699500  0.59283500  1
  O  O50  1  0.48450100  0.22527300  0.77778500  1
  O  O51  1  0.01549900  0.22527300  0.27778500  1
  O  O52  1  0.53387500  0.20081900  0.49138200  1
  O  O53  1  0.96612500  0.20081900  0.99138200  1
  O  O54  1  0.77016600  0.18686000  0.42116300  1
  O  O55  1  0.72983400  0.18686000  0.92116300  1
  O  O56  1  0.27042300  0.08020500  0.77466200  1
  O  O57  1  0.22957700  0.08020500  0.27466200  1
  O  O58  1  0.46554100  0.02444600  0.67478100  1
  O  O59  1  0.03445900  0.02444600  0.17478100  1
  O  O60  1  0.99278400  0.01311500  0.65241200  1
  O  O61  1  0.50721600  0.01311500  0.15241200  1
  O  O62  1  0.80535000  0.00312400  0.02191500  1
  O  O63  1  0.69465000  0.00312400  0.52191500  1
loop_
_geom_bond_atom_site_label_1
_geom_bond_atom_site_label_2
_geom_bond_distance
_geom_bond_site_symmetry_2
O0 S8 1.515338 1_555
O0 Sb6 2.188319 1_565
O1 S9 1.515338 1_555
O1 Sb7 2.188319 1_565
O2 S7 1.429784 1_565
O3 S6 1.429784 1_565
O4 S1 1.533618 1_555
O4 Sb6 2.152666 1_565
O5 S0 1.533618 1_555
O5 Sb7 2.152666 1_665
O6 S0 1.519442 1_555
O6 Sb1 2.199325 1_555
O7 S1 1.519442 1_555
O7 Sb0 2.199325 1_555
O8 S9 1.530785 1_554
O8 Sb2 2.135256 1_555
O9 S8 1.530785 1_555
O9 Sb3 2.135256 1_555
O10 S9 1.525979 1_554
O10 Sb0 2.159595 1_455
O11 S8 1.525979 1_555
O11 Sb1 2.159595 1_555
O12 S0 1.527343 1_555
O12 Sb3 2.171850 1_655
O13 S1 1.527343 1_555
O13 Sb2 2.171850 1_555
O14 S8 1.427388 1_555
O15 S9 1.427388 1_555
O16 S10 1.427388 1_555
O17 S11 1.427388 1_555
O18 S2 1.527343 1_555
O18 Sb0 2.171850 1_455
O19 S3 1.527343 1_555
O19 Sb1 2.171850 1_555
O20 S10 1.525979 1_555
O20 Sb3 2.159595 1_655
O21 S11 1.525979 1_554
O21 Sb2 2.159595 1_555
O22 S11 1.530785 1_554
O22 Sb0 2.135256 1_555
O23 S10 1.530785 1_555
O23 Sb1 2.135256 1_555
O24 S2 1.519442 1_555
O24 Sb2 2.199325 1_555
O25 S3 1.519442 1_555
O25 Sb3 2.199325 1_555
O26 S3 1.533618 1_555
O26 Sb5 2.152666 1_555
O27 S2 1.533618 1_555
O27 Sb4 2.152666 1_455
O28 S4 1.429784 1_555
O29 S5 1.429784 1_555
O30 S10 1.515338 1_555
O30 Sb4 2.188319 1_555
O31 S11 1.515338 1_555
O31 Sb5 2.188319 1_555
O32 S12 1.515338 1_555
O32 Sb2 2.188319 1_555
O33 S13 1.515338 1_555
O33 Sb3 2.188319 1_555
O34 S3 1.429784 1_555
O35 S2 1.429784 1_555
O36 S4 1.533618 1_555
O36 Sb2 2.152666 1_555
O37 S5 1.533618 1_555
O37 Sb3 2.152666 1_655
O38 S4 1.519442 1_555
O38 Sb4 2.199325 1_555
O39 S5 1.519442 1_555
O39 Sb5 2.199325 1_555
O40 S13 1.530785 1_555
O40 Sb6 2.135256 1_555
O41 S12 1.530785 1_556
O41 Sb7 2.135256 1_555
O42 S12 1.525979 1_556
O42 Sb5 2.159595 1_555
O43 S13 1.525979 1_555
O43 Sb4 2.159595 1_455
O44 S4 1.527343 1_555
O44 Sb6 2.171850 1_555
O45 S5 1.527343 1_555
O45 Sb7 2.171850 1_655
O46 S12 1.427388 1_555
O47 S13 1.427388 1_555
O48 S14 1.427388 1_555
O49 S15 1.427388 1_555
O50 S6 1.527343 1_555
O50 Sb5 2.171850 1_555
O51 S7 1.527343 1_555
O51 Sb4 2.171850 1_455
O52 S15 1.525979 1_555
O52 Sb6 2.159595 1_555
O53 S14 1.525979 1_556
O53 Sb7 2.159595 1_655
O54 S15 1.530785 1_555
O54 Sb4 2.135256 1_555
O55 S14 1.530785 1_556
O55 Sb5 2.135256 1_555
O56 S6 1.519442 1_555
O56 Sb7 2.199325 1_555
O57 S7 1.519442 1_555
O57 Sb6 2.199325 1_555
O58 S6 1.533618 1_555
O58 Sb1 2.152666 1_545
O59 S7 1.533618 1_555
O59 Sb0 2.152666 1_445
O60 S0 1.429784 1_545
O61 S1 1.429784 1_545
O62 S14 1.515338 1_555
O62 Sb0 2.188319 1_545
O63 S15 1.515338 1_555
O63 Sb1 2.188319 1_545
