# generated using pymatgen
data_Li8Mn3Fe5(BO3)8
_symmetry_space_group_name_H-M   'P 1'
_cell_length_a   5.24509100
_cell_length_b   6.03815793
_cell_length_c   16.14375466
_cell_angle_alpha   81.61021389
_cell_angle_beta   89.28654173
_cell_angle_gamma   88.91434221
_symmetry_Int_Tables_number   1
_chemical_formula_structural   Li8Mn3Fe5(BO3)8
_chemical_formula_sum   'Li8 Mn3 Fe5 B8 O24'
_cell_volume   505.69718295
_cell_formula_units_Z   1
loop_
 _symmetry_equiv_pos_site_id
 _symmetry_equiv_pos_as_xyz
  1  'x, y, z'
loop_
 _atom_site_type_symbol
 _atom_site_label
 _atom_site_symmetry_multiplicity
 _atom_site_fract_x
 _atom_site_fract_y
 _atom_site_fract_z
 _atom_site_occupancy
  Li  Li0  1  0.84750300  0.06366700  0.38966900  1
  Li  Li1  1  0.15228800  0.43508700  0.10908500  1
  Li  Li2  1  0.65075200  0.18668100  0.86057400  1
  Li  Li3  1  0.34940800  0.31278700  0.64034700  1
  Li  Li4  1  0.65173000  0.68503200  0.35888900  1
  Li  Li5  1  0.34764300  0.81475300  0.14086800  1
  Li  Li6  1  0.84831300  0.56507000  0.89050100  1
  Li  Li7  1  0.15152700  0.93547000  0.61013400  1
  Mn  Mn0  1  0.16766500  0.52484700  0.29076200  1
  Mn  Mn1  1  0.66845300  0.77022600  0.54075100  1
  Mn  Mn2  1  0.33191700  0.72746100  0.95887300  1
  Fe  Fe0  1  0.66298900  0.27431400  0.04184700  1
  Fe  Fe1  1  0.16245400  0.02902300  0.78809500  1
  Fe  Fe2  1  0.33934500  0.22352900  0.45916500  1
  Fe  Fe3  1  0.82810900  0.47264900  0.71249000  1
  Fe  Fe4  1  0.83567300  0.97481200  0.20790000  1
  B  B0  1  0.32835600  0.03684700  0.29776300  1
  B  B1  1  0.83231800  0.28612100  0.54752100  1
  B  B2  1  0.66965000  0.46327700  0.20177900  1
  B  B3  1  0.17138300  0.21429300  0.95200800  1
  B  B4  1  0.83084400  0.78667900  0.04797300  1
  B  B5  1  0.32638600  0.53756500  0.79557900  1
  B  B6  1  0.17100200  0.71331900  0.45302200  1
  B  B7  1  0.67087700  0.96248000  0.70401900  1
  O  O0  1  0.58741500  0.01297600  0.30822500  1
  O  O1  1  0.18267000  0.16832300  0.34655800  1
  O  O2  1  0.70832000  0.17505500  0.48982500  1
  O  O3  1  0.29777300  0.32747600  0.00877900  1
  O  O4  1  0.79148800  0.07863500  0.76105700  1
  O  O5  1  0.81901200  0.32935100  0.15470800  1
  O  O6  1  0.31609700  0.08321700  0.90335700  1
  O  O7  1  0.09133700  0.26192100  0.55892300  1
  O  O8  1  0.41026500  0.48584100  0.18876000  1
  O  O9  1  0.91201000  0.23868300  0.94189300  1
  O  O10  1  0.68638100  0.41586000  0.59648500  1
  O  O11  1  0.20764200  0.41945300  0.73951700  1
  O  O12  1  0.78694800  0.57989800  0.25843300  1
  O  O13  1  0.32115700  0.57893200  0.40698400  1
  O  O14  1  0.09001000  0.76412800  0.06110500  1
  O  O15  1  0.58822500  0.51468100  0.80800900  1
  O  O16  1  0.91170000  0.73626800  0.43874400  1
  O  O17  1  0.68150100  0.91995400  0.09541500  1
  O  O18  1  0.18143200  0.67121300  0.84268800  1
  O  O19  1  0.20240100  0.92410900  0.24106400  1
  O  O20  1  0.71355200  0.67176900  0.99080000  1
  O  O21  1  0.28698700  0.83061300  0.50987800  1
  O  O22  1  0.81764300  0.82956000  0.65699300  1
  O  O23  1  0.41145400  0.98609900  0.69218900  1
loop_
_geom_bond_atom_site_label_1
_geom_bond_atom_site_label_2
_geom_bond_distance
_geom_bond_site_symmetry_2
Li0 O1 1.964052 1_655
Li0 O0 1.965031 1_555
Li0 O2 1.966975 1_555
Li0 O16 2.042917 1_545
Li1 O8 1.937361 1_555
Li1 O5 1.969473 1_455
Li1 O3 1.970827 1_555
Li1 O14 2.046138 1_555
Li2 O4 1.951843 1_555
Li2 O6 1.958019 1_555
Li2 O9 1.970076 1_555
Li2 O15 2.059610 1_555
Li3 O11 1.945239 1_555
Li3 O7 1.957637 1_555
Li3 O10 1.973463 1_555
Li3 O23 2.048945 1_545
Li4 O12 1.946984 1_555
Li4 O16 1.947589 1_555
Li4 O13 1.970546 1_555
Li4 O0 2.052513 1_565
Li5 O14 1.936861 1_555
Li5 O17 1.970401 1_555
Li5 O19 1.973505 1_555
Li5 O8 2.045352 1_555
Li6 O20 1.948119 1_555
Li6 O15 1.976434 1_555
Li6 O18 1.980883 1_655
Li6 O9 2.046639 1_555
Li7 O21 1.943862 1_555
Li7 O23 1.971259 1_555
Li7 O22 1.978986 1_455
Li7 O7 2.043530 1_565
Mn0 O12 2.078618 1_455
Mn0 O8 2.106150 1_555
Mn0 O13 2.121683 1_555
Mn0 O1 2.209383 1_555
Mn0 O19 2.436691 1_555
Mn1 O21 2.080580 1_555
Mn1 O16 2.101906 1_555
Mn1 O22 2.122648 1_555
Mn1 O10 2.197606 1_555
Mn1 O2 2.474566 1_565
Mn2 O20 2.082113 1_555
Mn2 O14 2.103952 1_556
Mn2 O18 2.118818 1_555
Mn2 O6 2.204042 1_565
Mn2 O3 2.441150 1_556
Fe0 O3 2.002418 1_555
Fe0 O5 2.079412 1_555
Fe0 O9 2.096250 1_554
Fe0 O17 2.188557 1_545
Fe0 O20 2.439366 1_554
Fe1 O4 2.006768 1_455
Fe1 O23 2.055232 1_545
Fe1 O6 2.108071 1_555
Fe1 O18 2.211981 1_545
Fe1 O11 2.388710 1_555
Fe2 O2 2.009028 1_555
Fe2 O1 2.077404 1_555
Fe2 O7 2.094000 1_555
Fe2 O13 2.188761 1_555
Fe2 O21 2.413850 1_545
Fe3 O15 2.019696 1_555
Fe3 O11 2.052529 1_655
Fe3 O10 2.099793 1_555
Fe3 O22 2.209842 1_555
Fe3 O4 2.404386 1_555
Fe4 O19 2.008932 1_655
Fe4 O17 2.069657 1_555
Fe4 O0 2.101632 1_565
Fe4 O5 2.187746 1_565
Fe4 O12 2.422222 1_555
B0 O0 1.373607 1_555
B0 O19 1.397001 1_545
B0 O1 1.406831 1_555
B1 O7 1.375436 1_655
B1 O2 1.397928 1_555
B1 O10 1.402623 1_555
B2 O8 1.380374 1_555
B2 O12 1.388979 1_555
B2 O5 1.409122 1_555
B3 O9 1.374794 1_455
B3 O3 1.400562 1_556
B3 O6 1.401142 1_555
B4 O14 1.379512 1_655
B4 O20 1.388885 1_554
B4 O17 1.410250 1_555
B5 O11 1.390998 1_555
B5 O15 1.391792 1_555
B5 O18 1.396105 1_555
B6 O16 1.383274 1_455
B6 O21 1.390724 1_555
B6 O13 1.402964 1_555
B7 O23 1.378216 1_555
B7 O22 1.397474 1_555
B7 O4 1.399920 1_565
