# generated using pymatgen
data_LiMn3(OF3)2
_symmetry_space_group_name_H-M   'P 1'
_cell_length_a   10.29672017
_cell_length_b   4.77001900
_cell_length_c   5.62234608
_cell_angle_alpha   90.00009970
_cell_angle_beta   95.17737583
_cell_angle_gamma   90.00020895
_symmetry_Int_Tables_number   1
_chemical_formula_structural   LiMn3(OF3)2
_chemical_formula_sum   'Li2 Mn6 O4 F12'
_cell_volume   275.01798479
_cell_formula_units_Z   2
loop_
 _symmetry_equiv_pos_site_id
 _symmetry_equiv_pos_as_xyz
  1  'x, y, z'
loop_
 _atom_site_type_symbol
 _atom_site_label
 _atom_site_symmetry_multiplicity
 _atom_site_fract_x
 _atom_site_fract_y
 _atom_site_fract_z
 _atom_site_occupancy
  Li  Li0  1  0.99998100  0.99997300  0.99999300  1
  Li  Li1  1  0.50002900  0.49998500  0.00000800  1
  Mn  Mn0  1  0.00003300  0.49996500  0.50001600  1
  Mn  Mn1  1  0.24942000  0.97955200  0.73478600  1
  Mn  Mn2  1  0.25057400  0.47960500  0.26523600  1
  Mn  Mn3  1  0.49993100  0.00012900  0.49996800  1
  Mn  Mn4  1  0.74946000  0.52043900  0.73465300  1
  Mn  Mn5  1  0.75053500  0.02040800  0.26535800  1
  O  O0  1  0.17081000  0.67055700  0.50445500  1
  O  O1  1  0.32918000  0.17060300  0.49553100  1
  O  O2  1  0.67068100  0.82952300  0.50446100  1
  O  O3  1  0.82929800  0.32948500  0.49554300  1
  F  F0  1  0.07912000  0.18801200  0.71396100  1
  F  F1  1  0.07523500  0.29689600  0.21431500  1
  F  F2  1  0.18034100  0.79233000  0.00192200  1
  F  F3  1  0.31967500  0.29232300  0.99805700  1
  F  F4  1  0.42478300  0.79689900  0.78567300  1
  F  F5  1  0.42089100  0.68805000  0.28605600  1
  F  F6  1  0.57907100  0.31195600  0.71395700  1
  F  F7  1  0.57519000  0.20307000  0.21435400  1
  F  F8  1  0.68033700  0.70763400  0.00193500  1
  F  F9  1  0.81966900  0.20762500  0.99805800  1
  F  F10  1  0.92482300  0.70306500  0.78564000  1
  F  F11  1  0.92093400  0.81191600  0.28606200  1
loop_
_geom_bond_atom_site_label_1
_geom_bond_atom_site_label_2
_geom_bond_distance
_geom_bond_site_symmetry_2
Mn0 O3 1.935078 1_455
Mn0 O0 1.935708 1_555
Mn1 O1 1.874527 1_565
Mn1 O0 2.077358 1_555
Mn2 O0 1.874166 1_555
Mn2 O1 2.077257 1_555
Mn3 O1 1.935235 1_555
Mn3 O2 1.935468 1_545
Mn4 O3 1.874090 1_555
Mn4 O2 2.077788 1_555
Mn5 O2 1.873983 1_545
Mn5 O3 2.077679 1_555
F0 Mn1 2.010047 1_545
F0 Mn0 2.036537 1_555
F0 Li0 2.071535 1_445
F1 Li0 1.972279 1_444
F1 Mn2 2.001937 1_555
F1 Mn0 2.083885 1_555
F2 Mn1 1.937027 1_554
F2 Li0 2.103899 1_454
F2 Mn2 2.178683 1_555
F3 Mn2 1.937454 1_556
F3 Li1 2.103871 1_556
F3 Mn1 2.178730 1_545
F4 Li1 1.972270 1_556
F4 Mn1 2.002035 1_555
F4 Mn3 2.084015 1_565
F5 Mn2 2.010157 1_555
F5 Mn3 2.036699 1_565
F5 Li1 2.071657 1_555
F6 Mn4 2.010904 1_555
F6 Mn3 2.036417 1_555
F6 Li1 2.071139 1_556
F7 Li1 1.972014 1_555
F7 Mn5 2.001929 1_555
F7 Mn3 2.083467 1_555
F8 Mn4 1.937830 1_554
F8 Li1 2.103434 1_555
F8 Mn5 2.179136 1_565
F9 Mn5 1.938010 1_556
F9 Li0 2.103481 1_545
F9 Mn4 2.179239 1_555
F10 Li0 1.971995 1_555
F10 Mn4 2.002007 1_555
F10 Mn0 2.083642 1_655
F11 Mn5 2.011020 1_565
F11 Mn0 2.036601 1_655
F11 Li0 2.071302 1_554
