# generated using pymatgen
data_Li3Mn4(BO3)4
_symmetry_space_group_name_H-M   'P 1'
_cell_length_a   9.08358300
_cell_length_b   9.12316103
_cell_length_c   11.53110411
_cell_angle_alpha   68.37885113
_cell_angle_beta   68.11349971
_cell_angle_gamma   60.16665574
_symmetry_Int_Tables_number   1
_chemical_formula_structural   Li3Mn4(BO3)4
_chemical_formula_sum   'Li9 Mn12 B12 O36'
_cell_volume   749.06032850
_cell_formula_units_Z   3
loop_
 _symmetry_equiv_pos_site_id
 _symmetry_equiv_pos_as_xyz
  1  'x, y, z'
loop_
 _atom_site_type_symbol
 _atom_site_label
 _atom_site_symmetry_multiplicity
 _atom_site_fract_x
 _atom_site_fract_y
 _atom_site_fract_z
 _atom_site_occupancy
  Li  Li0  1  0.32959700  0.36621700  0.82794500  1
  Li  Li1  1  0.18731300  0.18152600  0.59780400  1
  Li  Li2  1  0.18388900  0.13527100  0.34898800  1
  Li  Li3  1  0.00578000  0.00020300  0.83031000  1
  Li  Li4  1  0.84949600  0.86987900  0.58288300  1
  Li  Li5  1  0.85892800  0.82575700  0.32730600  1
  Li  Li6  1  0.63265800  0.68905100  0.84587800  1
  Li  Li7  1  0.67836900  0.68723200  0.09793900  1
  Li  Li8  1  0.50804000  0.49567000  0.32186100  1
  Mn  Mn0  1  0.82457700  0.16432300  0.36224600  1
  Mn  Mn1  1  0.68157500  0.31218100  0.86780700  1
  Mn  Mn2  1  0.69197900  0.01858200  0.12256200  1
  Mn  Mn3  1  0.50919000  0.21100800  0.61640300  1
  Mn  Mn4  1  0.15844800  0.46855900  0.36633700  1
  Mn  Mn5  1  0.96747000  0.66349500  0.87315800  1
  Mn  Mn6  1  0.03647100  0.33358600  0.11630600  1
  Mn  Mn7  1  0.82408100  0.53160900  0.61227600  1
  Mn  Mn8  1  0.51747000  0.80491800  0.37547200  1
  Mn  Mn9  1  0.30601600  0.01813900  0.87652400  1
  Mn  Mn10  1  0.30836200  0.69654100  0.11613300  1
  Mn  Mn11  1  0.20649300  0.80167200  0.62124400  1
  B  B0  1  0.48970500  0.14902500  0.38063200  1
  B  B1  1  0.32616400  0.65328100  0.86502400  1
  B  B2  1  0.36687800  0.98648600  0.13750100  1
  B  B3  1  0.15822800  0.52449100  0.62563500  1
  B  B4  1  0.15490300  0.80637000  0.37654800  1
  B  B5  1  0.98091600  0.33289600  0.86787300  1
  B  B6  1  0.01569800  0.66785900  0.12489900  1
  B  B7  1  0.85981900  0.16218700  0.63224600  1
  B  B8  1  0.82682400  0.48067100  0.36917100  1
  B  B9  1  0.64239100  0.99915800  0.87684500  1
  B  B10  1  0.68204200  0.36201200  0.11183000  1
  B  B11  1  0.49928300  0.87289300  0.63064700  1
  O  O0  1  0.74045000  0.05740800  0.90517300  1
  O  O1  1  0.77774300  0.11388600  0.58226300  1
  O  O2  1  0.48997700  0.11860100  0.83756600  1
  O  O3  1  0.55030400  0.24391000  0.40802900  1
  O  O4  1  0.43020600  0.48814700  0.85593900  1
  O  O5  1  0.64462300  0.27838300  0.05160800  1
  O  O6  1  0.39453000  0.02896700  0.66810500  1
  O  O7  1  0.32194800  0.45052900  0.64364500  1
  O  O8  1  0.31225900  0.20357300  0.40182600  1
  O  O9  1  0.17284800  0.74940600  0.81570700  1
  O  O10  1  0.25481300  0.66786100  0.31352300  1
  O  O11  1  0.07025500  0.39197100  0.90386300  1
  O  O12  1  0.05030900  0.16462700  0.86079700  1
  O  O13  1  0.25786100  0.14215600  0.16683400  1
  O  O14  1  0.09604600  0.45160600  0.57879300  1
  O  O15  1  0.04674000  0.69146700  0.65585400  1
  O  O16  1  0.18094700  0.55521600  0.15375600  1
  O  O17  1  0.03161700  0.06494000  0.63783100  1
  O  O18  1  0.97839800  0.89285600  0.39097300  1
  O  O19  1  0.81770500  0.45204000  0.83784900  1
  O  O20  1  0.94966500  0.32074100  0.34164100  1
  O  O21  1  0.88077100  0.57571500  0.40552800  1
  O  O22  1  0.70342700  0.82266600  0.89272900  1
  O  O23  1  0.93764500  0.83212700  0.14252400  1
  O  O24  1  0.94077300  0.60566500  0.07888400  1
  O  O25  1  0.76259400  0.31562100  0.68088100  1
  O  O26  1  0.82887900  0.26663900  0.16137100  1
  O  O27  1  0.66817700  0.77893500  0.64501700  1
  O  O28  1  0.65764300  0.54912100  0.36253100  1
  O  O29  1  0.61023500  0.99944500  0.33456300  1
  O  O30  1  0.36232000  0.74317600  0.91956300  1
  O  O31  1  0.57155000  0.52819800  0.12666600  1
  O  O32  1  0.43335900  0.80737600  0.57860000  1
  O  O33  1  0.52803200  0.88881500  0.17047300  1
  O  O34  1  0.24365900  0.84920700  0.42796400  1
  O  O35  1  0.31857500  0.91834200  0.07391000  1
loop_
_geom_bond_atom_site_label_1
_geom_bond_atom_site_label_2
_geom_bond_distance
_geom_bond_site_symmetry_2
Li0 O4 1.916463 1_555
Li0 O2 1.974660 1_555
Li0 O7 1.991268 1_555
Li0 O11 2.105827 1_555
Li1 O6 1.958778 1_555
Li1 O17 1.998192 1_555
Li1 O8 2.101300 1_555
Li1 O14 2.124048 1_555
Li2 O8 1.910919 1_555
Li2 O13 1.939026 1_555
Li2 O20 1.960559 1_455
Li2 O34 2.267721 1_545
Li3 O12 1.906756 1_555
Li3 O17 2.028203 1_555
Li3 O9 2.050666 1_545
Li3 O0 2.087045 1_455
Li4 O15 1.944368 1_655
Li4 O1 1.982066 1_565
Li4 O27 1.989025 1_555
Li4 O18 2.069443 1_555
Li5 O18 1.917692 1_555
Li5 O23 1.966960 1_555
Li5 O29 2.004075 1_555
Li5 O21 2.055112 1_555
Li6 O22 1.927415 1_555
Li6 O19 1.981091 1_555
Li6 O27 2.108918 1_555
Li6 O30 2.131456 1_555
Li7 O33 1.931282 1_555
Li7 O31 1.990777 1_555
Li7 O24 2.061233 1_555
Li7 O22 2.213931 1_554
Li8 O28 1.899319 1_555
Li8 O3 2.033568 1_555
Li8 O31 2.048675 1_555
Li8 O10 2.055809 1_555
Mn0 O18 2.119722 1_545
Mn0 O3 2.124842 1_555
Mn0 O20 2.132148 1_555
Mn0 O26 2.147926 1_555
Mn0 O1 2.314969 1_555
Mn1 O5 1.946977 1_556
Mn1 O25 1.994769 1_555
Mn1 O0 2.017715 1_555
Mn1 O19 2.050118 1_555
Mn1 O4 2.057545 1_555
Mn2 O23 2.060069 1_545
Mn2 O5 2.071519 1_555
Mn2 O33 2.140886 1_545
Mn2 O29 2.240333 1_545
Mn2 O0 2.298049 1_554
Mn3 O7 2.043571 1_555
Mn3 O1 2.069150 1_555
Mn3 O6 2.174134 1_555
Mn3 O3 2.216745 1_555
Mn3 O2 2.339903 1_555
Mn4 O8 2.073756 1_555
Mn4 O21 2.131742 1_455
Mn4 O10 2.193923 1_555
Mn4 O16 2.243824 1_555
Mn4 O14 2.262675 1_555
Mn5 O22 2.069992 1_555
Mn5 O11 2.105313 1_655
Mn5 O9 2.164325 1_655
Mn5 O24 2.177336 1_556
Mn5 O15 2.286666 1_655
Mn6 O13 2.015685 1_555
Mn6 O26 2.092923 1_455
Mn6 O24 2.108725 1_455
Mn6 O11 2.240428 1_554
Mn6 O20 2.393120 1_455
Mn7 O27 2.071047 1_555
Mn7 O25 2.106527 1_555
Mn7 O14 2.118325 1_655
Mn7 O21 2.166715 1_555
Mn7 O19 2.415389 1_555
Mn8 O28 2.061090 1_555
Mn8 O29 2.157946 1_555
Mn8 O33 2.180262 1_555
Mn8 O32 2.181291 1_555
Mn8 O34 2.184875 1_555
Mn9 O12 2.064207 1_555
Mn9 O2 2.120120 1_555
Mn9 O35 2.141399 1_546
Mn9 O30 2.189952 1_545
Mn9 O6 2.212584 1_555
Mn10 O35 1.940974 1_555
Mn10 O16 1.971877 1_555
Mn10 O30 2.056104 1_554
Mn10 O10 2.085218 1_555
Mn10 O31 2.124795 1_555
Mn11 O32 1.955398 1_555
Mn11 O15 2.000022 1_555
Mn11 O34 2.035123 1_555
Mn11 O9 2.048199 1_555
Mn11 O17 2.155152 1_565
B0 O8 1.379595 1_555
B0 O29 1.399005 1_545
B0 O3 1.399085 1_555
B1 O4 1.341526 1_555
B1 O30 1.406432 1_555
B1 O9 1.428194 1_555
B2 O13 1.347964 1_565
B2 O33 1.396026 1_555
B2 O35 1.401397 1_555
B3 O7 1.355971 1_555
B3 O14 1.385194 1_555
B3 O15 1.435534 1_555
B4 O18 1.363826 1_455
B4 O10 1.411594 1_555
B4 O34 1.412389 1_555
B5 O12 1.360822 1_655
B5 O11 1.404398 1_655
B5 O19 1.414666 1_555
B6 O23 1.360060 1_455
B6 O24 1.393560 1_455
B6 O16 1.416177 1_555
B7 O17 1.371806 1_655
B7 O1 1.384414 1_555
B7 O25 1.425895 1_555
B8 O28 1.362036 1_555
B8 O20 1.390007 1_555
B8 O21 1.418300 1_555
B9 O22 1.379755 1_555
B9 O2 1.382777 1_565
B9 O0 1.413620 1_565
B10 O31 1.372735 1_555
B10 O26 1.381857 1_555
B10 O5 1.415735 1_555
B11 O27 1.375610 1_555
B11 O6 1.384995 1_565
B11 O32 1.401600 1_555
