# generated using pymatgen
data_Na5Bi2P(CO4)4
_symmetry_space_group_name_H-M   'P 1'
_cell_length_a   10.45678648
_cell_length_b   10.42886707
_cell_length_c   10.31305610
_cell_angle_alpha   60.54520208
_cell_angle_beta   60.27543841
_cell_angle_gamma   59.17935951
_symmetry_Int_Tables_number   1
_chemical_formula_structural   Na5Bi2P(CO4)4
_chemical_formula_sum   'Na10 Bi4 P2 C8 O32'
_cell_volume   795.00571390
_cell_formula_units_Z   2
loop_
 _symmetry_equiv_pos_site_id
 _symmetry_equiv_pos_as_xyz
  1  'x, y, z'
loop_
 _atom_site_type_symbol
 _atom_site_label
 _atom_site_symmetry_multiplicity
 _atom_site_fract_x
 _atom_site_fract_y
 _atom_site_fract_z
 _atom_site_occupancy
  Na  Na0  1  0.81923800  0.42486900  0.56489000  1
  Na  Na1  1  0.68576500  0.06086000  0.82468600  1
  Na  Na2  1  0.05899700  0.68511000  0.82513100  1
  Na  Na3  1  0.06086000  0.68576500  0.42868900  1
  Na  Na4  1  0.82131100  0.42531400  0.18914000  1
  Na  Na5  1  0.42486900  0.81923800  0.19100300  1
  Na  Na6  1  0.42531400  0.82131100  0.56423500  1
  Na  Na7  1  0.68209300  0.68209300  0.81790700  1
  Na  Na8  1  0.68511000  0.05899700  0.43076200  1
  Na  Na9  1  0.43209300  0.43209300  0.56790700  1
  Bi  Bi0  1  0.75364700  0.24131700  0.00363200  1
  Bi  Bi1  1  0.24636800  0.24859700  0.49635300  1
  Bi  Bi2  1  0.24131700  0.75364700  0.00140300  1
  Bi  Bi3  1  0.24859700  0.24636800  0.00868300  1
  P  P0  1  0.87167900  0.87167900  0.62832100  1
  P  P1  1  0.62167900  0.62167900  0.37832100  1
  C  C0  1  0.47776700  0.08418900  0.21744800  1
  C  C1  1  0.08418900  0.47776700  0.22059600  1
  C  C2  1  0.47227100  0.47039300  0.83411500  1
  C  C3  1  0.47039300  0.47227100  0.22322100  1
  C  C4  1  0.03255200  0.02940400  0.77223300  1
  C  C5  1  0.02940400  0.03255200  0.16581100  1
  C  C6  1  0.02677900  0.41588500  0.77960700  1
  C  C7  1  0.41588500  0.02677900  0.77772900  1
  O  O0  1  0.90162900  0.15042900  0.77892200  1
  O  O1  1  0.36172600  0.07466100  0.21182100  1
  O  O2  1  0.07466100  0.36172600  0.35179200  1
  O  O3  1  0.03746300  0.41717100  0.64689300  1
  O  O4  1  0.08097900  0.47107800  0.09957100  1
  O  O5  1  0.81004700  0.80877900  0.56711400  1
  O  O6  1  0.80877900  0.81004700  0.81406000  1
  O  O7  1  0.59874500  0.09843000  0.09108900  1
  O  O8  1  0.09843000  0.59874500  0.21173600  1
  O  O9  1  0.35273900  0.46206500  0.35341400  1
  O  O10  1  0.46206500  0.35273900  0.83178100  1
  O  O11  1  0.80113000  0.05432100  0.57207600  1
  O  O12  1  0.05432100  0.80113000  0.57247300  1
  O  O13  1  0.03817900  0.89820800  0.88827400  1
  O  O14  1  0.89820800  0.03817900  0.17533900  1
  O  O15  1  0.35152700  0.60310700  0.83282900  1
  O  O16  1  0.15042900  0.90162800  0.16902100  1
  O  O17  1  0.45846600  0.60133700  0.10402900  1
  O  O18  1  0.60133700  0.45846600  0.83616800  1
  O  O19  1  0.43594000  0.68288600  0.44122100  1
  O  O20  1  0.68288600  0.43594000  0.43995300  1
  O  O21  1  0.03826400  0.15891100  0.15157000  1
  O  O22  1  0.15891100  0.03826400  0.65125500  1
  O  O23  1  0.89658600  0.41821900  0.89726100  1
  O  O24  1  0.41821900  0.89658600  0.78793500  1
  O  O25  1  0.67752700  0.67792400  0.19567900  1
  O  O26  1  0.67792400  0.67752700  0.44887000  1
  O  O27  1  0.41717100  0.03746300  0.89847300  1
  O  O28  1  0.47107800  0.08097900  0.34837200  1
  O  O29  1  0.41383200  0.14597100  0.64866300  1
  O  O30  1  0.14597100  0.41383200  0.79153400  1
  O  O31  1  0.60310700  0.35152700  0.21253700  1
loop_
_geom_bond_atom_site_label_1
_geom_bond_atom_site_label_2
_geom_bond_distance
_geom_bond_site_symmetry_2
Na0 O20 2.283253 1_555
Na0 O26 2.284952 1_555
Na0 O2 2.489447 1_655
Na0 O0 2.636680 1_555
Na0 O18 2.639341 1_555
Na0 O3 2.754654 1_655
Na1 O6 2.280979 1_545
Na1 O11 2.284900 1_555
Na1 O7 2.596934 1_556
Na1 O0 2.619351 1_555
Na1 O27 2.631956 1_555
Na1 O10 2.737861 1_555
Na2 O6 2.283253 1_455
Na2 O12 2.284952 1_555
Na2 O13 2.489447 1_555
Na2 O4 2.636678 1_556
Na2 O30 2.639341 1_555
Na2 O15 2.754654 1_555
Na3 O5 2.280979 1_455
Na3 O12 2.284900 1_555
Na3 O8 2.596934 1_555
Na3 O16 2.619341 1_555
Na3 O3 2.631956 1_555
Na3 O9 2.737862 1_555
Na4 O20 2.280979 1_555
Na4 O25 2.284900 1_555
Na4 O21 2.596934 1_655
Na4 O4 2.619341 1_655
Na4 O31 2.631956 1_555
Na4 O23 2.737858 1_554
Na5 O19 2.283253 1_555
Na5 O25 2.284952 1_555
Na5 O1 2.489447 1_565
Na5 O16 2.636678 1_555
Na5 O17 2.639341 1_555
Na5 O27 2.754654 1_564
Na6 O19 2.280979 1_555
Na6 O26 2.284900 1_555
Na6 O22 2.596934 1_565
Na6 O28 2.619341 1_565
Na6 O15 2.631956 1_555
Na6 O24 2.737868 1_555
Na7 O5 2.290058 1_555
Na7 O6 2.290058 1_555
Na7 O24 2.560071 1_555
Na7 O23 2.560074 1_555
Na7 O18 2.759711 1_555
Na7 O17 2.759711 1_556
Na8 O5 2.283253 1_545
Na8 O11 2.284952 1_555
Na8 O14 2.489447 1_555
Na8 O28 2.636678 1_555
Na8 O29 2.639341 1_555
Na8 O31 2.754654 1_555
Na9 O20 2.290058 1_555
Na9 O19 2.290058 1_555
Na9 O10 2.560069 1_555
Na9 O9 2.560079 1_555
Na9 O29 2.759711 1_555
Na9 O30 2.759711 1_555
Bi0 O7 2.315270 1_555
Bi0 O14 2.364833 1_555
Bi0 O31 2.378832 1_555
Bi0 O0 2.400975 1_554
Bi0 O18 2.415195 1_554
Bi0 O23 2.459744 1_554
Bi1 O22 2.315278 1_555
Bi1 O2 2.364836 1_555
Bi1 O3 2.378826 1_555
Bi1 O28 2.400981 1_555
Bi1 O29 2.415192 1_555
Bi1 O9 2.459726 1_555
Bi2 O8 2.315273 1_555
Bi2 O13 2.364827 1_554
Bi2 O15 2.378824 1_554
Bi2 O16 2.400984 1_555
Bi2 O17 2.415201 1_555
Bi2 O24 2.459739 1_554
Bi3 O21 2.315278 1_555
Bi3 O1 2.364828 1_555
Bi3 O27 2.378832 1_554
Bi3 O4 2.400976 1_555
Bi3 O30 2.415201 1_554
Bi3 O10 2.459727 1_554
C0 O1 1.297949 1_555
C0 O7 1.299219 1_555
C0 O28 1.301313 1_555
C1 O2 1.297949 1_555
C1 O8 1.299219 1_555
C1 O4 1.301313 1_555
C2 O10 1.297409 1_555
C2 O18 1.300427 1_555
C2 O15 1.310653 1_555
C3 O9 1.297403 1_555
C3 O17 1.300427 1_555
C3 O31 1.310653 1_555
C4 O13 1.297949 1_545
C4 O22 1.299219 1_555
C4 O0 1.301307 1_455
C5 O14 1.297949 1_455
C5 O21 1.299219 1_555
C5 O16 1.301313 1_545
C6 O23 1.297403 1_455
C6 O30 1.300427 1_555
C6 O3 1.310653 1_555
C7 O24 1.297398 1_545
C7 O29 1.300427 1_555
C7 O27 1.310653 1_555
O5 P0 1.577325 1_555
O6 P0 1.577325 1_555
O11 P0 1.551331 1_545
O12 P0 1.551331 1_455
O19 P1 1.577325 1_555
O20 P1 1.577325 1_555
O25 P1 1.551331 1_555
O26 P1 1.551331 1_555
