# generated using pymatgen
data_Li3Co(BO3)2
_symmetry_space_group_name_H-M   'P 1'
_cell_length_a   6.69746344
_cell_length_b   4.96744773
_cell_length_c   8.38911903
_cell_angle_alpha   90.53955776
_cell_angle_beta   70.20750950
_cell_angle_gamma   90.81182107
_symmetry_Int_Tables_number   1
_chemical_formula_structural   Li3Co(BO3)2
_chemical_formula_sum   'Li6 Co2 B4 O12'
_cell_volume   262.58279312
_cell_formula_units_Z   2
loop_
 _symmetry_equiv_pos_site_id
 _symmetry_equiv_pos_as_xyz
  1  'x, y, z'
loop_
 _atom_site_type_symbol
 _atom_site_label
 _atom_site_symmetry_multiplicity
 _atom_site_fract_x
 _atom_site_fract_y
 _atom_site_fract_z
 _atom_site_occupancy
  Li  Li0  1  0.25829800  0.87973900  0.15749700  1
  Li  Li1  1  0.40579000  0.66077500  0.42682400  1
  Li  Li2  1  0.43778000  0.84900400  0.72513100  1
  Li  Li3  1  0.56222000  0.15099600  0.27486900  1
  Li  Li4  1  0.59421000  0.33922500  0.57317500  1
  Li  Li5  1  0.74170200  0.12026100  0.84250300  1
  Co  Co0  1  0.04220400  0.62064100  0.77661400  1
  Co  Co1  1  0.95779600  0.37935900  0.22338600  1
  B  B0  1  0.18428900  0.14985900  0.58778900  1
  B  B1  1  0.68106300  0.66208700  0.07904300  1
  B  B2  1  0.31893700  0.33791300  0.92095700  1
  B  B3  1  0.81571100  0.85014100  0.41221100  1
  O  O0  1  0.99803800  0.71986000  0.30689600  1
  O  O1  1  0.21348900  0.23188800  0.08288700  1
  O  O2  1  0.19522500  0.86963300  0.60959200  1
  O  O3  1  0.35025400  0.28228500  0.47587000  1
  O  O4  1  0.51848700  0.79498600  0.19293600  1
  O  O5  1  0.24850700  0.59059500  0.88616700  1
  O  O6  1  0.75149300  0.40940500  0.11383300  1
  O  O7  1  0.48151300  0.20501400  0.80706400  1
  O  O8  1  0.64974600  0.71771500  0.52413000  1
  O  O9  1  0.80477500  0.13036700  0.39040800  1
  O  O10  1  0.78651100  0.76811200  0.91711300  1
  O  O11  1  0.00196200  0.28014000  0.69310400  1
loop_
_geom_bond_atom_site_label_1
_geom_bond_atom_site_label_2
_geom_bond_distance
_geom_bond_site_symmetry_2
Li0 O4 1.917372 1_555
Li0 O1 1.924714 1_565
Li0 O0 1.933884 1_455
Li1 O3 1.932262 1_555
Li1 O4 1.967608 1_555
Li1 O2 1.990786 1_555
Li1 O8 2.074071 1_555
Li2 O8 1.915305 1_555
Li2 O7 1.945369 1_565
Li2 O5 1.976484 1_555
Li2 O2 2.159152 1_555
Li3 O3 1.915305 1_555
Li3 O4 1.945369 1_545
Li3 O6 1.976484 1_555
Li3 O9 2.159152 1_555
Li4 O8 1.932261 1_555
Li4 O7 1.967615 1_555
Li4 O9 1.990782 1_555
Li4 O3 2.074065 1_555
Li5 O7 1.917372 1_555
Li5 O10 1.924714 1_545
Li5 O11 1.933884 1_655
Co0 O10 1.873726 1_455
Co0 O11 1.875364 1_555
Co0 O2 1.888817 1_555
Co0 O5 1.909048 1_555
Co1 O1 1.873726 1_655
Co1 O0 1.875364 1_555
Co1 O9 1.888817 1_555
Co1 O6 1.909048 1_555
B0 O3 1.354226 1_555
B0 O11 1.404113 1_555
B0 O2 1.411830 1_545
B1 O4 1.355821 1_555
B1 O10 1.405258 1_554
B1 O6 1.414243 1_555
B2 O7 1.355821 1_555
B2 O1 1.405258 1_556
B2 O5 1.414243 1_555
B3 O8 1.354226 1_555
B3 O0 1.404113 1_555
B3 O9 1.411830 1_565
