# generated using pymatgen
data_LiBiB2O5
_symmetry_space_group_name_H-M   'P 1'
_cell_length_a   11.38489100
_cell_length_b   5.62857100
_cell_length_c   12.71161947
_cell_angle_alpha   77.99453617
_cell_angle_beta   90.00000000
_cell_angle_gamma   90.00000000
_symmetry_Int_Tables_number   1
_chemical_formula_structural   LiBiB2O5
_chemical_formula_sum   'Li8 Bi8 B16 O40'
_cell_volume   796.75261623
_cell_formula_units_Z   8
loop_
 _symmetry_equiv_pos_site_id
 _symmetry_equiv_pos_as_xyz
  1  'x, y, z'
loop_
 _atom_site_type_symbol
 _atom_site_label
 _atom_site_symmetry_multiplicity
 _atom_site_fract_x
 _atom_site_fract_y
 _atom_site_fract_z
 _atom_site_occupancy
  Li  Li0  1  0.37012100  0.24687700  0.22767300  1
  Li  Li1  1  0.86665800  0.25435600  0.26854800  1
  Li  Li2  1  0.12987900  0.74687700  0.22767300  1
  Li  Li3  1  0.63334200  0.75435600  0.26854800  1
  Li  Li4  1  0.36665800  0.24564400  0.73145200  1
  Li  Li5  1  0.87012100  0.25312300  0.77232700  1
  Li  Li6  1  0.13334200  0.74564400  0.73145200  1
  Li  Li7  1  0.62987900  0.75312300  0.77232700  1
  Bi  Bi0  1  0.61609200  0.38369100  0.11036600  1
  Bi  Bi1  1  0.88390800  0.88369100  0.11036600  1
  Bi  Bi2  1  0.12209500  0.14475300  0.39275600  1
  Bi  Bi3  1  0.37790500  0.64475300  0.39275600  1
  Bi  Bi4  1  0.62209500  0.35524700  0.60724400  1
  Bi  Bi5  1  0.87790500  0.85524700  0.60724400  1
  Bi  Bi6  1  0.11609200  0.11630900  0.88963400  1
  Bi  Bi7  1  0.38390800  0.61630900  0.88963400  1
  B  B0  1  0.37554400  0.12597700  0.01323300  1
  B  B1  1  0.12445600  0.62597700  0.01323300  1
  B  B2  1  0.11612000  0.29164300  0.17254100  1
  B  B3  1  0.38388000  0.79164300  0.17254100  1
  B  B4  1  0.62541100  0.19720100  0.32590400  1
  B  B5  1  0.87458900  0.69720100  0.32590400  1
  B  B6  1  0.37949300  0.14505800  0.51506300  1
  B  B7  1  0.87949300  0.35494200  0.48493700  1
  B  B8  1  0.12050700  0.64505800  0.51506300  1
  B  B9  1  0.62050700  0.85494200  0.48493700  1
  B  B10  1  0.12541100  0.30279900  0.67409600  1
  B  B11  1  0.37458900  0.80279900  0.67409600  1
  B  B12  1  0.61612000  0.20835700  0.82745900  1
  B  B13  1  0.88388000  0.70835700  0.82745900  1
  B  B14  1  0.87554400  0.37402300  0.98676700  1
  B  B15  1  0.62445600  0.87402300  0.98676700  1
  O  O0  1  0.41188600  0.30288200  0.06454400  1
  O  O1  1  0.11237400  0.37700100  0.06009600  1
  O  O2  1  0.82735900  0.31156500  0.08938200  1
  O  O3  1  0.08811400  0.80288200  0.06454400  1
  O  O4  1  0.38762600  0.87700100  0.06009600  1
  O  O5  1  0.67264100  0.81156500  0.08938200  1
  O  O6  1  0.04722100  0.09666000  0.22212600  1
  O  O7  1  0.55444000  0.09048900  0.26178400  1
  O  O8  1  0.18953000  0.39841900  0.23449900  1
  O  O9  1  0.45277900  0.59666000  0.22212600  1
  O  O10  1  0.69085700  0.39791300  0.28069400  1
  O  O11  1  0.94556000  0.59048900  0.26178400  1
  O  O12  1  0.31047000  0.89841900  0.23449900  1
  O  O13  1  0.80914300  0.89791300  0.28069400  1
  O  O14  1  0.33927900  0.22083500  0.41021400  1
  O  O15  1  0.63187600  0.10353100  0.43918300  1
  O  O16  1  0.92323300  0.18605200  0.43194600  1
  O  O17  1  0.16072100  0.72083500  0.41021400  1
  O  O18  1  0.86812400  0.60353100  0.43918300  1
  O  O19  1  0.57676700  0.68605200  0.43194600  1
  O  O20  1  0.42323300  0.31394800  0.56805400  1
  O  O21  1  0.13187600  0.39646900  0.56081700  1
  O  O22  1  0.83927900  0.27916500  0.58978600  1
  O  O23  1  0.07676700  0.81394800  0.56805400  1
  O  O24  1  0.36812400  0.89646900  0.56081700  1
  O  O25  1  0.66072100  0.77916500  0.58978600  1
  O  O26  1  0.19085700  0.10208700  0.71930600  1
  O  O27  1  0.68953000  0.10158100  0.76550100  1
  O  O28  1  0.05444000  0.40951100  0.73821600  1
  O  O29  1  0.30914300  0.60208700  0.71930600  1
  O  O30  1  0.54722100  0.40334000  0.77787400  1
  O  O31  1  0.81047000  0.60158100  0.76550100  1
  O  O32  1  0.44556000  0.90951100  0.73821600  1
  O  O33  1  0.95277900  0.90334000  0.77787400  1
  O  O34  1  0.32735900  0.18843500  0.91061800  1
  O  O35  1  0.61237400  0.12299900  0.93990400  1
  O  O36  1  0.91188600  0.19711800  0.93545600  1
  O  O37  1  0.17264100  0.68843500  0.91061800  1
  O  O38  1  0.88762600  0.62299900  0.93990400  1
  O  O39  1  0.58811400  0.69711800  0.93545600  1
loop_
_geom_bond_atom_site_label_1
_geom_bond_atom_site_label_2
_geom_bond_distance
_geom_bond_site_symmetry_2
Li0 O12 2.060270 1_545
Li0 O0 2.086500 1_555
Li0 O9 2.169997 1_555
Li0 O8 2.234511 1_555
Li0 O7 2.282007 1_555
Li0 O14 2.321100 1_555
Li1 O11 2.079931 1_555
Li1 O13 2.085387 1_545
Li1 O16 2.131812 1_555
Li1 O10 2.175899 1_555
Li1 O2 2.277222 1_555
Li1 O6 2.362163 1_655
Li2 O8 2.060270 1_555
Li2 O3 2.086500 1_555
Li2 O6 2.169997 1_565
Li2 O12 2.234511 1_555
Li2 O11 2.282007 1_455
Li2 O17 2.321100 1_555
Li3 O7 2.079931 1_565
Li3 O10 2.085387 1_555
Li3 O19 2.131812 1_555
Li3 O13 2.175899 1_555
Li3 O5 2.277222 1_555
Li3 O9 2.362163 1_555
Li4 O32 2.079931 1_545
Li4 O29 2.085387 1_555
Li4 O20 2.131812 1_555
Li4 O26 2.175899 1_555
Li4 O34 2.277222 1_555
Li4 O30 2.362163 1_555
Li5 O31 2.060270 1_555
Li5 O36 2.086500 1_555
Li5 O33 2.169997 1_545
Li5 O27 2.234511 1_555
Li5 O28 2.282007 1_655
Li5 O22 2.321100 1_555
Li6 O28 2.079931 1_555
Li6 O26 2.085387 1_565
Li6 O23 2.131812 1_555
Li6 O29 2.175899 1_555
Li6 O37 2.277222 1_555
Li6 O33 2.362163 1_455
Li7 O27 2.060270 1_565
Li7 O39 2.086500 1_555
Li7 O30 2.169997 1_555
Li7 O31 2.234511 1_555
Li7 O32 2.282007 1_555
Li7 O25 2.321100 1_555
Bi0 O10 2.343265 1_555
Bi0 O7 2.366321 1_555
Bi0 O5 2.453241 1_555
Bi0 O0 2.461982 1_555
Bi0 O2 2.462975 1_555
Bi0 O39 2.554482 1_554
Bi0 O9 2.760543 1_555
Bi0 O35 2.858802 1_554
Bi1 O13 2.343265 1_555
Bi1 O11 2.366321 1_555
Bi1 O2 2.453241 1_565
Bi1 O3 2.461982 1_655
Bi1 O5 2.462975 1_555
Bi1 O36 2.554482 1_564
Bi1 O6 2.760543 1_665
Bi1 O38 2.858802 1_554
Bi2 O16 2.340123 1_455
Bi2 O8 2.340946 1_555
Bi2 O17 2.390731 1_545
Bi2 O6 2.397636 1_555
Bi2 O14 2.527053 1_555
Bi2 O23 2.640564 1_545
Bi2 O21 2.800496 1_555
Bi3 O19 2.340123 1_555
Bi3 O12 2.340946 1_555
Bi3 O14 2.390731 1_555
Bi3 O9 2.397636 1_555
Bi3 O17 2.527053 1_555
Bi3 O20 2.640564 1_555
Bi3 O24 2.800496 1_555
Bi4 O20 2.340123 1_555
Bi4 O27 2.340946 1_555
Bi4 O25 2.390731 1_555
Bi4 O30 2.397636 1_555
Bi4 O22 2.527053 1_555
Bi4 O19 2.640564 1_555
Bi4 O15 2.800496 1_555
Bi5 O23 2.340123 1_655
Bi5 O31 2.340946 1_555
Bi5 O22 2.390731 1_565
Bi5 O33 2.397636 1_555
Bi5 O25 2.527053 1_555
Bi5 O16 2.640564 1_565
Bi5 O18 2.800496 1_555
Bi6 O26 2.343265 1_555
Bi6 O28 2.366321 1_555
Bi6 O37 2.453241 1_545
Bi6 O36 2.461982 1_455
Bi6 O34 2.462975 1_555
Bi6 O3 2.554482 1_546
Bi6 O33 2.760543 1_445
Bi6 O1 2.858802 1_556
Bi7 O29 2.343265 1_555
Bi7 O32 2.366321 1_555
Bi7 O34 2.453241 1_555
Bi7 O39 2.461982 1_555
Bi7 O37 2.462975 1_555
Bi7 O0 2.554482 1_556
Bi7 O30 2.760543 1_555
Bi7 O4 2.858802 1_556
B0 O0 1.363179 1_555
B0 O34 1.391125 1_554
B0 O4 1.410801 1_545
B1 O3 1.363179 1_555
B1 O37 1.391125 1_554
B1 O1 1.410801 1_555
B2 O8 1.370002 1_555
B2 O6 1.388978 1_555
B2 O1 1.410682 1_555
B3 O12 1.370002 1_555
B3 O9 1.388978 1_555
B3 O4 1.410682 1_555
B4 O7 1.371722 1_555
B4 O10 1.375361 1_555
B4 O15 1.428650 1_555
B5 O11 1.371722 1_555
B5 O13 1.375361 1_555
B5 O18 1.428650 1_555
B6 O20 1.368123 1_555
B6 O14 1.389748 1_555
B6 O24 1.405077 1_545
B7 O16 1.368123 1_555
B7 O22 1.389748 1_555
B7 O18 1.405077 1_555
B8 O23 1.368123 1_555
B8 O17 1.389748 1_555
B8 O21 1.405077 1_555
B9 O19 1.368123 1_555
B9 O25 1.389748 1_555
B9 O15 1.405077 1_565
B10 O28 1.371722 1_555
B10 O26 1.375361 1_555
B10 O21 1.428650 1_555
B11 O32 1.371722 1_555
B11 O29 1.375361 1_555
B11 O24 1.428650 1_555
B12 O27 1.370002 1_555
B12 O30 1.388978 1_555
B12 O35 1.410682 1_555
B13 O31 1.370002 1_555
B13 O33 1.388978 1_555
B13 O38 1.410682 1_555
B14 O36 1.363179 1_555
B14 O2 1.391125 1_556
B14 O38 1.410801 1_555
B15 O39 1.363179 1_555
B15 O5 1.391125 1_556
B15 O35 1.410801 1_565
