# generated using pymatgen
data_Li5FeNi3O8
_symmetry_space_group_name_H-M   'P 1'
_cell_length_a   5.91799085
_cell_length_b   5.91799085
_cell_length_c   9.74323368
_cell_angle_alpha   89.40567701
_cell_angle_beta   89.40567701
_cell_angle_gamma   119.17631820
_symmetry_Int_Tables_number   1
_chemical_formula_structural   Li5FeNi3O8
_chemical_formula_sum   'Li10 Fe2 Ni6 O16'
_cell_volume   297.87650834
_cell_formula_units_Z   2
loop_
 _symmetry_equiv_pos_site_id
 _symmetry_equiv_pos_as_xyz
  1  'x, y, z'
loop_
 _atom_site_type_symbol
 _atom_site_label
 _atom_site_symmetry_multiplicity
 _atom_site_fract_x
 _atom_site_fract_y
 _atom_site_fract_z
 _atom_site_occupancy
  Li  Li0  1  0.18630700  0.80240300  0.55683700  1
  Li  Li1  1  0.31643100  0.64019400  0.77535500  1
  Li  Li2  1  0.58566600  0.78380400  0.54993700  1
  Li  Li3  1  0.97751100  0.98421800  0.48470300  1
  Li  Li4  1  0.98421800  0.97751100  0.98470300  1
  Li  Li5  1  0.18568200  0.37665600  0.55114100  1
  Li  Li6  1  0.64019400  0.31643100  0.27535500  1
  Li  Li7  1  0.37665600  0.18568200  0.05114100  1
  Li  Li8  1  0.78380400  0.58566600  0.04993700  1
  Li  Li9  1  0.80240300  0.18630700  0.05683700  1
  Fe  Fe0  1  0.32243200  0.65373600  0.03278700  1
  Fe  Fe1  1  0.65373600  0.32243200  0.53278700  1
  Ni  Ni0  1  0.15162900  0.82054600  0.28660200  1
  Ni  Ni1  1  0.64521100  0.81824100  0.28565500  1
  Ni  Ni2  1  0.15182800  0.32569800  0.28741800  1
  Ni  Ni3  1  0.81824100  0.64521100  0.78565500  1
  Ni  Ni4  1  0.32569800  0.15182800  0.78741800  1
  Ni  Ni5  1  0.82054600  0.15162900  0.78660200  1
  O  O0  1  0.16236600  0.81576300  0.91260800  1
  O  O1  1  0.48174600  0.96991400  0.16012300  1
  O  O2  1  0.65378700  0.80498200  0.91035200  1
  O  O3  1  0.32003200  0.65666000  0.39852000  1
  O  O4  1  0.00817000  0.50012000  0.16007100  1
  O  O5  1  0.47403700  0.49396000  0.16022500  1
  O  O6  1  0.80498200  0.65378700  0.41035200  1
  O  O7  1  0.15661600  0.31381800  0.91357200  1
  O  O8  1  0.49396000  0.47403700  0.66022500  1
  O  O9  1  0.31381800  0.15661600  0.41357200  1
  O  O10  1  0.65666000  0.32003200  0.89852000  1
  O  O11  1  0.98940400  0.97690900  0.68090000  1
  O  O12  1  0.97690900  0.98940400  0.18090000  1
  O  O13  1  0.96991400  0.48174600  0.66012300  1
  O  O14  1  0.50012000  0.00817000  0.66007100  1
  O  O15  1  0.81576300  0.16236600  0.41260800  1
loop_
_geom_bond_atom_site_label_1
_geom_bond_atom_site_label_2
_geom_bond_distance
_geom_bond_site_symmetry_2
Li0 O14 1.950064 1_565
Li0 O13 1.953971 1_455
Li0 O3 2.101750 1_555
Li0 O11 2.248445 1_455
Li0 O9 2.299394 1_565
Li0 O6 2.461880 1_455
Li1 O8 2.081992 1_555
Li1 O13 2.130697 1_455
Li1 O7 2.139446 1_555
Li1 O0 2.150898 1_555
Li1 O14 2.191231 1_565
Li1 O2 2.202214 1_555
Li2 O8 1.945982 1_555
Li2 O14 1.960738 1_565
Li2 O3 2.032673 1_555
Li2 O6 2.254998 1_555
Li2 O15 2.364160 1_565
Li2 O11 2.464604 1_555
Li3 O9 1.859915 1_665
Li3 O6 1.867955 1_555
Li3 O15 1.871826 1_565
Li3 O11 1.914434 1_555
Li4 O7 1.859915 1_665
Li4 O2 1.867955 1_555
Li4 O0 1.871826 1_655
Li4 O12 1.914434 1_556
Li5 O8 1.953956 1_555
Li5 O13 1.976018 1_455
Li5 O3 2.056462 1_555
Li5 O9 2.246158 1_555
Li5 O15 2.369087 1_455
Li5 O11 2.402588 1_445
Li6 O5 2.081992 1_555
Li6 O1 2.130697 1_545
Li6 O9 2.139446 1_555
Li6 O15 2.150898 1_555
Li6 O4 2.191231 1_655
Li6 O6 2.202214 1_555
Li7 O5 1.953956 1_555
Li7 O1 1.976018 1_545
Li7 O10 2.056462 1_554
Li7 O7 2.246158 1_554
Li7 O0 2.369087 1_544
Li7 O12 2.402588 1_445
Li8 O5 1.945982 1_555
Li8 O4 1.960738 1_655
Li8 O10 2.032673 1_554
Li8 O2 2.254998 1_554
Li8 O0 2.364160 1_654
Li8 O12 2.464604 1_555
Li9 O4 1.950064 1_655
Li9 O1 1.953971 1_545
Li9 O10 2.101750 1_554
Li9 O12 2.248445 1_545
Li9 O7 2.299394 1_654
Li9 O2 2.461880 1_544
Fe0 O5 2.016591 1_555
Fe0 O0 2.018207 1_554
Fe0 O4 2.025735 1_555
Fe0 O1 2.069228 1_555
Fe0 O2 2.070640 1_554
Fe0 O7 2.122792 1_554
Fe1 O8 2.016591 1_555
Fe1 O15 2.018207 1_555
Fe1 O14 2.025735 1_555
Fe1 O13 2.069228 1_555
Fe1 O6 2.070640 1_555
Fe1 O9 2.122792 1_555
Ni0 O3 2.016426 1_555
Ni0 O12 2.033855 1_455
Ni0 O4 2.082557 1_555
Ni0 O1 2.088147 1_555
Ni0 O6 2.141553 1_455
Ni0 O9 2.149810 1_565
Ni1 O12 1.979749 1_555
Ni1 O3 1.991760 1_555
Ni1 O1 2.021347 1_555
Ni1 O6 2.052761 1_555
Ni1 O5 2.093203 1_555
Ni1 O15 2.184083 1_565
Ni2 O3 2.040664 1_555
Ni2 O12 2.041071 1_445
Ni2 O4 2.044194 1_555
Ni2 O5 2.058504 1_555
Ni2 O9 2.089325 1_555
Ni2 O15 2.104386 1_455
Ni3 O11 1.979749 1_555
Ni3 O10 1.991760 1_555
Ni3 O13 2.021347 1_555
Ni3 O2 2.052761 1_555
Ni3 O8 2.093203 1_555
Ni3 O0 2.184083 1_655
Ni4 O10 2.040664 1_555
Ni4 O11 2.041071 1_445
Ni4 O14 2.044194 1_555
Ni4 O8 2.058504 1_555
Ni4 O7 2.089325 1_555
Ni4 O0 2.104386 1_545
Ni5 O10 2.016426 1_555
Ni5 O11 2.033855 1_545
Ni5 O14 2.082557 1_555
Ni5 O13 2.088147 1_555
Ni5 O2 2.141553 1_545
Ni5 O7 2.149810 1_655
