# generated using pymatgen
data_Li32Ti11Cr5O48
_symmetry_space_group_name_H-M   'P 1'
_cell_length_a   5.07931625
_cell_length_b   5.07436697
_cell_length_c   38.68112824
_cell_angle_alpha   88.94991333
_cell_angle_beta   91.14748303
_cell_angle_gamma   60.12249583
_symmetry_Int_Tables_number   1
_chemical_formula_structural   Li32Ti11Cr5O48
_chemical_formula_sum   'Li32 Ti11 Cr5 O48'
_cell_volume   863.83932468
_cell_formula_units_Z   1
loop_
 _symmetry_equiv_pos_site_id
 _symmetry_equiv_pos_as_xyz
  1  'x, y, z'
loop_
 _atom_site_type_symbol
 _atom_site_label
 _atom_site_symmetry_multiplicity
 _atom_site_fract_x
 _atom_site_fract_y
 _atom_site_fract_z
 _atom_site_occupancy
  Li  Li0  1  0.09067800  0.08667200  0.24977900  1
  Li  Li1  1  0.00328500  0.50302700  0.00011600  1
  Li  Li2  1  0.06065000  0.44115900  0.18746900  1
  Li  Li3  1  0.12324600  0.37282500  0.37501900  1
  Li  Li4  1  0.19062200  0.31100900  0.56249800  1
  Li  Li5  1  0.25010400  0.24642400  0.75019500  1
  Li  Li6  1  0.31241000  0.18763100  0.93747400  1
  Li  Li7  1  0.03811600  0.78160200  0.12496100  1
  Li  Li8  1  0.37806900  0.12523900  0.12496800  1
  Li  Li9  1  0.16638800  0.65949800  0.50019300  1
  Li  Li10  1  0.28183800  0.54275900  0.87462300  1
  Li  Li11  1  0.43753900  0.06246400  0.31245000  1
  Li  Li12  1  0.49514700  0.99762600  0.50007800  1
  Li  Li13  1  0.40924200  0.41502500  0.24984000  1
  Li  Li14  1  0.53212000  0.29028200  0.62473100  1
  Li  Li15  1  0.22088700  0.95952700  0.62505200  1
  Li  Li16  1  0.33746200  0.83741300  0.00012300  1
  Li  Li17  1  0.65948100  0.16008600  0.00017000  1
  Li  Li18  1  0.78758300  0.03590900  0.37499000  1
  Li  Li19  1  0.46375800  0.71595000  0.37510400  1
  Li  Li20  1  0.58429800  0.59597400  0.75006500  1
  Li  Li21  1  0.56254700  0.93766400  0.68752300  1
  Li  Li22  1  0.70921900  0.46818900  0.12498000  1
  Li  Li23  1  0.83735600  0.34183600  0.50000100  1
  Li  Li24  1  0.62417300  0.87257500  0.87485100  1
  Li  Li25  1  0.96840800  0.20918900  0.87497400  1
  Li  Li26  1  0.68956300  0.81435200  0.06251300  1
  Li  Li27  1  0.74910900  0.74764400  0.24983600  1
  Li  Li28  1  0.81247500  0.68704600  0.43753100  1
  Li  Li29  1  0.87173900  0.62491400  0.62491100  1
  Li  Li30  1  0.93598300  0.56560600  0.81251500  1
  Li  Li31  1  0.91529800  0.90716400  0.75034300  1
  Ti  Ti0  1  0.01762300  0.14343200  0.06255900  1
  Ti  Ti1  1  0.10516100  0.72985300  0.31245600  1
  Ti  Ti2  1  0.22970000  0.60463000  0.68753600  1
  Ti  Ti3  1  0.47967500  0.35487400  0.43744800  1
  Ti  Ti4  1  0.60692500  0.22575400  0.81264500  1
  Ti  Ti5  1  0.73241700  0.09990000  0.18759800  1
  Ti  Ti6  1  0.64486100  0.51963400  0.93753500  1
  Ti  Ti7  1  0.76989600  0.39475400  0.31242700  1
  Ti  Ti8  1  0.89439400  0.26974700  0.68754200  1
  Ti  Ti9  1  0.85104100  0.98191100  0.56240400  1
  Ti  Ti10  1  0.97957400  0.85518900  0.93750600  1
  Cr  Cr0  1  0.14368200  0.01806700  0.43758900  1
  Cr  Cr1  1  0.35678200  0.48119900  0.06252800  1
  Cr  Cr2  1  0.26830800  0.89845000  0.81248900  1
  Cr  Cr3  1  0.39336700  0.77320900  0.18725200  1
  Cr  Cr4  1  0.52335700  0.64340500  0.56247900  1
  O  O0  1  0.09074100  0.05387900  0.34074700  1
  O  O1  1  0.06463700  0.08243300  0.15934000  1
  O  O2  1  0.07160500  0.42805300  0.28346700  1
  O  O3  1  0.19618600  0.30369000  0.65857400  1
  O  O4  1  0.05840800  0.44688600  0.09094800  1
  O  O5  1  0.17813200  0.31914900  0.46628000  1
  O  O6  1  0.30166900  0.18937600  0.84111600  1
  O  O7  1  0.32214000  0.18272200  0.03418900  1
  O  O8  1  0.44194200  0.05311100  0.40890000  1
  O  O9  1  0.06648900  0.78628300  0.21598400  1
  O  O10  1  0.42623100  0.06410500  0.21600500  1
  O  O11  1  0.20214300  0.65915000  0.59044300  1
  O  O12  1  0.32103700  0.53415100  0.96576400  1
  O  O13  1  0.03172500  0.82553600  0.03396100  1
  O  O14  1  0.15986800  0.70103400  0.40935300  1
  O  O15  1  0.28438400  0.57678800  0.78462100  1
  O  O16  1  0.21562800  0.92877900  0.71596600  1
  O  O17  1  0.18398000  0.96079400  0.53473700  1
  O  O18  1  0.30333900  0.84122300  0.90910300  1
  O  O19  1  0.44645400  0.40930100  0.34089800  1
  O  O20  1  0.57152300  0.28474400  0.71604500  1
  O  O21  1  0.40909700  0.45140400  0.15962400  1
  O  O22  1  0.53636800  0.31721300  0.53392800  1
  O  O23  1  0.65931600  0.19639300  0.90898000  1
  O  O24  1  0.34277600  0.79374300  0.09061700  1
  O  O25  1  0.46448800  0.68016100  0.46571300  1
  O  O26  1  0.58612600  0.55885900  0.84038500  1
  O  O27  1  0.42871000  0.71569000  0.28410600  1
  O  O28  1  0.55347100  0.59072600  0.65921900  1
  O  O29  1  0.70115700  0.15729000  0.09118700  1
  O  O30  1  0.82802100  0.03466600  0.46570600  1
  O  O31  1  0.78384500  0.07148400  0.28397400  1
  O  O32  1  0.71062400  0.43400100  0.21527900  1
  O  O33  1  0.83312600  0.31357700  0.59054700  1
  O  O34  1  0.96498700  0.17901900  0.96594300  1
  O  O35  1  0.66875400  0.46755100  0.03441700  1
  O  O36  1  0.80392000  0.33973800  0.40930300  1
  O  O37  1  0.57463300  0.92937000  0.78345600  1
  O  O38  1  0.93862400  0.20823000  0.78456700  1
  O  O39  1  0.55485200  0.94968200  0.59160800  1
  O  O40  1  0.67827400  0.82169500  0.96643800  1
  O  O41  1  0.69967800  0.80476200  0.15820700  1
  O  O42  1  0.81425000  0.67635700  0.53391100  1
  O  O43  1  0.94628000  0.55329900  0.90846100  1
  O  O44  1  0.80348900  0.69691800  0.34141600  1
  O  O45  1  0.92886500  0.57147900  0.71658300  1
  O  O46  1  0.94267800  0.91088100  0.84101400  1
  O  O47  1  0.90977400  0.94633800  0.65909900  1
loop_
_geom_bond_atom_site_label_1
_geom_bond_atom_site_label_2
_geom_bond_distance
_geom_bond_site_symmetry_2
Li0 O9 2.073782 1_545
Li0 O31 2.093538 1_455
Li0 O10 2.127196 1_555
Li0 O2 2.151479 1_555
Li0 O27 2.202661 1_545
Li0 O32 2.243795 1_455
Li1 O40 2.052848 1_454
Li1 O7 2.053097 1_555
Li1 O13 2.172438 1_555
Li1 O12 2.174309 1_554
Li1 O34 2.208238 1_454
Li1 O35 2.250854 1_455
Li2 O9 2.098979 1_555
Li2 O32 2.111612 1_455
Li2 O21 2.112158 1_555
Li2 O41 2.125338 1_455
Li2 O1 2.129450 1_555
Li2 O10 2.151292 1_555
Li3 O8 2.047092 1_555
Li3 O44 2.051320 1_455
Li3 O0 2.177190 1_555
Li3 O36 2.183321 1_455
Li3 O19 2.202702 1_555
Li3 O14 2.225298 1_555
Li4 O22 2.106631 1_555
Li4 O17 2.107278 1_545
Li4 O11 2.112623 1_555
Li4 O39 2.124544 1_545
Li4 O33 2.128481 1_455
Li4 O42 2.150245 1_455
Li5 O37 2.039081 1_545
Li5 O45 2.056325 1_455
Li5 O38 2.165321 1_455
Li5 O16 2.175289 1_545
Li5 O20 2.200303 1_555
Li5 O15 2.230963 1_555
Li6 O12 2.106329 1_555
Li6 O18 2.108481 1_545
Li6 O23 2.115567 1_555
Li6 O34 2.116966 1_455
Li6 O40 2.135203 1_545
Li6 O43 2.136133 1_455
Li7 O24 2.082686 1_555
Li7 O1 2.094983 1_565
Li7 O41 2.124964 1_455
Li7 O4 2.130568 1_555
Li7 O21 2.196996 1_555
Li7 O29 2.199716 1_465
Li8 O41 2.039298 1_545
Li8 O4 2.056048 1_555
Li8 O1 2.183604 1_555
Li8 O29 2.184259 1_555
Li8 O21 2.212215 1_555
Li8 O24 2.236080 1_545
Li9 O25 2.077590 1_555
Li9 O17 2.082574 1_555
Li9 O5 2.165783 1_555
Li9 O22 2.194967 1_555
Li9 O42 2.202868 1_455
Li9 O30 2.216510 1_465
Li10 O18 2.077859 1_555
Li10 O26 2.086441 1_555
Li10 O43 2.149919 1_455
Li10 O46 2.182291 1_455
Li10 O6 2.194539 1_555
Li10 O23 2.233017 1_555
Li11 O27 2.108985 1_545
Li11 O0 2.110630 1_555
Li11 O19 2.111598 1_555
Li11 O31 2.113149 1_555
Li11 O44 2.134584 1_545
Li11 O2 2.134966 1_555
Li12 O5 2.045473 1_565
Li12 O42 2.049816 1_555
Li12 O17 2.168014 1_555
Li12 O25 2.169440 1_555
Li12 O22 2.189361 1_565
Li12 O30 2.249271 1_565
Li13 O27 2.076892 1_555
Li13 O32 2.089010 1_555
Li13 O2 2.148701 1_555
Li13 O10 2.197288 1_555
Li13 O9 2.201282 1_555
Li13 O31 2.216523 1_555
Li14 O28 2.085468 1_555
Li14 O33 2.086920 1_555
Li14 O39 2.128447 1_545
Li14 O3 2.146372 1_555
Li14 O11 2.183155 1_555
Li14 O47 2.229415 1_545
Li15 O11 2.082965 1_555
Li15 O47 2.102750 1_455
Li15 O39 2.135262 1_555
Li15 O3 2.149012 1_565
Li15 O28 2.184695 1_555
Li15 O33 2.273705 1_465
Li16 O13 2.073693 1_555
Li16 O12 2.083230 1_554
Li16 O40 2.158095 1_554
Li16 O7 2.183022 1_565
Li16 O35 2.187826 1_555
Li16 O34 2.209209 1_464
Li17 O35 2.082725 1_555
Li17 O34 2.096702 1_554
Li17 O7 2.140206 1_555
Li17 O40 2.141005 1_544
Li17 O13 2.187945 1_645
Li17 O12 2.212275 1_554
Li18 O36 2.084115 1_555
Li18 O0 2.085909 1_655
Li18 O44 2.144688 1_545
Li18 O8 2.180382 1_555
Li18 O14 2.201185 1_645
Li18 O19 2.208468 1_555
Li19 O14 2.082781 1_555
Li19 O19 2.094455 1_555
Li19 O8 2.132424 1_565
Li19 O44 2.147955 1_555
Li19 O0 2.207966 1_565
Li19 O36 2.215701 1_555
Li20 O15 2.083583 1_555
Li20 O20 2.098788 1_555
Li20 O37 2.128997 1_555
Li20 O45 2.153095 1_555
Li20 O16 2.183358 1_555
Li20 O38 2.273985 1_555
Li21 O28 2.109405 1_555
Li21 O20 2.114317 1_565
Li21 O16 2.114830 1_555
Li21 O47 2.115316 1_555
Li21 O3 2.136191 1_565
Li21 O45 2.138552 1_555
Li22 O21 2.081796 1_555
Li22 O29 2.082546 1_555
Li22 O41 2.138137 1_555
Li22 O24 2.171911 1_555
Li22 O4 2.190456 1_655
Li22 O1 2.268268 1_655
Li23 O30 2.082897 1_555
Li23 O22 2.083210 1_555
Li23 O42 2.122501 1_555
Li23 O5 2.146643 1_655
Li23 O25 2.206778 1_555
Li23 O17 2.249914 1_645
Li24 O6 2.045562 1_565
Li24 O43 2.046590 1_555
Li24 O26 2.173217 1_555
Li24 O46 2.181031 1_555
Li24 O18 2.184808 1_555
Li24 O23 2.199309 1_565
Li25 O46 2.072949 1_545
Li25 O23 2.092950 1_555
Li25 O6 2.124796 1_655
Li25 O43 2.152367 1_555
Li25 O18 2.185937 1_645
Li25 O26 2.255021 1_555
Li26 O13 2.101496 1_655
Li26 O29 2.105271 1_565
Li26 O35 2.130719 1_555
Li26 O7 2.131858 1_565
Li26 O24 2.133410 1_555
Li26 O4 2.135062 1_655
Li27 O10 2.047928 1_565
Li27 O2 2.048466 1_655
Li27 O32 2.176110 1_555
Li27 O9 2.177586 1_655
Li27 O27 2.184810 1_555
Li27 O31 2.198700 1_565
Li28 O36 2.108313 1_555
Li28 O25 2.109751 1_555
Li28 O14 2.122627 1_655
Li28 O30 2.123982 1_565
Li28 O5 2.134955 1_655
Li28 O8 2.139436 1_565
Li29 O39 2.040210 1_555
Li29 O3 2.056274 1_655
Li29 O33 2.162512 1_555
Li29 O28 2.182076 1_555
Li29 O47 2.197530 1_555
Li29 O11 2.235131 1_655
Li30 O46 2.101124 1_555
Li30 O26 2.111206 1_555
Li30 O15 2.115016 1_655
Li30 O37 2.122586 1_555
Li30 O38 2.122663 1_555
Li30 O6 2.150841 1_655
Li31 O38 2.085342 1_565
Li31 O16 2.085641 1_655
Li31 O37 2.132409 1_555
Li31 O45 2.140042 1_555
Li31 O15 2.184218 1_655
Li31 O20 2.227320 1_565
Cr0 O30 1.923362 1_455
Cr0 O14 1.929751 1_545
Cr0 O25 1.963592 1_545
Cr0 O8 1.971472 1_555
Cr0 O36 1.972850 1_455
Cr0 O5 1.979183 1_555
Cr1 O24 1.911727 1_555
Cr1 O35 1.913261 1_555
Cr1 O7 1.960914 1_555
Cr1 O4 1.964251 1_555
Cr1 O29 1.995315 1_555
Cr1 O13 1.995505 1_555
Cr2 O38 1.919493 1_465
Cr2 O6 1.932840 1_565
Cr2 O15 1.941156 1_555
Cr2 O26 1.957133 1_555
Cr2 O46 1.982112 1_455
Cr2 O37 2.003359 1_555
Cr3 O1 1.916039 1_565
Cr3 O10 1.934422 1_565
Cr3 O21 1.937114 1_555
Cr3 O32 1.957807 1_555
Cr3 O9 1.990754 1_555
Cr3 O41 2.005031 1_555
Cr4 O33 1.922735 1_555
Cr4 O42 1.933122 1_555
Cr4 O11 1.944824 1_555
Cr4 O17 1.952812 1_555
Cr4 O22 1.981091 1_555
Cr4 O39 2.003803 1_555
O0 Ti1 1.963562 1_545
O0 Ti7 1.974436 1_455
O1 Ti5 1.994623 1_455
O2 Ti1 1.986728 1_555
O2 Ti7 1.987887 1_455
O3 Ti2 1.982433 1_555
O3 Ti8 1.989915 1_455
O4 Ti0 1.997637 1_555
O5 Ti3 1.990022 1_555
O6 Ti4 1.999258 1_555
O7 Ti0 2.000899 1_555
O8 Ti3 1.986650 1_555
O9 Ti5 1.946396 1_465
O10 Ti5 2.000412 1_555
O11 Ti9 1.996633 1_455
O12 Ti6 1.963997 1_555
O12 Ti10 1.974988 1_455
O13 Ti0 1.945363 1_565
O14 Ti3 1.980331 1_555
O15 Ti4 1.995659 1_555
O16 Ti2 1.967818 1_555
O16 Ti8 1.977501 1_465
O17 Ti9 1.978072 1_455
O18 Ti10 1.968649 1_455
O18 Ti6 1.979692 1_555
O19 Ti7 1.967718 1_555
O19 Ti1 1.977383 1_555
O20 Ti8 1.965196 1_555
O20 Ti2 1.978706 1_555
O21 Ti5 1.997251 1_555
O22 Ti9 1.953006 1_545
O23 Ti6 1.966079 1_555
O23 Ti10 1.978247 1_545
O24 Ti0 1.998023 1_565
O25 Ti3 1.966859 1_555
O26 Ti4 1.978063 1_555
O27 Ti1 1.966191 1_555
O27 Ti7 1.975422 1_555
O28 Ti2 1.966878 1_555
O28 Ti8 1.974936 1_555
O29 Ti0 1.943338 1_655
O30 Ti3 1.989645 1_555
O31 Ti7 1.964869 1_555
O31 Ti1 1.980361 1_645
O32 Ti5 1.979204 1_555
O33 Ti9 1.986039 1_545
O34 Ti10 1.965671 1_545
O34 Ti6 1.974240 1_555
O35 Ti0 1.995879 1_655
O36 Ti3 1.962752 1_555
O37 Ti4 1.965751 1_565
O38 Ti4 1.988373 1_555
O39 Ti9 1.967891 1_555
O40 Ti6 1.985570 1_555
O40 Ti10 1.986003 1_555
O41 Ti5 1.966220 1_565
O42 Ti9 1.999181 1_555
O43 Ti10 1.987745 1_555
O43 Ti6 1.990075 1_555
O44 Ti1 1.986886 1_655
O44 Ti7 1.988336 1_555
O45 Ti2 1.985833 1_655
O45 Ti8 1.989738 1_555
O46 Ti4 1.952300 1_565
O47 Ti8 1.962562 1_565
O47 Ti2 1.976977 1_655
