# generated using pymatgen
data_V5Co(PO4)6
_symmetry_space_group_name_H-M   'P 1'
_cell_length_a   8.53241061
_cell_length_b   8.53241061
_cell_length_c   8.53241148
_cell_angle_alpha   60.94848039
_cell_angle_beta   60.94848039
_cell_angle_gamma   60.94848094
_symmetry_Int_Tables_number   1
_chemical_formula_structural   V5Co(PO4)6
_chemical_formula_sum   'V5 Co1 P6 O24'
_cell_volume   448.62572020
_cell_formula_units_Z   1
loop_
 _symmetry_equiv_pos_site_id
 _symmetry_equiv_pos_as_xyz
  1  'x, y, z'
loop_
 _atom_site_type_symbol
 _atom_site_label
 _atom_site_symmetry_multiplicity
 _atom_site_fract_x
 _atom_site_fract_y
 _atom_site_fract_z
 _atom_site_occupancy
  V  V0  1  0.99746200  0.99746200  0.99746200  1
  V  V1  1  0.35507000  0.35507000  0.35507000  1
  V  V2  1  0.49955600  0.49955600  0.49955600  1
  V  V3  1  0.14225100  0.14225100  0.14225100  1
  V  V4  1  0.64481800  0.64481800  0.64481800  1
  Co  Co0  1  0.85420200  0.85420200  0.85420200  1
  P  P0  1  0.45519000  0.75037500  0.04452500  1
  P  P1  1  0.75037500  0.04452500  0.45519000  1
  P  P2  1  0.04452500  0.45519000  0.75037500  1
  P  P3  1  0.95645700  0.54520200  0.25082100  1
  P  P4  1  0.25082100  0.95645700  0.54520200  1
  P  P5  1  0.54520200  0.25082100  0.95645700  1
  O  O0  1  0.67985600  0.88404400  0.50288800  1
  O  O1  1  0.88404400  0.50288800  0.67985600  1
  O  O2  1  0.50288800  0.67985600  0.88404400  1
  O  O3  1  0.25402500  0.90495100  0.05474400  1
  O  O4  1  0.60471300  0.81570800  0.01500800  1
  O  O5  1  0.43262000  0.58655900  0.24297500  1
  O  O6  1  0.90495100  0.05474400  0.25402500  1
  O  O7  1  0.58655900  0.24297500  0.43262000  1
  O  O8  1  0.99366500  0.38889000  0.18699900  1
  O  O9  1  0.24297500  0.43262000  0.58655900  1
  O  O10  1  0.94886000  0.74219000  0.09727200  1
  O  O11  1  0.18699900  0.99366500  0.38889000  1
  O  O12  1  0.81570800  0.01500800  0.60471300  1
  O  O13  1  0.05474400  0.25402500  0.90495100  1
  O  O14  1  0.75804100  0.56196400  0.41440700  1
  O  O15  1  0.01500800  0.60471300  0.81570800  1
  O  O16  1  0.41440700  0.75804100  0.56196400  1
  O  O17  1  0.09727200  0.94886000  0.74219000  1
  O  O18  1  0.56196400  0.41440700  0.75804100  1
  O  O19  1  0.38889000  0.18699900  0.99366500  1
  O  O20  1  0.74219000  0.09727200  0.94886000  1
  O  O21  1  0.49304000  0.32724300  0.11342900  1
  O  O22  1  0.11342900  0.49304000  0.32724300  1
  O  O23  1  0.32724300  0.11342900  0.49304000  1
loop_
_geom_bond_atom_site_label_1
_geom_bond_atom_site_label_2
_geom_bond_distance
_geom_bond_site_symmetry_2
Co0 O4 1.981596 1_556
Co0 O15 1.981596 1_655
Co0 O12 1.981596 1_565
Co0 O17 2.195264 1_655
Co0 O20 2.195264 1_565
Co0 O10 2.195264 1_556
O0 P1 1.556839 1_565
O0 V4 1.887505 1_555
O1 P2 1.556839 1_655
O1 V4 1.887505 1_555
O2 P0 1.556839 1_556
O2 V4 1.887506 1_555
O3 P0 1.568750 1_555
O3 V3 2.113737 1_565
O3 V0 2.154150 1_454
O4 P0 1.498038 1_555
O5 P0 1.582425 1_555
O5 V1 2.018370 1_555
O5 V2 2.212305 1_555
O6 P1 1.568750 1_555
O6 V3 2.113736 1_655
O6 V0 2.154150 1_544
O7 P1 1.582425 1_555
O7 V1 2.018371 1_555
O7 V2 2.212305 1_555
O8 P3 1.517357 1_555
O8 V3 1.975044 1_655
O9 P2 1.582425 1_555
O9 V1 2.018371 1_555
O9 V2 2.212305 1_555
O10 P3 1.543938 1_555
O10 V0 2.091422 1_554
O11 P4 1.517357 1_555
O11 V3 1.975044 1_565
O12 P1 1.498038 1_555
O13 P2 1.568750 1_555
O13 V3 2.113737 1_556
O13 V0 2.154150 1_445
O14 P3 1.580691 1_555
O14 V4 2.034707 1_555
O14 V2 2.210040 1_555
O15 P2 1.498038 1_555
O16 P4 1.580691 1_555
O16 V4 2.034707 1_555
O16 V2 2.210040 1_555
O17 P4 1.543938 1_555
O17 V0 2.091422 1_455
O18 P5 1.580691 1_555
O18 V4 2.034706 1_555
O18 V2 2.210040 1_555
O19 P5 1.517356 1_555
O19 V3 1.975044 1_556
O20 P5 1.543938 1_555
O20 V0 2.091422 1_545
O21 P5 1.550655 1_554
O21 V1 1.881458 1_555
O22 P3 1.550655 1_455
O22 V1 1.881458 1_555
O23 P4 1.550655 1_545
O23 V1 1.881458 1_555
