# generated using pymatgen
data_Sm3Al5O12
_symmetry_space_group_name_H-M   'P 1'
_cell_length_a   10.52898086
_cell_length_b   10.52898084
_cell_length_c   10.52898082
_cell_angle_alpha   109.47123316
_cell_angle_beta   109.47123332
_cell_angle_gamma   109.47123099
_symmetry_Int_Tables_number   1
_chemical_formula_structural   Sm3Al5O12
_chemical_formula_sum   'Sm12 Al20 O48'
_cell_volume   898.53898477
_cell_formula_units_Z   4
loop_
 _symmetry_equiv_pos_site_id
 _symmetry_equiv_pos_as_xyz
  1  'x, y, z'
loop_
 _atom_site_type_symbol
 _atom_site_label
 _atom_site_symmetry_multiplicity
 _atom_site_fract_x
 _atom_site_fract_y
 _atom_site_fract_z
 _atom_site_occupancy
  Sm  Sm0  1  0.75000000  0.12499990  0.37500009  1
  Sm  Sm1  1  0.37500005  0.12499996  0.25000001  1
  Sm  Sm2  1  0.87500009  0.62499991  0.25000000  1
  Sm  Sm3  1  0.24999999  0.37500005  0.12499996  1
  Sm  Sm4  1  0.37500011  0.75000000  0.12499991  1
  Sm  Sm5  1  0.12499996  0.25000001  0.37500003  1
  Sm  Sm6  1  0.87500004  0.74999999  0.62499995  1
  Sm  Sm7  1  0.62499990  0.25000000  0.87500007  1
  Sm  Sm8  1  0.74999999  0.62499993  0.87500004  1
  Sm  Sm9  1  0.62499996  0.87500004  0.75000001  1
  Sm  Sm10  1  0.12499990  0.37500007  0.74999998  1
  Sm  Sm11  1  0.25000000  0.87500010  0.62499992  1
  Al  Al0  1  0.87499973  0.25000002  0.12500016  1
  Al  Al1  1  0.50000000  0.00000001  0.00000001  1
  Al  Al2  1  -0.00000000  -0.00000000  -0.00000000  1
  Al  Al3  1  0.62500026  0.37499983  0.24999998  1
  Al  Al4  1  0.50000000  0.00000000  0.50000000  1
  Al  Al5  1  0.49999999  0.49999999  0.00000000  1
  Al  Al6  1  0.87499985  0.12500028  0.74999998  1
  Al  Al7  1  0.74999998  0.87499985  0.12500029  1
  Al  Al8  1  0.75000002  0.37499972  0.62500015  1
  Al  Al9  1  0.62500016  0.75000002  0.37499972  1
  Al  Al10  1  0.50000000  0.49999999  0.50000000  1
  Al  Al11  1  0.00000001  0.50000000  -0.00000000  1
  Al  Al12  1  0.00000000  0.00000001  0.50000000  1
  Al  Al13  1  0.37499984  0.24999998  0.62500027  1
  Al  Al14  1  0.24999999  0.62500027  0.37499985  1
  Al  Al15  1  0.25000003  0.12500017  0.87499974  1
  Al  Al16  1  0.37499971  0.62500015  0.75000002  1
  Al  Al17  1  0.12500017  0.87499973  0.25000002  1
  Al  Al18  1  0.00000001  0.49999999  0.50000000  1
  Al  Al19  1  0.12500029  0.74999998  0.87499985  1
  O  O0  1  0.90057423  0.01594380  0.31966618  1
  O  O1  1  0.88463036  0.40057411  0.08090825  1
  O  O2  1  0.91909196  0.30372199  0.31966622  1
  O  O3  1  0.98405623  0.68033382  0.09942574  1
  O  O4  1  0.91909174  0.11536965  0.59942590  1
  O  O5  1  0.58090805  0.18033379  0.19627802  1
  O  O6  1  0.61536962  0.41909173  0.09942588  1
  O  O7  1  0.19627777  0.11536968  0.01594393  1
  O  O8  1  0.69627800  0.68033377  0.08090805  1
  O  O9  1  0.59942574  0.18033380  0.48405619  1
  O  O10  1  0.90057410  0.38463033  0.58090825  1
  O  O11  1  0.11536968  0.01594393  0.19627777  1
  O  O12  1  0.81966618  0.51594379  0.40057425  1
  O  O13  1  0.68033378  0.08090806  0.69627801  1
  O  O14  1  0.48405608  0.38463032  0.30372223  1
  O  O15  1  0.48405620  0.59942576  0.18033380  1
  O  O16  1  0.41909177  0.09942592  0.61536966  1
  O  O17  1  0.01594393  0.19627777  0.11536969  1
  O  O18  1  0.81966621  0.80372198  0.41909193  1
  O  O19  1  0.38463032  0.30372223  0.48405607  1
  O  O20  1  0.68033381  0.09942575  0.98405620  1
  O  O21  1  0.69627774  0.51594391  0.61536968  1
  O  O22  1  0.80372199  0.41909195  0.81966623  1
  O  O23  1  0.59942592  0.91909177  0.11536969  1
  O  O24  1  0.30372223  0.48405606  0.38463031  1
  O  O25  1  0.40057410  0.08090825  0.88463034  1
  O  O26  1  0.19627801  0.58090805  0.18033377  1
  O  O27  1  0.18033379  0.19627804  0.58090806  1
  O  O28  1  0.61536967  0.69627775  0.51594391  1
  O  O29  1  0.31966619  0.90057425  0.01594381  1
  O  O30  1  0.58090823  0.90057409  0.38463034  1
  O  O31  1  0.51594380  0.40057425  0.81966620  1
  O  O32  1  0.98405607  0.80372224  0.88463031  1
  O  O33  1  0.51594391  0.61536966  0.69627775  1
  O  O34  1  0.31966622  0.91909195  0.30372199  1
  O  O35  1  0.18033382  0.48405622  0.59942574  1
  O  O36  1  0.88463033  0.98405609  0.80372224  1
  O  O37  1  0.40057425  0.81966619  0.51594382  1
  O  O38  1  0.30372199  0.31966623  0.91909196  1
  O  O39  1  0.09942590  0.61536966  0.41909175  1
  O  O40  1  0.80372223  0.88463033  0.98405608  1
  O  O41  1  0.38463035  0.58090824  0.90057409  1
  O  O42  1  0.41909194  0.81966620  0.80372199  1
  O  O43  1  0.01594379  0.31966619  0.90057426  1
  O  O44  1  0.08090826  0.88463037  0.40057411  1
  O  O45  1  0.08090805  0.69627802  0.68033378  1
  O  O46  1  0.11536965  0.59942590  0.91909175  1
  O  O47  1  0.09942577  0.98405622  0.68033382  1
loop_
_geom_bond_atom_site_label_1
_geom_bond_atom_site_label_2
_geom_bond_distance
_geom_bond_site_symmetry_2
Al0 O20 1.775993 1_554
Al0 O1 1.775993 1_555
Al0 O2 1.775994 1_555
Al0 O17 1.775999 1_655
Al1 O29 1.932301 1_545
Al1 O20 1.932301 1_554
Al1 O5 1.932303 1_555
Al1 O42 1.932303 1_544
Al1 O25 1.932304 1_554
Al1 O23 1.932304 1_545
Al2 O32 1.932302 1_444
Al2 O36 1.932302 1_444
Al2 O11 1.932302 1_555
Al2 O17 1.932302 1_555
Al2 O7 1.932302 1_555
Al2 O40 1.932302 1_444
Al3 O12 1.775993 1_555
Al3 O6 1.775993 1_555
Al3 O5 1.775993 1_555
Al3 O14 1.775998 1_555
Al4 O9 1.932301 1_555
Al4 O37 1.932301 1_545
Al4 O13 1.932303 1_555
Al4 O34 1.932303 1_545
Al4 O30 1.932304 1_545
Al4 O16 1.932304 1_555
Al5 O15 1.932301 1_555
Al5 O31 1.932301 1_554
Al5 O38 1.932303 1_554
Al5 O8 1.932303 1_555
Al5 O6 1.932304 1_555
Al5 O41 1.932304 1_554
Al6 O43 1.775993 1_655
Al6 O4 1.775993 1_555
Al6 O13 1.775994 1_555
Al6 O36 1.775999 1_545
Al7 O0 1.775993 1_565
Al7 O23 1.775993 1_555
Al7 O8 1.775994 1_555
Al7 O40 1.775999 1_554
Al8 O9 1.775993 1_555
Al8 O10 1.775993 1_555
Al8 O22 1.775994 1_555
Al8 O21 1.775999 1_555
Al9 O15 1.775993 1_555
Al9 O30 1.775993 1_555
Al9 O18 1.775994 1_555
Al9 O28 1.775999 1_555
Al10 O21 1.932302 1_555
Al10 O33 1.932302 1_555
Al10 O19 1.932302 1_555
Al10 O14 1.932302 1_555
Al10 O24 1.932302 1_555
Al10 O28 1.932302 1_555
Al11 O43 1.932301 1_554
Al11 O3 1.932301 1_455
Al11 O26 1.932302 1_555
Al11 O22 1.932303 1_454
Al11 O46 1.932304 1_554
Al11 O1 1.932304 1_455
Al12 O0 1.932301 1_455
Al12 O47 1.932301 1_545
Al12 O18 1.932303 1_445
Al12 O27 1.932303 1_555
Al12 O44 1.932304 1_545
Al12 O4 1.932304 1_455
Al13 O31 1.775993 1_555
Al13 O16 1.775993 1_555
Al13 O27 1.775994 1_555
Al13 O19 1.775999 1_555
Al14 O37 1.775993 1_555
Al14 O39 1.775993 1_555
Al14 O26 1.775994 1_555
Al14 O24 1.775999 1_555
Al15 O47 1.775993 1_545
Al15 O25 1.775993 1_555
Al15 O38 1.775994 1_555
Al15 O7 1.775999 1_556
Al16 O35 1.775993 1_555
Al16 O41 1.775993 1_555
Al16 O42 1.775993 1_555
Al16 O33 1.775999 1_555
Al17 O3 1.775993 1_455
Al17 O44 1.775993 1_555
Al17 O34 1.775994 1_555
Al17 O11 1.775999 1_565
Al18 O35 1.932301 1_555
Al18 O12 1.932301 1_455
Al18 O2 1.932303 1_455
Al18 O45 1.932303 1_555
Al18 O39 1.932304 1_555
Al18 O10 1.932304 1_455
Al19 O29 1.775993 1_556
Al19 O46 1.775993 1_555
Al19 O45 1.775994 1_555
Al19 O32 1.775999 1_455
O0 Sm0 2.356860 1_555
O0 Sm5 2.497814 1_655
O1 Sm7 2.356860 1_554
O1 Sm2 2.497813 1_555
O2 Sm5 2.356857 1_655
O2 Sm0 2.497814 1_555
O3 Sm2 2.356861 1_555
O3 Sm8 2.497814 1_554
O4 Sm10 2.356860 1_655
O4 Sm0 2.497813 1_555
O5 Sm1 2.356858 1_555
O5 Sm0 2.497813 1_555
O6 Sm2 2.356860 1_555
O6 Sm7 2.497813 1_554
O7 Sm3 2.356860 1_555
O7 Sm1 2.497814 1_555
O8 Sm8 2.356858 1_554
O8 Sm2 2.497813 1_555
O9 Sm0 2.356861 1_555
O9 Sm1 2.497814 1_555
O10 Sm0 2.356860 1_555
O10 Sm10 2.497813 1_655
O11 Sm1 2.356860 1_555
O11 Sm5 2.497814 1_555
O12 Sm2 2.356861 1_555
O12 Sm6 2.497814 1_555
O13 Sm9 2.356858 1_545
O13 Sm7 2.497813 1_555
O14 Sm1 2.356860 1_555
O14 Sm3 2.497814 1_555
O15 Sm4 2.356860 1_555
O15 Sm3 2.497814 1_555
O16 Sm7 2.356860 1_555
O16 Sm11 2.497813 1_545
O17 Sm5 2.356860 1_555
O17 Sm3 2.497814 1_555
O18 Sm6 2.356858 1_555
O18 Sm2 2.497813 1_555
O19 Sm5 2.356860 1_555
O19 Sm1 2.497814 1_555
O20 Sm7 2.356861 1_555
O20 Sm9 2.497814 1_545
O21 Sm8 2.356860 1_555
O21 Sm6 2.497814 1_555
O22 Sm8 2.356857 1_555
O22 Sm7 2.497813 1_555
O23 Sm0 2.356860 1_565
O23 Sm4 2.497813 1_555
O24 Sm3 2.356860 1_555
O24 Sm5 2.497814 1_555
O25 Sm11 2.356860 1_545
O25 Sm7 2.497813 1_555
O26 Sm3 2.356857 1_555
O26 Sm4 2.497814 1_555
O27 Sm5 2.356858 1_555
O27 Sm10 2.497813 1_555
O28 Sm6 2.356860 1_555
O28 Sm9 2.497814 1_555
O29 Sm4 2.356861 1_555
O29 Sm1 2.497814 1_565
O30 Sm4 2.356860 1_555
O30 Sm0 2.497813 1_565
O31 Sm7 2.356860 1_555
O31 Sm8 2.497814 1_555
O32 Sm6 2.356860 1_555
O32 Sm8 2.497814 1_555
O33 Sm9 2.356860 1_555
O33 Sm8 2.497814 1_555
O34 Sm1 2.356858 1_565
O34 Sm4 2.497814 1_555
O35 Sm10 2.356861 1_555
O35 Sm5 2.497814 1_555
O36 Sm9 2.356860 1_555
O36 Sm6 2.497814 1_555
O37 Sm11 2.356861 1_555
O37 Sm9 2.497814 1_555
O38 Sm3 2.356858 1_556
O38 Sm10 2.497813 1_555
O39 Sm11 2.356860 1_555
O39 Sm2 2.497813 1_455
O40 Sm8 2.356860 1_555
O40 Sm9 2.497814 1_555
O41 Sm10 2.356860 1_555
O41 Sm4 2.497813 1_556
O42 Sm9 2.356858 1_555
O42 Sm11 2.497814 1_555
O43 Sm10 2.356861 1_555
O43 Sm3 2.497814 1_556
O44 Sm2 2.356860 1_455
O44 Sm11 2.497813 1_555
O45 Sm6 2.356858 1_455
O45 Sm11 2.497813 1_555
O46 Sm4 2.356860 1_556
O46 Sm10 2.497813 1_555
O47 Sm11 2.356860 1_555
O47 Sm6 2.497814 1_455
