# generated using pymatgen
data_BaB2H2O5
_symmetry_space_group_name_H-M   'P 1'
_cell_length_a   7.24335200
_cell_length_b   7.05629300
_cell_length_c   11.98664859
_cell_angle_alpha   89.01435574
_cell_angle_beta   90.00000000
_cell_angle_gamma   90.00000000
_symmetry_Int_Tables_number   1
_chemical_formula_structural   BaB2H2O5
_chemical_formula_sum   'Ba6 B12 H12 O30'
_cell_volume   612.56151106
_cell_formula_units_Z   6
loop_
 _symmetry_equiv_pos_site_id
 _symmetry_equiv_pos_as_xyz
  1  'x, y, z'
loop_
 _atom_site_type_symbol
 _atom_site_label
 _atom_site_symmetry_multiplicity
 _atom_site_fract_x
 _atom_site_fract_y
 _atom_site_fract_z
 _atom_site_occupancy
  Ba  Ba0  1  0.37074500  0.00000000  0.75000000  1
  Ba  Ba1  1  0.62925500  0.00000000  0.25000000  1
  Ba  Ba2  1  0.77405200  0.68044800  0.55368100  1
  Ba  Ba3  1  0.22594800  0.68044800  0.05368100  1
  Ba  Ba4  1  0.77405200  0.31955200  0.94631900  1
  Ba  Ba5  1  0.22594800  0.31955200  0.44631900  1
  B  B0  1  0.86062000  0.00000000  0.75000000  1
  B  B1  1  0.13938000  0.00000000  0.25000000  1
  B  B2  1  0.76325700  0.82621000  0.93367800  1
  B  B3  1  0.23674300  0.82621000  0.43367800  1
  B  B4  1  0.00126700  0.66367100  0.80172000  1
  B  B5  1  0.99873300  0.66367100  0.30172000  1
  B  B6  1  0.30898200  0.50000000  0.75000000  1
  B  B7  1  0.69101800  0.50000000  0.25000000  1
  B  B8  1  0.00126700  0.33632900  0.69828000  1
  B  B9  1  0.99873300  0.33632900  0.19828000  1
  B  B10  1  0.76325700  0.17379000  0.56632200  1
  B  B11  1  0.23674300  0.17379000  0.06632200  1
  H  H0  1  0.11450600  0.88291000  0.59020100  1
  H  H1  1  0.88549400  0.88291000  0.09020100  1
  H  H2  1  0.55252600  0.64404100  0.88134000  1
  H  H3  1  0.44747400  0.64404100  0.38134000  1
  H  H4  1  0.38324200  0.64438000  0.60479200  1
  H  H5  1  0.61675800  0.64438000  0.10479200  1
  H  H6  1  0.38324200  0.35562000  0.89520800  1
  H  H7  1  0.61675800  0.35562000  0.39520800  1
  H  H8  1  0.55252600  0.35595900  0.61866000  1
  H  H9  1  0.44747400  0.35595900  0.11866000  1
  H  H10  1  0.11450600  0.11709000  0.90979900  1
  H  H11  1  0.88549400  0.11709000  0.40979900  1
  O  O0  1  0.73384700  0.96584100  0.84547500  1
  O  O1  1  0.26615300  0.96584100  0.34547500  1
  O  O2  1  0.21658900  0.92818500  0.54240700  1
  O  O3  1  0.78341100  0.92818500  0.04240700  1
  O  O4  1  0.98133800  0.83411100  0.72721600  1
  O  O5  1  0.01866200  0.83411100  0.22721600  1
  O  O6  1  0.58383300  0.71248600  0.94930300  1
  O  O7  1  0.91851500  0.69851900  0.91451100  1
  O  O8  1  0.41616700  0.71248600  0.44930300  1
  O  O9  1  0.08148500  0.69851900  0.41451100  1
  O  O10  1  0.20030300  0.62294800  0.82168600  1
  O  O11  1  0.44099200  0.61521400  0.67721000  1
  O  O12  1  0.79969700  0.62294800  0.32168600  1
  O  O13  1  0.55900800  0.61521400  0.17721000  1
  O  O14  1  0.90790200  0.50000000  0.75000000  1
  O  O15  1  0.09209800  0.50000000  0.25000000  1
  O  O16  1  0.44099200  0.38478600  0.82279000  1
  O  O17  1  0.20030300  0.37705200  0.67831400  1
  O  O18  1  0.55900800  0.38478600  0.32279000  1
  O  O19  1  0.79969700  0.37705200  0.17831400  1
  O  O20  1  0.91851500  0.30148100  0.58548900  1
  O  O21  1  0.58383300  0.28751400  0.55069700  1
  O  O22  1  0.08148500  0.30148100  0.08548900  1
  O  O23  1  0.41616700  0.28751400  0.05069700  1
  O  O24  1  0.98133800  0.16588900  0.77278400  1
  O  O25  1  0.01866200  0.16588900  0.27278400  1
  O  O26  1  0.21658900  0.07181500  0.95759300  1
  O  O27  1  0.78341100  0.07181500  0.45759300  1
  O  O28  1  0.73384700  0.03415900  0.65452500  1
  O  O29  1  0.26615300  0.03415900  0.15452500  1
loop_
_geom_bond_atom_site_label_1
_geom_bond_atom_site_label_2
_geom_bond_distance
_geom_bond_site_symmetry_2
Ba0 O26 2.781877 1_555
Ba0 O2 2.781877 1_545
Ba0 H10 2.801946 1_555
Ba0 H0 2.801946 1_545
Ba0 O0 2.876737 1_545
Ba0 O28 2.876737 1_555
Ba0 O16 2.910976 1_555
Ba0 O11 2.910976 1_545
Ba0 O10 3.043452 1_545
Ba0 O17 3.043452 1_555
Ba0 O24 3.067841 1_455
Ba0 O4 3.067841 1_445
Ba1 O27 2.781877 1_555
Ba1 O3 2.781877 1_545
Ba1 H11 2.801946 1_555
Ba1 H1 2.801946 1_545
Ba1 O1 2.876737 1_545
Ba1 O29 2.876737 1_555
Ba1 O18 2.910976 1_555
Ba1 O13 2.910976 1_545
Ba1 O12 3.043452 1_545
Ba1 O19 3.043452 1_555
Ba1 O25 3.067841 1_655
Ba1 O5 3.067841 1_645
Ba2 O9 2.783992 1_655
Ba2 O4 2.799009 1_555
Ba2 O28 2.806994 1_565
Ba2 O12 2.823301 1_555
Ba2 O14 2.827676 1_555
Ba2 O11 2.863725 1_555
Ba2 O8 2.885600 1_555
Ba2 H0 2.887114 1_655
Ba2 O20 2.890685 1_555
Ba2 H8 2.891831 1_555
Ba2 O27 2.974590 1_565
Ba3 O7 2.783992 1_454
Ba3 O5 2.799009 1_555
Ba3 O29 2.806994 1_565
Ba3 O10 2.823301 1_554
Ba3 O15 2.827676 1_555
Ba3 O13 2.863725 1_555
Ba3 O6 2.885600 1_554
Ba3 H1 2.887114 1_455
Ba3 O22 2.890685 1_555
Ba3 H9 2.891831 1_555
Ba3 O26 2.974590 1_564
Ba4 O22 2.783992 1_656
Ba4 O24 2.799009 1_555
Ba4 O0 2.806994 1_545
Ba4 O19 2.823301 1_556
Ba4 O14 2.827676 1_555
Ba4 O16 2.863725 1_555
Ba4 O23 2.885600 1_556
Ba4 H10 2.887114 1_655
Ba4 O7 2.890685 1_555
Ba4 H2 2.891831 1_555
Ba4 O3 2.974590 1_546
Ba5 O20 2.783992 1_455
Ba5 O25 2.799009 1_555
Ba5 O1 2.806994 1_545
Ba5 O17 2.823301 1_555
Ba5 O15 2.827676 1_555
Ba5 O18 2.863725 1_555
Ba5 O21 2.885600 1_555
Ba5 H11 2.887114 1_455
Ba5 O9 2.890685 1_555
Ba5 H3 2.891831 1_555
Ba5 O2 2.974590 1_545
B0 O0 1.483752 1_545
B0 O28 1.483752 1_555
B0 O24 1.490093 1_555
B0 O4 1.490093 1_545
B1 O1 1.483752 1_545
B1 O29 1.483752 1_555
B1 O25 1.490093 1_555
B1 O5 1.490093 1_545
B2 O0 1.448485 1_555
B2 O7 1.461660 1_555
B2 O3 1.506629 1_556
B2 O6 1.537175 1_555
B3 O1 1.448485 1_555
B3 O9 1.461660 1_555
B3 O2 1.506629 1_555
B3 O8 1.537175 1_555
B4 O14 1.483286 1_455
B4 O10 1.488606 1_555
B4 O4 1.492601 1_455
B4 O7 1.503014 1_455
B5 O15 1.483286 1_655
B5 O12 1.488606 1_555
B5 O5 1.492601 1_655
B5 O9 1.503014 1_655
B6 O10 1.461622 1_555
B6 O17 1.461622 1_555
B6 O11 1.520565 1_555
B6 O16 1.520565 1_555
B7 O12 1.461622 1_555
B7 O19 1.461622 1_555
B7 O13 1.520565 1_555
B7 O18 1.520565 1_555
B8 O14 1.483286 1_455
B8 O17 1.488606 1_555
B8 O24 1.492601 1_455
B8 O20 1.503014 1_455
B9 O15 1.483286 1_655
B9 O19 1.488606 1_555
B9 O25 1.492601 1_655
B9 O22 1.503014 1_655
B10 O28 1.448485 1_555
B10 O20 1.461660 1_555
B10 O27 1.506629 1_555
B10 O21 1.537175 1_555
B11 O29 1.448485 1_555
B11 O22 1.461660 1_555
B11 O26 1.506629 1_554
B11 O23 1.537175 1_555
H0 O2 0.985249 1_555
H1 O3 0.985249 1_555
H2 O6 0.980750 1_555
H3 O8 0.980750 1_555
H4 O11 0.982189 1_555
H5 O13 0.982189 1_555
H6 O16 0.982189 1_555
H7 O18 0.982189 1_555
H8 O21 0.980750 1_555
H9 O23 0.980750 1_555
H10 O26 0.985249 1_555
H11 O27 0.985249 1_555
