# generated using pymatgen
data_Ca12Mn8Si7(H5O16)3
_symmetry_space_group_name_H-M   'P 1'
_cell_length_a   11.55092900
_cell_length_b   11.56961202
_cell_length_c   12.13331476
_cell_angle_alpha   91.44858873
_cell_angle_beta   117.34753719
_cell_angle_gamma   119.20570187
_symmetry_Int_Tables_number   1
_chemical_formula_structural   Ca12Mn8Si7(H5O16)3
_chemical_formula_sum   'Ca12 Mn8 Si7 H15 O48'
_cell_volume   1190.33482949
_cell_formula_units_Z   1
loop_
 _symmetry_equiv_pos_site_id
 _symmetry_equiv_pos_as_xyz
  1  'x, y, z'
loop_
 _atom_site_type_symbol
 _atom_site_label
 _atom_site_symmetry_multiplicity
 _atom_site_fract_x
 _atom_site_fract_y
 _atom_site_fract_z
 _atom_site_occupancy
  Ca  Ca0  1  0.93745300  0.78400500  0.10669500  1
  Ca  Ca1  1  0.76840200  0.62223400  0.29525700  1
  Ca  Ca2  1  0.42399900  0.18080400  0.77740700  1
  Ca  Ca3  1  0.86454700  0.61558000  0.75835900  1
  Ca  Ca4  1  0.76676500  0.10842900  0.89221100  1
  Ca  Ca5  1  0.62996300  0.30808000  0.42599100  1
  Ca  Ca6  1  0.35164600  0.79774200  0.70913000  1
  Ca  Ca7  1  0.34160400  0.87238400  0.18467900  1
  Ca  Ca8  1  0.12430900  0.39317800  0.23299300  1
  Ca  Ca9  1  0.64863800  0.83204100  0.15441000  1
  Ca  Ca10  1  0.22297600  0.41244700  0.66991800  1
  Ca  Ca11  1  0.15870800  0.33060600  0.93793600  1
  Mn  Mn0  1  0.05891600  0.07922300  0.58220300  1
  Mn  Mn1  1  0.00341600  0.99944000  0.92983700  1
  Mn  Mn2  1  0.53813800  0.08948600  0.01547600  1
  Mn  Mn3  1  0.99714600  0.48645900  0.44879100  1
  Mn  Mn4  1  0.51100400  0.98381700  0.55296800  1
  Mn  Mn5  1  0.92999200  0.45356200  0.97055000  1
  Mn  Mn6  1  0.53958200  0.52872100  0.92967400  1
  Mn  Mn7  1  0.50062900  0.51800400  0.44896600  1
  Si  Si0  1  0.39618800  0.19994100  0.13445000  1
  Si  Si1  1  0.13600200  0.76271500  0.36187000  1
  Si  Si2  1  0.16810700  0.85332100  0.83850000  1
  Si  Si3  1  0.85706200  0.19332200  0.26588800  1
  Si  Si4  1  0.88320000  0.14580800  0.66924300  1
  Si  Si5  1  0.62505500  0.75519000  0.76083200  1
  Si  Si6  1  0.46385200  0.64286100  0.24131800  1
  H  H0  1  0.21302400  0.06015700  0.89545800  1
  H  H1  1  0.81091500  0.05474000  0.39916400  1
  H  H2  1  0.69483600  0.38493400  0.76491400  1
  H  H3  1  0.56948200  0.55874600  0.66168200  1
  H  H4  1  0.44530800  0.78714200  0.40309100  1
  H  H5  1  0.96314600  0.63985100  0.56063000  1
  H  H6  1  0.44039700  0.44004600  0.17459800  1
  H  H7  1  0.71797600  0.03134800  0.06078500  1
  H  H8  1  0.75081100  0.52235400  0.92021500  1
  H  H9  1  0.91441700  0.32581600  0.56482200  1
  H  H10  1  0.63117300  0.20528600  0.70178800  1
  H  H11  1  0.31730300  0.28150300  0.28311200  1
  H  H12  1  0.10391500  0.63615100  0.18021800  1
  H  H13  1  0.02163700  0.86242500  0.58278900  1
  H  H14  1  0.96009400  0.07718600  0.10457400  1
  O  O0  1  0.81206600  0.80394500  0.83998500  1
  O  O1  1  0.01798300  0.91574600  0.51897500  1
  O  O2  1  0.56279500  0.42309500  0.84518400  1
  O  O3  1  0.86825300  0.58767900  0.96102800  1
  O  O4  1  0.65327100  0.71731000  0.31781500  1
  O  O5  1  0.16105000  0.77306100  0.94394300  1
  O  O6  1  0.52661700  0.36567000  0.22998100  1
  O  O7  1  0.02604600  0.30800500  0.71062800  1
  O  O8  1  0.34930000  0.43249700  0.88812800  1
  O  O9  1  0.90442100  0.57422800  0.46966400  1
  O  O10  1  0.31325900  0.33528200  0.34232300  1
  O  O11  1  0.53223600  0.11506700  0.67729900  1
  O  O12  1  0.18926500  0.13229200  0.74320000  1
  O  O13  1  0.92202700  0.10054400  0.80341000  1
  O  O14  1  0.02733600  0.75057800  0.68923100  1
  O  O15  1  0.58904500  0.87344700  0.72409600  1
  O  O16  1  0.29756300  0.85940100  0.51088600  1
  O  O17  1  0.63982000  0.47490100  0.55003500  1
  O  O18  1  0.08301100  0.54397000  0.14552600  1
  O  O19  1  0.42297500  0.16402200  0.01715200  1
  O  O20  1  0.85545800  0.33165600  0.47662600  1
  O  O21  1  0.11833700  0.96423900  0.86681500  1
  O  O22  1  0.33587300  0.94722400  0.84379500  1
  O  O23  1  0.63291300  0.19009400  0.93932900  1
  O  O24  1  0.42426600  0.73755300  0.15467200  1
  O  O25  1  0.69135200  0.18615300  0.19085600  1
  O  O26  1  0.91883300  0.99462000  0.03574800  1
  O  O27  1  0.07363400  0.59918100  0.36137300  1
  O  O28  1  0.59894200  0.96082800  0.00569800  1
  O  O29  1  0.78473600  0.38413800  0.77848100  1
  O  O30  1  0.40101800  0.60323100  0.34220500  1
  O  O31  1  0.71559300  0.13141500  0.59963200  1
  O  O32  1  0.41074900  0.10555300  0.23137000  1
  O  O33  1  0.16855900  0.56901000  0.61180300  1
  O  O34  1  0.16489300  0.78943800  0.24092200  1
  O  O35  1  0.81080400  0.05252300  0.31698800  1
  O  O36  1  0.48797700  0.88592600  0.40974700  1
  O  O37  1  0.54899200  0.62522200  0.62232500  1
  O  O38  1  0.01336400  0.34801600  0.37146300  1
  O  O39  1  0.69000100  0.66189400  0.08411300  1
  O  O40  1  0.99076900  0.78109300  0.31203800  1
  O  O41  1  0.51616300  0.66047400  0.81530600  1
  O  O42  1  0.89680900  0.16320400  0.15952900  1
  O  O43  1  0.15658500  0.20768300  0.53619900  1
  O  O44  1  0.98620700  0.32616000  0.98602900  1
  O  O45  1  0.38084800  0.48697300  0.13821700  1
  O  O46  1  0.88084800  0.05200100  0.55877500  1
  O  O47  1  0.21451800  0.17178200  0.05206600  1
loop_
_geom_bond_atom_site_label_1
_geom_bond_atom_site_label_2
_geom_bond_distance
_geom_bond_site_symmetry_2
Ca0 O40 2.280938 1_555
Ca0 O34 2.336840 1_655
Ca0 O39 2.358174 1_555
Ca0 O3 2.376813 1_554
Ca0 O26 2.678124 1_555
Ca0 O0 2.946300 1_554
Ca1 O4 2.190944 1_555
Ca1 O40 2.215955 1_555
Ca1 O9 2.260825 1_555
Ca1 O39 2.434591 1_555
Ca1 O6 2.645164 1_555
Ca2 O23 2.252777 1_555
Ca2 O12 2.303932 1_555
Ca2 O2 2.321827 1_555
Ca2 O11 2.427626 1_555
Ca2 O22 2.677123 1_545
Ca2 O19 2.925316 1_556
Ca3 O14 2.308228 1_655
Ca3 O17 2.327425 1_555
Ca3 O29 2.431121 1_555
Ca3 H2 2.453363 1_555
Ca3 O3 2.471811 1_555
Ca3 O5 2.595610 1_655
Ca3 H3 2.743243 1_555
Ca3 O0 2.798125 1_555
Ca4 O44 2.244813 1_555
Ca4 O23 2.412555 1_555
Ca4 O15 2.488360 1_545
Ca4 O13 2.513093 1_555
Ca5 O20 2.250362 1_555
Ca5 O17 2.341907 1_555
Ca5 O6 2.402698 1_555
Ca5 O32 2.432012 1_555
Ca6 O33 2.226197 1_555
Ca6 O15 2.347388 1_555
Ca6 O16 2.413705 1_555
Ca6 O22 2.476299 1_555
Ca7 O34 2.225830 1_555
Ca7 O24 2.285150 1_555
Ca7 O32 2.375004 1_565
Ca7 O36 2.412118 1_555
Ca7 O5 2.469090 1_554
Ca8 O18 2.199575 1_555
Ca8 O42 2.384128 1_455
Ca8 O10 2.404883 1_555
Ca8 O38 2.471266 1_555
Ca8 O30 2.498679 1_555
Ca8 O44 2.531513 1_454
Ca9 O24 2.270425 1_555
Ca9 O35 2.365297 1_565
Ca9 O4 2.408447 1_555
Ca9 O28 2.413381 1_555
Ca9 O39 2.457292 1_555
Ca10 O33 2.223028 1_555
Ca10 O7 2.293157 1_555
Ca10 O8 2.298247 1_555
Ca10 O43 2.392143 1_555
Ca10 O41 2.754398 1_555
Ca11 O45 2.297995 1_556
Ca11 O44 2.298511 1_455
Ca11 O8 2.308092 1_555
Ca11 O7 2.390107 1_555
Ca11 O13 2.408764 1_455
Ca11 O47 2.484792 1_556
Mn0 O43 1.666563 1_555
Mn0 O12 1.671754 1_555
Mn0 O1 1.763527 1_545
Mn0 O46 1.799092 1_455
Mn1 O26 1.926915 1_456
Mn1 O47 1.975902 1_566
Mn1 O21 1.989253 1_555
Mn1 O0 1.993067 1_455
Mn1 O13 2.108105 1_465
Mn2 O23 1.773999 1_554
Mn2 O25 1.843649 1_555
Mn2 O19 1.912342 1_555
Mn2 O28 1.952163 1_545
Mn2 O22 2.027111 1_544
Mn3 O33 1.790383 1_655
Mn3 O27 1.847402 1_655
Mn3 O9 1.881506 1_555
Mn3 O20 1.917864 1_555
Mn3 O38 1.964503 1_655
Mn4 O36 1.885483 1_555
Mn4 O31 1.898653 1_565
Mn4 O16 1.937536 1_555
Mn4 O11 1.955138 1_565
Mn4 O15 2.508409 1_555
Mn5 O18 1.833381 1_656
Mn5 O44 1.861600 1_555
Mn5 O29 1.972033 1_555
Mn5 O3 1.985673 1_555
Mn6 O8 1.700044 1_555
Mn6 O2 1.767824 1_555
Mn6 O39 1.776037 1_556
Mn6 O41 2.118216 1_555
Mn7 O17 1.827393 1_555
Mn7 O10 1.910805 1_555
Mn7 O30 1.943327 1_555
Mn7 O37 2.094617 1_555
H0 O21 0.997650 1_545
H1 O35 0.996144 1_555
H1 O46 1.730540 1_555
H2 O29 0.978709 1_555
H3 O37 0.983839 1_555
H4 O36 0.982187 1_555
H5 O9 1.010904 1_555
H5 O14 1.592050 1_655
H6 O45 1.029734 1_555
H6 O6 1.560310 1_555
H7 O28 1.017950 1_545
H7 O42 1.608775 1_555
H8 O3 1.009960 1_555
H8 O2 1.600262 1_555
H9 O20 0.996234 1_555
H9 O7 1.736868 1_655
H10 O11 0.996017 1_555
H11 O10 0.970592 1_555
H12 O18 1.002753 1_555
H12 O34 1.556303 1_555
H13 O1 1.000694 1_555
H14 O26 0.993340 1_545
O0 Si5 1.668593 1_555
O4 Si6 1.626400 1_555
O5 Si2 1.608636 1_555
O6 Si0 1.659486 1_555
O7 Si4 1.632656 1_455
O13 Si4 1.651344 1_555
O14 Si2 1.623672 1_555
O15 Si5 1.630796 1_555
O16 Si1 1.662360 1_555
O19 Si0 1.671570 1_555
O21 Si2 1.724663 1_555
O22 Si2 1.663498 1_555
O24 Si6 1.618637 1_555
O25 Si3 1.655203 1_555
O27 Si1 1.662541 1_555
O30 Si6 1.659909 1_555
O31 Si4 1.632535 1_555
O32 Si0 1.632837 1_555
O34 Si1 1.653093 1_555
O35 Si3 1.682125 1_555
O37 Si5 1.756016 1_555
O38 Si3 1.646067 1_455
O40 Si1 1.627183 1_655
O41 Si5 1.635571 1_555
O42 Si3 1.635637 1_555
O45 Si6 1.683278 1_555
O46 Si4 1.685045 1_555
O47 Si0 1.702348 1_555
