# generated using pymatgen
data_KCd2H8C10N15O4
_symmetry_space_group_name_H-M   'P 1'
_cell_length_a   11.52515400
_cell_length_b   11.61181475
_cell_length_c   11.61861669
_cell_angle_alpha   115.73624049
_cell_angle_beta   116.54418277
_cell_angle_gamma   96.27763412
_symmetry_Int_Tables_number   1
_chemical_formula_structural   KCd2H8C10N15O4
_chemical_formula_sum   'K2 Cd4 H16 C20 N30 O8'
_cell_volume   1160.81295304
_cell_formula_units_Z   2
loop_
 _symmetry_equiv_pos_site_id
 _symmetry_equiv_pos_as_xyz
  1  'x, y, z'
loop_
 _atom_site_type_symbol
 _atom_site_label
 _atom_site_symmetry_multiplicity
 _atom_site_fract_x
 _atom_site_fract_y
 _atom_site_fract_z
 _atom_site_occupancy
  K  K0  1  0.49999300  0.00169400  0.50339100  1
  K  K1  1  0.00309500  0.49996300  0.50193100  1
  Cd  Cd0  1  0.25789900  0.75964600  0.99567500  1
  Cd  Cd1  1  0.75685700  0.25324000  0.99250400  1
  Cd  Cd2  1  0.24154400  0.24209500  0.50575100  1
  Cd  Cd3  1  0.74610600  0.74952000  0.51263000  1
  H  H0  1  0.32052900  0.19036500  0.93888500  1
  H  H1  1  0.29129600  0.51849000  0.00030500  1
  H  H2  1  0.51835300  0.27491100  0.99437800  1
  H  H3  1  0.38086500  0.46878400  0.82356800  1
  H  H4  1  0.48105300  0.47956800  0.76546200  1
  H  H5  1  0.65995300  0.57730900  0.75570800  1
  H  H6  1  0.17841700  0.41994300  0.07196000  1
  H  H7  1  0.42364700  0.18920500  0.08394800  1
  H  H8  1  0.64709300  0.57426100  0.20196800  1
  H  H9  1  0.44732000  0.61763700  0.09208200  1
  H  H10  1  0.62701500  0.42414800  0.07918000  1
  H  H11  1  0.69204300  0.71306900  0.21924700  1
  H  H12  1  0.85189000  0.94343900  0.29337500  1
  H  H13  1  0.94188500  0.85201200  0.29357500  1
  H  H14  1  0.67578100  0.76455000  0.04215200  1
  H  H15  1  0.76787900  0.67742300  0.04578100  1
  C  C0  1  0.02931900  0.16264500  0.00009800  1
  C  C1  1  0.22771200  0.01073800  0.60516700  1
  C  C2  1  0.01318800  0.23025200  0.60991800  1
  C  C3  1  0.77013400  0.37892500  0.78258200  1
  C  C4  1  0.37891200  0.76964100  0.78432900  1
  C  C5  1  0.85921100  0.07305700  0.59899400  1
  C  C6  1  0.06960900  0.85624200  0.59459400  1
  C  C7  1  0.52495300  0.92719400  0.78701200  1
  C  C8  1  0.92842600  0.52521300  0.78822100  1
  C  C9  1  0.84116800  0.84127700  0.87251500  1
  C  C10  1  0.26083500  0.47560600  0.40170600  1
  C  C11  1  0.47541400  0.26103700  0.40008700  1
  C  C12  1  0.40668100  0.62263000  0.39330800  1
  C  C13  1  0.62025600  0.40418500  0.38811400  1
  C  C14  1  0.16048900  0.02854800  0.99974000  1
  C  C15  1  0.13889400  0.73618800  0.21101200  1
  C  C16  1  0.73797900  0.13914200  0.21330400  1
  C  C17  1  0.98392500  0.59482100  0.21506900  1
  C  C18  1  0.59395100  0.98388000  0.21417900  1
  C  C19  1  0.97585300  0.97595500  0.13472200  1
  N  N0  1  0.13397900  0.13355000  0.99814500  1
  N  N1  1  0.58282300  0.03042100  0.80548400  1
  N  N2  1  0.03467200  0.57971600  0.80843100  1
  N  N3  1  0.19497900  0.93733500  0.00118400  1
  N  N4  1  0.93753400  0.19672200  0.00178600  1
  N  N5  1  0.27901900  0.07502800  0.57243700  1
  N  N6  1  0.07600600  0.28054200  0.57510300  1
  N  N7  1  0.72403300  0.29427400  0.79741800  1
  N  N8  1  0.29637300  0.72113700  0.80107500  1
  N  N9  1  0.06770800  0.06786900  0.25798500  1
  N  N10  1  0.80698500  0.47370300  0.76095400  1
  N  N11  1  0.46893000  0.80836500  0.75890300  1
  N  N12  1  0.21894700  0.41700400  0.44532800  1
  N  N13  1  0.42084200  0.22358200  0.44962900  1
  N  N14  1  0.18802200  0.94839300  0.65752900  1
  N  N15  1  0.95172700  0.19161400  0.66371000  1
  N  N16  1  0.80670800  0.80539300  0.74663400  1
  N  N17  1  0.29005100  0.53165200  0.33822500  1
  N  N18  1  0.52754400  0.28791900  0.33174500  1
  N  N19  1  0.04247500  0.70992400  0.23510400  1
  N  N20  1  0.71056200  0.04189700  0.23543400  1
  N  N21  1  0.50510400  0.70547300  0.42716100  1
  N  N22  1  0.70328900  0.50300100  0.42339500  1
  N  N23  1  0.77246000  0.97056400  0.55191900  1
  N  N24  1  0.96764400  0.76997400  0.55042100  1
  N  N25  1  0.22591200  0.77231400  0.19290100  1
  N  N26  1  0.77554600  0.22692000  0.19748600  1
  N  N27  1  0.92003800  0.49710200  0.20064000  1
  N  N28  1  0.49487300  0.92087700  0.19925700  1
  N  N29  1  0.86984200  0.87001800  0.00531000  1
  O  O0  1  0.58208100  0.33374500  0.98593500  1
  O  O1  1  0.35376800  0.58033800  0.99811900  1
  O  O2  1  0.41016900  0.41363300  0.75800000  1
  O  O3  1  0.56195300  0.56636900  0.71899900  1
  O  O4  1  0.41000200  0.18218400  0.99134200  1
  O  O5  1  0.64286100  0.66520700  0.24766900  1
  O  O6  1  0.91204000  0.91244700  0.35487300  1
  O  O7  1  0.68747500  0.68674500  0.05300800  1
loop_
_geom_bond_atom_site_label_1
_geom_bond_atom_site_label_2
_geom_bond_distance
_geom_bond_site_symmetry_2
K0 N23 3.025284 1_545
K0 N1 3.043162 1_555
K0 N13 3.043554 1_555
K0 N5 3.092201 1_555
K0 N25 3.117180 1_545
K0 N7 3.161959 1_555
K0 N21 3.172445 1_545
K0 N28 3.208153 1_545
K1 N12 2.997567 1_555
K1 N24 3.044077 1_455
K1 N2 3.094423 1_555
K1 N26 3.097219 1_455
K1 N6 3.103456 1_555
K1 N8 3.154407 1_555
K1 N22 3.163805 1_455
K1 N27 3.173105 1_455
Cd0 N3 2.245247 1_556
Cd0 N8 2.360088 1_555
Cd0 N2 2.364656 1_555
Cd0 N28 2.412713 1_556
Cd0 N25 2.425417 1_556
Cd0 O1 2.466401 1_555
Cd1 N4 2.222171 1_556
Cd1 O0 2.296417 1_555
Cd1 N1 2.350769 1_555
Cd1 N7 2.391385 1_555
Cd1 N26 2.449466 1_556
Cd1 N27 2.495369 1_556
Cd2 N9 2.301034 1_555
Cd2 O2 2.307989 1_555
Cd2 N6 2.395064 1_555
Cd2 N5 2.395781 1_555
Cd2 N12 2.424092 1_555
Cd2 N13 2.433368 1_555
Cd3 N16 2.229893 1_555
Cd3 N24 2.354390 1_555
Cd3 N23 2.361511 1_555
Cd3 O5 2.388554 1_555
Cd3 N21 2.397014 1_555
Cd3 N22 2.483726 1_555
H0 O4 0.976636 1_555
H1 O1 0.976684 1_554
H2 O0 1.014229 1_555
H2 O4 1.534142 1_555
H3 O2 0.978826 1_555
H4 O2 1.001681 1_555
H5 O3 0.982218 1_555
H7 O4 0.979203 1_554
H8 O5 0.973134 1_555
H9 O1 0.988501 1_554
H10 O0 0.967392 1_554
H11 O5 0.998503 1_555
H12 O6 0.977642 1_555
H13 O6 0.977599 1_555
H14 O7 0.980157 1_555
H15 O7 0.980342 1_555
C0 N4 1.174445 1_455
C0 N0 1.294818 1_554
C1 N5 1.184294 1_555
C1 N14 1.289283 1_545
C2 N6 1.184574 1_555
C2 N15 1.289714 1_455
C3 N7 1.180254 1_555
C3 N10 1.299257 1_555
C4 N8 1.184659 1_555
C4 N11 1.285720 1_555
C5 N23 1.183597 1_545
C5 N15 1.288772 1_555
C6 N24 1.185275 1_455
C6 N14 1.285056 1_555
C7 N1 1.183841 1_565
C7 N11 1.285612 1_555
C8 N2 1.183027 1_655
C8 N10 1.293492 1_555
C9 N16 1.177215 1_555
C9 N29 1.293865 1_556
C10 N12 1.182939 1_555
C10 N17 1.292989 1_555
C11 N13 1.182043 1_555
C11 N18 1.299820 1_555
C12 N21 1.183553 1_555
C12 N17 1.290673 1_555
C13 N22 1.183722 1_555
C13 N18 1.297881 1_555
C14 N3 1.175427 1_546
C14 N0 1.294731 1_555
C15 N25 1.182929 1_555
C15 N19 1.297790 1_555
C16 N26 1.182126 1_555
C16 N20 1.299138 1_555
C17 N27 1.183023 1_555
C17 N19 1.299264 1_655
C18 N28 1.182958 1_555
C18 N20 1.296894 1_565
C19 N9 1.175264 1_665
C19 N29 1.299939 1_555
