# generated using pymatgen
data_FePH6NO5
_symmetry_space_group_name_H-M   'P 1'
_cell_length_a   5.73448532
_cell_length_b   9.02125507
_cell_length_c   4.81082287
_cell_angle_alpha   89.98012914
_cell_angle_beta   89.77098451
_cell_angle_gamma   89.89314699
_symmetry_Int_Tables_number   1
_chemical_formula_structural   FePH6NO5
_chemical_formula_sum   'Fe2 P2 H12 N2 O10'
_cell_volume   248.87227887
_cell_formula_units_Z   2
loop_
 _symmetry_equiv_pos_site_id
 _symmetry_equiv_pos_as_xyz
  1  'x, y, z'
loop_
 _atom_site_type_symbol
 _atom_site_label
 _atom_site_symmetry_multiplicity
 _atom_site_fract_x
 _atom_site_fract_y
 _atom_site_fract_z
 _atom_site_occupancy
  Fe  Fe0  1  0.50004000  0.02266600  0.50783200  1
  Fe  Fe1  1  0.00008800  0.97703100  0.00817600  1
  P  P0  1  0.50016200  0.80392600  0.07830300  1
  P  P1  1  0.99960200  0.19594800  0.57801700  1
  H  H0  1  0.49965100  0.54251500  0.81025700  1
  H  H1  1  0.00000600  0.45750800  0.31031100  1
  H  H2  1  0.50003900  0.54615600  0.44939400  1
  H  H3  1  0.00029500  0.45406000  0.94941500  1
  H  H4  1  0.64867500  0.41244300  0.62309900  1
  H  H5  1  0.35121400  0.41270600  0.62353500  1
  H  H6  1  0.85130400  0.58765500  0.12379400  1
  H  H7  1  0.14872800  0.58745100  0.12314900  1
  H  H8  1  0.63640400  0.18965100  0.06870400  1
  H  H9  1  0.36332200  0.19013400  0.07128400  1
  H  H10  1  0.86367900  0.81001300  0.57017700  1
  H  H11  1  0.13678400  0.81057200  0.56928200  1
  N  N0  1  0.49990800  0.47761200  0.62687900  1
  N  N1  1  0.00007000  0.52250000  0.12689800  1
  O  O0  1  0.50043400  0.83791900  0.76596900  1
  O  O1  1  0.00071000  0.16196900  0.26568900  1
  O  O2  1  0.49947000  0.63277500  0.12247700  1
  O  O3  1  0.00043300  0.36709900  0.62208600  1
  O  O4  1  0.71906300  0.87319400  0.22568400  1
  O  O5  1  0.28219700  0.87451400  0.22811700  1
  O  O6  1  0.78020100  0.12667200  0.72608700  1
  O  O7  1  0.21709800  0.12510600  0.72673700  1
  O  O8  1  0.50024300  0.20100800  0.19413100  1
  O  O9  1  0.00018000  0.79919900  0.69391900  1
loop_
_geom_bond_atom_site_label_1
_geom_bond_atom_site_label_2
_geom_bond_distance
_geom_bond_site_symmetry_2
Fe0 O0 2.078099 1_545
Fe0 O7 2.139414 1_555
Fe0 O6 2.140957 1_555
Fe0 O8 2.205523 1_555
Fe0 O5 2.275639 1_545
Fe0 O4 2.284624 1_545
Fe1 O1 2.078394 1_565
Fe1 O4 2.135633 1_455
Fe1 O5 2.144627 1_555
Fe1 O9 2.204766 1_554
Fe1 O7 2.271061 1_564
Fe1 O6 2.293481 1_464
H0 N0 1.058981 1_555
H1 N1 1.059231 1_555
H2 N0 1.054063 1_555
H3 N1 1.053849 1_556
H4 N0 1.035259 1_555
H5 N0 1.035450 1_555
H6 N1 1.035233 1_655
H7 N1 1.035423 1_555
H8 O8 0.990073 1_555
H9 O8 0.989661 1_555
H10 O9 0.989959 1_655
H11 O9 0.990050 1_555
O0 P0 1.533448 1_556
O1 P1 1.533594 1_455
O2 P0 1.558490 1_555
O3 P1 1.558576 1_455
O4 P0 1.574574 1_555
O5 P0 1.573974 1_555
O6 P1 1.573659 1_555
O7 P1 1.574719 1_455
