# generated using pymatgen
data_Hf(MnSn)6
_symmetry_space_group_name_H-M   'P 1'
_cell_length_a   5.57036893
_cell_length_b   5.57034916
_cell_length_c   9.10640210
_cell_angle_alpha   90.00000000
_cell_angle_beta   90.00000000
_cell_angle_gamma   119.99934044
_symmetry_Int_Tables_number   1
_chemical_formula_structural   Hf(MnSn)6
_chemical_formula_sum   'Hf1 Mn6 Sn6'
_cell_volume   244.70718385
_cell_formula_units_Z   1
loop_
 _symmetry_equiv_pos_site_id
 _symmetry_equiv_pos_as_xyz
  1  'x, y, z'
loop_
 _atom_site_type_symbol
 _atom_site_label
 _atom_site_symmetry_multiplicity
 _atom_site_fract_x
 _atom_site_fract_y
 _atom_site_fract_z
 _atom_site_occupancy
  Hf  Hf0  1  0.99997493  0.00013555  -0.00000000  1
  Mn  Mn0  1  -0.00000113  0.49998588  0.24594473  1
  Mn  Mn1  1  -0.00000113  0.49998588  0.75405527  1
  Mn  Mn2  1  0.49998271  0.50000295  0.24596766  1
  Mn  Mn3  1  0.49998271  0.50000295  0.75403234  1
  Mn  Mn4  1  0.50001892  0.00001808  0.24595071  1
  Mn  Mn5  1  0.50001892  0.00001808  0.75404929  1
  Sn  Sn0  1  0.33332993  0.66673466  -0.00000000  1
  Sn  Sn1  1  0.33333369  0.66663110  0.50000000  1
  Sn  Sn2  1  0.00000517  0.99998061  0.32787465  1
  Sn  Sn3  1  0.00000517  0.99998061  0.67212535  1
  Sn  Sn4  1  0.66663955  0.33342608  -0.00000000  1
  Sn  Sn5  1  0.66670955  0.33329957  0.50000000  1
loop_
_geom_bond_atom_site_label_1
_geom_bond_atom_site_label_2
_geom_bond_distance
_geom_bond_site_symmetry_2
Hf0 Sn2 2.985759 1_645
Hf0 Sn3 2.985759 1_644
Hf0 Sn0 3.215738 1_655
Hf0 Sn4 3.215841 1_555
Hf0 Sn0 3.215971 1_545
Hf0 Sn4 3.216066 1_655
Hf0 Sn4 3.216270 1_545
Hf0 Sn0 3.216468 1_645
Mn0 Sn0 2.757151 1_555
Mn0 Sn4 2.757230 1_455
Mn0 Sn5 2.817361 1_455
Mn0 Sn1 2.817486 1_555
Mn0 Sn2 2.883328 1_555
Mn0 Sn2 2.883419 1_545
Mn1 Sn0 2.757151 1_556
Mn1 Sn4 2.757230 1_456
Mn1 Sn5 2.817361 1_455
Mn1 Sn1 2.817486 1_555
Mn1 Sn3 2.883328 1_555
Mn1 Sn3 2.883419 1_545
Mn2 Sn4 2.757035 1_555
Mn2 Sn0 2.757459 1_555
Mn2 Sn1 2.817145 1_555
Mn2 Sn5 2.817566 1_555
Mn2 Sn2 2.883351 1_545
Mn2 Sn2 2.883351 1_655
Mn3 Sn4 2.757035 1_556
Mn3 Sn0 2.757459 1_556
Mn3 Sn1 2.817145 1_555
Mn3 Sn5 2.817566 1_555
Mn3 Sn3 2.883351 1_545
Mn3 Sn3 2.883351 1_655
Mn4 Sn0 2.757057 1_545
Mn4 Sn4 2.757408 1_555
Mn4 Sn5 2.817291 1_555
Mn4 Sn1 2.817582 1_545
Mn4 Sn2 2.883342 1_545
Mn4 Sn2 2.883396 1_645
Mn5 Sn0 2.757057 1_546
Mn5 Sn4 2.757408 1_556
Mn5 Sn5 2.817291 1_555
Mn5 Sn1 2.817582 1_545
Mn5 Sn3 2.883342 1_545
Mn5 Sn3 2.883396 1_645
Sn2 Sn3 3.134885 1_555
