# generated using pymatgen
data_LiNbCuO4
_symmetry_space_group_name_H-M   'P 1'
_cell_length_a   6.22398000
_cell_length_b   6.22398000
_cell_length_c   8.23351800
_cell_angle_alpha   90.00000000
_cell_angle_beta   90.00000000
_cell_angle_gamma   90.00000000
_symmetry_Int_Tables_number   1
_chemical_formula_structural   LiNbCuO4
_chemical_formula_sum   'Li4 Nb4 Cu4 O16'
_cell_volume   318.94941957
_cell_formula_units_Z   4
loop_
 _symmetry_equiv_pos_site_id
 _symmetry_equiv_pos_as_xyz
  1  'x, y, z'
loop_
 _atom_site_type_symbol
 _atom_site_label
 _atom_site_symmetry_multiplicity
 _atom_site_fract_x
 _atom_site_fract_y
 _atom_site_fract_z
 _atom_site_occupancy
  Li  Li0  1  0.50000000  0.71696400  0.00000000  1
  Li  Li1  1  0.50000000  0.28303600  0.50000000  1
  Li  Li2  1  0.71696400  0.50000000  0.25000000  1
  Li  Li3  1  0.28303600  0.50000000  0.75000000  1
  Nb  Nb0  1  0.71253700  0.00000000  0.25000000  1
  Nb  Nb1  1  0.00000000  0.71253700  0.00000000  1
  Nb  Nb2  1  0.00000000  0.28746300  0.50000000  1
  Nb  Nb3  1  0.28746300  0.00000000  0.75000000  1
  Cu  Cu0  1  0.75682600  0.75682600  0.62500000  1
  Cu  Cu1  1  0.75682600  0.24317400  0.87500000  1
  Cu  Cu2  1  0.24317400  0.75682600  0.37500000  1
  Cu  Cu3  1  0.24317400  0.24317400  0.12500000  1
  O  O0  1  0.51903700  0.76277800  0.26002600  1
  O  O1  1  0.51903700  0.23722200  0.23997400  1
  O  O2  1  0.76277800  0.51903700  0.98997400  1
  O  O3  1  0.76277800  0.48096300  0.51002600  1
  O  O4  1  0.76540700  0.97569200  0.00889100  1
  O  O5  1  0.76540700  0.02430800  0.49110900  1
  O  O6  1  0.97569200  0.76540700  0.24110900  1
  O  O7  1  0.97569200  0.23459300  0.25889100  1
  O  O8  1  0.02430800  0.76540700  0.75889100  1
  O  O9  1  0.02430800  0.23459300  0.74110900  1
  O  O10  1  0.23459300  0.02430800  0.50889100  1
  O  O11  1  0.23459300  0.97569200  0.99110900  1
  O  O12  1  0.23722200  0.51903700  0.01002600  1
  O  O13  1  0.23722200  0.48096300  0.48997400  1
  O  O14  1  0.48096300  0.76277800  0.73997400  1
  O  O15  1  0.48096300  0.23722200  0.76002600  1
loop_
_geom_bond_atom_site_label_1
_geom_bond_atom_site_label_2
_geom_bond_distance
_geom_bond_site_symmetry_2
Li0 O2 2.049224 1_554
Li0 O12 2.049224 1_555
Li0 O14 2.163082 1_554
Li0 O0 2.163082 1_555
Li0 O4 2.308076 1_555
Li0 O11 2.308076 1_554
Li1 O3 2.049224 1_555
Li1 O13 2.049224 1_555
Li1 O1 2.163082 1_555
Li1 O15 2.163082 1_555
Li1 O10 2.308076 1_555
Li1 O5 2.308076 1_555
Li2 O0 2.049224 1_555
Li2 O1 2.049224 1_555
Li2 O2 2.163082 1_554
Li2 O3 2.163082 1_555
Li2 O6 2.308076 1_555
Li2 O7 2.308076 1_555
Li3 O14 2.049224 1_555
Li3 O15 2.049224 1_555
Li3 O13 2.163082 1_555
Li3 O12 2.163082 1_556
Li3 O8 2.308076 1_555
Li3 O9 2.308076 1_555
Nb0 O1 1.907144 1_555
Nb0 O0 1.907144 1_545
Nb0 O5 2.017943 1_555
Nb0 O4 2.017943 1_545
Nb0 O7 2.195423 1_555
Nb0 O6 2.195423 1_545
Nb1 O12 1.907144 1_555
Nb1 O2 1.907144 1_454
Nb1 O6 2.017943 1_455
Nb1 O8 2.017943 1_554
Nb1 O11 2.195423 1_554
Nb1 O4 2.195423 1_455
Nb2 O13 1.907144 1_555
Nb2 O3 1.907144 1_455
Nb2 O9 2.017943 1_555
Nb2 O7 2.017943 1_455
Nb2 O10 2.195423 1_555
Nb2 O5 2.195423 1_455
Nb3 O15 1.907144 1_555
Nb3 O14 1.907144 1_545
Nb3 O10 2.017943 1_555
Nb3 O11 2.017943 1_545
Nb3 O9 2.195423 1_555
Nb3 O8 2.195423 1_545
Cu0 O3 1.960988 1_555
Cu0 O14 1.960988 1_555
Cu0 O8 1.997421 1_655
Cu0 O5 1.997421 1_565
Cu1 O2 1.960988 1_555
Cu1 O15 1.960988 1_555
Cu1 O9 1.997421 1_655
Cu1 O4 1.997421 1_546
Cu2 O0 1.960988 1_555
Cu2 O13 1.960988 1_555
Cu2 O10 1.997421 1_565
Cu2 O6 1.997421 1_455
Cu3 O12 1.960988 1_555
Cu3 O1 1.960988 1_555
Cu3 O11 1.997421 1_544
Cu3 O7 1.997421 1_455
