# generated using pymatgen
data_BaLaCl5
_symmetry_space_group_name_H-M   'P 1'
_cell_length_a   4.57513500
_cell_length_b   7.77929200
_cell_length_c   13.06369246
_cell_angle_alpha   87.07234465
_cell_angle_beta   90.00000000
_cell_angle_gamma   90.00000000
_symmetry_Int_Tables_number   1
_chemical_formula_structural   BaLaCl5
_chemical_formula_sum   'Ba2 La2 Cl10'
_cell_volume   464.34709429
_cell_formula_units_Z   2
loop_
 _symmetry_equiv_pos_site_id
 _symmetry_equiv_pos_as_xyz
  1  'x, y, z'
loop_
 _atom_site_type_symbol
 _atom_site_label
 _atom_site_symmetry_multiplicity
 _atom_site_fract_x
 _atom_site_fract_y
 _atom_site_fract_z
 _atom_site_occupancy
  Ba  Ba0  1  0.25000000  0.94471100  0.84323800  1
  Ba  Ba1  1  0.75000000  0.05528900  0.15676200  1
  La  La0  1  0.75000000  0.56355200  0.65385900  1
  La  La1  1  0.25000000  0.43644800  0.34614100  1
  Cl  Cl0  1  0.75000000  0.92057200  0.66029700  1
  Cl  Cl1  1  0.25000000  0.84517400  0.07558800  1
  Cl  Cl2  1  0.25000000  0.67042900  0.52018600  1
  Cl  Cl3  1  0.75000000  0.63729800  0.85856400  1
  Cl  Cl4  1  0.75000000  0.63718200  0.28294000  1
  Cl  Cl5  1  0.25000000  0.36281800  0.71706000  1
  Cl  Cl6  1  0.25000000  0.36270200  0.14143600  1
  Cl  Cl7  1  0.75000000  0.32957100  0.47981400  1
  Cl  Cl8  1  0.75000000  0.15482600  0.92441200  1
  Cl  Cl9  1  0.25000000  0.07942800  0.33970300  1
loop_
_geom_bond_atom_site_label_1
_geom_bond_atom_site_label_2
_geom_bond_distance
_geom_bond_site_symmetry_2
Ba0 Cl8 3.034185 1_565
Ba0 Cl8 3.034185 1_465
Ba0 Cl1 3.094000 1_556
Ba0 Cl3 3.308051 1_455
Ba0 Cl3 3.308051 1_555
Ba0 Cl0 3.320485 1_455
Ba0 Cl0 3.320485 1_555
Ba0 Cl5 3.570525 1_565
Ba1 Cl1 3.034185 1_645
Ba1 Cl1 3.034185 1_545
Ba1 Cl8 3.094000 1_554
Ba1 Cl6 3.308051 1_555
Ba1 Cl6 3.308051 1_655
Ba1 Cl9 3.320485 1_655
Ba1 Cl9 3.320485 1_555
Ba1 Cl4 3.570525 1_545
Cl0 La0 2.782926 1_555
Cl2 La0 2.970751 1_455
Cl2 La0 2.970751 1_555
Cl2 La1 2.984205 1_555
Cl3 La0 2.763548 1_555
Cl4 La1 2.867305 1_555
Cl4 La1 2.867305 1_655
Cl5 La0 2.867305 1_455
Cl5 La0 2.867305 1_555
Cl6 La1 2.763548 1_555
Cl7 La1 2.970751 1_555
Cl7 La1 2.970751 1_655
Cl7 La0 2.984205 1_555
Cl9 La1 2.782926 1_555
