# generated using pymatgen
data_H3NO4
_symmetry_space_group_name_H-M   'P 1'
_cell_length_a   6.16837400
_cell_length_b   6.30297200
_cell_length_c   9.27046100
_cell_angle_alpha   90.00000000
_cell_angle_beta   90.00000000
_cell_angle_gamma   90.00000000
_symmetry_Int_Tables_number   1
_chemical_formula_structural   H3NO4
_chemical_formula_sum   'H12 N4 O16'
_cell_volume   360.42707465
_cell_formula_units_Z   4
loop_
 _symmetry_equiv_pos_site_id
 _symmetry_equiv_pos_as_xyz
  1  'x, y, z'
loop_
 _atom_site_type_symbol
 _atom_site_label
 _atom_site_symmetry_multiplicity
 _atom_site_fract_x
 _atom_site_fract_y
 _atom_site_fract_z
 _atom_site_occupancy
  H  H0  1  0.42035300  0.51511000  0.76438300  1
  H  H1  1  0.92035300  0.48489000  0.23561700  1
  H  H2  1  0.92035300  0.98489000  0.26438300  1
  H  H3  1  0.42035300  0.01511000  0.73561700  1
  H  H4  1  0.14071400  0.43189000  0.31170900  1
  H  H5  1  0.64071400  0.56811000  0.68829100  1
  H  H6  1  0.64071400  0.06811000  0.81170900  1
  H  H7  1  0.14071400  0.93189000  0.18829100  1
  H  H8  1  0.88226200  0.82374200  0.05848800  1
  H  H9  1  0.38226200  0.17625800  0.94151200  1
  H  H10  1  0.38226200  0.67625800  0.55848800  1
  H  H11  1  0.88226200  0.32374200  0.44151200  1
  N  N0  1  0.49116900  0.81874500  0.38852800  1
  N  N1  1  0.99116900  0.18125500  0.61147200  1
  N  N2  1  0.99116900  0.68125500  0.88852800  1
  N  N3  1  0.49116900  0.31874500  0.11147200  1
  O  O0  1  0.67327100  0.78841400  0.43969700  1
  O  O1  1  0.17327100  0.21158600  0.56030300  1
  O  O2  1  0.17327100  0.71158600  0.93969700  1
  O  O3  1  0.67327100  0.28841400  0.06030300  1
  O  O4  1  0.31597300  0.74662600  0.46466000  1
  O  O5  1  0.81597300  0.25337400  0.53534000  1
  O  O6  1  0.81597300  0.75337400  0.96466000  1
  O  O7  1  0.31597300  0.24662600  0.03534000  1
  O  O8  1  0.44974400  0.90836000  0.27391700  1
  O  O9  1  0.94974400  0.09164000  0.72608300  1
  O  O10  1  0.94974400  0.59164000  0.77391700  1
  O  O11  1  0.44974400  0.40836000  0.22608300  1
  O  O12  1  0.98721200  0.89299300  0.19292400  1
  O  O13  1  0.48721200  0.10700700  0.80707600  1
  O  O14  1  0.48721200  0.60700700  0.69292400  1
  O  O15  1  0.98721200  0.39299300  0.30707600  1
loop_
_geom_bond_atom_site_label_1
_geom_bond_atom_site_label_2
_geom_bond_distance
_geom_bond_site_symmetry_2
H0 O14 0.971820 1_555
H1 O15 0.971820 1_555
H2 O12 0.971820 1_555
H3 O13 0.971820 1_555
H4 O15 0.979026 1_455
H5 O14 0.979026 1_555
H6 O13 0.979026 1_555
H7 O12 0.979026 1_455
H8 O6 1.058543 1_554
H8 O12 1.470657 1_555
H9 O7 1.058543 1_556
H9 O13 1.470657 1_555
H10 O4 1.058543 1_555
H10 O14 1.470657 1_555
H11 O5 1.058543 1_555
H11 O15 1.470657 1_555
N0 O8 1.230137 1_555
N0 O0 1.234224 1_555
N0 O4 1.368433 1_555
N1 O9 1.230137 1_555
N1 O1 1.234224 1_655
N1 O5 1.368433 1_555
N2 O10 1.230137 1_555
N2 O2 1.234224 1_655
N2 O6 1.368433 1_555
N3 O11 1.230137 1_555
N3 O3 1.234224 1_555
N3 O7 1.368433 1_555
