# generated using pymatgen
data_VFe3Cu2(PO4)6
_symmetry_space_group_name_H-M   'P 1'
_cell_length_a   8.55712052
_cell_length_b   8.55712052
_cell_length_c   8.55712011
_cell_angle_alpha   60.36236247
_cell_angle_beta   60.36236247
_cell_angle_gamma   60.36236307
_symmetry_Int_Tables_number   1
_chemical_formula_structural   VFe3Cu2(PO4)6
_chemical_formula_sum   'V1 Fe3 Cu2 P6 O24'
_cell_volume   446.69716174
_cell_formula_units_Z   1
loop_
 _symmetry_equiv_pos_site_id
 _symmetry_equiv_pos_as_xyz
  1  'x, y, z'
loop_
 _atom_site_type_symbol
 _atom_site_label
 _atom_site_symmetry_multiplicity
 _atom_site_fract_x
 _atom_site_fract_y
 _atom_site_fract_z
 _atom_site_occupancy
  V  V0  1  0.14342200  0.14342200  0.14342200  1
  Fe  Fe0  1  0.64396700  0.64396700  0.64396700  1
  Fe  Fe1  1  0.85554700  0.85554700  0.85554700  1
  Fe  Fe2  1  0.35633800  0.35633800  0.35633800  1
  Cu  Cu0  1  0.99761900  0.99761900  0.99761900  1
  Cu  Cu1  1  0.49884700  0.49884700  0.49884700  1
  P  P0  1  0.95669100  0.25112800  0.54301500  1
  P  P1  1  0.54301500  0.95669100  0.25112800  1
  P  P2  1  0.25112800  0.54301500  0.95669100  1
  P  P3  1  0.75058900  0.45749000  0.04515300  1
  P  P4  1  0.45749000  0.04515300  0.75058900  1
  P  P5  1  0.04515300  0.75058900  0.45749000  1
  O  O0  1  0.50290500  0.11341300  0.31361200  1
  O  O1  1  0.31361100  0.50290500  0.11341300  1
  O  O2  1  0.11341300  0.31361100  0.50290500  1
  O  O3  1  0.94291500  0.08589700  0.73380400  1
  O  O4  1  0.00938600  0.18741800  0.37303500  1
  O  O5  1  0.76243900  0.41326100  0.54652800  1
  O  O6  1  0.73380400  0.94291500  0.08589700  1
  O  O7  1  0.54652800  0.76243900  0.41326100  1
  O  O8  1  0.81321700  0.61389300  0.00692400  1
  O  O9  1  0.41326100  0.54652800  0.76243900  1
  O  O10  1  0.91992400  0.25995300  0.06433700  1
  O  O11  1  0.61389300  0.00692400  0.81321700  1
  O  O12  1  0.37303500  0.00938600  0.18741800  1
  O  O13  1  0.08589700  0.73380400  0.94291500  1
  O  O14  1  0.58982500  0.43740300  0.24157900  1
  O  O15  1  0.18741800  0.37303500  0.00938600  1
  O  O16  1  0.43740300  0.24157900  0.58982500  1
  O  O17  1  0.25995300  0.06433700  0.91992400  1
  O  O18  1  0.24157900  0.58982500  0.43740300  1
  O  O19  1  0.00692400  0.81321700  0.61389300  1
  O  O20  1  0.06433700  0.91992400  0.25995300  1
  O  O21  1  0.88486300  0.69672500  0.48695200  1
  O  O22  1  0.69672500  0.48695200  0.88486300  1
  O  O23  1  0.48695200  0.88486300  0.69672500  1
loop_
_geom_bond_atom_site_label_1
_geom_bond_atom_site_label_2
_geom_bond_distance
_geom_bond_site_symmetry_2
Fe0 O22 1.959480 1_555
Fe0 O21 1.959480 1_555
Fe0 O23 1.959480 1_555
Fe0 O7 2.105450 1_555
Fe0 O5 2.105450 1_555
Fe0 O9 2.105450 1_555
Fe1 O19 1.926845 1_655
Fe1 O8 1.926845 1_556
Fe1 O11 1.926845 1_565
Fe1 O6 2.045931 1_556
Fe1 O13 2.045931 1_655
Fe1 O3 2.045931 1_565
Fe2 O0 1.935834 1_555
Fe2 O1 1.935837 1_555
Fe2 O2 1.935837 1_555
Fe2 O16 2.047920 1_555
Fe2 O18 2.047920 1_555
Fe2 O14 2.047920 1_555
Cu0 O3 2.212435 1_565
Cu0 O13 2.212435 1_655
Cu0 O6 2.212435 1_556
Cu0 O20 2.285442 1_656
Cu0 O10 2.285442 1_566
Cu0 O17 2.285442 1_665
Cu1 O9 2.184352 1_555
Cu1 O5 2.184352 1_555
Cu1 O7 2.184352 1_555
Cu1 O14 2.184928 1_555
Cu1 O18 2.184928 1_555
Cu1 O16 2.184928 1_555
O0 P1 1.508194 1_545
O1 P2 1.508188 1_554
O2 P0 1.508188 1_455
O3 P0 1.539449 1_555
O4 P0 1.583885 1_455
O4 V0 1.842140 1_555
O5 P0 1.549114 1_555
O6 P1 1.539449 1_555
O7 P1 1.549114 1_555
O8 P3 1.512745 1_555
O9 P2 1.549114 1_555
O10 P3 1.588154 1_555
O10 V0 1.958689 1_655
O11 P4 1.512745 1_555
O12 P1 1.583885 1_545
O12 V0 1.842140 1_555
O13 P2 1.539449 1_555
O14 P3 1.551922 1_555
O15 P2 1.583885 1_554
O15 V0 1.842140 1_555
O16 P4 1.551922 1_555
O17 P4 1.588154 1_555
O17 V0 1.958689 1_556
O18 P5 1.551922 1_555
O19 P5 1.512745 1_555
O20 P5 1.588154 1_555
O20 V0 1.958689 1_565
O21 P5 1.525021 1_655
O22 P3 1.525021 1_556
O23 P4 1.525021 1_565
