# generated using pymatgen
data_Rb2IO
_symmetry_space_group_name_H-M   'P 1'
_cell_length_a   5.54851000
_cell_length_b   8.07362000
_cell_length_c   12.98309800
_cell_angle_alpha   90.00000000
_cell_angle_beta   90.00000000
_cell_angle_gamma   90.00000000
_symmetry_Int_Tables_number   1
_chemical_formula_structural   Rb2IO
_chemical_formula_sum   'Rb8 I4 O4'
_cell_volume   581.59814550
_cell_formula_units_Z   4
loop_
 _symmetry_equiv_pos_site_id
 _symmetry_equiv_pos_as_xyz
  1  'x, y, z'
loop_
 _atom_site_type_symbol
 _atom_site_label
 _atom_site_symmetry_multiplicity
 _atom_site_fract_x
 _atom_site_fract_y
 _atom_site_fract_z
 _atom_site_occupancy
  Rb  Rb0  1  0.25000000  0.65146000  0.94868400  1
  Rb  Rb1  1  0.25000000  0.15146000  0.55131600  1
  Rb  Rb2  1  0.75000000  0.34854000  0.05131600  1
  Rb  Rb3  1  0.75000000  0.84854000  0.44868400  1
  Rb  Rb4  1  0.25000000  0.60743900  0.27022100  1
  Rb  Rb5  1  0.25000000  0.10743900  0.22977900  1
  Rb  Rb6  1  0.75000000  0.39256100  0.72977900  1
  Rb  Rb7  1  0.75000000  0.89256100  0.77022100  1
  I  I0  1  0.25000000  0.65864000  0.62476800  1
  I  I1  1  0.25000000  0.15864000  0.87523200  1
  I  I2  1  0.75000000  0.34136000  0.37523200  1
  I  I3  1  0.75000000  0.84136000  0.12476800  1
  O  O0  1  0.25000000  0.89950600  0.38979300  1
  O  O1  1  0.25000000  0.39950600  0.11020700  1
  O  O2  1  0.75000000  0.10049400  0.61020700  1
  O  O3  1  0.75000000  0.60049400  0.88979300  1
loop_
_geom_bond_atom_site_label_1
_geom_bond_atom_site_label_2
_geom_bond_distance
_geom_bond_site_symmetry_2
I0 Rb6 3.764321 1_455
I0 Rb6 3.764321 1_555
I0 Rb7 3.850900 1_555
I0 Rb7 3.850900 1_455
I0 Rb3 3.908127 1_455
I0 Rb3 3.908127 1_555
I0 Rb1 4.091528 1_565
I0 Rb1 4.204359 1_555
I0 Rb0 4.205833 1_555
I1 Rb7 3.764321 1_545
I1 Rb7 3.764321 1_445
I1 Rb6 3.850900 1_555
I1 Rb6 3.850900 1_455
I1 Rb2 3.908127 1_456
I1 Rb2 3.908127 1_556
I1 Rb0 4.091528 1_555
I1 Rb0 4.204359 1_545
I1 Rb1 4.205833 1_555
I2 Rb4 3.764321 1_655
I2 Rb4 3.764321 1_555
I2 Rb5 3.850900 1_555
I2 Rb5 3.850900 1_655
I2 Rb1 3.908127 1_655
I2 Rb1 3.908127 1_555
I2 Rb3 4.091528 1_545
I2 Rb3 4.204359 1_555
I2 Rb2 4.205833 1_555
I3 Rb5 3.764321 1_565
I3 Rb5 3.764321 1_665
I3 Rb4 3.850900 1_555
I3 Rb4 3.850900 1_655
I3 Rb0 3.908127 1_654
I3 Rb0 3.908127 1_554
I3 Rb2 4.091528 1_555
I3 Rb2 4.204359 1_565
I3 Rb3 4.205833 1_555
O0 Rb5 2.670990 1_565
O0 Rb4 2.823178 1_555
O0 Rb3 2.906957 1_555
O0 Rb3 2.906957 1_455
O0 Rb1 2.921573 1_565
O1 Rb4 2.670990 1_555
O1 Rb5 2.823178 1_555
O1 Rb2 2.906957 1_455
O1 Rb2 2.906957 1_555
O1 Rb0 2.921573 1_554
O2 Rb7 2.670990 1_545
O2 Rb6 2.823178 1_555
O2 Rb1 2.906957 1_655
O2 Rb1 2.906957 1_555
O2 Rb3 2.921573 1_545
O3 Rb6 2.670990 1_555
O3 Rb7 2.823178 1_555
O3 Rb0 2.906957 1_655
O3 Rb0 2.906957 1_555
O3 Rb2 2.921573 1_556
