# generated using pymatgen
data_V3O5F
_symmetry_space_group_name_H-M   'P 1'
_cell_length_a   5.50530815
_cell_length_b   5.50530815
_cell_length_c   7.27418002
_cell_angle_alpha   71.86060970
_cell_angle_beta   71.86060970
_cell_angle_gamma   71.00726864
_symmetry_Int_Tables_number   1
_chemical_formula_structural   V3O5F
_chemical_formula_sum   'V6 O10 F2'
_cell_volume   192.61965567
_cell_formula_units_Z   2
loop_
 _symmetry_equiv_pos_site_id
 _symmetry_equiv_pos_as_xyz
  1  'x, y, z'
loop_
 _atom_site_type_symbol
 _atom_site_label
 _atom_site_symmetry_multiplicity
 _atom_site_fract_x
 _atom_site_fract_y
 _atom_site_fract_z
 _atom_site_occupancy
  V  V0  1  0.50000000  0.50000000  0.00000000  1
  V  V1  1  0.17161800  0.17161800  0.84246800  1
  V  V2  1  0.50000000  0.50000000  0.50000000  1
  V  V3  1  0.15421700  0.15421700  0.31560100  1
  V  V4  1  0.84578300  0.84578300  0.68439900  1
  V  V5  1  0.82838200  0.82838200  0.15753200  1
  O  O0  1  0.46955600  0.86635600  0.82854500  1
  O  O1  1  0.80727800  0.19272200  0.50000000  1
  O  O2  1  0.06406900  0.06406900  0.13106900  1
  O  O3  1  0.39935500  0.39935500  0.80406100  1
  O  O4  1  0.93593100  0.93593100  0.86893100  1
  O  O5  1  0.60064500  0.60064500  0.19593900  1
  O  O6  1  0.53044400  0.13364400  0.17145500  1
  O  O7  1  0.86635600  0.46955600  0.82854500  1
  O  O8  1  0.19272200  0.80727800  0.50000000  1
  O  O9  1  0.13364400  0.53044400  0.17145500  1
  F  F0  1  0.73769300  0.73769300  0.46638700  1
  F  F1  1  0.26230700  0.26230700  0.53361300  1
loop_
_geom_bond_atom_site_label_1
_geom_bond_atom_site_label_2
_geom_bond_distance
_geom_bond_site_symmetry_2
O0 V1 1.932165 1_565
O0 V4 1.992811 1_555
O0 V0 1.998832 1_556
O1 V3 1.952062 1_655
O1 V4 1.952062 1_545
O1 V2 1.964879 1_555
O2 V3 1.812281 1_555
O2 V1 1.946435 1_554
O2 V5 2.046708 1_445
O3 V1 1.951626 1_555
O3 V0 1.956726 1_556
O3 V2 2.044436 1_555
O4 V4 1.812281 1_555
O4 V5 1.946435 1_556
O4 V1 2.046708 1_665
O5 V5 1.951626 1_555
O5 V0 1.956726 1_555
O5 V2 2.044436 1_555
O6 V5 1.932165 1_545
O6 V3 1.992811 1_555
O6 V0 1.998832 1_555
O7 V1 1.932165 1_655
O7 V4 1.992811 1_555
O7 V0 1.998832 1_556
O8 V4 1.952062 1_455
O8 V3 1.952062 1_565
O8 V2 1.964879 1_555
O9 V5 1.932165 1_455
O9 V3 1.992811 1_555
O9 V0 1.998832 1_555
F0 V2 2.049545 1_555
F0 V5 2.076400 1_555
F0 V4 2.151476 1_555
F1 V2 2.049545 1_555
F1 V1 2.076400 1_555
F1 V3 2.151476 1_555
