# generated using pymatgen
data_Na9(WO3)13
_symmetry_space_group_name_H-M   'P 1'
_cell_length_a   5.54417900
_cell_length_b   11.75967717
_cell_length_c   13.00275761
_cell_angle_alpha   107.55287019
_cell_angle_beta   89.99786288
_cell_angle_gamma   103.62944519
_symmetry_Int_Tables_number   1
_chemical_formula_structural   Na9(WO3)13
_chemical_formula_sum   'Na9 W13 O39'
_cell_volume   783.20613124
_cell_formula_units_Z   1
loop_
 _symmetry_equiv_pos_site_id
 _symmetry_equiv_pos_as_xyz
  1  'x, y, z'
loop_
 _atom_site_type_symbol
 _atom_site_label
 _atom_site_symmetry_multiplicity
 _atom_site_fract_x
 _atom_site_fract_y
 _atom_site_fract_z
 _atom_site_occupancy
  Na  Na0  1  0.38005800  0.77209400  0.84763200  1
  Na  Na1  1  0.07395000  0.14950700  0.76660700  1
  Na  Na2  1  0.76547800  0.53561500  0.68939300  1
  Na  Na3  1  0.69145400  0.38863000  0.92495700  1
  Na  Na4  1  0.22965200  0.46156800  0.31084900  1
  Na  Na5  1  0.92879600  0.84511800  0.22760600  1
  Na  Na6  1  0.84124300  0.69466400  0.46346700  1
  Na  Na7  1  0.53910900  0.07764100  0.38912800  1
  Na  Na8  1  0.61421400  0.23189300  0.15391000  1
  W  W0  1  0.92427800  0.84887500  0.73221900  1
  W  W1  1  0.30885700  0.61696800  0.57819300  1
  W  W2  1  0.46129500  0.92195200  0.11340300  1
  W  W3  1  0.23041200  0.46158100  0.80791500  1
  W  W4  1  0.84639600  0.69341400  0.96270300  1
  W  W5  1  0.38639800  0.77026700  0.34627600  1
  W  W6  1  0.69259300  0.38405300  0.42465800  1
  W  W7  1  0.61555400  0.22963500  0.65268200  1
  W  W8  1  0.53718500  0.07605700  0.88439200  1
  W  W9  1  0.07682300  0.15252000  0.26897200  1
  W  W10  1  0.15323400  0.30756200  0.03852200  1
  W  W11  1  0.77085400  0.54004500  0.19154800  1
  W  W12  1  0.00179600  0.00089500  0.50194700  1
  O  O0  1  0.22911200  0.96349500  0.80881100  1
  O  O1  1  0.11563500  0.73082000  0.65545000  1
  O  O2  1  0.72886300  0.96158900  0.80804300  1
  O  O3  1  0.03348600  0.57558900  0.88255300  1
  O  O4  1  0.19107500  0.88395600  0.42215400  1
  O  O5  1  0.19003200  0.38307900  0.92225400  1
  O  O6  1  0.53934400  0.57675200  0.88353400  1
  O  O7  1  0.88582000  0.76771200  0.84524200  1
  O  O8  1  0.15407400  0.80686900  0.03852900  1
  O  O9  1  0.27219500  0.54214600  0.69484300  1
  O  O10  1  0.07647100  0.65463100  0.27106900  1
  O  O11  1  0.61897100  0.72892700  0.65461000  1
  O  O12  1  0.34784900  0.68981200  0.46002300  1
  O  O13  1  0.96225100  0.92433800  0.61651400  1
  O  O14  1  0.69607800  0.88411400  0.42162500  1
  O  O15  1  0.42412300  0.84849400  0.23234600  1
  O  O16  1  0.58162600  0.65524200  0.27086700  1
  O  O17  1  0.50236400  0.50166700  0.50008600  1
  O  O18  1  0.34899400  0.19513000  0.96100800  1
  O  O19  1  0.42614200  0.34677300  0.73306100  1
  O  O20  1  0.65382800  0.80757700  0.03820700  1
  O  O21  1  0.92167800  0.34692700  0.73195500  1
  O  O22  1  0.49933900  0.00003500  0.99979500  1
  O  O23  1  0.84370100  0.19558400  0.96129100  1
  O  O24  1  0.57832600  0.15574600  0.77026300  1
  O  O25  1  0.03883800  0.07419400  0.38298800  1
  O  O26  1  0.38909100  0.26873400  0.34310600  1
  O  O27  1  0.65288000  0.30781800  0.53838700  1
  O  O28  1  0.30965500  0.11523000  0.57632700  1
  O  O29  1  0.99795300  0.50306200  0.50144000  1
  O  O30  1  0.73359800  0.46343800  0.30909600  1
  O  O31  1  0.46386700  0.42133500  0.11625900  1
  O  O32  1  0.80825000  0.61549800  0.07715300  1
  O  O33  1  0.11585800  0.23200100  0.15486500  1
  O  O34  1  0.27069400  0.03779200  0.19387500  1
  O  O35  1  0.88441700  0.26952600  0.34484400  1
  O  O36  1  0.80964300  0.11616700  0.57649000  1
  O  O37  1  0.95934500  0.42164500  0.11695200  1
  O  O38  1  0.76696300  0.03834200  0.19440100  1
loop_
_geom_bond_atom_site_label_1
_geom_bond_atom_site_label_2
_geom_bond_distance
_geom_bond_site_symmetry_2
Na0 O7 2.728462 1_455
Na0 O22 2.739134 1_565
Na0 O8 2.743576 1_556
Na0 O1 2.750017 1_555
Na0 O0 2.755791 1_555
Na0 O9 2.759413 1_555
Na0 O2 2.762494 1_555
Na0 O20 2.774262 1_556
Na0 O3 2.788976 1_555
Na0 O11 2.803488 1_555
Na0 O6 2.806718 1_555
Na0 O7 2.816622 1_555
Na1 O13 2.704449 1_445
Na1 O0 2.727083 1_545
Na1 O36 2.748987 1_455
Na1 O2 2.749489 1_445
Na1 O28 2.763718 1_555
Na1 O24 2.766063 1_455
Na1 O24 2.780007 1_555
Na1 O18 2.792737 1_555
Na1 O23 2.798159 1_455
Na1 O19 2.803549 1_555
Na1 O21 2.803604 1_455
Na1 O5 2.805112 1_555
Na2 O29 2.729183 1_555
Na2 O27 2.731386 1_555
Na2 O17 2.734861 1_555
Na2 O11 2.742728 1_555
Na2 O19 2.754076 1_555
Na2 O9 2.754272 1_555
Na2 O21 2.761545 1_555
Na2 O3 2.774163 1_655
Na2 O6 2.779803 1_555
Na2 O1 2.782787 1_655
Na2 O9 2.792544 1_655
Na2 O7 2.794100 1_555
Na3 O32 2.730321 1_556
Na3 O6 2.737400 1_555
Na3 O3 2.738597 1_655
Na3 O19 2.747743 1_555
Na3 O31 2.752975 1_556
Na3 O18 2.758573 1_555
Na3 O23 2.763932 1_555
Na3 O5 2.765293 1_555
Na3 O21 2.778493 1_555
Na3 O5 2.780284 1_655
Na3 O37 2.780808 1_556
Na3 O24 2.794171 1_555
Na4 O12 2.725240 1_555
Na4 O35 2.742992 1_455
Na4 O17 2.743605 1_555
Na4 O30 2.755627 1_455
Na4 O29 2.756002 1_455
Na4 O26 2.760078 1_555
Na4 O33 2.773898 1_555
Na4 O10 2.785746 1_555
Na4 O37 2.788814 1_455
Na4 O30 2.789013 1_555
Na4 O31 2.806993 1_555
Na4 O16 2.808023 1_555
Na5 O8 2.721053 1_655
Na5 O15 2.737525 1_655
Na5 O34 2.737602 1_665
Na5 O32 2.743811 1_555
Na5 O20 2.758836 1_555
Na5 O10 2.763253 1_655
Na5 O25 2.766544 1_665
Na5 O38 2.776178 1_565
Na5 O4 2.777166 1_655
Na5 O16 2.781900 1_555
Na5 O14 2.796465 1_555
Na5 O15 2.808029 1_555
Na6 O12 2.722671 1_555
Na6 O14 2.735564 1_555
Na6 O11 2.736392 1_555
Na6 O16 2.746612 1_555
Na6 O17 2.747687 1_555
Na6 O13 2.758498 1_555
Na6 O29 2.769319 1_555
Na6 O4 2.773433 1_655
Na6 O30 2.778875 1_555
Na6 O10 2.785620 1_655
Na6 O1 2.789601 1_655
Na6 O12 2.822785 1_655
Na7 O28 2.711895 1_555
Na7 O36 2.721100 1_555
Na7 O27 2.741913 1_555
Na7 O4 2.759360 1_545
Na7 O14 2.762013 1_545
Na7 O25 2.765124 1_555
Na7 O15 2.775014 1_545
Na7 O25 2.781210 1_655
Na7 O38 2.790964 1_555
Na7 O26 2.791369 1_555
Na7 O34 2.798897 1_555
Na7 O35 2.799322 1_555
Na8 O26 2.721984 1_555
Na8 O31 2.725895 1_555
Na8 O37 2.739708 1_555
Na8 O35 2.762025 1_555
Na8 O33 2.763300 1_555
Na8 O23 2.772141 1_554
Na8 O18 2.772550 1_554
Na8 O33 2.780932 1_655
Na8 O22 2.782374 1_554
Na8 O30 2.785790 1_555
Na8 O34 2.788190 1_555
Na8 O38 2.793970 1_555
O0 W0 1.944681 1_455
O0 W8 1.945571 1_565
O1 W1 1.952921 1_555
O1 W0 1.976737 1_455
O2 W0 1.947100 1_555
O2 W8 1.948057 1_565
O3 W3 1.958649 1_555
O3 W4 1.971836 1_455
O4 W5 1.954521 1_555
O4 W12 1.971855 1_565
O5 W10 1.959645 1_556
O5 W3 1.960382 1_555
O6 W3 1.959170 1_555
O6 W4 1.971663 1_555
O7 W4 1.964366 1_555
O7 W0 1.966294 1_555
O8 W4 1.948355 1_454
O8 W2 1.949254 1_555
O9 W1 1.958769 1_555
O9 W3 1.962044 1_555
O10 W11 1.959480 1_455
O10 W5 1.963368 1_555
O11 W1 1.954751 1_555
O11 W0 1.972173 1_555
O12 W1 1.961655 1_555
O12 W5 1.969027 1_555
O13 W12 1.947727 1_665
O13 W0 1.952572 1_555
O14 W5 1.955957 1_555
O14 W12 1.971709 1_665
O15 W5 1.953421 1_555
O15 W2 1.975486 1_555
O16 W11 1.956142 1_555
O16 W5 1.962799 1_555
O17 W6 1.963767 1_555
O17 W1 1.968700 1_555
O18 W10 1.953029 1_556
O18 W8 1.972016 1_555
O19 W3 1.960987 1_555
O19 W7 1.976338 1_555
O20 W4 1.945885 1_554
O20 W2 1.946230 1_555
O21 W3 1.957678 1_655
O21 W7 1.970991 1_555
O22 W2 1.948503 1_546
O22 W8 1.953367 1_555
O23 W10 1.955760 1_656
O23 W8 1.972324 1_555
O24 W7 1.962604 1_555
O24 W8 1.967358 1_555
O25 W9 1.955208 1_555
O25 W12 1.974462 1_555
O26 W6 1.962705 1_555
O26 W9 1.970952 1_555
O27 W6 1.935357 1_555
O27 W7 1.957357 1_555
O28 W12 1.946959 1_555
O28 W7 1.947082 1_555
O29 W6 1.965263 1_555
O29 W1 1.966488 1_655
O30 W6 1.981698 1_555
O30 W11 1.983230 1_555
O31 W11 1.964688 1_555
O31 W10 1.968819 1_555
O32 W11 1.937048 1_555
O32 W4 1.957044 1_554
O33 W10 1.960866 1_555
O33 W9 1.965436 1_555
O34 W9 1.953913 1_555
O34 W2 1.971248 1_545
O35 W6 1.963121 1_555
O35 W9 1.969093 1_655
O36 W7 1.949139 1_555
O36 W12 1.949348 1_655
O37 W11 1.960253 1_555
O37 W10 1.962068 1_655
O38 W9 1.954999 1_655
O38 W2 1.972820 1_545
