# generated using pymatgen
data_Li32Mn13Cr3O48
_symmetry_space_group_name_H-M   'P 1'
_cell_length_a   5.01457600
_cell_length_b   8.68471876
_cell_length_c   19.47352702
_cell_angle_alpha   98.27872945
_cell_angle_beta   94.83223204
_cell_angle_gamma   89.85001659
_symmetry_Int_Tables_number   1
_chemical_formula_structural   Li32Mn13Cr3O48
_chemical_formula_sum   'Li32 Mn13 Cr3 O48'
_cell_volume   836.21624751
_cell_formula_units_Z   1
loop_
 _symmetry_equiv_pos_site_id
 _symmetry_equiv_pos_as_xyz
  1  'x, y, z'
loop_
 _atom_site_type_symbol
 _atom_site_label
 _atom_site_symmetry_multiplicity
 _atom_site_fract_x
 _atom_site_fract_y
 _atom_site_fract_z
 _atom_site_occupancy
  Li  Li0  1  0.99283900  0.16815800  0.24980600  1
  Li  Li1  1  0.87515700  0.37276000  0.37499000  1
  Li  Li2  1  0.75160900  0.24971700  0.99972500  1
  Li  Li3  1  0.74372500  0.92009800  0.00044300  1
  Li  Li4  1  0.98840800  0.16879300  0.75037200  1
  Li  Li5  1  0.75332500  0.58050200  0.50017900  1
  Li  Li6  1  0.87545500  0.37340900  0.87515600  1
  Li  Li7  1  0.74947200  0.24949900  0.49969500  1
  Li  Li8  1  0.74488100  0.92024800  0.50051100  1
  Li  Li9  1  0.62486100  0.12507000  0.12498200  1
  Li  Li10  1  0.75609800  0.58030500  0.99982400  1
  Li  Li11  1  0.50633100  0.33146500  0.25007400  1
  Li  Li12  1  0.62795200  0.12385500  0.62481400  1
  Li  Li13  1  0.50104700  0.99975200  0.25027200  1
  Li  Li14  1  0.48991500  0.66891400  0.24944700  1
  Li  Li15  1  0.51035800  0.33246900  0.75097300  1
  Li  Li16  1  0.37535100  0.87491200  0.37495000  1
  Li  Li17  1  0.50040400  0.00012300  0.75045200  1
  Li  Li18  1  0.24916700  0.74998300  0.99998300  1
  Li  Li19  1  0.49326700  0.66801200  0.74967700  1
  Li  Li20  1  0.24301000  0.41810900  0.99977100  1
  Li  Li21  1  0.37619600  0.87511600  0.87489900  1
  Li  Li22  1  0.25345400  0.07886900  0.49907300  1
  Li  Li23  1  0.25326400  0.75060900  0.50013000  1
  Li  Li24  1  0.12485500  0.62501700  0.12493700  1
  Li  Li25  1  0.24427000  0.42034500  0.49978300  1
  Li  Li26  1  0.00780800  0.83177400  0.25032100  1
  Li  Li27  1  0.25594200  0.08174700  0.99941700  1
  Li  Li28  1  0.12555200  0.62587500  0.62527100  1
  Li  Li29  1  0.00224000  0.50000400  0.24960200  1
  Li  Li30  1  0.00636500  0.83140100  0.75007200  1
  Li  Li31  1  0.00035800  0.50013800  0.75007800  1
  Mn  Mn0  1  0.87529200  0.04174300  0.37490700  1
  Mn  Mn1  1  0.87391600  0.70695500  0.87480600  1
  Mn  Mn2  1  0.62583400  0.79144300  0.12492700  1
  Mn  Mn3  1  0.62461000  0.45844300  0.12494700  1
  Mn  Mn4  1  0.62473800  0.79157000  0.62516000  1
  Mn  Mn5  1  0.62679300  0.45983600  0.62577800  1
  Mn  Mn6  1  0.37539500  0.54165100  0.37490200  1
  Mn  Mn7  1  0.37412200  0.20852700  0.37489100  1
  Mn  Mn8  1  0.37501600  0.54187500  0.87513900  1
  Mn  Mn9  1  0.37459800  0.21019400  0.87538900  1
  Mn  Mn10  1  0.12470200  0.95842300  0.12489700  1
  Mn  Mn11  1  0.12574900  0.29144600  0.12492400  1
  Mn  Mn12  1  0.12281700  0.95726900  0.62432400  1
  Cr  Cr0  1  0.87393700  0.70520300  0.37490900  1
  Cr  Cr1  1  0.87924300  0.03983200  0.87507100  1
  Cr  Cr2  1  0.13225600  0.29104900  0.62496200  1
  O  O0  1  0.96396900  0.10659500  0.06878700  1
  O  O1  1  0.92817100  0.78525100  0.06900500  1
  O  O2  1  0.92734900  0.42740700  0.06807300  1
  O  O3  1  0.96247100  0.10265400  0.56824400  1
  O  O4  1  0.82243400  0.96473200  0.18085300  1
  O  O5  1  0.82287700  0.32262300  0.18196800  1
  O  O6  1  0.92749900  0.78381200  0.56896500  1
  O  O7  1  0.92633500  0.42545900  0.56807300  1
  O  O8  1  0.78583500  0.64324800  0.18104400  1
  O  O9  1  0.71671000  0.85756400  0.31902200  1
  O  O10  1  0.82110700  0.96471500  0.68120400  1
  O  O11  1  0.82080400  0.32386900  0.68242800  1
  O  O12  1  0.67806800  0.53763100  0.31913400  1
  O  O13  1  0.67707900  0.17837100  0.31805800  1
  O  O14  1  0.78832200  0.64449200  0.68117000  1
  O  O15  1  0.71232100  0.85449700  0.81875300  1
  O  O16  1  0.46409300  0.60668500  0.06900800  1
  O  O17  1  0.56530200  0.71335900  0.43148700  1
  O  O18  1  0.57198100  0.07272800  0.43160400  1
  O  O19  1  0.67797700  0.53473800  0.81935200  1
  O  O20  1  0.67530800  0.17737800  0.81776400  1
  O  O21  1  0.42757700  0.92743200  0.06791000  1
  O  O22  1  0.42834200  0.28525300  0.06908600  1
  O  O23  1  0.53710600  0.39299700  0.43080800  1
  O  O24  1  0.46345700  0.60741300  0.56917700  1
  O  O25  1  0.57125500  0.71518400  0.93098300  1
  O  O26  1  0.57269900  0.07378800  0.93205100  1
  O  O27  1  0.32295600  0.82272800  0.18185300  1
  O  O28  1  0.32211800  0.46449700  0.18091100  1
  O  O29  1  0.42713100  0.92760900  0.56823300  1
  O  O30  1  0.42784100  0.28782200  0.56896900  1
  O  O31  1  0.53725600  0.39372200  0.93094900  1
  O  O32  1  0.28600500  0.14321800  0.18090900  1
  O  O33  1  0.21258300  0.35642100  0.31904400  1
  O  O34  1  0.32298200  0.82255100  0.68214700  1
  O  O35  1  0.32645700  0.46673900  0.68166600  1
  O  O36  1  0.18320900  0.67578700  0.31733300  1
  O  O37  1  0.17809200  0.03554600  0.31910000  1
  O  O38  1  0.27928100  0.14329000  0.68087800  1
  O  O39  1  0.21337700  0.35705600  0.81922600  1
  O  O40  1  0.07246700  0.57451100  0.43174000  1
  O  O41  1  0.07214600  0.21545000  0.43082500  1
  O  O42  1  0.17706400  0.67808000  0.81831000  1
  O  O43  1  0.17636000  0.03724600  0.81910100  1
  O  O44  1  0.03277200  0.89365300  0.43075800  1
  O  O45  1  0.07250300  0.57219700  0.93193800  1
  O  O46  1  0.07522000  0.21667100  0.93140600  1
  O  O47  1  0.03377500  0.89282700  0.93107800  1
loop_
_geom_bond_atom_site_label_1
_geom_bond_atom_site_label_2
_geom_bond_distance
_geom_bond_site_symmetry_2
Li0 O37 2.059372 1_655
Li0 O32 2.062799 1_655
Li0 O5 2.141449 1_555
Li0 O13 2.145095 1_555
Li0 O4 2.187657 1_545
Li0 O33 2.197659 1_655
Li1 O41 2.065008 1_655
Li1 O33 2.082042 1_655
Li1 O23 2.083244 1_555
Li1 O13 2.085680 1_555
Li1 O12 2.114261 1_555
Li1 O40 2.130147 1_655
Li2 O26 2.025886 1_555
Li2 O2 2.036557 1_556
Li2 O0 2.172757 1_556
Li2 O46 2.176486 1_655
Li2 O31 2.178539 1_555
Li2 O22 2.189444 1_556
Li3 O47 2.057493 1_654
Li3 O1 2.060616 1_555
Li3 O21 2.137708 1_555
Li3 O26 2.145779 1_564
Li3 O0 2.180677 1_565
Li3 O25 2.205086 1_554
Li4 O43 2.051090 1_655
Li4 O38 2.062168 1_655
Li4 O20 2.123982 1_555
Li4 O11 2.142599 1_555
Li4 O10 2.188440 1_545
Li4 O39 2.206182 1_655
Li5 O24 2.051746 1_555
Li5 O17 2.058145 1_555
Li5 O7 2.151071 1_555
Li5 O40 2.163104 1_655
Li5 O23 2.186610 1_555
Li5 O6 2.191948 1_555
Li6 O46 2.072117 1_655
Li6 O31 2.083604 1_555
Li6 O39 2.083990 1_655
Li6 O19 2.091536 1_555
Li6 O20 2.104006 1_555
Li6 O45 2.110608 1_655
Li7 O7 2.029054 1_555
Li7 O18 2.032077 1_555
Li7 O23 2.172680 1_555
Li7 O41 2.180174 1_655
Li7 O30 2.183189 1_555
Li7 O3 2.189084 1_555
Li8 O44 2.054468 1_655
Li8 O6 2.064735 1_555
Li8 O3 2.145851 1_565
Li8 O29 2.147408 1_555
Li8 O18 2.148406 1_565
Li8 O17 2.226000 1_555
Li9 O22 2.083123 1_555
Li9 O4 2.086103 1_545
Li9 O32 2.087886 1_555
Li9 O0 2.091992 1_555
Li9 O21 2.105785 1_545
Li9 O5 2.106190 1_555
Li10 O16 2.062384 1_556
Li10 O25 2.065343 1_555
Li10 O2 2.139404 1_556
Li10 O45 2.143827 1_655
Li10 O31 2.182756 1_555
Li10 O1 2.202087 1_556
Li11 O28 2.057924 1_555
Li11 O33 2.066028 1_555
Li11 O13 2.136247 1_555
Li11 O5 2.146917 1_555
Li11 O32 2.198229 1_555
Li11 O12 2.208083 1_555
Li12 O10 2.074858 1_545
Li12 O3 2.076698 1_555
Li12 O29 2.100995 1_545
Li12 O30 2.114719 1_555
Li12 O11 2.115691 1_555
Li12 O38 2.131774 1_555
Li13 O13 2.036970 1_565
Li13 O27 2.037932 1_555
Li13 O9 2.170717 1_555
Li13 O37 2.181491 1_565
Li13 O4 2.182511 1_555
Li13 O32 2.184486 1_565
Li14 O12 2.063002 1_555
Li14 O8 2.066837 1_555
Li14 O36 2.106177 1_555
Li14 O27 2.129053 1_555
Li14 O28 2.185694 1_555
Li14 O9 2.219066 1_555
Li15 O35 2.066319 1_555
Li15 O39 2.068834 1_555
Li15 O20 2.123088 1_555
Li15 O11 2.128747 1_555
Li15 O19 2.170478 1_555
Li15 O38 2.236721 1_555
Li16 O17 2.085459 1_555
Li16 O37 2.087099 1_565
Li16 O9 2.098695 1_555
Li16 O18 2.102525 1_565
Li16 O44 2.102583 1_555
Li16 O36 2.108483 1_555
Li17 O20 2.022254 1_555
Li17 O34 2.038670 1_545
Li17 O15 2.176492 1_545
Li17 O10 2.177764 1_545
Li17 O43 2.184179 1_555
Li17 O38 2.199067 1_555
Li18 O45 2.035889 1_555
Li18 O21 2.036149 1_556
Li18 O47 2.175839 1_555
Li18 O1 2.175958 1_456
Li18 O16 2.178937 1_556
Li18 O25 2.179814 1_555
Li19 O14 2.064730 1_555
Li19 O19 2.067238 1_555
Li19 O34 2.138433 1_555
Li19 O42 2.151932 1_555
Li19 O35 2.159536 1_555
Li19 O15 2.184504 1_555
Li20 O22 2.061196 1_556
Li20 O31 2.065902 1_555
Li20 O45 2.139990 1_555
Li20 O2 2.145772 1_456
Li20 O46 2.165437 1_555
Li20 O16 2.202475 1_556
Li21 O15 2.078706 1_555
Li21 O25 2.080513 1_555
Li21 O43 2.101721 1_565
Li21 O42 2.102433 1_555
Li21 O47 2.106078 1_555
Li21 O26 2.111352 1_565
Li22 O3 2.058071 1_455
Li22 O41 2.060264 1_555
Li22 O29 2.145671 1_545
Li22 O18 2.147861 1_555
Li22 O44 2.174140 1_545
Li22 O30 2.237622 1_555
Li23 O29 2.026592 1_555
Li23 O40 2.037613 1_555
Li23 O17 2.136608 1_555
Li23 O24 2.168268 1_555
Li23 O6 2.191732 1_455
Li23 O44 2.194368 1_555
Li24 O1 2.084211 1_455
Li24 O28 2.087768 1_555
Li24 O16 2.089549 1_555
Li24 O8 2.090622 1_455
Li24 O2 2.104583 1_455
Li24 O27 2.106886 1_555
Li25 O30 2.054084 1_555
Li25 O23 2.062888 1_555
Li25 O40 2.145482 1_555
Li25 O7 2.156875 1_455
Li25 O24 2.191010 1_555
Li25 O41 2.199851 1_555
Li26 O9 2.052278 1_455
Li26 O4 2.063937 1_455
Li26 O27 2.146050 1_555
Li26 O36 2.149710 1_555
Li26 O37 2.188046 1_565
Li26 O8 2.204579 1_455
Li27 O46 2.046352 1_555
Li27 O0 2.064633 1_456
Li27 O26 2.138489 1_555
Li27 O21 2.152023 1_546
Li27 O22 2.198084 1_556
Li27 O47 2.198895 1_545
Li28 O6 2.076660 1_455
Li28 O14 2.080578 1_455
Li28 O24 2.085683 1_555
Li28 O35 2.091528 1_555
Li28 O34 2.098503 1_555
Li28 O7 2.128732 1_455
Li29 O36 2.029657 1_555
Li29 O5 2.034745 1_455
Li29 O28 2.167376 1_555
Li29 O33 2.175912 1_555
Li29 O8 2.175954 1_455
Li29 O12 2.196212 1_455
Li30 O10 2.057592 1_455
Li30 O15 2.063165 1_455
Li30 O42 2.140906 1_555
Li30 O34 2.144818 1_555
Li30 O14 2.183046 1_455
Li30 O43 2.202822 1_565
Li31 O11 2.028866 1_455
Li31 O42 2.038711 1_555
Li31 O39 2.175078 1_555
Li31 O14 2.177152 1_455
Li31 O19 2.184414 1_455
Li31 O35 2.187751 1_555
Mn0 O44 1.927028 1_645
Mn0 O9 1.932569 1_545
Mn0 O37 1.936559 1_655
Mn0 O41 1.946710 1_655
Mn0 O18 1.949363 1_555
Mn0 O13 1.951460 1_555
Mn1 O19 1.931930 1_555
Mn1 O15 1.933476 1_555
Mn1 O25 1.939581 1_555
Mn1 O45 1.944572 1_655
Mn1 O42 1.945373 1_655
Mn1 O47 1.948993 1_655
Mn2 O8 1.935537 1_555
Mn2 O1 1.936030 1_555
Mn2 O16 1.942447 1_555
Mn2 O4 1.943661 1_555
Mn2 O21 1.949752 1_555
Mn2 O27 1.950445 1_555
Mn3 O16 1.934623 1_555
Mn3 O28 1.937253 1_555
Mn3 O22 1.941780 1_555
Mn3 O8 1.943201 1_555
Mn3 O5 1.948815 1_555
Mn3 O2 1.949128 1_555
Mn4 O14 1.933679 1_555
Mn4 O24 1.938203 1_555
Mn4 O6 1.940410 1_555
Mn4 O10 1.943192 1_555
Mn4 O34 1.946385 1_555
Mn4 O29 1.947475 1_555
Mn5 O35 1.926958 1_555
Mn5 O11 1.935504 1_555
Mn5 O14 1.937237 1_555
Mn5 O24 1.943616 1_555
Mn5 O7 1.947698 1_555
Mn5 O30 1.948541 1_555
Mn6 O17 1.924138 1_555
Mn6 O36 1.931538 1_555
Mn6 O12 1.936689 1_555
Mn6 O23 1.939094 1_555
Mn6 O33 1.947031 1_555
Mn6 O40 1.950408 1_555
Mn7 O33 1.933143 1_555
Mn7 O41 1.934332 1_555
Mn7 O37 1.939414 1_555
Mn7 O23 1.942897 1_555
Mn7 O18 1.944070 1_555
Mn7 O13 1.949140 1_555
Mn8 O31 1.935672 1_555
Mn8 O19 1.936556 1_555
Mn8 O25 1.942297 1_555
Mn8 O39 1.942604 1_555
Mn8 O45 1.946967 1_555
Mn8 O42 1.948092 1_555
Mn9 O46 1.924752 1_555
Mn9 O39 1.929740 1_555
Mn9 O31 1.933366 1_555
Mn9 O26 1.947647 1_555
Mn9 O43 1.948287 1_555
Mn9 O20 1.950659 1_555
Mn10 O4 1.936100 1_455
Mn10 O0 1.936647 1_465
Mn10 O1 1.942526 1_455
Mn10 O32 1.942607 1_565
Mn10 O27 1.947264 1_555
Mn10 O21 1.951022 1_555
Mn11 O32 1.934612 1_555
Mn11 O22 1.936075 1_555
Mn11 O28 1.942173 1_555
Mn11 O0 1.944851 1_455
Mn11 O2 1.947933 1_455
Mn11 O5 1.951780 1_455
Mn12 O3 1.917607 1_465
Mn12 O6 1.937250 1_455
Mn12 O10 1.944553 1_455
Mn12 O29 1.945734 1_555
Mn12 O38 1.946055 1_565
Mn12 O34 1.956300 1_555
Cr0 O12 1.906543 1_555
Cr0 O40 1.916864 1_655
Cr0 O9 1.954898 1_555
Cr0 O44 1.960634 1_655
Cr0 O17 1.969378 1_555
Cr0 O36 1.983925 1_655
Cr1 O47 1.916609 1_645
Cr1 O43 1.916944 1_655
Cr1 O15 1.959135 1_545
Cr1 O46 1.966983 1_655
Cr1 O26 1.967711 1_555
Cr1 O20 1.975695 1_555
Cr2 O38 1.907389 1_555
Cr2 O30 1.910499 1_555
Cr2 O7 1.956924 1_455
Cr2 O35 1.958879 1_555
Cr2 O3 1.987526 1_455
Cr2 O11 1.993248 1_455
