# generated using pymatgen
data_WO3
_symmetry_space_group_name_H-M   'P 1'
_cell_length_a   6.50898560
_cell_length_b   6.50898560
_cell_length_c   6.50898560
_cell_angle_alpha   109.47122063
_cell_angle_beta   109.47122063
_cell_angle_gamma   109.47122063
_symmetry_Int_Tables_number   1
_chemical_formula_structural   WO3
_chemical_formula_sum   'W4 O12'
_cell_volume   212.28438114
_cell_formula_units_Z   4
loop_
 _symmetry_equiv_pos_site_id
 _symmetry_equiv_pos_as_xyz
  1  'x, y, z'
loop_
 _atom_site_type_symbol
 _atom_site_label
 _atom_site_symmetry_multiplicity
 _atom_site_fract_x
 _atom_site_fract_y
 _atom_site_fract_z
 _atom_site_occupancy
  W  W0  1  0.50000000  0.00000000  0.00000000  1
  W  W1  1  -0.00000000  0.50000000  0.00000000  1
  W  W2  1  0.50000000  0.50000000  0.50000000  1
  W  W3  1  -0.00000000  0.00000000  0.50000000  1
  O  O0  1  0.94112901  0.72219989  0.21892812  1
  O  O1  1  0.27780011  0.78107188  0.05887099  1
  O  O2  1  0.49672823  0.27780011  0.21892812  1
  O  O3  1  0.78107188  0.05887099  0.27780011  1
  O  O4  1  0.72219989  0.78107188  0.50327177  1
  O  O5  1  0.21892812  0.49672823  0.27780011  1
  O  O6  1  0.78107188  0.50327177  0.72219989  1
  O  O7  1  0.27780011  0.21892812  0.49672823  1
  O  O8  1  0.21892812  0.94112901  0.72219989  1
  O  O9  1  0.50327177  0.72219989  0.78107188  1
  O  O10  1  0.72219989  0.21892812  0.94112901  1
  O  O11  1  0.05887099  0.27780011  0.78107188  1
loop_
_geom_bond_atom_site_label_1
_geom_bond_atom_site_label_2
_geom_bond_distance
_geom_bond_site_symmetry_2
O0 W1 1.904929 1_655
O0 W3 1.904936 1_665
O1 W0 1.904929 1_565
O1 W1 1.904936 1_555
O2 W2 1.904933 1_555
O2 W0 1.904933 1_555
O3 W3 1.904929 1_655
O3 W0 1.904936 1_555
O4 W3 1.904933 1_665
O4 W2 1.904933 1_555
O5 W1 1.904933 1_555
O5 W2 1.904933 1_555
O6 W1 1.904933 1_656
O6 W2 1.904933 1_555
O7 W3 1.904933 1_555
O7 W2 1.904933 1_555
O8 W3 1.904929 1_565
O8 W0 1.904936 1_566
O9 W0 1.904933 1_566
O9 W2 1.904933 1_555
O10 W0 1.904929 1_556
O10 W1 1.904936 1_656
O11 W1 1.904929 1_556
O11 W3 1.904936 1_555
