# generated using pymatgen
data_Ca2MnAl2Si4BO15
_symmetry_space_group_name_H-M   'P 1'
_cell_length_a   7.32437400
_cell_length_b   8.86563660
_cell_length_c   9.32656427
_cell_angle_alpha   88.00648815
_cell_angle_beta   76.43822987
_cell_angle_gamma   81.48430735
_symmetry_Int_Tables_number   1
_chemical_formula_structural   Ca2MnAl2Si4BO15
_chemical_formula_sum   'Ca4 Mn2 Al4 Si8 B2 O30'
_cell_volume   582.24588816
_cell_formula_units_Z   2
loop_
 _symmetry_equiv_pos_site_id
 _symmetry_equiv_pos_as_xyz
  1  'x, y, z'
loop_
 _atom_site_type_symbol
 _atom_site_label
 _atom_site_symmetry_multiplicity
 _atom_site_fract_x
 _atom_site_fract_y
 _atom_site_fract_z
 _atom_site_occupancy
  Ca  Ca0  1  0.24591700  0.39197400  0.67034300  1
  Ca  Ca1  1  0.75408300  0.60802600  0.32965700  1
  Ca  Ca2  1  0.83369000  0.10520600  0.91008100  1
  Ca  Ca3  1  0.16631000  0.89479400  0.08991900  1
  Mn  Mn0  1  0.23262200  0.11834400  0.40165200  1
  Mn  Mn1  1  0.76737800  0.88165600  0.59834800  1
  Al  Al0  1  0.94985700  0.25868900  0.18041500  1
  Al  Al1  1  0.05014300  0.74131100  0.81958500  1
  Al  Al2  1  0.65651100  0.41735800  0.06052900  1
  Al  Al3  1  0.34348900  0.58264200  0.93947100  1
  Si  Si0  1  0.78439300  0.22335500  0.54704600  1
  Si  Si1  1  0.21560700  0.77664500  0.45295400  1
  Si  Si2  1  0.77750900  0.51828800  0.72553800  1
  Si  Si3  1  0.22249100  0.48171200  0.27446200  1
  Si  Si4  1  0.30304400  0.01331900  0.74072300  1
  Si  Si5  1  0.69695600  0.98668100  0.25927700  1
  Si  Si6  1  0.35932800  0.22921200  0.97977300  1
  Si  Si7  1  0.64067200  0.77078800  0.02022700  1
  B  B0  1  0.53600400  0.28968400  0.36822100  1
  B  B1  1  0.46399600  0.71031600  0.63177900  1
  O  O0  1  0.94694400  0.17073900  0.39936400  1
  O  O1  1  0.05305600  0.82926100  0.60063600  1
  O  O2  1  0.57782200  0.30362500  0.51853400  1
  O  O3  1  0.42217800  0.69637500  0.48146600  1
  O  O4  1  0.85294800  0.34592700  0.64563000  1
  O  O5  1  0.14705200  0.65407300  0.35437000  1
  O  O6  1  0.97471900  0.57171800  0.73816800  1
  O  O7  1  0.02528100  0.42828200  0.26183200  1
  O  O8  1  0.67239800  0.63624800  0.61334900  1
  O  O9  1  0.32760200  0.36375200  0.38665100  1
  O  O10  1  0.61780100  0.49783200  0.87368000  1
  O  O11  1  0.38219900  0.50216800  0.12632000  1
  O  O12  1  0.47074300  0.87594700  0.65717800  1
  O  O13  1  0.52925700  0.12405300  0.34282200  1
  O  O14  1  0.12461100  0.94106300  0.84383700  1
  O  O15  1  0.87538900  0.05893700  0.15616300  1
  O  O16  1  0.23044600  0.13582900  0.62534000  1
  O  O17  1  0.76955400  0.86417100  0.37466000  1
  O  O18  1  0.40830200  0.09561600  0.84808500  1
  O  O19  1  0.59169800  0.90438400  0.15191500  1
  O  O20  1  0.55878400  0.23626400  0.02391700  1
  O  O21  1  0.44121600  0.76373600  0.97608300  1
  O  O22  1  0.29056400  0.38652000  0.89986300  1
  O  O23  1  0.70943600  0.61348000  0.10013700  1
  O  O24  1  0.20547500  0.16629000  0.12204800  1
  O  O25  1  0.79452500  0.83371000  0.87795200  1
  O  O26  1  0.67306600  0.35715700  0.26116900  1
  O  O27  1  0.32693400  0.64284300  0.73883100  1
  O  O28  1  0.89678000  0.31641000  0.00543000  1
  O  O29  1  0.10322000  0.68359000  0.99457000  1
loop_
_geom_bond_atom_site_label_1
_geom_bond_atom_site_label_2
_geom_bond_distance
_geom_bond_site_symmetry_2
Ca0 O22 2.237855 1_555
Ca0 O6 2.329922 1_455
Ca0 O16 2.347503 1_555
Ca0 O27 2.524735 1_555
Ca0 O2 2.535135 1_555
Ca0 O9 2.584668 1_555
Ca1 O23 2.237855 1_555
Ca1 O7 2.329922 1_655
Ca1 O17 2.347503 1_555
Ca1 O26 2.524735 1_555
Ca1 O3 2.535135 1_555
Ca1 O8 2.584668 1_555
Ca2 O20 2.218526 1_556
Ca2 O28 2.252836 1_556
Ca2 O14 2.359360 1_645
Ca2 O15 2.398994 1_556
Ca2 O25 2.502127 1_545
Ca3 O21 2.218526 1_554
Ca3 O29 2.252836 1_554
Ca3 O15 2.359360 1_465
Ca3 O14 2.398994 1_554
Ca3 O24 2.502127 1_565
Mn0 O0 2.080100 1_455
Mn0 O16 2.093528 1_555
Mn0 O13 2.120294 1_555
Mn0 O9 2.370364 1_555
Mn0 O24 2.676112 1_555
Mn1 O1 2.080100 1_655
Mn1 O17 2.093528 1_555
Mn1 O12 2.120294 1_555
Mn1 O8 2.370364 1_555
Mn1 O25 2.676112 1_555
Al0 O28 1.804711 1_555
Al0 O24 1.889839 1_655
Al0 O7 1.914315 1_655
Al0 O15 1.963833 1_555
Al0 O26 2.060309 1_555
Al0 O0 2.156871 1_555
Al1 O29 1.804711 1_555
Al1 O25 1.889839 1_455
Al1 O6 1.914315 1_455
Al1 O14 1.963833 1_555
Al1 O27 2.060309 1_555
Al1 O1 2.156871 1_555
Al2 O28 1.817536 1_555
Al2 O23 1.903005 1_555
Al2 O20 1.923472 1_555
Al2 O10 1.926545 1_554
Al2 O26 1.954231 1_555
Al2 O11 1.996273 1_555
Al3 O29 1.817536 1_555
Al3 O22 1.903005 1_555
Al3 O21 1.923472 1_555
Al3 O11 1.926545 1_556
Al3 O27 1.954231 1_555
Al3 O10 1.996273 1_555
B0 O26 1.424330 1_555
B0 O13 1.505327 1_555
B0 O2 1.516268 1_555
B0 O9 1.542284 1_555
B1 O27 1.424330 1_555
B1 O12 1.505327 1_555
B1 O3 1.516268 1_555
B1 O8 1.542284 1_555
O0 Si0 1.625844 1_555
O1 Si1 1.625844 1_555
O2 Si0 1.650143 1_555
O3 Si1 1.650143 1_555
O4 Si0 1.651066 1_555
O4 Si2 1.682805 1_555
O5 Si1 1.651066 1_555
O5 Si3 1.682805 1_555
O6 Si2 1.615853 1_555
O7 Si3 1.615853 1_555
O8 Si2 1.686540 1_555
O9 Si3 1.686540 1_555
O10 Si2 1.611713 1_555
O11 Si3 1.611713 1_555
O12 Si4 1.665300 1_565
O13 Si5 1.665300 1_545
O14 Si4 1.630607 1_565
O15 Si5 1.630607 1_545
O16 Si4 1.623721 1_555
O17 Si5 1.623721 1_555
O18 Si4 1.645843 1_555
O18 Si6 1.675929 1_555
O19 Si5 1.645843 1_555
O19 Si7 1.675929 1_555
O20 Si6 1.618189 1_554
O21 Si7 1.618189 1_556
O22 Si6 1.627829 1_555
O23 Si7 1.627829 1_555
O24 Si6 1.665894 1_554
O25 Si7 1.665894 1_556
