# generated using pymatgen
data_Li3V3P8O29
_symmetry_space_group_name_H-M   'P 1'
_cell_length_a   9.74742900
_cell_length_b   9.75773199
_cell_length_c   14.25629811
_cell_angle_alpha   89.62550357
_cell_angle_beta   89.52556201
_cell_angle_gamma   60.17172994
_symmetry_Int_Tables_number   1
_chemical_formula_structural   Li3V3P8O29
_chemical_formula_sum   'Li6 V6 P16 O58'
_cell_volume   1176.27461113
_cell_formula_units_Z   2
loop_
 _symmetry_equiv_pos_site_id
 _symmetry_equiv_pos_as_xyz
  1  'x, y, z'
loop_
 _atom_site_type_symbol
 _atom_site_label
 _atom_site_symmetry_multiplicity
 _atom_site_fract_x
 _atom_site_fract_y
 _atom_site_fract_z
 _atom_site_occupancy
  Li  Li0  1  0.32346200  0.90665300  0.04786100  1
  Li  Li1  1  0.90857000  0.77033400  0.05151300  1
  Li  Li2  1  0.21625700  0.08223500  0.44947000  1
  Li  Li3  1  0.77276500  0.91480000  0.56697100  1
  Li  Li4  1  0.08707000  0.69208800  0.45310000  1
  Li  Li5  1  0.97284100  0.04730700  0.98638800  1
  V  V0  1  0.43831900  0.99686200  0.24972800  1
  V  V1  1  0.56241700  0.00850800  0.75465000  1
  V  V2  1  0.99935000  0.43014600  0.75199400  1
  V  V3  1  0.00135300  0.55904100  0.24572600  1
  V  V4  1  0.56709500  0.43532500  0.24921000  1
  V  V5  1  0.43765700  0.56115400  0.74846300  1
  P  P0  1  0.77539700  0.30414200  0.84014600  1
  P  P1  1  0.91239100  0.31226900  0.33976700  1
  P  P2  1  0.31318800  0.77025400  0.34271200  1
  P  P3  1  0.66570800  0.66882700  0.13153900  1
  P  P4  1  0.66980000  0.67048300  0.63231900  1
  P  P5  1  0.31342300  0.90799600  0.83838200  1
  P  P6  1  0.22800000  0.08947500  0.66047300  1
  P  P7  1  0.91251700  0.77456600  0.84168000  1
  P  P8  1  0.08586300  0.21842100  0.15617500  1
  P  P9  1  0.77318300  0.90611600  0.34467300  1
  P  P10  1  0.69418800  0.08576700  0.16433800  1
  P  P11  1  0.33198700  0.33276200  0.36568400  1
  P  P12  1  0.32860800  0.33715900  0.86931900  1
  P  P13  1  0.69119200  0.22657900  0.65491100  1
  P  P14  1  0.09154900  0.68106000  0.66298600  1
  P  P15  1  0.22666700  0.69179600  0.15847000  1
  O  O0  1  0.76945300  0.22692400  0.56665500  1
  O  O1  1  0.74121100  0.34304300  0.33279600  1
  O  O2  1  0.01077000  0.20378900  0.07062700  1
  O  O3  1  0.91105000  0.34511300  0.83138600  1
  O  O4  1  0.61519200  0.45948100  0.83007200  1
  O  O5  1  0.67079500  0.51970100  0.17632000  1
  O  O6  1  0.47400200  0.61784900  0.32280400  1
  O  O7  1  0.21864000  0.78847100  0.07584300  1
  O  O8  1  0.34829600  0.73617600  0.83018300  1
  O  O9  1  0.81987100  0.52754400  0.67942800  1
  O  O10  1  0.90497200  0.47465400  0.31726800  1
  O  O11  1  0.52888600  0.65832400  0.67874400  1
  O  O12  1  0.65764800  0.68207600  0.02798600  1
  O  O13  1  0.67489700  0.66789300  0.52831500  1
  O  O14  1  0.51127500  0.81533200  0.17519700  1
  O  O15  1  0.91560700  0.61632700  0.83107800  1
  O  O16  1  0.81475700  0.67514000  0.17033400  1
  O  O17  1  0.33826600  0.91640300  0.33886700  1
  O  O18  1  0.20606400  0.99765200  0.74902500  1
  O  O19  1  0.23658000  0.00888000  0.57136600  1
  O  O20  1  0.22821600  0.98330500  0.92744200  1
  O  O21  1  0.47057900  0.91123800  0.82581100  1
  O  O22  1  0.66415400  0.82346100  0.67153400  1
  O  O23  1  0.26132400  0.08132000  0.16514200  1
  O  O24  1  0.62062500  0.89843700  0.31955500  1
  O  O25  1  0.92114800  0.73867500  0.33343000  1
  O  O26  1  0.00030600  0.20264400  0.24946400  1
  O  O27  1  0.00276300  0.23747600  0.42521800  1
  O  O28  1  0.00197100  0.76203100  0.57555100  1
  O  O29  1  0.08392000  0.25868700  0.66857200  1
  O  O30  1  0.38026600  0.09746800  0.68071600  1
  O  O31  1  0.74018400  0.91396700  0.82992200  1
  O  O32  1  0.33541000  0.18044200  0.32465600  1
  O  O33  1  0.53456100  0.08410500  0.17597200  1
  O  O34  1  0.79172000  0.99398200  0.08306700  1
  O  O35  1  0.76250600  0.97621400  0.43756300  1
  O  O36  1  0.78819400  0.01004300  0.26143400  1
  O  O37  1  0.65863800  0.08431600  0.66368200  1
  O  O38  1  0.18407100  0.33207700  0.82551000  1
  O  O39  1  0.08387400  0.37960800  0.17079600  1
  O  O40  1  0.48084600  0.18670900  0.82537200  1
  O  O41  1  0.33196200  0.33199900  0.97304600  1
  O  O42  1  0.32129200  0.33923500  0.46907700  1
  O  O43  1  0.47582400  0.33804800  0.32021500  1
  O  O44  1  0.09659800  0.52278700  0.67945800  1
  O  O45  1  0.18170400  0.47958000  0.31975600  1
  O  O46  1  0.65701400  0.25898500  0.16733200  1
  O  O47  1  0.79696300  0.20248300  0.74700300  1
  O  O48  1  0.79439400  0.20826300  0.92465700  1
  O  O49  1  0.53073400  0.38048500  0.67629000  1
  O  O50  1  0.33080400  0.48167000  0.82267400  1
  O  O51  1  0.38505300  0.53454700  0.17223100  1
  O  O52  1  0.08620600  0.65717400  0.16072000  1
  O  O53  1  0.98165100  0.79324900  0.93039700  1
  O  O54  1  0.00300500  0.79376200  0.75155100  1
  O  O55  1  0.26086400  0.65530000  0.66493300  1
  O  O56  1  0.23115500  0.76345500  0.42864900  1
  O  O57  1  0.20426500  0.79247100  0.25255300  1
loop_
_geom_bond_atom_site_label_1
_geom_bond_atom_site_label_2
_geom_bond_distance
_geom_bond_site_symmetry_2
Li0 O20 1.920245 1_554
Li0 O7 1.921541 1_555
Li0 O23 2.249617 1_565
Li0 O14 2.419090 1_555
Li1 O53 1.916208 1_554
Li1 O34 1.947749 1_555
Li1 O52 2.182066 1_655
Li1 O16 2.316728 1_555
Li2 O19 1.849288 1_555
Li2 O27 1.901030 1_555
Li2 O17 2.146371 1_545
Li2 O32 2.546394 1_555
Li3 O35 1.923975 1_555
Li3 O28 1.979297 1_655
Li3 O37 2.012055 1_565
Li3 O22 2.243308 1_555
Li4 O56 1.881656 1_555
Li4 O28 1.905184 1_555
Li4 O25 2.244355 1_455
Li5 O48 1.885821 1_555
Li5 O2 2.122096 1_656
Li5 O20 2.391296 1_645
Li5 O34 2.480213 1_546
Li5 O53 2.569646 1_545
O0 P13 1.466841 1_555
O1 P1 1.545339 1_555
O1 V4 1.900104 1_555
O2 P8 1.471257 1_555
O3 P0 1.564066 1_555
O3 V2 1.841828 1_555
O4 P0 1.550122 1_555
O4 V5 1.908628 1_555
O5 P3 1.563342 1_555
O5 V4 1.891749 1_555
O6 P2 1.558327 1_555
O6 V4 1.870065 1_555
O7 P15 1.482277 1_555
O8 P5 1.541126 1_555
O8 V5 1.887324 1_555
O9 P4 1.584477 1_555
O9 V2 1.843142 1_555
O10 P1 1.580674 1_555
O10 V3 1.828548 1_655
O11 P4 1.576323 1_555
O11 V5 1.868016 1_555
O12 P3 1.480411 1_555
O13 P4 1.483092 1_555
O14 P3 1.597613 1_555
O14 V0 1.879165 1_555
O15 P7 1.537714 1_555
O15 V2 1.942720 1_555
O16 P3 1.588466 1_555
O16 V3 1.927024 1_655
O17 P2 1.562695 1_555
O17 V0 1.977511 1_555
O18 P5 1.606251 1_555
O18 P6 1.616647 1_565
O19 P6 1.478202 1_555
O20 P5 1.493131 1_555
O21 P5 1.556703 1_555
O21 V1 1.883883 1_565
O22 P4 1.572406 1_555
O22 V1 1.968504 1_565
O23 P8 1.567288 1_555
O23 V0 1.927912 1_545
O24 P9 1.570086 1_555
O24 V0 1.841233 1_555
O25 P9 1.559066 1_555
O25 V3 1.973868 1_655
O26 P8 1.610791 1_555
O26 P1 1.619811 1_455
O27 P1 1.469439 1_455
O28 P14 1.503086 1_555
O29 P6 1.550778 1_555
O29 V2 1.879048 1_455
O30 P6 1.553952 1_555
O30 V1 1.871552 1_555
O31 P7 1.558431 1_555
O31 V1 1.852761 1_565
O32 P11 1.585566 1_555
O32 V0 1.890985 1_545
O33 P10 1.571482 1_555
O33 V0 1.864619 1_545
O34 P10 1.482105 1_565
O35 P9 1.473469 1_555
O36 P9 1.608416 1_545
O36 P10 1.623510 1_555
O37 P13 1.574357 1_555
O37 V1 1.940671 1_555
O38 P12 1.569045 1_555
O38 V2 1.886861 1_455
O39 P8 1.578439 1_555
O39 V3 1.860866 1_555
O40 P12 1.605992 1_555
O40 V1 1.818392 1_555
O41 P12 1.479369 1_555
O42 P11 1.476367 1_555
O43 P11 1.563656 1_555
O43 V4 1.878767 1_555
O44 P14 1.537053 1_555
O44 V2 1.899746 1_455
O45 P11 1.594639 1_555
O45 V3 1.862664 1_555
O46 P10 1.543167 1_555
O46 V4 1.897497 1_555
O47 P0 1.611392 1_555
O47 P13 1.618378 1_555
O48 P0 1.475724 1_555
O49 P13 1.567137 1_555
O49 V5 1.845757 1_555
O50 P12 1.564793 1_555
O50 V5 1.892163 1_555
O51 P15 1.555908 1_555
O51 V4 1.897284 1_555
O52 P15 1.564913 1_555
O52 V3 1.955951 1_555
O53 P7 1.492095 1_555
O54 P14 1.613801 1_555
O54 P7 1.614458 1_455
O55 P14 1.541333 1_555
O55 V5 1.917419 1_555
O56 P2 1.476564 1_555
O57 P15 1.615769 1_555
O57 P2 1.617502 1_555
