# generated using pymatgen
data_LiCuPO4
_symmetry_space_group_name_H-M   'P 1'
_cell_length_a   5.06635314
_cell_length_b   5.06635314
_cell_length_c   6.10740300
_cell_angle_alpha   90.00000000
_cell_angle_beta   90.00000000
_cell_angle_gamma   112.62440671
_symmetry_Int_Tables_number   1
_chemical_formula_structural   LiCuPO4
_chemical_formula_sum   'Li2 Cu2 P2 O8'
_cell_volume   144.70083652
_cell_formula_units_Z   2
loop_
 _symmetry_equiv_pos_site_id
 _symmetry_equiv_pos_as_xyz
  1  'x, y, z'
loop_
 _atom_site_type_symbol
 _atom_site_label
 _atom_site_symmetry_multiplicity
 _atom_site_fract_x
 _atom_site_fract_y
 _atom_site_fract_z
 _atom_site_occupancy
  Li  Li0  1  0.50000000  0.50000000  0.00000000  1
  Li  Li1  1  0.50000000  0.50000000  0.50000000  1
  Cu  Cu0  1  0.81117800  0.18882200  0.25000000  1
  Cu  Cu1  1  0.18882200  0.81117800  0.75000000  1
  P  P0  1  0.86425700  0.13574300  0.75000000  1
  P  P1  1  0.13574300  0.86425700  0.25000000  1
  O  O0  1  0.24910700  0.19731700  0.25000000  1
  O  O1  1  0.19731700  0.24910700  0.75000000  1
  O  O2  1  0.75258900  0.24741100  0.54815700  1
  O  O3  1  0.75258900  0.24741100  0.95184300  1
  O  O4  1  0.24741100  0.75258900  0.04815700  1
  O  O5  1  0.24741100  0.75258900  0.45184300  1
  O  O6  1  0.80268300  0.75089300  0.25000000  1
  O  O7  1  0.75089300  0.80268300  0.75000000  1
loop_
_geom_bond_atom_site_label_1
_geom_bond_atom_site_label_2
_geom_bond_distance
_geom_bond_site_symmetry_2
Li0 O4 2.149828 1_555
Li0 O3 2.149828 1_554
Li0 O1 2.190642 1_554
Li0 O6 2.190642 1_555
Li0 O7 2.190642 1_554
Li0 O0 2.190642 1_555
Li1 O5 2.149828 1_555
Li1 O2 2.149828 1_555
Li1 O1 2.190642 1_555
Li1 O6 2.190642 1_555
Li1 O7 2.190642 1_555
Li1 O0 2.190642 1_555
Cu0 O3 1.886776 1_554
Cu0 O2 1.886776 1_555
Cu0 O0 2.202505 1_655
Cu0 O6 2.202505 1_545
Cu1 O4 1.886776 1_556
Cu1 O5 1.886776 1_555
Cu1 O7 2.202505 1_455
Cu1 O1 2.202505 1_565
O0 P1 1.559342 1_545
O1 P0 1.559342 1_455
O2 P0 1.551142 1_555
O3 P0 1.551142 1_555
O4 P1 1.551142 1_555
O5 P1 1.551142 1_555
O6 P1 1.559342 1_655
O7 P0 1.559342 1_565
