# generated using pymatgen
data_NaB(HO)4
_symmetry_space_group_name_H-M   'P 1'
_cell_length_a   10.29209097
_cell_length_b   5.84159227
_cell_length_c   6.07505166
_cell_angle_alpha   67.31673858
_cell_angle_beta   90.00000000
_cell_angle_gamma   90.00000000
_symmetry_Int_Tables_number   1
_chemical_formula_structural   NaB(HO)4
_chemical_formula_sum   'Na4 B4 H16 O16'
_cell_volume   336.99401729
_cell_formula_units_Z   4
loop_
 _symmetry_equiv_pos_site_id
 _symmetry_equiv_pos_as_xyz
  1  'x, y, z'
loop_
 _atom_site_type_symbol
 _atom_site_label
 _atom_site_symmetry_multiplicity
 _atom_site_fract_x
 _atom_site_fract_y
 _atom_site_fract_z
 _atom_site_occupancy
  Na  Na0  1  0.01805226  0.74698837  0.24365321  1
  Na  Na1  1  0.51805226  0.75301163  0.75634679  1
  Na  Na2  1  0.98194774  0.25301163  0.75634679  1
  Na  Na3  1  0.48194774  0.24698837  0.24365321  1
  B  B0  1  0.09125359  0.72591821  0.72448397  1
  B  B1  1  0.59125359  0.77408179  0.27551603  1
  B  B2  1  0.90874641  0.27408179  0.27551603  1
  B  B3  1  0.40874641  0.22591821  0.72448397  1
  H  H0  1  0.90711689  0.85454787  0.61570103  1
  H  H1  1  0.40711689  0.64545213  0.38429897  1
  H  H2  1  0.09288311  0.14545213  0.38429897  1
  H  H3  1  0.59288311  0.35454787  0.61570103  1
  H  H4  1  0.19252817  0.92882597  0.86519829  1
  H  H5  1  0.69252817  0.57117403  0.13480171  1
  H  H6  1  0.80747183  0.07117403  0.13480171  1
  H  H7  1  0.30747183  0.42882597  0.86519829  1
  H  H8  1  0.12041461  0.42105253  0.02769243  1
  H  H9  1  0.62041461  0.07894747  0.97230757  1
  H  H10  1  0.87958539  0.57894747  0.97230757  1
  H  H11  1  0.37958539  0.92105253  0.02769243  1
  H  H12  1  0.25141803  0.85180872  0.50420458  1
  H  H13  1  0.75141803  0.64819128  0.49579542  1
  H  H14  1  0.74858197  0.14819128  0.49579542  1
  H  H15  1  0.24858197  0.35180872  0.50420458  1
  O  O0  1  0.95273483  0.69399345  0.67121389  1
  O  O1  1  0.45273483  0.80600655  0.32878611  1
  O  O2  1  0.04726517  0.30600655  0.32878611  1
  O  O3  1  0.54726517  0.19399345  0.67121389  1
  O  O4  1  0.09986793  0.88659208  0.85799797  1
  O  O5  1  0.59986793  0.61340792  0.14200203  1
  O  O6  1  0.90013207  0.11340792  0.14200203  1
  O  O7  1  0.40013207  0.38659208  0.85799797  1
  O  O8  1  0.14530168  0.47673204  0.85911252  1
  O  O9  1  0.64530168  0.02326796  0.14088748  1
  O  O10  1  0.85469832  0.52326796  0.14088748  1
  O  O11  1  0.35469832  0.97673204  0.85911252  1
  O  O12  1  0.15876629  0.83492050  0.48985294  1
  O  O13  1  0.65876629  0.66507950  0.51014706  1
  O  O14  1  0.84123371  0.16507950  0.51014706  1
  O  O15  1  0.34123371  0.33492050  0.48985294  1
loop_
_geom_bond_atom_site_label_1
_geom_bond_atom_site_label_2
_geom_bond_distance
_geom_bond_site_symmetry_2
Na0 O12 2.278344 1_555
Na0 O4 2.321541 1_554
Na0 O6 2.327322 1_465
Na0 O10 2.356607 1_455
Na0 O2 2.442597 1_555
Na0 O0 2.583474 1_455
Na1 O13 2.278344 1_555
Na1 O5 2.321541 1_556
Na1 O7 2.327322 1_555
Na1 O11 2.356607 1_555
Na1 O3 2.442597 1_565
Na1 O1 2.583474 1_555
Na2 O14 2.278344 1_555
Na2 O6 2.321541 1_556
Na2 O4 2.327322 1_645
Na2 O8 2.356607 1_655
Na2 O0 2.442597 1_555
Na2 O2 2.583474 1_655
Na3 O15 2.278344 1_555
Na3 O7 2.321541 1_554
Na3 O5 2.327322 1_555
Na3 O9 2.356607 1_555
Na3 O1 2.442597 1_545
Na3 O3 2.583474 1_555
B0 O4 1.460778 1_555
B0 O8 1.476152 1_555
B0 O0 1.489472 1_455
B0 O12 1.489964 1_555
B1 O5 1.460778 1_555
B1 O9 1.476152 1_565
B1 O1 1.489472 1_555
B1 O13 1.489964 1_555
B2 O6 1.460778 1_555
B2 O10 1.476152 1_555
B2 O2 1.489472 1_655
B2 O14 1.489964 1_555
B3 O7 1.460778 1_555
B3 O11 1.476152 1_545
B3 O3 1.489472 1_555
B3 O15 1.489964 1_555
H0 O0 0.984814 1_555
H1 O1 0.984814 1_555
H2 O2 0.984814 1_555
H3 O3 0.984814 1_555
H4 O4 0.990245 1_555
H5 O5 0.990245 1_555
H6 O6 0.990245 1_555
H7 O7 0.990245 1_555
H8 O8 0.981494 1_554
H9 O9 0.981494 1_556
H10 O10 0.981494 1_556
H11 O11 0.981494 1_554
H12 O12 0.966066 1_555
H13 O13 0.966066 1_555
H14 O14 0.966066 1_555
H15 O15 0.966066 1_555
