# generated using pymatgen
data_Li2MnV(P2O7)2
_symmetry_space_group_name_H-M   'P 1'
_cell_length_a   4.86871600
_cell_length_b   8.29607154
_cell_length_c   20.11759406
_cell_angle_alpha   89.53609720
_cell_angle_beta   84.56037702
_cell_angle_gamma   89.76541051
_symmetry_Int_Tables_number   1
_chemical_formula_structural   Li2MnV(P2O7)2
_chemical_formula_sum   'Li6 Mn3 V3 P12 O42'
_cell_volume   808.88375147
_cell_formula_units_Z   3
loop_
 _symmetry_equiv_pos_site_id
 _symmetry_equiv_pos_as_xyz
  1  'x, y, z'
loop_
 _atom_site_type_symbol
 _atom_site_label
 _atom_site_symmetry_multiplicity
 _atom_site_fract_x
 _atom_site_fract_y
 _atom_site_fract_z
 _atom_site_occupancy
  Li  Li0  1  0.94887000  0.64047600  0.77531000  1
  Li  Li1  1  0.71847200  0.14016800  0.89083000  1
  Li  Li2  1  0.61836100  0.63994300  0.44206600  1
  Li  Li3  1  0.38366200  0.13787500  0.55811200  1
  Li  Li4  1  0.28563600  0.63849600  0.10791300  1
  Li  Li5  1  0.04848100  0.13774900  0.22527400  1
  Mn  Mn0  1  0.97054600  0.00283800  0.75662200  1
  Mn  Mn1  1  0.69612900  0.50291600  0.90952400  1
  Mn  Mn2  1  0.63877700  0.00084500  0.42316700  1
  V  V0  1  0.36141700  0.50074600  0.57588300  1
  V  V1  1  0.30551600  0.99880500  0.09036000  1
  V  V2  1  0.02759800  0.49892800  0.24297700  1
  P  P0  1  0.84934400  0.71304600  0.63752700  1
  P  P1  1  0.89227400  0.32013300  0.49401400  1
  P  P2  1  0.77373200  0.81955000  0.17436900  1
  P  P3  1  0.81640900  0.21282000  0.02922000  1
  P  P4  1  0.43933900  0.82365500  0.83878100  1
  P  P5  1  0.48180600  0.21652700  0.69620800  1
  P  P6  1  0.51555800  0.71214800  0.30444300  1
  P  P7  1  0.55927900  0.31815100  0.15891100  1
  P  P8  1  0.18412600  0.71598100  0.97078000  1
  P  P9  1  0.22716500  0.32269300  0.82799000  1
  P  P10  1  0.10606700  0.82130900  0.50745900  1
  P  P11  1  0.14914300  0.21570400  0.36248700  1
  O  O0  1  0.89404800  0.67484300  0.95198800  1
  O  O1  1  0.98587900  0.84719600  0.58420100  1
  O  O2  1  0.83575300  0.29709200  0.96157100  1
  O  O3  1  0.83089200  0.79710300  0.70466900  1
  O  O4  1  0.96561900  0.06585500  0.36083400  1
  O  O5  1  0.77285300  0.17460100  0.71491700  1
  O  O6  1  0.86121500  0.82327800  0.46394200  1
  O  O7  1  0.97472400  0.96046800  0.16070900  1
  O  O8  1  0.92081000  0.65564900  0.16892500  1
  O  O9  1  0.63816800  0.96722700  0.82720600  1
  O  O10  1  0.74717900  0.15777100  0.50192900  1
  O  O11  1  0.58260800  0.66052900  0.83164600  1
  O  O12  1  0.69384800  0.46378300  0.50563400  1
  O  O13  1  0.80583100  0.32173600  0.20152000  1
  O  O14  1  0.70479800  0.56290700  0.30421300  1
  O  O15  1  0.47599400  0.32804500  0.87003600  1
  O  O16  1  0.56740500  0.67227900  0.61529700  1
  O  O17  1  0.65418800  0.84589400  0.25136700  1
  O  O18  1  0.37000200  0.56601800  0.97233600  1
  O  O19  1  0.49543700  0.30628500  0.62964500  1
  O  O20  1  0.67815400  0.34588500  0.08187900  1
  O  O21  1  0.31947800  0.84611600  0.91630100  1
  O  O22  1  0.49655200  0.79534300  0.37178300  1
  O  O23  1  0.62940100  0.06396500  0.02980100  1
  O  O24  1  0.34686400  0.34591200  0.75020100  1
  O  O25  1  0.43968200  0.17525400  0.38136600  1
  O  O26  1  0.52751700  0.82292300  0.13189400  1
  O  O27  1  0.29680300  0.06666500  0.69508800  1
  O  O28  1  0.18945400  0.82908000  0.79662000  1
  O  O29  1  0.30472800  0.96385000  0.49416500  1
  O  O30  1  0.41322600  0.15490300  0.16410900  1
  O  O31  1  0.25263600  0.65768200  0.50263600  1
  O  O32  1  0.35792100  0.46029700  0.17218800  1
  O  O33  1  0.08421300  0.16006400  0.83540300  1
  O  O34  1  0.02897200  0.46683900  0.83917400  1
  O  O35  1  0.14309000  0.32590600  0.53502700  1
  O  O36  1  0.23394700  0.67281900  0.28171600  1
  O  O37  1  0.03801200  0.56402900  0.63731800  1
  O  O38  1  0.16361500  0.30453100  0.29564100  1
  O  O39  1  0.17092400  0.80449800  0.03706400  1
  O  O40  1  0.01103300  0.34440800  0.41616600  1
  O  O41  1  0.09881400  0.17223500  0.05165000  1
loop_
_geom_bond_atom_site_label_1
_geom_bond_atom_site_label_2
_geom_bond_distance
_geom_bond_site_symmetry_2
Li0 O34 1.984506 1_655
Li0 O11 2.027189 1_555
Li0 O28 2.031032 1_655
Li0 O3 2.038799 1_555
Li1 O9 1.994700 1_545
Li1 O33 2.016042 1_655
Li1 O15 2.016452 1_555
Li1 O2 2.058240 1_555
Li2 O12 1.990160 1_555
Li2 O6 2.007302 1_555
Li2 O22 2.033755 1_555
Li2 O31 2.065533 1_555
Li3 O29 2.003837 1_545
Li3 O10 2.014264 1_555
Li3 O35 2.024192 1_555
Li3 O19 2.122816 1_555
Li4 O32 2.008095 1_555
Li4 O26 2.023609 1_555
Li4 O8 2.066208 1_455
Li4 O39 2.086350 1_555
Li5 O13 2.008561 1_455
Li5 O7 2.025545 1_445
Li5 O30 2.067103 1_555
Li5 O38 2.102653 1_555
Mn0 O5 1.945091 1_555
Mn0 O27 1.989840 1_655
Mn0 O28 1.998148 1_645
Mn0 O9 2.069741 1_545
Mn0 O3 2.154288 1_545
Mn0 O33 2.173741 1_655
Mn1 O0 1.969714 1_555
Mn1 O18 2.003865 1_555
Mn1 O15 2.019220 1_555
Mn1 O34 2.070438 1_655
Mn1 O2 2.137897 1_555
Mn1 O11 2.143573 1_555
Mn2 O25 1.965628 1_555
Mn2 O4 2.003335 1_555
Mn2 O6 2.037546 1_545
Mn2 O29 2.082300 1_545
Mn2 O22 2.151403 1_545
Mn2 O10 2.163710 1_555
O0 P8 1.536643 1_655
O1 P10 1.614036 1_655
O1 P0 1.637949 1_555
O2 P3 1.520073 1_556
O3 P0 1.520058 1_555
O4 P11 1.536338 1_655
O5 P5 1.538039 1_555
O6 P10 1.544444 1_655
O7 P2 1.533955 1_555
O7 V1 2.064624 1_655
O8 P2 1.534019 1_555
O8 V2 2.071245 1_655
O9 P4 1.540202 1_555
O10 P1 1.523714 1_555
O11 P4 1.521521 1_555
O12 P1 1.536374 1_555
O12 V0 2.068853 1_555
O13 P7 1.540257 1_555
O13 V2 2.055687 1_655
O14 P6 1.540061 1_555
O14 V2 1.976367 1_655
O15 P9 1.542877 1_555
O16 P0 1.523573 1_555
O16 V0 1.959672 1_555
O17 P2 1.618479 1_555
O17 P6 1.636191 1_555
O18 P8 1.537296 1_555
O19 P5 1.522976 1_555
O19 V0 2.072458 1_555
O20 P7 1.617017 1_555
O20 P3 1.634519 1_555
O21 P4 1.624387 1_555
O21 P8 1.628110 1_555
O22 P6 1.520211 1_555
O23 P3 1.536584 1_555
O23 V1 1.973622 1_545
O24 P5 1.625256 1_555
O24 P9 1.627533 1_555
O25 P11 1.534185 1_555
O26 P2 1.536715 1_555
O26 V1 2.033238 1_555
O27 P5 1.539805 1_555
O28 P4 1.547957 1_555
O29 P10 1.536433 1_555
O30 P7 1.530443 1_555
O30 V1 2.082652 1_545
O31 P10 1.530496 1_555
O31 V0 2.063539 1_555
O32 P7 1.539177 1_555
O32 V2 2.070312 1_555
O33 P9 1.520424 1_555
O34 P9 1.538029 1_555
O35 P1 1.538314 1_455
O35 V0 2.026562 1_555
O36 P6 1.523254 1_555
O36 V2 1.968843 1_555
O37 P0 1.536936 1_455
O37 V0 1.979186 1_555
O38 P11 1.524092 1_555
O38 V2 2.063623 1_555
O39 P8 1.523406 1_554
O39 V1 2.085025 1_555
O40 P11 1.622806 1_555
O40 P1 1.628421 1_455
O41 P3 1.522775 1_455
O41 V1 1.951394 1_545
