# generated using pymatgen
data_Li4Mn3V2Fe3O16
_symmetry_space_group_name_H-M   'P 1'
_cell_length_a   5.89167800
_cell_length_b   5.90503337
_cell_length_c   9.51485674
_cell_angle_alpha   90.86184635
_cell_angle_beta   90.01855291
_cell_angle_gamma   119.26024570
_symmetry_Int_Tables_number   1
_chemical_formula_structural   Li4Mn3V2Fe3O16
_chemical_formula_sum   'Li4 Mn3 V2 Fe3 O16'
_cell_volume   288.74708699
_cell_formula_units_Z   1
loop_
 _symmetry_equiv_pos_site_id
 _symmetry_equiv_pos_as_xyz
  1  'x, y, z'
loop_
 _atom_site_type_symbol
 _atom_site_label
 _atom_site_symmetry_multiplicity
 _atom_site_fract_x
 _atom_site_fract_y
 _atom_site_fract_z
 _atom_site_occupancy
  Li  Li0  1  0.33474000  0.67938500  0.10259300  1
  Li  Li1  1  0.00363600  0.99666100  0.00579200  1
  Li  Li2  1  0.00112400  0.99192700  0.50600500  1
  Li  Li3  1  0.66247900  0.33774400  0.60216500  1
  Mn  Mn0  1  0.17217600  0.82836200  0.78629300  1
  Mn  Mn1  1  0.82647700  0.65622700  0.28428300  1
  Mn  Mn2  1  0.33715900  0.17336200  0.28717100  1
  V  V0  1  0.32879700  0.66247200  0.51114300  1
  V  V1  1  0.67232800  0.33531600  0.01186900  1
  Fe  Fe0  1  0.66191500  0.82943800  0.78589500  1
  Fe  Fe1  1  0.17073500  0.33887800  0.78658200  1
  Fe  Fe2  1  0.82799500  0.16548800  0.28721400  1
  O  O0  1  0.66684400  0.82599000  0.40196600  1
  O  O1  1  0.47269100  0.52269000  0.64915100  1
  O  O2  1  0.33273000  0.67403300  0.89524600  1
  O  O3  1  0.00420300  0.99266100  0.69393400  1
  O  O4  1  0.00028700  0.98621500  0.19464900  1
  O  O5  1  0.16605300  0.32326500  0.40523700  1
  O  O6  1  0.46730900  0.96020200  0.65854000  1
  O  O7  1  0.03690300  0.52789000  0.66084700  1
  O  O8  1  0.83354700  0.17255800  0.90748000  1
  O  O9  1  0.15198600  0.79786200  0.40825100  1
  O  O10  1  0.96130500  0.48549300  0.16049100  1
  O  O11  1  0.51647800  0.05266500  0.15452500  1
  O  O12  1  0.66476500  0.34453000  0.39167900  1
  O  O13  1  0.84245800  0.66372400  0.90031400  1
  O  O14  1  0.54648900  0.51190300  0.14987400  1
  O  O15  1  0.33668900  0.16335800  0.90296700  1
loop_
_geom_bond_atom_site_label_1
_geom_bond_atom_site_label_2
_geom_bond_distance
_geom_bond_site_symmetry_2
Li0 O2 1.972594 1_554
Li0 O11 1.977116 1_565
Li0 O14 1.988975 1_555
Li0 O10 2.003077 1_455
Li1 O4 1.798717 1_555
Li1 O13 1.972094 1_454
Li1 O15 1.979538 1_564
Li1 O8 2.001055 1_464
Li2 O3 1.788122 1_555
Li2 O5 1.972344 1_565
Li2 O0 1.975333 1_455
Li2 O9 1.983061 1_555
Li3 O1 1.955063 1_555
Li3 O7 1.999467 1_655
Li3 O12 2.003665 1_555
Li3 O6 2.027446 1_545
Mn0 O3 1.912224 1_555
Mn0 O2 1.915844 1_555
Mn0 O7 1.939413 1_555
Mn0 O6 1.952868 1_555
Mn0 O13 2.020576 1_455
Mn0 O15 2.035661 1_565
Mn1 O4 1.916490 1_655
Mn1 O14 1.916919 1_555
Mn1 O12 1.919016 1_555
Mn1 O10 1.944890 1_555
Mn1 O0 2.007947 1_555
Mn1 O9 2.041968 1_655
Mn2 O4 1.939311 1_545
Mn2 O12 1.948664 1_555
Mn2 O5 1.976093 1_555
Mn2 O11 1.981651 1_555
Mn2 O14 2.212116 1_555
Mn2 O9 2.268691 1_545
Fe0 O3 1.971775 1_655
Fe0 O2 1.994078 1_555
Fe0 O1 2.042269 1_555
Fe0 O6 2.066860 1_555
Fe0 O13 2.079196 1_555
Fe0 O8 2.095703 1_565
Fe1 O3 1.975799 1_545
Fe1 O2 1.997013 1_555
Fe1 O7 2.049041 1_555
Fe1 O1 2.051717 1_555
Fe1 O15 2.069057 1_555
Fe1 O8 2.088679 1_455
Fe2 O4 1.987403 1_645
Fe2 O12 1.998388 1_555
Fe2 O11 2.045538 1_555
Fe2 O5 2.061347 1_655
Fe2 O10 2.063920 1_555
Fe2 O0 2.078084 1_545
O0 V0 2.032179 1_555
O1 V0 1.959666 1_555
O5 V0 2.002023 1_555
O6 V0 2.060668 1_555
O7 V0 2.077897 1_555
O8 V1 1.917485 1_556
O9 V0 1.876115 1_555
O10 V1 2.041966 1_555
O11 V1 2.010496 1_555
O13 V1 2.013577 1_556
O14 V1 2.019015 1_555
O15 V1 2.004818 1_556
