# generated using pymatgen
data_Fe3O5F
_symmetry_space_group_name_H-M   'P 1'
_cell_length_a   5.52309275
_cell_length_b   5.52309275
_cell_length_c   7.36576835
_cell_angle_alpha   70.81755894
_cell_angle_beta   70.81755894
_cell_angle_gamma   70.98633334
_symmetry_Int_Tables_number   1
_chemical_formula_structural   Fe3O5F
_chemical_formula_sum   'Fe6 O10 F2'
_cell_volume   194.36351613
_cell_formula_units_Z   2
loop_
 _symmetry_equiv_pos_site_id
 _symmetry_equiv_pos_as_xyz
  1  'x, y, z'
loop_
 _atom_site_type_symbol
 _atom_site_label
 _atom_site_symmetry_multiplicity
 _atom_site_fract_x
 _atom_site_fract_y
 _atom_site_fract_z
 _atom_site_occupancy
  Fe  Fe0  1  0.50000000  0.50000000  0.00000000  1
  Fe  Fe1  1  0.16775500  0.16775500  0.84395700  1
  Fe  Fe2  1  0.50000000  0.50000000  0.50000000  1
  Fe  Fe3  1  0.15756600  0.15756600  0.31918400  1
  Fe  Fe4  1  0.84243400  0.84243400  0.68081600  1
  Fe  Fe5  1  0.83224500  0.83224500  0.15604300  1
  O  O0  1  0.47610400  0.86195700  0.83308600  1
  O  O1  1  0.80464300  0.19535700  0.50000000  1
  O  O2  1  0.05563400  0.05563400  0.13321600  1
  O  O3  1  0.39691100  0.39691100  0.78844600  1
  O  O4  1  0.60308900  0.60308900  0.21155400  1
  O  O5  1  0.94436600  0.94436600  0.86678400  1
  O  O6  1  0.19535700  0.80464300  0.50000000  1
  O  O7  1  0.86195700  0.47610400  0.83308600  1
  O  O8  1  0.52389600  0.13804300  0.16691400  1
  O  O9  1  0.13804300  0.52389600  0.16691400  1
  F  F0  1  0.73711200  0.73711200  0.46674700  1
  F  F1  1  0.26288800  0.26288800  0.53325300  1
loop_
_geom_bond_atom_site_label_1
_geom_bond_atom_site_label_2
_geom_bond_distance
_geom_bond_site_symmetry_2
Fe0 O8 1.960868 1_555
Fe0 O9 1.960868 1_555
Fe0 O0 1.960868 1_554
Fe0 O7 1.960868 1_554
Fe0 O4 2.110415 1_555
Fe0 O3 2.110415 1_554
Fe1 O3 1.932492 1_555
Fe1 O5 1.947311 1_445
Fe1 O2 1.955058 1_556
Fe1 O0 1.970882 1_545
Fe1 O7 1.970882 1_455
Fe2 O4 1.945178 1_555
Fe2 O3 1.945178 1_555
Fe2 O6 1.953822 1_555
Fe2 O1 1.953822 1_555
Fe3 O2 1.931401 1_555
Fe3 O8 1.951737 1_555
Fe3 O9 1.951737 1_555
Fe3 O1 1.956638 1_455
Fe3 O6 1.956638 1_545
Fe4 O5 1.931401 1_555
Fe4 O7 1.951737 1_555
Fe4 O0 1.951737 1_555
Fe4 O6 1.956638 1_655
Fe4 O1 1.956638 1_565
Fe5 O4 1.932492 1_555
Fe5 O2 1.947311 1_665
Fe5 O5 1.955058 1_554
Fe5 O9 1.970882 1_655
Fe5 O8 1.970882 1_565
F0 Fe2 2.045962 1_555
F0 Fe5 2.095036 1_555
F0 Fe4 2.142194 1_555
F1 Fe2 2.045962 1_555
F1 Fe1 2.095036 1_555
F1 Fe3 2.142194 1_555
