# generated using pymatgen
data_Sr4Ta2O9
_symmetry_space_group_name_H-M   'P 1'
_cell_length_a   5.98063900
_cell_length_b   10.35812700
_cell_length_c   15.30601300
_cell_angle_alpha   90.00000000
_cell_angle_beta   90.00000000
_cell_angle_gamma   90.00000000
_symmetry_Int_Tables_number   1
_chemical_formula_structural   Sr4Ta2O9
_chemical_formula_sum   'Sr16 Ta8 O36'
_cell_volume   948.18023467
_cell_formula_units_Z   4
loop_
 _symmetry_equiv_pos_site_id
 _symmetry_equiv_pos_as_xyz
  1  'x, y, z'
loop_
 _atom_site_type_symbol
 _atom_site_label
 _atom_site_symmetry_multiplicity
 _atom_site_fract_x
 _atom_site_fract_y
 _atom_site_fract_z
 _atom_site_occupancy
  Sr  Sr0  1  0.49322600  0.83542700  0.29041700  1
  Sr  Sr1  1  0.49322600  0.16457300  0.20958300  1
  Sr  Sr2  1  0.48523700  0.16421900  0.48411800  1
  Sr  Sr3  1  0.48523700  0.83578100  0.01588200  1
  Sr  Sr4  1  0.01476300  0.66421900  0.51588200  1
  Sr  Sr5  1  0.01476300  0.33578100  0.98411800  1
  Sr  Sr6  1  0.00677400  0.33542700  0.70958300  1
  Sr  Sr7  1  0.00677400  0.66457300  0.79041700  1
  Sr  Sr8  1  0.99322600  0.33542700  0.20958300  1
  Sr  Sr9  1  0.99322600  0.66457300  0.29041700  1
  Sr  Sr10  1  0.98523700  0.66421900  0.01588200  1
  Sr  Sr11  1  0.98523700  0.33578100  0.48411800  1
  Sr  Sr12  1  0.51476300  0.16421900  0.98411800  1
  Sr  Sr13  1  0.51476300  0.83578100  0.51588200  1
  Sr  Sr14  1  0.50677400  0.16457300  0.70958300  1
  Sr  Sr15  1  0.50677400  0.83542700  0.79041700  1
  Ta  Ta0  1  0.49558100  0.50097600  0.14963300  1
  Ta  Ta1  1  0.49558100  0.49902400  0.35036700  1
  Ta  Ta2  1  0.00441900  0.99902400  0.64963300  1
  Ta  Ta3  1  0.00441900  0.00097600  0.85036700  1
  Ta  Ta4  1  0.99558100  0.00097600  0.35036700  1
  Ta  Ta5  1  0.99558100  0.99902400  0.14963300  1
  Ta  Ta6  1  0.50441900  0.50097600  0.64963300  1
  Ta  Ta7  1  0.50441900  0.49902400  0.85036700  1
  O  O0  1  0.38243900  0.62413000  0.74626900  1
  O  O1  1  0.38243900  0.37587000  0.75373100  1
  O  O2  1  0.35321400  0.64012900  0.08955500  1
  O  O3  1  0.35321400  0.35987100  0.41044500  1
  O  O4  1  0.29033300  0.98653500  0.40369900  1
  O  O5  1  0.29033300  0.01346500  0.09630100  1
  O  O6  1  0.34165700  0.65179900  0.39968600  1
  O  O7  1  0.34165700  0.34820100  0.10031400  1
  O  O8  1  0.25045100  0.00000000  0.75000000  1
  O  O9  1  0.24954900  0.50000000  0.25000000  1
  O  O10  1  0.15834300  0.84820100  0.89968600  1
  O  O11  1  0.15834300  0.15179900  0.60031400  1
  O  O12  1  0.20966700  0.48653500  0.59630100  1
  O  O13  1  0.20966700  0.51346500  0.90369900  1
  O  O14  1  0.14678600  0.85987100  0.58955500  1
  O  O15  1  0.14678600  0.14012900  0.91044500  1
  O  O16  1  0.11756100  0.87587000  0.24626900  1
  O  O17  1  0.11756100  0.12413000  0.25373100  1
  O  O18  1  0.88243900  0.12413000  0.75373100  1
  O  O19  1  0.88243900  0.87587000  0.74626900  1
  O  O20  1  0.85321400  0.14012900  0.41044500  1
  O  O21  1  0.85321400  0.85987100  0.08955500  1
  O  O22  1  0.79033300  0.51346500  0.40369900  1
  O  O23  1  0.79033300  0.48653500  0.09630100  1
  O  O24  1  0.84165700  0.84820100  0.39968600  1
  O  O25  1  0.84165700  0.15179900  0.10031400  1
  O  O26  1  0.75045100  0.50000000  0.75000000  1
  O  O27  1  0.74954900  0.00000000  0.25000000  1
  O  O28  1  0.65834300  0.65179900  0.89968600  1
  O  O29  1  0.65834300  0.34820100  0.60031400  1
  O  O30  1  0.70966700  0.98653500  0.90369900  1
  O  O31  1  0.70966700  0.01346500  0.59630100  1
  O  O32  1  0.64678600  0.64012900  0.58955500  1
  O  O33  1  0.64678600  0.35987100  0.91044500  1
  O  O34  1  0.61756100  0.62413000  0.24626900  1
  O  O35  1  0.61756100  0.37587000  0.25373100  1
loop_
_geom_bond_atom_site_label_1
_geom_bond_atom_site_label_2
_geom_bond_distance
_geom_bond_site_symmetry_2
O0 Ta6 2.085003 1_555
O0 Ta7 2.179483 1_555
O0 Sr7 2.383241 1_555
O0 Sr15 2.408258 1_555
O1 Ta7 2.085003 1_555
O1 Ta6 2.179483 1_555
O1 Sr6 2.383241 1_555
O1 Sr14 2.408258 1_555
O2 Ta0 1.909993 1_555
O2 Sr3 2.449913 1_555
O2 Sr10 2.485374 1_455
O3 Ta1 1.909993 1_555
O3 Sr2 2.449913 1_555
O3 Sr11 2.485374 1_455
O4 Ta4 1.948385 1_465
O4 Sr2 2.502236 1_565
O4 Sr0 2.632232 1_555
O4 Sr13 2.681103 1_555
O5 Ta5 1.948385 1_445
O5 Sr3 2.502236 1_545
O5 Sr1 2.632232 1_555
O5 Sr12 2.681103 1_554
O6 Ta1 1.980269 1_555
O6 Sr4 2.646085 1_555
O6 Sr9 2.675268 1_455
O6 Sr0 2.690099 1_555
O6 Sr13 2.804745 1_555
O7 Ta0 1.980269 1_555
O7 Sr5 2.646085 1_554
O7 Sr8 2.675268 1_455
O7 Sr1 2.690099 1_555
O7 Sr12 2.804745 1_554
O8 Ta2 2.127245 1_545
O8 Ta3 2.127245 1_555
O8 Sr15 2.374574 1_545
O8 Sr14 2.374574 1_555
O9 Ta1 2.127245 1_555
O9 Ta0 2.127245 1_555
O9 Sr9 2.374574 1_455
O9 Sr8 2.374574 1_455
O10 Ta3 1.980269 1_565
O10 Sr3 2.646085 1_556
O10 Sr15 2.675268 1_555
O10 Sr7 2.690099 1_555
O10 Sr10 2.804745 1_456
O11 Ta2 1.980269 1_545
O11 Sr2 2.646085 1_555
O11 Sr14 2.675268 1_555
O11 Sr6 2.690099 1_555
O11 Sr11 2.804745 1_455
O12 Ta6 1.948385 1_555
O12 Sr4 2.502236 1_555
O12 Sr6 2.632232 1_555
O12 Sr11 2.681103 1_455
O13 Ta7 1.948385 1_555
O13 Sr5 2.502236 1_555
O13 Sr7 2.632232 1_555
O13 Sr10 2.681103 1_456
O14 Ta2 1.909993 1_555
O14 Sr4 2.449913 1_555
O14 Sr13 2.485374 1_555
O15 Ta3 1.909993 1_555
O15 Sr5 2.449913 1_555
O15 Sr12 2.485374 1_555
O16 Ta5 2.085003 1_455
O16 Ta4 2.179483 1_465
O16 Sr0 2.383241 1_555
O16 Sr9 2.408258 1_455
O17 Ta4 2.085003 1_455
O17 Ta5 2.179483 1_445
O17 Sr1 2.383241 1_555
O17 Sr8 2.408258 1_455
O18 Ta3 2.085003 1_655
O18 Ta2 2.179483 1_645
O18 Sr14 2.383241 1_555
O18 Sr6 2.408258 1_655
O19 Ta2 2.085003 1_655
O19 Ta3 2.179483 1_665
O19 Sr15 2.383241 1_555
O19 Sr7 2.408258 1_655
O20 Ta4 1.909993 1_555
O20 Sr11 2.449913 1_555
O20 Sr2 2.485374 1_555
O21 Ta5 1.909993 1_555
O21 Sr10 2.449913 1_555
O21 Sr3 2.485374 1_555
O22 Ta1 1.948385 1_555
O22 Sr11 2.502236 1_555
O22 Sr9 2.632232 1_555
O22 Sr4 2.681103 1_655
O23 Ta0 1.948385 1_555
O23 Sr10 2.502236 1_555
O23 Sr8 2.632232 1_555
O23 Sr5 2.681103 1_654
O24 Ta4 1.980269 1_565
O24 Sr13 2.646085 1_555
O24 Sr0 2.675268 1_555
O24 Sr9 2.690099 1_555
O24 Sr4 2.804745 1_655
O25 Ta5 1.980269 1_545
O25 Sr12 2.646085 1_554
O25 Sr1 2.675268 1_555
O25 Sr8 2.690099 1_555
O25 Sr5 2.804745 1_654
O26 Ta7 2.127245 1_555
O26 Ta6 2.127245 1_555
O26 Sr7 2.374574 1_655
O26 Sr6 2.374574 1_655
O27 Ta4 2.127245 1_555
O27 Ta5 2.127245 1_545
O27 Sr1 2.374574 1_555
O27 Sr0 2.374574 1_545
O28 Ta7 1.980269 1_555
O28 Sr10 2.646085 1_556
O28 Sr7 2.675268 1_655
O28 Sr15 2.690099 1_555
O28 Sr3 2.804745 1_556
O29 Ta6 1.980269 1_555
O29 Sr11 2.646085 1_555
O29 Sr6 2.675268 1_655
O29 Sr14 2.690099 1_555
O29 Sr2 2.804745 1_555
O30 Ta3 1.948385 1_665
O30 Sr12 2.502236 1_565
O30 Sr15 2.632232 1_555
O30 Sr3 2.681103 1_556
O31 Ta2 1.948385 1_645
O31 Sr13 2.502236 1_545
O31 Sr14 2.632232 1_555
O31 Sr2 2.681103 1_555
O32 Ta6 1.909993 1_555
O32 Sr13 2.449913 1_555
O32 Sr4 2.485374 1_655
O33 Ta7 1.909993 1_555
O33 Sr12 2.449913 1_555
O33 Sr5 2.485374 1_655
O34 Ta0 2.085003 1_555
O34 Ta1 2.179483 1_555
O34 Sr9 2.383241 1_555
O34 Sr0 2.408258 1_555
O35 Ta1 2.085003 1_555
O35 Ta0 2.179483 1_555
O35 Sr8 2.383241 1_555
O35 Sr1 2.408258 1_555
