# generated using pymatgen
data_Ca(ReO5)2
_symmetry_space_group_name_H-M   'P 1'
_cell_length_a   10.54811623
_cell_length_b   10.54811623
_cell_length_c   14.32333253
_cell_angle_alpha   66.84608396
_cell_angle_beta   66.84608396
_cell_angle_gamma   40.09590975
_symmetry_Int_Tables_number   1
_chemical_formula_structural   Ca(ReO5)2
_chemical_formula_sum   'Ca4 Re8 O40'
_cell_volume   932.18368931
_cell_formula_units_Z   4
loop_
 _symmetry_equiv_pos_site_id
 _symmetry_equiv_pos_as_xyz
  1  'x, y, z'
loop_
 _atom_site_type_symbol
 _atom_site_label
 _atom_site_symmetry_multiplicity
 _atom_site_fract_x
 _atom_site_fract_y
 _atom_site_fract_z
 _atom_site_occupancy
  Ca  Ca0  1  0.73382600  0.98621600  0.44660200  1
  Ca  Ca1  1  0.01378400  0.26617400  0.05339800  1
  Ca  Ca2  1  0.26617400  0.01378400  0.55339800  1
  Ca  Ca3  1  0.98621600  0.73382600  0.94660200  1
  Re  Re0  1  0.81867900  0.53256100  0.42267800  1
  Re  Re1  1  0.46743900  0.18132100  0.07732200  1
  Re  Re2  1  0.18132100  0.46743900  0.57732200  1
  Re  Re3  1  0.53256100  0.81867900  0.92267800  1
  Re  Re4  1  0.81653900  0.03612200  0.68293900  1
  Re  Re5  1  0.96387800  0.18346100  0.81706100  1
  Re  Re6  1  0.18346100  0.96387800  0.31706100  1
  Re  Re7  1  0.03612200  0.81653900  0.18293900  1
  O  O0  1  0.75111300  0.40504200  0.76427600  1
  O  O1  1  0.59495800  0.24888700  0.73572400  1
  O  O2  1  0.24888700  0.59495800  0.23572400  1
  O  O3  1  0.40504200  0.75111300  0.26427600  1
  O  O4  1  0.00943100  0.63902700  0.49054900  1
  O  O5  1  0.36097300  0.99056900  0.00945100  1
  O  O6  1  0.99056900  0.36097300  0.50945100  1
  O  O7  1  0.63902700  0.00943100  0.99054900  1
  O  O8  1  0.94342500  0.53351200  0.30033700  1
  O  O9  1  0.46648800  0.05657500  0.19966300  1
  O  O10  1  0.05657500  0.46648800  0.69966300  1
  O  O11  1  0.53351200  0.94342500  0.80033700  1
  O  O12  1  0.13192100  0.42209500  0.90518600  1
  O  O13  1  0.57790500  0.86807900  0.59481400  1
  O  O14  1  0.86807900  0.57790500  0.09481400  1
  O  O15  1  0.42209500  0.13192100  0.40518600  1
  O  O16  1  0.22136900  0.38160300  0.04070500  1
  O  O17  1  0.61839700  0.77863100  0.45929500  1
  O  O18  1  0.77863100  0.61839700  0.95929500  1
  O  O19  1  0.38160300  0.22136900  0.54070500  1
  O  O20  1  0.08432600  0.17288300  0.21960800  1
  O  O21  1  0.82711700  0.91567400  0.28039200  1
  O  O22  1  0.91567400  0.82711700  0.78039200  1
  O  O23  1  0.17288300  0.08432600  0.71960800  1
  O  O24  1  0.98848200  0.04926200  0.63026700  1
  O  O25  1  0.95073800  0.01151800  0.86973300  1
  O  O26  1  0.01151800  0.95073800  0.36973300  1
  O  O27  1  0.04926200  0.98848200  0.13026700  1
  O  O28  1  0.27733400  0.54630900  0.57680400  1
  O  O29  1  0.45369100  0.72266700  0.92319600  1
  O  O30  1  0.72266700  0.45369100  0.42319600  1
  O  O31  1  0.54630900  0.27733400  0.07680400  1
  O  O32  1  0.34725400  0.54428500  0.88709400  1
  O  O33  1  0.45571500  0.65274600  0.61290600  1
  O  O34  1  0.65274600  0.45571500  0.11290600  1
  O  O35  1  0.54428500  0.34725400  0.38709400  1
  O  O36  1  0.98481800  0.22877200  0.91354700  1
  O  O37  1  0.77122800  0.01518200  0.58645300  1
  O  O38  1  0.01518200  0.77122800  0.08645300  1
  O  O39  1  0.22877200  0.98481800  0.41354700  1
loop_
_geom_bond_atom_site_label_1
_geom_bond_atom_site_label_2
_geom_bond_distance
_geom_bond_site_symmetry_2
Ca0 O37 2.355576 1_565
Ca0 O4 2.365819 1_655
Ca0 O21 2.370689 1_555
Ca0 O26 2.458226 1_655
Ca0 O19 2.522816 1_565
Ca0 O35 2.522966 1_565
Ca0 O15 2.571252 1_565
Ca0 O13 2.659687 1_555
Ca1 O36 2.355576 1_454
Ca1 O5 2.365819 1_545
Ca1 O20 2.370689 1_555
Ca1 O27 2.458226 1_545
Ca1 O18 2.522816 1_454
Ca1 O34 2.522966 1_455
Ca1 O14 2.571252 1_455
Ca1 O12 2.659687 1_554
Ca2 O39 2.355576 1_545
Ca2 O6 2.365819 1_455
Ca2 O23 2.370689 1_555
Ca2 O24 2.458226 1_455
Ca2 O17 2.522816 1_545
Ca2 O33 2.522966 1_545
Ca2 O13 2.571252 1_545
Ca2 O15 2.659687 1_555
Ca3 O38 2.355576 1_656
Ca3 O7 2.365819 1_565
Ca3 O22 2.370689 1_555
Ca3 O25 2.458226 1_565
Ca3 O16 2.522816 1_656
Ca3 O32 2.522966 1_655
Ca3 O12 2.571252 1_655
Ca3 O14 2.659687 1_556
O0 Re5 1.729359 1_555
O1 Re4 1.729359 1_555
O2 Re7 1.729359 1_555
O3 Re6 1.729359 1_555
O4 Re2 1.757966 1_555
O5 Re3 1.757966 1_554
O6 Re0 1.757966 1_555
O7 Re1 1.757966 1_556
O8 Re0 1.730688 1_555
O9 Re1 1.730688 1_555
O10 Re2 1.730688 1_555
O11 Re3 1.730688 1_555
O16 Re1 1.812486 1_555
O17 Re0 1.812486 1_555
O18 Re3 1.812486 1_555
O19 Re2 1.812486 1_555
O20 Re6 1.761535 1_545
O21 Re7 1.761535 1_655
O22 Re4 1.761535 1_565
O23 Re5 1.761535 1_455
O24 Re4 1.761852 1_555
O25 Re5 1.761852 1_555
O26 Re6 1.761852 1_555
O27 Re7 1.761852 1_555
O28 Re2 1.730927 1_555
O29 Re3 1.730917 1_555
O30 Re0 1.730917 1_555
O31 Re1 1.730927 1_555
O36 Re5 1.762994 1_555
O37 Re4 1.762994 1_555
O38 Re7 1.762994 1_555
O39 Re6 1.762994 1_555
