# generated using pymatgen
data_Li8MnFe7(BO3)8
_symmetry_space_group_name_H-M   'P 1'
_cell_length_a   6.01245700
_cell_length_b   8.18898618
_cell_length_c   10.46062503
_cell_angle_alpha   89.90828613
_cell_angle_beta   90.75338881
_cell_angle_gamma   102.87688039
_symmetry_Int_Tables_number   1
_chemical_formula_structural   Li8MnFe7(BO3)8
_chemical_formula_sum   'Li8 Mn1 Fe7 B8 O24'
_cell_volume   502.04209960
_cell_formula_units_Z   1
loop_
 _symmetry_equiv_pos_site_id
 _symmetry_equiv_pos_as_xyz
  1  'x, y, z'
loop_
 _atom_site_type_symbol
 _atom_site_label
 _atom_site_symmetry_multiplicity
 _atom_site_fract_x
 _atom_site_fract_y
 _atom_site_fract_z
 _atom_site_occupancy
  Li  Li0  1  0.95601300  0.28099800  0.32472900  1
  Li  Li1  1  0.95646900  0.27992600  0.82699500  1
  Li  Li2  1  0.54463700  0.21982400  0.42523700  1
  Li  Li3  1  0.54484600  0.22083000  0.92422100  1
  Li  Li4  1  0.45664100  0.78134500  0.07487300  1
  Li  Li5  1  0.45536500  0.77840600  0.57463300  1
  Li  Li6  1  0.04485500  0.71968100  0.17424800  1
  Li  Li7  1  0.04375000  0.71975800  0.67515200  1
  Mn  Mn0  1  0.18535000  0.41957300  0.58588800  1
  Fe  Fe0  1  0.81400000  0.57815000  0.41053700  1
  Fe  Fe1  1  0.81601200  0.57957300  0.91780200  1
  Fe  Fe2  1  0.68687400  0.92368900  0.33679600  1
  Fe  Fe3  1  0.68499300  0.92291400  0.83341900  1
  Fe  Fe4  1  0.31536300  0.07600200  0.16563900  1
  Fe  Fe5  1  0.31545500  0.07491300  0.66483900  1
  Fe  Fe6  1  0.18574000  0.41979200  0.08776400  1
  B  B0  1  0.83245400  0.09232700  0.08639200  1
  B  B1  1  0.83251400  0.09100300  0.58627300  1
  B  B2  1  0.66454500  0.40597300  0.16413100  1
  B  B3  1  0.66868600  0.40670500  0.66456200  1
  B  B4  1  0.33197600  0.59409300  0.33325400  1
  B  B5  1  0.33497500  0.59517000  0.83651600  1
  B  B6  1  0.16619700  0.90748900  0.41486400  1
  B  B7  1  0.16644500  0.90766400  0.91397700  1
  O  O0  1  0.82155000  0.11529400  0.45518700  1
  O  O1  1  0.81951500  0.11451300  0.95589400  1
  O  O2  1  0.98638200  0.81015100  0.34366100  1
  O  O3  1  0.98594100  0.81123500  0.84289500  1
  O  O4  1  0.83642600  0.52150000  0.10322400  1
  O  O5  1  0.83877400  0.52105900  0.60168400  1
  O  O6  1  0.67671700  0.38328600  0.29526600  1
  O  O7  1  0.68148100  0.38426300  0.79477400  1
  O  O8  1  0.48581600  0.30936600  0.09279900  1
  O  O9  1  0.48831700  0.30830300  0.59309100  1
  O  O10  1  0.33664700  0.02340700  0.35351000  1
  O  O11  1  0.66100800  0.97874100  0.14880200  1
  O  O12  1  0.33905600  0.02241500  0.85314800  1
  O  O13  1  0.65982300  0.97586600  0.64615500  1
  O  O14  1  0.51205000  0.68973100  0.40462700  1
  O  O15  1  0.51592900  0.69030000  0.90887800  1
  O  O16  1  0.32204800  0.61666000  0.20153500  1
  O  O17  1  0.32367400  0.62247800  0.70586900  1
  O  O18  1  0.15861900  0.48100900  0.39381700  1
  O  O19  1  0.16264100  0.47960800  0.89630700  1
  O  O20  1  0.01386200  0.18986100  0.15687500  1
  O  O21  1  0.01161000  0.18559700  0.65880300  1
  O  O22  1  0.17926000  0.88529200  0.04519400  1
  O  O23  1  0.17869900  0.88426900  0.54525900  1
loop_
_geom_bond_atom_site_label_1
_geom_bond_atom_site_label_2
_geom_bond_distance
_geom_bond_site_symmetry_2
Li0 O18 1.944283 1_655
Li0 O0 1.972653 1_555
Li0 O20 1.974072 1_655
Li0 O6 2.056459 1_555
Li1 O19 1.952656 1_655
Li1 O1 1.963969 1_555
Li1 O21 1.983912 1_655
Li1 O7 2.047258 1_555
Li2 O10 1.948485 1_555
Li2 O6 1.954399 1_555
Li2 O9 1.962586 1_555
Li2 O0 2.055117 1_555
Li3 O12 1.951234 1_555
Li3 O7 1.957816 1_555
Li3 O8 1.973969 1_556
Li3 O1 2.054394 1_555
Li4 O16 1.940405 1_555
Li4 O11 1.953097 1_555
Li4 O15 1.958811 1_554
Li4 O22 2.054411 1_555
Li5 O17 1.927261 1_555
Li5 O13 1.944044 1_555
Li5 O14 1.984046 1_555
Li5 O23 2.059476 1_555
Li6 O4 1.956815 1_455
Li6 O22 1.961909 1_555
Li6 O2 1.987390 1_455
Li6 O16 2.045530 1_555
Li7 O5 1.960193 1_455
Li7 O23 1.963515 1_555
Li7 O3 1.974138 1_455
Li7 O17 2.037890 1_555
Mn0 O18 2.083282 1_555
Mn0 O17 2.095485 1_555
Mn0 O21 2.113837 1_555
Mn0 O9 2.211345 1_555
Mn0 O5 2.416909 1_455
Fe0 O6 2.018557 1_555
Fe0 O5 2.063745 1_555
Fe0 O2 2.076103 1_555
Fe0 O14 2.207006 1_555
Fe0 O18 2.387724 1_655
Fe1 O4 2.005041 1_556
Fe1 O7 2.066676 1_555
Fe1 O3 2.099796 1_555
Fe1 O15 2.193317 1_555
Fe1 O19 2.416082 1_655
Fe2 O0 2.016159 1_565
Fe2 O11 2.028559 1_555
Fe2 O14 2.096805 1_555
Fe2 O2 2.203420 1_555
Fe2 O10 2.430640 1_565
Fe3 O13 2.016667 1_555
Fe3 O1 2.042275 1_565
Fe3 O15 2.106685 1_555
Fe3 O3 2.202913 1_555
Fe3 O12 2.408283 1_565
Fe4 O10 2.019733 1_555
Fe4 O22 2.026230 1_545
Fe4 O8 2.103758 1_555
Fe4 O20 2.216430 1_555
Fe4 O11 2.394163 1_545
Fe5 O23 2.021170 1_545
Fe5 O12 2.025417 1_555
Fe5 O9 2.104006 1_555
Fe5 O21 2.213085 1_555
Fe5 O13 2.396393 1_545
Fe6 O16 2.019569 1_555
Fe6 O20 2.069763 1_555
Fe6 O19 2.071265 1_554
Fe6 O8 2.190921 1_555
Fe6 O4 2.433078 1_455
B0 O1 1.380306 1_554
B0 O11 1.393688 1_545
B0 O20 1.401296 1_655
B1 O0 1.388096 1_555
B1 O13 1.392226 1_545
B1 O21 1.394209 1_655
B2 O6 1.387150 1_555
B2 O8 1.392586 1_555
B2 O4 1.395898 1_555
B3 O7 1.377589 1_555
B3 O5 1.394359 1_555
B3 O9 1.405508 1_555
B4 O18 1.389454 1_555
B4 O16 1.392178 1_555
B4 O14 1.394876 1_555
B5 O17 1.387699 1_555
B5 O19 1.392284 1_555
B5 O15 1.402143 1_555
B6 O23 1.380284 1_555
B6 O10 1.394632 1_565
B6 O2 1.398428 1_455
B7 O22 1.387901 1_556
B7 O12 1.394904 1_565
B7 O3 1.397477 1_455
