# generated using pymatgen
data_LiNi6O6F
_symmetry_space_group_name_H-M   'P 1'
_cell_length_a   15.00139604
_cell_length_b   15.00139604
_cell_length_c   15.00139604
_cell_angle_alpha   168.62413448
_cell_angle_beta   168.62413448
_cell_angle_gamma   16.11455170
_symmetry_Int_Tables_number   1
_chemical_formula_structural   LiNi6O6F
_chemical_formula_sum   'Li1 Ni6 O6 F1'
_cell_volume   131.33577898
_cell_formula_units_Z   1
loop_
 _symmetry_equiv_pos_site_id
 _symmetry_equiv_pos_as_xyz
  1  'x, y, z'
loop_
 _atom_site_type_symbol
 _atom_site_label
 _atom_site_symmetry_multiplicity
 _atom_site_fract_x
 _atom_site_fract_y
 _atom_site_fract_z
 _atom_site_occupancy
  Li  Li0  1  0.00000000  0.00000000  0.00000000  1
  Ni  Ni0  1  0.57289900  0.57289900  0.00000000  1
  Ni  Ni1  1  0.14296200  0.14296200  0.00000000  1
  Ni  Ni2  1  0.71445300  0.71445300  0.00000000  1
  Ni  Ni3  1  0.28554700  0.28554700  0.00000000  1
  Ni  Ni4  1  0.85703800  0.85703800  0.00000000  1
  Ni  Ni5  1  0.42710100  0.42710100  0.00000000  1
  O  O0  1  0.07159300  0.07159300  0.00000000  1
  O  O1  1  0.64331000  0.64331000  0.00000000  1
  O  O2  1  0.21441800  0.21441800  0.00000000  1
  O  O3  1  0.78558200  0.78558200  0.00000000  1
  O  O4  1  0.35669000  0.35669000  0.00000000  1
  O  O5  1  0.92840700  0.92840700  0.00000000  1
  F  F0  1  0.50000000  0.50000000  0.00000000  1
loop_
_geom_bond_atom_site_label_1
_geom_bond_atom_site_label_2
_geom_bond_distance
_geom_bond_site_symmetry_2
Li0 O0 2.126786 1_555
Li0 O5 2.126786 1_445
Ni0 O1 2.091673 1_555
Ni0 O0 2.102998 1_666
Ni0 O0 2.102998 1_554
Ni0 O0 2.102998 1_565
Ni0 O0 2.102998 1_655
Ni1 O1 2.102665 1_455
Ni1 O1 2.102665 1_556
Ni1 O1 2.102665 1_444
Ni1 O1 2.102665 1_545
Ni1 O0 2.120132 1_555
Ni1 O2 2.122716 1_555
Ni2 O2 2.102640 1_554
Ni2 O2 2.102640 1_565
Ni2 O2 2.102640 1_655
Ni2 O2 2.102640 1_666
Ni2 O3 2.113002 1_555
Ni2 O1 2.113418 1_555
Ni3 O3 2.102640 1_455
Ni3 O3 2.102640 1_556
Ni3 O3 2.102640 1_444
Ni3 O3 2.102640 1_545
Ni3 O2 2.113002 1_555
Ni3 O4 2.113418 1_555
Ni4 O4 2.102665 1_666
Ni4 O4 2.102665 1_554
Ni4 O4 2.102665 1_655
Ni4 O4 2.102665 1_565
Ni4 O5 2.120132 1_555
Ni4 O3 2.122716 1_555
Ni5 O4 2.091673 1_555
Ni5 O5 2.102998 1_444
Ni5 O5 2.102998 1_545
Ni5 O5 2.102998 1_455
Ni5 O5 2.102998 1_556
F0 Li0 2.102640 1_655
F0 Li0 2.102640 1_565
F0 Li0 2.102640 1_554
F0 Li0 2.102640 1_666
F0 Ni5 2.165583 1_555
F0 Ni0 2.165583 1_555
