# generated using pymatgen
data_Th2SN2
_symmetry_space_group_name_H-M   'P 1'
_cell_length_a   4.01809993
_cell_length_b   4.01810092
_cell_length_c   6.95317168
_cell_angle_alpha   90.00000000
_cell_angle_beta   90.00000000
_cell_angle_gamma   120.00000028
_symmetry_Int_Tables_number   1
_chemical_formula_structural   Th2SN2
_chemical_formula_sum   'Th2 S1 N2'
_cell_volume   97.21989717
_cell_formula_units_Z   1
loop_
 _symmetry_equiv_pos_site_id
 _symmetry_equiv_pos_as_xyz
  1  'x, y, z'
loop_
 _atom_site_type_symbol
 _atom_site_label
 _atom_site_symmetry_multiplicity
 _atom_site_fract_x
 _atom_site_fract_y
 _atom_site_fract_z
 _atom_site_occupancy
  Th  Th0  1  0.66666700  0.33333300  0.71161915  1
  Th  Th1  1  0.33333300  0.66666700  0.28838085  1
  S  S0  1  -0.00000000  -0.00000000  -0.00000000  1
  N  N0  1  0.33333300  0.66666700  0.63078167  1
  N  N1  1  0.66666700  0.33333300  0.36921833  1
loop_
_geom_bond_atom_site_label_1
_geom_bond_atom_site_label_2
_geom_bond_distance
_geom_bond_site_symmetry_2
S0 Th1 3.066329 1_545
S0 Th0 3.066329 1_454
S0 Th1 3.066331 1_445
S0 Th0 3.066331 1_554
S0 Th0 3.066332 1_444
S0 Th1 3.066332 1_555
N0 Th1 2.380772 1_555
N0 Th0 2.386971 1_455
N0 Th0 2.386971 1_565
N0 Th0 2.386978 1_555
N1 Th0 2.380772 1_555
N1 Th1 2.386971 1_655
N1 Th1 2.386971 1_545
N1 Th1 2.386978 1_555
