# generated using pymatgen
data_Na3Ca3Zr2Si4(O5F)3
_symmetry_space_group_name_H-M   'P 1'
_cell_length_a   9.06984900
_cell_length_b   9.81348475
_cell_length_c   9.95126823
_cell_angle_alpha   96.15590822
_cell_angle_beta   92.12541781
_cell_angle_gamma   96.29236987
_symmetry_Int_Tables_number   1
_chemical_formula_structural   Na3Ca3Zr2Si4(O5F)3
_chemical_formula_sum   'Na6 Ca6 Zr4 Si8 O30 F6'
_cell_volume   874.24859437
_cell_formula_units_Z   2
loop_
 _symmetry_equiv_pos_site_id
 _symmetry_equiv_pos_as_xyz
  1  'x, y, z'
loop_
 _atom_site_type_symbol
 _atom_site_label
 _atom_site_symmetry_multiplicity
 _atom_site_fract_x
 _atom_site_fract_y
 _atom_site_fract_z
 _atom_site_occupancy
  Na  Na0  1  0.84890700  0.49051300  0.19239500  1
  Na  Na1  1  0.79380500  0.78974800  0.37110200  1
  Na  Na2  1  0.55593100  0.13524400  0.39811800  1
  Na  Na3  1  0.44406900  0.86475600  0.60188200  1
  Na  Na4  1  0.20619500  0.21025200  0.62889800  1
  Na  Na5  1  0.15109300  0.50948700  0.80760500  1
  Ca  Ca0  1  0.81826900  0.41480500  0.53470400  1
  Ca  Ca1  1  0.85152200  0.92106600  0.03681400  1
  Ca  Ca2  1  0.58915700  0.64563700  0.96296900  1
  Ca  Ca3  1  0.41084300  0.35436300  0.03703100  1
  Ca  Ca4  1  0.14847800  0.07893400  0.96318600  1
  Ca  Ca5  1  0.18173100  0.58519500  0.46529600  1
  Zr  Zr0  1  0.62601900  0.13908000  0.06622800  1
  Zr  Zr1  1  0.54713200  0.50751200  0.32876700  1
  Zr  Zr2  1  0.45286800  0.49248800  0.67123300  1
  Zr  Zr3  1  0.37398100  0.86092000  0.93377200  1
  Si  Si0  1  0.24661700  0.60910900  0.14238000  1
  Si  Si1  1  0.16836000  0.03945200  0.34338100  1
  Si  Si2  1  0.91137200  0.22139900  0.84006200  1
  Si  Si3  1  0.05852700  0.83370200  0.70863000  1
  Si  Si4  1  0.94147300  0.16629800  0.29137000  1
  Si  Si5  1  0.08862800  0.77860100  0.15993800  1
  Si  Si6  1  0.83164000  0.96054800  0.65661900  1
  Si  Si7  1  0.75338300  0.39089100  0.85762000  1
  O  O0  1  0.85586700  0.14300300  0.97248100  1
  O  O1  1  0.96448700  0.88572700  0.57365800  1
  O  O2  1  0.84783900  0.12851300  0.69581300  1
  O  O3  1  0.70121600  0.48624300  0.74482700  1
  O  O4  1  0.90907400  0.75185500  0.16175100  1
  O  O5  1  0.93197900  0.32826600  0.33197600  1
  O  O6  1  0.06916800  0.09450400  0.19225000  1
  O  O7  1  0.75538300  0.55614900  0.39984600  1
  O  O8  1  0.63066100  0.30125100  0.93870400  1
  O  O9  1  0.58538600  0.53565900  0.14150200  1
  O  O10  1  0.78162500  0.07959400  0.22952300  1
  O  O11  1  0.43601900  0.72585100  0.79075800  1
  O  O12  1  0.48932700  0.28048000  0.60215200  1
  O  O13  1  0.56260700  0.36690800  0.50194200  1
  O  O14  1  0.59859600  0.91006400  0.01040600  1
  O  O15  1  0.40140400  0.08993600  0.98959400  1
  O  O16  1  0.43739300  0.63309200  0.49805800  1
  O  O17  1  0.51067300  0.71952000  0.39784800  1
  O  O18  1  0.56398100  0.27414900  0.20924200  1
  O  O19  1  0.21837500  0.92040600  0.77047700  1
  O  O20  1  0.41461400  0.46434100  0.85849800  1
  O  O21  1  0.36933900  0.69874900  0.06129600  1
  O  O22  1  0.24461700  0.44385100  0.60015400  1
  O  O23  1  0.93083200  0.90549600  0.80775000  1
  O  O24  1  0.06802100  0.67173400  0.66802400  1
  O  O25  1  0.09092600  0.24814500  0.83824900  1
  O  O26  1  0.29878400  0.51375700  0.25517300  1
  O  O27  1  0.15216100  0.87148700  0.30418700  1
  O  O28  1  0.03551300  0.11427300  0.42634200  1
  O  O29  1  0.14413300  0.85699700  0.02751900  1
  F  F0  1  0.83788800  0.51759900  0.97136300  1
  F  F1  1  0.72969900  0.97490800  0.50638900  1
  F  F2  1  0.67627900  0.88452300  0.70958700  1
  F  F3  1  0.32372100  0.11547700  0.29041300  1
  F  F4  1  0.27030100  0.02509200  0.49361100  1
  F  F5  1  0.16211200  0.48240100  0.02863700  1
loop_
_geom_bond_atom_site_label_1
_geom_bond_atom_site_label_2
_geom_bond_distance
_geom_bond_site_symmetry_2
Na0 O7 2.315305 1_555
Na0 O5 2.385753 1_555
Na0 O9 2.521068 1_555
Na0 O4 2.615652 1_555
Na1 O7 2.330528 1_555
Na1 O4 2.377413 1_555
Na1 O1 2.527527 1_555
Na1 O17 2.615787 1_555
Na2 O13 2.387686 1_555
Na2 O18 2.435995 1_555
Na2 O12 2.485538 1_555
Na2 O10 2.758002 1_555
Na3 O16 2.387686 1_555
Na3 O11 2.435995 1_555
Na3 O17 2.485538 1_555
Na3 O19 2.758002 1_555
Na4 O22 2.330528 1_555
Na4 O25 2.377413 1_555
Na4 O28 2.527527 1_555
Na4 O12 2.615787 1_555
Na5 O22 2.315305 1_555
Na5 O24 2.385753 1_555
Na5 O20 2.521068 1_555
Na5 O25 2.615652 1_555
Ca0 O7 2.136857 1_555
Ca0 O13 2.318680 1_555
Ca0 O5 2.415295 1_555
Ca0 O3 2.450356 1_555
Ca1 O4 2.271627 1_555
Ca1 O14 2.288682 1_555
Ca1 O0 2.331754 1_564
Ca1 O23 2.409941 1_554
Ca1 O10 2.483190 1_565
Ca1 O6 2.767417 1_665
Ca1 O29 2.796205 1_655
Ca2 O9 2.174868 1_556
Ca2 O21 2.338182 1_556
Ca2 O20 2.369841 1_555
Ca2 O11 2.416208 1_555
Ca2 O14 2.578667 1_556
Ca2 F0 2.702772 1_555
Ca2 O3 2.824175 1_555
Ca3 O20 2.174868 1_554
Ca3 O8 2.338182 1_554
Ca3 O9 2.369841 1_555
Ca3 O18 2.416208 1_555
Ca3 O15 2.578667 1_554
Ca3 F5 2.702772 1_555
Ca3 O26 2.824175 1_555
Ca4 O25 2.271627 1_555
Ca4 O15 2.288682 1_555
Ca4 O29 2.331754 1_546
Ca4 O6 2.409941 1_556
Ca4 O19 2.483190 1_545
Ca4 O23 2.767417 1_445
Ca4 O0 2.796205 1_455
Ca5 O22 2.136857 1_555
Ca5 O16 2.318680 1_555
Ca5 O24 2.415295 1_555
Ca5 O26 2.450356 1_555
O0 Si2 1.662371 1_555
O0 Zr0 2.313454 1_556
O1 Si6 1.676362 1_555
O1 Si3 1.717477 1_655
O2 Si6 1.641785 1_545
O2 Si2 1.663241 1_555
O3 Si7 1.625497 1_555
O3 Zr2 2.351869 1_555
O4 Si5 1.621979 1_655
O5 Si4 1.609953 1_555
O6 Si4 1.710334 1_455
O6 Si1 1.882431 1_555
O7 Zr1 1.981562 1_555
O8 Si7 1.633416 1_555
O8 Zr0 2.137140 1_556
O9 Zr1 1.951089 1_555
O10 Si4 1.660052 1_555
O10 Zr0 2.277532 1_555
O11 Zr3 1.979210 1_555
O11 Zr2 2.487703 1_555
O12 O13 1.504177 1_555
O12 Zr2 2.184374 1_555
O13 Zr2 2.301189 1_555
O13 Zr1 2.329780 1_555
O14 Zr3 2.134234 1_554
O14 Zr0 2.240740 1_565
O15 Zr0 2.134234 1_556
O15 Zr3 2.240740 1_545
O16 O17 1.504177 1_555
O16 Zr1 2.301189 1_555
O16 Zr2 2.329780 1_555
O17 Zr1 2.184374 1_555
O18 Zr0 1.979210 1_555
O18 Zr1 2.487703 1_555
O19 Si3 1.660052 1_555
O19 Zr3 2.277532 1_555
O20 Zr2 1.951089 1_555
O21 Si0 1.633416 1_555
O21 Zr3 2.137140 1_554
O22 Zr2 1.981562 1_555
O23 Si3 1.710334 1_655
O23 Si6 1.882431 1_555
O24 Si3 1.609953 1_555
O25 Si2 1.621979 1_455
O26 Si0 1.625497 1_555
O26 Zr1 2.351869 1_555
O27 Si1 1.641785 1_565
O27 Si5 1.663241 1_555
O28 Si1 1.676362 1_555
O28 Si4 1.717477 1_455
O29 Si5 1.662371 1_555
O29 Zr3 2.313454 1_554
F0 Si7 1.685129 1_555
F0 Na0 2.243561 1_556
F1 Si6 1.755251 1_555
F1 Na1 2.284130 1_555
F1 Na2 2.627124 1_565
F2 Si6 1.651970 1_555
F2 Na3 2.306622 1_555
F3 Si1 1.651970 1_555
F3 Na2 2.306622 1_555
F4 Si1 1.755251 1_555
F4 Na4 2.284130 1_555
F4 Na3 2.627124 1_545
F5 Si0 1.685129 1_555
F5 Na5 2.243561 1_554
