# generated using pymatgen
data_Li3V3P8O29
_symmetry_space_group_name_H-M   'P 1'
_cell_length_a   9.74566100
_cell_length_b   9.74858867
_cell_length_c   14.32842917
_cell_angle_alpha   90.83137532
_cell_angle_beta   89.79323628
_cell_angle_gamma   119.64621112
_symmetry_Int_Tables_number   1
_chemical_formula_structural   Li3V3P8O29
_chemical_formula_sum   'Li6 V6 P16 O58'
_cell_volume   1182.96018667
_cell_formula_units_Z   2
loop_
 _symmetry_equiv_pos_site_id
 _symmetry_equiv_pos_as_xyz
  1  'x, y, z'
loop_
 _atom_site_type_symbol
 _atom_site_label
 _atom_site_symmetry_multiplicity
 _atom_site_fract_x
 _atom_site_fract_y
 _atom_site_fract_z
 _atom_site_occupancy
  Li  Li0  1  0.77843600  0.07882400  0.44612100  1
  Li  Li1  1  0.76943900  0.67281500  0.93925500  1
  Li  Li2  1  0.09073200  0.31554800  0.55977800  1
  Li  Li3  1  0.91931000  0.69781900  0.44240400  1
  Li  Li4  1  0.68275300  0.91400000  0.05292900  1
  Li  Li5  1  0.07834000  0.06112300  0.00311400  1
  V  V0  1  0.99291600  0.43222800  0.75942200  1
  V  V1  1  0.00335900  0.56687000  0.24128000  1
  V  V2  1  0.43035700  0.43228100  0.25229300  1
  V  V3  1  0.56190900  0.56270800  0.74582300  1
  V  V4  1  0.43188100  0.00175700  0.75059500  1
  V  V5  1  0.55754500  0.99851500  0.24978300  1
  P  P0  1  0.30197700  0.08300300  0.16096300  1
  P  P1  1  0.31138600  0.22307400  0.65875100  1
  P  P2  1  0.77245500  0.08871200  0.66120100  1
  P  P3  1  0.66269500  0.33423800  0.87021000  1
  P  P4  1  0.67232900  0.33854500  0.36496800  1
  P  P5  1  0.91230100  0.21579000  0.15915700  1
  P  P6  1  0.08609400  0.31909300  0.34048800  1
  P  P7  1  0.76655300  0.68289200  0.15776500  1
  P  P8  1  0.22777700  0.31051900  0.84059800  1
  P  P9  1  0.90994500  0.67706800  0.65743200  1
  P  P10  1  0.08500700  0.78280300  0.83689600  1
  P  P11  1  0.32571500  0.66271200  0.63339400  1
  P  P12  1  0.33838100  0.66574600  0.13262900  1
  P  P13  1  0.22284700  0.91271000  0.34260200  1
  P  P14  1  0.68472700  0.77408800  0.33921400  1
  P  P15  1  0.68486900  0.91103800  0.83972600  1
  O  O0  1  0.23117300  0.99442000  0.43100800  1
  O  O1  1  0.34240700  0.08248300  0.66501200  1
  O  O2  1  0.20966400  0.21953000  0.92524000  1
  O  O3  1  0.34314400  0.25791400  0.17275300  1
  O  O4  1  0.46017600  0.07895600  0.17321700  1
  O  O5  1  0.51620800  0.18779900  0.82500500  1
  O  O6  1  0.61940500  0.09605200  0.68062600  1
  O  O7  1  0.76656000  0.98494800  0.92950600  1
  O  O8  1  0.73631600  0.08055800  0.16383600  1
  O  O9  1  0.52588200  0.34240300  0.32278100  1
  O  O10  1  0.47411700  0.37696600  0.67713400  1
  O  O11  1  0.66525100  0.18365200  0.32186400  1
  O  O12  1  0.67213200  0.33822200  0.97363200  1
  O  O13  1  0.68063100  0.34024000  0.46825000  1
  O  O14  1  0.81205900  0.32830000  0.82601900  1
  O  O15  1  0.61306800  0.52593900  0.17384800  1
  O  O16  1  0.67284900  0.48773300  0.83006600  1
  O  O17  1  0.91970400  0.25718000  0.66747300  1
  O  O18  1  0.98681000  0.19940200  0.25691200  1
  O  O19  1  0.00375400  0.24975200  0.43044300  1
  O  O20  1  0.99318400  0.19248000  0.07823200  1
  O  O21  1  0.91919400  0.37983200  0.16866500  1
  O  O22  1  0.82070200  0.48176100  0.31992700  1
  O  O23  1  0.09334000  0.35284700  0.82991800  1
  O  O24  1  0.90189700  0.51908800  0.68246000  1
  O  O25  1  0.74067800  0.65303500  0.67093600  1
  O  O26  1  0.20555900  0.20271300  0.74975200  1
  O  O27  1  0.22857800  0.23208700  0.57482200  1
  O  O28  1  0.77652800  0.77135500  0.42048700  1
  O  O29  1  0.25453800  0.34205900  0.33404600  1
  O  O30  1  0.09532400  0.47852300  0.31807700  1
  O  O31  1  0.91058200  0.65561200  0.16575000  1
  O  O32  1  0.17583900  0.51751700  0.67258500  1
  O  O33  1  0.08155100  0.62049500  0.83062300  1
  O  O34  1  0.99343900  0.79688300  0.91626200  1
  O  O35  1  0.97964600  0.73924800  0.56538900  1
  O  O36  1  0.01272300  0.79960600  0.73897500  1
  O  O37  1  0.08003800  0.74079100  0.33333100  1
  O  O38  1  0.33136900  0.51787000  0.17858000  1
  O  O39  1  0.38746400  0.46387600  0.82917800  1
  O  O40  1  0.18949800  0.67115800  0.17413700  1
  O  O41  1  0.34873700  0.67199400  0.02952100  1
  O  O42  1  0.33564700  0.66272300  0.53018000  1
  O  O43  1  0.33791600  0.81606200  0.67893100  1
  O  O44  1  0.52467100  0.62040300  0.32391600  1
  O  O45  1  0.47086700  0.65435100  0.68090600  1
  O  O46  1  0.25831400  0.91763200  0.83413800  1
  O  O47  1  0.20090200  0.99752200  0.25212900  1
  O  O48  1  0.21025800  0.00848900  0.07530600  1
  O  O49  1  0.37788000  0.90469900  0.31922300  1
  O  O50  1  0.49089400  0.81437200  0.17566200  1
  O  O51  1  0.52849700  0.91316800  0.82542500  1
  O  O52  1  0.65555700  0.73864700  0.83423900  1
  O  O53  1  0.76684000  0.76156400  0.06840300  1
  O  O54  1  0.78519600  0.79841300  0.24355300  1
  O  O55  1  0.65902200  0.91974300  0.33956200  1
  O  O56  1  0.76890600  0.01211500  0.57018900  1
  O  O57  1  0.79194100  0.99670700  0.74927800  1
loop_
_geom_bond_atom_site_label_1
_geom_bond_atom_site_label_2
_geom_bond_distance
_geom_bond_site_symmetry_2
Li0 O56 1.887952 1_555
Li0 O19 2.009081 1_655
Li0 O55 2.061366 1_545
Li0 O11 2.571590 1_555
Li1 O34 1.931664 1_555
Li1 O53 2.036752 1_556
Li1 O52 2.156972 1_555
Li1 O16 2.199482 1_555
Li2 O27 1.897808 1_555
Li2 O19 2.000784 1_555
Li2 O17 2.133484 1_455
Li2 O32 2.340704 1_555
Li3 O35 1.834679 1_555
Li3 O28 1.882908 1_555
Li3 O37 2.103273 1_655
Li3 O22 2.518336 1_555
Li4 O7 1.933681 1_554
Li4 O53 2.035834 1_555
Li4 O8 2.127634 1_565
Li4 O50 2.400266 1_555
Li5 O2 1.830902 1_554
Li5 O48 1.914078 1_555
Li5 O20 2.119410 1_455
Li5 O34 2.583550 1_444
O0 P13 1.467373 1_555
O1 P1 1.546468 1_555
O1 V4 1.896838 1_555
O2 P8 1.470911 1_555
O3 P0 1.553173 1_555
O3 V2 1.852620 1_555
O4 P0 1.572170 1_555
O4 V5 1.867515 1_545
O5 P3 1.568195 1_555
O5 V4 1.891329 1_555
O6 P2 1.552221 1_555
O6 V4 1.881911 1_555
O7 P15 1.490244 1_555
O8 P5 1.564902 1_555
O8 V5 1.956074 1_545
O9 P4 1.569636 1_555
O9 V2 1.869185 1_555
O10 P1 1.572580 1_555
O10 V3 1.844216 1_555
O11 P4 1.592630 1_555
O11 V5 1.872284 1_545
O12 P3 1.483813 1_555
O13 P4 1.481777 1_555
O14 P3 1.612092 1_555
O14 V0 1.814659 1_555
O15 P7 1.541182 1_555
O15 V2 1.916935 1_555
O16 P3 1.567743 1_555
O16 V3 1.994238 1_555
O17 P2 1.558763 1_555
O17 V0 1.973300 1_555
O18 P6 1.607059 1_655
O18 P5 1.625821 1_555
O19 P6 1.497788 1_555
O20 P5 1.476637 1_555
O21 P5 1.570958 1_555
O21 V1 1.884547 1_655
O22 P4 1.574437 1_555
O22 V1 1.917968 1_655
O23 P8 1.564727 1_555
O23 V0 1.831957 1_455
O24 P9 1.550139 1_555
O24 V0 1.870057 1_555
O25 P9 1.558922 1_555
O25 V3 1.859654 1_555
O26 P8 1.607164 1_555
O26 P1 1.611996 1_555
O27 P1 1.478308 1_555
O28 P14 1.479602 1_555
O29 P6 1.545769 1_555
O29 V2 1.899007 1_555
O30 P6 1.550085 1_555
O30 V1 1.885244 1_555
O31 P7 1.557371 1_555
O31 V1 1.882875 1_655
O32 P11 1.556962 1_555
O32 V0 1.991266 1_455
O33 P10 1.567156 1_555
O33 V0 1.881240 1_455
O34 P10 1.489203 1_655
O35 P9 1.475658 1_555
O36 P9 1.606125 1_455
O36 P10 1.618521 1_555
O37 P13 1.565515 1_555
O37 V1 1.965071 1_555
O38 P12 1.563998 1_555
O38 V2 1.889866 1_555
O39 P8 1.545101 1_555
O39 V3 1.908750 1_555
O40 P12 1.590720 1_555
O40 V1 1.855045 1_555
O41 P12 1.480537 1_555
O42 P11 1.481708 1_555
O43 P11 1.571981 1_555
O43 V4 1.866252 1_565
O44 P14 1.551390 1_555
O44 V2 1.883054 1_555
O45 P11 1.610534 1_555
O45 V3 1.806884 1_555
O46 P10 1.544893 1_555
O46 V4 1.899538 1_565
O47 P0 1.606643 1_565
O47 P13 1.617979 1_555
O48 P0 1.474005 1_555
O49 P13 1.585386 1_555
O49 V5 1.822596 1_555
O50 P12 1.593394 1_555
O50 V5 1.889037 1_555
O51 P15 1.548716 1_555
O51 V4 1.902799 1_565
O52 P15 1.559965 1_555
O52 V3 1.943285 1_555
O53 P7 1.501341 1_555
O54 P7 1.603507 1_555
O54 P14 1.632094 1_555
O55 P14 1.559060 1_555
O55 V5 2.002921 1_555
O56 P2 1.485215 1_555
O57 P15 1.620314 1_555
O57 P2 1.623658 1_565
