# generated using pymatgen
data_Ge2N2O
_symmetry_space_group_name_H-M   'P 1'
_cell_length_a   13.14723533
_cell_length_b   13.14723533
_cell_length_c   13.14723533
_cell_angle_alpha   154.23159728
_cell_angle_beta   154.23159728
_cell_angle_gamma   36.76306969
_symmetry_Int_Tables_number   1
_chemical_formula_structural   Ge2N2O
_chemical_formula_sum   'Ge16 N16 O8'
_cell_volume   428.90025127
_cell_formula_units_Z   8
loop_
 _symmetry_equiv_pos_site_id
 _symmetry_equiv_pos_as_xyz
  1  'x, y, z'
loop_
 _atom_site_type_symbol
 _atom_site_label
 _atom_site_symmetry_multiplicity
 _atom_site_fract_x
 _atom_site_fract_y
 _atom_site_fract_z
 _atom_site_occupancy
  Ge  Ge0  1  0.87500000  0.62500000  0.25000000  1
  Ge  Ge1  1  0.37500000  0.62500000  0.75000000  1
  Ge  Ge2  1  0.37500000  0.12500000  0.75000000  1
  Ge  Ge3  1  0.70675100  0.95800400  0.25125400  1
  Ge  Ge4  1  0.91909300  0.41909300  0.50000000  1
  Ge  Ge5  1  0.04199600  0.29324900  0.74874600  1
  Ge  Ge6  1  0.16909300  0.16909300  0.00000000  1
  Ge  Ge7  1  0.54450300  0.29324900  0.25125400  1
  Ge  Ge8  1  0.70675100  0.45549700  0.74874600  1
  Ge  Ge9  1  0.37500000  0.62500000  0.25000000  1
  Ge  Ge10  1  0.04324900  0.79450300  0.75125400  1
  Ge  Ge11  1  0.58090700  0.08090700  0.50000000  1
  Ge  Ge12  1  0.83090700  0.83090700  0.00000000  1
  Ge  Ge13  1  0.70800400  0.95675100  0.75125400  1
  Ge  Ge14  1  0.20549700  0.95675100  0.24874600  1
  Ge  Ge15  1  0.04324900  0.29199600  0.24874600  1
  N  N0  1  0.62580400  0.86152600  0.23572200  1
  N  N1  1  0.78738400  0.05221600  0.26483200  1
  N  N2  1  0.47744800  0.21261600  0.26483200  1
  N  N3  1  0.94778400  0.21261600  0.73516800  1
  N  N4  1  0.13847400  0.37419600  0.76427800  1
  N  N5  1  0.60991800  0.37419600  0.23572200  1
  N  N6  1  0.78738400  0.52255200  0.73516800  1
  N  N7  1  0.12419600  0.85991800  0.73572200  1
  N  N8  1  0.62580400  0.39008200  0.76427800  1
  N  N9  1  0.96261600  0.72744800  0.76483200  1
  N  N10  1  0.61152600  0.87580400  0.73572200  1
  N  N11  1  0.80221600  0.03738400  0.76483200  1
  N  N12  1  0.27255200  0.03738400  0.23516800  1
  N  N13  1  0.14008200  0.87580400  0.26427800  1
  N  N14  1  0.96261600  0.19778400  0.23516800  1
  N  N15  1  0.12419600  0.38847400  0.26427800  1
  O  O0  1  0.29829300  0.08234200  0.78404900  1
  O  O1  1  0.83234200  0.54829300  0.28404900  1
  O  O2  1  0.26424400  0.54829300  0.71595100  1
  O  O3  1  0.29829300  0.51424400  0.21595100  1
  O  O4  1  0.45170700  0.73575600  0.28404900  1
  O  O5  1  0.48575600  0.70170700  0.78404900  1
  O  O6  1  0.91765800  0.70170700  0.21595100  1
  O  O7  1  0.45170700  0.16765800  0.71595100  1
loop_
_geom_bond_atom_site_label_1
_geom_bond_atom_site_label_2
_geom_bond_distance
_geom_bond_site_symmetry_2
Ge0 O1 1.924442 1_555
Ge0 O6 1.924442 1_555
Ge0 N15 2.014720 1_655
Ge0 N7 2.014720 1_655
Ge0 N8 2.014720 1_554
Ge0 N0 2.014720 1_555
Ge1 O5 1.924442 1_555
Ge1 O2 1.924442 1_555
Ge1 N0 2.014720 1_556
Ge1 N15 2.014720 1_555
Ge1 N7 2.014720 1_555
Ge1 N8 2.014720 1_555
Ge2 O0 1.924442 1_555
Ge2 O7 1.924442 1_555
Ge2 N5 2.014720 1_556
Ge2 N4 2.014720 1_555
Ge2 N10 2.014720 1_545
Ge2 N13 2.014720 1_545
Ge3 O6 1.946571 1_555
Ge3 O5 1.946575 1_554
Ge3 N3 2.012374 1_565
Ge3 N2 2.012378 1_565
Ge3 N1 2.013611 1_565
Ge3 N0 2.021899 1_555
Ge4 N14 1.894862 1_555
Ge4 N9 1.894862 1_555
Ge4 N4 1.912085 1_655
Ge4 N5 1.912085 1_555
Ge5 O0 1.946571 1_555
Ge5 O3 1.946575 1_556
Ge5 N1 2.012374 1_455
Ge5 N6 2.012378 1_455
Ge5 N3 2.013611 1_455
Ge5 N4 2.021899 1_555
Ge6 N3 1.894862 1_454
Ge6 N2 1.894862 1_555
Ge6 N15 1.912085 1_555
Ge6 N7 1.912085 1_544
Ge7 O0 1.946576 1_554
Ge7 O3 1.946576 1_555
Ge7 N6 2.012373 1_555
Ge7 N1 2.012373 1_555
Ge7 N2 2.013599 1_555
Ge7 N5 2.021912 1_555
Ge8 O5 1.946576 1_555
Ge8 O6 1.946576 1_556
Ge8 N3 2.012373 1_555
Ge8 N2 2.012373 1_555
Ge8 N6 2.013599 1_555
Ge8 N8 2.021912 1_555
Ge9 O3 1.924442 1_555
Ge9 O4 1.924442 1_555
Ge9 N4 2.014720 1_554
Ge9 N10 2.014720 1_555
Ge9 N5 2.014720 1_555
Ge9 N13 2.014720 1_555
Ge10 O2 1.946576 1_555
Ge10 O1 1.946576 1_455
Ge10 N11 2.012373 1_465
Ge10 N12 2.012373 1_566
Ge10 N9 2.013599 1_455
Ge10 N7 2.021912 1_555
Ge11 N11 1.894862 1_555
Ge11 N12 1.894862 1_555
Ge11 N8 1.912085 1_555
Ge11 N0 1.912085 1_545
Ge12 N1 1.894862 1_565
Ge12 N6 1.894862 1_554
Ge12 N10 1.912085 1_554
Ge12 N13 1.912085 1_655
Ge13 O7 1.946571 1_565
Ge13 O4 1.946575 1_555
Ge13 N14 2.012374 1_566
Ge13 N9 2.012378 1_555
Ge13 N11 2.013611 1_565
Ge13 N10 2.021899 1_555
Ge14 O7 1.946576 1_565
Ge14 O4 1.946576 1_555
Ge14 N14 2.012373 1_465
Ge14 N9 2.012373 1_454
Ge14 N12 2.013599 1_565
Ge14 N13 2.021912 1_555
Ge15 O1 1.946571 1_455
Ge15 O2 1.946575 1_555
Ge15 N11 2.012374 1_454
Ge15 N12 2.012378 1_555
Ge15 N14 2.013611 1_455
Ge15 N15 2.021899 1_555
