# generated using pymatgen
data_Hf2N2O
_symmetry_space_group_name_H-M   'P 1'
_cell_length_a   5.43663400
_cell_length_b   5.47590770
_cell_length_c   10.19378897
_cell_angle_alpha   75.50354588
_cell_angle_beta   75.01566823
_cell_angle_gamma   60.60289006
_symmetry_Int_Tables_number   1
_chemical_formula_structural   Hf2N2O
_chemical_formula_sum   'Hf8 N8 O4'
_cell_volume   252.64741563
_cell_formula_units_Z   4
loop_
 _symmetry_equiv_pos_site_id
 _symmetry_equiv_pos_as_xyz
  1  'x, y, z'
loop_
 _atom_site_type_symbol
 _atom_site_label
 _atom_site_symmetry_multiplicity
 _atom_site_fract_x
 _atom_site_fract_y
 _atom_site_fract_z
 _atom_site_occupancy
  Hf  Hf0  1  0.69221700  0.68672000  0.96358800  1
  Hf  Hf1  1  0.83028800  0.81788300  0.53565800  1
  Hf  Hf2  1  0.41124600  0.44061900  0.71449300  1
  Hf  Hf3  1  0.91990600  0.95239100  0.21429800  1
  Hf  Hf4  1  0.08742100  0.06693500  0.78595200  1
  Hf  Hf5  1  0.56706700  0.58018900  0.28491600  1
  Hf  Hf6  1  0.20042100  0.16787400  0.46530100  1
  Hf  Hf7  1  0.31922400  0.31054400  0.03565300  1
  N  N0  1  0.08415900  0.67536200  0.87397000  1
  N  N1  1  0.41832100  0.82834800  0.62181000  1
  N  N2  1  0.38392000  0.07457300  0.87452500  1
  N  N3  1  0.11207700  0.42437000  0.62781700  1
  N  N4  1  0.16983100  0.86786000  0.37686000  1
  N  N5  1  0.62167600  0.91990100  0.12537200  1
  N  N6  1  0.57780000  0.17314300  0.37005900  1
  N  N7  1  0.92076000  0.32761100  0.12132400  1
  O  O0  1  0.68070500  0.37351500  0.87572600  1
  O  O1  1  0.81154900  0.12880800  0.62592400  1
  O  O2  1  0.87275900  0.56312200  0.37906100  1
  O  O3  1  0.31865000  0.62023400  0.12769300  1
loop_
_geom_bond_atom_site_label_1
_geom_bond_atom_site_label_2
_geom_bond_distance
_geom_bond_site_symmetry_2
Hf0 N0 2.066557 1_655
Hf0 N2 2.114507 1_565
Hf0 O0 2.156620 1_555
Hf0 N5 2.178024 1_556
Hf0 N7 2.246696 1_556
Hf0 O3 2.391620 1_556
Hf1 O1 2.078813 1_565
Hf1 N3 2.088732 1_655
Hf1 N1 2.161696 1_555
Hf1 N4 2.198140 1_655
Hf1 O2 2.270631 1_555
Hf1 N6 2.334729 1_565
Hf2 N3 2.087717 1_555
Hf2 N1 2.111652 1_555
Hf2 O1 2.138816 1_555
Hf2 N0 2.182794 1_555
Hf2 N2 2.287148 1_555
Hf2 O0 2.323079 1_555
Hf3 N7 2.037674 1_565
Hf3 N5 2.146199 1_555
Hf3 N6 2.160601 1_565
Hf3 O3 2.174964 1_655
Hf3 N4 2.229213 1_655
Hf3 O2 2.439619 1_555
Hf4 N2 2.062300 1_555
Hf4 N0 2.113990 1_545
Hf4 O0 2.150262 1_455
Hf4 N1 2.230116 1_545
Hf4 N3 2.239128 1_555
Hf4 O1 2.348396 1_455
Hf5 O2 2.078258 1_555
Hf5 N4 2.092023 1_555
Hf5 N6 2.157519 1_555
Hf5 N5 2.229688 1_555
Hf5 O3 2.256841 1_555
Hf5 N7 2.297180 1_555
Hf6 N6 2.041284 1_555
Hf6 N4 2.150967 1_545
Hf6 O2 2.168579 1_455
Hf6 N1 2.176121 1_545
Hf6 N3 2.244802 1_555
Hf6 O1 2.382215 1_455
Hf7 N7 2.080405 1_455
Hf7 N5 2.112155 1_545
Hf7 O3 2.132136 1_555
Hf7 N2 2.192903 1_554
Hf7 N0 2.296724 1_554
Hf7 O0 2.316445 1_554
