# generated using pymatgen
data_H3CSN2
_symmetry_space_group_name_H-M   'P 1'
_cell_length_a   12.74008240
_cell_length_b   12.74008240
_cell_length_c   14.87021951
_cell_angle_alpha   66.03034765
_cell_angle_beta   66.03034765
_cell_angle_gamma   20.31363143
_symmetry_Int_Tables_number   1
_chemical_formula_structural   H3CSN2
_chemical_formula_sum   'H24 C8 S8 N16'
_cell_volume   763.20382815
_cell_formula_units_Z   8
loop_
 _symmetry_equiv_pos_site_id
 _symmetry_equiv_pos_as_xyz
  1  'x, y, z'
loop_
 _atom_site_type_symbol
 _atom_site_label
 _atom_site_symmetry_multiplicity
 _atom_site_fract_x
 _atom_site_fract_y
 _atom_site_fract_z
 _atom_site_occupancy
  H  H0  1  0.81064500  0.84000200  0.64781100  1
  H  H1  1  0.15999800  0.18935500  0.85218900  1
  H  H2  1  0.18935500  0.15999800  0.35218900  1
  H  H3  1  0.84000200  0.81064500  0.14781100  1
  H  H4  1  0.01486600  0.87178500  0.59525700  1
  H  H5  1  0.12821500  0.98513400  0.90474300  1
  H  H6  1  0.98513400  0.12821500  0.40474300  1
  H  H7  1  0.87178500  0.01486600  0.09525700  1
  H  H8  1  0.33009200  0.50166100  0.73062600  1
  H  H9  1  0.49833900  0.66990800  0.76937400  1
  H  H10  1  0.66990800  0.49833900  0.26937400  1
  H  H11  1  0.50166100  0.33009200  0.23062600  1
  H  H12  1  0.57204900  0.45612500  0.56485800  1
  H  H13  1  0.54387500  0.42795100  0.93514200  1
  H  H14  1  0.42795100  0.54387500  0.43514200  1
  H  H15  1  0.45612500  0.57204900  0.06485800  1
  H  H16  1  0.76157600  0.97689500  0.41987100  1
  H  H17  1  0.02310500  0.23842400  0.08012900  1
  H  H18  1  0.23842400  0.02310500  0.58012900  1
  H  H19  1  0.97689500  0.76157600  0.91987100  1
  H  H20  1  0.21939300  0.27863400  0.69915800  1
  H  H21  1  0.72136600  0.78060700  0.80084200  1
  H  H22  1  0.78060700  0.72136600  0.30084200  1
  H  H23  1  0.27863400  0.21939300  0.19915800  1
  C  C0  1  0.06433800  0.61989800  0.75662000  1
  C  C1  1  0.38010200  0.93566200  0.74338000  1
  C  C2  1  0.93566200  0.38010200  0.24338000  1
  C  C3  1  0.61989800  0.06433800  0.25662000  1
  C  C4  1  0.99090700  0.82554200  0.49537600  1
  C  C5  1  0.17445800  0.00909300  0.00462400  1
  C  C6  1  0.00909300  0.17445800  0.50462400  1
  C  C7  1  0.82554200  0.99090700  0.99537600  1
  S  S0  1  0.94797600  0.59074000  0.84772100  1
  S  S1  1  0.40926000  0.05202400  0.65227900  1
  S  S2  1  0.05202400  0.40926000  0.15227900  1
  S  S3  1  0.59074000  0.94797600  0.34772100  1
  S  S4  1  0.17214700  0.77635400  0.39279900  1
  S  S5  1  0.22364600  0.82785300  0.10720100  1
  S  S6  1  0.82785300  0.22364600  0.60720100  1
  S  S7  1  0.77635400  0.17214700  0.89279900  1
  N  N0  1  0.94861800  0.76153600  0.66691200  1
  N  N1  1  0.23846400  0.05138200  0.83308800  1
  N  N2  1  0.05138200  0.23846400  0.33308800  1
  N  N3  1  0.76153600  0.94861800  0.16691200  1
  N  N4  1  0.07312500  0.74281400  0.58679700  1
  N  N5  1  0.25718600  0.92687500  0.91320300  1
  N  N6  1  0.92687500  0.25718600  0.41320300  1
  N  N7  1  0.74281400  0.07312500  0.08679700  1
  N  N8  1  0.24960800  0.50149200  0.78629800  1
  N  N9  1  0.49850800  0.75039200  0.71370200  1
  N  N10  1  0.75039200  0.49850800  0.21370200  1
  N  N11  1  0.50149200  0.24960800  0.28629800  1
  N  N12  1  0.80502300  0.92776300  0.48958800  1
  N  N13  1  0.07223700  0.19497700  0.01041200  1
  N  N14  1  0.19497700  0.07223700  0.51041200  1
  N  N15  1  0.92776300  0.80502300  0.98958800  1
loop_
_geom_bond_atom_site_label_1
_geom_bond_atom_site_label_2
_geom_bond_distance
_geom_bond_site_symmetry_2
H0 N0 1.024188 1_555
H1 N1 1.024188 1_555
H2 N2 1.024188 1_555
H3 N3 1.024188 1_555
H4 N4 1.034980 1_555
H5 N5 1.034980 1_555
H6 N6 1.034980 1_555
H7 N7 1.034980 1_555
H8 N8 1.024562 1_555
H9 N9 1.024562 1_555
H10 N10 1.024562 1_555
H11 N11 1.024562 1_555
H12 S6 1.355517 1_555
H13 S7 1.355517 1_555
H14 S4 1.355517 1_555
H15 S5 1.355517 1_555
H16 N12 1.030581 1_555
H17 N13 1.030581 1_555
H18 N14 1.030581 1_555
H19 N15 1.030581 1_555
H20 S1 1.356049 1_555
H21 S0 1.356049 1_555
H22 S3 1.356049 1_555
H23 S2 1.356049 1_555
C0 N8 1.291805 1_555
C0 N0 1.364385 1_455
C0 S0 1.778526 1_455
C1 N9 1.291805 1_555
C1 N1 1.364385 1_565
C1 S1 1.778526 1_565
C2 N10 1.291805 1_555
C2 N2 1.364385 1_655
C2 S2 1.778526 1_655
C3 N11 1.291805 1_555
C3 N3 1.364385 1_545
C3 S3 1.778526 1_545
C4 N12 1.265564 1_555
C4 N4 1.406518 1_655
C4 S4 1.803315 1_655
C5 N13 1.265564 1_555
C5 N5 1.406518 1_544
C5 S5 1.803315 1_545
C6 N14 1.265564 1_555
C6 N6 1.406518 1_455
C6 S6 1.803315 1_455
C7 N15 1.265564 1_555
C7 N7 1.406518 1_566
C7 S7 1.803315 1_565
