# generated using pymatgen
data_LiCoPO4
_symmetry_space_group_name_H-M   'P 1'
_cell_length_a   7.96233600
_cell_length_b   8.66611500
_cell_length_c   17.28217545
_cell_angle_alpha   60.33029105
_cell_angle_beta   90.00000000
_cell_angle_gamma   90.00000000
_symmetry_Int_Tables_number   1
_chemical_formula_structural   LiCoPO4
_chemical_formula_sum   'Li12 Co12 P12 O48'
_cell_volume   1036.16715591
_cell_formula_units_Z   12
loop_
 _symmetry_equiv_pos_site_id
 _symmetry_equiv_pos_as_xyz
  1  'x, y, z'
loop_
 _atom_site_type_symbol
 _atom_site_label
 _atom_site_symmetry_multiplicity
 _atom_site_fract_x
 _atom_site_fract_y
 _atom_site_fract_z
 _atom_site_occupancy
  Li  Li0  1  0.03170500  0.70944700  0.06027200  1
  Li  Li1  1  0.95280800  0.37302700  0.40746400  1
  Li  Li2  1  0.16801100  0.99760600  0.75010400  1
  Li  Li3  1  0.66801100  0.00239400  0.74989600  1
  Li  Li4  1  0.45280800  0.62697300  0.09253600  1
  Li  Li5  1  0.53170500  0.29055300  0.43972800  1
  Li  Li6  1  0.46829500  0.70944700  0.56027200  1
  Li  Li7  1  0.54719200  0.37302700  0.90746400  1
  Li  Li8  1  0.33198900  0.99760600  0.25010400  1
  Li  Li9  1  0.83198900  0.00239400  0.24989600  1
  Li  Li10  1  0.04719200  0.62697300  0.59253600  1
  Li  Li11  1  0.96829500  0.29055300  0.93972800  1
  Co  Co0  1  0.72748800  0.36398100  0.59490600  1
  Co  Co1  1  0.78371600  0.69037200  0.22713500  1
  Co  Co2  1  0.71960100  0.96110100  0.92792000  1
  Co  Co3  1  0.21960100  0.03889900  0.57208000  1
  Co  Co4  1  0.28371600  0.30962800  0.27286500  1
  Co  Co5  1  0.22748800  0.63601900  0.90509400  1
  Co  Co6  1  0.77251200  0.36398100  0.09490600  1
  Co  Co7  1  0.71628400  0.69037200  0.72713500  1
  Co  Co8  1  0.78039900  0.96110100  0.42792000  1
  Co  Co9  1  0.28039900  0.03889900  0.07208000  1
  Co  Co10  1  0.21628400  0.30962800  0.77286500  1
  Co  Co11  1  0.27251200  0.63601900  0.40509400  1
  P  P0  1  0.32884800  0.35470000  0.59087400  1
  P  P1  1  0.17243600  0.68192100  0.22602900  1
  P  P2  1  0.32715700  0.95627200  0.92763400  1
  P  P3  1  0.82715700  0.04372800  0.57236600  1
  P  P4  1  0.67243600  0.31807900  0.27397100  1
  P  P5  1  0.82884800  0.64530000  0.90912600  1
  P  P6  1  0.17115200  0.35470000  0.09087400  1
  P  P7  1  0.32756400  0.68192100  0.72602900  1
  P  P8  1  0.17284300  0.95627200  0.42763400  1
  P  P9  1  0.67284300  0.04372800  0.07236600  1
  P  P10  1  0.82756400  0.31807900  0.77397100  1
  P  P11  1  0.67115200  0.64530000  0.40912600  1
  O  O0  1  0.50553300  0.57056800  0.39346600  1
  O  O1  1  0.13316700  0.57734800  0.32794300  1
  O  O2  1  0.21325200  0.90656000  0.01021600  1
  O  O3  1  0.63984900  0.84107700  0.12516400  1
  O  O4  1  0.78893900  0.48491700  0.46650100  1
  O  O5  1  0.00637800  0.73064400  0.17168700  1
  O  O6  1  0.24171900  0.23178500  0.68160100  1
  O  O7  1  0.73239000  0.14352500  0.79746800  1
  O  O8  1  0.49506100  0.85261300  0.96187100  1
  O  O9  1  0.36474800  0.24600900  0.54267200  1
  O  O10  1  0.78217600  0.42962100  0.30203400  1
  O  O11  1  0.73705500  0.10567500  0.63217200  1
  O  O12  1  0.28217600  0.57037900  0.19796600  1
  O  O13  1  0.23705500  0.89432500  0.86782800  1
  O  O14  1  0.86474800  0.75399100  0.95732800  1
  O  O15  1  0.99506100  0.14738700  0.53812900  1
  O  O16  1  0.23239000  0.85647500  0.70253200  1
  O  O17  1  0.50637800  0.26935600  0.32831300  1
  O  O18  1  0.74171900  0.76821500  0.81839900  1
  O  O19  1  0.28893900  0.51508300  0.03349900  1
  O  O20  1  0.13984900  0.15892300  0.37483600  1
  O  O21  1  0.71325200  0.09344000  0.48978400  1
  O  O22  1  0.63316700  0.42265200  0.17205700  1
  O  O23  1  0.00553300  0.42943200  0.10653400  1
  O  O24  1  0.99446700  0.57056800  0.89346600  1
  O  O25  1  0.36683300  0.57734800  0.82794300  1
  O  O26  1  0.28674800  0.90656000  0.51021600  1
  O  O27  1  0.86015100  0.84107700  0.62516400  1
  O  O28  1  0.71106100  0.48491700  0.96650100  1
  O  O29  1  0.25828100  0.23178500  0.18160100  1
  O  O30  1  0.49362200  0.73064400  0.67168700  1
  O  O31  1  0.76761000  0.14352500  0.29746800  1
  O  O32  1  0.00493900  0.85261300  0.46187100  1
  O  O33  1  0.13525200  0.24600900  0.04267200  1
  O  O34  1  0.76294500  0.10567500  0.13217200  1
  O  O35  1  0.71782400  0.42962100  0.80203400  1
  O  O36  1  0.26294500  0.89432500  0.36782800  1
  O  O37  1  0.21782400  0.57037900  0.69796600  1
  O  O38  1  0.63525200  0.75399100  0.45732800  1
  O  O39  1  0.50493900  0.14738700  0.03812900  1
  O  O40  1  0.26761000  0.85647500  0.20253200  1
  O  O41  1  0.75828100  0.76821500  0.31839900  1
  O  O42  1  0.99362200  0.26935600  0.82831300  1
  O  O43  1  0.21106100  0.51508300  0.53349900  1
  O  O44  1  0.36015100  0.15892300  0.87483600  1
  O  O45  1  0.78674800  0.09344000  0.98978400  1
  O  O46  1  0.86683300  0.42265200  0.67205700  1
  O  O47  1  0.49446700  0.42943200  0.60653400  1
loop_
_geom_bond_atom_site_label_1
_geom_bond_atom_site_label_2
_geom_bond_distance
_geom_bond_site_symmetry_2
Li0 O5 2.032758 1_555
Li0 O2 2.071944 1_555
Li0 O14 2.097978 1_454
Li0 O23 2.156505 1_555
Li1 O10 2.126411 1_555
Li1 O4 2.159419 1_555
Li1 O15 2.159791 1_555
Li1 O1 2.162682 1_655
Li2 O16 1.852037 1_555
Li2 O13 1.854683 1_555
Li2 O6 1.867083 1_565
Li3 O7 1.852037 1_555
Li3 O11 1.854683 1_555
Li3 O18 1.867083 1_545
Li4 O12 2.126411 1_555
Li4 O19 2.159419 1_555
Li4 O8 2.159791 1_554
Li4 O22 2.162682 1_555
Li5 O17 2.032758 1_555
Li5 O21 2.071944 1_555
Li5 O9 2.097978 1_555
Li5 O0 2.156505 1_555
Li6 O30 2.032758 1_555
Li6 O26 2.071944 1_555
Li6 O38 2.097978 1_555
Li6 O47 2.156505 1_555
Li7 O35 2.126411 1_555
Li7 O28 2.159419 1_555
Li7 O39 2.159791 1_556
Li7 O25 2.162682 1_555
Li8 O40 1.852037 1_555
Li8 O36 1.854683 1_555
Li8 O29 1.867083 1_565
Li9 O31 1.852037 1_555
Li9 O34 1.854683 1_555
Li9 O41 1.867083 1_545
Li10 O37 2.126411 1_555
Li10 O43 2.159419 1_555
Li10 O32 2.159791 1_555
Li10 O46 2.162682 1_455
Li11 O42 2.032758 1_555
Li11 O45 2.071944 1_555
Li11 O33 2.097978 1_656
Li11 O24 2.156505 1_555
Co0 O47 1.979249 1_555
Co0 O46 1.984560 1_555
Co0 O4 1.989928 1_555
Co0 O11 2.001061 1_555
Co1 O3 1.960863 1_555
Co1 O5 1.962699 1_655
Co1 O10 1.971335 1_555
Co1 O41 2.009264 1_555
Co2 O8 1.969396 1_555
Co2 O14 1.977963 1_555
Co2 O45 1.989502 1_565
Co2 O7 2.015907 1_565
Co3 O15 1.969396 1_455
Co3 O9 1.977963 1_555
Co3 O26 1.989502 1_545
Co3 O16 2.015907 1_545
Co4 O20 1.960863 1_555
Co4 O17 1.962699 1_555
Co4 O12 1.971335 1_555
Co4 O29 2.009264 1_555
Co5 O24 1.979249 1_455
Co5 O25 1.984560 1_555
Co5 O19 1.989928 1_556
Co5 O13 2.001061 1_555
Co6 O23 1.979249 1_655
Co6 O22 1.984560 1_555
Co6 O28 1.989928 1_554
Co6 O34 2.001061 1_555
Co7 O27 1.960863 1_555
Co7 O30 1.962699 1_555
Co7 O35 1.971335 1_555
Co7 O18 2.009264 1_555
Co8 O32 1.969396 1_655
Co8 O38 1.977963 1_555
Co8 O21 1.989502 1_565
Co8 O31 2.015907 1_565
Co9 O39 1.969396 1_555
Co9 O33 1.977963 1_555
Co9 O2 1.989502 1_545
Co9 O40 2.015907 1_545
Co10 O44 1.960863 1_555
Co10 O42 1.962699 1_455
Co10 O37 1.971335 1_555
Co10 O6 2.009264 1_555
Co11 O0 1.979249 1_555
Co11 O1 1.984560 1_555
Co11 O43 1.989928 1_555
Co11 O36 2.001061 1_555
O0 P11 1.550873 1_555
O1 P1 1.562372 1_555
O2 P2 1.560879 1_554
O3 P9 1.548998 1_565
O4 P11 1.558912 1_555
O5 P1 1.554331 1_555
O6 P0 1.555940 1_555
O7 P10 1.555415 1_555
O8 P2 1.555053 1_555
O9 P0 1.561954 1_555
O10 P4 1.548297 1_555
O11 P3 1.555793 1_555
O12 P1 1.548297 1_555
O13 P2 1.555793 1_555
O14 P5 1.561954 1_555
O15 P3 1.555053 1_555
O16 P7 1.555415 1_555
O17 P4 1.554331 1_555
O18 P5 1.555940 1_555
O19 P6 1.558912 1_555
O20 P8 1.548998 1_545
O21 P3 1.560879 1_555
O22 P4 1.562372 1_555
O23 P6 1.550873 1_555
O24 P5 1.550873 1_555
O25 P7 1.562372 1_555
O26 P8 1.560879 1_555
O27 P3 1.548998 1_565
O28 P5 1.558912 1_555
O29 P6 1.555940 1_555
O30 P7 1.554331 1_555
O31 P4 1.555415 1_555
O32 P8 1.555053 1_555
O33 P6 1.561954 1_555
O34 P9 1.555793 1_555
O35 P10 1.548297 1_555
O36 P8 1.555793 1_555
O37 P7 1.548297 1_555
O38 P11 1.561954 1_555
O39 P9 1.555053 1_555
O40 P1 1.555415 1_555
O41 P11 1.555940 1_555
O42 P10 1.554331 1_555
O43 P0 1.558912 1_555
O44 P2 1.548998 1_545
O45 P9 1.560879 1_556
O46 P10 1.562372 1_555
O47 P0 1.550873 1_555
