# generated using pymatgen
data_Li2Fe2CoO6
_symmetry_space_group_name_H-M   'P 1'
_cell_length_a   6.75462287
_cell_length_b   6.75462287
_cell_length_c   5.87175218
_cell_angle_alpha   75.07686594
_cell_angle_beta   75.07686594
_cell_angle_gamma   24.45859486
_symmetry_Int_Tables_number   1
_chemical_formula_structural   Li2Fe2CoO6
_chemical_formula_sum   'Li2 Fe2 Co1 O6'
_cell_volume   106.99937885
_cell_formula_units_Z   1
loop_
 _symmetry_equiv_pos_site_id
 _symmetry_equiv_pos_as_xyz
  1  'x, y, z'
loop_
 _atom_site_type_symbol
 _atom_site_label
 _atom_site_symmetry_multiplicity
 _atom_site_fract_x
 _atom_site_fract_y
 _atom_site_fract_z
 _atom_site_occupancy
  Li  Li0  1  0.35078300  0.35078300  0.30465400  1
  Li  Li1  1  0.64921700  0.64921700  0.69534600  1
  Fe  Fe0  1  0.33990200  0.33990200  0.83349200  1
  Fe  Fe1  1  0.66009800  0.66009800  0.16650800  1
  Co  Co0  1  0.00000000  0.00000000  0.50000000  1
  O  O0  1  0.49506800  0.49506800  0.71509700  1
  O  O1  1  0.84590800  0.84590800  0.59830300  1
  O  O2  1  0.17631500  0.17631500  0.93165800  1
  O  O3  1  0.82368500  0.82368500  0.06834200  1
  O  O4  1  0.15409200  0.15409200  0.40169700  1
  O  O5  1  0.50493200  0.50493200  0.28490300  1
loop_
_geom_bond_atom_site_label_1
_geom_bond_atom_site_label_2
_geom_bond_distance
_geom_bond_site_symmetry_2
Li0 O5 2.007742 1_555
Li0 O3 2.088571 1_545
Li0 O3 2.088571 1_455
Li0 O1 2.228411 1_455
Li0 O1 2.228411 1_545
Li0 O4 2.507688 1_555
Li1 O0 2.007742 1_555
Li1 O2 2.088571 1_565
Li1 O2 2.088571 1_655
Li1 O4 2.228411 1_565
Li1 O4 2.228411 1_655
Li1 O1 2.507688 1_555
Fe0 O3 1.959338 1_456
Fe0 O3 1.959338 1_546
Fe0 O1 1.975559 1_455
Fe0 O1 1.975559 1_545
Fe0 O0 1.982307 1_555
Fe0 O2 2.083472 1_555
Fe1 O2 1.959338 1_654
Fe1 O2 1.959338 1_564
Fe1 O4 1.975559 1_655
Fe1 O4 1.975559 1_565
Fe1 O5 1.982307 1_555
Fe1 O3 2.083472 1_555
Co0 O0 1.898218 1_545
Co0 O0 1.898218 1_455
Co0 O5 1.898218 1_545
Co0 O5 1.898218 1_455
Co0 O1 1.962961 1_445
Co0 O4 1.962961 1_555
