# generated using pymatgen
data_Li5Fe(CO3)4
_symmetry_space_group_name_H-M   'P 1'
_cell_length_a   9.65538500
_cell_length_b   8.44190300
_cell_length_c   11.06149359
_cell_angle_alpha   89.02528965
_cell_angle_beta   90.00000000
_cell_angle_gamma   90.00000000
_symmetry_Int_Tables_number   1
_chemical_formula_structural   Li5Fe(CO3)4
_chemical_formula_sum   'Li20 Fe4 C16 O48'
_cell_volume   901.48992744
_cell_formula_units_Z   4
loop_
 _symmetry_equiv_pos_site_id
 _symmetry_equiv_pos_as_xyz
  1  'x, y, z'
loop_
 _atom_site_type_symbol
 _atom_site_label
 _atom_site_symmetry_multiplicity
 _atom_site_fract_x
 _atom_site_fract_y
 _atom_site_fract_z
 _atom_site_occupancy
  Li  Li0  1  0.36679700  0.43591800  0.06570300  1
  Li  Li1  1  0.13320300  0.93591800  0.06570300  1
  Li  Li2  1  0.86035700  0.43230600  0.12832500  1
  Li  Li3  1  0.63964300  0.93230600  0.12832500  1
  Li  Li4  1  0.10519500  0.30171400  0.21418200  1
  Li  Li5  1  0.39480500  0.80171400  0.21418200  1
  Li  Li6  1  0.33697000  0.46630000  0.33119500  1
  Li  Li7  1  0.16303000  0.96630000  0.33119500  1
  Li  Li8  1  0.90226200  0.43199600  0.40506900  1
  Li  Li9  1  0.59773800  0.93199600  0.40506900  1
  Li  Li10  1  0.40226200  0.06800400  0.59493100  1
  Li  Li11  1  0.09773800  0.56800400  0.59493100  1
  Li  Li12  1  0.83697000  0.03370000  0.66880500  1
  Li  Li13  1  0.66303000  0.53370000  0.66880500  1
  Li  Li14  1  0.60519500  0.19828600  0.78581800  1
  Li  Li15  1  0.89480500  0.69828600  0.78581800  1
  Li  Li16  1  0.36035700  0.06769400  0.87167500  1
  Li  Li17  1  0.13964300  0.56769400  0.87167500  1
  Li  Li18  1  0.86679700  0.06408200  0.93429700  1
  Li  Li19  1  0.63320300  0.56408200  0.93429700  1
  Fe  Fe0  1  0.60517100  0.28318100  0.28247800  1
  Fe  Fe1  1  0.89482900  0.78318100  0.28247800  1
  Fe  Fe2  1  0.10517100  0.21681900  0.71752200  1
  Fe  Fe3  1  0.39482900  0.71681900  0.71752200  1
  C  C0  1  0.61570000  0.24634400  0.02332000  1
  C  C1  1  0.88430000  0.74634400  0.02332000  1
  C  C2  1  0.36570800  0.13872900  0.20687000  1
  C  C3  1  0.13429200  0.63872900  0.20687000  1
  C  C4  1  0.86878000  0.12536500  0.28795800  1
  C  C5  1  0.63122000  0.62536500  0.28795800  1
  C  C6  1  0.14610100  0.28095100  0.49091000  1
  C  C7  1  0.35389900  0.78095100  0.49091000  1
  C  C8  1  0.64610100  0.21904900  0.50909000  1
  C  C9  1  0.85389900  0.71904900  0.50909000  1
  C  C10  1  0.36878000  0.37463500  0.71204200  1
  C  C11  1  0.13122000  0.87463500  0.71204200  1
  C  C12  1  0.86570800  0.36127100  0.79313000  1
  C  C13  1  0.63429200  0.86127100  0.79313000  1
  C  C14  1  0.11570000  0.25365600  0.97668000  1
  C  C15  1  0.38430000  0.75365600  0.97668000  1
  O  O0  1  0.17818700  0.38144000  0.00480300  1
  O  O1  1  0.32181300  0.88144000  0.00480300  1
  O  O2  1  0.00756100  0.20222100  0.03210100  1
  O  O3  1  0.49243900  0.70222100  0.03210100  1
  O  O4  1  0.66613600  0.33458900  0.11331600  1
  O  O5  1  0.83386400  0.83458900  0.11331600  1
  O  O6  1  0.23687600  0.10210100  0.19699400  1
  O  O7  1  0.26312400  0.60210100  0.19699400  1
  O  O8  1  0.46540800  0.03942400  0.20484800  1
  O  O9  1  0.03459200  0.53942400  0.20484800  1
  O  O10  1  0.39985400  0.28911300  0.22225100  1
  O  O11  1  0.10014600  0.78911300  0.22225100  1
  O  O12  1  0.90917900  0.26875600  0.27457400  1
  O  O13  1  0.73786700  0.08861900  0.28032400  1
  O  O14  1  0.59082100  0.76875600  0.27457400  1
  O  O15  1  0.76213300  0.58861900  0.28032400  1
  O  O16  1  0.95766800  0.01268800  0.30940800  1
  O  O17  1  0.54233200  0.51268800  0.30940800  1
  O  O18  1  0.17689300  0.34499100  0.38950100  1
  O  O19  1  0.32310700  0.84499100  0.38950100  1
  O  O20  1  0.53958900  0.16567300  0.44562500  1
  O  O21  1  0.96041100  0.66567300  0.44562500  1
  O  O22  1  0.71379100  0.33446300  0.45832000  1
  O  O23  1  0.78620900  0.83446300  0.45832000  1
  O  O24  1  0.21379100  0.16553700  0.54168000  1
  O  O25  1  0.28620900  0.66553700  0.54168000  1
  O  O26  1  0.03958900  0.33432700  0.55437500  1
  O  O27  1  0.46041100  0.83432700  0.55437500  1
  O  O28  1  0.67689300  0.15500900  0.61049900  1
  O  O29  1  0.82310700  0.65500900  0.61049900  1
  O  O30  1  0.45766800  0.48731200  0.69059200  1
  O  O31  1  0.04233200  0.98731200  0.69059200  1
  O  O32  1  0.23786700  0.41138100  0.71967600  1
  O  O33  1  0.40917900  0.23124400  0.72542600  1
  O  O34  1  0.26213300  0.91138100  0.71967600  1
  O  O35  1  0.09082100  0.73124400  0.72542600  1
  O  O36  1  0.89985400  0.21088700  0.77774900  1
  O  O37  1  0.60014600  0.71088700  0.77774900  1
  O  O38  1  0.96540800  0.46057600  0.79515200  1
  O  O39  1  0.53459200  0.96057600  0.79515200  1
  O  O40  1  0.73687600  0.39789900  0.80300600  1
  O  O41  1  0.76312400  0.89789900  0.80300600  1
  O  O42  1  0.16613600  0.16541100  0.88668400  1
  O  O43  1  0.33386400  0.66541100  0.88668400  1
  O  O44  1  0.50756100  0.29777900  0.96789900  1
  O  O45  1  0.99243900  0.79777900  0.96789900  1
  O  O46  1  0.67818700  0.11856000  0.99519700  1
  O  O47  1  0.82181300  0.61856000  0.99519700  1
loop_
_geom_bond_atom_site_label_1
_geom_bond_atom_site_label_2
_geom_bond_distance
_geom_bond_site_symmetry_2
Li0 O0 1.998063 1_555
Li0 O44 2.102498 1_554
Li0 O10 2.136209 1_555
Li0 O7 2.269043 1_555
Li0 O3 2.575919 1_555
Li1 O1 1.998063 1_555
Li1 O45 2.102498 1_454
Li1 O11 2.136209 1_555
Li1 O6 2.269043 1_565
Li1 O2 2.575919 1_565
Li2 O4 2.056546 1_555
Li2 O9 2.095330 1_655
Li2 O12 2.160912 1_555
Li2 O47 2.168065 1_554
Li2 O15 2.354381 1_555
Li2 O2 2.645017 1_655
Li3 O5 2.056546 1_555
Li3 O8 2.095330 1_565
Li3 O14 2.160912 1_555
Li3 O46 2.168065 1_564
Li3 O13 2.354381 1_565
Li3 O3 2.645017 1_555
Li4 O12 2.024677 1_455
Li4 O18 2.097061 1_555
Li4 O9 2.120205 1_555
Li4 O6 2.122072 1_555
Li4 O2 2.389189 1_555
Li4 O0 2.502140 1_555
Li5 O14 2.024677 1_555
Li5 O19 2.097061 1_555
Li5 O8 2.120205 1_565
Li5 O7 2.122072 1_555
Li5 O3 2.389189 1_555
Li5 O1 2.502140 1_555
Li6 O18 1.957326 1_555
Li6 O7 1.992083 1_555
Li6 O10 2.029683 1_555
Li6 O17 2.034677 1_555
Li7 O19 1.957326 1_555
Li7 O6 1.992083 1_565
Li7 O11 2.029683 1_555
Li7 O16 2.034677 1_465
Li8 O12 2.013648 1_555
Li8 O22 2.078441 1_555
Li8 O21 2.106667 1_555
Li8 O26 2.262572 1_655
Li8 O15 2.328254 1_555
Li9 O14 2.013648 1_555
Li9 O23 2.078441 1_555
Li9 O20 2.106667 1_565
Li9 O27 2.262572 1_555
Li9 O13 2.328254 1_565
Li10 O33 2.013648 1_555
Li10 O24 2.078441 1_555
Li10 O27 2.106667 1_545
Li10 O20 2.262572 1_555
Li10 O34 2.328254 1_545
Li11 O35 2.013648 1_555
Li11 O25 2.078441 1_555
Li11 O26 2.106667 1_555
Li11 O21 2.262572 1_455
Li11 O32 2.328254 1_555
Li12 O28 1.957326 1_555
Li12 O41 1.992083 1_545
Li12 O36 2.029683 1_555
Li12 O31 2.034677 1_645
Li13 O29 1.957326 1_555
Li13 O40 1.992083 1_555
Li13 O37 2.029683 1_555
Li13 O30 2.034677 1_555
Li14 O33 2.024677 1_555
Li14 O28 2.097061 1_555
Li14 O39 2.120205 1_545
Li14 O40 2.122072 1_555
Li14 O44 2.389189 1_555
Li14 O46 2.502140 1_555
Li15 O35 2.024677 1_655
Li15 O29 2.097061 1_555
Li15 O38 2.120205 1_555
Li15 O41 2.122072 1_555
Li15 O45 2.389189 1_555
Li15 O47 2.502140 1_555
Li16 O42 2.056546 1_555
Li16 O39 2.095330 1_545
Li16 O33 2.160912 1_555
Li16 O1 2.168065 1_546
Li16 O34 2.354381 1_545
Li16 O44 2.645017 1_555
Li17 O43 2.056546 1_555
Li17 O38 2.095330 1_455
Li17 O35 2.160912 1_555
Li17 O0 2.168065 1_556
Li17 O32 2.354381 1_555
Li17 O45 2.645017 1_455
Li18 O46 1.998063 1_555
Li18 O2 2.102498 1_656
Li18 O36 2.136209 1_555
Li18 O41 2.269043 1_545
Li18 O45 2.575919 1_545
Li19 O47 1.998063 1_555
Li19 O3 2.102498 1_556
Li19 O37 2.136209 1_555
Li19 O40 2.269043 1_555
Li19 O44 2.575919 1_555
Fe0 O4 2.002134 1_555
Fe0 O17 2.056772 1_555
Fe0 O13 2.083548 1_555
Fe0 O10 2.091689 1_555
Fe0 O20 2.140296 1_555
Fe0 O22 2.258162 1_555
Fe0 O8 2.617819 1_555
Fe1 O5 2.002134 1_555
Fe1 O16 2.056772 1_565
Fe1 O15 2.083548 1_555
Fe1 O11 2.091689 1_655
Fe1 O21 2.140296 1_555
Fe1 O23 2.258162 1_555
Fe1 O9 2.617819 1_655
Fe2 O42 2.002134 1_555
Fe2 O31 2.056772 1_545
Fe2 O32 2.083548 1_555
Fe2 O36 2.091689 1_455
Fe2 O26 2.140296 1_555
Fe2 O24 2.258162 1_555
Fe2 O38 2.617819 1_455
Fe3 O43 2.002134 1_555
Fe3 O30 2.056772 1_555
Fe3 O34 2.083548 1_555
Fe3 O37 2.091689 1_555
Fe3 O27 2.140296 1_555
Fe3 O25 2.258162 1_555
Fe3 O39 2.617819 1_555
C0 O46 1.279017 1_554
C0 O44 1.282768 1_554
C0 O4 1.344745 1_555
C1 O47 1.279017 1_554
C1 O45 1.282768 1_554
C1 O5 1.344745 1_555
C2 O8 1.276951 1_555
C2 O6 1.286871 1_555
C2 O10 1.325402 1_555
C3 O9 1.276951 1_555
C3 O7 1.286871 1_555
C3 O11 1.325402 1_555
C4 O12 1.277993 1_555
C4 O16 1.300002 1_555
C4 O13 1.304601 1_555
C5 O14 1.277993 1_555
C5 O17 1.300002 1_555
C5 O15 1.304601 1_555
C6 O18 1.272132 1_555
C6 O24 1.293528 1_555
C6 O26 1.328256 1_555
C7 O19 1.272132 1_555
C7 O25 1.293528 1_555
C7 O27 1.328256 1_555
C8 O28 1.272132 1_555
C8 O22 1.293528 1_555
C8 O20 1.328256 1_555
C9 O29 1.272132 1_555
C9 O23 1.293528 1_555
C9 O21 1.328256 1_555
C10 O33 1.277993 1_555
C10 O30 1.300002 1_555
C10 O32 1.304601 1_555
C11 O35 1.277993 1_555
C11 O31 1.300002 1_555
C11 O34 1.304601 1_555
C12 O38 1.276951 1_555
C12 O40 1.286871 1_555
C12 O36 1.325402 1_555
C13 O39 1.276951 1_555
C13 O41 1.286871 1_555
C13 O37 1.325402 1_555
C14 O0 1.279017 1_556
C14 O2 1.282768 1_556
C14 O42 1.344745 1_555
C15 O1 1.279017 1_556
C15 O3 1.282768 1_556
C15 O43 1.344745 1_555
