# generated using pymatgen
data_TiH12N2(O2F3)2
_symmetry_space_group_name_H-M   'P 1'
_cell_length_a   10.13070200
_cell_length_b   6.27249100
_cell_length_c   7.49484976
_cell_angle_alpha   69.52200770
_cell_angle_beta   90.00000000
_cell_angle_gamma   90.00000000
_symmetry_Int_Tables_number   1
_chemical_formula_structural   TiH12N2(O2F3)2
_chemical_formula_sum   'Ti2 H24 N4 O8 F12'
_cell_volume   446.16189688
_cell_formula_units_Z   2
loop_
 _symmetry_equiv_pos_site_id
 _symmetry_equiv_pos_as_xyz
  1  'x, y, z'
loop_
 _atom_site_type_symbol
 _atom_site_label
 _atom_site_symmetry_multiplicity
 _atom_site_fract_x
 _atom_site_fract_y
 _atom_site_fract_z
 _atom_site_occupancy
  Ti  Ti0  1  0.50000000  0.00000000  0.50000000  1
  Ti  Ti1  1  0.00000000  0.00000000  0.00000000  1
  H  H0  1  0.77296700  0.48485000  0.32086900  1
  H  H1  1  0.27296700  0.51515000  0.17913100  1
  H  H2  1  0.22703300  0.51515000  0.67913100  1
  H  H3  1  0.72703300  0.48485000  0.82086900  1
  H  H4  1  0.62128200  0.55583000  0.38099900  1
  H  H5  1  0.12128200  0.44417000  0.11900100  1
  H  H6  1  0.37871800  0.44417000  0.61900100  1
  H  H7  1  0.87871800  0.55583000  0.88099900  1
  H  H8  1  0.73651300  0.76405800  0.27915500  1
  H  H9  1  0.23651300  0.23594200  0.22084500  1
  H  H10  1  0.26348700  0.23594200  0.72084500  1
  H  H11  1  0.76348700  0.76405800  0.77915500  1
  H  H12  1  0.55545800  0.67072200  0.09871100  1
  H  H13  1  0.05545800  0.32927800  0.40128900  1
  H  H14  1  0.44454200  0.32927800  0.90128900  1
  H  H15  1  0.94454200  0.67072200  0.59871100  1
  H  H16  1  0.62554500  0.15665000  0.83396400  1
  H  H17  1  0.12554500  0.84335000  0.66603600  1
  H  H18  1  0.37445500  0.84335000  0.16603600  1
  H  H19  1  0.87445500  0.15665000  0.33396400  1
  H  H20  1  0.62663500  0.17980500  0.03997400  1
  H  H21  1  0.12663500  0.82019500  0.46002600  1
  H  H22  1  0.37336500  0.82019500  0.96002600  1
  H  H23  1  0.87336500  0.17980500  0.53997400  1
  N  N0  1  0.69802700  0.60913900  0.28298200  1
  N  N1  1  0.19802700  0.39086100  0.21701800  1
  N  N2  1  0.30197300  0.39086100  0.71701800  1
  N  N3  1  0.80197300  0.60913900  0.78298200  1
  O  O0  1  0.65222500  0.63088700  0.09887900  1
  O  O1  1  0.15222500  0.36911300  0.40112100  1
  O  O2  1  0.34777500  0.36911300  0.90112100  1
  O  O3  1  0.84777500  0.63088700  0.59887900  1
  O  O4  1  0.60722700  0.26168800  0.90339200  1
  O  O5  1  0.10722700  0.73831200  0.59660800  1
  O  O6  1  0.39277300  0.73831200  0.09660800  1
  O  O7  1  0.89277300  0.26168800  0.40339200  1
  F  F0  1  0.38214200  0.94290700  0.70664800  1
  F  F1  1  0.88214200  0.05709300  0.79335200  1
  F  F2  1  0.61785800  0.05709300  0.29335200  1
  F  F3  1  0.11785800  0.94290700  0.20664800  1
  F  F4  1  0.63950500  0.00602600  0.66888300  1
  F  F5  1  0.13950500  0.99397400  0.83111700  1
  F  F6  1  0.36049500  0.99397400  0.33111700  1
  F  F7  1  0.86049500  0.00602600  0.16888300  1
  F  F8  1  0.52232700  0.68349400  0.55900700  1
  F  F9  1  0.02232700  0.31650600  0.94099300  1
  F  F10  1  0.47767300  0.31650600  0.44099300  1
  F  F11  1  0.97767300  0.68349400  0.05900700  1
loop_
_geom_bond_atom_site_label_1
_geom_bond_atom_site_label_2
_geom_bond_distance
_geom_bond_site_symmetry_2
H0 N0 1.053515 1_555
H1 N1 1.053515 1_555
H2 N2 1.053515 1_555
H3 N3 1.053515 1_555
H4 N0 1.041192 1_555
H5 N1 1.041192 1_555
H6 N2 1.041192 1_555
H7 N3 1.041192 1_555
H8 N0 1.038071 1_555
H9 N1 1.038071 1_555
H10 N2 1.038071 1_555
H11 N3 1.038071 1_555
H12 O0 1.011552 1_555
H13 O1 1.011552 1_555
H14 O2 1.011552 1_555
H15 O3 1.011552 1_555
H16 O4 0.989529 1_555
H17 O5 0.989529 1_555
H18 O6 0.989529 1_555
H19 O7 0.989529 1_555
H20 O4 0.991193 1_554
H21 O5 0.991193 1_555
H22 O6 0.991193 1_556
H23 O7 0.991193 1_555
N0 O0 1.416377 1_555
N1 O1 1.416377 1_555
N2 O2 1.416377 1_555
N3 O3 1.416377 1_555
F0 Ti0 1.887996 1_565
F1 Ti1 1.887996 1_656
F2 Ti0 1.887996 1_555
F3 Ti1 1.887996 1_565
F4 Ti0 1.906411 1_555
F5 Ti1 1.906411 1_566
F6 Ti0 1.906411 1_565
F7 Ti1 1.906411 1_655
F8 Ti0 1.890440 1_565
F9 Ti1 1.890440 1_556
F10 Ti0 1.890440 1_555
F11 Ti1 1.890440 1_665
