# generated using pymatgen
data_Li8Mn5Fe3(BO3)8
_symmetry_space_group_name_H-M   'P 1'
_cell_length_a   5.24049200
_cell_length_b   5.25034119
_cell_length_c   20.93706437
_cell_angle_alpha   90.90966483
_cell_angle_beta   90.63499070
_cell_angle_gamma   119.76611599
_symmetry_Int_Tables_number   1
_chemical_formula_structural   Li8Mn5Fe3(BO3)8
_chemical_formula_sum   'Li8 Mn5 Fe3 B8 O24'
_cell_volume   499.88061456
_cell_formula_units_Z   1
loop_
 _symmetry_equiv_pos_site_id
 _symmetry_equiv_pos_as_xyz
  1  'x, y, z'
loop_
 _atom_site_type_symbol
 _atom_site_label
 _atom_site_symmetry_multiplicity
 _atom_site_fract_x
 _atom_site_fract_y
 _atom_site_fract_z
 _atom_site_occupancy
  Li  Li0  1  0.34968700  0.32510900  0.66645400  1
  Li  Li1  1  0.32131400  0.34697100  0.91569400  1
  Li  Li2  1  0.34909900  0.32092600  0.16596400  1
  Li  Li3  1  0.32205700  0.34918000  0.41646800  1
  Li  Li4  1  0.66631400  0.65573700  0.79042400  1
  Li  Li5  1  0.65113700  0.66349100  0.54189800  1
  Li  Li6  1  0.66223200  0.65148200  0.29132100  1
  Li  Li7  1  0.65189000  0.66211000  0.04088700  1
  Mn  Mn0  1  0.99660500  0.32963500  0.05800200  1
  Mn  Mn1  1  0.99954100  0.67942300  0.93233600  1
  Mn  Mn2  1  0.99800000  0.67401700  0.43465900  1
  Mn  Mn3  1  0.67736900  0.99652600  0.18343300  1
  Mn  Mn4  1  0.32865800  0.99605200  0.30869700  1
  Fe  Fe0  1  0.99535900  0.32161900  0.55982600  1
  Fe  Fe1  1  0.67620600  0.01018500  0.68311600  1
  Fe  Fe2  1  0.32592500  0.99766000  0.80773700  1
  B  B0  1  0.65855600  0.00363000  0.93611900  1
  B  B1  1  0.65972000  0.00263700  0.43820800  1
  B  B2  1  0.99549800  0.33041600  0.81093700  1
  B  B3  1  0.99584300  0.33416700  0.31239300  1
  B  B4  1  0.00183600  0.66230300  0.68694500  1
  B  B5  1  0.00183100  0.65790400  0.18727500  1
  B  B6  1  0.32919800  0.99138000  0.56256100  1
  B  B7  1  0.33450900  0.99511300  0.06199000  1
  O  O0  1  0.74758400  0.06981700  0.79191000  1
  O  O1  1  0.75346700  0.07056700  0.29114700  1
  O  O2  1  0.92952900  0.25418700  0.95148300  1
  O  O3  1  0.42185600  0.03339700  0.91547300  1
  O  O4  1  0.92960400  0.25225500  0.45375000  1
  O  O5  1  0.42190400  0.03220300  0.41722200  1
  O  O6  1  0.97609200  0.58265000  0.82538300  1
  O  O7  1  0.34558500  0.26468300  0.56892100  1
  O  O8  1  0.96197900  0.57746000  0.32782900  1
  O  O9  1  0.35876300  0.26905600  0.06922600  1
  O  O10  1  0.26821100  0.34732600  0.81728800  1
  O  O11  1  0.26895200  0.35835400  0.31984800  1
  O  O12  1  0.73232500  0.64373600  0.69310300  1
  O  O13  1  0.72677600  0.62814800  0.19464300  1
  O  O14  1  0.62949500  0.72775800  0.94355600  1
  O  O15  1  0.02453800  0.41575500  0.66781200  1
  O  O16  1  0.63048100  0.72688900  0.44534600  1
  O  O17  1  0.03325800  0.42056600  0.16640800  1
  O  O18  1  0.58016400  0.97158300  0.57708800  1
  O  O19  1  0.57782100  0.96208900  0.07734100  1
  O  O20  1  0.06862400  0.74322400  0.54350300  1
  O  O21  1  0.07076100  0.75335400  0.04076300  1
  O  O22  1  0.26013500  0.92725000  0.70153800  1
  O  O23  1  0.25251500  0.92882500  0.20227600  1
loop_
_geom_bond_atom_site_label_1
_geom_bond_atom_site_label_2
_geom_bond_distance
_geom_bond_site_symmetry_2
Li0 O12 1.935347 1_555
Li0 O15 1.984080 1_555
Li0 O22 2.050923 1_545
Li0 O7 2.059802 1_555
Li1 O14 1.918783 1_555
Li1 O3 1.961963 1_555
Li1 O2 2.016626 1_455
Li1 O10 2.076137 1_555
Li2 O13 1.911193 1_555
Li2 O17 1.968063 1_555
Li2 O23 2.023833 1_545
Li2 O9 2.043886 1_555
Li3 O16 1.915292 1_555
Li3 O5 1.977124 1_555
Li3 O4 2.026589 1_455
Li3 O11 2.043521 1_555
Li4 O6 1.979771 1_555
Li4 O0 1.996769 1_565
Li4 O10 1.997867 1_555
Li4 O12 2.075742 1_555
Li5 O18 1.965546 1_555
Li5 O7 1.999259 1_555
Li5 O20 2.012842 1_655
Li5 O16 2.064299 1_555
Li6 O8 1.947246 1_555
Li6 O11 1.969770 1_555
Li6 O1 2.006445 1_565
Li6 O13 2.067622 1_555
Li7 O19 1.946591 1_555
Li7 O9 1.970260 1_555
Li7 O21 2.000988 1_655
Li7 O14 2.083860 1_554
Mn0 O9 2.085717 1_655
Mn0 O21 2.097769 1_655
Mn0 O19 2.131590 1_545
Mn0 O2 2.251791 1_554
Mn0 O17 2.298098 1_655
Mn1 O14 2.092133 1_555
Mn1 O3 2.104943 1_665
Mn1 O2 2.120921 1_555
Mn1 O6 2.276713 1_555
Mn1 O21 2.291923 1_656
Mn2 O16 2.091642 1_555
Mn2 O4 2.105938 1_555
Mn2 O5 2.120497 1_665
Mn2 O8 2.270487 1_555
Mn2 O20 2.298643 1_655
Mn3 O13 2.091220 1_555
Mn3 O23 2.115932 1_555
Mn3 O17 2.116403 1_665
Mn3 O19 2.259806 1_555
Mn3 O1 2.279133 1_565
Mn4 O11 2.085496 1_565
Mn4 O1 2.098090 1_565
Mn4 O8 2.129503 1_455
Mn4 O23 2.250312 1_555
Mn4 O5 2.303754 1_565
Fe0 O7 2.008229 1_655
Fe0 O18 2.076163 1_545
Fe0 O20 2.084984 1_655
Fe0 O4 2.239778 1_555
Fe0 O15 2.293728 1_655
Fe1 O15 2.035740 1_655
Fe1 O22 2.043000 1_545
Fe1 O12 2.098845 1_545
Fe1 O18 2.254347 1_545
Fe1 O0 2.295349 1_555
Fe2 O10 2.010691 1_565
Fe2 O6 2.078334 1_455
Fe2 O0 2.079690 1_565
Fe2 O22 2.242725 1_555
Fe2 O3 2.289930 1_565
B0 O3 1.390210 1_555
B0 O14 1.390693 1_545
B0 O2 1.404325 1_555
B1 O16 1.388872 1_545
B1 O5 1.397309 1_555
B1 O4 1.399863 1_555
B2 O0 1.387396 1_555
B2 O10 1.391927 1_655
B2 O6 1.406172 1_555
B3 O11 1.379438 1_655
B3 O1 1.396102 1_555
B3 O8 1.407432 1_555
B4 O12 1.374279 1_455
B4 O22 1.402990 1_555
B4 O15 1.409879 1_555
B5 O13 1.381305 1_455
B5 O17 1.399593 1_555
B5 O23 1.403216 1_555
B6 O20 1.387916 1_555
B6 O7 1.398380 1_565
B6 O18 1.400320 1_555
B7 O9 1.385256 1_565
B7 O21 1.394832 1_555
B7 O19 1.404059 1_555
