# generated using pymatgen
data_Na5Mn2P(CO4)4
_symmetry_space_group_name_H-M   'P 1'
_cell_length_a   9.90450462
_cell_length_b   9.90450462
_cell_length_c   9.89790199
_cell_angle_alpha   61.19663672
_cell_angle_beta   61.19663672
_cell_angle_gamma   91.00413709
_symmetry_Int_Tables_number   1
_chemical_formula_structural   Na5Mn2P(CO4)4
_chemical_formula_sum   'Na10 Mn4 P2 C8 O32'
_cell_volume   705.06818038
_cell_formula_units_Z   2
loop_
 _symmetry_equiv_pos_site_id
 _symmetry_equiv_pos_as_xyz
  1  'x, y, z'
loop_
 _atom_site_type_symbol
 _atom_site_label
 _atom_site_symmetry_multiplicity
 _atom_site_fract_x
 _atom_site_fract_y
 _atom_site_fract_z
 _atom_site_occupancy
  Na  Na0  1  0.34077200  0.08488000  0.83840500  1
  Na  Na1  1  0.91577600  0.08422400  0.25000000  1
  Na  Na2  1  0.34030600  0.08816800  0.24206200  1
  Na  Na3  1  0.08488000  0.34077200  0.33840500  1
  Na  Na4  1  0.91183200  0.65969400  0.25793800  1
  Na  Na5  1  0.08816800  0.34030600  0.74206200  1
  Na  Na6  1  0.91512000  0.65922800  0.66159500  1
  Na  Na7  1  0.65969400  0.91183200  0.75793800  1
  Na  Na8  1  0.08422400  0.91577600  0.75000000  1
  Na  Na9  1  0.65922800  0.91512000  0.16159500  1
  Mn  Mn0  1  0.00000000  0.50000000  0.00000000  1
  Mn  Mn1  1  0.50000000  0.50000000  0.50000000  1
  Mn  Mn2  1  0.50000000  0.50000000  0.00000000  1
  Mn  Mn3  1  0.50000000  0.00000000  0.50000000  1
  P  P0  1  0.87531500  0.12468500  0.75000000  1
  P  P1  1  0.12468500  0.87531500  0.25000000  1
  C  C0  1  0.71347500  0.28848800  0.43143700  1
  C  C1  1  0.27945300  0.35061100  0.94003400  1
  C  C2  1  0.64938900  0.72054700  0.55996600  1
  C  C3  1  0.28848800  0.71347500  0.93143700  1
  C  C4  1  0.71151200  0.28652500  0.06856300  1
  C  C5  1  0.35061100  0.27945300  0.44003400  1
  C  C6  1  0.72054700  0.64938900  0.05996600  1
  C  C7  1  0.28652500  0.71151200  0.56856300  1
  O  O0  1  0.69223500  0.14328600  0.46357000  1
  O  O1  1  0.30077600  0.34226400  0.80581200  1
  O  O2  1  0.59062100  0.31508500  0.53684100  1
  O  O3  1  0.13904200  0.34662200  0.05803600  1
  O  O4  1  0.85400400  0.39941700  0.30142300  1
  O  O5  1  0.93711500  0.05839400  0.62414000  1
  O  O6  1  0.68692800  0.05880900  0.87440100  1
  O  O7  1  0.39897500  0.35485400  0.96251900  1
  O  O8  1  0.14328600  0.69223500  0.96357000  1
  O  O9  1  0.64514600  0.60102500  0.53748100  1
  O  O10  1  0.94160600  0.06288500  0.87586000  1
  O  O11  1  0.94119100  0.31307200  0.62559900  1
  O  O12  1  0.34226400  0.30077600  0.30581200  1
  O  O13  1  0.60058300  0.14599600  0.19857700  1
  O  O14  1  0.31508500  0.59062100  0.03684100  1
  O  O15  1  0.65337800  0.86095800  0.44196400  1
  O  O16  1  0.34662200  0.13904200  0.55803600  1
  O  O17  1  0.68491500  0.40937900  0.96315900  1
  O  O18  1  0.65773600  0.69922400  0.69418800  1
  O  O19  1  0.39941700  0.85400400  0.80142300  1
  O  O20  1  0.05880900  0.68692800  0.37440100  1
  O  O21  1  0.05839400  0.93711500  0.12414000  1
  O  O22  1  0.35485400  0.39897500  0.46251900  1
  O  O23  1  0.85671400  0.30776500  0.03643000  1
  O  O24  1  0.60102500  0.64514600  0.03748100  1
  O  O25  1  0.31307200  0.94119100  0.12559900  1
  O  O26  1  0.06288500  0.94160600  0.37586000  1
  O  O27  1  0.14599600  0.60058300  0.69857700  1
  O  O28  1  0.86095800  0.65337800  0.94196400  1
  O  O29  1  0.40937900  0.68491500  0.46315900  1
  O  O30  1  0.69922400  0.65773600  0.19418800  1
  O  O31  1  0.30776500  0.85671400  0.53643000  1
loop_
_geom_bond_atom_site_label_1
_geom_bond_atom_site_label_2
_geom_bond_distance
_geom_bond_site_symmetry_2
Na0 O25 2.348969 1_546
Na0 O1 2.475036 1_555
Na0 O21 2.491719 1_546
Na0 O19 2.519659 1_545
Na0 O2 2.521599 1_555
Na0 O16 2.530135 1_555
Na1 O21 2.407431 1_645
Na1 O26 2.407431 1_645
Na1 O15 2.499208 1_545
Na1 O3 2.499208 1_655
Na1 O23 2.537682 1_555
Na1 O0 2.537682 1_555
Na2 O25 2.328864 1_545
Na2 O13 2.408415 1_555
Na2 O26 2.431520 1_545
Na2 O12 2.474582 1_555
Na2 O7 2.514898 1_554
Na2 O31 2.545844 1_545
Na3 O11 2.348969 1_455
Na3 O12 2.475036 1_555
Na3 O5 2.491719 1_455
Na3 O4 2.519659 1_455
Na3 O14 2.521599 1_555
Na3 O3 2.530135 1_555
Na4 O20 2.328864 1_655
Na4 O4 2.408415 1_555
Na4 O21 2.431520 1_655
Na4 O30 2.474582 1_555
Na4 O9 2.514898 1_555
Na4 O8 2.545844 1_654
Na5 O11 2.328864 1_455
Na5 O27 2.408415 1_555
Na5 O10 2.431520 1_455
Na5 O1 2.474582 1_555
Na5 O22 2.514898 1_555
Na5 O23 2.545844 1_456
Na6 O20 2.348969 1_655
Na6 O18 2.475036 1_555
Na6 O26 2.491719 1_655
Na6 O27 2.519659 1_655
Na6 O17 2.521599 1_555
Na6 O28 2.530135 1_555
Na7 O6 2.328864 1_565
Na7 O19 2.408415 1_555
Na7 O5 2.431520 1_565
Na7 O18 2.474582 1_555
Na7 O24 2.514898 1_556
Na7 O0 2.545844 1_565
Na8 O5 2.407431 1_465
Na8 O10 2.407431 1_465
Na8 O28 2.499208 1_455
Na8 O16 2.499208 1_565
Na8 O31 2.537682 1_555
Na8 O8 2.537682 1_555
Na9 O6 2.348969 1_564
Na9 O30 2.475036 1_555
Na9 O10 2.491719 1_564
Na9 O13 2.519659 1_565
Na9 O29 2.521599 1_555
Na9 O15 2.530135 1_555
Mn0 O8 2.126005 1_554
Mn0 O23 2.126005 1_455
Mn0 O3 2.128142 1_555
Mn0 O28 2.128142 1_454
Mn0 O4 2.216477 1_455
Mn0 O27 2.216477 1_554
Mn1 O29 2.005589 1_555
Mn1 O2 2.005589 1_555
Mn1 O9 2.006670 1_555
Mn1 O22 2.006670 1_555
Mn1 O30 2.253044 1_555
Mn1 O1 2.253044 1_555
Mn2 O17 2.005589 1_554
Mn2 O14 2.005589 1_555
Mn2 O24 2.006670 1_555
Mn2 O7 2.006670 1_554
Mn2 O12 2.253044 1_555
Mn2 O18 2.253044 1_554
Mn3 O0 2.126005 1_555
Mn3 O31 2.126005 1_545
Mn3 O16 2.128142 1_555
Mn3 O15 2.128142 1_545
Mn3 O19 2.216477 1_545
Mn3 O13 2.216477 1_555
C0 O4 1.287815 1_555
C0 O2 1.300476 1_555
C0 O0 1.303020 1_555
C1 O1 1.285487 1_555
C1 O3 1.299302 1_556
C1 O7 1.309136 1_555
C2 O18 1.285487 1_555
C2 O15 1.299302 1_555
C2 O9 1.309136 1_555
C3 O19 1.287815 1_555
C3 O14 1.300476 1_556
C3 O8 1.303020 1_555
C4 O13 1.287815 1_555
C4 O17 1.300476 1_554
C4 O23 1.303020 1_555
C5 O12 1.285487 1_555
C5 O16 1.299302 1_555
C5 O22 1.309136 1_555
C6 O30 1.285487 1_555
C6 O28 1.299302 1_554
C6 O24 1.309136 1_555
C7 O27 1.287815 1_555
C7 O29 1.300476 1_555
C7 O31 1.303020 1_555
O5 P0 1.557285 1_555
O6 P0 1.546819 1_555
O10 P0 1.557285 1_555
O11 P0 1.546819 1_555
O20 P1 1.546819 1_555
O21 P1 1.557285 1_555
O25 P1 1.546819 1_555
O26 P1 1.557285 1_555
