# generated using pymatgen
data_BaSi2(H3O4)2
_symmetry_space_group_name_H-M   'P 1'
_cell_length_a   10.74991500
_cell_length_b   7.93190600
_cell_length_c   8.55640021
_cell_angle_alpha   84.96313926
_cell_angle_beta   90.00000000
_cell_angle_gamma   90.00000000
_symmetry_Int_Tables_number   1
_chemical_formula_structural   BaSi2(H3O4)2
_chemical_formula_sum   'Ba4 Si8 H24 O32'
_cell_volume   726.76393917
_cell_formula_units_Z   4
loop_
 _symmetry_equiv_pos_site_id
 _symmetry_equiv_pos_as_xyz
  1  'x, y, z'
loop_
 _atom_site_type_symbol
 _atom_site_label
 _atom_site_symmetry_multiplicity
 _atom_site_fract_x
 _atom_site_fract_y
 _atom_site_fract_z
 _atom_site_occupancy
  Ba  Ba0  1  0.64741200  0.79683800  0.62583700  1
  Ba  Ba1  1  0.14741200  0.20316200  0.87416300  1
  Ba  Ba2  1  0.35258800  0.20316200  0.37416300  1
  Ba  Ba3  1  0.85258800  0.79683800  0.12583700  1
  Si  Si0  1  0.88246400  0.51026800  0.77430600  1
  Si  Si1  1  0.38246400  0.48973200  0.72569400  1
  Si  Si2  1  0.11753600  0.48973200  0.22569400  1
  Si  Si3  1  0.61753600  0.51026800  0.27430600  1
  Si  Si4  1  0.74495600  0.29959700  0.03206400  1
  Si  Si5  1  0.24495600  0.70040300  0.46793600  1
  Si  Si6  1  0.25504400  0.70040300  0.96793600  1
  Si  Si7  1  0.75504400  0.29959700  0.53206400  1
  H  H0  1  0.91179700  0.88164400  0.80602400  1
  H  H1  1  0.41179700  0.11835600  0.69397600  1
  H  H2  1  0.08820300  0.11835600  0.19397600  1
  H  H3  1  0.58820300  0.88164400  0.30602400  1
  H  H4  1  0.85879400  0.06511300  0.77427700  1
  H  H5  1  0.35879400  0.93488700  0.72572300  1
  H  H6  1  0.14120600  0.93488700  0.22572300  1
  H  H7  1  0.64120600  0.06511300  0.27427700  1
  H  H8  1  0.61257100  0.00464100  0.95337300  1
  H  H9  1  0.11257100  0.99535900  0.54662700  1
  H  H10  1  0.38742900  0.99535900  0.04662700  1
  H  H11  1  0.88742900  0.00464100  0.45337300  1
  H  H12  1  0.53667600  0.83468300  0.99623600  1
  H  H13  1  0.03667600  0.16531700  0.50376400  1
  H  H14  1  0.46332400  0.16531700  0.00376400  1
  H  H15  1  0.96332400  0.83468300  0.49623600  1
  H  H16  1  0.67249000  0.18367500  0.76492500  1
  H  H17  1  0.17249000  0.81632500  0.73507500  1
  H  H18  1  0.32751000  0.81632500  0.23507500  1
  H  H19  1  0.82751000  0.18367500  0.26492500  1
  H  H20  1  0.56595700  0.41311500  0.83969100  1
  H  H21  1  0.06595700  0.58688500  0.66030900  1
  H  H22  1  0.43404300  0.58688500  0.16030900  1
  H  H23  1  0.93404300  0.41311500  0.33969100  1
  O  O0  1  0.78979000  0.46547600  0.62774700  1
  O  O1  1  0.28979000  0.53452400  0.87225300  1
  O  O2  1  0.21021000  0.53452400  0.37225300  1
  O  O3  1  0.71021000  0.46547600  0.12774700  1
  O  O4  1  0.02845200  0.48456500  0.72106300  1
  O  O5  1  0.52845200  0.51543500  0.77893700  1
  O  O6  1  0.97154800  0.51543500  0.27893700  1
  O  O7  1  0.47154800  0.48456500  0.22106300  1
  O  O8  1  0.84700900  0.69439200  0.82138700  1
  O  O9  1  0.34700900  0.30560800  0.67861300  1
  O  O10  1  0.15299100  0.30560800  0.17861300  1
  O  O11  1  0.65299100  0.69439200  0.32138700  1
  O  O12  1  0.86553600  0.35790700  0.91907100  1
  O  O13  1  0.36553600  0.64209300  0.58092900  1
  O  O14  1  0.13446400  0.64209300  0.08092900  1
  O  O15  1  0.63446400  0.35790700  0.41907100  1
  O  O16  1  0.63033100  0.23447400  0.92993800  1
  O  O17  1  0.13033100  0.76552600  0.57006200  1
  O  O18  1  0.36966900  0.76552600  0.07006200  1
  O  O19  1  0.86966900  0.23447400  0.42993800  1
  O  O20  1  0.78922000  0.14466900  0.16357600  1
  O  O21  1  0.28922000  0.85533100  0.33642400  1
  O  O22  1  0.21078000  0.85533100  0.83642400  1
  O  O23  1  0.71078000  0.14466900  0.66357600  1
  O  O24  1  0.61803200  0.87916900  0.95750400  1
  O  O25  1  0.11803200  0.12083100  0.54249600  1
  O  O26  1  0.38196800  0.12083100  0.04249600  1
  O  O27  1  0.88196800  0.87916900  0.45750400  1
  O  O28  1  0.92653700  0.00233700  0.83080000  1
  O  O29  1  0.42653700  0.99766300  0.66920000  1
  O  O30  1  0.07346300  0.99766300  0.16920000  1
  O  O31  1  0.57346300  0.00233700  0.33080000  1
loop_
_geom_bond_atom_site_label_1
_geom_bond_atom_site_label_2
_geom_bond_distance
_geom_bond_site_symmetry_2
Ba0 O5 2.796442 1_555
Ba0 O11 2.796713 1_555
Ba0 O8 2.797319 1_555
Ba0 H3 2.832409 1_555
Ba0 O23 2.887320 1_565
Ba0 O29 2.901133 1_555
Ba0 O27 2.948488 1_555
Ba0 O24 2.984153 1_555
Ba0 O31 2.989844 1_565
Ba0 O0 3.040303 1_555
Ba0 O13 3.304361 1_555
Ba1 O4 2.796442 1_555
Ba1 O10 2.796713 1_556
Ba1 O9 2.797319 1_555
Ba1 H2 2.832409 1_556
Ba1 O22 2.887320 1_545
Ba1 O28 2.901133 1_455
Ba1 O26 2.948488 1_556
Ba1 O25 2.984153 1_555
Ba1 O30 2.989844 1_546
Ba1 O1 3.040303 1_555
Ba1 O12 3.304361 1_455
Ba2 O7 2.796442 1_555
Ba2 O9 2.796713 1_555
Ba2 O10 2.797319 1_555
Ba2 H1 2.832409 1_555
Ba2 O21 2.887320 1_545
Ba2 O31 2.901133 1_555
Ba2 O25 2.948488 1_555
Ba2 O26 2.984153 1_555
Ba2 O29 2.989844 1_545
Ba2 O2 3.040303 1_555
Ba2 O15 3.304361 1_555
Ba3 O6 2.796442 1_555
Ba3 O8 2.796713 1_554
Ba3 O11 2.797319 1_555
Ba3 H0 2.832409 1_554
Ba3 O20 2.887320 1_565
Ba3 O30 2.901133 1_655
Ba3 O24 2.948488 1_554
Ba3 O27 2.984153 1_555
Ba3 O28 2.989844 1_564
Ba3 O3 3.040303 1_555
Ba3 O14 3.304361 1_655
H0 O28 1.011018 1_565
H0 O8 1.635260 1_555
H1 O29 1.011018 1_545
H1 O9 1.635260 1_555
H2 O30 1.011018 1_545
H2 O10 1.635260 1_555
H3 O31 1.011018 1_565
H3 O11 1.635260 1_555
H4 O28 0.984822 1_555
H5 O29 0.984822 1_555
H6 O30 0.984822 1_555
H7 O31 0.984822 1_555
H8 O24 0.994488 1_545
H9 O25 0.994488 1_565
H10 O26 0.994488 1_565
H11 O27 0.994488 1_545
H12 O24 0.989282 1_555
H13 O25 0.989282 1_555
H14 O26 0.989282 1_555
H15 O27 0.989282 1_555
H16 O23 1.031633 1_555
H16 O16 1.568808 1_555
H17 O22 1.031633 1_555
H17 O17 1.568808 1_555
H18 O21 1.031633 1_555
H18 O18 1.568808 1_555
H19 O20 1.031633 1_555
H19 O19 1.568808 1_555
H20 O5 1.008653 1_555
H20 O16 1.700241 1_555
H21 O4 1.008653 1_555
H21 O17 1.700241 1_555
H22 O7 1.008653 1_555
H22 O18 1.700241 1_555
H23 O6 1.008653 1_555
H23 O19 1.700241 1_555
O0 Si7 1.652301 1_555
O0 Si0 1.664185 1_555
O1 Si6 1.652301 1_555
O1 Si1 1.664185 1_555
O2 Si5 1.652301 1_555
O2 Si2 1.664185 1_555
O3 Si4 1.652301 1_555
O3 Si3 1.664185 1_555
O4 Si0 1.651757 1_455
O5 Si1 1.651757 1_555
O6 Si2 1.651757 1_655
O7 Si3 1.651757 1_555
O8 Si0 1.594924 1_555
O9 Si1 1.594924 1_555
O10 Si2 1.594924 1_555
O11 Si3 1.594924 1_555
O12 Si4 1.658410 1_556
O12 Si0 1.662848 1_555
O13 Si5 1.658410 1_555
O13 Si1 1.662848 1_555
O14 Si6 1.658410 1_554
O14 Si2 1.662848 1_555
O15 Si7 1.658410 1_555
O15 Si3 1.662848 1_555
O16 Si4 1.621111 1_556
O17 Si5 1.621111 1_555
O18 Si6 1.621111 1_554
O19 Si7 1.621111 1_555
O20 Si4 1.661315 1_555
O21 Si5 1.661315 1_555
O22 Si6 1.661315 1_555
O23 Si7 1.661315 1_555
