# generated using pymatgen
data_Li3Mn4(BO3)4
_symmetry_space_group_name_H-M   'P 1'
_cell_length_a   5.29615800
_cell_length_b   9.04933439
_cell_length_c   10.87957717
_cell_angle_alpha   100.18448352
_cell_angle_beta   100.91701517
_cell_angle_gamma   89.39505911
_symmetry_Int_Tables_number   1
_chemical_formula_structural   Li3Mn4(BO3)4
_chemical_formula_sum   'Li6 Mn8 B8 O24'
_cell_volume   503.77691189
_cell_formula_units_Z   2
loop_
 _symmetry_equiv_pos_site_id
 _symmetry_equiv_pos_as_xyz
  1  'x, y, z'
loop_
 _atom_site_type_symbol
 _atom_site_label
 _atom_site_symmetry_multiplicity
 _atom_site_fract_x
 _atom_site_fract_y
 _atom_site_fract_z
 _atom_site_occupancy
  Li  Li0  1  0.50459500  0.10804400  0.15862300  1
  Li  Li1  1  0.75126000  0.63294900  0.32715800  1
  Li  Li2  1  0.23826700  0.13961800  0.34098400  1
  Li  Li3  1  0.24880700  0.35911600  0.65459400  1
  Li  Li4  1  0.98977100  0.39478300  0.84058600  1
  Li  Li5  1  0.50296500  0.88158000  0.82960200  1
  Mn  Mn0  1  0.97474500  0.26922200  0.11944100  1
  Mn  Mn1  1  0.47997300  0.75529900  0.12174900  1
  Mn  Mn2  1  0.76523900  0.98398600  0.38126600  1
  Mn  Mn3  1  0.27100200  0.49421500  0.37448700  1
  Mn  Mn4  1  0.72342400  0.52334900  0.62247000  1
  Mn  Mn5  1  0.23260200  0.00513700  0.62005000  1
  Mn  Mn6  1  0.51624800  0.23300700  0.87360800  1
  Mn  Mn7  1  0.02713600  0.74941400  0.87703800  1
  B  B0  1  0.98340700  0.93638400  0.12238900  1
  B  B1  1  0.49437600  0.42354600  0.13641600  1
  B  B2  1  0.75600600  0.31996000  0.37071900  1
  B  B3  1  0.26274400  0.81664700  0.37093900  1
  B  B4  1  0.73975100  0.18732000  0.62880000  1
  B  B5  1  0.24029500  0.67656000  0.63333900  1
  B  B6  1  0.50738400  0.56900700  0.86971000  1
  B  B7  1  0.01463700  0.06861600  0.87182500  1
  O  O0  1  0.56925100  0.28194900  0.08187300  1
  O  O1  1  0.63796300  0.54929500  0.14449300  1
  O  O2  1  0.14117700  0.06315400  0.15084900  1
  O  O3  1  0.00194500  0.31387900  0.34221100  1
  O  O4  1  0.74729700  0.93767600  0.15989400  1
  O  O5  1  0.26902400  0.42728200  0.18880300  1
  O  O6  1  0.07686300  0.80049600  0.06247800  1
  O  O7  1  0.60051900  0.19427800  0.35021200  1
  O  O8  1  0.66349600  0.46346800  0.41400100  1
  O  O9  1  0.49747400  0.80100900  0.33082200  1
  O  O10  1  0.83948700  0.05320700  0.58032300  1
  O  O11  1  0.10813700  0.69282500  0.36810600  1
  O  O12  1  0.88727700  0.31923600  0.65162200  1
  O  O13  1  0.17612400  0.95931000  0.41197200  1
  O  O14  1  0.49377400  0.19179000  0.65985200  1
  O  O15  1  0.30750900  0.53388000  0.56823300  1
  O  O16  1  0.39392600  0.79882600  0.64679900  1
  O  O17  1  0.92945600  0.21346800  0.91299000  1
  O  O18  1  0.75187600  0.56757400  0.84063900  1
  O  O19  1  0.25246800  0.05026200  0.83599200  1
  O  O20  1  0.02579600  0.67692900  0.69096400  1
  O  O21  1  0.85664200  0.94609600  0.86810800  1
  O  O22  1  0.35456200  0.44191400  0.84859400  1
  O  O23  1  0.40979100  0.70995900  0.91289600  1
loop_
_geom_bond_atom_site_label_1
_geom_bond_atom_site_label_2
_geom_bond_distance
_geom_bond_site_symmetry_2
Li0 O2 1.954332 1_555
Li0 O0 1.968626 1_555
Li0 O4 1.997064 1_545
Li0 O7 2.060063 1_555
Li1 O11 1.918794 1_655
Li1 O1 1.976979 1_555
Li1 O9 2.019106 1_555
Li1 O8 2.038324 1_555
Li2 O7 1.965979 1_555
Li2 O13 1.979999 1_545
Li2 O3 2.002659 1_555
Li2 O2 2.029950 1_555
Li3 O12 1.945367 1_455
Li3 O14 1.985015 1_555
Li3 O15 2.031524 1_555
Li3 O22 2.081283 1_555
Li4 O22 1.965347 1_655
Li4 O17 1.994532 1_555
Li4 O18 1.997689 1_555
Li4 O12 2.019073 1_555
Li5 O21 1.914247 1_555
Li5 O16 1.974109 1_555
Li5 O19 2.012365 1_565
Li5 O23 2.039598 1_555
Mn0 O5 2.065014 1_655
Mn0 O2 2.108948 1_655
Mn0 O0 2.114542 1_555
Mn0 O17 2.180548 1_554
Mn0 O3 2.362357 1_655
Mn1 O1 2.070837 1_555
Mn1 O4 2.117795 1_555
Mn1 O6 2.166662 1_555
Mn1 O23 2.196171 1_554
Mn1 O9 2.223024 1_555
Mn2 O10 2.107126 1_565
Mn2 O9 2.118359 1_555
Mn2 O7 2.139460 1_565
Mn2 O13 2.153530 1_655
Mn2 O4 2.354237 1_555
Mn3 O11 1.991929 1_555
Mn3 O5 2.001861 1_555
Mn3 O15 2.046678 1_555
Mn3 O8 2.067575 1_555
Mn3 O3 2.115167 1_555
Mn4 O20 2.068838 1_655
Mn4 O12 2.081935 1_555
Mn4 O15 2.175434 1_555
Mn4 O8 2.198815 1_555
Mn4 O18 2.312283 1_555
Mn5 O16 2.089154 1_545
Mn5 O10 2.101731 1_455
Mn5 O14 2.125463 1_555
Mn5 O13 2.190978 1_545
Mn5 O19 2.294628 1_555
Mn6 O22 2.107296 1_555
Mn6 O19 2.108752 1_555
Mn6 O17 2.160432 1_555
Mn6 O0 2.194490 1_556
Mn6 O14 2.269566 1_555
Mn7 O6 1.955734 1_556
Mn7 O21 1.996648 1_455
Mn7 O20 2.013354 1_555
Mn7 O23 2.030098 1_555
Mn7 O18 2.142750 1_455
B0 O2 1.380840 1_665
B0 O4 1.386215 1_555
B0 O6 1.416999 1_655
B1 O1 1.355927 1_555
B1 O0 1.400275 1_555
B1 O5 1.414360 1_555
B2 O7 1.371821 1_555
B2 O3 1.393300 1_655
B2 O8 1.416326 1_555
B3 O11 1.387284 1_555
B3 O9 1.391383 1_555
B3 O13 1.392011 1_555
B4 O10 1.376848 1_555
B4 O12 1.392319 1_555
B4 O14 1.404862 1_555
B5 O16 1.350643 1_555
B5 O20 1.397336 1_555
B5 O15 1.434544 1_555
B6 O22 1.373460 1_555
B6 O18 1.389318 1_555
B6 O23 1.407477 1_555
B7 O21 1.386362 1_445
B7 O19 1.387378 1_555
B7 O17 1.406687 1_455
