# generated using pymatgen
data_Li4NbCr5O12
_symmetry_space_group_name_H-M   'P 1'
_cell_length_a   5.21654294
_cell_length_b   20.93014026
_cell_length_c   5.22015442
_cell_angle_alpha   93.28082988
_cell_angle_beta   119.97614608
_cell_angle_gamma   83.42303749
_symmetry_Int_Tables_number   1
_chemical_formula_structural   Li4NbCr5O12
_chemical_formula_sum   'Li8 Nb2 Cr10 O24'
_cell_volume   490.46234023
_cell_formula_units_Z   2
loop_
 _symmetry_equiv_pos_site_id
 _symmetry_equiv_pos_as_xyz
  1  'x, y, z'
loop_
 _atom_site_type_symbol
 _atom_site_label
 _atom_site_symmetry_multiplicity
 _atom_site_fract_x
 _atom_site_fract_y
 _atom_site_fract_z
 _atom_site_occupancy
  Li  Li0  1  0.11883900  0.35436500  0.66186700  1
  Li  Li1  1  0.11896400  0.85418700  0.66197100  1
  Li  Li2  1  0.54304500  0.14581700  0.66199400  1
  Li  Li3  1  0.54296500  0.64563300  0.66182400  1
  Li  Li4  1  0.45689400  0.35428900  0.33770500  1
  Li  Li5  1  0.45709500  0.85410700  0.33773700  1
  Li  Li6  1  0.88067200  0.14589100  0.33773300  1
  Li  Li7  1  0.88074700  0.64570700  0.33770000  1
  Nb  Nb0  1  0.00003800  0.99999000  0.00001300  1
  Nb  Nb1  1  0.99997500  0.49999300  0.00001200  1
  Cr  Cr0  1  0.83765800  0.25010200  0.67544100  1
  Cr  Cr1  1  0.83794700  0.74989700  0.67556100  1
  Cr  Cr2  1  0.33435500  0.49999300  0.66874100  1
  Cr  Cr3  1  0.33427100  0.00000200  0.66856300  1
  Cr  Cr4  1  0.66557400  0.49999600  0.33119200  1
  Cr  Cr5  1  0.49949100  0.25007700  0.99920700  1
  Cr  Cr6  1  0.49967900  0.74993200  0.99917300  1
  Cr  Cr7  1  0.16249100  0.25006600  0.32514800  1
  Cr  Cr8  1  0.16263700  0.74994800  0.32509300  1
  Cr  Cr9  1  0.66563600  0.00000700  0.33129100  1
  O  O0  1  0.15492700  0.30278300  0.00089900  1
  O  O1  1  0.15495000  0.80267900  0.00086900  1
  O  O2  1  0.84597800  0.19733100  0.00088200  1
  O  O3  1  0.84598500  0.69721200  0.00088700  1
  O  O4  1  0.30966700  0.04839700  0.99992400  1
  O  O5  1  0.31014600  0.54818900  0.99993400  1
  O  O6  1  0.68975800  0.45180000  0.99994500  1
  O  O7  1  0.69024000  0.95160100  0.99993300  1
  O  O8  1  0.97693500  0.05069200  0.33310200  1
  O  O9  1  0.97699900  0.55052500  0.33356700  1
  O  O10  1  0.35653300  0.44946100  0.33356400  1
  O  O11  1  0.35617100  0.94930500  0.33311100  1
  O  O12  1  0.64381300  0.05068900  0.66678800  1
  O  O13  1  0.64341400  0.55051300  0.66634900  1
  O  O14  1  0.02288400  0.44947700  0.66633400  1
  O  O15  1  0.02297800  0.94931900  0.66677600  1
  O  O16  1  0.19063000  0.19820500  0.65516100  1
  O  O17  1  0.19079300  0.69807300  0.65507900  1
  O  O18  1  0.46432100  0.30193800  0.65511300  1
  O  O19  1  0.46453800  0.80179700  0.65512100  1
  O  O20  1  0.53465000  0.19829800  0.34467000  1
  O  O21  1  0.53480700  0.69817400  0.34467600  1
  O  O22  1  0.80987100  0.30184100  0.34467100  1
  O  O23  1  0.81003500  0.80170600  0.34467900  1
loop_
_geom_bond_atom_site_label_1
_geom_bond_atom_site_label_2
_geom_bond_distance
_geom_bond_site_symmetry_2
Li0 O14 1.998024 1_555
Li0 O18 2.014789 1_555
Li0 O22 2.019576 1_455
Li0 O0 2.042649 1_556
Li1 O15 1.998594 1_555
Li1 O19 2.015068 1_555
Li1 O23 2.019150 1_455
Li1 O1 2.041389 1_556
Li2 O12 1.998499 1_555
Li2 O16 2.015047 1_555
Li2 O20 2.019197 1_555
Li2 O2 2.041497 1_556
Li3 O13 1.998188 1_555
Li3 O17 2.014648 1_555
Li3 O21 2.019722 1_555
Li3 O3 2.042862 1_556
Li4 O10 1.999300 1_555
Li4 O22 2.017784 1_555
Li4 O18 2.020247 1_555
Li4 O0 2.034502 1_555
Li5 O11 2.000087 1_555
Li5 O23 2.017240 1_555
Li5 O19 2.019601 1_555
Li5 O1 2.034092 1_555
Li6 O8 2.000083 1_555
Li6 O20 2.017388 1_555
Li6 O16 2.019797 1_655
Li6 O2 2.034205 1_555
Li7 O9 1.999523 1_555
Li7 O21 2.017670 1_555
Li7 O17 2.020544 1_655
Li7 O3 2.034667 1_555
Nb0 O4 2.002755 1_564
Nb0 O7 2.002911 1_454
Nb0 O11 2.032707 1_555
Nb0 O15 2.032953 1_554
Nb0 O8 2.032958 1_465
Nb0 O12 2.033332 1_464
Nb1 O6 2.002382 1_554
Nb1 O5 2.002539 1_654
Nb1 O9 2.033100 1_555
Nb1 O10 2.033180 1_655
Nb1 O13 2.033319 1_554
Nb1 O14 2.033345 1_654
Cr0 O22 2.025597 1_555
Cr0 O20 2.026453 1_555
Cr0 O0 2.057954 1_656
Cr0 O2 2.058646 1_556
Cr0 O18 2.074573 1_555
Cr0 O16 2.074823 1_655
Cr1 O21 2.026020 1_555
Cr1 O23 2.026664 1_555
Cr1 O3 2.057759 1_556
Cr1 O1 2.058247 1_656
Cr1 O17 2.074113 1_655
Cr1 O19 2.075227 1_555
Cr2 O5 2.002978 1_555
Cr2 O6 2.003003 1_555
Cr2 O13 2.032148 1_555
Cr2 O14 2.032153 1_555
Cr2 O10 2.038576 1_555
Cr2 O9 2.038598 1_455
Cr3 O4 2.006501 1_555
Cr3 O7 2.006613 1_545
Cr3 O15 2.034869 1_545
Cr3 O12 2.035053 1_555
Cr3 O8 2.040733 1_455
Cr3 O11 2.040790 1_545
Cr4 O6 2.003165 1_554
Cr4 O5 2.003181 1_554
Cr4 O9 2.032185 1_555
Cr4 O10 2.032215 1_555
Cr4 O14 2.038298 1_655
Cr4 O13 2.038301 1_555
Cr5 O0 2.002074 1_556
Cr5 O2 2.003495 1_556
Cr5 O16 2.070297 1_555
Cr5 O18 2.070395 1_555
Cr5 O20 2.075555 1_556
Cr5 O22 2.075559 1_556
Cr6 O3 2.002377 1_556
Cr6 O1 2.003188 1_556
Cr6 O17 2.070308 1_555
Cr6 O19 2.070317 1_555
Cr6 O21 2.075553 1_556
Cr6 O23 2.075724 1_556
Cr7 O18 2.022906 1_555
Cr7 O16 2.022960 1_555
Cr7 O2 2.054382 1_455
Cr7 O0 2.054517 1_555
Cr7 O22 2.070354 1_455
Cr7 O20 2.070369 1_555
Cr8 O19 2.022924 1_555
Cr8 O17 2.022973 1_555
Cr8 O1 2.054286 1_555
Cr8 O3 2.054601 1_455
Cr8 O23 2.070278 1_455
Cr8 O21 2.070347 1_555
Cr9 O4 2.006503 1_554
Cr9 O7 2.006591 1_544
Cr9 O8 2.034868 1_555
Cr9 O11 2.035003 1_545
Cr9 O12 2.040675 1_555
Cr9 O15 2.040781 1_645
