# generated using pymatgen
data_Li4Co3Sn3(SbO8)2
_symmetry_space_group_name_H-M   'P 1'
_cell_length_a   6.18750109
_cell_length_b   6.18750109
_cell_length_c   9.86566328
_cell_angle_alpha   89.51784324
_cell_angle_beta   89.51784324
_cell_angle_gamma   59.89606372
_symmetry_Int_Tables_number   1
_chemical_formula_structural   Li4Co3Sn3(SbO8)2
_chemical_formula_sum   'Li4 Co3 Sn3 Sb2 O16'
_cell_volume   326.74670046
_cell_formula_units_Z   1
loop_
 _symmetry_equiv_pos_site_id
 _symmetry_equiv_pos_as_xyz
  1  'x, y, z'
loop_
 _atom_site_type_symbol
 _atom_site_label
 _atom_site_symmetry_multiplicity
 _atom_site_fract_x
 _atom_site_fract_y
 _atom_site_fract_z
 _atom_site_occupancy
  Li  Li0  1  0.66671800  0.66671800  0.10282200  1
  Li  Li1  1  0.98268500  0.98268500  0.02156300  1
  Li  Li2  1  0.99025700  0.99025700  0.50168800  1
  Li  Li3  1  0.33136000  0.33136000  0.58894800  1
  Co  Co0  1  0.82944300  0.82944300  0.78634700  1
  Co  Co1  1  0.17604600  0.65859300  0.28799200  1
  Co  Co2  1  0.65859300  0.17604600  0.28799200  1
  Sn  Sn0  1  0.33954100  0.83210300  0.78659300  1
  Sn  Sn1  1  0.83210300  0.33954100  0.78659300  1
  Sn  Sn2  1  0.17142900  0.17142900  0.28720700  1
  Sb  Sb0  1  0.67354000  0.67354000  0.50690100  1
  Sb  Sb1  1  0.34216700  0.34216700  0.02131600  1
  O  O0  1  0.34191600  0.83355400  0.41189800  1
  O  O1  1  0.51846700  0.51846700  0.65315500  1
  O  O2  1  0.66371000  0.66371000  0.89696100  1
  O  O3  1  0.00087100  0.00087100  0.69198400  1
  O  O4  1  0.00274100  0.00274100  0.20395900  1
  O  O5  1  0.83355400  0.34191600  0.41189800  1
  O  O6  1  0.51635800  0.95974700  0.65262200  1
  O  O7  1  0.95974700  0.51635800  0.65262200  1
  O  O8  1  0.16788900  0.16788900  0.90422500  1
  O  O9  1  0.83286700  0.83286700  0.40936900  1
  O  O10  1  0.03824000  0.47764100  0.14377200  1
  O  O11  1  0.47764100  0.03824000  0.14377200  1
  O  O12  1  0.33105500  0.33105500  0.39184200  1
  O  O13  1  0.17055800  0.66538000  0.90519200  1
  O  O14  1  0.48455000  0.48455000  0.14775400  1
  O  O15  1  0.66538000  0.17055800  0.90519200  1
loop_
_geom_bond_atom_site_label_1
_geom_bond_atom_site_label_2
_geom_bond_distance
_geom_bond_site_symmetry_2
Li0 O14 1.998793 1_555
Li0 O11 2.031306 1_565
Li0 O10 2.031306 1_655
Li0 O2 2.031525 1_554
Li1 O4 1.814335 1_665
Li1 O15 2.061568 1_564
Li1 O13 2.061568 1_654
Li1 O8 2.288919 1_664
Li2 O3 1.881946 1_665
Li2 O9 1.925494 1_555
Li2 O0 2.079658 1_655
Li2 O5 2.079658 1_565
Li3 O12 1.944616 1_555
Li3 O6 2.083134 1_545
Li3 O7 2.083134 1_455
Li3 O1 2.109769 1_555
Co0 O3 2.052387 1_665
Co0 O2 2.076370 1_555
Co0 O6 2.145152 1_555
Co0 O7 2.145152 1_555
Co0 O15 2.175398 1_565
Co0 O13 2.175398 1_655
Co1 O4 2.016496 1_565
Co1 O12 2.026964 1_555
Co1 O14 2.153181 1_555
Co1 O9 2.188065 1_455
Co1 O0 2.208514 1_555
Co1 O10 2.238303 1_555
Co2 O4 2.016496 1_655
Co2 O12 2.026964 1_555
Co2 O14 2.153181 1_555
Co2 O9 2.188065 1_545
Co2 O5 2.208514 1_555
Co2 O11 2.238303 1_555
O0 Sb0 2.011945 1_555
O0 Sn2 2.182425 1_565
O1 Sn0 2.141961 1_555
O1 Sn1 2.141961 1_555
O1 Sb0 2.190943 1_555
O2 Sn0 2.053202 1_555
O2 Sn1 2.053202 1_555
O3 Sn1 2.043101 1_455
O3 Sn0 2.043101 1_545
O4 Sn2 1.993763 1_555
O5 Sb0 2.011945 1_555
O5 Sn2 2.182425 1_655
O6 Sn0 2.095841 1_555
O6 Sb0 2.107219 1_555
O7 Sn1 2.095841 1_555
O7 Sb0 2.107219 1_555
O8 Sn1 2.144249 1_455
O8 Sn0 2.144249 1_545
O8 Sb1 2.206470 1_556
O9 Sb0 1.952589 1_555
O10 Sb1 2.023893 1_555
O10 Sn2 2.163243 1_555
O11 Sb1 2.023893 1_555
O11 Sn2 2.163243 1_555
O12 Sn2 2.007383 1_555
O13 Sb1 2.071523 1_556
O13 Sn0 2.137189 1_555
O14 Sb1 1.980878 1_555
O15 Sb1 2.071523 1_556
O15 Sn1 2.137189 1_555
