# generated using pymatgen
data_Na2NiO3
_symmetry_space_group_name_H-M   'P 1'
_cell_length_a   5.24138219
_cell_length_b   5.24138219
_cell_length_c   5.62082515
_cell_angle_alpha   80.77633949
_cell_angle_beta   99.22366051
_cell_angle_gamma   59.99480182
_symmetry_Int_Tables_number   1
_chemical_formula_structural   Na2NiO3
_chemical_formula_sum   'Na4 Ni2 O6'
_cell_volume   126.66236507
_cell_formula_units_Z   2
loop_
 _symmetry_equiv_pos_site_id
 _symmetry_equiv_pos_as_xyz
  1  'x, y, z'
loop_
 _atom_site_type_symbol
 _atom_site_label
 _atom_site_symmetry_multiplicity
 _atom_site_fract_x
 _atom_site_fract_y
 _atom_site_fract_z
 _atom_site_occupancy
  Na  Na0  1  0.15739300  0.15739300  0.50000000  1
  Na  Na1  1  0.84260700  0.84260700  0.50000000  1
  Na  Na2  1  0.50000000  0.50000000  0.50000000  1
  Na  Na3  1  0.00000000  0.00000000  0.00000000  1
  Ni  Ni0  1  0.66693000  0.66693000  0.00000000  1
  Ni  Ni1  1  0.33307000  0.33307000  0.00000000  1
  O  O0  1  0.30820300  0.69179700  0.80125900  1
  O  O1  1  0.06703400  0.55503500  0.19766900  1
  O  O2  1  0.44496500  0.93296600  0.19766900  1
  O  O3  1  0.93296600  0.44496500  0.80233100  1
  O  O4  1  0.55503500  0.06703400  0.80233100  1
  O  O5  1  0.69179700  0.30820300  0.19874100  1
loop_
_geom_bond_atom_site_label_1
_geom_bond_atom_site_label_2
_geom_bond_distance
_geom_bond_site_symmetry_2
Na0 O1 2.252841 1_555
Na0 O4 2.252841 1_555
Na0 O5 2.400923 1_455
Na0 O0 2.400923 1_545
Na0 O2 2.496400 1_545
Na0 O3 2.496400 1_455
Na1 O3 2.252841 1_555
Na1 O2 2.252841 1_555
Na1 O5 2.400923 1_565
Na1 O0 2.400923 1_655
Na1 O4 2.496400 1_565
Na1 O1 2.496400 1_655
Na2 O5 2.229169 1_555
Na2 O0 2.229169 1_555
Na2 O1 2.464298 1_555
Na2 O4 2.464298 1_555
Na2 O2 2.464298 1_555
Na2 O3 2.464298 1_555
Na3 O0 2.239202 1_544
Na3 O5 2.239202 1_455
Na3 O3 2.240939 1_454
Na3 O2 2.240939 1_545
Na3 O1 2.240939 1_545
Na3 O4 2.240939 1_454
Ni0 O1 1.946867 1_655
Ni0 O4 1.946867 1_564
Ni0 O2 1.954700 1_555
Ni0 O3 1.954700 1_554
Ni0 O5 1.958318 1_555
Ni0 O0 1.958318 1_554
Ni1 O3 1.946867 1_454
Ni1 O2 1.946867 1_545
Ni1 O4 1.954700 1_554
Ni1 O1 1.954700 1_555
Ni1 O5 1.958318 1_555
Ni1 O0 1.958318 1_554
