# generated using pymatgen
data_Na2MnPCO7
_symmetry_space_group_name_H-M   'P 1'
_cell_length_a   5.17724000
_cell_length_b   8.92107815
_cell_length_c   13.42919602
_cell_angle_alpha   90.55834154
_cell_angle_beta   90.25527458
_cell_angle_gamma   91.34232616
_symmetry_Int_Tables_number   1
_chemical_formula_structural   Na2MnPCO7
_chemical_formula_sum   'Na8 Mn4 P4 C4 O28'
_cell_volume   620.04194528
_cell_formula_units_Z   4
loop_
 _symmetry_equiv_pos_site_id
 _symmetry_equiv_pos_as_xyz
  1  'x, y, z'
loop_
 _atom_site_type_symbol
 _atom_site_label
 _atom_site_symmetry_multiplicity
 _atom_site_fract_x
 _atom_site_fract_y
 _atom_site_fract_z
 _atom_site_occupancy
  Na  Na0  1  0.24313300  0.74950700  0.99434900  1
  Na  Na1  1  0.24553000  0.75969100  0.75465700  1
  Na  Na2  1  0.24635400  0.75527000  0.49447900  1
  Na  Na3  1  0.24804900  0.74484100  0.25829200  1
  Na  Na4  1  0.75524300  0.24181500  0.74578500  1
  Na  Na5  1  0.75535300  0.23858500  0.49882800  1
  Na  Na6  1  0.75510800  0.25524100  0.00576200  1
  Na  Na7  1  0.23023800  0.08580400  0.13875100  1
  Mn  Mn0  1  0.78369500  0.64819000  0.62426500  1
  Mn  Mn1  1  0.77716000  0.64546900  0.12568800  1
  Mn  Mn2  1  0.22331400  0.35424500  0.87424600  1
  Mn  Mn3  1  0.20820000  0.34398000  0.36942100  1
  P  P0  1  0.70659600  0.57991400  0.87781000  1
  P  P1  1  0.70907100  0.57539900  0.37244600  1
  P  P2  1  0.28937400  0.42107900  0.62577300  1
  P  P3  1  0.30193500  0.42113700  0.12272800  1
  C  C0  1  0.73033900  0.92497100  0.62481100  1
  C  C1  1  0.72145400  0.93268100  0.12359300  1
  C  C2  1  0.26614400  0.07115800  0.37681300  1
  C  C3  1  0.27632500  0.07260600  0.87518100  1
  O  O0  1  0.27069700  0.93218200  0.87862800  1
  O  O1  1  0.28650100  0.93140700  0.37492800  1
  O  O2  1  0.95099500  0.85281700  0.62516600  1
  O  O3  1  0.93741900  0.85417400  0.12726500  1
  O  O4  1  0.50745900  0.85405600  0.12633600  1
  O  O5  1  0.53035500  0.83215300  0.62557100  1
  O  O6  1  0.77818800  0.67026200  0.97415400  1
  O  O7  1  0.78218700  0.67329500  0.78668100  1
  O  O8  1  0.77777900  0.67532500  0.46350800  1
  O  O9  1  0.77794400  0.66471300  0.27635100  1
  O  O10  1  0.40214600  0.55206600  0.87736800  1
  O  O11  1  0.40858000  0.54199500  0.37199400  1
  O  O12  1  0.15593900  0.57657600  0.62613800  1
  O  O13  1  0.16853200  0.57406600  0.12377500  1
  O  O14  1  0.83422900  0.42491200  0.87680600  1
  O  O15  1  0.85228700  0.42565800  0.37657700  1
  O  O16  1  0.59195500  0.45432400  0.62579400  1
  O  O17  1  0.60244700  0.45358400  0.11732200  1
  O  O18  1  0.22132800  0.33315500  0.72121900  1
  O  O19  1  0.21410500  0.32729900  0.53417800  1
  O  O20  1  0.23663900  0.32352400  0.21240300  1
  O  O21  1  0.22867600  0.32424000  0.02880200  1
  O  O22  1  0.48293100  0.15747200  0.87431600  1
  O  O23  1  0.46053100  0.16725600  0.37732600  1
  O  O24  1  0.05875000  0.14969500  0.87392900  1
  O  O25  1  0.04191100  0.13776100  0.37402900  1
  O  O26  1  0.71983900  0.06434300  0.62383800  1
  O  O27  1  0.73418300  0.07338100  0.11797000  1
loop_
_geom_bond_atom_site_label_1
_geom_bond_atom_site_label_2
_geom_bond_distance
_geom_bond_site_symmetry_2
Na0 O0 2.265310 1_555
Na0 O13 2.377058 1_556
Na0 O4 2.402227 1_556
Na0 O10 2.504730 1_555
Na0 O6 2.505660 1_455
Na0 O3 2.573905 1_456
Na0 O6 2.888172 1_555
Na1 O0 2.257278 1_555
Na1 O5 2.365883 1_555
Na1 O12 2.401022 1_555
Na1 O2 2.470490 1_455
Na1 O7 2.542135 1_455
Na1 O10 2.630932 1_555
Na1 O7 2.931665 1_555
Na2 O1 2.264215 1_555
Na2 O5 2.374386 1_555
Na2 O12 2.431839 1_555
Na2 O2 2.496431 1_455
Na2 O8 2.543799 1_455
Na2 O11 2.656549 1_555
Na2 O8 2.889241 1_555
Na3 O1 2.279042 1_555
Na3 O13 2.379948 1_555
Na3 O4 2.426267 1_555
Na3 O11 2.531782 1_555
Na3 O9 2.533876 1_455
Na3 O3 2.591436 1_455
Na3 O9 2.861002 1_555
Na4 O26 2.270539 1_555
Na4 O22 2.351672 1_555
Na4 O14 2.416079 1_555
Na4 O24 2.483910 1_655
Na4 O18 2.552599 1_655
Na4 O16 2.651001 1_555
Na4 O18 2.918269 1_555
Na5 O26 2.304036 1_555
Na5 O23 2.304155 1_555
Na5 O15 2.398717 1_555
Na5 O25 2.423662 1_655
Na5 O19 2.527297 1_655
Na5 O16 2.711492 1_555
Na6 O27 2.226068 1_555
Na6 O14 2.342292 1_554
Na6 O22 2.398458 1_554
Na6 O17 2.454478 1_555
Na6 O21 2.530741 1_655
Na6 O24 2.560052 1_654
Na6 O21 2.825808 1_555
Na7 O20 2.330745 1_555
Na7 O3 2.537111 1_445
Na7 O4 2.548816 1_545
Na7 O27 2.581757 1_455
Na7 O21 2.601286 1_555
Na7 O27 2.629963 1_555
Mn0 O16 1.974191 1_555
Mn0 O2 2.002046 1_555
Mn0 O12 2.044614 1_655
Mn0 O5 2.124728 1_555
Mn0 O8 2.174870 1_555
Mn0 O7 2.190480 1_555
Mn1 O17 1.919357 1_555
Mn1 O3 2.020426 1_555
Mn1 O9 2.028864 1_555
Mn1 O6 2.049123 1_554
Mn1 O13 2.138371 1_655
Mn1 O4 2.352431 1_555
Mn2 O10 1.973592 1_555
Mn2 O24 1.995694 1_555
Mn2 O18 2.061756 1_555
Mn2 O21 2.095482 1_556
Mn2 O14 2.125103 1_455
Mn2 O22 2.235776 1_555
Mn3 O15 1.999660 1_455
Mn3 O25 2.014442 1_555
Mn3 O11 2.027462 1_555
Mn3 O23 2.074122 1_555
Mn3 O20 2.120804 1_555
Mn3 O19 2.219122 1_555
C0 O26 1.246001 1_565
C0 O5 1.310657 1_555
C0 O2 1.324340 1_555
C1 O27 1.258403 1_565
C1 O4 1.298174 1_555
C1 O3 1.334155 1_555
C2 O1 1.253654 1_545
C2 O23 1.306608 1_555
C2 O25 1.317007 1_555
C3 O0 1.253701 1_545
C3 O22 1.296078 1_555
C3 O24 1.333586 1_555
O6 P0 1.556407 1_555
O7 P0 1.534167 1_555
O8 P1 1.541653 1_555
O9 P1 1.561461 1_555
O10 P0 1.589886 1_555
O11 P1 1.577101 1_555
O12 P2 1.564093 1_555
O13 P3 1.543489 1_555
O14 P0 1.546428 1_555
O15 P1 1.544289 1_555
O16 P2 1.587519 1_555
O17 P3 1.577961 1_555
O18 P2 1.546914 1_555
O19 P2 1.524861 1_555
O20 P3 1.527455 1_555
O21 P3 1.562439 1_555
