# generated using pymatgen
data_Li2FeSiO4
_symmetry_space_group_name_H-M   'P 1'
_cell_length_a   11.03734200
_cell_length_b   5.13230200
_cell_length_c   6.23237968
_cell_angle_alpha   88.69292008
_cell_angle_beta   90.00000000
_cell_angle_gamma   90.00000000
_symmetry_Int_Tables_number   1
_chemical_formula_structural   Li2FeSiO4
_chemical_formula_sum   'Li8 Fe4 Si4 O16'
_cell_volume   352.95357659
_cell_formula_units_Z   4
loop_
 _symmetry_equiv_pos_site_id
 _symmetry_equiv_pos_as_xyz
  1  'x, y, z'
loop_
 _atom_site_type_symbol
 _atom_site_label
 _atom_site_symmetry_multiplicity
 _atom_site_fract_x
 _atom_site_fract_y
 _atom_site_fract_z
 _atom_site_occupancy
  Li  Li0  1  0.65669000  0.94211200  0.25172100  1
  Li  Li1  1  0.92684300  0.04815700  0.98902800  1
  Li  Li2  1  0.42684300  0.95184300  0.01097200  1
  Li  Li3  1  0.15669000  0.05788800  0.74827900  1
  Li  Li4  1  0.56989300  0.54630500  0.49846700  1
  Li  Li5  1  0.33940700  0.55831500  0.25679200  1
  Li  Li6  1  0.83940700  0.44168500  0.74320800  1
  Li  Li7  1  0.06989300  0.45369500  0.50153300  1
  Fe  Fe0  1  0.33084600  0.55105300  0.75642900  1
  Fe  Fe1  1  0.83084600  0.44894700  0.24357100  1
  Fe  Fe2  1  0.16673800  0.05134400  0.24691200  1
  Fe  Fe3  1  0.66673800  0.94865600  0.75308800  1
  Si  Si0  1  0.40914500  0.05607100  0.50669200  1
  Si  Si1  1  0.90914500  0.94392900  0.49330800  1
  Si  Si2  1  0.08738800  0.55729400  0.99709000  1
  Si  Si3  1  0.58738800  0.44270600  0.00291000  1
  O  O0  1  0.58417200  0.11996700  0.00475900  1
  O  O1  1  0.83282300  0.04045100  0.27657600  1
  O  O2  1  0.84055100  0.04540100  0.71320000  1
  O  O3  1  0.54784500  0.93823100  0.50636900  1
  O  O4  1  0.04784500  0.06176900  0.49363100  1
  O  O5  1  0.34055100  0.95459900  0.28680000  1
  O  O6  1  0.33282300  0.95954900  0.72342400  1
  O  O7  1  0.08417200  0.88003300  0.99524100  1
  O  O8  1  0.91225500  0.62136100  0.49692000  1
  O  O9  1  0.66412400  0.53909000  0.78558300  1
  O  O10  1  0.44870900  0.56013700  0.00276100  1
  O  O11  1  0.15577900  0.45570600  0.77712500  1
  O  O12  1  0.65577900  0.54429400  0.22287500  1
  O  O13  1  0.94870900  0.43986300  0.99723900  1
  O  O14  1  0.16412400  0.46091000  0.21441700  1
  O  O15  1  0.41225500  0.37863900  0.50308000  1
loop_
_geom_bond_atom_site_label_1
_geom_bond_atom_site_label_2
_geom_bond_distance
_geom_bond_site_symmetry_2
Li0 O0 1.943909 1_565
Li0 O3 1.990223 1_555
Li0 O1 2.015337 1_565
Li0 O12 2.053728 1_555
Li1 O7 1.939051 1_645
Li1 O2 1.965610 1_555
Li1 O13 2.026593 1_555
Li1 O1 2.070475 1_556
Li2 O0 1.939051 1_565
Li2 O5 1.965610 1_555
Li2 O10 2.026593 1_555
Li2 O6 2.070475 1_554
Li3 O7 1.943909 1_545
Li3 O4 1.990223 1_555
Li3 O6 2.015337 1_545
Li3 O11 2.053728 1_555
Li4 O15 1.940991 1_555
Li4 O12 1.962055 1_555
Li4 O3 2.027863 1_555
Li4 O9 2.069319 1_555
Li5 O15 1.946377 1_555
Li5 O10 1.990327 1_555
Li5 O14 2.017074 1_555
Li5 O5 2.046713 1_555
Li6 O8 1.946377 1_555
Li6 O13 1.990327 1_555
Li6 O9 2.017074 1_555
Li6 O2 2.046713 1_555
Li7 O8 1.940991 1_455
Li7 O11 1.962055 1_555
Li7 O4 2.027863 1_555
Li7 O14 2.069319 1_555
Fe0 O11 1.996724 1_555
Fe0 O10 2.013631 1_556
Fe0 O15 2.036484 1_555
Fe0 O6 2.102030 1_555
Fe1 O12 1.996724 1_555
Fe1 O13 2.013631 1_554
Fe1 O8 2.036484 1_555
Fe1 O1 2.102030 1_555
Fe2 O5 1.995769 1_545
Fe2 O4 2.023118 1_555
Fe2 O7 2.031415 1_544
Fe2 O14 2.107344 1_555
Fe3 O2 1.995769 1_565
Fe3 O3 2.023118 1_555
Fe3 O0 2.031415 1_566
Fe3 O9 2.107344 1_555
O0 Si3 1.656552 1_555
O1 Si1 1.658023 1_545
O2 Si1 1.659851 1_545
O3 Si0 1.646032 1_565
O4 Si1 1.646032 1_445
O5 Si0 1.659851 1_565
O6 Si0 1.658023 1_565
O7 Si2 1.656552 1_555
O8 Si1 1.655512 1_555
O9 Si3 1.663145 1_556
O10 Si3 1.645021 1_555
O11 Si2 1.659408 1_555
O12 Si3 1.659408 1_555
O13 Si2 1.645021 1_655
O14 Si2 1.663145 1_554
O15 Si0 1.655512 1_555
