# generated using pymatgen
data_Li2NiP2O7
_symmetry_space_group_name_H-M   'P 1'
_cell_length_a   5.21815184
_cell_length_b   6.54812578
_cell_length_c   8.70199128
_cell_angle_alpha   111.11169906
_cell_angle_beta   97.34200875
_cell_angle_gamma   104.52989958
_symmetry_Int_Tables_number   1
_chemical_formula_structural   Li2NiP2O7
_chemical_formula_sum   'Li4 Ni2 P4 O14'
_cell_volume   260.55732530
_cell_formula_units_Z   2
loop_
 _symmetry_equiv_pos_site_id
 _symmetry_equiv_pos_as_xyz
  1  'x, y, z'
loop_
 _atom_site_type_symbol
 _atom_site_label
 _atom_site_symmetry_multiplicity
 _atom_site_fract_x
 _atom_site_fract_y
 _atom_site_fract_z
 _atom_site_occupancy
  Li  Li0  1  0.18750800  0.71241400  0.03359300  1
  Li  Li1  1  0.32090200  0.20738500  0.72422000  1
  Li  Li2  1  0.67897700  0.79228200  0.27567800  1
  Li  Li3  1  0.81244000  0.28868700  0.96698100  1
  Ni  Ni0  1  0.09360800  0.59846900  0.36878600  1
  Ni  Ni1  1  0.90692700  0.40162900  0.63119000  1
  P  P0  1  0.23480800  0.14444900  0.37481900  1
  P  P1  1  0.59623100  0.68381100  0.88456800  1
  P  P2  1  0.40359900  0.31606100  0.11536400  1
  P  P3  1  0.76522500  0.85549200  0.62517200  1
  O  O0  1  0.07690100  0.89093000  0.32929900  1
  O  O1  1  0.05023100  0.29954100  0.41151300  1
  O  O2  1  0.30662000  0.52852400  0.78521100  1
  O  O3  1  0.19646900  0.45355700  0.13259900  1
  O  O4  1  0.39918100  0.17536300  0.93358400  1
  O  O5  1  0.50651700  0.76407500  0.48590800  1
  O  O6  1  0.69895100  0.87220800  0.80593700  1
  O  O7  1  0.30071400  0.12760400  0.19392800  1
  O  O8  1  0.49364600  0.23574800  0.51395000  1
  O  O9  1  0.60049600  0.82453800  0.06635500  1
  O  O10  1  0.80363700  0.54656200  0.86752000  1
  O  O11  1  0.69341700  0.47116900  0.21465700  1
  O  O12  1  0.94997700  0.70051700  0.58853600  1
  O  O13  1  0.92301900  0.10898600  0.67063100  1
loop_
_geom_bond_atom_site_label_1
_geom_bond_atom_site_label_2
_geom_bond_distance
_geom_bond_site_symmetry_2
Li0 O9 2.040287 1_555
Li0 O10 2.078055 1_454
Li0 O3 2.167729 1_555
Li0 O2 2.313440 1_554
Li0 O7 2.436800 1_565
Li0 O0 2.621512 1_555
Li1 O4 1.912603 1_555
Li1 O13 1.951443 1_455
Li1 O2 1.998501 1_555
Li1 O8 2.185733 1_555
Li2 O9 1.913161 1_555
Li2 O0 1.951605 1_655
Li2 O11 1.998585 1_555
Li2 O5 2.184385 1_555
Li3 O4 2.041301 1_555
Li3 O3 2.076963 1_656
Li3 O10 2.164293 1_555
Li3 O11 2.306089 1_556
Li3 O6 2.444662 1_545
Li3 O13 2.627354 1_555
Ni0 O5 2.080212 1_555
Ni0 O0 2.084065 1_555
Ni0 O1 2.084332 1_555
Ni0 O12 2.088565 1_455
Ni0 O11 2.111844 1_455
Ni0 O3 2.131980 1_555
Ni1 O8 2.082175 1_555
Ni1 O12 2.083918 1_555
Ni1 O13 2.084243 1_555
Ni1 O1 2.087099 1_655
Ni1 O2 2.109617 1_655
Ni1 O10 2.134132 1_555
O0 P0 1.532390 1_565
O1 P0 1.548156 1_555
O2 P1 1.525448 1_555
O3 P2 1.560049 1_555
O4 P2 1.510547 1_556
O5 P3 1.517631 1_555
O6 P3 1.624793 1_555
O6 P1 1.627086 1_555
O7 P0 1.624987 1_555
O7 P2 1.627149 1_555
O8 P0 1.517560 1_555
O9 P1 1.510858 1_554
O10 P1 1.560154 1_555
O11 P2 1.525898 1_555
O12 P3 1.548308 1_555
O13 P3 1.532219 1_545
