# generated using pymatgen
data_Co6O5F7
_symmetry_space_group_name_H-M   'P 1'
_cell_length_a   5.53384750
_cell_length_b   5.53384750
_cell_length_c   6.94481470
_cell_angle_alpha   74.07379580
_cell_angle_beta   74.07379580
_cell_angle_gamma   76.18430630
_symmetry_Int_Tables_number   1
_chemical_formula_structural   Co6O5F7
_chemical_formula_sum   'Co6 O5 F7'
_cell_volume   193.56235413
_cell_formula_units_Z   1
loop_
 _symmetry_equiv_pos_site_id
 _symmetry_equiv_pos_as_xyz
  1  'x, y, z'
loop_
 _atom_site_type_symbol
 _atom_site_label
 _atom_site_symmetry_multiplicity
 _atom_site_fract_x
 _atom_site_fract_y
 _atom_site_fract_z
 _atom_site_occupancy
  Co  Co0  1  0.33419000  0.66581000  0.00000000  1
  Co  Co1  1  0.29668200  0.70331800  0.50000000  1
  Co  Co2  1  0.00780200  0.33022000  0.84431700  1
  Co  Co3  1  0.98968900  0.30843900  0.33231600  1
  Co  Co4  1  0.69156100  0.01031100  0.66768400  1
  Co  Co5  1  0.66978000  0.99219800  0.15568300  1
  O  O0  1  0.22689200  0.57150700  0.80447300  1
  O  O1  1  0.89805500  0.21862200  0.13291900  1
  O  O2  1  0.42849300  0.77310800  0.19552700  1
  O  O3  1  0.78137800  0.10194500  0.86708100  1
  O  O4  1  0.01373800  0.98626200  0.50000000  1
  F  F0  1  0.64242500  0.35757500  0.50000000  1
  F  F1  1  0.33224500  0.03338200  0.81978600  1
  F  F2  1  0.57911000  0.90814000  0.46394200  1
  F  F3  1  0.09186000  0.42089000  0.53605800  1
  F  F4  1  0.70496300  0.65548000  0.82251500  1
  F  F5  1  0.34452000  0.29503700  0.17748500  1
  F  F6  1  0.96661800  0.66775500  0.18021400  1
loop_
_geom_bond_atom_site_label_1
_geom_bond_atom_site_label_2
_geom_bond_distance
_geom_bond_site_symmetry_2
Co0 O2 1.856922 1_555
Co0 O0 1.856922 1_554
Co0 F6 2.074569 1_455
Co0 F1 2.074569 1_564
Co0 F4 2.080186 1_554
Co0 F5 2.080186 1_555
Co1 O4 1.931934 1_555
Co1 O0 1.998070 1_555
Co1 O2 1.998070 1_555
Co1 F2 2.065340 1_555
Co1 F3 2.065340 1_555
Co1 F0 2.360724 1_555
Co2 O1 1.897159 1_456
Co2 O0 1.927609 1_555
Co2 O3 1.930910 1_455
Co2 F3 2.006648 1_555
Co2 F1 2.127916 1_555
Co2 F4 2.149480 1_455
Co3 O1 1.818035 1_555
Co3 O4 1.839786 1_645
Co3 F3 1.949180 1_655
Co3 F0 1.954250 1_555
Co3 F5 1.957767 1_655
Co3 F6 1.971275 1_555
Co4 O3 1.818035 1_555
Co4 O4 1.839786 1_645
Co4 F2 1.949180 1_545
Co4 F0 1.954250 1_555
Co4 F4 1.957767 1_545
Co4 F1 1.971275 1_555
Co5 O3 1.897159 1_564
Co5 O2 1.927609 1_555
Co5 O1 1.930910 1_565
Co5 F2 2.006648 1_555
Co5 F6 2.127916 1_555
Co5 F5 2.149480 1_565
