# generated using pymatgen
data_LiCoCSO7
_symmetry_space_group_name_H-M   'P 1'
_cell_length_a   6.46534300
_cell_length_b   5.13256500
_cell_length_c   8.82199292
_cell_angle_alpha   86.45863402
_cell_angle_beta   90.00000000
_cell_angle_gamma   90.00000000
_symmetry_Int_Tables_number   1
_chemical_formula_structural   LiCoCSO7
_chemical_formula_sum   'Li2 Co2 C2 S2 O14'
_cell_volume   292.18817710
_cell_formula_units_Z   2
loop_
 _symmetry_equiv_pos_site_id
 _symmetry_equiv_pos_as_xyz
  1  'x, y, z'
loop_
 _atom_site_type_symbol
 _atom_site_label
 _atom_site_symmetry_multiplicity
 _atom_site_fract_x
 _atom_site_fract_y
 _atom_site_fract_z
 _atom_site_occupancy
  Li  Li0  1  0.48807200  0.77923100  0.79987000  1
  Li  Li1  1  0.98807200  0.22076900  0.20013000  1
  Co  Co0  1  0.23364100  0.21629000  0.65503000  1
  Co  Co1  1  0.73364100  0.78371000  0.34497000  1
  C  C0  1  0.25910300  0.27216900  0.92972200  1
  C  C1  1  0.75910300  0.72783100  0.07027800  1
  S  S0  1  0.74801800  0.27057000  0.57470700  1
  S  S1  1  0.24801800  0.72943000  0.42529300  1
  O  O0  1  0.72182500  0.69605900  0.93395000  1
  O  O1  1  0.26703200  0.04451700  0.87076000  1
  O  O2  1  0.28474600  0.46474500  0.82540400  1
  O  O3  1  0.93319100  0.21088000  0.67105500  1
  O  O4  1  0.56773700  0.16951000  0.66336000  1
  O  O5  1  0.26515700  0.85074600  0.57348800  1
  O  O6  1  0.73362700  0.56015000  0.54456100  1
  O  O7  1  0.23362700  0.43985000  0.45543900  1
  O  O8  1  0.76515700  0.14925400  0.42651200  1
  O  O9  1  0.06773700  0.83049000  0.33664000  1
  O  O10  1  0.43319100  0.78912000  0.32894500  1
  O  O11  1  0.78474600  0.53525500  0.17459600  1
  O  O12  1  0.76703200  0.95548300  0.12924000  1
  O  O13  1  0.22182500  0.30394100  0.06605000  1
loop_
_geom_bond_atom_site_label_1
_geom_bond_atom_site_label_2
_geom_bond_distance
_geom_bond_site_symmetry_2
Li0 O0 1.950128 1_555
Li0 O2 2.083100 1_555
Li0 O1 2.095849 1_565
Li0 O4 2.330263 1_565
Li0 O5 2.471813 1_555
Li1 O13 1.950128 1_655
Li1 O11 2.083100 1_555
Li1 O12 2.095849 1_545
Li1 O9 2.330263 1_645
Li1 O8 2.471813 1_555
Co0 O3 1.947723 1_455
Co0 O7 2.041420 1_555
Co0 O2 2.056999 1_555
Co0 O1 2.058799 1_555
Co0 O5 2.060529 1_545
Co0 O4 2.174089 1_555
Co1 O10 1.947723 1_555
Co1 O6 2.041420 1_555
Co1 O11 2.056999 1_555
Co1 O12 2.058799 1_555
Co1 O8 2.060529 1_565
Co1 O9 2.174089 1_655
C0 O13 1.247141 1_556
C0 O1 1.309019 1_555
C0 O2 1.318713 1_555
C1 O0 1.247141 1_554
C1 O12 1.309019 1_555
C1 O11 1.318713 1_555
O3 S0 1.489114 1_555
O4 S0 1.479587 1_555
O5 S1 1.486534 1_555
O6 S0 1.496531 1_555
O7 S1 1.496531 1_555
O8 S0 1.486534 1_555
O9 S1 1.479587 1_555
O10 S1 1.489114 1_555
