# generated using pymatgen
data_Li(CoO2)2
_symmetry_space_group_name_H-M   'P 1'
_cell_length_a   5.70163800
_cell_length_b   5.70163800
_cell_length_c   8.09621700
_cell_angle_alpha   90.00000000
_cell_angle_beta   90.00000000
_cell_angle_gamma   90.00000000
_symmetry_Int_Tables_number   1
_chemical_formula_structural   Li(CoO2)2
_chemical_formula_sum   'Li4 Co8 O16'
_cell_volume   263.19729433
_cell_formula_units_Z   4
loop_
 _symmetry_equiv_pos_site_id
 _symmetry_equiv_pos_as_xyz
  1  'x, y, z'
loop_
 _atom_site_type_symbol
 _atom_site_label
 _atom_site_symmetry_multiplicity
 _atom_site_fract_x
 _atom_site_fract_y
 _atom_site_fract_z
 _atom_site_occupancy
  Li  Li0  1  0.50000000  0.74187700  0.00000000  1
  Li  Li1  1  0.50000000  0.25812300  0.50000000  1
  Li  Li2  1  0.74187700  0.50000000  0.25000000  1
  Li  Li3  1  0.25812300  0.50000000  0.75000000  1
  Co  Co0  1  0.74494000  0.00000000  0.25000000  1
  Co  Co1  1  0.75523700  0.75523700  0.62500000  1
  Co  Co2  1  0.75523700  0.24476300  0.87500000  1
  Co  Co3  1  0.00000000  0.74494000  0.00000000  1
  Co  Co4  1  0.00000000  0.25506000  0.50000000  1
  Co  Co5  1  0.24476300  0.75523700  0.37500000  1
  Co  Co6  1  0.24476300  0.24476300  0.12500000  1
  Co  Co7  1  0.25506000  0.00000000  0.75000000  1
  O  O0  1  0.51351000  0.76659300  0.26048100  1
  O  O1  1  0.51351000  0.23340700  0.23951900  1
  O  O2  1  0.76659300  0.51351000  0.98951900  1
  O  O3  1  0.76659300  0.48649000  0.51048100  1
  O  O4  1  0.76429100  0.98757400  0.01520900  1
  O  O5  1  0.76429100  0.01242600  0.48479100  1
  O  O6  1  0.98757400  0.76429100  0.23479100  1
  O  O7  1  0.98757400  0.23570900  0.26520900  1
  O  O8  1  0.01242600  0.76429100  0.76520900  1
  O  O9  1  0.01242600  0.23570900  0.73479100  1
  O  O10  1  0.23570900  0.01242600  0.51520900  1
  O  O11  1  0.23570900  0.98757400  0.98479100  1
  O  O12  1  0.23340700  0.51351000  0.01048100  1
  O  O13  1  0.23340700  0.48649000  0.48951900  1
  O  O14  1  0.48649000  0.76659300  0.73951900  1
  O  O15  1  0.48649000  0.23340700  0.76048100  1
loop_
_geom_bond_atom_site_label_1
_geom_bond_atom_site_label_2
_geom_bond_distance
_geom_bond_site_symmetry_2
Li0 O12 2.003254 1_555
Li0 O2 2.003254 1_554
Li0 O4 2.061149 1_555
Li0 O11 2.061149 1_554
Li0 O14 2.115017 1_554
Li0 O0 2.115017 1_555
Li1 O13 2.003254 1_555
Li1 O3 2.003254 1_555
Li1 O10 2.061149 1_555
Li1 O5 2.061149 1_555
Li1 O1 2.115017 1_555
Li1 O15 2.115017 1_555
Li2 O0 2.003254 1_555
Li2 O1 2.003254 1_555
Li2 O7 2.061149 1_555
Li2 O6 2.061149 1_555
Li2 O2 2.115017 1_554
Li2 O3 2.115017 1_555
Li3 O14 2.003254 1_555
Li3 O15 2.003254 1_555
Li3 O9 2.061149 1_555
Li3 O8 2.061149 1_555
Li3 O12 2.115017 1_556
Li3 O13 2.115017 1_555
Co0 O0 1.876005 1_545
Co0 O1 1.876005 1_555
Co0 O4 1.905436 1_545
Co0 O5 1.905436 1_555
Co0 O6 1.932648 1_545
Co0 O7 1.932648 1_555
Co1 O14 1.792143 1_555
Co1 O3 1.792143 1_555
Co1 O5 1.855151 1_565
Co1 O8 1.855151 1_655
Co2 O2 1.792143 1_555
Co2 O15 1.792143 1_555
Co2 O9 1.855151 1_655
Co2 O4 1.855151 1_546
Co3 O12 1.876005 1_555
Co3 O2 1.876005 1_454
Co3 O8 1.905436 1_554
Co3 O6 1.905436 1_455
Co3 O4 1.932648 1_455
Co3 O11 1.932648 1_554
Co4 O13 1.876005 1_555
Co4 O3 1.876005 1_455
Co4 O9 1.905436 1_555
Co4 O7 1.905436 1_455
Co4 O5 1.932648 1_455
Co4 O10 1.932648 1_555
Co5 O0 1.792143 1_555
Co5 O13 1.792143 1_555
Co5 O10 1.855151 1_565
Co5 O6 1.855151 1_455
Co6 O12 1.792143 1_555
Co6 O1 1.792143 1_555
Co6 O7 1.855151 1_455
Co6 O11 1.855151 1_544
Co7 O15 1.876005 1_555
Co7 O14 1.876005 1_545
Co7 O10 1.905436 1_555
Co7 O11 1.905436 1_545
Co7 O8 1.932648 1_545
Co7 O9 1.932648 1_555
