# generated using pymatgen
data_Co(BW)2
_symmetry_space_group_name_H-M   'P 1'
_cell_length_a   3.17056605
_cell_length_b   4.49128173
_cell_length_c   4.49128154
_cell_angle_alpha   60.77826042
_cell_angle_beta   69.33095792
_cell_angle_gamma   69.33097543
_symmetry_Int_Tables_number   1
_chemical_formula_structural   Co(BW)2
_chemical_formula_sum   'Co1 B2 W2'
_cell_volume   50.92955990
_cell_formula_units_Z   1
loop_
 _symmetry_equiv_pos_site_id
 _symmetry_equiv_pos_as_xyz
  1  'x, y, z'
loop_
 _atom_site_type_symbol
 _atom_site_label
 _atom_site_symmetry_multiplicity
 _atom_site_fract_x
 _atom_site_fract_y
 _atom_site_fract_z
 _atom_site_occupancy
  Co  Co0  1  0.00000000  -0.00000000  -0.00000000  1
  B  B0  1  0.50000000  0.70705870  0.29294130  1
  B  B1  1  0.50000000  0.29294130  0.70705870  1
  W  W0  1  0.79890349  0.70109651  0.70109651  1
  W  W1  1  0.20109651  0.29890349  0.29890349  1
loop_
_geom_bond_atom_site_label_1
_geom_bond_atom_site_label_2
_geom_bond_distance
_geom_bond_site_symmetry_2
Co0 W0 2.641785 1_544
Co0 W1 2.641785 1_455
Co0 W0 2.641785 1_444
Co0 W1 2.641785 1_555
Co0 W1 2.680192 1_554
Co0 W0 2.680192 1_445
Co0 W0 2.680192 1_454
Co0 W1 2.680192 1_545
B0 B1 1.881754 1_555
B0 Co0 2.070030 1_665
B0 Co0 2.070030 1_565
B0 W0 2.328044 1_455
B0 W1 2.328045 1_655
B0 W1 2.328045 1_555
B0 W0 2.328045 1_555
B0 W0 2.497560 1_554
B0 W1 2.497561 1_565
B1 Co0 2.070030 1_556
B1 Co0 2.070030 1_656
B1 W1 2.328044 1_655
B1 W0 2.328045 1_455
B1 W0 2.328045 1_555
B1 W1 2.328045 1_555
B1 W1 2.497560 1_556
B1 W0 2.497561 1_545
