# generated using pymatgen
data_Li3Mn4CuO8
_symmetry_space_group_name_H-M   'P 1'
_cell_length_a   5.99346200
_cell_length_b   5.99346200
_cell_length_c   6.15734625
_cell_angle_alpha   59.29034648
_cell_angle_beta   59.29034648
_cell_angle_gamma   61.78355708
_symmetry_Int_Tables_number   1
_chemical_formula_structural   Li3Mn4CuO8
_chemical_formula_sum   'Li3 Mn4 Cu1 O8'
_cell_volume   156.62861876
_cell_formula_units_Z   1
loop_
 _symmetry_equiv_pos_site_id
 _symmetry_equiv_pos_as_xyz
  1  'x, y, z'
loop_
 _atom_site_type_symbol
 _atom_site_label
 _atom_site_symmetry_multiplicity
 _atom_site_fract_x
 _atom_site_fract_y
 _atom_site_fract_z
 _atom_site_occupancy
  Li  Li0  1  0.50000000  0.00000000  0.50000000  1
  Li  Li1  1  0.00000000  0.00000000  0.50000000  1
  Li  Li2  1  0.00000000  0.50000000  0.50000000  1
  Mn  Mn0  1  0.50000000  0.50000000  0.50000000  1
  Mn  Mn1  1  0.00000000  0.00000000  0.00000000  1
  Mn  Mn2  1  0.50000000  0.00000000  0.00000000  1
  Mn  Mn3  1  0.00000000  0.50000000  0.00000000  1
  Cu  Cu0  1  0.50000000  0.50000000  0.00000000  1
  O  O0  1  0.26109900  0.26109900  0.19644800  1
  O  O1  1  0.76990300  0.25585500  0.24247200  1
  O  O2  1  0.25585500  0.76990300  0.24247200  1
  O  O3  1  0.74552100  0.74552100  0.27339100  1
  O  O4  1  0.25447900  0.25447900  0.72660900  1
  O  O5  1  0.74414500  0.23009700  0.75752800  1
  O  O6  1  0.23009700  0.74414500  0.75752800  1
  O  O7  1  0.73890100  0.73890100  0.80355300  1
loop_
_geom_bond_atom_site_label_1
_geom_bond_atom_site_label_2
_geom_bond_distance
_geom_bond_site_symmetry_2
Li0 O4 2.095887 1_555
Li0 O3 2.095887 1_545
Li0 O1 2.173681 1_555
Li0 O6 2.173681 1_545
Li0 O0 2.370592 1_555
Li0 O7 2.370597 1_545
Li1 O1 2.125558 1_455
Li1 O5 2.125558 1_455
Li1 O6 2.125558 1_545
Li1 O2 2.125558 1_545
Li1 O0 2.175323 1_555
Li1 O7 2.175324 1_445
Li2 O4 2.095887 1_555
Li2 O3 2.095887 1_455
Li2 O2 2.173681 1_555
Li2 O5 2.173681 1_455
Li2 O0 2.370592 1_555
Li2 O7 2.370597 1_455
Mn0 O4 2.032485 1_555
Mn0 O3 2.032485 1_555
Mn0 O5 2.187243 1_555
Mn0 O6 2.187243 1_555
Mn0 O1 2.187243 1_555
Mn0 O2 2.187243 1_555
Mn1 O3 2.107427 1_445
Mn1 O4 2.107427 1_554
Mn1 O2 2.172103 1_545
Mn1 O1 2.172103 1_455
Mn1 O5 2.172103 1_454
Mn1 O6 2.172103 1_544
Mn2 O5 1.961106 1_554
Mn2 O2 1.961106 1_545
Mn2 O7 2.001932 1_544
Mn2 O0 2.001936 1_555
Mn2 O3 2.260694 1_545
Mn2 O4 2.260694 1_554
Mn3 O6 1.961106 1_554
Mn3 O1 1.961106 1_455
Mn3 O7 2.001932 1_454
Mn3 O0 2.001936 1_555
Mn3 O3 2.260694 1_455
Mn3 O4 2.260694 1_554
Cu0 O0 1.991027 1_555
Cu0 O7 1.991028 1_554
Cu0 O2 2.232503 1_555
Cu0 O6 2.232503 1_554
Cu0 O1 2.232503 1_555
Cu0 O5 2.232503 1_554
