# generated using pymatgen
data_Mn6O5F7
_symmetry_space_group_name_H-M   'P 1'
_cell_length_a   5.63054400
_cell_length_b   5.73634397
_cell_length_c   7.30659204
_cell_angle_alpha   74.02277974
_cell_angle_beta   74.24927185
_cell_angle_gamma   72.42715562
_symmetry_Int_Tables_number   1
_chemical_formula_structural   Mn6O5F7
_chemical_formula_sum   'Mn6 O5 F7'
_cell_volume   211.67350488
_cell_formula_units_Z   1
loop_
 _symmetry_equiv_pos_site_id
 _symmetry_equiv_pos_as_xyz
  1  'x, y, z'
loop_
 _atom_site_type_symbol
 _atom_site_label
 _atom_site_symmetry_multiplicity
 _atom_site_fract_x
 _atom_site_fract_y
 _atom_site_fract_z
 _atom_site_occupancy
  Mn  Mn0  1  0.70280300  0.67619200  0.83740000  1
  Mn  Mn1  1  0.31054500  0.36499600  0.66829400  1
  Mn  Mn2  1  0.67385500  0.61773800  0.31300900  1
  Mn  Mn3  1  0.30636500  0.33405800  0.17350300  1
  Mn  Mn4  1  0.99735200  0.99561100  0.49501800  1
  Mn  Mn5  1  0.00567900  0.00677800  0.99881500  1
  O  O0  1  0.02670200  0.66361600  0.66344900  1
  O  O1  1  0.21253400  0.24642200  0.95845100  1
  O  O2  1  0.80024100  0.76872300  0.03029500  1
  O  O3  1  0.41330600  0.42775000  0.38023800  1
  O  O4  1  0.96770400  0.32979100  0.33364400  1
  F  F0  1  0.38391500  0.93669100  0.33258700  1
  F  F1  1  0.90541600  0.87636300  0.30099000  1
  F  F2  1  0.58500800  0.57610000  0.64128900  1
  F  F3  1  0.08311600  0.10660500  0.69907000  1
  F  F4  1  0.61391600  0.06107700  0.66727700  1
  F  F5  1  0.33399500  0.71371000  0.99036800  1
  F  F6  1  0.67754700  0.29778000  0.01630200  1
loop_
_geom_bond_atom_site_label_1
_geom_bond_atom_site_label_2
_geom_bond_distance
_geom_bond_site_symmetry_2
Mn0 O2 1.891197 1_556
Mn0 O0 1.912907 1_655
Mn1 O0 1.958064 1_555
Mn1 O3 1.985369 1_555
Mn1 O1 2.014812 1_555
Mn2 O4 1.958733 1_555
Mn2 O3 1.964867 1_555
Mn2 O2 2.027992 1_555
Mn3 O4 1.951118 1_455
Mn3 O1 2.011649 1_554
Mn3 O3 2.017237 1_555
Mn4 O4 1.939645 1_565
Mn4 O0 1.949063 1_655
Mn5 O1 1.972407 1_555
Mn5 O2 1.972852 1_446
F0 Mn2 2.060779 1_555
F0 Mn4 2.152760 1_455
F0 Mn3 2.225650 1_565
F1 Mn4 1.972767 1_555
F1 Mn5 2.102877 1_664
F1 Mn2 2.223221 1_555
F2 Mn0 2.005393 1_555
F2 Mn1 2.174049 1_555
F2 Mn2 2.272871 1_555
F3 Mn4 1.990112 1_445
F3 Mn5 2.063138 1_555
F3 Mn1 2.166481 1_555
F4 Mn1 2.039423 1_555
F4 Mn4 2.163709 1_545
F4 Mn0 2.197684 1_545
F5 Mn0 2.051887 1_555
F5 Mn5 2.089487 1_565
F5 Mn3 2.246082 1_556
F6 Mn3 2.072732 1_555
F6 Mn5 2.084056 1_654
F6 Mn0 2.228064 1_554
