# generated using pymatgen
data_Li4V3Fe3(SbO8)2
_symmetry_space_group_name_H-M   'P 1'
_cell_length_a   5.95466995
_cell_length_b   5.88185817
_cell_length_c   9.77913926
_cell_angle_alpha   89.99526609
_cell_angle_beta   89.42493248
_cell_angle_gamma   119.49221495
_symmetry_Int_Tables_number   1
_chemical_formula_structural   Li4V3Fe3(SbO8)2
_chemical_formula_sum   'Li4 V3 Fe3 Sb2 O16'
_cell_volume   298.10819922
_cell_formula_units_Z   1
loop_
 _symmetry_equiv_pos_site_id
 _symmetry_equiv_pos_as_xyz
  1  'x, y, z'
loop_
 _atom_site_type_symbol
 _atom_site_label
 _atom_site_symmetry_multiplicity
 _atom_site_fract_x
 _atom_site_fract_y
 _atom_site_fract_z
 _atom_site_occupancy
  Li  Li0  1  0.34352800  0.67227000  0.89893000  1
  Li  Li1  1  0.99663700  0.99800800  0.98957200  1
  Li  Li2  1  0.99566200  0.99716700  0.48916900  1
  Li  Li3  1  0.67256000  0.33698900  0.39749500  1
  V  V0  1  0.65506900  0.82756300  0.22349100  1
  V  V1  1  0.82640100  0.64518200  0.71751200  1
  V  V2  1  0.82490900  0.17870400  0.71596800  1
  Fe  Fe0  1  0.16120600  0.81294500  0.20884000  1
  Fe  Fe1  1  0.16135900  0.34819500  0.20893300  1
  Fe  Fe2  1  0.33530600  0.16656700  0.71232700  1
  Sb  Sb0  1  0.33146100  0.66565700  0.48976800  1
  Sb  Sb1  1  0.66063800  0.32992100  0.99288200  1
  O  O0  1  0.15739500  0.83005400  0.59487100  1
  O  O1  1  0.04033300  0.52142100  0.35035600  1
  O  O2  1  0.37650000  0.68948900  0.10609400  1
  O  O3  1  0.97619500  0.98715200  0.29956900  1
  O  O4  1  0.97544200  0.98534800  0.79960000  1
  O  O5  1  0.15604000  0.32610800  0.59404000  1
  O  O6  1  0.49104400  0.96544700  0.34677000  1
  O  O7  1  0.49055800  0.52608000  0.34671500  1
  O  O8  1  0.32597800  0.16217900  0.09340800  1
  O  O9  1  0.66343200  0.83133100  0.59845200  1
  O  O10  1  0.53182000  0.49139900  0.84580600  1
  O  O11  1  0.53260900  0.04115300  0.84511400  1
  O  O12  1  0.68520500  0.34736700  0.60355000  1
  O  O13  1  0.83190400  0.66473500  0.09621600  1
  O  O14  1  0.96812600  0.48577900  0.84662800  1
  O  O15  1  0.83267900  0.16609100  0.09576000  1
loop_
_geom_bond_atom_site_label_1
_geom_bond_atom_site_label_2
_geom_bond_distance
_geom_bond_site_symmetry_2
Li0 O10 1.954908 1_555
Li0 O11 1.958295 1_565
Li0 O14 2.017561 1_455
Li0 O2 2.035057 1_556
Li1 O4 1.862319 1_555
Li1 O15 1.984722 1_566
Li1 O13 1.994570 1_556
Li1 O8 1.996266 1_666
Li2 O3 1.858035 1_555
Li2 O5 1.976833 1_665
Li2 O0 1.978388 1_655
Li2 O9 2.016108 1_555
Li3 O1 1.955961 1_655
Li3 O7 1.963586 1_555
Li3 O6 1.968587 1_545
Li3 O12 2.017009 1_555
Fe0 O2 2.017735 1_555
Fe0 O1 2.034179 1_555
Fe0 O3 2.035399 1_455
Fe0 O13 2.044123 1_455
Fe0 O8 2.109358 1_565
Fe0 O6 2.190954 1_555
Fe1 O2 2.030782 1_555
Fe1 O1 2.042887 1_555
Fe1 O15 2.045062 1_455
Fe1 O3 2.045884 1_445
Fe1 O8 2.113829 1_555
Fe1 O7 2.187841 1_555
Fe2 O4 2.042212 1_445
Fe2 O0 2.078352 1_545
Fe2 O5 2.090226 1_555
Fe2 O12 2.092195 1_555
Fe2 O11 2.120021 1_555
Fe2 O10 2.133851 1_555
O0 Sb0 2.007829 1_555
O0 V1 2.085088 1_455
O1 Sb0 2.045293 1_555
O2 V0 1.855017 1_555
O3 V0 1.830978 1_555
O4 V1 1.923922 1_555
O4 V2 1.945279 1_565
O5 Sb0 2.010924 1_555
O5 V2 2.081034 1_455
O6 V0 1.954881 1_555
O6 Sb0 2.071450 1_555
O7 V0 1.954944 1_555
O7 Sb0 2.065891 1_555
O8 Sb1 1.983855 1_554
O9 Sb0 2.032865 1_555
O9 V2 2.123224 1_565
O9 V1 2.136535 1_555
O10 V1 1.965344 1_555
O10 Sb1 2.073258 1_555
O11 V2 1.961701 1_555
O11 Sb1 2.074079 1_555
O12 V1 1.893774 1_555
O12 V2 1.927573 1_555
O13 Sb1 1.995745 1_554
O13 V0 2.131204 1_555
O14 V1 1.996451 1_555
O14 V2 2.031700 1_555
O14 Sb1 2.129090 1_555
O15 Sb1 1.995680 1_554
O15 V0 2.131468 1_545
