# generated using pymatgen
data_Li3BiO3
_symmetry_space_group_name_H-M   'P 1'
_cell_length_a   10.57359909
_cell_length_b   10.57359909
_cell_length_c   10.57359909
_cell_angle_alpha   97.33973039
_cell_angle_beta   97.33973039
_cell_angle_gamma   138.11576156
_symmetry_Int_Tables_number   1
_chemical_formula_structural   Li3BiO3
_chemical_formula_sum   'Li24 Bi8 O24'
_cell_volume   737.09389063
_cell_formula_units_Z   8
loop_
 _symmetry_equiv_pos_site_id
 _symmetry_equiv_pos_as_xyz
  1  'x, y, z'
loop_
 _atom_site_type_symbol
 _atom_site_label
 _atom_site_symmetry_multiplicity
 _atom_site_fract_x
 _atom_site_fract_y
 _atom_site_fract_z
 _atom_site_occupancy
  Li  Li0  1  0.76979500  0.64916500  0.03455200  1
  Li  Li1  1  0.29066700  0.19155600  0.37256900  1
  Li  Li2  1  0.06024000  0.84358500  0.22302400  1
  Li  Li3  1  0.97428500  0.56272200  0.13222500  1
  Li  Li4  1  0.81272200  0.18049700  0.08843700  1
  Li  Li5  1  0.16809700  0.04066700  0.59911000  1
  Li  Li6  1  0.21031400  0.82656300  0.46467300  1
  Li  Li7  1  0.48870300  0.11229900  0.44162500  1
  Li  Li8  1  0.89916500  0.36461300  0.37937000  1
  Li  Li9  1  0.29707800  0.23870300  0.87640400  1
  Li  Li10  1  0.07656300  0.11189000  0.11625000  1
  Li  Li11  1  0.08721600  0.81024000  0.71665500  1
  Li  Li12  1  0.09358500  0.37056100  0.28334500  1
  Li  Li13  1  0.99564000  0.96031400  0.88375000  1
  Li  Li14  1  0.36229900  0.42067400  0.12359600  1
  Li  Li15  1  0.98524300  0.51979500  0.62063000  1
  Li  Li16  1  0.67067400  0.04707800  0.55837500  1
  Li  Li17  1  0.36189000  0.74564000  0.53532700  1
  Li  Li18  1  0.44155600  0.56898700  0.40089000  1
  Li  Li19  1  0.09206000  0.72428500  0.91156300  1
  Li  Li20  1  0.43049700  0.84206000  0.86777500  1
  Li  Li21  1  0.62056100  0.83721600  0.77697600  1
  Li  Li22  1  0.81898700  0.91809700  0.62743100  1
  Li  Li23  1  0.61461300  0.73524300  0.96544800  1
  Bi  Bi0  1  0.44006300  0.13020200  0.12060100  1
  Bi  Bi1  1  0.79647200  0.61290400  0.37206300  1
  Bi  Bi2  1  0.67440900  0.54647200  0.68356800  1
  Bi  Bi3  1  0.38020200  0.75960100  0.19013900  1
  Bi  Bi4  1  0.56946200  0.19006300  0.80986100  1
  Bi  Bi5  1  0.86290400  0.99084000  0.31643200  1
  Bi  Bi6  1  0.24084000  0.42440900  0.62793700  1
  Bi  Bi7  1  0.00960100  0.31946200  0.87939900  1
  O  O0  1  0.28509000  0.17119900  0.04567100  1
  O  O1  1  0.79217000  0.54617400  0.16989600  1
  O  O2  1  0.16382100  0.81853700  0.10192000  1
  O  O3  1  0.12427600  0.93883100  0.41285800  1
  O  O4  1  0.50326800  0.25515700  0.33275900  1
  O  O5  1  0.06853700  0.46661800  0.15471600  1
  O  O6  1  0.96141800  0.87427600  0.68544500  1
  O  O7  1  0.95264800  0.58164800  0.46707900  1
  O  O8  1  0.79617400  0.12627800  0.25400400  1
  O  O9  1  0.42050900  0.25326800  0.74811000  1
  O  O10  1  0.73556900  0.70264800  0.87100000  1
  O  O11  1  0.42119900  0.87552800  0.38610900  1
  O  O12  1  0.48941900  0.03509000  0.61389100  1
  O  O13  1  0.83164800  0.86456900  0.12900000  1
  O  O14  1  0.50515700  0.67239900  0.25189000  1
  O  O15  1  0.87227400  0.54217000  0.74599600  1
  O  O16  1  0.11456900  0.48556900  0.53292100  1
  O  O17  1  0.18883100  0.27597300  0.31455500  1
  O  O18  1  0.31190100  0.91382100  0.84528400  1
  O  O19  1  0.92239900  0.17050900  0.66724100  1
  O  O20  1  0.52597300  0.71141800  0.58714200  1
  O  O21  1  0.71661800  0.06190100  0.89808000  1
  O  O22  1  0.37627800  0.62227400  0.83010400  1
  O  O23  1  0.12552800  0.23941900  0.95432900  1
loop_
_geom_bond_atom_site_label_1
_geom_bond_atom_site_label_2
_geom_bond_distance
_geom_bond_site_symmetry_2
Li0 O13 1.909581 1_555
Li0 O10 1.958584 1_554
Li0 O1 1.996279 1_555
Li1 O17 1.932529 1_555
Li1 O4 1.935429 1_555
Li1 O3 1.974737 1_545
Li2 O2 1.900773 1_555
Li2 O3 1.903307 1_555
Li2 O1 2.026952 1_455
Li3 O5 1.895100 1_655
Li3 O1 1.899829 1_555
Li3 O2 1.936342 1_655
Li4 O21 1.895111 1_554
Li4 O8 1.899829 1_555
Li4 O5 1.936347 1_655
Li5 O3 1.932523 1_545
Li5 O9 1.935434 1_555
Li5 O6 1.974739 1_445
Li6 O7 1.912777 1_455
Li6 O3 2.045420 1_555
Li6 O12 2.071915 1_565
Li6 O11 2.189607 1_555
Li7 O4 1.942581 1_555
Li7 O11 1.994596 1_545
Li7 O12 2.090432 1_555
Li8 O16 1.909581 1_655
Li8 O7 1.958584 1_555
Li8 O8 1.996279 1_555
Li9 O9 1.942589 1_555
Li9 O0 1.994596 1_556
Li9 O23 2.090432 1_555
Li10 O13 1.912772 1_445
Li10 O17 2.045411 1_555
Li10 O0 2.071921 1_555
Li10 O23 2.189617 1_554
Li11 O18 1.900773 1_555
Li11 O6 1.903307 1_455
Li11 O15 2.026952 1_455
Li12 O5 1.900781 1_555
Li12 O17 1.903307 1_555
Li12 O8 2.026952 1_455
Li13 O10 1.912776 1_555
Li13 O6 2.045413 1_555
Li13 O23 2.071911 1_665
Li13 O0 2.189618 1_666
Li14 O14 1.942593 1_555
Li14 O23 1.994596 1_554
Li14 O0 2.090432 1_555
Li15 O7 1.909581 1_555
Li15 O16 1.958584 1_655
Li15 O15 1.996279 1_555
Li16 O19 1.942589 1_555
Li16 O12 1.994596 1_555
Li16 O11 2.090432 1_545
Li17 O16 1.912772 1_555
Li17 O20 2.045411 1_555
Li17 O11 2.071921 1_555
Li17 O12 2.189617 1_565
Li18 O20 1.932520 1_555
Li18 O14 1.935434 1_555
Li18 O17 1.974738 1_555
Li19 O2 1.895110 1_556
Li19 O15 1.899829 1_455
Li19 O18 1.936342 1_555
Li20 O18 1.895110 1_555
Li20 O22 1.899829 1_555
Li20 O21 1.936349 1_565
Li21 O21 1.900768 1_565
Li21 O20 1.903307 1_555
Li21 O22 2.026952 1_555
Li22 O6 1.932520 1_555
Li22 O19 1.935434 1_565
Li22 O20 1.974738 1_555
Li23 O10 1.909581 1_555
Li23 O13 1.958584 1_556
Li23 O22 1.996279 1_555
Bi0 O0 2.077114 1_555
Bi0 O4 2.183909 1_555
Bi0 O2 2.187304 1_545
Bi1 O7 2.078234 1_555
Bi1 O1 2.147412 1_555
Bi1 O3 2.351290 1_655
Bi1 O4 2.429047 1_555
Bi2 O10 2.078234 1_555
Bi2 O15 2.147412 1_555
Bi2 O6 2.351290 1_555
Bi2 O9 2.429041 1_555
Bi3 O11 2.077114 1_555
Bi3 O14 2.183903 1_555
Bi3 O5 2.187301 1_555
Bi4 O12 2.077114 1_555
Bi4 O9 2.183912 1_555
Bi4 O18 2.187304 1_545
Bi5 O13 2.078230 1_555
Bi5 O8 2.147422 1_565
Bi5 O17 2.351292 1_665
Bi5 O14 2.429044 1_555
Bi6 O16 2.078225 1_555
Bi6 O22 2.147410 1_555
Bi6 O20 2.351294 1_555
Bi6 O19 2.429035 1_455
Bi7 O23 2.077114 1_555
Bi7 O19 2.183912 1_455
Bi7 O21 2.187299 1_455
