# generated using pymatgen
data_La2Sb
_symmetry_space_group_name_H-M   'P 1'
_cell_length_a   4.63605040
_cell_length_b   4.63603946
_cell_length_c   9.78615588
_cell_angle_alpha   103.69876432
_cell_angle_beta   103.69867433
_cell_angle_gamma   90.01898495
_symmetry_Int_Tables_number   1
_chemical_formula_structural   La2Sb
_chemical_formula_sum   'La4 Sb2'
_cell_volume   198.18220198
_cell_formula_units_Z   2
loop_
 _symmetry_equiv_pos_site_id
 _symmetry_equiv_pos_as_xyz
  1  'x, y, z'
loop_
 _atom_site_type_symbol
 _atom_site_label
 _atom_site_symmetry_multiplicity
 _atom_site_fract_x
 _atom_site_fract_y
 _atom_site_fract_z
 _atom_site_occupancy
  La  La0  1  0.31961395  0.31961808  0.63930983  1
  La  La1  1  0.68039320  0.68040026  0.36074279  1
  La  La2  1  0.99999074  0.49999238  0.99997249  1
  La  La3  1  0.49998637  0.99999449  0.99997288  1
  Sb  Sb0  1  0.86323685  0.86321277  0.72641303  1
  Sb  Sb1  1  0.13677890  0.13678202  0.27358898  1
loop_
_geom_bond_atom_site_label_1
_geom_bond_atom_site_label_2
_geom_bond_distance
_geom_bond_site_symmetry_2
La0 Sb1 3.372245 1_555
La0 Sb0 3.374274 1_445
La0 Sb0 3.374938 1_555
La0 Sb0 3.375570 1_455
La0 Sb0 3.375752 1_545
La1 Sb0 3.371778 1_555
La1 Sb1 3.374499 1_665
La1 Sb1 3.374936 1_555
La1 Sb1 3.375761 1_565
La1 Sb1 3.375783 1_655
La2 La3 3.277627 1_655
La2 La3 3.277644 1_545
La2 La3 3.278701 1_645
La2 La3 3.278743 1_555
La2 Sb0 3.425722 1_545
La2 Sb0 3.425826 1_555
La2 Sb1 3.426051 1_666
La2 Sb1 3.426271 1_656
La3 Sb0 3.425637 1_455
La3 Sb0 3.425923 1_555
La3 Sb1 3.426066 1_666
La3 Sb1 3.426259 1_566
