# generated using pymatgen
data_Li3MnP2HO8
_symmetry_space_group_name_H-M   'P 1'
_cell_length_a   8.42345200
_cell_length_b   4.95988300
_cell_length_c   7.77031512
_cell_angle_alpha   76.29795101
_cell_angle_beta   90.00000000
_cell_angle_gamma   90.00000000
_symmetry_Int_Tables_number   1
_chemical_formula_structural   Li3MnP2HO8
_chemical_formula_sum   'Li6 Mn2 P4 H2 O16'
_cell_volume   315.39960525
_cell_formula_units_Z   2
loop_
 _symmetry_equiv_pos_site_id
 _symmetry_equiv_pos_as_xyz
  1  'x, y, z'
loop_
 _atom_site_type_symbol
 _atom_site_label
 _atom_site_symmetry_multiplicity
 _atom_site_fract_x
 _atom_site_fract_y
 _atom_site_fract_z
 _atom_site_occupancy
  Li  Li0  1  0.79352900  0.08087100  0.68387000  1
  Li  Li1  1  0.64004300  0.13517200  0.38805200  1
  Li  Li2  1  0.14004300  0.86482800  0.61194800  1
  Li  Li3  1  0.29352900  0.91912900  0.31613000  1
  Li  Li4  1  0.84652400  0.60985800  0.94427800  1
  Li  Li5  1  0.34652400  0.39014200  0.05572200  1
  Mn  Mn0  1  0.49654000  0.75048300  0.74810700  1
  Mn  Mn1  1  0.99654000  0.24951700  0.25189300  1
  P  P0  1  0.64254600  0.11565200  0.02621100  1
  P  P1  1  0.14254600  0.88434800  0.97378900  1
  P  P2  1  0.85765500  0.62267700  0.52923200  1
  P  P3  1  0.35765500  0.37732300  0.47076800  1
  H  H0  1  0.49962400  0.70299900  0.24232800  1
  H  H1  1  0.99962400  0.29700100  0.75767200  1
  O  O0  1  0.48054800  0.17419000  0.57319000  1
  O  O1  1  0.79514200  0.24123300  0.08601600  1
  O  O2  1  0.18481700  0.08646400  0.09361000  1
  O  O3  1  0.55371500  0.96032900  0.19990200  1
  O  O4  1  0.98054800  0.82581000  0.42681000  1
  O  O5  1  0.70849200  0.78220700  0.56490200  1
  O  O6  1  0.05371500  0.03967100  0.80009800  1
  O  O7  1  0.68481700  0.91353600  0.90639000  1
  O  O8  1  0.32215900  0.62701900  0.55264600  1
  O  O9  1  0.92810400  0.49351900  0.72321800  1
  O  O10  1  0.29514200  0.75876700  0.91398400  1
  O  O11  1  0.03409000  0.65143200  0.07717100  1
  O  O12  1  0.42810400  0.50648100  0.27678200  1
  O  O13  1  0.82215900  0.37298100  0.44735400  1
  O  O14  1  0.20849200  0.21779300  0.43509800  1
  O  O15  1  0.53409000  0.34856800  0.92282900  1
loop_
_geom_bond_atom_site_label_1
_geom_bond_atom_site_label_2
_geom_bond_distance
_geom_bond_site_symmetry_2
Li0 O7 1.958869 1_545
Li0 O5 2.052010 1_545
Li0 O13 2.067213 1_555
Li1 O3 2.004709 1_545
Li1 O0 2.010931 1_555
Li1 O5 2.036157 1_545
Li1 O13 2.052887 1_555
Li2 O6 2.004709 1_565
Li2 O4 2.010931 1_455
Li2 O14 2.036157 1_565
Li2 O8 2.052887 1_555
Li3 O2 1.958869 1_565
Li3 O14 2.052010 1_565
Li3 O8 2.067213 1_555
Li4 O11 1.925085 1_656
Li4 O1 1.946577 1_556
Li4 O7 2.000165 1_555
Li4 O9 2.055543 1_555
Li5 O15 1.925085 1_554
Li5 O10 1.946577 1_554
Li5 O2 2.000165 1_555
Li5 O12 2.055543 1_555
Mn0 O10 2.136839 1_555
Mn0 O15 2.152893 1_555
Mn0 O0 2.220079 1_565
Mn0 O5 2.265547 1_555
Mn0 O7 2.270052 1_555
Mn0 O8 2.297820 1_555
Mn1 O1 2.136839 1_555
Mn1 O11 2.152893 1_655
Mn1 O4 2.220079 1_545
Mn1 O14 2.265547 1_655
Mn1 O2 2.270052 1_655
Mn1 O13 2.297820 1_555
H0 O12 1.122962 1_555
H0 O3 1.321347 1_555
H1 O9 1.122962 1_555
H1 O6 1.321347 1_655
O0 P3 1.529774 1_555
O1 P0 1.547014 1_555
O2 P1 1.562291 1_544
O3 P0 1.575541 1_565
O4 P2 1.529774 1_555
O5 P2 1.544508 1_555
O6 P1 1.575541 1_545
O7 P0 1.562291 1_566
O8 P3 1.549595 1_555
O9 P2 1.605344 1_555
O10 P1 1.547014 1_555
O11 P1 1.541056 1_554
O12 P3 1.605344 1_555
O13 P2 1.549595 1_555
O14 P3 1.544508 1_555
O15 P0 1.541056 1_556
