# generated using pymatgen
data_ZrH8(NF3)2
_symmetry_space_group_name_H-M   'P 1'
_cell_length_a   8.11205500
_cell_length_b   13.16853600
_cell_length_c   14.66715800
_cell_angle_alpha   90.00000000
_cell_angle_beta   90.00000000
_cell_angle_gamma   90.00000000
_symmetry_Int_Tables_number   1
_chemical_formula_structural   ZrH8(NF3)2
_chemical_formula_sum   'Zr8 H64 N16 F48'
_cell_volume   1566.80284789
_cell_formula_units_Z   8
loop_
 _symmetry_equiv_pos_site_id
 _symmetry_equiv_pos_as_xyz
  1  'x, y, z'
loop_
 _atom_site_type_symbol
 _atom_site_label
 _atom_site_symmetry_multiplicity
 _atom_site_fract_x
 _atom_site_fract_y
 _atom_site_fract_z
 _atom_site_occupancy
  Zr  Zr0  1  0.92734600  0.26732400  0.83334200  1
  Zr  Zr1  1  0.07265400  0.76732400  0.16665800  1
  Zr  Zr2  1  0.92734600  0.76732400  0.66665800  1
  Zr  Zr3  1  0.07265400  0.26732400  0.33334200  1
  Zr  Zr4  1  0.43227400  0.23115400  0.91201500  1
  Zr  Zr5  1  0.56772600  0.73115400  0.08798500  1
  Zr  Zr6  1  0.43227400  0.73115400  0.58798500  1
  Zr  Zr7  1  0.56772600  0.23115400  0.41201500  1
  H  H0  1  0.75937100  0.07711100  0.71422200  1
  H  H1  1  0.24062900  0.57711100  0.28577800  1
  H  H2  1  0.75937100  0.57711100  0.78577800  1
  H  H3  1  0.24062900  0.07711100  0.21422200  1
  H  H4  1  0.76404800  0.99373400  0.61629000  1
  H  H5  1  0.23595200  0.49373400  0.38371000  1
  H  H6  1  0.76404800  0.49373400  0.88371000  1
  H  H7  1  0.23595200  0.99373400  0.11629000  1
  H  H8  1  0.80147000  0.99513300  0.45201900  1
  H  H9  1  0.19853000  0.49513300  0.54798100  1
  H  H10  1  0.80147000  0.49513300  0.04798100  1
  H  H11  1  0.19853000  0.99513300  0.95201900  1
  H  H12  1  0.90300200  0.20899800  0.51934200  1
  H  H13  1  0.09699800  0.70899800  0.48065800  1
  H  H14  1  0.90300200  0.70899800  0.98065800  1
  H  H15  1  0.09699800  0.20899800  0.01934200  1
  H  H16  1  0.83747000  0.15853100  0.10861900  1
  H  H17  1  0.16253000  0.65853100  0.89138100  1
  H  H18  1  0.83747000  0.65853100  0.39138100  1
  H  H19  1  0.16253000  0.15853100  0.60861900  1
  H  H20  1  0.68427600  0.13777400  0.18815400  1
  H  H21  1  0.31572400  0.63777400  0.81184600  1
  H  H22  1  0.68427600  0.63777400  0.31184600  1
  H  H23  1  0.31572400  0.13777400  0.68815400  1
  H  H24  1  0.66997200  0.09204400  0.07998900  1
  H  H25  1  0.33002800  0.59204400  0.92001100  1
  H  H26  1  0.66997200  0.59204400  0.42001100  1
  H  H27  1  0.33002800  0.09204400  0.57998900  1
  H  H28  1  0.80883700  0.04288000  0.15524200  1
  H  H29  1  0.19116300  0.54288000  0.84475800  1
  H  H30  1  0.80883700  0.54288000  0.34475800  1
  H  H31  1  0.19116300  0.04288000  0.65524200  1
  H  H32  1  0.76569000  0.33021900  0.09709100  1
  H  H33  1  0.23431000  0.83021900  0.90290900  1
  H  H34  1  0.76569000  0.83021900  0.40290900  1
  H  H35  1  0.23431000  0.33021900  0.59709100  1
  H  H36  1  0.84295600  0.32987900  0.12556300  1
  H  H37  1  0.15704400  0.82987900  0.87443700  1
  H  H38  1  0.84295600  0.82987900  0.37443700  1
  H  H39  1  0.15704400  0.32987900  0.62556300  1
  H  H40  1  0.85526700  0.54183400  0.04827800  1
  H  H41  1  0.14473300  0.04183400  0.95172200  1
  H  H42  1  0.85526700  0.04183400  0.45172200  1
  H  H43  1  0.14473300  0.54183400  0.54827800  1
  H  H44  1  0.24585800  0.39411600  0.81554700  1
  H  H45  1  0.75414200  0.89411600  0.18445300  1
  H  H46  1  0.24585800  0.89411600  0.68445300  1
  H  H47  1  0.75414200  0.39411600  0.31554700  1
  H  H48  1  0.48110200  0.43740900  0.68569600  1
  H  H49  1  0.51889800  0.93740900  0.31430400  1
  H  H50  1  0.48110200  0.93740900  0.81430400  1
  H  H51  1  0.51889800  0.43740900  0.18569600  1
  H  H52  1  0.55147700  0.35026000  0.61346900  1
  H  H53  1  0.44852300  0.85026000  0.38653100  1
  H  H54  1  0.55147700  0.85026000  0.88653100  1
  H  H55  1  0.44852300  0.35026000  0.11346900  1
  H  H56  1  0.82111000  0.45164000  0.69860700  1
  H  H57  1  0.17889000  0.95164000  0.30139300  1
  H  H58  1  0.82111000  0.95164000  0.80139300  1
  H  H59  1  0.17889000  0.45164000  0.19860700  1
  H  H60  1  0.62215600  0.46676700  0.60998500  1
  H  H61  1  0.37784400  0.96676700  0.39001500  1
  H  H62  1  0.62215600  0.96676700  0.89001500  1
  H  H63  1  0.37784400  0.46676700  0.10998500  1
  N  N0  1  0.77151000  0.00644000  0.68565100  1
  N  N1  1  0.22849000  0.50644000  0.31434900  1
  N  N2  1  0.77151000  0.50644000  0.81434900  1
  N  N3  1  0.22849000  0.00644000  0.18565100  1
  N  N4  1  0.75002000  0.10812200  0.13333800  1
  N  N5  1  0.24998000  0.60812200  0.86666200  1
  N  N6  1  0.75002000  0.60812200  0.36666200  1
  N  N7  1  0.24998000  0.10812200  0.63333800  1
  N  N8  1  0.58424300  0.41080800  0.65379300  1
  N  N9  1  0.41575700  0.91080800  0.34620700  1
  N  N10  1  0.58424300  0.91080800  0.84620700  1
  N  N11  1  0.41575700  0.41080800  0.15379300  1
  N  N12  1  0.80419400  0.43123100  0.76544200  1
  N  N13  1  0.19580600  0.93123100  0.23455800  1
  N  N14  1  0.80419400  0.93123100  0.73455800  1
  N  N15  1  0.19580600  0.43123100  0.26544200  1
  F  F0  1  0.67420700  0.26471400  0.85289200  1
  F  F1  1  0.32579300  0.76471400  0.14710800  1
  F  F2  1  0.67420700  0.76471400  0.64710800  1
  F  F3  1  0.32579300  0.26471400  0.35289200  1
  F  F4  1  0.44465800  0.14754600  0.79356900  1
  F  F5  1  0.55534200  0.64754600  0.20643100  1
  F  F6  1  0.44465800  0.64754600  0.70643100  1
  F  F7  1  0.55534200  0.14754600  0.29356900  1
  F  F8  1  0.38400300  0.37699600  0.85237100  1
  F  F9  1  0.61599700  0.87699600  0.14762900  1
  F  F10  1  0.38400300  0.87699600  0.64762900  1
  F  F11  1  0.61599700  0.37699600  0.35237100  1
  F  F12  1  0.52653300  0.10978900  0.97828400  1
  F  F13  1  0.47346700  0.60978900  0.02171600  1
  F  F14  1  0.52653300  0.60978900  0.52171600  1
  F  F15  1  0.47346700  0.10978900  0.47828400  1
  F  F16  1  0.55261300  0.31759200  0.00224100  1
  F  F17  1  0.44738700  0.81759200  0.99775900  1
  F  F18  1  0.55261300  0.81759200  0.49775900  1
  F  F19  1  0.44738700  0.31759200  0.50224100  1
  F  F20  1  0.17264400  0.22331000  0.85178800  1
  F  F21  1  0.82735600  0.72331000  0.14821200  1
  F  F22  1  0.17264400  0.72331000  0.64821200  1
  F  F23  1  0.82735600  0.22331000  0.35178800  1
  F  F24  1  0.25979100  0.23564400  0.01755400  1
  F  F25  1  0.74020900  0.73564400  0.98244600  1
  F  F26  1  0.25979100  0.73564400  0.48244600  1
  F  F27  1  0.74020900  0.23564400  0.51755400  1
  F  F28  1  0.13047500  0.41593000  0.78755300  1
  F  F29  1  0.86952500  0.91593000  0.21244700  1
  F  F30  1  0.13047500  0.91593000  0.71244700  1
  F  F31  1  0.86952500  0.41593000  0.28755300  1
  F  F32  1  0.93908100  0.26072900  0.69881900  1
  F  F33  1  0.06091900  0.76072900  0.30118100  1
  F  F34  1  0.93908100  0.76072900  0.80118100  1
  F  F35  1  0.06091900  0.26072900  0.19881900  1
  F  F36  1  0.93657100  0.37302200  0.92861200  1
  F  F37  1  0.06342900  0.87302200  0.07138800  1
  F  F38  1  0.93657100  0.87302200  0.57138800  1
  F  F39  1  0.06342900  0.37302200  0.42861200  1
  F  F40  1  0.87956500  0.11631300  0.83130900  1
  F  F41  1  0.12043500  0.61631300  0.16869100  1
  F  F42  1  0.87956500  0.61631300  0.66869100  1
  F  F43  1  0.12043500  0.11631300  0.33130900  1
  F  F44  1  0.98072600  0.18336600  0.01146200  1
  F  F45  1  0.01927400  0.68336600  0.98853800  1
  F  F46  1  0.98072600  0.68336600  0.48853800  1
  F  F47  1  0.01927400  0.18336600  0.51146200  1
loop_
_geom_bond_atom_site_label_1
_geom_bond_atom_site_label_2
_geom_bond_distance
_geom_bond_site_symmetry_2
H0 N0 1.025370 1_555
H1 N1 1.025370 1_555
H2 N2 1.025370 1_555
H3 N3 1.025370 1_555
H4 N0 1.032772 1_565
H5 N1 1.032772 1_555
H6 N2 1.032772 1_555
H7 N3 1.032772 1_565
H10 H40 0.754104 1_555
H11 H41 0.754104 1_565
H16 N4 1.036987 1_555
H17 N5 1.036987 1_555
H18 N6 1.036987 1_555
H19 N7 1.036987 1_555
H20 N4 1.040820 1_555
H21 N5 1.040820 1_555
H22 N6 1.040820 1_555
H23 N7 1.040820 1_555
H24 N4 1.038633 1_555
H25 N5 1.038633 1_555
H26 N6 1.038633 1_555
H27 N7 1.038633 1_555
H28 N4 1.033919 1_555
H29 N5 1.033919 1_555
H30 N6 1.033919 1_555
H31 N7 1.033919 1_555
H32 H36 0.753175 1_555
H33 H37 0.753175 1_555
H34 H38 0.753175 1_555
H35 H39 0.753175 1_555
H42 H8 0.754104 1_545
H43 H9 0.754104 1_555
H48 N8 1.020640 1_555
H49 N9 1.020640 1_555
H50 N10 1.020640 1_555
H51 N11 1.020640 1_555
H52 N8 1.027707 1_555
H53 N9 1.027707 1_555
H54 N10 1.027707 1_555
H55 N11 1.027707 1_555
H56 N12 1.025675 1_555
H57 N13 1.025675 1_555
H58 N14 1.025675 1_555
H59 N15 1.025675 1_555
H60 N8 1.024921 1_555
H61 N9 1.024921 1_555
H62 N10 1.024921 1_555
H63 N11 1.024921 1_555
F0 Zr0 2.073686 1_555
F0 Zr4 2.190658 1_555
F1 Zr1 2.073686 1_555
F1 Zr5 2.190658 1_555
F2 Zr2 2.073686 1_555
F2 Zr6 2.190658 1_555
F3 Zr3 2.073686 1_555
F3 Zr7 2.190658 1_555
F4 Zr4 2.059217 1_555
F5 Zr5 2.059217 1_555
F6 Zr6 2.059217 1_555
F7 Zr7 2.059217 1_555
F8 H44 1.264267 1_555
F8 Zr4 2.146402 1_555
F9 H45 1.264267 1_555
F9 Zr5 2.146402 1_555
F10 H46 1.264267 1_555
F10 Zr6 2.146402 1_555
F11 H47 1.264267 1_555
F11 Zr7 2.146402 1_555
F12 Zr4 2.020804 1_555
F13 Zr5 2.020804 1_555
F14 Zr6 2.020804 1_555
F15 Zr7 2.020804 1_555
F16 Zr4 1.999970 1_554
F17 Zr5 1.999970 1_556
F18 Zr6 1.999970 1_555
F19 Zr7 1.999970 1_555
F20 Zr0 2.090148 1_455
F20 Zr4 2.286217 1_555
F21 Zr1 2.090148 1_655
F21 Zr5 2.286217 1_555
F22 Zr2 2.090148 1_455
F22 Zr6 2.286217 1_555
F23 Zr3 2.090148 1_655
F23 Zr7 2.286217 1_555
F24 H15 1.366659 1_555
F24 Zr4 2.087440 1_554
F25 H14 1.366659 1_555
F25 Zr5 2.087440 1_556
F26 H13 1.366659 1_555
F26 Zr6 2.087440 1_555
F27 H12 1.366659 1_555
F27 Zr7 2.087440 1_555
F28 H44 1.061691 1_555
F29 H45 1.061691 1_555
F30 H46 1.061691 1_555
F31 H47 1.061691 1_555
F32 Zr0 1.977273 1_555
F33 Zr1 1.977273 1_555
F34 Zr2 1.977273 1_555
F35 Zr3 1.977273 1_555
F36 Zr0 1.973705 1_555
F37 Zr1 1.973705 1_555
F38 Zr2 1.973705 1_555
F39 Zr3 1.973705 1_555
F40 Zr0 2.026235 1_555
F41 Zr1 2.026235 1_555
F42 Zr2 2.026235 1_555
F43 Zr3 2.026235 1_555
F44 H15 1.008426 1_655
F45 H14 1.008426 1_455
F46 H13 1.008426 1_655
F47 H12 1.008426 1_455
