# generated using pymatgen
data_Li2CuBi(PO4)2
_symmetry_space_group_name_H-M   'P 1'
_cell_length_a   6.42308600
_cell_length_b   4.83658300
_cell_length_c   11.00225792
_cell_angle_alpha   89.72155690
_cell_angle_beta   90.00000000
_cell_angle_gamma   90.00000000
_symmetry_Int_Tables_number   1
_chemical_formula_structural   Li2CuBi(PO4)2
_chemical_formula_sum   'Li4 Cu2 Bi2 P4 O16'
_cell_volume   341.78978210
_cell_formula_units_Z   2
loop_
 _symmetry_equiv_pos_site_id
 _symmetry_equiv_pos_as_xyz
  1  'x, y, z'
loop_
 _atom_site_type_symbol
 _atom_site_label
 _atom_site_symmetry_multiplicity
 _atom_site_fract_x
 _atom_site_fract_y
 _atom_site_fract_z
 _atom_site_occupancy
  Li  Li0  1  0.00000000  0.00000000  0.00000000  1
  Li  Li1  1  0.50000000  0.00000000  0.00000000  1
  Li  Li2  1  0.00000000  0.50000000  0.50000000  1
  Li  Li3  1  0.50000000  0.50000000  0.50000000  1
  Cu  Cu0  1  0.75000000  0.03018200  0.70464700  1
  Cu  Cu1  1  0.25000000  0.96981800  0.29535300  1
  Bi  Bi0  1  0.25000000  0.52126300  0.78123400  1
  Bi  Bi1  1  0.75000000  0.47873700  0.21876600  1
  P  P0  1  0.75000000  0.60299200  0.91368400  1
  P  P1  1  0.25000000  0.08822400  0.58378500  1
  P  P2  1  0.75000000  0.91177600  0.41621500  1
  P  P3  1  0.25000000  0.39700800  0.08631600  1
  O  O0  1  0.25000000  0.25316600  0.95591300  1
  O  O1  1  0.75000000  0.28996000  0.92139600  1
  O  O2  1  0.94434100  0.73169100  0.84867700  1
  O  O3  1  0.55565900  0.73169100  0.84867700  1
  O  O4  1  0.44359200  0.20561100  0.65758800  1
  O  O5  1  0.05640800  0.20561100  0.65758800  1
  O  O6  1  0.25000000  0.76855100  0.58110900  1
  O  O7  1  0.75000000  0.77477400  0.54281300  1
  O  O8  1  0.25000000  0.22522600  0.45718700  1
  O  O9  1  0.75000000  0.23144900  0.41889100  1
  O  O10  1  0.94359200  0.79438900  0.34241200  1
  O  O11  1  0.55640800  0.79438900  0.34241200  1
  O  O12  1  0.44434100  0.26830900  0.15132300  1
  O  O13  1  0.05565900  0.26830900  0.15132300  1
  O  O14  1  0.25000000  0.71004000  0.07860400  1
  O  O15  1  0.75000000  0.74683400  0.04408700  1
loop_
_geom_bond_atom_site_label_1
_geom_bond_atom_site_label_2
_geom_bond_distance
_geom_bond_site_symmetry_2
Li0 O0 2.075405 1_554
Li0 O15 2.075405 1_445
Li0 O2 2.145857 1_444
Li0 O13 2.145857 1_555
Li0 O1 2.298130 1_454
Li0 O14 2.298130 1_545
Li1 O0 2.075405 1_554
Li1 O15 2.075405 1_545
Li1 O12 2.145857 1_555
Li1 O3 2.145857 1_544
Li1 O14 2.298130 1_545
Li1 O1 2.298130 1_554
Li2 O8 2.138368 1_555
Li2 O7 2.138368 1_455
Li2 O6 2.252371 1_555
Li2 O9 2.252371 1_455
Li2 O5 2.267318 1_555
Li2 O10 2.267318 1_455
Li3 O8 2.138368 1_555
Li3 O7 2.138368 1_555
Li3 O9 2.252371 1_555
Li3 O6 2.252371 1_555
Li3 O4 2.267318 1_555
Li3 O11 2.267318 1_555
Cu0 O7 2.172020 1_545
Cu0 O5 2.203877 1_655
Cu0 O4 2.203877 1_555
Cu0 O3 2.476141 1_545
Cu0 O2 2.476141 1_545
Cu0 O1 2.700868 1_555
Cu1 O8 2.172020 1_565
Cu1 O10 2.203877 1_455
Cu1 O11 2.203877 1_555
Cu1 O12 2.476141 1_565
Cu1 O13 2.476141 1_565
Cu1 O14 2.700868 1_555
Bi0 O0 2.313158 1_555
Bi0 O2 2.334139 1_455
Bi0 O3 2.334139 1_555
Bi0 O4 2.397450 1_555
Bi0 O5 2.397450 1_555
Bi0 O6 2.500586 1_555
Bi1 O15 2.313158 1_555
Bi1 O13 2.334139 1_655
Bi1 O12 2.334139 1_555
Bi1 O10 2.397450 1_555
Bi1 O11 2.397450 1_555
Bi1 O9 2.500586 1_555
O0 P3 1.597544 1_556
O1 P0 1.515969 1_555
O2 P0 1.566159 1_555
O3 P0 1.566159 1_555
O4 P1 1.591337 1_555
O5 P1 1.591337 1_555
O6 P1 1.546548 1_565
O7 P2 1.539535 1_555
O8 P1 1.539535 1_555
O9 P2 1.546548 1_545
O10 P2 1.591337 1_555
O11 P2 1.591337 1_555
O12 P3 1.566159 1_555
O13 P3 1.566159 1_555
O14 P3 1.515969 1_555
O15 P0 1.597544 1_554
