# generated using pymatgen
data_Li3V3P8O29
_symmetry_space_group_name_H-M   'P 1'
_cell_length_a   9.77397500
_cell_length_b   9.78137034
_cell_length_c   14.50299997
_cell_angle_alpha   89.87395566
_cell_angle_beta   90.74202143
_cell_angle_gamma   119.95030393
_symmetry_Int_Tables_number   1
_chemical_formula_structural   Li3V3P8O29
_chemical_formula_sum   'Li6 V6 P16 O58'
_cell_volume   1201.25437830
_cell_formula_units_Z   2
loop_
 _symmetry_equiv_pos_site_id
 _symmetry_equiv_pos_as_xyz
  1  'x, y, z'
loop_
 _atom_site_type_symbol
 _atom_site_label
 _atom_site_symmetry_multiplicity
 _atom_site_fract_x
 _atom_site_fract_y
 _atom_site_fract_z
 _atom_site_occupancy
  Li  Li0  1  0.29063700  0.07340200  0.05288100  1
  Li  Li1  1  0.07878200  0.29977700  0.44730300  1
  Li  Li2  1  0.23096700  0.32120200  0.93937600  1
  Li  Li3  1  0.21823000  0.92504500  0.45432400  1
  Li  Li4  1  0.69833000  0.77901000  0.44542600  1
  Li  Li5  1  0.69584500  0.91705500  0.94017800  1
  V  V0  1  0.56868300  0.00256900  0.74908100  1
  V  V1  1  0.43520600  0.43354200  0.74631800  1
  V  V2  1  0.99987600  0.43559200  0.24590700  1
  V  V3  1  0.00284400  0.56958400  0.75650300  1
  V  V4  1  0.56944300  0.56582600  0.25025900  1
  V  V5  1  0.43222200  0.99629100  0.25211500  1
  P  P0  1  0.32221900  0.09242500  0.84043000  1
  P  P1  1  0.31487800  0.22800600  0.33733000  1
  P  P2  1  0.77561200  0.08921700  0.33376300  1
  P  P3  1  0.66960300  0.33546900  0.63474500  1
  P  P4  1  0.65958500  0.32814800  0.13484900  1
  P  P5  1  0.91622400  0.22667500  0.83681200  1
  P  P6  1  0.08416400  0.31904500  0.65934900  1
  P  P7  1  0.77349900  0.68671000  0.83628900  1
  P  P8  1  0.23108700  0.31860500  0.15901300  1
  P  P9  1  0.91835400  0.68723900  0.33742900  1
  P  P10  1  0.08208100  0.77164000  0.15634700  1
  P  P11  1  0.33957900  0.66671900  0.86921900  1
  P  P12  1  0.33416600  0.66533700  0.36693000  1
  P  P13  1  0.22583600  0.90920200  0.66515500  1
  P  P14  1  0.68146100  0.77074000  0.65900300  1
  P  P15  1  0.67904400  0.91057000  0.15786600  1
  O  O0  1  0.23336300  0.98742900  0.57651300  1
  O  O1  1  0.33998700  0.08253000  0.33886500  1
  O  O2  1  0.21731900  0.20216900  0.24092800  1
  O  O3  1  0.23987100  0.24862000  0.06949200  1
  O  O4  1  0.48103600  0.09852900  0.82134400  1
  O  O5  1  0.34362300  0.26104700  0.83564600  1
  O  O6  1  0.51007800  0.17985200  0.17662900  1
  O  O7  1  0.62046500  0.09720900  0.31970400  1
  O  O8  1  0.73621600  0.97622400  0.06588200  1
  O  O9  1  0.74470700  0.08348700  0.83890500  1
  O  O10  1  0.52047200  0.33715800  0.67722000  1
  O  O11  1  0.66285800  0.18225200  0.67833800  1
  O  O12  1  0.47563400  0.38174600  0.32325400  1
  O  O13  1  0.66367900  0.33040100  0.53294900  1
  O  O14  1  0.65040700  0.32630000  0.03314700  1
  O  O15  1  0.61930200  0.52625700  0.82076400  1
  O  O16  1  0.81135900  0.33192400  0.17730500  1
  O  O17  1  0.66153800  0.47709800  0.18031200  1
  O  O18  1  0.91954300  0.25910600  0.33658500  1
  O  O19  1  0.98243100  0.20048000  0.74031600  1
  O  O20  1  0.01308700  0.22636800  0.91624600  1
  O  O21  1  0.01500700  0.25173800  0.56792500  1
  O  O22  1  0.90977200  0.38123000  0.82601900  1
  O  O23  1  0.81650800  0.47804600  0.68019100  1
  O  O24  1  0.74648900  0.65943700  0.33795000  1
  O  O25  1  0.08576400  0.34051400  0.16925200  1
  O  O26  1  0.90946200  0.52572600  0.31998500  1
  O  O27  1  0.22287800  0.23206000  0.41631800  1
  O  O28  1  0.74529300  0.76654100  0.56789700  1
  O  O29  1  0.09307600  0.47799500  0.68116400  1
  O  O30  1  0.91417700  0.65536100  0.83541400  1
  O  O31  1  0.79856400  0.78442000  0.74091100  1
  O  O32  1  0.25287100  0.34141000  0.67373200  1
  O  O33  1  0.18500100  0.51672900  0.32461500  1
  O  O34  1  0.09173200  0.61775800  0.17777600  1
  O  O35  1  0.00486400  0.76947600  0.06879200  1
  O  O36  1  0.01126400  0.77425600  0.41978700  1
  O  O37  1  0.99335200  0.78857400  0.24525800  1
  O  O38  1  0.08165900  0.74195700  0.67413800  1
  O  O39  1  0.33671900  0.51612100  0.82812500  1
  O  O40  1  0.38265000  0.47977300  0.17992000  1
  O  O41  1  0.18828200  0.66455000  0.82587700  1
  O  O42  1  0.33355100  0.67357400  0.46893400  1
  O  O43  1  0.33758700  0.66117200  0.97166000  1
  O  O44  1  0.51975000  0.61916400  0.67868400  1
  O  O45  1  0.33253700  0.81556900  0.32386600  1
  O  O46  1  0.48466000  0.66615100  0.32893600  1
  O  O47  1  0.25367700  0.91757900  0.16692400  1
  O  O48  1  0.21116000  0.00375500  0.75188400  1
  O  O49  1  0.25027400  0.01510200  0.92875900  1
  O  O50  1  0.37978800  0.90049800  0.68378600  1
  O  O51  1  0.48772900  0.81865200  0.83075200  1
  O  O52  1  0.65975600  0.74493400  0.17598200  1
  O  O53  1  0.51844500  0.90061900  0.18203200  1
  O  O54  1  0.77044800  0.77817200  0.91633900  1
  O  O55  1  0.65891200  0.91565300  0.67351900  1
  O  O56  1  0.76798100  0.99052700  0.41309900  1
  O  O57  1  0.79959600  0.01990300  0.23756900  1
loop_
_geom_bond_atom_site_label_1
_geom_bond_atom_site_label_2
_geom_bond_distance
_geom_bond_site_symmetry_2
Li0 O49 1.866233 1_554
Li0 O3 2.023766 1_555
Li0 O47 2.154945 1_545
Li0 O6 2.565934 1_555
Li1 O21 1.844409 1_555
Li1 O27 1.890344 1_555
Li1 O18 2.116339 1_455
Li1 O33 2.564873 1_555
Li2 O20 1.875748 1_555
Li2 O3 2.030810 1_556
Li2 O5 2.124981 1_555
Li2 O39 2.317033 1_555
Li3 O0 1.855380 1_555
Li3 O36 1.875162 1_555
Li3 O1 2.191554 1_565
Li4 O28 1.847776 1_555
Li4 O56 1.887159 1_555
Li4 O24 2.143793 1_555
Li4 O46 2.459509 1_555
Li5 O54 1.869307 1_555
Li5 O8 1.890047 1_556
Li5 O9 2.065638 1_565
Li5 O51 2.356024 1_555
O0 P13 1.478347 1_555
O1 P1 1.560106 1_555
O1 V5 1.974973 1_545
O2 P8 1.603666 1_555
O2 P1 1.629186 1_555
O3 P8 1.492348 1_555
O4 P0 1.551855 1_555
O4 V0 1.882470 1_555
O5 P0 1.557014 1_555
O5 V1 1.959286 1_555
O6 P4 1.584034 1_555
O6 V5 1.910504 1_545
O7 P2 1.567625 1_555
O7 V5 1.861327 1_545
O8 P15 1.470223 1_555
O9 P5 1.558714 1_555
O9 V0 1.967308 1_555
O10 P3 1.597404 1_555
O10 V1 1.843341 1_555
O11 P3 1.596351 1_555
O11 V0 1.841214 1_555
O12 P1 1.555481 1_555
O12 V4 1.889905 1_555
O13 P3 1.476704 1_555
O14 P4 1.476151 1_555
O15 P7 1.554429 1_555
O15 V1 1.884269 1_555
O16 P4 1.582028 1_555
O16 V2 1.872039 1_555
O17 P4 1.591822 1_555
O17 V4 1.843939 1_555
O18 P2 1.551359 1_555
O18 V2 1.997345 1_555
O19 P6 1.607916 1_655
O19 P5 1.622816 1_555
O20 P5 1.482589 1_455
O21 P6 1.478067 1_555
O22 P5 1.551706 1_555
O22 V3 1.892194 1_655
O23 P3 1.555985 1_555
O23 V3 1.915054 1_655
O24 P9 1.562034 1_555
O24 V4 1.953536 1_555
O25 P8 1.547578 1_555
O25 V2 1.900994 1_455
O26 P9 1.559319 1_555
O26 V2 1.875936 1_555
O27 P1 1.478155 1_555
O28 P14 1.477825 1_555
O29 P6 1.546336 1_555
O29 V3 1.895362 1_555
O30 P7 1.551200 1_555
O30 V3 1.876350 1_655
O31 P14 1.597380 1_555
O31 P7 1.629740 1_555
O32 P6 1.562523 1_555
O32 V1 1.856965 1_555
O33 P12 1.574743 1_555
O33 V2 1.929631 1_455
O34 P10 1.584296 1_555
O34 V2 1.837179 1_455
O35 P10 1.463492 1_555
O36 P9 1.476615 1_455
O37 P9 1.612694 1_555
O37 P10 1.617287 1_655
O38 P13 1.543020 1_555
O38 V3 1.892403 1_555
O39 P11 1.577399 1_555
O39 V1 1.948557 1_555
O40 P8 1.558928 1_555
O40 V4 1.871759 1_555
O41 P11 1.589654 1_555
O41 V3 1.853645 1_555
O42 P12 1.481986 1_555
O43 P11 1.486598 1_555
O44 P14 1.564538 1_555
O44 V1 1.859197 1_555
O45 P12 1.602731 1_555
O45 V5 1.858869 1_555
O46 P12 1.573719 1_555
O46 V4 1.947575 1_555
O47 P10 1.574139 1_555
O47 V5 1.942017 1_555
O48 P13 1.612555 1_545
O48 P0 1.615052 1_555
O49 P0 1.481750 1_555
O50 P13 1.568991 1_555
O50 V0 1.849476 1_565
O51 P11 1.576424 1_555
O51 V0 1.964415 1_565
O52 P15 1.556883 1_555
O52 V4 1.865760 1_555
O53 P15 1.567732 1_555
O53 V5 1.852799 1_555
O54 P7 1.476884 1_555
O55 P14 1.554508 1_555
O55 V0 1.865263 1_565
O56 P2 1.478770 1_565
O57 P15 1.606287 1_545
O57 P2 1.622422 1_555
