# generated using pymatgen
data_V6F13
_symmetry_space_group_name_H-M   'P 1'
_cell_length_a   8.12772000
_cell_length_b   8.17500622
_cell_length_c   10.58373959
_cell_angle_alpha   72.19743382
_cell_angle_beta   75.68331330
_cell_angle_gamma   61.91100398
_symmetry_Int_Tables_number   1
_chemical_formula_structural   V6F13
_chemical_formula_sum   'V12 F26'
_cell_volume   586.20604568
_cell_formula_units_Z   2
loop_
 _symmetry_equiv_pos_site_id
 _symmetry_equiv_pos_as_xyz
  1  'x, y, z'
loop_
 _atom_site_type_symbol
 _atom_site_label
 _atom_site_symmetry_multiplicity
 _atom_site_fract_x
 _atom_site_fract_y
 _atom_site_fract_z
 _atom_site_occupancy
  V  V0  1  0.95512900  0.92625300  0.75428000  1
  V  V1  1  0.86565600  0.71999900  0.49816100  1
  V  V2  1  0.78123200  0.57508300  0.97785000  1
  V  V3  1  0.42011100  0.84453000  0.49803400  1
  V  V4  1  0.67806200  0.36758300  0.75143800  1
  V  V5  1  0.75858700  0.50269500  0.27223400  1
  V  V6  1  0.24141300  0.49730500  0.72776600  1
  V  V7  1  0.32193800  0.63241700  0.24856200  1
  V  V8  1  0.57988900  0.15547000  0.50196600  1
  V  V9  1  0.21876800  0.42491700  0.02215000  1
  V  V10  1  0.13434400  0.28000100  0.50183900  1
  V  V11  1  0.04487100  0.07374700  0.24572000  1
  F  F0  1  0.83745900  0.99503900  0.38607400  1
  F  F1  1  0.76499300  0.83069900  0.87001600  1
  F  F2  1  0.60337400  0.87663400  0.59829500  1
  F  F3  1  0.68558800  0.70502500  0.38719800  1
  F  F4  1  0.63246400  0.54384700  0.86444300  1
  F  F5  1  0.25933900  0.83841900  0.36211700  1
  F  F6  1  0.88454900  0.44513100  0.61380400  1
  F  F7  1  0.17040800  0.68670600  0.85571200  1
  F  F8  1  0.94763900  0.57824000  0.11523400  1
  F  F9  1  0.46608700  0.57154900  0.62419500  1
  F  F10  1  0.55369700  0.68223800  0.13883700  1
  F  F11  1  0.12070700  0.86063100  0.14986600  1
  F  F12  1  0.02196000  0.73126300  0.62875500  1
  F  F13  1  0.97804000  0.26873700  0.37124500  1
  F  F14  1  0.87929300  0.13936900  0.85013400  1
  F  F15  1  0.44630300  0.31776200  0.86116300  1
  F  F16  1  0.53391300  0.42845100  0.37580500  1
  F  F17  1  0.05236100  0.42176000  0.88476600  1
  F  F18  1  0.82959200  0.31329400  0.14428800  1
  F  F19  1  0.11545100  0.55486900  0.38619600  1
  F  F20  1  0.74066100  0.16158100  0.63788300  1
  F  F21  1  0.36753600  0.45615300  0.13555700  1
  F  F22  1  0.31441200  0.29497500  0.61280200  1
  F  F23  1  0.39662600  0.12336600  0.40170500  1
  F  F24  1  0.23500700  0.16930100  0.12998400  1
  F  F25  1  0.16254100  0.00496100  0.61392600  1
loop_
_geom_bond_atom_site_label_1
_geom_bond_atom_site_label_2
_geom_bond_distance
_geom_bond_site_symmetry_2
F0 V1 2.129219 1_555
F0 V11 2.158941 1_665
F0 V8 2.176090 1_565
F1 V2 2.010748 1_555
F1 V0 2.028375 1_555
F2 V1 2.109305 1_555
F2 V8 2.130109 1_565
F2 V3 2.175694 1_555
F3 V5 2.125520 1_555
F3 V3 2.140427 1_555
F3 V1 2.154722 1_555
F4 V4 1.993962 1_555
F4 V2 2.040542 1_555
F5 V7 2.160484 1_555
F5 V11 2.170741 1_565
F5 V3 2.194163 1_555
F6 V10 2.134469 1_655
F6 V4 2.137422 1_555
F6 V1 2.158040 1_555
F7 V0 2.113232 1_455
F7 V6 2.149022 1_555
F7 V9 2.254490 1_556
F8 V9 2.116151 1_655
F8 V5 2.122943 1_555
F8 V2 2.229931 1_554
F9 V3 2.131219 1_555
F9 V6 2.133419 1_555
F9 V4 2.152063 1_555
F10 V7 2.100976 1_555
F10 V5 2.124792 1_555
F10 V2 2.217943 1_554
F11 V7 2.006656 1_555
F11 V11 2.050546 1_565
F12 V6 2.103319 1_555
F12 V1 2.142236 1_455
F12 V0 2.173403 1_455
F13 V5 2.103319 1_555
F13 V10 2.142236 1_655
F13 V11 2.173403 1_655
F14 V4 2.006656 1_555
F14 V0 2.050546 1_545
F15 V4 2.100976 1_555
F15 V6 2.124792 1_555
F15 V9 2.217943 1_556
F16 V8 2.131219 1_555
F16 V5 2.133419 1_555
F16 V7 2.152063 1_555
F17 V2 2.116151 1_455
F17 V6 2.122943 1_555
F17 V9 2.229931 1_556
F18 V11 2.113232 1_655
F18 V5 2.149022 1_555
F18 V2 2.254490 1_554
F19 V1 2.134469 1_455
F19 V7 2.137422 1_555
F19 V10 2.158040 1_555
F20 V4 2.160484 1_555
F20 V0 2.170741 1_545
F20 V8 2.194163 1_555
F21 V7 1.993962 1_555
F21 V9 2.040542 1_555
F22 V6 2.125520 1_555
F22 V8 2.140427 1_555
F22 V10 2.154722 1_555
F23 V10 2.109305 1_555
F23 V3 2.130109 1_545
F23 V8 2.175694 1_555
F24 V9 2.010748 1_555
F24 V11 2.028375 1_555
F25 V10 2.129219 1_555
F25 V0 2.158941 1_445
F25 V3 2.176090 1_545
