# generated using pymatgen
data_Na2FeO3
_symmetry_space_group_name_H-M   'P 1'
_cell_length_a   5.63684923
_cell_length_b   9.28956303
_cell_length_c   5.63682034
_cell_angle_alpha   100.85450291
_cell_angle_beta   67.71777550
_cell_angle_gamma   79.14841917
_symmetry_Int_Tables_number   1
_chemical_formula_structural   Na2FeO3
_chemical_formula_sum   'Na8 Fe4 O12'
_cell_volume   257.05501046
_cell_formula_units_Z   4
loop_
 _symmetry_equiv_pos_site_id
 _symmetry_equiv_pos_as_xyz
  1  'x, y, z'
loop_
 _atom_site_type_symbol
 _atom_site_label
 _atom_site_symmetry_multiplicity
 _atom_site_fract_x
 _atom_site_fract_y
 _atom_site_fract_z
 _atom_site_occupancy
  Na  Na0  1  0.00767610  0.98288830  0.49353486  1
  Na  Na1  1  0.56911279  0.84435154  0.41171992  1
  Na  Na2  1  0.16320158  0.65457635  0.31807290  1
  Na  Na3  1  0.74219549  0.51623171  0.25885022  1
  Na  Na4  1  0.25783982  0.48284012  0.74340822  1
  Na  Na5  1  0.33968284  0.34433661  0.18234357  1
  Na  Na6  1  0.43318348  0.15455039  0.58805182  1
  Na  Na7  1  0.49279228  0.01615645  0.00892294  1
  Fe  Fe0  1  0.10448071  0.82906936  0.91593438  1
  Fe  Fe1  1  0.68365272  0.66962349  0.83612314  1
  Fe  Fe2  1  0.83542849  0.32906895  0.64716954  1
  Fe  Fe3  1  0.91557928  0.16963554  0.06798781  1
  O  O0  1  0.36137966  0.80738143  0.09905981  1
  O  O1  1  0.79541038  0.80602740  0.67717210  1
  O  O2  1  0.35255250  0.69259973  0.62046789  1
  O  O3  1  0.91954252  0.69130852  0.04076351  1
  O  O4  1  0.56452632  0.49929424  0.93679125  1
  O  O5  1  0.95120894  0.49928539  0.55021234  1
  O  O6  1  0.07444233  0.30604934  0.95627301  1
  O  O7  1  0.65243003  0.30740413  0.39030392  1
  O  O8  1  0.71076196  0.19134474  0.83218713  1
  O  O9  1  0.13085380  0.19257847  0.39901069  1
  O  O10  1  0.20143875  0.99931496  0.80026123  1
  O  O11  1  0.81473824  0.99932185  0.18691682  1
loop_
_geom_bond_atom_site_label_1
_geom_bond_atom_site_label_2
_geom_bond_distance
_geom_bond_site_symmetry_2
Na0 O8 2.271487 1_465
Na0 O9 2.275970 1_565
Na0 O10 2.366631 1_555
Na0 O0 2.371981 1_555
Na0 O1 2.375697 1_455
Na0 O11 2.378149 1_455
Na1 O3 2.232967 1_555
Na1 O2 2.246202 1_555
Na1 O10 2.326229 1_555
Na1 O1 2.338787 1_555
Na1 O11 2.387943 1_555
Na1 O0 2.466501 1_555
Na2 O0 2.235669 1_555
Na2 O1 2.240889 1_455
Na2 O5 2.322824 1_455
Na2 O2 2.337590 1_555
Na2 O4 2.394607 1_554
Na2 O3 2.469573 1_455
Na3 O6 2.274931 1_654
Na3 O7 2.279258 1_555
Na3 O3 2.364101 1_555
Na3 O5 2.367516 1_555
Na3 O4 2.377787 1_554
Na3 O2 2.378114 1_555
Na4 O3 2.271403 1_456
Na4 O2 2.276387 1_555
Na4 O5 2.363768 1_455
Na4 O7 2.370878 1_555
Na4 O6 2.376215 1_555
Na4 O4 2.380327 1_555
Na5 O8 2.232535 1_554
Na5 O9 2.246730 1_555
Na5 O5 2.326469 1_455
Na5 O6 2.336693 1_554
Na5 O4 2.387744 1_554
Na5 O7 2.467907 1_555
Na6 O7 2.235685 1_555
Na6 O6 2.241265 1_555
Na6 O10 2.321829 1_545
Na6 O9 2.335967 1_555
Na6 O11 2.394607 1_545
Na6 O8 2.473030 1_555
Na7 O1 2.273655 1_544
Na7 O0 2.279234 1_545
Na7 O8 2.363446 1_554
Na7 O10 2.365882 1_544
Na7 O11 2.378543 1_545
Na7 O9 2.380142 1_555
Fe0 O2 1.762829 1_555
Fe0 O3 1.872109 1_456
Fe0 O10 1.915360 1_555
Fe0 O11 1.930721 1_456
Fe0 O0 2.074886 1_556
Fe0 O1 2.588894 1_455
Fe1 O1 1.762210 1_555
Fe1 O0 1.871616 1_556
Fe1 O5 1.916644 1_555
Fe1 O4 1.930233 1_555
Fe1 O3 2.077429 1_556
Fe1 O2 2.583562 1_555
Fe2 O9 1.762946 1_655
Fe2 O8 1.871801 1_555
Fe2 O5 1.915334 1_555
Fe2 O4 1.930177 1_555
Fe2 O7 2.074137 1_555
Fe2 O6 2.590124 1_655
Fe3 O6 1.761959 1_654
Fe3 O7 1.872122 1_555
Fe3 O10 1.916753 1_644
Fe3 O11 1.929976 1_545
Fe3 O8 2.077806 1_554
Fe3 O9 2.581518 1_655
