# generated using pymatgen
data_Ba9La5Cl33
_symmetry_space_group_name_H-M   'P 1'
_cell_length_a   11.58642900
_cell_length_b   11.62012633
_cell_length_c   22.29045889
_cell_angle_alpha   100.16162910
_cell_angle_beta   99.46763857
_cell_angle_gamma   108.35265857
_symmetry_Int_Tables_number   1
_chemical_formula_structural   Ba9La5Cl33
_chemical_formula_sum   'Ba18 La10 Cl66'
_cell_volume   2724.89004916
_cell_formula_units_Z   2
loop_
 _symmetry_equiv_pos_site_id
 _symmetry_equiv_pos_as_xyz
  1  'x, y, z'
loop_
 _atom_site_type_symbol
 _atom_site_label
 _atom_site_symmetry_multiplicity
 _atom_site_fract_x
 _atom_site_fract_y
 _atom_site_fract_z
 _atom_site_occupancy
  Ba  Ba0  1  0.92766700  0.25450100  0.93060500  1
  Ba  Ba1  1  0.32071400  0.09257600  0.96743000  1
  Ba  Ba2  1  0.47106000  0.02097600  0.19438700  1
  Ba  Ba3  1  0.87042500  0.26857600  0.33891800  1
  Ba  Ba4  1  0.25068400  0.12273800  0.37576500  1
  Ba  Ba5  1  0.67717800  0.40020400  0.53813900  1
  Ba  Ba6  1  0.07234800  0.24198300  0.56406000  1
  Ba  Ba7  1  0.75623800  0.36164500  0.12246100  1
  Ba  Ba8  1  0.13415800  0.22676800  0.16071200  1
  Ba  Ba9  1  0.86584200  0.77323200  0.83928800  1
  Ba  Ba10  1  0.24376200  0.63835500  0.87753900  1
  Ba  Ba11  1  0.92765200  0.75801700  0.43594000  1
  Ba  Ba12  1  0.32282200  0.59979600  0.46186100  1
  Ba  Ba13  1  0.74931600  0.87726200  0.62423500  1
  Ba  Ba14  1  0.12957500  0.73142400  0.66108200  1
  Ba  Ba15  1  0.52894000  0.97902400  0.80561300  1
  Ba  Ba16  1  0.67928600  0.90742400  0.03257000  1
  Ba  Ba17  1  0.07233300  0.74549900  0.06939500  1
  La  La0  1  0.38216700  0.04447800  0.58644400  1
  La  La1  1  0.18113700  0.14400000  0.76604100  1
  La  La2  1  0.85527800  0.35055600  0.73268100  1
  La  La3  1  0.62442000  0.45805300  0.92519900  1
  La  La4  1  0.46192300  0.53506000  0.68774500  1
  La  La5  1  0.53807700  0.46494000  0.31225500  1
  La  La6  1  0.37558000  0.54194700  0.07480100  1
  La  La7  1  0.14472200  0.64944400  0.26731900  1
  La  La8  1  0.81886300  0.85600000  0.23395900  1
  La  La9  1  0.61783300  0.95552200  0.41355600  1
  Cl  Cl0  1  0.77397500  0.14184100  0.78330800  1
  Cl  Cl1  1  0.95183500  0.15635500  0.67589100  1
  Cl  Cl2  1  0.62163800  0.21231000  0.91981700  1
  Cl  Cl3  1  0.74211100  0.04476000  0.19457900  1
  Cl  Cl4  1  0.16252900  0.01787900  0.63753100  1
  Cl  Cl5  1  0.06456900  0.07746400  0.87328900  1
  Cl  Cl6  1  0.65355100  0.18446600  0.62807500  1
  Cl  Cl7  1  0.43860200  0.18041500  0.73795500  1
  Cl  Cl8  1  0.80824400  0.22054400  0.47361400  1
  Cl  Cl9  1  0.58130400  0.11499100  0.33964200  1
  Cl  Cl10  1  0.47958700  0.11772800  0.47541400  1
  Cl  Cl11  1  0.16228000  0.03747400  0.48899400  1
  Cl  Cl12  1  0.35769300  0.29889600  0.87903100  1
  Cl  Cl13  1  0.88608700  0.18576100  0.06113300  1
  Cl  Cl14  1  0.81745700  0.45385400  0.85456600  1
  Cl  Cl15  1  0.55150000  0.10515400  0.07363400  1
  Cl  Cl16  1  0.94295900  0.42866400  0.62661600  1
  Cl  Cl17  1  0.24085700  0.03533000  0.09362100  1
  Cl  Cl18  1  0.39738900  0.30174800  0.59078600  1
  Cl  Cl19  1  0.98162900  0.38414800  0.22649900  1
  Cl  Cl20  1  0.35304900  0.21339800  0.26375800  1
  Cl  Cl21  1  0.65598400  0.31572800  0.24208500  1
  Cl  Cl22  1  0.03140900  0.11461900  0.27476600  1
  Cl  Cl23  1  0.25167600  0.35882700  0.71125600  1
  Cl  Cl24  1  0.70324900  0.49904000  0.69353700  1
  Cl  Cl25  1  0.07368700  0.35215300  0.82139400  1
  Cl  Cl26  1  0.75089900  0.46686200  0.40467900  1
  Cl  Cl27  1  0.56796500  0.55993300  0.82102100  1
  Cl  Cl28  1  0.45188300  0.39419700  0.42242400  1
  Cl  Cl29  1  0.79782000  0.71255800  0.96843000  1
  Cl  Cl30  1  0.47391900  0.61058600  0.96607700  1
  Cl  Cl31  1  0.12621500  0.31682300  0.43692800  1
  Cl  Cl32  1  0.15124200  0.52874500  0.98458500  1
  Cl  Cl33  1  0.84875800  0.47125500  0.01541500  1
  Cl  Cl34  1  0.87378500  0.68317700  0.56307200  1
  Cl  Cl35  1  0.52608100  0.38941400  0.03392300  1
  Cl  Cl36  1  0.20218000  0.28744200  0.03157000  1
  Cl  Cl37  1  0.54811700  0.60580300  0.57757600  1
  Cl  Cl38  1  0.43203500  0.44006700  0.17897900  1
  Cl  Cl39  1  0.24910100  0.53313800  0.59532100  1
  Cl  Cl40  1  0.92631300  0.64784700  0.17860600  1
  Cl  Cl41  1  0.29675100  0.50096000  0.30646300  1
  Cl  Cl42  1  0.74832400  0.64117300  0.28874400  1
  Cl  Cl43  1  0.96859100  0.88538100  0.72523400  1
  Cl  Cl44  1  0.34401600  0.68427200  0.75791500  1
  Cl  Cl45  1  0.64695100  0.78660200  0.73624200  1
  Cl  Cl46  1  0.01837100  0.61585200  0.77350100  1
  Cl  Cl47  1  0.60261100  0.69825200  0.40921400  1
  Cl  Cl48  1  0.75914300  0.96467000  0.90637900  1
  Cl  Cl49  1  0.05704100  0.57133600  0.37338400  1
  Cl  Cl50  1  0.44850000  0.89484600  0.92636600  1
  Cl  Cl51  1  0.18254300  0.54614600  0.14543400  1
  Cl  Cl52  1  0.11391300  0.81423900  0.93886700  1
  Cl  Cl53  1  0.64230700  0.70110400  0.12096900  1
  Cl  Cl54  1  0.83772000  0.96252600  0.51100600  1
  Cl  Cl55  1  0.52041300  0.88227200  0.52458600  1
  Cl  Cl56  1  0.41869600  0.88500900  0.66035800  1
  Cl  Cl57  1  0.19175600  0.77945600  0.52638600  1
  Cl  Cl58  1  0.56139800  0.81958500  0.26204500  1
  Cl  Cl59  1  0.34644900  0.81553400  0.37192500  1
  Cl  Cl60  1  0.93543100  0.92253600  0.12671100  1
  Cl  Cl61  1  0.83747100  0.98212100  0.36246900  1
  Cl  Cl62  1  0.25788900  0.95524000  0.80542100  1
  Cl  Cl63  1  0.37836200  0.78769000  0.08018300  1
  Cl  Cl64  1  0.04816500  0.84364500  0.32410900  1
  Cl  Cl65  1  0.22602500  0.85815900  0.21669200  1
loop_
_geom_bond_atom_site_label_1
_geom_bond_atom_site_label_2
_geom_bond_distance
_geom_bond_site_symmetry_2
Ba0 Cl5 3.189756 1_655
Ba0 Cl48 3.212013 1_545
Ba0 Cl13 3.220920 1_556
Ba0 Cl32 3.276685 1_655
Ba0 Cl0 3.279767 1_555
Ba0 Cl33 3.330503 1_556
Ba0 Cl25 3.346158 1_655
Ba0 Cl2 3.384369 1_555
Ba0 Cl36 3.449978 1_656
Ba0 Cl14 3.522183 1_555
Ba1 Cl50 3.186716 1_545
Ba1 Cl15 3.213272 1_556
Ba1 Cl17 3.215526 1_556
Ba1 Cl52 3.240165 1_545
Ba1 Cl36 3.243399 1_556
Ba1 Cl5 3.276454 1_555
Ba1 Cl12 3.333449 1_555
Ba1 Cl35 3.409348 1_556
Ba1 Cl62 3.533833 1_545
Ba1 Cl2 3.728586 1_555
Ba2 Cl65 3.049724 1_545
Ba2 Cl3 3.063953 1_555
Ba2 Cl63 3.132817 1_545
Ba2 Cl9 3.133844 1_555
Ba2 Cl15 3.201651 1_555
Ba2 Cl17 3.260130 1_555
Ba2 Cl20 3.265129 1_555
Ba2 Cl21 3.285807 1_555
Ba2 Cl58 3.333918 1_545
Ba3 Cl31 3.203447 1_655
Ba3 Cl21 3.262311 1_555
Ba3 Cl9 3.266522 1_555
Ba3 Cl22 3.286423 1_655
Ba3 Cl26 3.295605 1_555
Ba3 Cl8 3.300742 1_555
Ba3 Cl19 3.301974 1_555
Ba3 Cl49 3.369274 1_655
Ba3 Cl61 3.373931 1_545
Ba3 Cl3 3.516360 1_555
Ba4 Cl22 3.069930 1_555
Ba4 Cl11 3.081360 1_555
Ba4 Cl20 3.140921 1_555
Ba4 Cl28 3.143301 1_555
Ba4 Cl10 3.189989 1_555
Ba4 Cl64 3.217266 1_545
Ba4 Cl31 3.261127 1_555
Ba5 Cl8 3.223144 1_555
Ba5 Cl34 3.245295 1_555
Ba5 Cl10 3.250491 1_555
Ba5 Cl16 3.257682 1_555
Ba5 Cl37 3.264617 1_555
Ba5 Cl28 3.328448 1_555
Ba5 Cl26 3.378147 1_555
Ba5 Cl24 3.382662 1_555
Ba5 Cl6 3.449646 1_555
Ba5 Cl18 3.547502 1_555
Ba6 Cl11 3.203555 1_555
Ba6 Cl31 3.207189 1_555
Ba6 Cl1 3.209200 1_455
Ba6 Cl39 3.234425 1_555
Ba6 Cl16 3.250511 1_455
Ba6 Cl8 3.286874 1_455
Ba6 Cl23 3.366722 1_555
Ba6 Cl54 3.370765 1_445
Ba6 Cl18 3.534026 1_555
Ba6 Cl4 3.634641 1_555
Ba7 Cl15 3.041161 1_555
Ba7 Cl33 3.085277 1_555
Ba7 Cl19 3.103200 1_555
Ba7 Cl21 3.142409 1_555
Ba7 Cl13 3.152212 1_555
Ba7 Cl40 3.178491 1_555
Ba7 Cl35 3.185201 1_555
Ba8 Cl17 3.143179 1_555
Ba8 Cl13 3.175022 1_455
Ba8 Cl20 3.192147 1_555
Ba8 Cl36 3.243047 1_555
Ba8 Cl19 3.249554 1_455
Ba8 Cl22 3.281263 1_555
Ba8 Cl60 3.424667 1_445
Ba8 Cl38 3.466324 1_555
Ba8 Cl51 3.660867 1_555
Ba8 Cl41 3.848345 1_555
Ba9 Cl48 3.143179 1_555
Ba9 Cl52 3.175022 1_655
Ba9 Cl45 3.192147 1_555
Ba9 Cl29 3.243047 1_555
Ba9 Cl46 3.249554 1_655
Ba9 Cl43 3.281263 1_555
Ba9 Cl5 3.424667 1_665
Ba9 Cl27 3.466324 1_555
Ba9 Cl14 3.660867 1_555
Ba9 Cl24 3.848345 1_555
Ba10 Cl50 3.041161 1_555
Ba10 Cl32 3.085277 1_555
Ba10 Cl46 3.103200 1_555
Ba10 Cl44 3.142409 1_555
Ba10 Cl52 3.152212 1_555
Ba10 Cl25 3.178491 1_555
Ba10 Cl30 3.185201 1_555
Ba11 Cl54 3.203555 1_555
Ba11 Cl34 3.207189 1_555
Ba11 Cl64 3.209200 1_655
Ba11 Cl26 3.234425 1_555
Ba11 Cl49 3.250511 1_655
Ba11 Cl57 3.286874 1_655
Ba11 Cl42 3.366722 1_555
Ba11 Cl11 3.370765 1_665
Ba11 Cl47 3.534026 1_555
Ba11 Cl61 3.634641 1_555
Ba12 Cl57 3.223144 1_555
Ba12 Cl31 3.245295 1_555
Ba12 Cl55 3.250491 1_555
Ba12 Cl49 3.257682 1_555
Ba12 Cl28 3.264617 1_555
Ba12 Cl37 3.328448 1_555
Ba12 Cl39 3.378147 1_555
Ba12 Cl41 3.382662 1_555
Ba12 Cl59 3.449646 1_555
Ba12 Cl47 3.547502 1_555
Ba13 Cl43 3.069930 1_555
Ba13 Cl54 3.081360 1_555
Ba13 Cl45 3.140921 1_555
Ba13 Cl37 3.143301 1_555
Ba13 Cl55 3.189989 1_555
Ba13 Cl1 3.217266 1_565
Ba13 Cl34 3.261127 1_555
Ba14 Cl34 3.203447 1_455
Ba14 Cl44 3.262311 1_555
Ba14 Cl56 3.266522 1_555
Ba14 Cl43 3.286423 1_455
Ba14 Cl39 3.295605 1_555
Ba14 Cl57 3.300742 1_555
Ba14 Cl46 3.301974 1_555
Ba14 Cl16 3.369274 1_455
Ba14 Cl4 3.373931 1_565
Ba14 Cl62 3.516360 1_555
Ba15 Cl0 3.049724 1_565
Ba15 Cl62 3.063953 1_555
Ba15 Cl2 3.132817 1_565
Ba15 Cl56 3.133844 1_555
Ba15 Cl50 3.201651 1_555
Ba15 Cl48 3.260130 1_555
Ba15 Cl45 3.265129 1_555
Ba15 Cl44 3.285807 1_555
Ba15 Cl7 3.333918 1_565
Ba16 Cl15 3.186716 1_565
Ba16 Cl50 3.213272 1_554
Ba16 Cl48 3.215526 1_554
Ba16 Cl13 3.240165 1_565
Ba16 Cl29 3.243399 1_554
Ba16 Cl60 3.276454 1_555
Ba16 Cl53 3.333449 1_555
Ba16 Cl30 3.409348 1_554
Ba16 Cl3 3.533833 1_565
Ba16 Cl63 3.728586 1_555
Ba17 Cl60 3.189756 1_455
Ba17 Cl17 3.212013 1_565
Ba17 Cl52 3.220920 1_554
Ba17 Cl33 3.276685 1_455
Ba17 Cl65 3.279767 1_555
Ba17 Cl32 3.330503 1_554
Ba17 Cl40 3.346158 1_455
Ba17 Cl63 3.384369 1_555
Ba17 Cl29 3.449978 1_454
Ba17 Cl51 3.522183 1_555
Cl0 La2 2.814195 1_555
Cl1 La2 2.999039 1_555
Cl1 La1 3.114934 1_655
Cl2 La3 2.826582 1_555
Cl3 La8 2.832546 1_545
Cl4 La0 2.906997 1_555
Cl4 La1 2.918298 1_555
Cl5 La1 3.032114 1_555
Cl6 La2 2.898829 1_555
Cl6 La0 2.946308 1_555
Cl7 La1 3.063143 1_555
Cl7 La0 3.327047 1_555
Cl8 La9 3.072211 1_545
Cl9 La9 2.769330 1_545
Cl10 La0 3.030027 1_555
Cl10 La9 3.119352 1_545
Cl11 La0 3.033532 1_555
Cl12 La1 2.855613 1_555
Cl12 La3 2.951784 1_555
Cl14 La2 2.930262 1_555
Cl14 La3 2.946823 1_555
Cl16 La2 2.900370 1_555
Cl18 La0 2.921969 1_555
Cl18 La4 2.950351 1_555
Cl19 La7 2.945913 1_655
Cl20 La5 2.912865 1_555
Cl21 La5 2.925183 1_555
Cl22 La8 3.092127 1_445
Cl23 La4 2.838963 1_555
Cl23 La1 2.917201 1_555
Cl24 La4 2.940641 1_555
Cl24 La2 2.963210 1_555
Cl25 La2 2.936959 1_455
Cl25 La1 3.204888 1_555
Cl26 La5 2.933096 1_555
Cl27 La3 2.860044 1_555
Cl27 La4 2.948097 1_555
Cl28 La5 2.950560 1_555
Cl29 La3 2.885657 1_555
Cl30 La6 2.970854 1_556
Cl30 La3 2.985259 1_555
Cl32 La6 2.957053 1_556
Cl33 La3 2.957053 1_554
Cl35 La3 2.970854 1_554
Cl35 La6 2.985259 1_555
Cl36 La6 2.885657 1_555
Cl37 La4 2.950560 1_555
Cl38 La6 2.860044 1_555
Cl38 La5 2.948097 1_555
Cl39 La4 2.933096 1_555
Cl40 La7 2.936959 1_655
Cl40 La8 3.204888 1_555
Cl41 La5 2.940641 1_555
Cl41 La7 2.963210 1_555
Cl42 La5 2.838963 1_555
Cl42 La8 2.917201 1_555
Cl43 La1 3.092127 1_665
Cl44 La4 2.925183 1_555
Cl45 La4 2.912865 1_555
Cl46 La2 2.945913 1_455
Cl47 La9 2.921969 1_555
Cl47 La5 2.950351 1_555
Cl49 La7 2.900370 1_555
Cl51 La7 2.930262 1_555
Cl51 La6 2.946823 1_555
Cl53 La8 2.855613 1_555
Cl53 La6 2.951784 1_555
Cl54 La9 3.033532 1_555
Cl55 La9 3.030027 1_555
Cl55 La0 3.119352 1_565
Cl56 La0 2.769330 1_565
Cl57 La0 3.072211 1_565
Cl58 La8 3.063143 1_555
Cl58 La9 3.327047 1_555
Cl59 La7 2.898829 1_555
Cl59 La9 2.946308 1_555
Cl60 La8 3.032114 1_555
Cl61 La9 2.906997 1_555
Cl61 La8 2.918298 1_555
Cl62 La1 2.832546 1_565
Cl63 La6 2.826582 1_555
Cl64 La7 2.999039 1_555
Cl64 La8 3.114934 1_455
Cl65 La7 2.814195 1_555
