# generated using pymatgen
data_Li2Fe3CuO8
_symmetry_space_group_name_H-M   'P 1'
_cell_length_a   8.41191900
_cell_length_b   8.41191900
_cell_length_c   8.41191900
_cell_angle_alpha   90.00000000
_cell_angle_beta   90.00000000
_cell_angle_gamma   90.00000000
_symmetry_Int_Tables_number   1
_chemical_formula_structural   Li2Fe3CuO8
_chemical_formula_sum   'Li8 Fe12 Cu4 O32'
_cell_volume   595.23059559
_cell_formula_units_Z   4
loop_
 _symmetry_equiv_pos_site_id
 _symmetry_equiv_pos_as_xyz
  1  'x, y, z'
loop_
 _atom_site_type_symbol
 _atom_site_label
 _atom_site_symmetry_multiplicity
 _atom_site_fract_x
 _atom_site_fract_y
 _atom_site_fract_z
 _atom_site_occupancy
  Li  Li0  1  0.00393800  0.00393800  0.00393800  1
  Li  Li1  1  0.24606200  0.24606200  0.24606200  1
  Li  Li2  1  0.25393800  0.75393800  0.74606200  1
  Li  Li3  1  0.49606200  0.99606200  0.50393800  1
  Li  Li4  1  0.50393800  0.49606200  0.99606200  1
  Li  Li5  1  0.74606200  0.25393800  0.75393800  1
  Li  Li6  1  0.75393800  0.74606200  0.25393800  1
  Li  Li7  1  0.99606200  0.50393800  0.49606200  1
  Fe  Fe0  1  0.12450300  0.12549700  0.62500000  1
  Fe  Fe1  1  0.12500000  0.37549700  0.87450300  1
  Fe  Fe2  1  0.12549700  0.62500000  0.12450300  1
  Fe  Fe3  1  0.37450300  0.37500000  0.62450300  1
  Fe  Fe4  1  0.37500000  0.62450300  0.37450300  1
  Fe  Fe5  1  0.37549700  0.87450300  0.12500000  1
  Fe  Fe6  1  0.62450300  0.37450300  0.37500000  1
  Fe  Fe7  1  0.62500000  0.12450300  0.12549700  1
  Fe  Fe8  1  0.62549700  0.87500000  0.87549700  1
  Fe  Fe9  1  0.87450300  0.12500000  0.37549700  1
  Fe  Fe10  1  0.87500000  0.87549700  0.62549700  1
  Fe  Fe11  1  0.87549700  0.62549700  0.87500000  1
  Cu  Cu0  1  0.12500000  0.87500000  0.37500000  1
  Cu  Cu1  1  0.37500000  0.12500000  0.87500000  1
  Cu  Cu2  1  0.62500000  0.62500000  0.62500000  1
  Cu  Cu3  1  0.87500000  0.37500000  0.12500000  1
  O  O0  1  0.11770300  0.10396800  0.38668400  1
  O  O1  1  0.11331600  0.88229700  0.60396800  1
  O  O2  1  0.11522800  0.61522800  0.88477200  1
  O  O3  1  0.14603200  0.13229700  0.86331600  1
  O  O4  1  0.10396800  0.38668400  0.11770300  1
  O  O5  1  0.13477200  0.36522800  0.63477200  1
  O  O6  1  0.13668400  0.64603200  0.36770300  1
  O  O7  1  0.13229700  0.86331600  0.14603200  1
  O  O8  1  0.36770300  0.13668400  0.64603200  1
  O  O9  1  0.36331600  0.35396800  0.86770300  1
  O  O10  1  0.36522800  0.63477200  0.13477200  1
  O  O11  1  0.39603200  0.61331600  0.61770300  1
  O  O12  1  0.35396800  0.86770300  0.36331600  1
  O  O13  1  0.38477200  0.38477200  0.38477200  1
  O  O14  1  0.38668400  0.11770300  0.10396800  1
  O  O15  1  0.38229700  0.89603200  0.88668400  1
  O  O16  1  0.61770300  0.39603200  0.61331600  1
  O  O17  1  0.61331600  0.61770300  0.39603200  1
  O  O18  1  0.61522800  0.88477200  0.11522800  1
  O  O19  1  0.64603200  0.36770300  0.13668400  1
  O  O20  1  0.60396800  0.11331600  0.88229700  1
  O  O21  1  0.63477200  0.13477200  0.36522800  1
  O  O22  1  0.63668400  0.85396800  0.63229700  1
  O  O23  1  0.63229700  0.63668400  0.85396800  1
  O  O24  1  0.86770300  0.36331600  0.35396800  1
  O  O25  1  0.86331600  0.14603200  0.13229700  1
  O  O26  1  0.86522800  0.86522800  0.86522800  1
  O  O27  1  0.89603200  0.88668400  0.38229700  1
  O  O28  1  0.85396800  0.63229700  0.63668400  1
  O  O29  1  0.88477200  0.11522800  0.61522800  1
  O  O30  1  0.88668400  0.38229700  0.89603200  1
  O  O31  1  0.88229700  0.60396800  0.11331600  1
loop_
_geom_bond_atom_site_label_1
_geom_bond_atom_site_label_2
_geom_bond_distance
_geom_bond_site_symmetry_2
Li0 O25 1.998451 1_455
Li0 O3 1.998451 1_554
Li0 O7 1.998451 1_545
Li0 O26 2.020987 1_444
Li1 O4 1.998451 1_555
Li1 O14 1.998451 1_555
Li1 O0 1.998451 1_555
Li1 O13 2.020987 1_555
Li2 O11 1.998451 1_555
Li2 O1 1.998451 1_555
Li2 O15 1.998451 1_555
Li2 O2 2.020987 1_555
Li3 O12 1.998451 1_555
Li3 O8 1.998451 1_565
Li3 O22 1.998451 1_555
Li3 O21 2.020987 1_565
Li4 O9 1.998451 1_555
Li4 O23 1.998451 1_555
Li4 O19 1.998451 1_556
Li4 O10 2.020987 1_556
Li5 O16 1.998451 1_555
Li5 O20 1.998451 1_555
Li5 O30 1.998451 1_555
Li5 O29 2.020987 1_555
Li6 O31 1.998451 1_555
Li6 O17 1.998451 1_555
Li6 O27 1.998451 1_555
Li6 O18 2.020987 1_555
Li7 O24 1.998451 1_555
Li7 O28 1.998451 1_555
Li7 O6 1.998451 1_655
Li7 O5 2.020987 1_655
Fe0 O3 2.013671 1_555
Fe0 O0 2.013671 1_555
Fe0 O29 2.020120 1_455
Fe0 O5 2.020120 1_555
Fe0 O8 2.055570 1_555
Fe0 O1 2.055570 1_545
Fe1 O30 2.013671 1_455
Fe1 O9 2.013671 1_555
Fe1 O2 2.020120 1_555
Fe1 O5 2.020120 1_555
Fe1 O3 2.055570 1_555
Fe1 O4 2.055570 1_556
Fe2 O7 2.013671 1_555
Fe2 O4 2.013671 1_555
Fe2 O10 2.020120 1_555
Fe2 O2 2.020120 1_554
Fe2 O6 2.055570 1_555
Fe2 O31 2.055570 1_455
Fe3 O11 2.013671 1_555
Fe3 O8 2.013671 1_555
Fe3 O5 2.020120 1_555
Fe3 O13 2.020120 1_555
Fe3 O9 2.055570 1_555
Fe3 O16 2.055570 1_555
Fe4 O17 2.013671 1_555
Fe4 O6 2.013671 1_555
Fe4 O10 2.020120 1_555
Fe4 O13 2.020120 1_555
Fe4 O12 2.055570 1_555
Fe4 O11 2.055570 1_555
Fe5 O15 2.013671 1_554
Fe5 O12 2.013671 1_555
Fe5 O18 2.020120 1_555
Fe5 O10 2.020120 1_555
Fe5 O7 2.055570 1_555
Fe5 O14 2.055570 1_565
Fe6 O16 2.013671 1_555
Fe6 O19 2.013671 1_555
Fe6 O21 2.020120 1_555
Fe6 O13 2.020120 1_555
Fe6 O24 2.055570 1_555
Fe6 O17 2.055570 1_555
Fe7 O25 2.013671 1_555
Fe7 O14 2.013671 1_555
Fe7 O18 2.020120 1_545
Fe7 O21 2.020120 1_555
Fe7 O19 2.055570 1_555
Fe7 O20 2.055570 1_554
Fe8 O23 2.013671 1_555
Fe8 O20 2.013671 1_565
Fe8 O26 2.020120 1_555
Fe8 O18 2.020120 1_556
Fe8 O22 2.055570 1_555
Fe8 O15 2.055570 1_555
Fe9 O27 2.013671 1_545
Fe9 O24 2.013671 1_555
Fe9 O29 2.020120 1_555
Fe9 O21 2.020120 1_555
Fe9 O25 2.055570 1_555
Fe9 O0 2.055570 1_655
Fe10 O22 2.013671 1_555
Fe10 O1 2.013671 1_655
Fe10 O26 2.020120 1_555
Fe10 O29 2.020120 1_565
Fe10 O28 2.055570 1_555
Fe10 O27 2.055570 1_555
Fe11 O28 2.013671 1_555
Fe11 O31 2.013671 1_556
Fe11 O26 2.020120 1_555
Fe11 O2 2.020120 1_655
Fe11 O23 2.055570 1_555
Fe11 O30 2.055570 1_555
Cu0 O6 1.929543 1_555
Cu0 O27 1.929543 1_455
Cu0 O1 1.929543 1_555
Cu0 O7 1.929543 1_555
Cu0 O12 1.929543 1_555
Cu0 O0 1.929543 1_565
Cu1 O20 1.929543 1_555
Cu1 O15 1.929543 1_545
Cu1 O8 1.929543 1_555
Cu1 O9 1.929543 1_555
Cu1 O3 1.929543 1_555
Cu1 O14 1.929543 1_556
Cu2 O28 1.929543 1_555
Cu2 O22 1.929543 1_555
Cu2 O23 1.929543 1_555
Cu2 O16 1.929543 1_555
Cu2 O17 1.929543 1_555
Cu2 O11 1.929543 1_555
Cu3 O31 1.929543 1_555
Cu3 O19 1.929543 1_555
Cu3 O30 1.929543 1_554
Cu3 O24 1.929543 1_555
Cu3 O25 1.929543 1_555
Cu3 O4 1.929543 1_655
