# generated using pymatgen
data_Li4TiS4
_symmetry_space_group_name_H-M   'P 1'
_cell_length_a   11.02714000
_cell_length_b   11.02714000
_cell_length_c   11.02714000
_cell_angle_alpha   90.00000000
_cell_angle_beta   90.00000000
_cell_angle_gamma   90.00000000
_symmetry_Int_Tables_number   1
_chemical_formula_structural   Li4TiS4
_chemical_formula_sum   'Li32 Ti8 S32'
_cell_volume   1340.87614712
_cell_formula_units_Z   8
loop_
 _symmetry_equiv_pos_site_id
 _symmetry_equiv_pos_as_xyz
  1  'x, y, z'
loop_
 _atom_site_type_symbol
 _atom_site_label
 _atom_site_symmetry_multiplicity
 _atom_site_fract_x
 _atom_site_fract_y
 _atom_site_fract_z
 _atom_site_occupancy
  Li  Li0  1  0.08157700  0.15041400  0.65952500  1
  Li  Li1  1  0.08157700  0.84958600  0.34047500  1
  Li  Li2  1  0.15041400  0.34047500  0.91842300  1
  Li  Li3  1  0.15041400  0.65952500  0.08157700  1
  Li  Li4  1  0.15952500  0.34958600  0.41842300  1
  Li  Li5  1  0.16199500  0.83800500  0.83800500  1
  Li  Li6  1  0.16199500  0.16199500  0.16199500  1
  Li  Li7  1  0.15952500  0.65041400  0.58157700  1
  Li  Li8  1  0.34047500  0.08157700  0.84958600  1
  Li  Li9  1  0.33800500  0.33800500  0.66199500  1
  Li  Li10  1  0.33800500  0.66199500  0.33800500  1
  Li  Li11  1  0.34047500  0.91842300  0.15041400  1
  Li  Li12  1  0.34958600  0.41842300  0.15952500  1
  Li  Li13  1  0.34958600  0.58157700  0.84047500  1
  Li  Li14  1  0.41842300  0.15952500  0.34958600  1
  Li  Li15  1  0.41842300  0.84047500  0.65041400  1
  Li  Li16  1  0.58157700  0.15952500  0.65041400  1
  Li  Li17  1  0.58157700  0.84047500  0.34958600  1
  Li  Li18  1  0.65041400  0.41842300  0.84047500  1
  Li  Li19  1  0.65041400  0.58157700  0.15952500  1
  Li  Li20  1  0.65952500  0.08157700  0.15041400  1
  Li  Li21  1  0.66199500  0.33800500  0.33800500  1
  Li  Li22  1  0.66199500  0.66199500  0.66199500  1
  Li  Li23  1  0.65952500  0.91842300  0.84958600  1
  Li  Li24  1  0.83800500  0.16199500  0.83800500  1
  Li  Li25  1  0.84047500  0.34958600  0.58157700  1
  Li  Li26  1  0.84047500  0.65041400  0.41842300  1
  Li  Li27  1  0.83800500  0.83800500  0.16199500  1
  Li  Li28  1  0.84958600  0.34047500  0.08157700  1
  Li  Li29  1  0.84958600  0.65952500  0.91842300  1
  Li  Li30  1  0.91842300  0.15041400  0.34047500  1
  Li  Li31  1  0.91842300  0.84958600  0.65952500  1
  Ti  Ti0  1  0.00000000  0.00000000  0.00000000  1
  Ti  Ti1  1  0.00000000  0.50000000  0.25000000  1
  Ti  Ti2  1  0.00000000  0.50000000  0.75000000  1
  Ti  Ti3  1  0.25000000  0.00000000  0.50000000  1
  Ti  Ti4  1  0.50000000  0.50000000  0.50000000  1
  Ti  Ti5  1  0.50000000  0.25000000  0.00000000  1
  Ti  Ti6  1  0.50000000  0.75000000  0.00000000  1
  Ti  Ti7  1  0.75000000  0.00000000  0.50000000  1
  S  S0  1  0.11552600  0.37681000  0.63545600  1
  S  S1  1  0.11552600  0.62319000  0.36454400  1
  S  S2  1  0.11801300  0.11801300  0.88198700  1
  S  S3  1  0.11801300  0.88198700  0.11801300  1
  S  S4  1  0.12319000  0.38447400  0.13545600  1
  S  S5  1  0.12319000  0.61552600  0.86454400  1
  S  S6  1  0.13545600  0.12319000  0.38447400  1
  S  S7  1  0.13545600  0.87681000  0.61552600  1
  S  S8  1  0.36454400  0.11552600  0.62319000  1
  S  S9  1  0.36454400  0.88447400  0.37681000  1
  S  S10  1  0.37681000  0.36454400  0.88447400  1
  S  S11  1  0.37681000  0.63545600  0.11552600  1
  S  S12  1  0.38198700  0.38198700  0.38198700  1
  S  S13  1  0.38198700  0.61801300  0.61801300  1
  S  S14  1  0.38447400  0.13545600  0.12319000  1
  S  S15  1  0.38447400  0.86454400  0.87681000  1
  S  S16  1  0.61552600  0.13545600  0.87681000  1
  S  S17  1  0.61552600  0.86454400  0.12319000  1
  S  S18  1  0.61801300  0.38198700  0.61801300  1
  S  S19  1  0.61801300  0.61801300  0.38198700  1
  S  S20  1  0.62319000  0.36454400  0.11552600  1
  S  S21  1  0.62319000  0.63545600  0.88447400  1
  S  S22  1  0.63545600  0.11552600  0.37681000  1
  S  S23  1  0.63545600  0.88447400  0.62319000  1
  S  S24  1  0.86454400  0.12319000  0.61552600  1
  S  S25  1  0.86454400  0.87681000  0.38447400  1
  S  S26  1  0.87681000  0.38447400  0.86454400  1
  S  S27  1  0.87681000  0.61552600  0.13545600  1
  S  S28  1  0.88198700  0.11801300  0.11801300  1
  S  S29  1  0.88198700  0.88198700  0.88198700  1
  S  S30  1  0.88447400  0.37681000  0.36454400  1
  S  S31  1  0.88447400  0.62319000  0.63545600  1
loop_
_geom_bond_atom_site_label_1
_geom_bond_atom_site_label_2
_geom_bond_distance
_geom_bond_site_symmetry_2
Li0 S24 2.460322 1_455
Li0 S2 2.511351 1_555
Li0 S0 2.538327 1_555
Li1 S25 2.460322 1_455
Li1 S3 2.511351 1_555
Li1 S1 2.538327 1_555
Li2 S4 2.460322 1_556
Li2 S2 2.511351 1_555
Li2 S10 2.538327 1_555
Li3 S5 2.460322 1_554
Li3 S3 2.511351 1_555
Li3 S11 2.538327 1_555
Li4 S0 2.460322 1_555
Li4 S12 2.511351 1_555
Li4 S6 2.538327 1_555
Li5 S5 2.507482 1_555
Li5 S7 2.507482 1_555
Li5 S15 2.507482 1_555
Li6 S6 2.507482 1_555
Li6 S4 2.507482 1_555
Li6 S14 2.507482 1_555
Li7 S1 2.460322 1_555
Li7 S13 2.511351 1_555
Li7 S7 2.538327 1_555
Li8 S15 2.460322 1_545
Li8 S2 2.511351 1_555
Li8 S8 2.538327 1_555
Li9 S10 2.507482 1_555
Li9 S8 2.507482 1_555
Li9 S0 2.507482 1_555
Li10 S11 2.507482 1_555
Li10 S9 2.507482 1_555
Li10 S1 2.507482 1_555
Li11 S14 2.460322 1_565
Li11 S3 2.511351 1_555
Li11 S9 2.538327 1_555
Li12 S11 2.460322 1_555
Li12 S12 2.511351 1_555
Li12 S4 2.538327 1_555
Li13 S10 2.460322 1_555
Li13 S13 2.511351 1_555
Li13 S5 2.538327 1_555
Li14 S22 2.460322 1_555
Li14 S12 2.511351 1_555
Li14 S14 2.538327 1_555
Li15 S23 2.460322 1_555
Li15 S13 2.511351 1_555
Li15 S15 2.538327 1_555
Li16 S8 2.460322 1_555
Li16 S18 2.511351 1_555
Li16 S16 2.538327 1_555
Li17 S9 2.460322 1_555
Li17 S19 2.511351 1_555
Li17 S17 2.538327 1_555
Li18 S21 2.460322 1_555
Li18 S18 2.511351 1_555
Li18 S26 2.538327 1_555
Li19 S20 2.460322 1_555
Li19 S19 2.511351 1_555
Li19 S27 2.538327 1_555
Li20 S17 2.460322 1_545
Li20 S28 2.511351 1_555
Li20 S22 2.538327 1_555
Li21 S22 2.507482 1_555
Li21 S30 2.507482 1_555
Li21 S20 2.507482 1_555
Li22 S31 2.507482 1_555
Li22 S21 2.507482 1_555
Li22 S23 2.507482 1_555
Li23 S16 2.460322 1_565
Li23 S29 2.511351 1_555
Li23 S23 2.538327 1_555
Li24 S26 2.507482 1_555
Li24 S24 2.507482 1_555
Li24 S16 2.507482 1_555
Li25 S30 2.460322 1_555
Li25 S18 2.511351 1_555
Li25 S24 2.538327 1_555
Li26 S31 2.460322 1_555
Li26 S19 2.511351 1_555
Li26 S25 2.538327 1_555
Li27 S27 2.507482 1_555
Li27 S25 2.507482 1_555
Li27 S17 2.507482 1_555
Li28 S26 2.460322 1_554
Li28 S28 2.511351 1_555
Li28 S20 2.538327 1_555
Li29 S27 2.460322 1_556
Li29 S29 2.511351 1_555
Li29 S21 2.538327 1_555
Li30 S6 2.460322 1_655
Li30 S28 2.511351 1_555
Li30 S30 2.538327 1_555
Li31 S7 2.460322 1_655
Li31 S29 2.511351 1_555
Li31 S31 2.538327 1_555
S0 Ti2 2.250249 1_555
S1 Ti1 2.250249 1_555
S2 Ti0 2.253997 1_556
S3 Ti0 2.253997 1_565
S4 Ti1 2.250249 1_555
S5 Ti2 2.250249 1_555
S6 Ti3 2.250249 1_555
S7 Ti3 2.250249 1_565
S8 Ti3 2.250249 1_555
S9 Ti3 2.250249 1_565
S10 Ti5 2.250249 1_556
S11 Ti6 2.250249 1_555
S12 Ti4 2.253997 1_555
S13 Ti4 2.253997 1_555
S14 Ti5 2.250249 1_555
S15 Ti6 2.250249 1_556
S16 Ti5 2.250249 1_556
S17 Ti6 2.250249 1_555
S18 Ti4 2.253997 1_555
S19 Ti4 2.253997 1_555
S20 Ti5 2.250249 1_555
S21 Ti6 2.250249 1_556
S22 Ti7 2.250249 1_555
S23 Ti7 2.250249 1_565
S24 Ti7 2.250249 1_555
S25 Ti7 2.250249 1_565
S26 Ti2 2.250249 1_655
S27 Ti1 2.250249 1_655
S28 Ti0 2.253997 1_655
S29 Ti0 2.253997 1_666
S30 Ti1 2.250249 1_655
S31 Ti2 2.250249 1_655
