# generated using pymatgen
data_MnCd6O8
_symmetry_space_group_name_H-M   'P 1'
_cell_length_a   9.41135000
_cell_length_b   9.41135000
_cell_length_c   11.52650265
_cell_angle_alpha   65.90515745
_cell_angle_beta   65.90515745
_cell_angle_gamma   90.00000000
_symmetry_Int_Tables_number   1
_chemical_formula_structural   MnCd6O8
_chemical_formula_sum   'Mn4 Cd24 O32'
_cell_volume   833.59629226
_cell_formula_units_Z   4
loop_
 _symmetry_equiv_pos_site_id
 _symmetry_equiv_pos_as_xyz
  1  'x, y, z'
loop_
 _atom_site_type_symbol
 _atom_site_label
 _atom_site_symmetry_multiplicity
 _atom_site_fract_x
 _atom_site_fract_y
 _atom_site_fract_z
 _atom_site_occupancy
  Mn  Mn0  1  0.50000000  0.50000000  0.00000000  1
  Mn  Mn1  1  0.75000000  0.25000000  0.50000000  1
  Mn  Mn2  1  0.25000000  0.75000000  0.50000000  1
  Mn  Mn3  1  0.00000000  0.00000000  0.00000000  1
  Cd  Cd0  1  0.12500000  0.37500000  0.75000000  1
  Cd  Cd1  1  0.37500000  0.12500000  0.25000000  1
  Cd  Cd2  1  0.62500000  0.87500000  0.75000000  1
  Cd  Cd3  1  0.87500000  0.62500000  0.25000000  1
  Cd  Cd4  1  0.25000000  0.25000000  0.00000000  1
  Cd  Cd5  1  0.50000000  0.00000000  0.50000000  1
  Cd  Cd6  1  0.75000000  0.75000000  0.00000000  1
  Cd  Cd7  1  0.00000000  0.50000000  0.50000000  1
  Cd  Cd8  1  0.37500000  0.62500000  0.75000000  1
  Cd  Cd9  1  0.62500000  0.37500000  0.25000000  1
  Cd  Cd10  1  0.87500000  0.12500000  0.75000000  1
  Cd  Cd11  1  0.12500000  0.87500000  0.25000000  1
  Cd  Cd12  1  0.37500000  0.12500000  0.75000000  1
  Cd  Cd13  1  0.62500000  0.87500000  0.25000000  1
  Cd  Cd14  1  0.87500000  0.62500000  0.75000000  1
  Cd  Cd15  1  0.12500000  0.37500000  0.25000000  1
  Cd  Cd16  1  0.50000000  0.50000000  0.50000000  1
  Cd  Cd17  1  0.75000000  0.25000000  0.00000000  1
  Cd  Cd18  1  0.00000000  0.00000000  0.50000000  1
  Cd  Cd19  1  0.25000000  0.75000000  0.00000000  1
  Cd  Cd20  1  0.62500000  0.37500000  0.75000000  1
  Cd  Cd21  1  0.87500000  0.12500000  0.25000000  1
  Cd  Cd22  1  0.12500000  0.87500000  0.75000000  1
  Cd  Cd23  1  0.37500000  0.62500000  0.25000000  1
  O  O0  1  0.37500000  0.37500000  0.75000000  1
  O  O1  1  0.62500000  0.12500000  0.25000000  1
  O  O2  1  0.87500000  0.87500000  0.75000000  1
  O  O3  1  0.12500000  0.62500000  0.25000000  1
  O  O4  1  0.62500000  0.62500000  0.25000000  1
  O  O5  1  0.87500000  0.37500000  0.75000000  1
  O  O6  1  0.12500000  0.12500000  0.25000000  1
  O  O7  1  0.37500000  0.87500000  0.75000000  1
  O  O8  1  0.21007800  0.00000000  0.00000000  1
  O  O9  1  0.46007800  0.75000000  0.50000000  1
  O  O10  1  0.71007800  0.50000000  0.00000000  1
  O  O11  1  0.96007800  0.25000000  0.50000000  1
  O  O12  1  0.64496100  0.14496100  0.71007800  1
  O  O13  1  0.89496100  0.89496100  0.21007800  1
  O  O14  1  0.14496100  0.64496100  0.71007800  1
  O  O15  1  0.39496100  0.39496100  0.21007800  1
  O  O16  1  0.50000000  0.28992200  0.00000000  1
  O  O17  1  0.75000000  0.03992200  0.50000000  1
  O  O18  1  0.00000000  0.78992200  0.00000000  1
  O  O19  1  0.25000000  0.53992200  0.50000000  1
  O  O20  1  0.35503900  0.85503900  0.28992200  1
  O  O21  1  0.60503900  0.60503900  0.78992200  1
  O  O22  1  0.85503900  0.35503900  0.28992200  1
  O  O23  1  0.10503900  0.10503900  0.78992200  1
  O  O24  1  0.50000000  0.71007800  0.00000000  1
  O  O25  1  0.75000000  0.46007800  0.50000000  1
  O  O26  1  0.00000000  0.21007800  0.00000000  1
  O  O27  1  0.25000000  0.96007800  0.50000000  1
  O  O28  1  0.78992200  0.00000000  0.00000000  1
  O  O29  1  0.03992200  0.75000000  0.50000000  1
  O  O30  1  0.28992200  0.50000000  0.00000000  1
  O  O31  1  0.53992200  0.25000000  0.50000000  1
loop_
_geom_bond_atom_site_label_1
_geom_bond_atom_site_label_2
_geom_bond_distance
_geom_bond_site_symmetry_2
Mn0 O10 1.977118 1_555
Mn0 O30 1.977118 1_555
Mn0 O16 1.977118 1_555
Mn0 O21 1.977118 1_554
Mn0 O24 1.977118 1_555
Mn0 O15 1.977118 1_555
Mn1 O17 1.977118 1_555
Mn1 O11 1.977118 1_555
Mn1 O31 1.977118 1_555
Mn1 O25 1.977118 1_555
Mn1 O12 1.977118 1_555
Mn1 O22 1.977118 1_555
Mn2 O19 1.977118 1_555
Mn2 O20 1.977118 1_555
Mn2 O14 1.977118 1_555
Mn2 O27 1.977118 1_555
Mn2 O9 1.977118 1_555
Mn2 O29 1.977118 1_555
Mn3 O18 1.977118 1_545
Mn3 O13 1.977118 1_445
Mn3 O26 1.977118 1_555
Mn3 O8 1.977118 1_555
Mn3 O23 1.977118 1_554
Mn3 O28 1.977118 1_455
Cd0 O0 2.352838 1_555
Cd0 O5 2.352838 1_455
Cd0 O26 2.382648 1_556
Cd0 O19 2.382648 1_555
Cd0 O23 2.382648 1_555
Cd0 O14 2.382648 1_555
Cd1 O1 2.352838 1_555
Cd1 O6 2.352838 1_555
Cd1 O20 2.382648 1_545
Cd1 O15 2.382648 1_555
Cd1 O27 2.382648 1_545
Cd1 O16 2.382648 1_555
Cd2 O7 2.352838 1_555
Cd2 O2 2.352838 1_555
Cd2 O12 2.382648 1_565
Cd2 O24 2.382648 1_556
Cd2 O21 2.382648 1_555
Cd2 O17 2.382648 1_565
Cd3 O3 2.352838 1_655
Cd3 O4 2.352838 1_555
Cd3 O18 2.382648 1_655
Cd3 O13 2.382648 1_555
Cd3 O22 2.382648 1_555
Cd3 O25 2.382648 1_555
Cd4 O0 2.352838 1_554
Cd4 O6 2.352838 1_555
Cd4 O26 2.382648 1_555
Cd4 O30 2.382648 1_555
Cd4 O8 2.382648 1_555
Cd4 O16 2.382648 1_555
Cd5 O1 2.352838 1_555
Cd5 O7 2.352838 1_545
Cd5 O31 2.382648 1_555
Cd5 O27 2.382648 1_545
Cd5 O9 2.382648 1_545
Cd5 O17 2.382648 1_555
Cd6 O4 2.352838 1_555
Cd6 O2 2.352838 1_554
Cd6 O24 2.382648 1_555
Cd6 O18 2.382648 1_655
Cd6 O10 2.382648 1_555
Cd6 O28 2.382648 1_565
Cd7 O3 2.352838 1_555
Cd7 O5 2.352838 1_455
Cd7 O29 2.382648 1_555
Cd7 O19 2.382648 1_555
Cd7 O11 2.382648 1_455
Cd7 O25 2.382648 1_455
Cd8 O0 2.352838 1_555
Cd8 O7 2.352838 1_555
Cd8 O9 2.382648 1_555
Cd8 O30 2.382648 1_556
Cd8 O14 2.382648 1_555
Cd8 O21 2.382648 1_555
Cd9 O1 2.352838 1_555
Cd9 O4 2.352838 1_555
Cd9 O31 2.382648 1_555
Cd9 O15 2.382648 1_555
Cd9 O10 2.382648 1_555
Cd9 O22 2.382648 1_555
Cd10 O2 2.352838 1_545
Cd10 O5 2.352838 1_555
Cd10 O12 2.382648 1_555
Cd10 O28 2.382648 1_556
Cd10 O11 2.382648 1_555
Cd10 O23 2.382648 1_655
Cd11 O3 2.352838 1_555
Cd11 O6 2.352838 1_565
Cd11 O8 2.382648 1_565
Cd11 O29 2.382648 1_555
Cd11 O13 2.382648 1_455
Cd11 O20 2.382648 1_555
Cd12 O7 2.352838 1_545
Cd12 O0 2.352838 1_555
Cd12 O31 2.382648 1_555
Cd12 O12 2.382648 1_555
Cd12 O23 2.382648 1_555
Cd12 O8 2.382648 1_556
Cd13 O4 2.352838 1_555
Cd13 O1 2.352838 1_565
Cd13 O9 2.382648 1_555
Cd13 O13 2.382648 1_555
Cd13 O20 2.382648 1_555
Cd13 O28 2.382648 1_565
Cd14 O5 2.352838 1_555
Cd14 O2 2.352838 1_555
Cd14 O14 2.382648 1_655
Cd14 O10 2.382648 1_556
Cd14 O29 2.382648 1_655
Cd14 O21 2.382648 1_555
Cd15 O3 2.352838 1_555
Cd15 O6 2.352838 1_555
Cd15 O15 2.382648 1_555
Cd15 O11 2.382648 1_455
Cd15 O30 2.382648 1_555
Cd15 O22 2.382648 1_455
Cd16 O0 2.352838 1_555
Cd16 O4 2.352838 1_555
Cd16 O31 2.382648 1_555
Cd16 O9 2.382648 1_555
Cd16 O19 2.382648 1_555
Cd16 O25 2.382648 1_555
Cd17 O1 2.352838 1_555
Cd17 O5 2.352838 1_554
Cd17 O28 2.382648 1_555
Cd17 O10 2.382648 1_555
Cd17 O16 2.382648 1_555
Cd17 O26 2.382648 1_655
Cd18 O6 2.352838 1_555
Cd18 O2 2.352838 1_445
Cd18 O29 2.382648 1_545
Cd18 O17 2.382648 1_455
Cd18 O27 2.382648 1_545
Cd18 O11 2.382648 1_455
Cd19 O3 2.352838 1_555
Cd19 O7 2.352838 1_554
Cd19 O18 2.382648 1_555
Cd19 O24 2.382648 1_555
Cd19 O8 2.382648 1_565
Cd19 O30 2.382648 1_555
Cd20 O0 2.352838 1_555
Cd20 O5 2.352838 1_555
Cd20 O12 2.382648 1_555
Cd20 O16 2.382648 1_556
Cd20 O21 2.382648 1_555
Cd20 O25 2.382648 1_555
Cd21 O1 2.352838 1_555
Cd21 O6 2.352838 1_655
Cd21 O13 2.382648 1_545
Cd21 O22 2.382648 1_555
Cd21 O17 2.382648 1_555
Cd21 O26 2.382648 1_655
Cd22 O7 2.352838 1_555
Cd22 O2 2.352838 1_455
Cd22 O27 2.382648 1_555
Cd22 O14 2.382648 1_555
Cd22 O18 2.382648 1_556
Cd22 O23 2.382648 1_565
Cd23 O3 2.352838 1_555
Cd23 O4 2.352838 1_555
Cd23 O15 2.382648 1_555
Cd23 O24 2.382648 1_555
Cd23 O20 2.382648 1_555
Cd23 O19 2.382648 1_555
