# generated using pymatgen
data_Na3MnBPO7
_symmetry_space_group_name_H-M   'P 1'
_cell_length_a   5.20766410
_cell_length_b   11.25792500
_cell_length_c   11.25722219
_cell_angle_alpha   102.82497231
_cell_angle_beta   91.60988775
_cell_angle_gamma   88.38661057
_symmetry_Int_Tables_number   1
_chemical_formula_structural   Na3MnBPO7
_chemical_formula_sum   'Na12 Mn4 B4 P4 O28'
_cell_volume   643.10122230
_cell_formula_units_Z   4
loop_
 _symmetry_equiv_pos_site_id
 _symmetry_equiv_pos_as_xyz
  1  'x, y, z'
loop_
 _atom_site_type_symbol
 _atom_site_label
 _atom_site_symmetry_multiplicity
 _atom_site_fract_x
 _atom_site_fract_y
 _atom_site_fract_z
 _atom_site_occupancy
  Na  Na0  1  0.76741400  0.16479400  0.08517200  1
  Na  Na1  1  0.76742000  0.66474100  0.58521200  1
  Na  Na2  1  0.23250600  0.83516700  0.91476100  1
  Na  Na3  1  0.23256400  0.33515300  0.41477200  1
  Na  Na4  1  0.25656900  0.13466300  0.87347300  1
  Na  Na5  1  0.25651700  0.63462900  0.37345600  1
  Na  Na6  1  0.25645200  0.37652100  0.11535000  1
  Na  Na7  1  0.25664200  0.87649000  0.61525400  1
  Na  Na8  1  0.74362700  0.62341300  0.88459800  1
  Na  Na9  1  0.74337000  0.12338800  0.38467500  1
  Na  Na10  1  0.74337600  0.86527500  0.12649800  1
  Na  Na11  1  0.74356600  0.36525200  0.62650200  1
  Mn  Mn0  1  0.78137400  0.04450900  0.70553100  1
  Mn  Mn1  1  0.21838000  0.95549500  0.29440800  1
  Mn  Mn2  1  0.78170700  0.54453600  0.20580100  1
  Mn  Mn3  1  0.21855600  0.45557800  0.79446600  1
  B  B0  1  0.72492500  0.40891100  0.34114600  1
  B  B1  1  0.72491300  0.90892200  0.84107000  1
  B  B2  1  0.27509700  0.59108000  0.65887600  1
  B  B3  1  0.27502300  0.09106600  0.15891400  1
  P  P0  1  0.72318600  0.33420400  0.91586100  1
  P  P1  1  0.72313700  0.83412200  0.41590500  1
  P  P2  1  0.27691800  0.66590000  0.08417000  1
  P  P3  1  0.27679900  0.16588800  0.58413000  1
  O  O0  1  0.30627300  0.16628000  0.08376600  1
  O  O1  1  0.30630700  0.66627500  0.58370900  1
  O  O2  1  0.69365900  0.83371100  0.91623500  1
  O  O3  1  0.69377100  0.33367500  0.41626600  1
  O  O4  1  0.96340700  0.44426600  0.30586000  1
  O  O5  1  0.96334200  0.94422500  0.80577200  1
  O  O6  1  0.03664000  0.55581100  0.69422100  1
  O  O7  1  0.03654000  0.05576500  0.19420500  1
  O  O8  1  0.52525100  0.46535700  0.28479800  1
  O  O9  1  0.52514800  0.96534500  0.78472300  1
  O  O10  1  0.47484300  0.53466500  0.71523500  1
  O  O11  1  0.47476900  0.03464600  0.21524800  1
  O  O12  1  0.42765000  0.35737500  0.89251800  1
  O  O13  1  0.42761300  0.85732000  0.39255300  1
  O  O14  1  0.57238800  0.64271400  0.10751200  1
  O  O15  1  0.57234600  0.14266200  0.60740300  1
  O  O16  1  0.12607300  0.59109600  0.15888800  1
  O  O17  1  0.12604400  0.09106600  0.65885200  1
  O  O18  1  0.87405300  0.40899300  0.84108500  1
  O  O19  1  0.87391700  0.90892100  0.34113400  1
  O  O20  1  0.78600700  0.19632200  0.87576700  1
  O  O21  1  0.78607000  0.69624800  0.37579500  1
  O  O22  1  0.78572700  0.37424800  0.05376300  1
  O  O23  1  0.78572600  0.87420000  0.55378500  1
  O  O24  1  0.21432700  0.62581400  0.94626600  1
  O  O25  1  0.21422400  0.12577300  0.44621800  1
  O  O26  1  0.21390400  0.80376200  0.12422300  1
  O  O27  1  0.21394700  0.30376800  0.62420200  1
loop_
_geom_bond_atom_site_label_1
_geom_bond_atom_site_label_2
_geom_bond_distance
_geom_bond_site_symmetry_2
Na0 O7 2.335103 1_655
Na0 O0 2.400687 1_555
Na0 O20 2.465466 1_554
Na0 O22 2.465574 1_555
Na0 O11 2.795913 1_555
Na0 O0 2.807228 1_655
Na1 O6 2.334516 1_655
Na1 O1 2.400509 1_555
Na1 O21 2.465536 1_555
Na1 O23 2.465699 1_555
Na1 O10 2.794787 1_555
Na1 O1 2.807431 1_655
Na2 O5 2.335110 1_455
Na2 O2 2.400741 1_555
Na2 O24 2.464786 1_555
Na2 O26 2.465610 1_556
Na2 O9 2.795846 1_555
Na2 O2 2.807180 1_455
Na3 O4 2.334935 1_455
Na3 O3 2.401012 1_555
Na3 O25 2.464908 1_555
Na3 O27 2.465178 1_555
Na3 O8 2.795700 1_555
Na3 O3 2.806916 1_455
Na4 O0 2.322617 1_556
Na4 O9 2.381353 1_545
Na4 O17 2.437259 1_555
Na4 O20 2.527334 1_455
Na4 O5 2.627297 1_445
Na4 O12 2.646236 1_555
Na4 O20 2.860091 1_555
Na5 O1 2.322191 1_555
Na5 O8 2.381194 1_555
Na5 O16 2.436598 1_555
Na5 O21 2.526636 1_455
Na5 O4 2.626176 1_455
Na5 O13 2.645961 1_555
Na5 O21 2.860516 1_555
Na6 O0 2.322250 1_555
Na6 O8 2.383313 1_555
Na6 O16 2.436677 1_555
Na6 O22 2.527990 1_455
Na6 O4 2.627199 1_455
Na6 O12 2.647362 1_554
Na6 O22 2.859013 1_555
Na7 O1 2.321922 1_555
Na7 O9 2.382652 1_555
Na7 O17 2.436973 1_565
Na7 O23 2.528618 1_455
Na7 O5 2.628049 1_455
Na7 O13 2.645514 1_555
Na7 O23 2.857679 1_555
Na8 O2 2.322905 1_555
Na8 O10 2.382351 1_555
Na8 O18 2.435105 1_555
Na8 O24 2.528054 1_655
Na8 O6 2.625800 1_655
Na8 O14 2.648065 1_556
Na8 O24 2.859280 1_555
Na9 O3 2.322652 1_555
Na9 O11 2.382282 1_555
Na9 O19 2.435760 1_545
Na9 O25 2.528486 1_655
Na9 O7 2.627114 1_655
Na9 O15 2.645737 1_555
Na9 O25 2.858138 1_555
Na10 O2 2.322333 1_554
Na10 O11 2.381850 1_565
Na10 O19 2.437433 1_555
Na10 O26 2.526766 1_655
Na10 O7 2.627557 1_665
Na10 O14 2.644557 1_555
Na10 O26 2.859839 1_555
Na11 O3 2.322060 1_555
Na11 O10 2.382475 1_555
Na11 O18 2.436790 1_555
Na11 O27 2.525943 1_655
Na11 O6 2.627887 1_655
Na11 O15 2.645124 1_555
Na11 O27 2.860474 1_555
Mn0 O9 1.963670 1_545
Mn0 O5 1.972622 1_545
Mn0 O17 2.000211 1_655
Mn0 O15 2.008185 1_555
Mn0 O20 2.267113 1_555
Mn0 O23 2.267250 1_545
Mn1 O11 1.963978 1_565
Mn1 O7 1.971922 1_565
Mn1 O19 1.999477 1_455
Mn1 O13 2.009020 1_555
Mn1 O26 2.266207 1_555
Mn1 O25 2.267414 1_565
Mn2 O8 1.963353 1_555
Mn2 O4 1.970485 1_555
Mn2 O16 1.999693 1_655
Mn2 O14 2.010336 1_555
Mn2 O21 2.264612 1_555
Mn2 O22 2.268940 1_555
Mn3 O10 1.963649 1_555
Mn3 O6 1.972138 1_555
Mn3 O18 1.999293 1_455
Mn3 O12 2.008169 1_555
Mn3 O24 2.267032 1_555
Mn3 O27 2.267306 1_555
B0 O3 1.338758 1_555
B0 O4 1.408671 1_555
B0 O8 1.411424 1_555
B1 O2 1.339014 1_555
B1 O5 1.408256 1_555
B1 O9 1.411618 1_555
B2 O1 1.338856 1_555
B2 O6 1.408441 1_555
B2 O10 1.411571 1_555
B3 O0 1.338889 1_555
B3 O7 1.408471 1_555
B3 O11 1.411452 1_555
O12 P0 1.578252 1_555
O13 P1 1.578263 1_555
O14 P2 1.577948 1_555
O15 P3 1.578278 1_555
O16 P2 1.556472 1_555
O17 P3 1.556388 1_555
O18 P0 1.556860 1_555
O19 P1 1.556655 1_555
O20 P0 1.545618 1_555
O21 P1 1.545660 1_555
O22 P0 1.545445 1_554
O23 P1 1.545290 1_555
O24 P2 1.545551 1_556
O25 P3 1.545644 1_555
O26 P2 1.545566 1_555
O27 P3 1.545610 1_555
