# generated using pymatgen
data_Na3NiPCO7
_symmetry_space_group_name_H-M   'P 1'
_cell_length_a   8.46026914
_cell_length_b   8.46040065
_cell_length_c   8.86780037
_cell_angle_alpha   90.54684773
_cell_angle_beta   89.45100038
_cell_angle_gamma   78.18566341
_symmetry_Int_Tables_number   1
_chemical_formula_structural   Na3NiPCO7
_chemical_formula_sum   'Na12 Ni4 P4 C4 O28'
_cell_volume   621.21540016
_cell_formula_units_Z   4
loop_
 _symmetry_equiv_pos_site_id
 _symmetry_equiv_pos_as_xyz
  1  'x, y, z'
loop_
 _atom_site_type_symbol
 _atom_site_label
 _atom_site_symmetry_multiplicity
 _atom_site_fract_x
 _atom_site_fract_y
 _atom_site_fract_z
 _atom_site_occupancy
  Na  Na0  1  0.24376100  0.24165800  0.00134800  1
  Na  Na1  1  0.74358700  0.74166000  0.00104000  1
  Na  Na2  1  0.99165600  0.99367500  0.99878500  1
  Na  Na3  1  0.49166900  0.49367300  0.99881700  1
  Na  Na4  1  0.33350900  0.89462000  0.16162400  1
  Na  Na5  1  0.83358600  0.39452500  0.16153900  1
  Na  Na6  1  0.64461400  0.08346900  0.83837200  1
  Na  Na7  1  0.14453700  0.58362600  0.83845900  1
  Na  Na8  1  0.49361400  0.99548300  0.49800400  1
  Na  Na9  1  0.99360300  0.49548400  0.49802900  1
  Na  Na10  1  0.74555700  0.24347600  0.50203100  1
  Na  Na11  1  0.24540000  0.74375900  0.50193900  1
  Ni  Ni0  1  0.89177600  0.84522400  0.28706200  1
  Ni  Ni1  1  0.09524100  0.14182300  0.71292400  1
  Ni  Ni2  1  0.39182900  0.34520600  0.28728500  1
  Ni  Ni3  1  0.59521600  0.64176200  0.71271700  1
  P  P0  1  0.60889400  0.62824700  0.34694800  1
  P  P1  1  0.10894200  0.12828600  0.34709600  1
  P  P2  1  0.37829300  0.35895000  0.65305600  1
  P  P3  1  0.87823500  0.85889600  0.65289300  1
  C  C0  1  0.61838200  0.11898100  0.16383100  1
  C  C1  1  0.11825300  0.61907900  0.16379700  1
  C  C2  1  0.36895300  0.86836600  0.83617300  1
  C  C3  1  0.86910000  0.36826100  0.83620500  1
  O  O0  1  0.53039100  0.20688400  0.06226200  1
  O  O1  1  0.03025000  0.70710800  0.06229600  1
  O  O2  1  0.45693500  0.78043700  0.93774300  1
  O  O3  1  0.95706100  0.28018900  0.93769500  1
  O  O4  1  0.73502700  0.00009900  0.12163800  1
  O  O5  1  0.23482900  0.50021900  0.12156000  1
  O  O6  1  0.25006700  0.98499600  0.87836900  1
  O  O7  1  0.75026600  0.48486300  0.87845800  1
  O  O8  1  0.06167900  0.98705900  0.25257500  1
  O  O9  1  0.56147100  0.48705900  0.25247600  1
  O  O10  1  0.73696400  0.81152500  0.74728200  1
  O  O11  1  0.23709700  0.31163300  0.74760500  1
  O  O12  1  0.25327600  0.17173500  0.25439000  1
  O  O13  1  0.75313100  0.67165400  0.25405600  1
  O  O14  1  0.92156600  0.00317400  0.74576000  1
  O  O15  1  0.42183000  0.50317400  0.74586100  1
  O  O16  1  0.58779200  0.15259900  0.30454400  1
  O  O17  1  0.08769200  0.65256900  0.30457100  1
  O  O18  1  0.40250100  0.83770400  0.69546000  1
  O  O19  1  0.90261700  0.33775700  0.69543000  1
  O  O20  1  0.46628800  0.77318900  0.35888600  1
  O  O21  1  0.96630000  0.27322100  0.35892400  1
  O  O22  1  0.52319400  0.21630100  0.64111800  1
  O  O23  1  0.02319400  0.71627700  0.64107700  1
  O  O24  1  0.17057300  0.06414700  0.50416200  1
  O  O25  1  0.67071100  0.56407300  0.50395600  1
  O  O26  1  0.81419800  0.92063500  0.49582500  1
  O  O27  1  0.31409400  0.42073100  0.49604800  1
loop_
_geom_bond_atom_site_label_1
_geom_bond_atom_site_label_2
_geom_bond_distance
_geom_bond_site_symmetry_2
Na0 O12 2.323994 1_555
Na0 O11 2.330449 1_554
Na0 O5 2.411149 1_555
Na0 O6 2.411151 1_544
Na0 O0 2.448429 1_555
Na0 O3 2.452385 1_454
Na1 O13 2.323949 1_555
Na1 O10 2.330344 1_554
Na1 O7 2.410087 1_554
Na1 O4 2.412210 1_565
Na1 O1 2.449554 1_655
Na1 O2 2.451096 1_554
Na2 O14 2.324228 1_565
Na2 O8 2.330982 1_656
Na2 O4 2.410175 1_566
Na2 O6 2.411070 1_655
Na2 O3 2.447982 1_565
Na2 O1 2.450980 1_656
Na3 O15 2.323090 1_555
Na3 O9 2.329375 1_556
Na3 O5 2.411164 1_556
Na3 O7 2.412085 1_555
Na3 O2 2.449901 1_555
Na3 O0 2.452578 1_556
Na4 O20 2.230859 1_555
Na4 O2 2.340033 1_554
Na4 O8 2.401445 1_555
Na4 O12 2.436186 1_565
Na4 O6 2.691095 1_554
Na5 O21 2.231104 1_555
Na5 O3 2.340309 1_554
Na5 O9 2.403647 1_555
Na5 O13 2.435722 1_555
Na5 O7 2.689350 1_554
Na6 O22 2.230955 1_555
Na6 O0 2.340176 1_556
Na6 O10 2.402655 1_545
Na6 O14 2.434485 1_555
Na6 O4 2.691133 1_556
Na7 O23 2.230980 1_555
Na7 O1 2.340152 1_556
Na7 O11 2.402570 1_555
Na7 O15 2.437152 1_555
Na7 O5 2.689581 1_556
Na8 O20 2.291642 1_555
Na8 O22 2.305588 1_565
Na8 O16 2.407483 1_565
Na8 O18 2.425321 1_555
Na8 O26 2.655753 1_555
Na8 O24 2.675113 1_565
Na9 O21 2.291308 1_555
Na9 O23 2.305121 1_655
Na9 O17 2.406977 1_655
Na9 O19 2.424239 1_555
Na9 O27 2.654973 1_655
Na9 O25 2.673860 1_555
Na10 O22 2.291568 1_555
Na10 O21 2.305353 1_555
Na10 O19 2.407230 1_555
Na10 O16 2.424651 1_555
Na10 O25 2.655912 1_555
Na10 O26 2.673505 1_545
Na11 O23 2.291410 1_555
Na11 O20 2.305362 1_555
Na11 O18 2.406979 1_555
Na11 O17 2.424707 1_555
Na11 O24 2.654175 1_565
Na11 O27 2.675031 1_555
Ni0 O26 2.011895 1_555
Ni0 O8 2.074744 1_655
Ni0 O13 2.078856 1_555
Ni0 O17 2.081253 1_655
Ni0 O4 2.233811 1_565
Ni0 O1 2.461891 1_655
Ni1 O24 2.011936 1_555
Ni1 O11 2.074507 1_555
Ni1 O14 2.079380 1_455
Ni1 O19 2.081176 1_455
Ni1 O6 2.234057 1_545
Ni1 O3 2.461788 1_455
Ni2 O27 2.012464 1_555
Ni2 O9 2.073486 1_555
Ni2 O12 2.077479 1_555
Ni2 O16 2.081057 1_555
Ni2 O5 2.237163 1_555
Ni2 O0 2.464636 1_555
Ni3 O25 2.012288 1_555
Ni3 O10 2.073374 1_555
Ni3 O15 2.077388 1_555
Ni3 O18 2.081510 1_555
Ni3 O7 2.236996 1_555
Ni3 O2 2.464884 1_555
C0 O16 1.289112 1_555
C0 O4 1.305673 1_555
C0 O0 1.310511 1_555
C1 O17 1.289414 1_555
C1 O5 1.305317 1_555
C1 O1 1.310625 1_555
C2 O18 1.289100 1_555
C2 O6 1.305624 1_555
C2 O2 1.310583 1_555
C3 O19 1.289390 1_555
C3 O7 1.305351 1_555
C3 O3 1.310561 1_555
O8 P1 1.572588 1_565
O9 P0 1.572654 1_555
O10 P3 1.572605 1_555
O11 P2 1.572652 1_555
O12 P1 1.572388 1_555
O13 P0 1.572429 1_555
O14 P3 1.572388 1_545
O15 P2 1.572421 1_555
O20 P0 1.536165 1_555
O21 P1 1.536264 1_655
O22 P2 1.536169 1_555
O23 P3 1.536266 1_455
O24 P1 1.555247 1_555
O25 P0 1.555298 1_555
O26 P3 1.555264 1_555
O27 P2 1.555276 1_555
