# generated using pymatgen
data_BaGa4O7
_symmetry_space_group_name_H-M   'P 1'
_cell_length_a   8.32268700
_cell_length_b   8.32268700
_cell_length_c   5.80289342
_cell_angle_alpha   78.06207485
_cell_angle_beta   78.06207485
_cell_angle_gamma   69.12435356
_symmetry_Int_Tables_number   1
_chemical_formula_structural   BaGa4O7
_chemical_formula_sum   'Ba2 Ga8 O14'
_cell_volume   363.52341690
_cell_formula_units_Z   2
loop_
 _symmetry_equiv_pos_site_id
 _symmetry_equiv_pos_as_xyz
  1  'x, y, z'
loop_
 _atom_site_type_symbol
 _atom_site_label
 _atom_site_symmetry_multiplicity
 _atom_site_fract_x
 _atom_site_fract_y
 _atom_site_fract_z
 _atom_site_occupancy
  Ba  Ba0  1  0.30885665  0.69114335  0.25000000  1
  Ba  Ba1  1  0.69114335  0.30885665  0.75000000  1
  Ga  Ga0  1  0.81517610  0.94278042  0.27786076  1
  Ga  Ga1  1  0.94278042  0.81517610  0.77786076  1
  Ga  Ga2  1  0.76112741  0.58689304  0.20487513  1
  Ga  Ga3  1  0.58689304  0.76112741  0.70487513  1
  Ga  Ga4  1  0.41310696  0.23887259  0.29512487  1
  Ga  Ga5  1  0.23887259  0.41310696  0.79512487  1
  Ga  Ga6  1  0.05721958  0.18482390  0.22213924  1
  Ga  Ga7  1  0.18482390  0.05721958  0.72213924  1
  O  O0  1  0.87404040  0.75434557  0.10685310  1
  O  O1  1  0.75434557  0.87404040  0.60685310  1
  O  O2  1  0.58602748  0.65898775  0.45364670  1
  O  O3  1  0.88618780  0.36935106  0.33040171  1
  O  O4  1  0.65898775  0.58602748  0.95364670  1
  O  O5  1  0.36935106  0.88618780  0.83040171  1
  O  O6  1  0.02253300  0.97746700  0.25000000  1
  O  O7  1  0.97746700  0.02253300  0.75000000  1
  O  O8  1  0.63064894  0.11381220  0.16959829  1
  O  O9  1  0.34101225  0.41397252  0.04635330  1
  O  O10  1  0.11381220  0.63064894  0.66959829  1
  O  O11  1  0.41397252  0.34101225  0.54635330  1
  O  O12  1  0.24565443  0.12595960  0.39314690  1
  O  O13  1  0.12595960  0.24565443  0.89314690  1
loop_
_geom_bond_atom_site_label_1
_geom_bond_atom_site_label_2
_geom_bond_distance
_geom_bond_site_symmetry_2
Ba0 O5 2.693949 1_554
Ba0 O10 2.693949 1_555
Ba0 O6 2.703733 1_555
Ba0 O2 2.710433 1_555
Ba0 O9 2.710433 1_555
Ba0 O11 2.991102 1_555
Ba0 O4 2.991102 1_554
Ba1 O3 2.693949 1_555
Ba1 O8 2.693949 1_556
Ba1 O7 2.703733 1_555
Ba1 O4 2.710433 1_555
Ba1 O11 2.710433 1_555
Ba1 O9 2.991102 1_556
Ba1 O2 2.991102 1_555
Ga0 O8 1.802958 1_565
Ga0 O6 1.818811 1_655
Ga0 O0 1.891932 1_555
Ga0 O1 1.892887 1_555
Ga1 O10 1.802958 1_655
Ga1 O7 1.818811 1_565
Ga1 O1 1.891932 1_555
Ga1 O0 1.892887 1_556
Ga2 O3 1.821261 1_555
Ga2 O4 1.835598 1_554
Ga2 O2 1.852716 1_555
Ga2 O0 1.879686 1_555
Ga3 O5 1.821261 1_555
Ga3 O2 1.835598 1_555
Ga3 O4 1.852716 1_555
Ga3 O1 1.879686 1_555
Ga4 O8 1.821261 1_555
Ga4 O11 1.835598 1_555
Ga4 O9 1.852716 1_555
Ga4 O12 1.879686 1_555
Ga5 O10 1.821261 1_555
Ga5 O9 1.835598 1_556
Ga5 O11 1.852716 1_555
Ga5 O13 1.879686 1_555
Ga6 O3 1.802958 1_455
Ga6 O6 1.818811 1_545
Ga6 O12 1.891932 1_555
Ga6 O13 1.892887 1_554
Ga7 O5 1.802958 1_545
Ga7 O7 1.818811 1_455
Ga7 O13 1.891932 1_555
Ga7 O12 1.892887 1_555
