# generated using pymatgen
data_Ta2Zn4O9
_symmetry_space_group_name_H-M   'P 1'
_cell_length_a   5.26078800
_cell_length_b   9.46592900
_cell_length_c   16.01050151
_cell_angle_alpha   56.24671192
_cell_angle_beta   90.00000000
_cell_angle_gamma   90.00000000
_symmetry_Int_Tables_number   1
_chemical_formula_structural   Ta2Zn4O9
_chemical_formula_sum   'Ta8 Zn16 O36'
_cell_volume   662.90105012
_cell_formula_units_Z   4
loop_
 _symmetry_equiv_pos_site_id
 _symmetry_equiv_pos_as_xyz
  1  'x, y, z'
loop_
 _atom_site_type_symbol
 _atom_site_label
 _atom_site_symmetry_multiplicity
 _atom_site_fract_x
 _atom_site_fract_y
 _atom_site_fract_z
 _atom_site_occupancy
  Ta  Ta0  1  0.00634200  0.99934100  0.33990200  1
  Ta  Ta1  1  0.98956400  0.49485600  0.83891300  1
  Ta  Ta2  1  0.50634200  0.00065900  0.16009800  1
  Ta  Ta3  1  0.48956400  0.50514400  0.66108700  1
  Ta  Ta4  1  0.51043600  0.49485600  0.33891300  1
  Ta  Ta5  1  0.49365800  0.99934100  0.83990200  1
  Ta  Ta6  1  0.01043600  0.50514400  0.16108700  1
  Ta  Ta7  1  0.99365800  0.00065900  0.66009800  1
  Zn  Zn0  1  0.50000000  0.50000000  0.00000000  1
  Zn  Zn1  1  0.50000000  0.00000000  0.50000000  1
  Zn  Zn2  1  0.48928700  0.75487600  0.73730000  1
  Zn  Zn3  1  0.00013400  0.24502100  0.09373900  1
  Zn  Zn4  1  0.00116000  0.73810000  0.57381900  1
  Zn  Zn5  1  0.50116000  0.26190000  0.92618100  1
  Zn  Zn6  1  0.50013400  0.75497900  0.40626100  1
  Zn  Zn7  1  0.98928700  0.24512400  0.76270000  1
  Zn  Zn8  1  0.00000000  0.00000000  0.00000000  1
  Zn  Zn9  1  0.01071300  0.75487600  0.23730000  1
  Zn  Zn10  1  0.00000000  0.50000000  0.50000000  1
  Zn  Zn11  1  0.49986600  0.24502100  0.59373900  1
  Zn  Zn12  1  0.49884000  0.73810000  0.07381900  1
  Zn  Zn13  1  0.99884000  0.26190000  0.42618100  1
  Zn  Zn14  1  0.99986600  0.75497900  0.90626100  1
  Zn  Zn15  1  0.51071300  0.24512400  0.26270000  1
  O  O0  1  0.88651300  0.25238100  0.22343400  1
  O  O1  1  0.16218700  0.08816100  0.40988000  1
  O  O2  1  0.67974800  0.57190100  0.86659000  1
  O  O3  1  0.16542000  0.42251700  0.96308300  1
  O  O4  1  0.68092700  0.94576100  0.40722500  1
  O  O5  1  0.37514900  0.73695400  0.61431200  1
  O  O6  1  0.62871500  0.23268600  0.06156900  1
  O  O7  1  0.32987200  0.06000100  0.25315900  1
  O  O8  1  0.82815700  0.55449500  0.70654300  1
  O  O9  1  0.32815700  0.44550500  0.79345700  1
  O  O10  1  0.82987200  0.93999900  0.24684100  1
  O  O11  1  0.12871500  0.76731400  0.43843100  1
  O  O12  1  0.87514900  0.26304600  0.88568800  1
  O  O13  1  0.18092700  0.05423900  0.09277500  1
  O  O14  1  0.66542000  0.57748300  0.53691700  1
  O  O15  1  0.17974800  0.42809900  0.63341000  1
  O  O16  1  0.66218700  0.91183900  0.09012000  1
  O  O17  1  0.38651300  0.74761900  0.27656600  1
  O  O18  1  0.61348700  0.25238100  0.72343400  1
  O  O19  1  0.33781300  0.08816100  0.90988000  1
  O  O20  1  0.82025200  0.57190100  0.36659000  1
  O  O21  1  0.33458000  0.42251700  0.46308300  1
  O  O22  1  0.81907300  0.94576100  0.90722500  1
  O  O23  1  0.12485100  0.73695400  0.11431200  1
  O  O24  1  0.87128500  0.23268600  0.56156900  1
  O  O25  1  0.17012800  0.06000100  0.75315900  1
  O  O26  1  0.67184300  0.55449500  0.20654300  1
  O  O27  1  0.17184300  0.44550500  0.29345700  1
  O  O28  1  0.67012800  0.93999900  0.74684100  1
  O  O29  1  0.37128500  0.76731400  0.93843100  1
  O  O30  1  0.62485100  0.26304600  0.38568800  1
  O  O31  1  0.31907300  0.05423900  0.59277500  1
  O  O32  1  0.83458000  0.57748300  0.03691700  1
  O  O33  1  0.32025200  0.42809900  0.13341000  1
  O  O34  1  0.83781300  0.91183900  0.59012000  1
  O  O35  1  0.11348700  0.74761900  0.77656600  1
loop_
_geom_bond_atom_site_label_1
_geom_bond_atom_site_label_2
_geom_bond_distance
_geom_bond_site_symmetry_2
O0 Zn15 2.064097 1_555
O0 Ta6 2.119464 1_655
O0 Ta0 2.156041 1_645
O0 Zn3 2.198790 1_655
O1 Ta0 1.918615 1_545
O1 Zn13 1.997059 1_455
O1 Zn1 2.144424 1_555
O2 Ta1 1.934904 1_555
O2 Zn0 2.074677 1_556
O2 Zn2 2.074767 1_555
O3 Ta1 1.940175 1_455
O3 Zn3 2.012291 1_556
O3 Zn0 2.113569 1_556
O4 Ta0 1.934501 1_655
O4 Zn6 2.048709 1_555
O4 Zn1 2.055080 1_565
O5 Ta3 1.977876 1_555
O5 Zn4 2.069681 1_555
O5 Zn2 2.153577 1_555
O5 Zn1 2.217416 1_565
O6 Ta2 1.968951 1_555
O6 Zn3 2.040513 1_655
O6 Zn5 2.135246 1_554
O6 Zn0 2.249722 1_555
O7 Ta0 2.066203 1_545
O7 Zn15 2.072839 1_555
O7 Ta2 2.080244 1_555
O8 Ta1 2.049800 1_555
O8 Zn4 2.064092 1_655
O8 Ta3 2.073305 1_555
O9 Ta3 2.049800 1_555
O9 Zn5 2.064092 1_555
O9 Ta1 2.073305 1_455
O10 Ta2 2.066203 1_565
O10 Zn9 2.072839 1_655
O10 Ta0 2.080244 1_655
O11 Ta0 1.968951 1_555
O11 Zn6 2.040513 1_555
O11 Zn4 2.135246 1_555
O11 Zn10 2.249722 1_555
O12 Ta1 1.977876 1_555
O12 Zn5 2.069681 1_555
O12 Zn7 2.153577 1_555
O12 Zn8 2.217416 1_656
O13 Ta2 1.934501 1_555
O13 Zn3 2.048709 1_555
O13 Zn8 2.055080 1_555
O14 Ta3 1.940175 1_555
O14 Zn6 2.012291 1_555
O14 Zn10 2.113569 1_655
O15 Ta3 1.934904 1_555
O15 Zn10 2.074677 1_555
O15 Zn7 2.074767 1_455
O16 Ta2 1.918615 1_565
O16 Zn12 1.997059 1_555
O16 Zn8 2.144424 1_665
O17 Zn9 2.064097 1_555
O17 Ta4 2.119464 1_555
O17 Ta2 2.156041 1_565
O17 Zn6 2.198790 1_555
O18 Zn7 2.064097 1_555
O18 Ta3 2.119464 1_555
O18 Ta5 2.156041 1_545
O18 Zn11 2.198790 1_555
O19 Ta5 1.918615 1_545
O19 Zn5 1.997059 1_555
O19 Zn8 2.144424 1_556
O20 Ta4 1.934904 1_555
O20 Zn10 2.074677 1_655
O20 Zn9 2.074767 1_655
O21 Ta4 1.940175 1_555
O21 Zn11 2.012291 1_555
O21 Zn10 2.113569 1_555
O22 Ta5 1.934501 1_555
O22 Zn14 2.048709 1_555
O22 Zn8 2.055080 1_666
O23 Ta6 1.977876 1_555
O23 Zn12 2.069681 1_555
O23 Zn9 2.153577 1_555
O23 Zn8 2.217416 1_565
O24 Ta7 1.968951 1_555
O24 Zn11 2.040513 1_555
O24 Zn13 2.135246 1_555
O24 Zn10 2.249722 1_655
O25 Ta5 2.066203 1_545
O25 Zn7 2.072839 1_455
O25 Ta7 2.080244 1_455
O26 Ta4 2.049800 1_555
O26 Zn12 2.064092 1_555
O26 Ta6 2.073305 1_655
O27 Ta6 2.049800 1_555
O27 Zn13 2.064092 1_455
O27 Ta4 2.073305 1_555
O28 Ta7 2.066203 1_565
O28 Zn2 2.072839 1_555
O28 Ta5 2.080244 1_555
O29 Ta5 1.968951 1_555
O29 Zn14 2.040513 1_455
O29 Zn12 2.135246 1_556
O29 Zn0 2.249722 1_556
O30 Ta4 1.977876 1_555
O30 Zn13 2.069681 1_555
O30 Zn15 2.153577 1_555
O30 Zn1 2.217416 1_555
O31 Ta7 1.934501 1_455
O31 Zn11 2.048709 1_555
O31 Zn1 2.055080 1_555
O32 Ta6 1.940175 1_655
O32 Zn14 2.012291 1_554
O32 Zn0 2.113569 1_555
O33 Ta6 1.934904 1_555
O33 Zn0 2.074677 1_555
O33 Zn15 2.074767 1_555
O34 Ta7 1.918615 1_565
O34 Zn4 1.997059 1_655
O34 Zn1 2.144424 1_565
O35 Zn2 2.064097 1_555
O35 Ta1 2.119464 1_455
O35 Ta7 2.156041 1_465
O35 Zn14 2.198790 1_455
