# generated using pymatgen
data_Sn3P6WO24
_symmetry_space_group_name_H-M   'P 1'
_cell_length_a   9.00402331
_cell_length_b   9.00402331
_cell_length_c   9.00402325
_cell_angle_alpha   58.29107194
_cell_angle_beta   58.29107194
_cell_angle_gamma   58.29106604
_symmetry_Int_Tables_number   1
_chemical_formula_structural   Sn3P6WO24
_chemical_formula_sum   'Sn3 P6 W1 O24'
_cell_volume   495.97013011
_cell_formula_units_Z   1
loop_
 _symmetry_equiv_pos_site_id
 _symmetry_equiv_pos_as_xyz
  1  'x, y, z'
loop_
 _atom_site_type_symbol
 _atom_site_label
 _atom_site_symmetry_multiplicity
 _atom_site_fract_x
 _atom_site_fract_y
 _atom_site_fract_z
 _atom_site_occupancy
  Sn  Sn0  1  0.14324800  0.14324800  0.14324800  1
  Sn  Sn1  1  0.35850300  0.35850300  0.35850300  1
  Sn  Sn2  1  0.64323800  0.64323800  0.64323800  1
  P  P0  1  0.74973900  0.03732100  0.46190200  1
  P  P1  1  0.03732100  0.46190200  0.74973900  1
  P  P2  1  0.46190200  0.74973900  0.03732100  1
  P  P3  1  0.53525700  0.25250100  0.96240100  1
  P  P4  1  0.96240100  0.53525700  0.25250100  1
  P  P5  1  0.25250100  0.96240100  0.53525700  1
  W  W0  1  0.85735000  0.85735000  0.85735000  1
  O  O0  1  0.26885600  0.13143400  0.51956800  1
  O  O1  1  0.51956800  0.26885600  0.13143400  1
  O  O2  1  0.92061300  0.05985700  0.28938600  1
  O  O3  1  0.13143400  0.51956800  0.26885600  1
  O  O4  1  0.57885100  0.21446700  0.45040500  1
  O  O5  1  0.78538400  0.99560300  0.63793600  1
  O  O6  1  0.05985700  0.28938600  0.92061300  1
  O  O7  1  0.21446700  0.45040500  0.57885100  1
  O  O8  1  0.45040500  0.57885100  0.21446700  1
  O  O9  1  0.37313500  0.21925600  0.98784900  1
  O  O10  1  0.71483500  0.07300800  0.93167000  1
  O  O11  1  0.98784900  0.37313500  0.21925600  1
  O  O12  1  0.99560300  0.63793600  0.78538400  1
  O  O13  1  0.28938600  0.92061300  0.05985700  1
  O  O14  1  0.63793600  0.78538400  0.99560300  1
  O  O15  1  0.56797800  0.41467400  0.78203400  1
  O  O16  1  0.78203400  0.56797800  0.41467400  1
  O  O17  1  0.93167000  0.71483500  0.07300800  1
  O  O18  1  0.21925600  0.98784900  0.37313500  1
  O  O19  1  0.41467400  0.78203400  0.56797800  1
  O  O20  1  0.87048100  0.48932100  0.72193500  1
  O  O21  1  0.07300800  0.93167000  0.71483500  1
  O  O22  1  0.48932100  0.72193500  0.87048100  1
  O  O23  1  0.72193500  0.87048100  0.48932100  1
loop_
_geom_bond_atom_site_label_1
_geom_bond_atom_site_label_2
_geom_bond_distance
_geom_bond_site_symmetry_2
O0 P5 1.531595 1_545
O0 Sn1 2.078998 1_555
O1 P3 1.531594 1_554
O1 Sn1 2.078998 1_555
O2 P0 1.518470 1_555
O2 Sn0 2.021018 1_655
O3 P4 1.531594 1_455
O3 Sn1 2.078998 1_555
O4 P0 1.528501 1_555
O4 Sn1 2.048384 1_555
O5 P0 1.593278 1_565
O5 W0 1.945523 1_555
O6 P1 1.518470 1_555
O6 Sn0 2.021018 1_556
O7 P1 1.528502 1_555
O7 Sn1 2.048384 1_555
O8 P2 1.528502 1_555
O8 Sn1 2.048384 1_555
O9 P3 1.519409 1_555
O9 Sn0 2.036823 1_556
O10 P3 1.598665 1_555
O10 W0 1.925858 1_545
O11 P4 1.519409 1_555
O11 Sn0 2.036823 1_655
O12 P1 1.593278 1_655
O12 W0 1.945523 1_555
O13 P2 1.518470 1_555
O13 Sn0 2.021018 1_565
O14 P2 1.593278 1_556
O14 W0 1.945523 1_555
O15 P3 1.520818 1_555
O15 Sn2 2.031869 1_555
O16 P4 1.520818 1_555
O16 Sn2 2.031869 1_555
O17 P4 1.598665 1_555
O17 W0 1.925858 1_554
O18 P5 1.519409 1_555
O18 Sn0 2.036823 1_565
O19 P5 1.520818 1_555
O19 Sn2 2.031869 1_555
O20 P1 1.523426 1_655
O20 Sn2 2.029832 1_555
O21 P5 1.598666 1_555
O21 W0 1.925858 1_455
O22 P2 1.523426 1_556
O22 Sn2 2.029832 1_555
O23 P0 1.523426 1_565
O23 Sn2 2.029832 1_555
