# generated using pymatgen
data_V2CoO6
_symmetry_space_group_name_H-M   'P 1'
_cell_length_a   5.15063176
_cell_length_b   8.70864310
_cell_length_c   5.30571866
_cell_angle_alpha   103.61136330
_cell_angle_beta   117.35041113
_cell_angle_gamma   88.42925233
_symmetry_Int_Tables_number   1
_chemical_formula_structural   V2CoO6
_chemical_formula_sum   'V4 Co2 O12'
_cell_volume   204.54746960
_cell_formula_units_Z   2
loop_
 _symmetry_equiv_pos_site_id
 _symmetry_equiv_pos_as_xyz
  1  'x, y, z'
loop_
 _atom_site_type_symbol
 _atom_site_label
 _atom_site_symmetry_multiplicity
 _atom_site_fract_x
 _atom_site_fract_y
 _atom_site_fract_z
 _atom_site_occupancy
  V  V0  1  0.96543200  0.98827100  0.96432900  1
  V  V1  1  0.72679400  0.23239200  0.45831600  1
  V  V2  1  0.46461000  0.48734800  0.96347200  1
  V  V3  1  0.22624900  0.73267700  0.45785800  1
  Co  Co0  1  0.55931500  0.84960900  0.10749500  1
  Co  Co1  1  0.06059700  0.35069300  0.11001700  1
  O  O0  1  0.51158600  0.37898100  0.27992700  1
  O  O1  1  0.01124400  0.87933600  0.28031100  1
  O  O2  1  0.47554300  0.06853900  0.28722300  1
  O  O3  1  0.97408500  0.56886100  0.28497800  1
  O  O4  1  0.94326900  0.19251000  0.27850200  1
  O  O5  1  0.44341800  0.69286000  0.27928000  1
  O  O6  1  0.60800300  0.33868600  0.79744500  1
  O  O7  1  0.11012400  0.83983900  0.79842300  1
  O  O8  1  0.09756200  0.43255900  0.78073300  1
  O  O9  1  0.59901400  0.93255000  0.78095600  1
  O  O10  1  0.98863400  0.14301100  0.79766000  1
  O  O11  1  0.48692200  0.64208100  0.79627300  1
loop_
_geom_bond_atom_site_label_1
_geom_bond_atom_site_label_2
_geom_bond_distance
_geom_bond_site_symmetry_2
Co0 O5 2.044675 1_555
Co0 O11 2.049036 1_554
Co0 O2 2.051294 1_565
Co0 O1 2.070314 1_655
Co0 O9 2.118439 1_554
Co0 O7 2.123239 1_554
Co1 O3 2.042944 1_455
Co1 O4 2.045388 1_455
Co1 O10 2.053442 1_454
Co1 O0 2.066841 1_555
Co1 O8 2.120423 1_554
Co1 O6 2.138909 1_454
O0 V1 1.811436 1_555
O0 V2 2.031815 1_554
O1 V3 1.809746 1_555
O1 V0 2.034496 1_454
O2 V1 1.716691 1_555
O2 V0 2.393298 1_444
O3 V3 1.718861 1_655
O3 V2 2.391409 1_554
O4 V1 1.753356 1_555
O4 V0 2.173352 1_544
O5 V3 1.751303 1_555
O5 V2 2.183695 1_554
O6 V2 1.733831 1_555
O6 V1 2.159952 1_555
O7 V0 1.736545 1_455
O7 V3 2.159280 1_555
O8 V2 1.699783 1_555
O8 V1 2.321455 1_455
O9 V0 1.698438 1_555
O9 V3 2.325784 1_555
O10 V0 1.810811 1_545
O10 V1 2.009303 1_555
O11 V2 1.811289 1_555
O11 V3 2.010627 1_555
