# generated using pymatgen
data_Li4MnCu3(PO4)4
_symmetry_space_group_name_H-M   'P 1'
_cell_length_a   6.15863400
_cell_length_b   4.76839100
_cell_length_c   10.07679532
_cell_angle_alpha   89.07953621
_cell_angle_beta   90.00000000
_cell_angle_gamma   90.00000000
_symmetry_Int_Tables_number   1
_chemical_formula_structural   Li4MnCu3(PO4)4
_chemical_formula_sum   'Li4 Mn1 Cu3 P4 O16'
_cell_volume   295.88479405
_cell_formula_units_Z   1
loop_
 _symmetry_equiv_pos_site_id
 _symmetry_equiv_pos_as_xyz
  1  'x, y, z'
loop_
 _atom_site_type_symbol
 _atom_site_label
 _atom_site_symmetry_multiplicity
 _atom_site_fract_x
 _atom_site_fract_y
 _atom_site_fract_z
 _atom_site_occupancy
  Li  Li0  1  0.25010400  0.00231700  0.00699100  1
  Li  Li1  1  0.74989600  0.00231700  0.00699100  1
  Li  Li2  1  0.75143700  0.49887100  0.49575000  1
  Li  Li3  1  0.24856300  0.49887100  0.49575000  1
  Mn  Mn0  1  0.00000000  0.02978100  0.71856400  1
  Cu  Cu0  1  0.50000000  0.94676000  0.28660500  1
  Cu  Cu1  1  0.50000000  0.55811600  0.78768400  1
  Cu  Cu2  1  0.00000000  0.44703800  0.21413200  1
  P  P0  1  0.00000000  0.91499700  0.39879300  1
  P  P1  1  0.00000000  0.57835000  0.91033700  1
  P  P2  1  0.50000000  0.42475100  0.09586300  1
  P  P3  1  0.50000000  0.08297000  0.59480000  1
  O  O0  1  0.00000000  0.79530800  0.54387600  1
  O  O1  1  0.20287000  0.78214400  0.33105600  1
  O  O2  1  0.79713000  0.78214400  0.33105600  1
  O  O3  1  0.50000000  0.75822700  0.60699700  1
  O  O4  1  0.50000000  0.74944700  0.10285700  1
  O  O5  1  0.19913300  0.71990600  0.83825900  1
  O  O6  1  0.80086700  0.71990600  0.83825900  1
  O  O7  1  0.00000000  0.69404800  0.05486600  1
  O  O8  1  0.50000000  0.31996900  0.94890400  1
  O  O9  1  0.70167600  0.28494800  0.16324500  1
  O  O10  1  0.29832400  0.28494800  0.16324500  1
  O  O11  1  0.00000000  0.25806800  0.90657800  1
  O  O12  1  0.00000000  0.24009000  0.39379300  1
  O  O13  1  0.70344800  0.21983100  0.65931100  1
  O  O14  1  0.29655200  0.21983100  0.65931100  1
  O  O15  1  0.50000000  0.18604400  0.44613200  1
loop_
_geom_bond_atom_site_label_1
_geom_bond_atom_site_label_2
_geom_bond_distance
_geom_bond_site_symmetry_2
Li0 O10 2.109935 1_555
Li0 O4 2.172156 1_545
Li0 O7 2.177893 1_545
Li0 O11 2.200893 1_554
Li0 O5 2.208281 1_544
Li0 O8 2.230916 1_554
Li1 O9 2.109935 1_555
Li1 O4 2.172156 1_545
Li1 O7 2.177893 1_645
Li1 O11 2.200893 1_654
Li1 O6 2.208281 1_544
Li1 O8 2.230916 1_554
Li2 O13 2.122210 1_555
Li2 O2 2.141481 1_555
Li2 O0 2.144444 1_655
Li2 O15 2.212904 1_555
Li2 O12 2.227630 1_655
Li2 O3 2.286601 1_555
Li3 O14 2.122210 1_555
Li3 O1 2.141481 1_555
Li3 O0 2.144444 1_555
Li3 O15 2.212904 1_555
Li3 O12 2.227630 1_555
Li3 O3 2.286601 1_555
Mn0 O0 2.100459 1_545
Mn0 O14 2.120366 1_555
Mn0 O13 2.120366 1_455
Mn0 O11 2.200149 1_555
Mn0 O5 2.254964 1_545
Mn0 O6 2.254964 1_445
Cu0 O15 1.986186 1_565
Cu0 O1 2.038156 1_555
Cu0 O2 2.038156 1_555
Cu0 O4 2.090356 1_555
Cu0 O9 2.371504 1_565
Cu0 O10 2.371504 1_565
Cu1 O8 1.967112 1_555
Cu1 O3 2.042011 1_555
Cu1 O6 2.073858 1_555
Cu1 O5 2.073858 1_555
Cu1 O13 2.431530 1_555
Cu1 O14 2.431530 1_555
Cu2 O7 1.975411 1_555
Cu2 O12 2.047918 1_555
Cu2 O10 2.061217 1_555
Cu2 O9 2.061217 1_455
Cu2 O2 2.358608 1_455
Cu2 O1 2.358608 1_555
O0 P0 1.560859 1_555
O1 P0 1.562728 1_555
O2 P0 1.562728 1_655
O3 P3 1.551402 1_565
O4 P2 1.551011 1_555
O5 P1 1.572077 1_555
O6 P1 1.572077 1_655
O7 P1 1.565647 1_554
O8 P2 1.570480 1_556
O9 P2 1.559993 1_555
O10 P2 1.559993 1_555
O11 P1 1.528308 1_555
O12 P0 1.550180 1_545
O13 P3 1.559494 1_555
O14 P3 1.559494 1_555
O15 P3 1.569142 1_555
