# generated using pymatgen
data_Ti17(NO4)6
_symmetry_space_group_name_H-M   'P 1'
_cell_length_a   10.04166900
_cell_length_b   7.64740200
_cell_length_c   14.64258638
_cell_angle_alpha   82.49307757
_cell_angle_beta   90.00000000
_cell_angle_gamma   90.00000000
_symmetry_Int_Tables_number   1
_chemical_formula_structural   Ti17(NO4)6
_chemical_formula_sum   'Ti34 N12 O48'
_cell_volume   1114.80593384
_cell_formula_units_Z   2
loop_
 _symmetry_equiv_pos_site_id
 _symmetry_equiv_pos_as_xyz
  1  'x, y, z'
loop_
 _atom_site_type_symbol
 _atom_site_label
 _atom_site_symmetry_multiplicity
 _atom_site_fract_x
 _atom_site_fract_y
 _atom_site_fract_z
 _atom_site_occupancy
  Ti  Ti0  1  0.42969000  0.14377300  0.42308500  1
  Ti  Ti1  1  0.07031000  0.14377300  0.42308500  1
  Ti  Ti2  1  0.75000000  0.13140200  0.46470300  1
  Ti  Ti3  1  0.94024600  0.18969200  0.24100100  1
  Ti  Ti4  1  0.55975400  0.18969200  0.24100100  1
  Ti  Ti5  1  0.42814600  0.30964500  0.76172200  1
  Ti  Ti6  1  0.07185400  0.30964500  0.76172200  1
  Ti  Ti7  1  0.75000000  0.30004400  0.80024300  1
  Ti  Ti8  1  0.92365000  0.53048800  0.90657500  1
  Ti  Ti9  1  0.42365000  0.46951200  0.09342500  1
  Ti  Ti10  1  0.92776200  0.35576100  0.57406100  1
  Ti  Ti11  1  0.57223800  0.35576100  0.57406100  1
  Ti  Ti12  1  0.75000000  0.46165500  0.13049100  1
  Ti  Ti13  1  0.07635000  0.46951200  0.09342500  1
  Ti  Ti14  1  0.57635000  0.53048800  0.90657500  1
  Ti  Ti15  1  0.25000000  0.36318800  0.53644400  1
  Ti  Ti16  1  0.25000000  0.53834500  0.86950900  1
  Ti  Ti17  1  0.75000000  0.63681200  0.46355600  1
  Ti  Ti18  1  0.07223800  0.64423900  0.42593900  1
  Ti  Ti19  1  0.42776200  0.64423900  0.42593900  1
  Ti  Ti20  1  0.25000000  0.69995600  0.19975700  1
  Ti  Ti21  1  0.92814600  0.69035500  0.23827800  1
  Ti  Ti22  1  0.05975400  0.81030800  0.75899900  1
  Ti  Ti23  1  0.44024600  0.81030800  0.75899900  1
  Ti  Ti24  1  0.57185400  0.69035500  0.23827800  1
  Ti  Ti25  1  0.92969000  0.85622700  0.57691500  1
  Ti  Ti26  1  0.75000000  0.97307700  0.13048200  1
  Ti  Ti27  1  0.92362900  0.01634600  0.90657000  1
  Ti  Ti28  1  0.07637100  0.98365400  0.09343000  1
  Ti  Ti29  1  0.42362900  0.98365400  0.09343000  1
  Ti  Ti30  1  0.57031000  0.85622700  0.57691500  1
  Ti  Ti31  1  0.25000000  0.86859800  0.53529700  1
  Ti  Ti32  1  0.25000000  0.02692300  0.86951800  1
  Ti  Ti33  1  0.57637100  0.01634600  0.90657000  1
  N  N0  1  0.75000000  0.20547500  0.17789600  1
  N  N1  1  0.25000000  0.12919100  0.48920800  1
  N  N2  1  0.25000000  0.29520400  0.81937200  1
  N  N3  1  0.75000000  0.37314900  0.51328800  1
  N  N4  1  0.75000000  0.51766900  0.85508000  1
  N  N5  1  0.25000000  0.48233100  0.14492000  1
  N  N6  1  0.75000000  0.70479600  0.18062800  1
  N  N7  1  0.25000000  0.79452500  0.82210400  1
  N  N8  1  0.25000000  0.62685100  0.48671200  1
  N  N9  1  0.75000000  0.87080900  0.51079200  1
  N  N10  1  0.75000000  0.05488100  0.85504900  1
  N  N11  1  0.25000000  0.94511900  0.14495100  1
  O  O0  1  0.56716600  0.11454800  0.54257000  1
  O  O1  1  0.10889100  0.17445500  0.30392400  1
  O  O2  1  0.87831400  0.15856500  0.36634300  1
  O  O3  1  0.93283400  0.11454800  0.54257000  1
  O  O4  1  0.62168600  0.15856500  0.36634300  1
  O  O5  1  0.04942000  0.22034600  0.11834700  1
  O  O6  1  0.55975400  0.28207800  0.87187400  1
  O  O7  1  0.39110900  0.17445500  0.30392400  1
  O  O8  1  0.45058000  0.22034600  0.11834700  1
  O  O9  1  0.94024600  0.28207800  0.87187400  1
  O  O10  1  0.88194800  0.32595200  0.69776300  1
  O  O11  1  0.61805200  0.32595200  0.69776300  1
  O  O12  1  0.43531600  0.55291200  0.79182800  1
  O  O13  1  0.38024900  0.50433700  0.96793200  1
  O  O14  1  0.38134700  0.34124900  0.63499100  1
  O  O15  1  0.93531600  0.44708800  0.20817200  1
  O  O16  1  0.11865300  0.34124900  0.63499100  1
  O  O17  1  0.43534000  0.38522200  0.45976600  1
  O  O18  1  0.06466000  0.38522200  0.45976600  1
  O  O19  1  0.56468400  0.44708800  0.20817200  1
  O  O20  1  0.11975100  0.50433700  0.96793200  1
  O  O21  1  0.88024900  0.49566300  0.03206800  1
  O  O22  1  0.61975100  0.49566300  0.03206800  1
  O  O23  1  0.06468400  0.55291200  0.79182800  1
  O  O24  1  0.95058000  0.77965400  0.88165300  1
  O  O25  1  0.89110900  0.82554500  0.69607600  1
  O  O26  1  0.88134700  0.65875100  0.36500900  1
  O  O27  1  0.05975400  0.71792200  0.12812600  1
  O  O28  1  0.11805200  0.67404800  0.30223700  1
  O  O29  1  0.38194800  0.67404800  0.30223700  1
  O  O30  1  0.54942000  0.77965400  0.88165300  1
  O  O31  1  0.60889100  0.82554500  0.69607600  1
  O  O32  1  0.93534000  0.61477800  0.54023400  1
  O  O33  1  0.61865300  0.65875100  0.36500900  1
  O  O34  1  0.56466000  0.61477800  0.54023400  1
  O  O35  1  0.44024600  0.71792200  0.12812600  1
  O  O36  1  0.88025000  0.98842900  0.03207500  1
  O  O37  1  0.11975000  0.01157100  0.96792500  1
  O  O38  1  0.12168600  0.84143500  0.63365700  1
  O  O39  1  0.93535500  0.94866400  0.20825000  1
  O  O40  1  0.06464500  0.05133600  0.79175000  1
  O  O41  1  0.06716600  0.88545200  0.45743000  1
  O  O42  1  0.56464500  0.94866400  0.20825000  1
  O  O43  1  0.61975000  0.98842900  0.03207500  1
  O  O44  1  0.43535500  0.05133600  0.79175000  1
  O  O45  1  0.37831400  0.84143500  0.63365700  1
  O  O46  1  0.38025000  0.01157100  0.96792500  1
  O  O47  1  0.43283400  0.88545200  0.45743000  1
loop_
_geom_bond_atom_site_label_1
_geom_bond_atom_site_label_2
_geom_bond_distance
_geom_bond_site_symmetry_2
N0 Ti26 1.990726 1_545
N0 Ti12 1.991133 1_555
N0 Ti3 2.118684 1_555
N0 Ti4 2.118684 1_555
N1 Ti15 2.000997 1_555
N1 Ti31 2.018790 1_545
N1 Ti0 2.043887 1_555
N1 Ti1 2.043887 1_555
N2 Ti6 1.974974 1_555
N2 Ti5 1.974974 1_555
N2 Ti16 2.086382 1_555
N2 Ti32 2.086816 1_555
N3 Ti10 1.991221 1_555
N3 Ti11 1.991221 1_555
N3 Ti17 2.052374 1_555
N3 Ti2 2.065813 1_555
N4 Ti8 1.907377 1_555
N4 Ti14 1.907377 1_555
N4 Ti7 1.940023 1_555
N5 Ti13 1.907377 1_555
N5 Ti9 1.907377 1_555
N5 Ti20 1.940023 1_555
N6 Ti21 1.974974 1_555
N6 Ti24 1.974974 1_555
N6 Ti12 2.086382 1_555
N6 Ti26 2.086816 1_555
N7 Ti32 1.990726 1_565
N7 Ti16 1.991133 1_555
N7 Ti22 2.118684 1_555
N7 Ti23 2.118684 1_555
N8 Ti19 1.991221 1_555
N8 Ti18 1.991221 1_555
N8 Ti15 2.052374 1_555
N8 Ti31 2.065813 1_555
N9 Ti17 2.000997 1_555
N9 Ti2 2.018790 1_565
N9 Ti30 2.043887 1_555
N9 Ti25 2.043887 1_555
N10 Ti33 1.907290 1_555
N10 Ti27 1.907290 1_555
N10 Ti7 1.940612 1_555
N11 Ti29 1.907290 1_555
N11 Ti28 1.907290 1_555
N11 Ti20 1.940612 1_555
O0 Ti11 1.959646 1_555
O0 Ti30 1.974046 1_545
O0 Ti2 2.156144 1_555
O0 Ti0 2.216872 1_555
O1 Ti1 1.772735 1_555
O1 Ti3 1.924133 1_455
O2 Ti3 1.922943 1_555
O2 Ti2 1.923403 1_555
O2 Ti1 2.096564 1_655
O3 Ti10 1.959646 1_555
O3 Ti25 1.974046 1_545
O3 Ti2 2.156144 1_555
O3 Ti1 2.216872 1_655
O4 Ti4 1.922943 1_555
O4 Ti2 1.923403 1_555
O4 Ti0 2.096564 1_555
O5 Ti28 1.911884 1_545
O5 Ti13 1.911919 1_555
O5 Ti3 2.091007 1_455
O6 Ti33 2.036138 1_555
O6 Ti14 2.036416 1_555
O6 Ti5 2.074514 1_555
O6 Ti7 2.175067 1_555
O7 Ti0 1.772735 1_555
O7 Ti4 1.924133 1_555
O8 Ti29 1.911884 1_545
O8 Ti9 1.911919 1_555
O8 Ti4 2.091007 1_555
O9 Ti27 2.036138 1_555
O9 Ti8 2.036416 1_555
O9 Ti6 2.074514 1_655
O9 Ti7 2.175067 1_555
O10 Ti10 1.853805 1_555
O10 Ti7 1.992199 1_555
O10 Ti6 2.121005 1_655
O11 Ti11 1.853805 1_555
O11 Ti7 1.992199 1_555
O11 Ti5 2.121005 1_555
O12 Ti23 1.964924 1_555
O12 Ti5 1.968436 1_555
O12 Ti16 2.176230 1_555
O12 Ti14 2.186970 1_555
O13 Ti9 1.873381 1_556
O13 Ti16 1.938379 1_555
O13 Ti14 2.162843 1_555
O14 Ti5 1.898836 1_555
O14 Ti15 1.945945 1_555
O14 Ti11 2.111110 1_555
O15 Ti3 1.964924 1_555
O15 Ti21 1.968436 1_555
O15 Ti12 2.176230 1_555
O15 Ti13 2.186970 1_655
O16 Ti6 1.898836 1_555
O16 Ti15 1.945945 1_555
O16 Ti10 2.111110 1_455
O17 Ti19 1.979486 1_555
O17 Ti0 1.990035 1_555
O17 Ti11 2.154727 1_555
O17 Ti15 2.168718 1_555
O18 Ti18 1.979486 1_555
O18 Ti1 1.990035 1_555
O18 Ti10 2.154727 1_455
O18 Ti15 2.168718 1_555
O19 Ti4 1.964924 1_555
O19 Ti24 1.968436 1_555
O19 Ti12 2.176230 1_555
O19 Ti9 2.186970 1_555
O20 Ti13 1.873381 1_556
O20 Ti16 1.938379 1_555
O20 Ti8 2.162843 1_455
O21 Ti8 1.873381 1_554
O21 Ti12 1.938379 1_555
O21 Ti13 2.162843 1_655
O22 Ti14 1.873381 1_554
O22 Ti12 1.938379 1_555
O22 Ti9 2.162843 1_555
O23 Ti22 1.964924 1_555
O23 Ti6 1.968436 1_555
O23 Ti16 2.176230 1_555
O23 Ti8 2.186970 1_455
O24 Ti27 1.911884 1_565
O24 Ti8 1.911919 1_555
O24 Ti22 2.091007 1_655
O25 Ti25 1.772735 1_555
O25 Ti22 1.924133 1_655
O26 Ti21 1.898836 1_555
O26 Ti17 1.945945 1_555
O26 Ti18 2.111110 1_655
O27 Ti28 2.036138 1_555
O27 Ti13 2.036416 1_555
O27 Ti21 2.074514 1_455
O27 Ti20 2.175067 1_555
O28 Ti18 1.853805 1_555
O28 Ti20 1.992199 1_555
O28 Ti21 2.121005 1_455
O29 Ti19 1.853805 1_555
O29 Ti20 1.992199 1_555
O29 Ti24 2.121005 1_555
O30 Ti33 1.911884 1_565
O30 Ti14 1.911919 1_555
O30 Ti23 2.091007 1_555
O31 Ti30 1.772735 1_555
O31 Ti23 1.924133 1_555
O32 Ti10 1.979486 1_555
O32 Ti25 1.990035 1_555
O32 Ti18 2.154727 1_655
O32 Ti17 2.168718 1_555
O33 Ti24 1.898836 1_555
O33 Ti17 1.945945 1_555
O33 Ti19 2.111110 1_555
O34 Ti11 1.979486 1_555
O34 Ti30 1.990035 1_555
O34 Ti19 2.154727 1_555
O34 Ti17 2.168718 1_555
O35 Ti29 2.036138 1_555
O35 Ti9 2.036416 1_555
O35 Ti24 2.074514 1_555
O35 Ti20 2.175067 1_555
O36 Ti27 1.873504 1_564
O36 Ti26 1.938180 1_555
O36 Ti28 2.162948 1_655
O37 Ti28 1.873504 1_546
O37 Ti32 1.938180 1_555
O37 Ti27 2.162948 1_455
O38 Ti22 1.922943 1_555
O38 Ti31 1.923403 1_555
O38 Ti25 2.096564 1_455
O39 Ti3 1.964913 1_565
O39 Ti21 1.968196 1_555
O39 Ti26 2.177232 1_555
O39 Ti28 2.187659 1_655
O40 Ti22 1.964913 1_545
O40 Ti6 1.968196 1_555
O40 Ti32 2.177232 1_555
O40 Ti27 2.187659 1_455
O41 Ti18 1.959646 1_555
O41 Ti1 1.974046 1_565
O41 Ti31 2.156144 1_555
O41 Ti25 2.216872 1_455
O42 Ti4 1.964913 1_565
O42 Ti24 1.968196 1_555
O42 Ti26 2.177232 1_555
O42 Ti29 2.187659 1_555
O43 Ti33 1.873504 1_564
O43 Ti26 1.938180 1_555
O43 Ti29 2.162948 1_555
O44 Ti23 1.964913 1_545
O44 Ti5 1.968196 1_555
O44 Ti32 2.177232 1_555
O44 Ti33 2.187659 1_555
O45 Ti23 1.922943 1_555
O45 Ti31 1.923403 1_555
O45 Ti30 2.096564 1_555
O46 Ti29 1.873504 1_546
O46 Ti32 1.938180 1_555
O46 Ti33 2.162948 1_555
O47 Ti19 1.959646 1_555
O47 Ti0 1.974046 1_565
O47 Ti31 2.156144 1_555
O47 Ti30 2.216872 1_555
