# generated using pymatgen
data_Li5Fe2P2(CO7)2
_symmetry_space_group_name_H-M   'P 1'
_cell_length_a   8.25097400
_cell_length_b   8.26234140
_cell_length_c   9.40986637
_cell_angle_alpha   105.41032845
_cell_angle_beta   107.01757615
_cell_angle_gamma   104.53356653
_symmetry_Int_Tables_number   1
_chemical_formula_structural   Li5Fe2P2(CO7)2
_chemical_formula_sum   'Li10 Fe4 P4 C4 O28'
_cell_volume   552.47695553
_cell_formula_units_Z   2
loop_
 _symmetry_equiv_pos_site_id
 _symmetry_equiv_pos_as_xyz
  1  'x, y, z'
loop_
 _atom_site_type_symbol
 _atom_site_label
 _atom_site_symmetry_multiplicity
 _atom_site_fract_x
 _atom_site_fract_y
 _atom_site_fract_z
 _atom_site_occupancy
  Li  Li0  1  0.68945400  0.94773200  0.90419000  1
  Li  Li1  1  0.18358400  0.43767000  0.89620000  1
  Li  Li2  1  0.46470200  0.50959500  0.71923000  1
  Li  Li3  1  0.74522400  0.23395600  0.73073600  1
  Li  Li4  1  0.97387000  0.98839200  0.73326500  1
  Li  Li5  1  0.53529800  0.49040500  0.28077000  1
  Li  Li6  1  0.02613000  0.01160800  0.26673500  1
  Li  Li7  1  0.25477600  0.76604400  0.26926400  1
  Li  Li8  1  0.81641600  0.56233000  0.10380000  1
  Li  Li9  1  0.31054600  0.05226800  0.09581000  1
  Fe  Fe0  1  0.81940900  0.56810400  0.66797100  1
  Fe  Fe1  1  0.30818900  0.05377000  0.66860300  1
  Fe  Fe2  1  0.69181100  0.94623000  0.33139700  1
  Fe  Fe3  1  0.18059100  0.43189600  0.33202900  1
  P  P0  1  0.05801500  0.29580700  0.58628800  1
  P  P1  1  0.55570900  0.80570500  0.58097800  1
  P  P2  1  0.44429100  0.19429500  0.41902200  1
  P  P3  1  0.94198500  0.70419300  0.41371200  1
  C  C0  1  0.50170600  0.26597700  0.95586100  1
  C  C1  1  0.00585600  0.76371100  0.96900700  1
  C  C2  1  0.49829400  0.73402300  0.04413900  1
  C  C3  1  0.99414400  0.23628900  0.03099300  1
  O  O0  1  0.87718600  0.61441600  0.93298800  1
  O  O1  1  0.36813300  0.11856700  0.92388200  1
  O  O2  1  0.40626200  0.61595700  0.90623500  1
  O  O3  1  0.53270300  0.28261400  0.82931500  1
  O  O4  1  0.88354600  0.13917100  0.88337700  1
  O  O5  1  0.02749400  0.81540700  0.85441100  1
  O  O6  1  0.64164800  0.71611400  0.69199700  1
  O  O7  1  0.48427900  0.92883500  0.68336100  1
  O  O8  1  0.96850000  0.39427900  0.68616500  1
  O  O9  1  0.15008400  0.20495500  0.69780700  1
  O  O10  1  0.59072200  0.33052500  0.58024100  1
  O  O11  1  0.70615700  0.93266800  0.54737200  1
  O  O12  1  0.20495800  0.42208600  0.55635600  1
  O  O13  1  0.08066200  0.84689000  0.57862500  1
  O  O14  1  0.40927800  0.66947500  0.41975900  1
  O  O15  1  0.29384300  0.06733200  0.45262800  1
  O  O16  1  0.79504200  0.57791400  0.44364400  1
  O  O17  1  0.91933800  0.15311000  0.42137500  1
  O  O18  1  0.35835200  0.28388600  0.30800300  1
  O  O19  1  0.51572100  0.07116500  0.31663900  1
  O  O20  1  0.03150000  0.60572100  0.31383500  1
  O  O21  1  0.84991600  0.79504500  0.30219300  1
  O  O22  1  0.46729700  0.71738600  0.17068500  1
  O  O23  1  0.59373800  0.38404300  0.09376500  1
  O  O24  1  0.97250600  0.18459300  0.14558900  1
  O  O25  1  0.11645400  0.86082900  0.11662300  1
  O  O26  1  0.12281400  0.38558400  0.06701200  1
  O  O27  1  0.63186700  0.88143300  0.07611800  1
loop_
_geom_bond_atom_site_label_1
_geom_bond_atom_site_label_2
_geom_bond_distance
_geom_bond_site_symmetry_2
Li0 O27 1.983300 1_556
Li0 O4 2.044936 1_565
Li0 O7 2.200927 1_555
Li0 O6 2.221278 1_555
Li0 O24 2.585042 1_566
Li1 O26 1.936786 1_556
Li1 O2 2.005171 1_555
Li1 O8 2.105989 1_455
Li1 O9 2.186805 1_555
Li2 O2 1.997193 1_555
Li2 O12 2.043411 1_555
Li2 O6 2.076011 1_555
Li2 O10 2.349558 1_555
Li2 O3 2.474943 1_555
Li3 O4 2.016384 1_555
Li3 O10 2.078817 1_555
Li3 O8 2.201632 1_555
Li3 O3 2.281355 1_555
Li3 O11 2.503368 1_545
Li4 O4 2.061454 1_565
Li4 O5 2.103841 1_655
Li4 O13 2.150374 1_655
Li4 O9 2.173120 1_665
Li4 O11 2.225064 1_555
Li5 O23 1.997193 1_555
Li5 O16 2.043411 1_555
Li5 O18 2.076011 1_555
Li5 O14 2.349558 1_555
Li5 O22 2.474943 1_555
Li6 O25 2.061454 1_545
Li6 O24 2.103841 1_455
Li6 O17 2.150374 1_455
Li6 O21 2.173120 1_445
Li6 O15 2.225064 1_555
Li7 O25 2.016384 1_555
Li7 O14 2.078817 1_555
Li7 O20 2.201632 1_555
Li7 O22 2.281355 1_555
Li7 O15 2.503368 1_565
Li8 O0 1.936786 1_554
Li8 O23 2.005171 1_555
Li8 O20 2.105989 1_655
Li8 O21 2.186805 1_555
Li9 O1 1.983300 1_554
Li9 O25 2.044936 1_545
Li9 O19 2.200927 1_555
Li9 O18 2.221278 1_555
Li9 O5 2.585042 1_544
Fe0 O16 2.086512 1_555
Fe0 O10 2.112610 1_555
Fe0 O8 2.121170 1_555
Fe0 O6 2.155274 1_555
Fe0 O5 2.184433 1_655
Fe0 O0 2.301748 1_555
Fe1 O13 1.962875 1_545
Fe1 O7 1.976515 1_545
Fe1 O15 2.035601 1_555
Fe1 O9 2.045214 1_555
Fe1 O3 2.091964 1_555
Fe1 O1 2.188545 1_555
Fe2 O17 1.962875 1_565
Fe2 O19 1.976515 1_565
Fe2 O11 2.035601 1_555
Fe2 O21 2.045214 1_555
Fe2 O22 2.091964 1_555
Fe2 O27 2.188545 1_555
Fe3 O12 2.086512 1_555
Fe3 O14 2.112610 1_555
Fe3 O20 2.121170 1_555
Fe3 O18 2.155274 1_555
Fe3 O24 2.184433 1_455
Fe3 O26 2.301748 1_555
C0 O23 1.261280 1_556
C0 O1 1.313772 1_555
C0 O3 1.322828 1_555
C1 O0 1.293633 1_455
C1 O5 1.302427 1_555
C1 O25 1.305468 1_556
C2 O2 1.261280 1_554
C2 O27 1.313772 1_555
C2 O22 1.322828 1_555
C3 O26 1.293633 1_655
C3 O24 1.302427 1_555
C3 O4 1.305468 1_554
O6 P1 1.543667 1_555
O7 P1 1.556562 1_555
O8 P0 1.546696 1_655
O9 P0 1.574797 1_555
O10 P2 1.537928 1_555
O11 P1 1.579199 1_555
O12 P0 1.535926 1_555
O13 P3 1.555205 1_455
O14 P1 1.537928 1_555
O15 P2 1.579199 1_555
O16 P3 1.535926 1_555
O17 P0 1.555205 1_655
O18 P2 1.543667 1_555
O19 P2 1.556562 1_555
O20 P3 1.546696 1_455
O21 P3 1.574797 1_555
