# generated using pymatgen
data_Na2LiCuP2O7
_symmetry_space_group_name_H-M   'P 1'
_cell_length_a   13.59251600
_cell_length_b   5.37924700
_cell_length_c   10.40339431
_cell_angle_alpha   59.65730907
_cell_angle_beta   90.00000000
_cell_angle_gamma   90.00000000
_symmetry_Int_Tables_number   1
_chemical_formula_structural   Na2LiCuP2O7
_chemical_formula_sum   'Na8 Li4 Cu4 P8 O28'
_cell_volume   656.47312511
_cell_formula_units_Z   4
loop_
 _symmetry_equiv_pos_site_id
 _symmetry_equiv_pos_as_xyz
  1  'x, y, z'
loop_
 _atom_site_type_symbol
 _atom_site_label
 _atom_site_symmetry_multiplicity
 _atom_site_fract_x
 _atom_site_fract_y
 _atom_site_fract_z
 _atom_site_occupancy
  Na  Na0  1  0.61260900  0.57629100  0.15183500  1
  Na  Na1  1  0.20773400  0.09616100  0.14757300  1
  Na  Na2  1  0.70773400  0.90383900  0.35242700  1
  Na  Na3  1  0.11260900  0.42370900  0.34816500  1
  Na  Na4  1  0.88739100  0.57629100  0.65183500  1
  Na  Na5  1  0.29226600  0.09616100  0.64757300  1
  Na  Na6  1  0.79226600  0.90383900  0.85242700  1
  Na  Na7  1  0.38739100  0.42370900  0.84816500  1
  Li  Li0  1  0.62037800  0.25871300  0.99943200  1
  Li  Li1  1  0.12037800  0.74128700  0.50056800  1
  Li  Li2  1  0.87962200  0.25871300  0.49943200  1
  Li  Li3  1  0.37962200  0.74128700  0.00056800  1
  Cu  Cu0  1  0.83630400  0.56712600  0.22247900  1
  Cu  Cu1  1  0.33630400  0.43287400  0.27752100  1
  Cu  Cu2  1  0.66369600  0.56712600  0.72247900  1
  Cu  Cu3  1  0.16369600  0.43287400  0.77752100  1
  P  P0  1  0.81904600  0.23210400  0.04367300  1
  P  P1  1  0.45623900  0.99961800  0.20805600  1
  P  P2  1  0.95623900  0.00038200  0.29194400  1
  P  P3  1  0.31904600  0.76789600  0.45632700  1
  P  P4  1  0.68095400  0.23210400  0.54367300  1
  P  P5  1  0.04376100  0.99961800  0.70805600  1
  P  P6  1  0.54376100  0.00038200  0.79194400  1
  P  P7  1  0.18095400  0.76789600  0.95632700  1
  O  O0  1  0.92969400  0.14928000  0.11499500  1
  O  O1  1  0.76927500  0.95322600  0.06676400  1
  O  O2  1  0.76104800  0.34335800  0.13179100  1
  O  O3  1  0.16841900  0.54472000  0.12024500  1
  O  O4  1  0.38460600  0.25425400  0.12084200  1
  O  O5  1  0.44385100  0.76279700  0.16497200  1
  O  O6  1  0.56311400  0.09575900  0.19497800  1
  O  O7  1  0.06311400  0.90424100  0.30502200  1
  O  O8  1  0.94385100  0.23720300  0.33502800  1
  O  O9  1  0.88460600  0.74574600  0.37915800  1
  O  O10  1  0.26104800  0.65664200  0.36820900  1
  O  O11  1  0.66841900  0.45528000  0.37975500  1
  O  O12  1  0.26927500  0.04677400  0.43323600  1
  O  O13  1  0.42969400  0.85072000  0.38500500  1
  O  O14  1  0.57030600  0.14928000  0.61499500  1
  O  O15  1  0.73072500  0.95322600  0.56676400  1
  O  O16  1  0.33158100  0.54472000  0.62024500  1
  O  O17  1  0.73895200  0.34335800  0.63179100  1
  O  O18  1  0.11539400  0.25425400  0.62084200  1
  O  O19  1  0.05614900  0.76279700  0.66497200  1
  O  O20  1  0.93688600  0.09575900  0.69497800  1
  O  O21  1  0.43688600  0.90424100  0.80502200  1
  O  O22  1  0.55614900  0.23720300  0.83502800  1
  O  O23  1  0.61539400  0.74574600  0.87915800  1
  O  O24  1  0.83158100  0.45528000  0.87975500  1
  O  O25  1  0.23895200  0.65664200  0.86820900  1
  O  O26  1  0.23072500  0.04677400  0.93323600  1
  O  O27  1  0.07030600  0.85072000  0.88500500  1
loop_
_geom_bond_atom_site_label_1
_geom_bond_atom_site_label_2
_geom_bond_distance
_geom_bond_site_symmetry_2
Na0 O11 2.249903 1_555
Na0 O2 2.438942 1_555
Na0 O6 2.482656 1_555
Na0 O23 2.503400 1_554
Na0 O5 2.534852 1_555
Na0 O1 2.759744 1_555
Na1 O3 2.344235 1_555
Na1 O26 2.395601 1_554
Na1 O10 2.429127 1_545
Na1 O7 2.429920 1_545
Na1 O4 2.518229 1_555
Na2 O11 2.344235 1_555
Na2 O15 2.395601 1_555
Na2 O2 2.429127 1_565
Na2 O6 2.429920 1_565
Na2 O9 2.518229 1_555
Na3 O3 2.249903 1_555
Na3 O10 2.438942 1_555
Na3 O7 2.482656 1_555
Na3 O18 2.503400 1_555
Na3 O8 2.534852 1_455
Na3 O12 2.759744 1_555
Na4 O24 2.249903 1_555
Na4 O17 2.438942 1_555
Na4 O20 2.482656 1_555
Na4 O9 2.503400 1_555
Na4 O19 2.534852 1_655
Na4 O15 2.759744 1_555
Na5 O16 2.344235 1_555
Na5 O12 2.395601 1_555
Na5 O25 2.429127 1_545
Na5 O21 2.429920 1_545
Na5 O18 2.518229 1_555
Na6 O24 2.344235 1_555
Na6 O1 2.395601 1_556
Na6 O17 2.429127 1_565
Na6 O20 2.429920 1_565
Na6 O23 2.518229 1_555
Na7 O16 2.249903 1_555
Na7 O25 2.438942 1_555
Na7 O21 2.482656 1_555
Na7 O4 2.503400 1_556
Na7 O22 2.534852 1_555
Na7 O26 2.759744 1_555
Li0 O6 1.926418 1_556
Li0 O22 1.975058 1_555
Li0 O23 2.263167 1_555
Li0 O1 2.474710 1_546
Li0 O2 2.528406 1_556
Li1 O7 1.926418 1_555
Li1 O19 1.975058 1_555
Li1 O18 2.263167 1_555
Li1 O12 2.474710 1_565
Li1 O10 2.528406 1_555
Li2 O20 1.926418 1_555
Li2 O8 1.975058 1_555
Li2 O9 2.263167 1_555
Li2 O15 2.474710 1_545
Li2 O17 2.528406 1_555
Li3 O21 1.926418 1_554
Li3 O5 1.975058 1_555
Li3 O4 2.263167 1_555
Li3 O26 2.474710 1_564
Li3 O25 2.528406 1_554
Cu0 O1 2.090134 1_555
Cu0 O2 2.129033 1_555
Cu0 O8 2.134976 1_555
Cu0 O9 2.365060 1_555
Cu1 O12 2.090134 1_555
Cu1 O10 2.129033 1_555
Cu1 O5 2.134976 1_555
Cu1 O4 2.365060 1_555
Cu2 O15 2.090134 1_555
Cu2 O17 2.129033 1_555
Cu2 O22 2.134976 1_555
Cu2 O23 2.365060 1_555
Cu3 O26 2.090134 1_555
Cu3 O25 2.129033 1_555
Cu3 O19 2.134976 1_555
Cu3 O18 2.365060 1_555
O0 P2 1.634263 1_555
O0 P0 1.636160 1_555
O1 P0 1.549754 1_565
O2 P0 1.540884 1_555
O3 P7 1.519840 1_554
O4 P1 1.546554 1_545
O5 P1 1.558533 1_555
O6 P1 1.524867 1_545
O7 P2 1.524867 1_465
O8 P2 1.558533 1_555
O9 P2 1.546554 1_565
O10 P3 1.540884 1_555
O11 P4 1.519840 1_555
O12 P3 1.549754 1_545
O13 P1 1.634263 1_555
O13 P3 1.636160 1_555
O14 P6 1.634263 1_555
O14 P4 1.636160 1_555
O15 P4 1.549754 1_565
O16 P3 1.519840 1_555
O17 P4 1.540884 1_555
O18 P5 1.546554 1_545
O19 P5 1.558533 1_555
O20 P5 1.524867 1_645
O21 P6 1.524867 1_565
O22 P6 1.558533 1_555
O23 P6 1.546554 1_565
O24 P0 1.519840 1_556
O25 P7 1.540884 1_555
O26 P7 1.549754 1_545
O27 P5 1.634263 1_555
O27 P7 1.636160 1_555
