# generated using pymatgen
data_Zr2N2O
_symmetry_space_group_name_H-M   'P 1'
_cell_length_a   8.79493520
_cell_length_b   8.79290876
_cell_length_c   8.77627205
_cell_angle_alpha   109.24630293
_cell_angle_beta   109.46688678
_cell_angle_gamma   109.65340262
_symmetry_Int_Tables_number   1
_chemical_formula_structural   Zr2N2O
_chemical_formula_sum   'Zr16 N16 O8'
_cell_volume   522.75874021
_cell_formula_units_Z   8
loop_
 _symmetry_equiv_pos_site_id
 _symmetry_equiv_pos_as_xyz
  1  'x, y, z'
loop_
 _atom_site_type_symbol
 _atom_site_label
 _atom_site_symmetry_multiplicity
 _atom_site_fract_x
 _atom_site_fract_y
 _atom_site_fract_z
 _atom_site_occupancy
  Zr  Zr0  1  0.75321791  0.96896256  0.20806020  1
  Zr  Zr1  1  0.99502809  0.98843222  0.98939312  1
  Zr  Zr2  1  0.03302339  0.77605127  0.24543390  1
  Zr  Zr3  1  0.50207824  0.50329694  0.00272630  1
  Zr  Zr4  1  0.52938909  0.27949711  0.24653981  1
  Zr  Zr5  1  0.49850152  0.99211690  0.50104432  1
  Zr  Zr6  1  0.25676995  0.54094720  0.28696926  1
  Zr  Zr7  1  0.29174852  0.26687792  0.55010370  1
  Zr  Zr8  1  0.71407088  0.74488124  0.46070265  1
  Zr  Zr9  1  0.78568692  0.25042866  0.03688176  1
  Zr  Zr10  1  0.20912919  0.74852966  0.96272140  1
  Zr  Zr11  1  0.75502340  0.46403446  0.72420124  1
  Zr  Zr12  1  0.00806859  0.49878773  0.49975634  1
  Zr  Zr13  1  0.46518555  0.71642263  0.74423823  1
  Zr  Zr14  1  0.96525328  0.21793762  0.75019358  1
  Zr  Zr15  1  0.24022847  0.02843193  0.78606701  1
  N  N0  1  0.73230958  0.96836878  0.96115380  1
  N  N1  1  0.75516846  0.22495926  0.27468285  1
  N  N2  1  0.45314545  0.48292477  0.22464752  1
  N  N3  1  0.72324232  0.23566979  0.77166846  1
  N  N4  1  0.77181791  0.73354331  0.24118699  1
  N  N5  1  0.22863285  0.27179380  0.76181356  1
  N  N6  1  0.98676693  0.53117937  0.25664695  1
  N  N7  1  0.51204870  0.77537702  0.54385089  1
  N  N8  1  0.95468674  0.72870051  0.96838378  1
  N  N9  1  0.54494201  0.51216152  0.77385913  1
  N  N10  1  0.22372719  0.45051125  0.48534491  1
  N  N11  1  0.27942337  0.76734850  0.22987967  1
  N  N12  1  0.96295322  0.95121991  0.72650408  1
  N  N13  1  0.24071601  0.77460174  0.72437912  1
  N  N14  1  0.01097371  0.46693349  0.73926029  1
  N  N15  1  0.27225865  0.03809332  0.04521327  1
  O  O0  1  0.53674528  0.26540886  0.99089622  1
  O  O1  1  0.73721551  0.01251026  0.46736350  1
  O  O2  1  0.04339789  0.27149148  0.03003248  1
  O  O3  1  0.76804121  0.54337156  0.51272076  1
  O  O4  1  0.03713546  0.04688060  0.27500590  1
  O  O5  1  0.46756348  0.73930209  0.01310743  1
  O  O6  1  0.26460624  0.99281311  0.53123576  1
  O  O7  1  0.49008082  0.22920167  0.45613086  1
loop_
_geom_bond_atom_site_label_1
_geom_bond_atom_site_label_2
_geom_bond_distance
_geom_bond_site_symmetry_2
N0 Zr0 2.110848 1_556
N0 Zr9 2.176079 1_566
N0 Zr1 2.178688 1_555
N0 Zr13 2.188375 1_555
N1 Zr0 2.123355 1_545
N1 Zr4 2.150756 1_555
N1 Zr12 2.231612 1_655
N1 Zr9 2.262489 1_555
N2 Zr6 2.140264 1_555
N2 Zr4 2.152579 1_555
N2 Zr3 2.178858 1_555
N2 Zr8 2.234587 1_555
N3 Zr11 2.129610 1_555
N3 Zr9 2.153372 1_556
N3 Zr5 2.191917 1_545
N3 Zr14 2.249768 1_555
N4 Zr8 2.130492 1_555
N4 Zr3 2.184816 1_555
N4 Zr2 2.185126 1_655
N4 Zr0 2.233629 1_555
N5 Zr7 2.100688 1_555
N5 Zr14 2.161767 1_455
N5 Zr3 2.208660 1_556
N5 Zr15 2.251068 1_555
N6 Zr2 2.094838 1_655
N6 Zr9 2.143026 1_555
N6 Zr12 2.199667 1_655
N6 Zr6 2.267981 1_655
N7 Zr5 2.093375 1_555
N7 Zr13 2.114682 1_555
N7 Zr8 2.194767 1_555
N7 Zr6 2.195891 1_555
N8 Zr1 2.123522 1_555
N8 Zr11 2.132353 1_555
N8 Zr2 2.140828 1_656
N8 Zr10 2.204092 1_655
N9 Zr7 2.128193 1_555
N9 Zr11 2.173451 1_555
N9 Zr3 2.184220 1_556
N9 Zr13 2.195250 1_555
N10 Zr7 2.077548 1_555
N10 Zr12 2.111812 1_555
N10 Zr6 2.200534 1_555
N10 Zr13 2.254063 1_555
N11 Zr5 2.136236 1_555
N11 Zr10 2.148546 1_554
N11 Zr6 2.170489 1_555
N11 Zr2 2.241099 1_555
N12 Zr15 2.117485 1_665
N12 Zr1 2.125127 1_555
N12 Zr8 2.158654 1_555
N12 Zr14 2.277620 1_565
N13 Zr15 2.117996 1_565
N13 Zr13 2.167556 1_555
N13 Zr12 2.185444 1_555
N13 Zr10 2.272838 1_555
N14 Zr14 2.129879 1_455
N14 Zr10 2.152246 1_555
N14 Zr11 2.201432 1_455
N14 Zr12 2.203283 1_555
N15 Zr4 2.092114 1_555
N15 Zr15 2.165336 1_554
N15 Zr1 2.173078 1_444
N15 Zr10 2.209304 1_544
O0 Zr9 2.147999 1_556
O0 Zr3 2.187690 1_556
O0 Zr4 2.229837 1_556
O0 Zr15 2.263830 1_555
O1 Zr5 2.173169 1_545
O1 Zr14 2.176136 1_555
O1 Zr0 2.240662 1_545
O1 Zr8 2.271947 1_545
O2 Zr14 2.149555 1_454
O2 Zr6 2.210548 1_555
O2 Zr9 2.234044 1_455
O2 Zr1 2.259271 1_444
O3 Zr8 2.127855 1_555
O3 Zr11 2.210435 1_555
O3 Zr4 2.264704 1_555
O3 Zr12 2.304433 1_655
O4 Zr0 2.157726 1_445
O4 Zr7 2.233651 1_555
O4 Zr1 2.255742 1_444
O4 Zr2 2.295209 1_545
O5 Zr3 2.173546 1_555
O5 Zr0 2.182101 1_555
O5 Zr10 2.201374 1_554
O5 Zr13 2.293527 1_554
O6 Zr5 2.161615 1_555
O6 Zr2 2.214601 1_555
O6 Zr15 2.246962 1_565
O6 Zr7 2.283702 1_565
O7 Zr4 2.134454 1_555
O7 Zr7 2.236073 1_555
O7 Zr5 2.265569 1_545
O7 Zr11 2.266112 1_555
