# generated using pymatgen
data_Rb2Ni2O3
_symmetry_space_group_name_H-M   'P 1'
_cell_length_a   6.15385500
_cell_length_b   7.96898700
_cell_length_c   11.71083600
_cell_angle_alpha   90.00000000
_cell_angle_beta   90.00000000
_cell_angle_gamma   90.00000000
_symmetry_Int_Tables_number   1
_chemical_formula_structural   Rb2Ni2O3
_chemical_formula_sum   'Rb8 Ni8 O12'
_cell_volume   574.29928613
_cell_formula_units_Z   4
loop_
 _symmetry_equiv_pos_site_id
 _symmetry_equiv_pos_as_xyz
  1  'x, y, z'
loop_
 _atom_site_type_symbol
 _atom_site_label
 _atom_site_symmetry_multiplicity
 _atom_site_fract_x
 _atom_site_fract_y
 _atom_site_fract_z
 _atom_site_occupancy
  Rb  Rb0  1  0.25000000  0.37143600  0.56269000  1
  Rb  Rb1  1  0.75000000  0.00604900  0.62461400  1
  Rb  Rb2  1  0.25000000  0.50604900  0.87538600  1
  Rb  Rb3  1  0.75000000  0.87143600  0.93731000  1
  Rb  Rb4  1  0.25000000  0.12856400  0.06269000  1
  Rb  Rb5  1  0.75000000  0.49395100  0.12461400  1
  Rb  Rb6  1  0.25000000  0.99395100  0.37538600  1
  Rb  Rb7  1  0.75000000  0.62856400  0.43731000  1
  Ni  Ni0  1  0.25000000  0.78415700  0.64752300  1
  Ni  Ni1  1  0.75000000  0.59003800  0.72592900  1
  Ni  Ni2  1  0.25000000  0.09003800  0.77407100  1
  Ni  Ni3  1  0.75000000  0.28415700  0.85247700  1
  Ni  Ni4  1  0.25000000  0.71584300  0.14752300  1
  Ni  Ni5  1  0.75000000  0.90996200  0.22592900  1
  Ni  Ni6  1  0.25000000  0.40996200  0.27407100  1
  Ni  Ni7  1  0.75000000  0.21584300  0.35247700  1
  O  O0  1  0.25000000  0.01509400  0.62288100  1
  O  O1  1  0.99951600  0.65648100  0.64873400  1
  O  O2  1  0.50048400  0.65648100  0.64873400  1
  O  O3  1  0.00048400  0.15648100  0.85126600  1
  O  O4  1  0.49951600  0.15648100  0.85126600  1
  O  O5  1  0.75000000  0.51509400  0.87711900  1
  O  O6  1  0.25000000  0.48490600  0.12288100  1
  O  O7  1  0.99951600  0.84351900  0.14873400  1
  O  O8  1  0.50048400  0.84351900  0.14873400  1
  O  O9  1  0.49951600  0.34351900  0.35126600  1
  O  O10  1  0.00048400  0.34351900  0.35126600  1
  O  O11  1  0.75000000  0.98490600  0.37711900  1
loop_
_geom_bond_atom_site_label_1
_geom_bond_atom_site_label_2
_geom_bond_distance
_geom_bond_site_symmetry_2
Ni0 O2 1.847010 1_555
Ni0 O1 1.847010 1_455
Ni0 O0 1.862822 1_565
Ni1 O1 1.858848 1_555
Ni1 O2 1.858848 1_555
Ni1 O5 1.868574 1_555
Ni2 O4 1.858848 1_555
Ni2 O3 1.858848 1_555
Ni2 O0 1.868574 1_555
Ni3 O3 1.847010 1_655
Ni3 O4 1.847010 1_555
Ni3 O5 1.862822 1_555
Ni4 O8 1.847010 1_555
Ni4 O7 1.847010 1_455
Ni4 O6 1.862822 1_555
Ni5 O7 1.858848 1_555
Ni5 O8 1.858848 1_555
Ni5 O11 1.868574 1_555
Ni6 O9 1.858848 1_555
Ni6 O10 1.858848 1_555
Ni6 O6 1.868574 1_555
Ni7 O10 1.847010 1_655
Ni7 O9 1.847010 1_555
Ni7 O11 1.862822 1_545
O0 Rb6 2.903267 1_545
O0 Rb0 2.925863 1_555
O0 Rb1 3.077839 1_555
O0 Rb1 3.077839 1_455
O1 Rb7 2.921908 1_555
O1 Rb0 2.924243 1_655
O1 Rb1 3.193375 1_565
O1 Rb2 3.295204 1_655
O2 Rb7 2.921908 1_555
O2 Rb0 2.924243 1_555
O2 Rb1 3.193375 1_565
O2 Rb2 3.295204 1_555
O3 Rb4 2.921908 1_556
O3 Rb3 2.924243 1_445
O3 Rb2 3.193375 1_555
O3 Rb1 3.295204 1_455
O4 Rb4 2.921908 1_556
O4 Rb3 2.924243 1_545
O4 Rb2 3.193375 1_555
O4 Rb1 3.295204 1_555
O5 Rb5 2.903267 1_556
O5 Rb3 2.925863 1_555
O5 Rb2 3.077839 1_655
O5 Rb2 3.077839 1_555
O6 Rb2 2.903267 1_554
O6 Rb4 2.925863 1_555
O6 Rb5 3.077839 1_455
O6 Rb5 3.077839 1_555
O7 Rb3 2.921908 1_554
O7 Rb4 2.924243 1_665
O7 Rb5 3.193375 1_555
O7 Rb6 3.295204 1_655
O8 Rb3 2.921908 1_554
O8 Rb4 2.924243 1_565
O8 Rb5 3.193375 1_555
O8 Rb6 3.295204 1_555
O9 Rb0 2.921908 1_555
O9 Rb7 2.924243 1_555
O9 Rb6 3.193375 1_545
O9 Rb5 3.295204 1_555
O10 Rb0 2.921908 1_555
O10 Rb7 2.924243 1_455
O10 Rb6 3.193375 1_545
O10 Rb5 3.295204 1_455
O11 Rb1 2.903267 1_565
O11 Rb7 2.925863 1_555
O11 Rb6 3.077839 1_555
O11 Rb6 3.077839 1_655
