# generated using pymatgen
data_Li3Mn2P2(CO7)2
_symmetry_space_group_name_H-M   'P 1'
_cell_length_a   8.20198600
_cell_length_b   8.25806845
_cell_length_c   8.28602221
_cell_angle_alpha   92.45337659
_cell_angle_beta   93.06348401
_cell_angle_gamma   104.18353140
_symmetry_Int_Tables_number   1
_chemical_formula_structural   Li3Mn2P2(CO7)2
_chemical_formula_sum   'Li6 Mn4 P4 C4 O28'
_cell_volume   542.44063787
_cell_formula_units_Z   2
loop_
 _symmetry_equiv_pos_site_id
 _symmetry_equiv_pos_as_xyz
  1  'x, y, z'
loop_
 _atom_site_type_symbol
 _atom_site_label
 _atom_site_symmetry_multiplicity
 _atom_site_fract_x
 _atom_site_fract_y
 _atom_site_fract_z
 _atom_site_occupancy
  Li  Li0  1  0.14221800  0.11410200  0.73495000  1
  Li  Li1  1  0.64239800  0.59146200  0.72863900  1
  Li  Li2  1  0.36218700  0.88350500  0.73866700  1
  Li  Li3  1  0.15264000  0.61907600  0.26649900  1
  Li  Li4  1  0.62944000  0.10507200  0.26700000  1
  Li  Li5  1  0.99639100  0.23991400  0.09478500  1
  Mn  Mn0  1  0.77292300  0.02543200  0.66691700  1
  Mn  Mn1  1  0.26846400  0.52056200  0.67176500  1
  Mn  Mn2  1  0.72494000  0.48008100  0.33242800  1
  Mn  Mn3  1  0.22276100  0.98099200  0.32599800  1
  P  P0  1  0.49329400  0.23341000  0.58030800  1
  P  P1  1  0.98812900  0.74455900  0.57784100  1
  P  P2  1  0.01155400  0.26943900  0.41891700  1
  P  P3  1  0.51428600  0.75961000  0.42242300  1
  C  C0  1  0.22443000  0.47465300  0.95179100  1
  C  C1  1  0.72705500  0.98167100  0.95423100  1
  C  C2  1  0.27315400  0.01225700  0.04307300  1
  C  C3  1  0.76849900  0.52341400  0.04933300  1
  O  O0  1  0.34057200  0.59762200  0.90264800  1
  O  O1  1  0.85463400  0.09605200  0.90658100  1
  O  O2  1  0.29452200  0.03769500  0.89628700  1
  O  O3  1  0.14852400  0.36736300  0.83147800  1
  O  O4  1  0.78668600  0.55638400  0.90638700  1
  O  O5  1  0.63988900  0.88830700  0.82903300  1
  O  O6  1  0.45453000  0.38000900  0.67539100  1
  O  O7  1  0.12666800  0.70194700  0.68642700  1
  O  O8  1  0.62298500  0.17109300  0.68882700  1
  O  O9  1  0.93881700  0.88948200  0.67629300  1
  O  O10  1  0.33001200  0.08626400  0.54657600  1
  O  O11  1  0.45573100  0.70036800  0.59109100  1
  O  O12  1  0.95459300  0.19227000  0.57953700  1
  O  O13  1  0.82846800  0.59500300  0.54326500  1
  O  O14  1  0.15106300  0.43256300  0.46200000  1
  O  O15  1  0.56386100  0.28474300  0.41520200  1
  O  O16  1  0.05427200  0.79903600  0.41288200  1
  O  O17  1  0.65847900  0.92505700  0.46025300  1
  O  O18  1  0.07060500  0.14998500  0.30336200  1
  O  O19  1  0.37177300  0.79967600  0.31872600  1
  O  O20  1  0.57337000  0.62492900  0.32351100  1
  O  O21  1  0.86597400  0.31330000  0.31276400  1
  O  O22  1  0.37265400  0.09976200  0.16266700  1
  O  O23  1  0.18037800  0.45627300  0.09370700  1
  O  O24  1  0.86901100  0.60580100  0.17261000  1
  O  O25  1  0.69041600  0.96517400  0.09645900  1
  O  O26  1  0.64881200  0.40425100  0.10210300  1
  O  O27  1  0.14737900  0.90127200  0.09458500  1
loop_
_geom_bond_atom_site_label_1
_geom_bond_atom_site_label_2
_geom_bond_distance
_geom_bond_site_symmetry_2
Li0 O2 2.006428 1_555
Li0 O9 2.186279 1_445
Li0 O12 2.188465 1_455
Li0 O3 2.194518 1_555
Li0 O10 2.293778 1_555
Li1 O4 1.916219 1_555
Li1 O6 2.039849 1_555
Li1 O13 2.218522 1_555
Li1 O11 2.242303 1_555
Li1 O5 2.559998 1_555
Li2 O2 1.979013 1_565
Li2 O7 2.145369 1_555
Li2 O11 2.209473 1_555
Li2 O5 2.349701 1_555
Li2 O10 2.409663 1_565
Li3 O23 1.982200 1_555
Li3 O19 2.046934 1_555
Li3 O16 2.206485 1_555
Li3 O14 2.280952 1_555
Li3 O24 2.388158 1_455
Li4 O25 1.949514 1_545
Li4 O15 2.074726 1_555
Li4 O22 2.223075 1_555
Li4 O21 2.257248 1_555
Li4 O17 2.273179 1_545
Li5 O18 2.031731 1_655
Li5 O23 2.037438 1_655
Li5 O1 2.041038 1_554
Li5 O21 2.281280 1_555
Mn0 O8 1.929342 1_555
Mn0 O17 1.956002 1_545
Mn0 O12 1.958920 1_555
Mn0 O9 1.965357 1_545
Mn0 O5 1.989653 1_545
Mn0 O1 2.073636 1_555
Mn1 O14 1.961229 1_555
Mn1 O3 1.998058 1_555
Mn1 O0 2.001275 1_555
Mn1 O11 2.021847 1_555
Mn1 O7 2.112878 1_555
Mn1 O6 2.131497 1_555
Mn2 O20 1.925679 1_555
Mn2 O24 1.977780 1_555
Mn2 O15 1.991282 1_555
Mn2 O13 1.994565 1_555
Mn2 O26 2.000750 1_555
Mn2 O21 2.010784 1_555
Mn3 O16 1.966525 1_555
Mn3 O22 2.001404 1_565
Mn3 O27 2.014496 1_555
Mn3 O10 2.046332 1_565
Mn3 O18 2.095495 1_565
Mn3 O19 2.153211 1_555
C0 O23 1.253072 1_556
C0 O0 1.306625 1_555
C0 O3 1.324454 1_555
C1 O25 1.236639 1_556
C1 O1 1.317106 1_565
C1 O5 1.328115 1_555
C2 O2 1.257290 1_554
C2 O27 1.305226 1_545
C2 O22 1.316605 1_555
C3 O4 1.235275 1_554
C3 O26 1.316263 1_555
C3 O24 1.327237 1_555
O6 P0 1.523537 1_555
O7 P1 1.529156 1_455
O8 P0 1.552588 1_555
O9 P1 1.565330 1_555
O10 P0 1.575328 1_555
O11 P3 1.561532 1_555
O12 P2 1.545589 1_655
O13 P1 1.568222 1_555
O14 P2 1.552800 1_555
O15 P0 1.549311 1_555
O16 P1 1.541845 1_455
O17 P3 1.579720 1_555
O18 P2 1.525554 1_555
O19 P3 1.523345 1_555
O20 P3 1.540165 1_555
O21 P2 1.567665 1_655
