# generated using pymatgen
data_V2FeO6
_symmetry_space_group_name_H-M   'P 1'
_cell_length_a   6.68051253
_cell_length_b   6.68074987
_cell_length_c   5.75455736
_cell_angle_alpha   74.95516162
_cell_angle_beta   105.05920588
_cell_angle_gamma   96.28047275
_symmetry_Int_Tables_number   1
_chemical_formula_structural   V2FeO6
_chemical_formula_sum   'V4 Fe2 O12'
_cell_volume   239.26701980
_cell_formula_units_Z   2
loop_
 _symmetry_equiv_pos_site_id
 _symmetry_equiv_pos_as_xyz
  1  'x, y, z'
loop_
 _atom_site_type_symbol
 _atom_site_label
 _atom_site_symmetry_multiplicity
 _atom_site_fract_x
 _atom_site_fract_y
 _atom_site_fract_z
 _atom_site_occupancy
  V  V0  1  0.20528764  0.60984463  0.75551510  1
  V  V1  1  0.39004377  0.79473739  0.25549092  1
  V  V2  1  0.60998324  0.20529685  0.74449436  1
  V  V3  1  0.79471083  0.39015601  0.24449626  1
  Fe  Fe0  1  0.08469600  0.08434129  0.75024217  1
  Fe  Fe1  1  0.91526667  0.91567241  0.24975140  1
  O  O0  1  0.03668041  0.80839519  0.63852756  1
  O  O1  1  0.08511221  0.37408106  0.77028126  1
  O  O2  1  0.19165785  0.96348689  0.13851680  1
  O  O3  1  0.37404230  0.65004316  0.55439225  1
  O  O4  1  0.37421557  0.08526294  0.72955154  1
  O  O5  1  0.34996620  0.62591061  0.05424850  1
  O  O6  1  0.65006439  0.37404296  0.94579330  1
  O  O7  1  0.62583926  0.91474865  0.27043846  1
  O  O8  1  0.62597654  0.34994763  0.44561031  1
  O  O9  1  0.80829762  0.03653527  0.86146482  1
  O  O10  1  0.91487629  0.62588439  0.22972014  1
  O  O11  1  0.96328320  0.19161166  0.36146482  1
loop_
_geom_bond_atom_site_label_1
_geom_bond_atom_site_label_2
_geom_bond_distance
_geom_bond_site_symmetry_2
Fe0 O4 1.967686 1_555
Fe0 O1 1.968425 1_555
Fe0 O0 2.072075 1_545
Fe0 O9 2.073671 1_455
Fe0 O2 2.124816 1_546
Fe0 O11 2.128049 1_455
Fe1 O7 1.967063 1_555
Fe1 O10 1.968753 1_555
Fe1 O11 2.072028 1_565
Fe1 O2 2.073659 1_655
Fe1 O9 2.124889 1_564
Fe1 O0 2.128049 1_655
O0 V0 1.717769 1_555
O1 V0 1.679860 1_555
O2 V1 1.717530 1_555
O3 V1 1.764700 1_555
O3 V0 1.770028 1_555
O4 V2 1.679380 1_555
O5 V0 1.763697 1_554
O5 V1 1.770828 1_555
O6 V3 1.763567 1_556
O6 V2 1.770654 1_555
O7 V1 1.679482 1_555
O8 V2 1.764518 1_555
O8 V3 1.769875 1_555
O9 V2 1.717227 1_555
O10 V3 1.679625 1_555
O11 V3 1.717587 1_555
