# generated using pymatgen
data_Rb2CoO3
_symmetry_space_group_name_H-M   'P 1'
_cell_length_a   13.66789300
_cell_length_b   6.66574700
_cell_length_c   16.93553534
_cell_angle_alpha   72.27152231
_cell_angle_beta   90.00000000
_cell_angle_gamma   90.00000000
_symmetry_Int_Tables_number   1
_chemical_formula_structural   Rb2CoO3
_chemical_formula_sum   'Rb24 Co12 O36'
_cell_volume   1469.66713799
_cell_formula_units_Z   12
loop_
 _symmetry_equiv_pos_site_id
 _symmetry_equiv_pos_as_xyz
  1  'x, y, z'
loop_
 _atom_site_type_symbol
 _atom_site_label
 _atom_site_symmetry_multiplicity
 _atom_site_fract_x
 _atom_site_fract_y
 _atom_site_fract_z
 _atom_site_occupancy
  Rb  Rb0  1  0.88784800  0.99502300  0.91824900  1
  Rb  Rb1  1  0.62071400  0.87438500  0.85885100  1
  Rb  Rb2  1  0.30252600  0.87945600  0.80435600  1
  Rb  Rb3  1  0.15420500  0.56387600  0.98971100  1
  Rb  Rb4  1  0.61215200  0.99502300  0.41824900  1
  Rb  Rb5  1  0.00742000  0.63864700  0.77713200  1
  Rb  Rb6  1  0.87928600  0.87438500  0.35885100  1
  Rb  Rb7  1  0.08694300  0.73580500  0.53129500  1
  Rb  Rb8  1  0.19747400  0.87945600  0.30435600  1
  Rb  Rb9  1  0.58694300  0.26419500  0.96870500  1
  Rb  Rb10  1  0.34579500  0.56387600  0.48971100  1
  Rb  Rb11  1  0.50742000  0.36135300  0.72286800  1
  Rb  Rb12  1  0.49258000  0.63864700  0.27713200  1
  Rb  Rb13  1  0.65420500  0.43612400  0.51028900  1
  Rb  Rb14  1  0.41305700  0.73580500  0.03129500  1
  Rb  Rb15  1  0.80252600  0.12054400  0.69564400  1
  Rb  Rb16  1  0.91305700  0.26419500  0.46870500  1
  Rb  Rb17  1  0.12071400  0.12561500  0.64114900  1
  Rb  Rb18  1  0.99258000  0.36135300  0.22286800  1
  Rb  Rb19  1  0.38784800  0.00497700  0.58175100  1
  Rb  Rb20  1  0.84579500  0.43612400  0.01028900  1
  Rb  Rb21  1  0.69747400  0.12054400  0.19564400  1
  Rb  Rb22  1  0.37928600  0.12561500  0.14114900  1
  Rb  Rb23  1  0.11215200  0.00497700  0.08175100  1
  Co  Co0  1  0.61897600  0.84102800  0.63234100  1
  Co  Co1  1  0.84649700  0.72859600  0.60278000  1
  Co  Co2  1  0.75710900  0.52965400  0.79232300  1
  Co  Co3  1  0.25710900  0.47034600  0.70767700  1
  Co  Co4  1  0.34649700  0.27140400  0.89722000  1
  Co  Co5  1  0.88102400  0.84102800  0.13234100  1
  Co  Co6  1  0.11897600  0.15897200  0.86765900  1
  Co  Co7  1  0.65350300  0.72859600  0.10278000  1
  Co  Co8  1  0.74289100  0.52965400  0.29232300  1
  Co  Co9  1  0.24289100  0.47034600  0.20767700  1
  Co  Co10  1  0.15350300  0.27140400  0.39722000  1
  Co  Co11  1  0.38102400  0.15897200  0.36765900  1
  O  O0  1  0.08993300  0.92220900  0.85074000  1
  O  O1  1  0.93886300  0.90754400  0.61117100  1
  O  O2  1  0.80970700  0.70049800  0.83952700  1
  O  O3  1  0.74107300  0.89355200  0.57158500  1
  O  O4  1  0.64517200  0.66366500  0.74037600  1
  O  O5  1  0.41006700  0.92220900  0.35074000  1
  O  O6  1  0.22537300  0.73184300  0.66225000  1
  O  O7  1  0.54680100  0.71238900  0.57777500  1
  O  O8  1  0.36354300  0.41001100  0.96836100  1
  O  O9  1  0.84028900  0.52966900  0.70136400  1
  O  O10  1  0.34028900  0.47033100  0.79863600  1
  O  O11  1  0.86354300  0.58998900  0.53163900  1
  O  O12  1  0.04680100  0.28761100  0.92222500  1
  O  O13  1  0.56113700  0.90754400  0.11117100  1
  O  O14  1  0.69029300  0.70049800  0.33952700  1
  O  O15  1  0.72537300  0.26815700  0.83775000  1
  O  O16  1  0.75892700  0.89355200  0.07158500  1
  O  O17  1  0.14517200  0.33633500  0.75962400  1
  O  O18  1  0.85482800  0.66366500  0.24037600  1
  O  O19  1  0.24107300  0.10644800  0.92841500  1
  O  O20  1  0.27462700  0.73184300  0.16225000  1
  O  O21  1  0.30970700  0.29950200  0.66047300  1
  O  O22  1  0.43886300  0.09245600  0.88882900  1
  O  O23  1  0.95319900  0.71238900  0.07777500  1
  O  O24  1  0.13645700  0.41001100  0.46836100  1
  O  O25  1  0.65971100  0.52966900  0.20136400  1
  O  O26  1  0.15971100  0.47033100  0.29863600  1
  O  O27  1  0.63645700  0.58998900  0.03163900  1
  O  O28  1  0.45319900  0.28761100  0.42222500  1
  O  O29  1  0.77462700  0.26815700  0.33775000  1
  O  O30  1  0.58993300  0.07779100  0.64926000  1
  O  O31  1  0.35482800  0.33633500  0.25962400  1
  O  O32  1  0.25892700  0.10644800  0.42841500  1
  O  O33  1  0.19029300  0.29950200  0.16047300  1
  O  O34  1  0.06113700  0.09245600  0.38882900  1
  O  O35  1  0.91006700  0.07779100  0.14926000  1
loop_
_geom_bond_atom_site_label_1
_geom_bond_atom_site_label_2
_geom_bond_distance
_geom_bond_site_symmetry_2
Co0 O30 1.733723 1_565
Co0 O7 1.744980 1_555
Co0 O4 1.885769 1_555
Co0 O3 1.935670 1_555
Co1 O11 1.742813 1_555
Co1 O1 1.772012 1_555
Co1 O9 1.790162 1_555
Co1 O3 1.791818 1_555
Co2 O15 1.732524 1_555
Co2 O2 1.734132 1_555
Co2 O4 1.853116 1_555
Co2 O9 1.914521 1_555
Co3 O6 1.732524 1_555
Co3 O21 1.734132 1_555
Co3 O17 1.853116 1_555
Co3 O10 1.914521 1_555
Co4 O8 1.742813 1_555
Co4 O22 1.772012 1_555
Co4 O10 1.790162 1_555
Co4 O19 1.791818 1_555
Co5 O35 1.733723 1_565
Co5 O23 1.744980 1_555
Co5 O18 1.885769 1_555
Co5 O16 1.935670 1_555
Co6 O0 1.733723 1_545
Co6 O12 1.744980 1_555
Co6 O17 1.885769 1_555
Co6 O19 1.935670 1_555
Co7 O27 1.742813 1_555
Co7 O13 1.772012 1_555
Co7 O25 1.790162 1_555
Co7 O16 1.791818 1_555
Co8 O29 1.732524 1_555
Co8 O14 1.734132 1_555
Co8 O18 1.853116 1_555
Co8 O25 1.914521 1_555
Co9 O20 1.732524 1_555
Co9 O33 1.734132 1_555
Co9 O31 1.853116 1_555
Co9 O26 1.914521 1_555
Co10 O24 1.742813 1_555
Co10 O34 1.772012 1_555
Co10 O26 1.790162 1_555
Co10 O32 1.791818 1_555
Co11 O5 1.733723 1_545
Co11 O28 1.744980 1_555
Co11 O31 1.885769 1_555
Co11 O32 1.935670 1_555
O0 Rb5 2.798845 1_555
O0 Rb3 2.931292 1_555
O0 Rb2 3.045932 1_555
O0 Rb0 3.083784 1_455
O1 Rb16 2.846794 1_565
O1 Rb7 2.860044 1_655
O1 Rb15 2.961733 1_565
O1 Rb5 2.987027 1_655
O1 Rb17 2.999663 1_665
O2 Rb1 2.890361 1_555
O2 Rb0 2.892469 1_555
O2 Rb20 2.934014 1_556
O2 Rb5 2.975640 1_655
O2 Rb15 3.103510 1_565
O3 Rb4 3.039116 1_555
O3 Rb15 3.056981 1_565
O3 Rb16 3.470398 1_565
O4 Rb1 2.797644 1_555
O4 Rb11 2.838562 1_555
O5 Rb12 2.798845 1_555
O5 Rb10 2.931292 1_555
O5 Rb8 3.045932 1_555
O5 Rb4 3.083784 1_555
O6 Rb7 2.909205 1_555
O6 Rb17 2.914137 1_565
O6 Rb19 2.931410 1_565
O6 Rb2 3.051925 1_555
O7 Rb13 2.852049 1_555
O7 Rb11 2.881189 1_555
O7 Rb4 2.923412 1_555
O7 Rb19 2.933980 1_565
O7 Rb10 3.413397 1_555
O8 Rb14 2.778435 1_556
O8 Rb22 2.970623 1_556
O8 Rb3 3.097581 1_555
O8 Rb9 3.203843 1_555
O9 Rb15 2.806043 1_555
O9 Rb5 2.821355 1_655
O10 Rb2 2.806043 1_555
O10 Rb11 2.821355 1_555
O11 Rb16 2.778435 1_555
O11 Rb6 2.970623 1_555
O11 Rb13 3.097581 1_555
O11 Rb7 3.203843 1_655
O12 Rb3 2.852049 1_555
O12 Rb5 2.881189 1_555
O12 Rb23 2.923412 1_556
O12 Rb0 2.933980 1_445
O12 Rb20 3.413397 1_456
O13 Rb9 2.846794 1_564
O13 Rb14 2.860044 1_555
O13 Rb21 2.961733 1_565
O13 Rb12 2.987027 1_555
O13 Rb22 2.999663 1_565
O14 Rb6 2.890361 1_555
O14 Rb4 2.892469 1_555
O14 Rb13 2.934014 1_555
O14 Rb12 2.975640 1_555
O14 Rb21 3.103510 1_565
O15 Rb9 2.909205 1_555
O15 Rb1 2.914137 1_545
O15 Rb0 2.931410 1_545
O15 Rb15 3.051925 1_555
O16 Rb0 3.039116 1_554
O16 Rb21 3.056981 1_565
O16 Rb9 3.470398 1_564
O17 Rb17 2.797644 1_555
O17 Rb5 2.838562 1_555
O18 Rb6 2.797644 1_555
O18 Rb18 2.838562 1_555
O19 Rb23 3.039116 1_556
O19 Rb2 3.056981 1_545
O19 Rb14 3.470398 1_546
O20 Rb14 2.909205 1_555
O20 Rb22 2.914137 1_565
O20 Rb23 2.931410 1_565
O20 Rb8 3.051925 1_555
O21 Rb17 2.890361 1_555
O21 Rb19 2.892469 1_555
O21 Rb10 2.934014 1_555
O21 Rb11 2.975640 1_555
O21 Rb2 3.103510 1_545
O22 Rb14 2.846794 1_546
O22 Rb9 2.860044 1_555
O22 Rb2 2.961733 1_545
O22 Rb11 2.987027 1_555
O22 Rb1 2.999663 1_545
O23 Rb20 2.852049 1_555
O23 Rb18 2.881189 1_555
O23 Rb0 2.923412 1_554
O23 Rb23 2.933980 1_665
O23 Rb3 3.413397 1_654
O24 Rb7 2.778435 1_555
O24 Rb17 2.970623 1_555
O24 Rb10 3.097581 1_555
O24 Rb16 3.203843 1_455
O25 Rb21 2.806043 1_555
O25 Rb12 2.821355 1_555
O26 Rb8 2.806043 1_555
O26 Rb18 2.821355 1_455
O27 Rb9 2.778435 1_554
O27 Rb1 2.970623 1_554
O27 Rb20 3.097581 1_555
O27 Rb14 3.203843 1_555
O28 Rb10 2.852049 1_555
O28 Rb12 2.881189 1_555
O28 Rb19 2.923412 1_555
O28 Rb4 2.933980 1_545
O28 Rb13 3.413397 1_555
O29 Rb16 2.909205 1_555
O29 Rb6 2.914137 1_545
O29 Rb4 2.931410 1_545
O29 Rb21 3.051925 1_555
O30 Rb11 2.798845 1_555
O30 Rb13 2.931292 1_555
O30 Rb15 3.045932 1_555
O30 Rb19 3.083784 1_555
O31 Rb22 2.797644 1_555
O31 Rb12 2.838562 1_555
O32 Rb19 3.039116 1_555
O32 Rb8 3.056981 1_545
O32 Rb7 3.470398 1_545
O33 Rb22 2.890361 1_555
O33 Rb23 2.892469 1_555
O33 Rb3 2.934014 1_554
O33 Rb18 2.975640 1_455
O33 Rb8 3.103510 1_545
O34 Rb7 2.846794 1_545
O34 Rb16 2.860044 1_455
O34 Rb8 2.961733 1_545
O34 Rb18 2.987027 1_455
O34 Rb6 2.999663 1_445
O35 Rb18 2.798845 1_555
O35 Rb20 2.931292 1_555
O35 Rb21 3.045932 1_555
O35 Rb23 3.083784 1_655
