# generated using pymatgen
data_LiMnF3
_symmetry_space_group_name_H-M   'P 1'
_cell_length_a   6.67262023
_cell_length_b   6.67262023
_cell_length_c   5.92977991
_cell_angle_alpha   88.39624880
_cell_angle_beta   88.39624880
_cell_angle_gamma   84.41016818
_symmetry_Int_Tables_number   1
_chemical_formula_structural   LiMnF3
_chemical_formula_sum   'Li4 Mn4 F12'
_cell_volume   262.57360352
_cell_formula_units_Z   4
loop_
 _symmetry_equiv_pos_site_id
 _symmetry_equiv_pos_as_xyz
  1  'x, y, z'
loop_
 _atom_site_type_symbol
 _atom_site_label
 _atom_site_symmetry_multiplicity
 _atom_site_fract_x
 _atom_site_fract_y
 _atom_site_fract_z
 _atom_site_occupancy
  Li  Li0  1  0.67101700  0.67101700  0.88731400  1
  Li  Li1  1  0.67210200  0.32789800  0.50000000  1
  Li  Li2  1  0.32789800  0.67210200  0.50000000  1
  Li  Li3  1  0.32898300  0.32898300  0.11268600  1
  Mn  Mn0  1  0.76757900  0.76757900  0.31088800  1
  Mn  Mn1  1  0.81074700  0.18925300  0.00000000  1
  Mn  Mn2  1  0.18925300  0.81074700  0.00000000  1
  Mn  Mn3  1  0.23242100  0.23242100  0.68911200  1
  F  F0  1  0.86228900  0.86228900  0.94702900  1
  F  F1  1  0.62826700  0.62826700  0.58297100  1
  F  F2  1  0.27622200  0.91763000  0.67289900  1
  F  F3  1  0.91763000  0.27622200  0.67289900  1
  F  F4  1  0.48067900  0.77478200  0.13238200  1
  F  F5  1  0.77478200  0.48067900  0.13238200  1
  F  F6  1  0.22521800  0.51932100  0.86761800  1
  F  F7  1  0.51932100  0.22521800  0.86761800  1
  F  F8  1  0.72377800  0.08237000  0.32710100  1
  F  F9  1  0.08237000  0.72377800  0.32710100  1
  F  F10  1  0.37173300  0.37173300  0.41702900  1
  F  F11  1  0.13771100  0.13771100  0.05297100  1
loop_
_geom_bond_atom_site_label_1
_geom_bond_atom_site_label_2
_geom_bond_distance
_geom_bond_site_symmetry_2
F0 Li0 1.936780 1_555
F0 Mn1 2.205204 1_566
F0 Mn2 2.205204 1_656
F0 Mn0 2.319304 1_556
F1 Li0 1.868988 1_555
F1 Li1 2.068227 1_555
F1 Li2 2.068227 1_555
F1 Mn0 2.081274 1_555
F2 Li2 1.954046 1_555
F2 Mn3 2.096859 1_565
F2 Mn2 2.132554 1_556
F3 Li1 1.954046 1_555
F3 Mn3 2.096859 1_655
F3 Mn1 2.132554 1_556
F4 Li0 1.996477 1_554
F4 Mn2 2.106934 1_555
F4 Mn0 2.209121 1_555
F4 Li2 2.487713 1_555
F5 Li0 1.996477 1_554
F5 Mn1 2.106934 1_555
F5 Mn0 2.209121 1_555
F5 Li1 2.487713 1_555
F6 Li3 1.996477 1_556
F6 Mn2 2.106934 1_556
F6 Mn3 2.209121 1_555
F6 Li2 2.487713 1_555
F7 Li3 1.996477 1_556
F7 Mn1 2.106934 1_556
F7 Mn3 2.209121 1_555
F7 Li1 2.487713 1_555
F8 Li1 1.954046 1_555
F8 Mn0 2.096859 1_545
F8 Mn1 2.132554 1_555
F9 Li2 1.954046 1_555
F9 Mn0 2.096859 1_455
F9 Mn2 2.132554 1_555
F10 Li3 1.868988 1_555
F10 Li1 2.068227 1_555
F10 Li2 2.068227 1_555
F10 Mn3 2.081274 1_555
F11 Li3 1.936780 1_555
F11 Mn2 2.205204 1_545
F11 Mn1 2.205204 1_455
F11 Mn3 2.319304 1_554
