# generated using pymatgen
data_Li6Cr2O7
_symmetry_space_group_name_H-M   'P 1'
_cell_length_a   5.75063224
_cell_length_b   5.75063224
_cell_length_c   9.63468705
_cell_angle_alpha   80.61803617
_cell_angle_beta   80.61803617
_cell_angle_gamma   59.45328407
_symmetry_Int_Tables_number   1
_chemical_formula_structural   Li6Cr2O7
_chemical_formula_sum   'Li12 Cr4 O14'
_cell_volume   269.51963699
_cell_formula_units_Z   2
loop_
 _symmetry_equiv_pos_site_id
 _symmetry_equiv_pos_as_xyz
  1  'x, y, z'
loop_
 _atom_site_type_symbol
 _atom_site_label
 _atom_site_symmetry_multiplicity
 _atom_site_fract_x
 _atom_site_fract_y
 _atom_site_fract_z
 _atom_site_occupancy
  Li  Li0  1  0.52855800  0.33012300  0.11487800  1
  Li  Li1  1  0.07800500  0.78863100  0.10002500  1
  Li  Li2  1  0.33012300  0.52855800  0.61487800  1
  Li  Li3  1  0.78863100  0.07800500  0.60002500  1
  Li  Li4  1  0.66876800  0.92199600  0.38438700  1
  Li  Li5  1  0.92199600  0.66876800  0.88438700  1
  Li  Li6  1  0.07800400  0.33123200  0.11561300  1
  Li  Li7  1  0.33123200  0.07800400  0.61561300  1
  Li  Li8  1  0.21136900  0.92199500  0.39997500  1
  Li  Li9  1  0.66987700  0.47144200  0.38512200  1
  Li  Li10  1  0.92199500  0.21136900  0.89997500  1
  Li  Li11  1  0.47144200  0.66987700  0.88512200  1
  Cr  Cr0  1  0.19226100  0.43918600  0.36927600  1
  Cr  Cr1  1  0.43918600  0.19226100  0.86927600  1
  Cr  Cr2  1  0.56081400  0.80773900  0.13072400  1
  Cr  Cr3  1  0.80773900  0.56081400  0.63072400  1
  O  O0  1  0.48943300  0.26393200  0.47143900  1
  O  O1  1  0.26393200  0.48943300  0.97143900  1
  O  O2  1  0.72841200  0.99811100  0.00224200  1
  O  O3  1  0.87274400  0.63500100  0.25090100  1
  O  O4  1  0.36499900  0.12725600  0.24909900  1
  O  O5  1  0.99811100  0.72841200  0.50224200  1
  O  O6  1  0.00188900  0.27158800  0.49775800  1
  O  O7  1  0.63500100  0.87274400  0.75090100  1
  O  O8  1  0.12725600  0.36499900  0.74909900  1
  O  O9  1  0.27158800  0.00188900  0.99775800  1
  O  O10  1  0.73606800  0.51056700  0.02856100  1
  O  O11  1  0.34808600  0.65191400  0.25000000  1
  O  O12  1  0.51056700  0.73606800  0.52856100  1
  O  O13  1  0.65191400  0.34808600  0.75000000  1
loop_
_geom_bond_atom_site_label_1
_geom_bond_atom_site_label_2
_geom_bond_distance
_geom_bond_site_symmetry_2
Li0 O10 1.961157 1_555
Li0 O1 1.980084 1_554
Li0 O4 2.035904 1_555
Li0 O2 2.045070 1_545
Li0 O11 2.142209 1_555
Li1 O1 2.007873 1_554
Li1 O2 2.041114 1_455
Li1 O11 2.058728 1_555
Li1 O9 2.085722 1_564
Li1 O3 2.090164 1_455
Li2 O12 1.961157 1_555
Li2 O0 1.980084 1_555
Li2 O8 2.035904 1_555
Li2 O5 2.045070 1_455
Li2 O13 2.142209 1_555
Li3 O0 2.007873 1_555
Li3 O5 2.041114 1_545
Li3 O13 2.058728 1_555
Li3 O6 2.085722 1_655
Li3 O7 2.090164 1_545
Li4 O0 1.956509 1_565
Li4 O3 1.996534 1_555
Li4 O12 1.998221 1_555
Li4 O5 2.064339 1_555
Li4 O4 2.070899 1_565
Li5 O1 1.956509 1_655
Li5 O7 1.996534 1_555
Li5 O10 1.998221 1_556
Li5 O2 2.064339 1_556
Li5 O8 2.070899 1_655
Li6 O10 1.956509 1_455
Li6 O4 1.996534 1_555
Li6 O1 1.998221 1_554
Li6 O9 2.064339 1_554
Li6 O3 2.070899 1_455
Li7 O12 1.956509 1_545
Li7 O8 1.996534 1_555
Li7 O0 1.998221 1_555
Li7 O6 2.064339 1_555
Li7 O7 2.070899 1_545
Li8 O12 2.007873 1_555
Li8 O6 2.041114 1_565
Li8 O11 2.058728 1_555
Li8 O5 2.085722 1_455
Li8 O4 2.090164 1_565
Li9 O0 1.961157 1_555
Li9 O12 1.980084 1_555
Li9 O3 2.035904 1_555
Li9 O6 2.045070 1_655
Li9 O11 2.142209 1_555
Li10 O10 2.007873 1_556
Li10 O9 2.041114 1_655
Li10 O13 2.058728 1_555
Li10 O2 2.085722 1_546
Li10 O8 2.090164 1_655
Li11 O1 1.961157 1_555
Li11 O10 1.980084 1_556
Li11 O7 2.035904 1_555
Li11 O9 2.045070 1_565
Li11 O13 2.142209 1_555
Cr0 O0 1.838291 1_555
Cr0 O6 1.975211 1_555
Cr0 O11 1.985024 1_555
Cr0 O5 1.998711 1_455
Cr0 O4 2.008989 1_555
Cr0 O3 2.026390 1_455
Cr1 O1 1.838291 1_555
Cr1 O9 1.975211 1_555
Cr1 O13 1.985024 1_555
Cr1 O2 1.998711 1_546
Cr1 O8 2.008989 1_555
Cr1 O7 2.026390 1_545
Cr2 O10 1.838291 1_555
Cr2 O2 1.975211 1_555
Cr2 O11 1.985024 1_555
Cr2 O9 1.998711 1_564
Cr2 O3 2.008989 1_555
Cr2 O4 2.026390 1_565
Cr3 O12 1.838291 1_555
Cr3 O5 1.975211 1_555
Cr3 O13 1.985024 1_555
Cr3 O6 1.998711 1_655
Cr3 O7 2.008989 1_555
Cr3 O8 2.026390 1_655
