# generated using pymatgen
data_Li5Cu(PO4)2
_symmetry_space_group_name_H-M   'P 1'
_cell_length_a   5.33800700
_cell_length_b   6.21500959
_cell_length_c   9.95567526
_cell_angle_alpha   89.87822099
_cell_angle_beta   89.81502542
_cell_angle_gamma   89.91042878
_symmetry_Int_Tables_number   1
_chemical_formula_structural   Li5Cu(PO4)2
_chemical_formula_sum   'Li10 Cu2 P4 O16'
_cell_volume   330.28427283
_cell_formula_units_Z   2
loop_
 _symmetry_equiv_pos_site_id
 _symmetry_equiv_pos_as_xyz
  1  'x, y, z'
loop_
 _atom_site_type_symbol
 _atom_site_label
 _atom_site_symmetry_multiplicity
 _atom_site_fract_x
 _atom_site_fract_y
 _atom_site_fract_z
 _atom_site_occupancy
  Li  Li0  1  0.84480600  0.00001600  0.75517200  1
  Li  Li1  1  0.67346800  0.75494400  0.50510800  1
  Li  Li2  1  0.67167200  0.75190500  0.00355300  1
  Li  Li3  1  0.32765500  0.74666500  0.75448400  1
  Li  Li4  1  0.32652900  0.74977200  0.25465200  1
  Li  Li5  1  0.15502300  0.49957400  0.00363700  1
  Li  Li6  1  0.15628800  0.50015900  0.50522900  1
  Li  Li7  1  0.32690300  0.25049000  0.25498400  1
  Li  Li8  1  0.32626800  0.25320800  0.75404800  1
  Li  Li9  1  0.67394200  0.24645400  0.50598300  1
  Cu  Cu0  1  0.82581500  0.00223300  0.25370200  1
  Cu  Cu1  1  0.66472600  0.24437800  0.00259000  1
  P  P0  1  0.17813100  0.99565400  0.99797200  1
  P  P1  1  0.17868700  0.99992500  0.50323900  1
  P  P2  1  0.82625200  0.50181600  0.74752500  1
  P  P3  1  0.82834000  0.50294700  0.25312700  1
  O  O0  1  0.19326500  0.00001200  0.34640400  1
  O  O1  1  0.90111300  0.00005100  0.55186000  1
  O  O2  1  0.18632500  0.00010500  0.84194200  1
  O  O3  1  0.89878900  0.98421800  0.04392400  1
  O  O4  1  0.31407500  0.79310900  0.55571700  1
  O  O5  1  0.31784600  0.79274900  0.05175100  1
  O  O6  1  0.68752900  0.70520100  0.80207000  1
  O  O7  1  0.68232600  0.70326100  0.30757700  1
  O  O8  1  0.82704600  0.50955600  0.09653600  1
  O  O9  1  0.10382700  0.50096000  0.30316600  1
  O  O10  1  0.82259700  0.50380400  0.59124800  1
  O  O11  1  0.10145800  0.49985800  0.79986400  1
  O  O12  1  0.68407800  0.30082400  0.30612200  1
  O  O13  1  0.68668700  0.29248500  0.79365600  1
  O  O14  1  0.31343200  0.20669100  0.55511900  1
  O  O15  1  0.29510300  0.20697600  0.05544900  1
loop_
_geom_bond_atom_site_label_1
_geom_bond_atom_site_label_2
_geom_bond_distance
_geom_bond_site_symmetry_2
Li0 O2 2.019866 1_655
Li0 O13 2.039435 1_555
Li0 O1 2.045342 1_555
Li0 O6 2.068506 1_545
Li1 O10 1.949408 1_555
Li1 O7 1.993686 1_555
Li1 O4 1.995843 1_555
Li1 O1 2.006566 1_565
Li2 O3 1.930560 1_555
Li2 O8 1.951560 1_555
Li2 O5 1.963451 1_555
Li2 O6 2.028880 1_554
Li3 O2 1.950946 1_565
Li3 O6 1.996231 1_555
Li3 O4 2.000723 1_555
Li3 O11 2.003553 1_555
Li4 O0 1.938454 1_565
Li4 O7 1.993094 1_555
Li4 O9 2.009132 1_555
Li4 O5 2.037702 1_555
Li5 O8 1.978330 1_455
Li5 O15 2.031352 1_555
Li5 O11 2.049659 1_554
Li5 O5 2.077550 1_555
Li6 O10 1.974040 1_455
Li6 O9 2.031961 1_555
Li6 O14 2.066648 1_555
Li6 O4 2.070842 1_555
Li7 O0 1.937497 1_555
Li7 O12 2.000250 1_555
Li7 O15 2.013147 1_555
Li7 O9 2.016179 1_555
Li8 O2 1.947251 1_555
Li8 O13 1.980737 1_555
Li8 O11 1.997927 1_555
Li8 O14 2.003477 1_555
Li9 O10 1.980538 1_555
Li9 O14 1.999650 1_555
Li9 O1 2.004764 1_555
Li9 O12 2.018099 1_555
Cu0 O12 2.070207 1_555
Cu0 O7 2.079544 1_545
Cu0 O3 2.126413 1_545
Cu0 O0 2.170436 1_655
Cu1 O15 2.053803 1_555
Cu1 O3 2.083013 1_545
Cu1 O8 2.087575 1_555
Cu1 O13 2.103748 1_554
O0 P1 1.563084 1_545
O1 P1 1.557269 1_645
O2 P0 1.554047 1_545
O3 P0 1.559999 1_654
O4 P1 1.563360 1_555
O5 P0 1.558816 1_554
O6 P2 1.561545 1_555
O7 P3 1.564728 1_555
O8 P3 1.559460 1_555
O9 P3 1.554187 1_455
O10 P2 1.556051 1_555
O11 P2 1.560331 1_455
O12 P3 1.564285 1_555
O13 P2 1.567423 1_555
O14 P1 1.563199 1_545
O15 P0 1.565347 1_544
