# generated using pymatgen
data_Ca3WO6
_symmetry_space_group_name_H-M   'P 1'
_cell_length_a   6.54214033
_cell_length_b   6.54214033
_cell_length_c   6.54214099
_cell_angle_alpha   91.64715566
_cell_angle_beta   91.64715571
_cell_angle_gamma   91.64716318
_symmetry_Int_Tables_number   1
_chemical_formula_structural   Ca3WO6
_chemical_formula_sum   'Ca6 W2 O12'
_cell_volume   279.64712280
_cell_formula_units_Z   2
loop_
 _symmetry_equiv_pos_site_id
 _symmetry_equiv_pos_as_xyz
  1  'x, y, z'
loop_
 _atom_site_type_symbol
 _atom_site_label
 _atom_site_symmetry_multiplicity
 _atom_site_fract_x
 _atom_site_fract_y
 _atom_site_fract_z
 _atom_site_occupancy
  Ca  Ca0  1  0.93404872  0.43611579  0.74720780  1
  Ca  Ca1  1  0.74720780  0.93404872  0.43611579  1
  Ca  Ca2  1  0.56388421  0.25279220  0.06595128  1
  Ca  Ca3  1  0.43611579  0.74720780  0.93404872  1
  Ca  Ca4  1  0.25279220  0.06595128  0.56388421  1
  Ca  Ca5  1  0.06595128  0.56388421  0.25279220  1
  W  W0  1  -0.00000000  -0.00000000  0.00000000  1
  W  W1  1  0.50000000  0.50000000  0.50000000  1
  O  O0  1  0.93820861  0.28142845  0.06902881  1
  O  O1  1  0.93097119  0.06179139  0.71857155  1
  O  O2  1  0.78144272  0.57766231  0.45266360  1
  O  O3  1  0.71857155  0.93097119  0.06179139  1
  O  O4  1  0.57766231  0.45266360  0.78144272  1
  O  O5  1  0.54733640  0.21855728  0.42233769  1
  O  O6  1  0.45266360  0.78144272  0.57766231  1
  O  O7  1  0.42233769  0.54733640  0.21855728  1
  O  O8  1  0.28142845  0.06902881  0.93820861  1
  O  O9  1  0.21855728  0.42233769  0.54733640  1
  O  O10  1  0.06902881  0.93820861  0.28142845  1
  O  O11  1  0.06179139  0.71857155  0.93097119  1
loop_
_geom_bond_atom_site_label_1
_geom_bond_atom_site_label_2
_geom_bond_distance
_geom_bond_site_symmetry_2
Ca0 O11 2.298710 1_655
Ca0 O9 2.307621 1_655
Ca0 O4 2.353944 1_555
Ca0 O0 2.361850 1_556
Ca0 O2 2.369076 1_555
Ca0 O1 2.450123 1_555
Ca1 O1 2.298710 1_565
Ca1 O5 2.307621 1_565
Ca1 O2 2.353944 1_555
Ca1 O10 2.361850 1_655
Ca1 O6 2.369075 1_555
Ca1 O3 2.450123 1_555
Ca2 O8 2.298710 1_554
Ca2 O4 2.307621 1_554
Ca2 O5 2.353944 1_555
Ca2 O3 2.361850 1_545
Ca2 O7 2.369076 1_555
Ca2 O0 2.450123 1_555
Ca3 O3 2.298710 1_556
Ca3 O7 2.307621 1_556
Ca3 O6 2.353944 1_555
Ca3 O8 2.361850 1_565
Ca3 O4 2.369076 1_555
Ca3 O11 2.450123 1_555
Ca4 O10 2.298710 1_545
Ca4 O6 2.307621 1_545
Ca4 O9 2.353944 1_555
Ca4 O1 2.361850 1_455
Ca4 O5 2.369075 1_555
Ca4 O8 2.450123 1_555
Ca5 O0 2.298710 1_455
Ca5 O2 2.307621 1_455
Ca5 O7 2.353944 1_555
Ca5 O11 2.361850 1_554
Ca5 O9 2.369076 1_555
Ca5 O10 2.450123 1_555
O0 W0 1.939756 1_655
O1 W0 1.939756 1_656
O2 W1 1.931902 1_555
O3 W0 1.939756 1_665
O4 W1 1.931903 1_555
O5 W1 1.931903 1_555
O6 W1 1.931903 1_555
O7 W1 1.931903 1_555
O8 W0 1.939756 1_556
O9 W1 1.931902 1_555
O10 W0 1.939756 1_565
O11 W0 1.939756 1_566
