# generated using pymatgen
data_Na2LiMnPCO7
_symmetry_space_group_name_H-M   'P 1'
_cell_length_a   6.82335400
_cell_length_b   8.85903172
_cell_length_c   10.22184634
_cell_angle_alpha   91.04088321
_cell_angle_beta   90.01372160
_cell_angle_gamma   90.33642830
_symmetry_Int_Tables_number   1
_chemical_formula_structural   Na2LiMnPCO7
_chemical_formula_sum   'Na8 Li4 Mn4 P4 C4 O28'
_cell_volume   617.78068456
_cell_formula_units_Z   4
loop_
 _symmetry_equiv_pos_site_id
 _symmetry_equiv_pos_as_xyz
  1  'x, y, z'
loop_
 _atom_site_type_symbol
 _atom_site_label
 _atom_site_symmetry_multiplicity
 _atom_site_fract_x
 _atom_site_fract_y
 _atom_site_fract_z
 _atom_site_occupancy
  Na  Na0  1  0.25075200  0.91616100  0.37839400  1
  Na  Na1  1  0.00027200  0.74429900  0.62600900  1
  Na  Na2  1  0.49933700  0.74395900  0.62592100  1
  Na  Na3  1  0.00039200  0.74185600  0.12373300  1
  Na  Na4  1  0.50016000  0.74182600  0.12299100  1
  Na  Na5  1  0.50064600  0.25451600  0.87446000  1
  Na  Na6  1  0.50213100  0.25688600  0.37636300  1
  Na  Na7  1  0.99864000  0.25584100  0.37560600  1
  Li  Li0  1  0.24096100  0.91944100  0.87533700  1
  Li  Li1  1  0.97947000  0.26766600  0.88248400  1
  Li  Li2  1  0.75813500  0.09031700  0.62814400  1
  Li  Li3  1  0.75419500  0.09220600  0.12242500  1
  Mn  Mn0  1  0.74981600  0.64123200  0.88591800  1
  Mn  Mn1  1  0.75056100  0.63634700  0.38921800  1
  Mn  Mn2  1  0.24771200  0.35696500  0.61477800  1
  Mn  Mn3  1  0.24635300  0.35582300  0.10785600  1
  P  P0  1  0.24561000  0.59328100  0.85161600  1
  P  P1  1  0.25036200  0.58825000  0.35329800  1
  P  P2  1  0.75357800  0.40225900  0.64979400  1
  P  P3  1  0.74895600  0.40371900  0.14298500  1
  C  C0  1  0.75903700  0.95507800  0.86758200  1
  C  C1  1  0.75031300  0.94755900  0.36516100  1
  C  C2  1  0.24818200  0.05833500  0.64102300  1
  C  C3  1  0.24937500  0.05126100  0.12795500  1
  O  O0  1  0.25098100  0.91409600  0.66106200  1
  O  O1  1  0.25149000  0.90830400  0.14928100  1
  O  O2  1  0.75187400  0.91397000  0.98865500  1
  O  O3  1  0.75145900  0.91057100  0.48782400  1
  O  O4  1  0.74877600  0.85376000  0.77327500  1
  O  O5  1  0.75132500  0.84306100  0.27369100  1
  O  O6  1  0.06823700  0.69424400  0.89189500  1
  O  O7  1  0.43274200  0.68197400  0.89508000  1
  O  O8  1  0.06757700  0.68124100  0.39583800  1
  O  O9  1  0.43425200  0.68211500  0.39505600  1
  O  O10  1  0.24796200  0.57348100  0.69959100  1
  O  O11  1  0.74918200  0.56263000  0.59000500  1
  O  O12  1  0.24913700  0.56882100  0.20098000  1
  O  O13  1  0.75034800  0.56381800  0.08329000  1
  O  O14  1  0.23300100  0.43214300  0.91017400  1
  O  O15  1  0.76736500  0.42277800  0.80219500  1
  O  O16  1  0.25124200  0.42887200  0.41363900  1
  O  O17  1  0.75430600  0.42463100  0.29490400  1
  O  O18  1  0.56802700  0.30730700  0.61407400  1
  O  O19  1  0.93016200  0.30666900  0.60159500  1
  O  O20  1  0.56484100  0.30913100  0.10370800  1
  O  O21  1  0.92721800  0.30650800  0.09687500  1
  O  O22  1  0.24353500  0.15104900  0.74090100  1
  O  O23  1  0.24611800  0.14691100  0.22705500  1
  O  O24  1  0.24988100  0.11180400  0.52361700  1
  O  O25  1  0.25001400  0.10095400  0.00926500  1
  O  O26  1  0.77567200  0.09640500  0.83670800  1
  O  O27  1  0.74833300  0.08766600  0.33071900  1
loop_
_geom_bond_atom_site_label_1
_geom_bond_atom_site_label_2
_geom_bond_distance
_geom_bond_site_symmetry_2
Na0 O24 2.261477 1_565
Na0 O1 2.341735 1_555
Na0 O8 2.430689 1_555
Na0 O9 2.437009 1_555
Na0 O23 2.586227 1_565
Na0 O0 2.889779 1_555
Na1 O0 2.295088 1_555
Na1 O11 2.367860 1_455
Na1 O10 2.404762 1_555
Na1 O8 2.452406 1_555
Na1 O4 2.473648 1_455
Na1 O3 2.674146 1_455
Na1 O6 2.800712 1_555
Na2 O0 2.298518 1_555
Na2 O11 2.373313 1_555
Na2 O10 2.408628 1_555
Na2 O9 2.452760 1_555
Na2 O4 2.457208 1_555
Na2 O3 2.679143 1_555
Na2 O7 2.851358 1_555
Na3 O1 2.265872 1_555
Na3 O13 2.348165 1_455
Na3 O12 2.434741 1_555
Na3 O6 2.444326 1_554
Na3 O5 2.451712 1_455
Na3 O2 2.685625 1_454
Na3 O8 2.879467 1_555
Na4 O1 2.267502 1_555
Na4 O13 2.361040 1_555
Na4 O7 2.423194 1_554
Na4 O12 2.435676 1_555
Na4 O5 2.458622 1_555
Na4 O2 2.684709 1_554
Na4 O9 2.875294 1_555
Na5 O26 2.375733 1_555
Na5 O22 2.390877 1_555
Na5 O20 2.423432 1_556
Na5 O14 2.440868 1_555
Na5 O15 2.467498 1_555
Na5 O25 2.591527 1_556
Na5 O18 2.749117 1_555
Na6 O27 2.300379 1_555
Na6 O16 2.325317 1_555
Na6 O17 2.424468 1_555
Na6 O23 2.500952 1_555
Na6 O18 2.502704 1_555
Na6 O24 2.631665 1_555
Na6 O20 2.865310 1_555
Na7 O27 2.300472 1_555
Na7 O16 2.327801 1_655
Na7 O19 2.392173 1_555
Na7 O17 2.401954 1_555
Na7 O23 2.460810 1_655
Na7 O24 2.636415 1_655
Li0 O25 2.093448 1_566
Li0 O0 2.191030 1_555
Li0 O6 2.320028 1_555
Li0 O22 2.490119 1_565
Li0 O7 2.495282 1_555
Li1 O26 2.098502 1_555
Li1 O15 2.172593 1_555
Li1 O21 2.241091 1_556
Li1 O14 2.269607 1_655
Li1 O22 2.525298 1_655
Li2 O3 2.123952 1_545
Li2 O26 2.134921 1_555
Li2 O19 2.262235 1_555
Li2 O18 2.331931 1_555
Li2 O4 2.590002 1_545
Li3 O2 2.069893 1_544
Li3 O27 2.130640 1_555
Li3 O21 2.249043 1_555
Li3 O20 2.332691 1_555
Mn0 O15 2.105869 1_555
Mn0 O13 2.142657 1_556
Mn0 O7 2.197237 1_555
Mn0 O6 2.220771 1_655
Mn0 O4 2.224779 1_555
Mn0 O2 2.616952 1_555
Mn1 O17 2.093519 1_555
Mn1 O11 2.165090 1_555
Mn1 O5 2.196957 1_555
Mn1 O8 2.197877 1_655
Mn1 O9 2.199006 1_555
Mn1 O3 2.613162 1_555
Mn2 O10 2.090534 1_555
Mn2 O16 2.163561 1_555
Mn2 O19 2.213113 1_455
Mn2 O18 2.231975 1_555
Mn2 O22 2.252885 1_555
Mn2 O24 2.347869 1_555
Mn3 O12 2.097948 1_555
Mn3 O14 2.144491 1_554
Mn3 O20 2.214830 1_555
Mn3 O21 2.220858 1_455
Mn3 O23 2.234230 1_555
Mn3 O25 2.456080 1_555
C0 O2 1.297242 1_555
C0 O26 1.301053 1_565
C0 O4 1.306761 1_555
C1 O27 1.296460 1_565
C1 O3 1.301732 1_555
C1 O5 1.303804 1_555
C2 O0 1.298051 1_545
C2 O24 1.298214 1_555
C2 O22 1.299154 1_555
C3 O1 1.289145 1_545
C3 O25 1.298128 1_555
C3 O23 1.309087 1_555
O6 P0 1.560089 1_555
O7 P0 1.555770 1_555
O8 P1 1.556465 1_555
O9 P1 1.556490 1_555
O10 P0 1.560772 1_555
O11 P2 1.557217 1_555
O12 P1 1.563360 1_555
O13 P3 1.554140 1_555
O14 P0 1.559855 1_555
O15 P2 1.567844 1_555
O16 P1 1.551055 1_555
O17 P3 1.560952 1_555
O18 P2 1.555627 1_555
O19 P2 1.552014 1_555
O20 P3 1.554600 1_555
O21 P3 1.562412 1_555
