# generated using pymatgen
data_Li2TiCo3O8
_symmetry_space_group_name_H-M   'P 1'
_cell_length_a   8.51973417
_cell_length_b   8.51973417
_cell_length_c   8.16691096
_cell_angle_alpha   89.88325412
_cell_angle_beta   89.88325412
_cell_angle_gamma   90.08867759
_symmetry_Int_Tables_number   1
_chemical_formula_structural   Li2TiCo3O8
_chemical_formula_sum   'Li8 Ti4 Co12 O32'
_cell_volume   592.79916457
_cell_formula_units_Z   4
loop_
 _symmetry_equiv_pos_site_id
 _symmetry_equiv_pos_as_xyz
  1  'x, y, z'
loop_
 _atom_site_type_symbol
 _atom_site_label
 _atom_site_symmetry_multiplicity
 _atom_site_fract_x
 _atom_site_fract_y
 _atom_site_fract_z
 _atom_site_occupancy
  Li  Li0  1  0.99854100  0.74816600  0.62937100  1
  Li  Li1  1  0.25183400  0.00145900  0.37062900  1
  Li  Li2  1  0.75165100  0.99672300  0.87901300  1
  Li  Li3  1  0.49882500  0.25044400  0.61855300  1
  Li  Li4  1  0.00327700  0.24834900  0.12098700  1
  Li  Li5  1  0.74955600  0.50117500  0.38144700  1
  Li  Li6  1  0.24633300  0.49672900  0.86897600  1
  Li  Li7  1  0.50327100  0.75366700  0.13102400  1
  Ti  Ti0  1  0.37815300  0.88675900  0.74237800  1
  Ti  Ti1  1  0.88855800  0.11144200  0.50000000  1
  Ti  Ti2  1  0.61629100  0.38370900  0.00000000  1
  Ti  Ti3  1  0.11324100  0.62184700  0.25762200  1
  Co  Co0  1  0.62408700  0.87205900  0.49765500  1
  Co  Co1  1  0.87509400  0.87912900  0.24438900  1
  Co  Co2  1  0.12929000  0.87071000  0.00000000  1
  Co  Co3  1  0.62949400  0.12665500  0.24778900  1
  Co  Co4  1  0.37078300  0.11826100  0.00810400  1
  Co  Co5  1  0.12087100  0.12490600  0.75561100  1
  Co  Co6  1  0.37497200  0.37029700  0.25305900  1
  Co  Co7  1  0.12794100  0.37591300  0.50234500  1
  Co  Co8  1  0.87334500  0.37050600  0.75221100  1
  Co  Co9  1  0.37346900  0.62653100  0.50000000  1
  Co  Co10  1  0.62970300  0.62502800  0.74694100  1
  Co  Co11  1  0.88173900  0.62921700  0.99189600  1
  O  O0  1  0.38420700  0.86409000  0.50926000  1
  O  O1  1  0.60412500  0.86530900  0.74350800  1
  O  O2  1  0.89540300  0.86328500  0.00752400  1
  O  O3  1  0.86518200  0.89040400  0.49134000  1
  O  O4  1  0.11531900  0.85797200  0.23889900  1
  O  O5  1  0.64378500  0.89614000  0.25616700  1
  O  O6  1  0.36029700  0.87705600  0.98833800  1
  O  O7  1  0.14202800  0.88468100  0.76110100  1
  O  O8  1  0.63692800  0.11384900  0.47360100  1
  O  O9  1  0.86996200  0.11842100  0.26337400  1
  O  O10  1  0.13671500  0.10459700  0.99247600  1
  O  O11  1  0.61874600  0.13646400  0.02401500  1
  O  O12  1  0.36828800  0.10817900  0.76394500  1
  O  O13  1  0.38290300  0.13796700  0.23654300  1
  O  O14  1  0.10959600  0.13481800  0.50866000  1
  O  O15  1  0.88157900  0.13003800  0.73662600  1
  O  O16  1  0.61748000  0.35660000  0.23918100  1
  O  O17  1  0.39276100  0.36739400  0.00971700  1
  O  O18  1  0.10386000  0.35621500  0.74383300  1
  O  O19  1  0.13469100  0.39587500  0.25649200  1
  O  O20  1  0.88615100  0.36307200  0.52639900  1
  O  O21  1  0.35931200  0.38859300  0.48798700  1
  O  O22  1  0.64340000  0.38252000  0.76081900  1
  O  O23  1  0.86353600  0.38125400  0.97598500  1
  O  O24  1  0.36356500  0.61776900  0.27684900  1
  O  O25  1  0.13591000  0.61579300  0.49074000  1
  O  O26  1  0.86203300  0.61709700  0.76345700  1
  O  O27  1  0.38223100  0.63643500  0.72315100  1
  O  O28  1  0.63260600  0.60723900  0.99028300  1
  O  O29  1  0.61140700  0.64068800  0.51201300  1
  O  O30  1  0.89182100  0.63171200  0.23605500  1
  O  O31  1  0.12294400  0.63970300  0.01166200  1
loop_
_geom_bond_atom_site_label_1
_geom_bond_atom_site_label_2
_geom_bond_distance
_geom_bond_site_symmetry_2
Li0 O26 1.945389 1_555
Li0 O25 1.981753 1_655
Li0 O7 2.002656 1_655
Li0 O3 2.008515 1_555
Li1 O13 1.945389 1_555
Li1 O0 1.981753 1_545
Li1 O4 2.002656 1_545
Li1 O14 2.008515 1_555
Li2 O15 1.962939 1_565
Li2 O2 1.974492 1_556
Li2 O1 2.016020 1_555
Li2 O11 2.026423 1_566
Li3 O21 1.984826 1_555
Li3 O12 2.024958 1_555
Li3 O22 2.034748 1_555
Li3 O8 2.035754 1_555
Li4 O9 1.962939 1_455
Li4 O10 1.974492 1_554
Li4 O19 2.016020 1_555
Li4 O23 2.026423 1_454
Li5 O29 1.984826 1_555
Li5 O30 2.024958 1_555
Li5 O16 2.034748 1_555
Li5 O20 2.035754 1_555
Li6 O31 1.987855 1_556
Li6 O18 1.989128 1_555
Li6 O17 2.024008 1_556
Li6 O27 2.039589 1_555
Li7 O6 1.987855 1_554
Li7 O5 1.989128 1_555
Li7 O28 2.024008 1_554
Li7 O24 2.039589 1_555
Co0 O29 1.977239 1_555
Co0 O5 1.989163 1_555
Co0 O1 2.015400 1_555
Co0 O0 2.046732 1_555
Co0 O3 2.060295 1_555
Co0 O8 2.071635 1_565
Co1 O2 1.946805 1_555
Co1 O5 1.978396 1_555
Co1 O3 2.020908 1_555
Co1 O9 2.045435 1_565
Co1 O4 2.055259 1_655
Co1 O30 2.114184 1_555
Co2 O7 1.957232 1_554
Co2 O4 1.957232 1_555
Co2 O6 1.970880 1_554
Co2 O31 1.970880 1_555
Co2 O2 1.994379 1_455
Co2 O10 1.994379 1_564
Co3 O11 1.831765 1_555
Co3 O8 1.848409 1_555
Co3 O16 1.963024 1_555
Co3 O5 1.968944 1_545
Co3 O9 2.054230 1_555
Co3 O13 2.105431 1_555
Co4 O13 1.876559 1_555
Co4 O12 1.996204 1_554
Co4 O10 2.001760 1_554
Co4 O6 2.063472 1_544
Co4 O11 2.122289 1_555
Co4 O17 2.130571 1_555
Co5 O10 1.946805 1_555
Co5 O18 1.978396 1_555
Co5 O14 2.020908 1_555
Co5 O15 2.045435 1_455
Co5 O7 2.055259 1_545
Co5 O12 2.114184 1_555
Co6 O21 1.929638 1_555
Co6 O13 1.985500 1_555
Co6 O17 1.993022 1_555
Co6 O19 2.059172 1_555
Co6 O16 2.072461 1_555
Co6 O24 2.120083 1_555
Co7 O21 1.977239 1_555
Co7 O18 1.989163 1_555
Co7 O19 2.015400 1_555
Co7 O25 2.046732 1_555
Co7 O14 2.060295 1_555
Co7 O20 2.071635 1_455
Co8 O23 1.831765 1_555
Co8 O20 1.848409 1_555
Co8 O22 1.963024 1_555
Co8 O18 1.968944 1_655
Co8 O15 2.054230 1_555
Co8 O26 2.105431 1_555
Co9 O24 1.826251 1_555
Co9 O27 1.826251 1_555
Co9 O25 2.027436 1_555
Co9 O0 2.027436 1_555
Co9 O21 2.033147 1_555
Co9 O29 2.033147 1_555
Co10 O29 1.929638 1_555
Co10 O26 1.985500 1_555
Co10 O28 1.993022 1_555
Co10 O1 2.059172 1_555
Co10 O22 2.072461 1_555
Co10 O27 2.120083 1_555
Co11 O26 1.876559 1_555
Co11 O30 1.996204 1_556
Co11 O2 2.001760 1_556
Co11 O31 2.063472 1_656
Co11 O23 2.122289 1_555
Co11 O28 2.130571 1_555
O0 Ti0 1.914615 1_555
O1 Ti0 1.934196 1_555
O3 Ti1 1.894859 1_565
O4 Ti3 2.017262 1_555
O6 Ti0 2.015695 1_555
O7 Ti0 2.017262 1_555
O8 Ti1 2.155197 1_555
O9 Ti1 1.940107 1_555
O11 Ti2 2.115314 1_555
O12 Ti0 1.896978 1_545
O14 Ti1 1.894859 1_455
O15 Ti1 1.940107 1_555
O16 Ti2 1.966558 1_555
O17 Ti2 1.910743 1_555
O19 Ti3 1.934196 1_555
O20 Ti1 2.155197 1_555
O22 Ti2 1.966558 1_556
O23 Ti2 2.115314 1_556
O24 Ti3 2.139116 1_555
O25 Ti3 1.914615 1_555
O27 Ti0 2.139116 1_555
O28 Ti2 1.910743 1_556
O30 Ti3 1.896978 1_655
O31 Ti3 2.015695 1_555
