# generated using pymatgen
data_Mn13Fe11O32
_symmetry_space_group_name_H-M   'P 1'
_cell_length_a   6.12837700
_cell_length_b   6.14732641
_cell_length_c   20.35888167
_cell_angle_alpha   89.95987737
_cell_angle_beta   98.37159253
_cell_angle_gamma   119.80000909
_symmetry_Int_Tables_number   1
_chemical_formula_structural   Mn13Fe11O32
_chemical_formula_sum   'Mn13 Fe11 O32'
_cell_volume   656.17184864
_cell_formula_units_Z   1
loop_
 _symmetry_equiv_pos_site_id
 _symmetry_equiv_pos_as_xyz
  1  'x, y, z'
loop_
 _atom_site_type_symbol
 _atom_site_label
 _atom_site_symmetry_multiplicity
 _atom_site_fract_x
 _atom_site_fract_y
 _atom_site_fract_z
 _atom_site_occupancy
  Mn  Mn0  1  0.18920900  0.59724900  0.28226400  1
  Mn  Mn1  1  0.49954500  0.24785500  0.24962600  1
  Mn  Mn2  1  0.75086300  0.62911200  0.37538900  1
  Mn  Mn3  1  0.31262800  0.66010100  0.46824500  1
  Mn  Mn4  1  0.81081600  0.89805200  0.21798700  1
  Mn  Mn5  1  0.68737200  0.33989900  0.53175500  1
  Mn  Mn6  1  0.50045500  0.75214500  0.75037400  1
  Mn  Mn7  1  0.24913700  0.37088800  0.62461100  1
  Mn  Mn8  1  0.81079100  0.40275100  0.71773600  1
  Mn  Mn9  1  0.69492700  0.84435500  0.03160900  1
  Mn  Mn10  1  0.18918400  0.10194800  0.78201300  1
  Mn  Mn11  1  0.00000000  0.50000000  0.00000000  1
  Mn  Mn12  1  0.30507300  0.15564500  0.96839100  1
  Fe  Fe0  1  0.75393300  0.13023000  0.37522900  1
  Fe  Fe1  1  0.25010200  0.13140800  0.37499600  1
  Fe  Fe2  1  0.24606700  0.86977000  0.62477100  1
  Fe  Fe3  1  0.74989800  0.86859200  0.62500400  1
  Fe  Fe4  1  0.00000000  0.00000000  0.50000000  1
  Fe  Fe5  1  0.24840900  0.63219600  0.87505400  1
  Fe  Fe6  1  0.74844600  0.62752600  0.87511400  1
  Fe  Fe7  1  0.74336000  0.12777800  0.87490200  1
  Fe  Fe8  1  0.25664000  0.87222200  0.12509800  1
  Fe  Fe9  1  0.25155400  0.37247400  0.12488600  1
  Fe  Fe10  1  0.75159100  0.36780400  0.12494600  1
  O  O0  1  0.09545500  0.82411000  0.43212800  1
  O  O1  1  0.66022500  0.82729900  0.43302400  1
  O  O2  1  0.84683100  0.43488800  0.31880300  1
  O  O3  1  0.40657100  0.43930000  0.31995100  1
  O  O4  1  0.39651900  0.98366500  0.31180900  1
  O  O5  1  0.89380500  0.72250700  0.56358400  1
  O  O6  1  0.60274600  0.27885300  0.42913600  1
  O  O7  1  0.10619500  0.27749300  0.43641600  1
  O  O8  1  0.39725400  0.72114700  0.57086400  1
  O  O9  1  0.89751000  0.97536000  0.32036200  1
  O  O10  1  0.59342900  0.56070000  0.68004900  1
  O  O11  1  0.15316900  0.56511200  0.68119700  1
  O  O12  1  0.33977500  0.17270100  0.56697600  1
  O  O13  1  0.90454500  0.17589000  0.56787200  1
  O  O14  1  0.61315300  0.80832200  0.92775800  1
  O  O15  1  0.10249000  0.02464000  0.67963800  1
  O  O16  1  0.39594000  0.48704100  0.81317700  1
  O  O17  1  0.88416800  0.44769100  0.82196900  1
  O  O18  1  0.60348100  0.01633500  0.68819100  1
  O  O19  1  0.09873800  0.77238600  0.93603900  1
  O  O20  1  0.09851600  0.33426100  0.93549300  1
  O  O21  1  0.63661600  0.32467700  0.92863700  1
  O  O22  1  0.84729500  0.92932000  0.81875100  1
  O  O23  1  0.39120700  0.92738000  0.81845000  1
  O  O24  1  0.90148400  0.66573900  0.06450700  1
  O  O25  1  0.36338400  0.67532300  0.07136300  1
  O  O26  1  0.90126200  0.22761400  0.06396100  1
  O  O27  1  0.11583200  0.55230900  0.17803100  1
  O  O28  1  0.60406000  0.51295900  0.18682300  1
  O  O29  1  0.38684700  0.19167800  0.07224200  1
  O  O30  1  0.60879300  0.07262000  0.18155000  1
  O  O31  1  0.15270500  0.07068000  0.18124900  1
loop_
_geom_bond_atom_site_label_1
_geom_bond_atom_site_label_2
_geom_bond_distance
_geom_bond_site_symmetry_2
Mn0 O3 2.071911 1_555
Mn0 O2 2.079426 1_455
Mn0 O27 2.093127 1_555
Mn0 O4 2.097232 1_555
Mn1 O4 1.962037 1_545
Mn1 O28 1.974580 1_555
Mn1 O31 2.116987 1_555
Mn1 O30 2.125715 1_555
Mn1 O2 2.128929 1_555
Mn1 O3 2.160084 1_555
Mn2 O3 1.987111 1_555
Mn2 O2 1.998941 1_555
Mn2 O0 2.001607 1_655
Mn2 O1 2.008507 1_555
Mn2 O9 2.231981 1_555
Mn2 O6 2.236216 1_555
Mn3 O8 2.065608 1_555
Mn3 O7 2.087645 1_555
Mn3 O1 2.091864 1_555
Mn3 O0 2.091948 1_555
Mn4 O9 2.068856 1_555
Mn4 O30 2.070444 1_565
Mn4 O31 2.078640 1_665
Mn4 O28 2.097315 1_555
Mn5 O6 2.065608 1_555
Mn5 O5 2.087645 1_555
Mn5 O12 2.091864 1_555
Mn5 O13 2.091948 1_555
Mn6 O18 1.962037 1_565
Mn6 O16 1.974580 1_555
Mn6 O22 2.116987 1_555
Mn6 O23 2.125715 1_555
Mn6 O11 2.128929 1_555
Mn6 O10 2.160084 1_555
Mn7 O10 1.987111 1_555
Mn7 O11 1.998941 1_555
Mn7 O13 2.001607 1_455
Mn7 O12 2.008507 1_555
Mn7 O15 2.231981 1_555
Mn7 O8 2.236216 1_555
Mn8 O10 2.071911 1_555
Mn8 O11 2.079426 1_655
Mn8 O17 2.093127 1_555
Mn8 O18 2.097232 1_555
Mn9 O25 2.059670 1_555
Mn9 O14 2.086199 1_554
Mn9 O26 2.093347 1_565
Mn9 O24 2.095286 1_555
Mn10 O15 2.068856 1_555
Mn10 O23 2.070444 1_545
Mn10 O22 2.078640 1_445
Mn10 O16 2.097315 1_555
Mn11 O24 1.992850 1_455
Mn11 O20 1.992850 1_554
Mn11 O19 2.021109 1_554
Mn11 O26 2.021109 1_455
Mn11 O25 2.214994 1_555
Mn11 O21 2.214994 1_454
Mn12 O21 2.059670 1_555
Mn12 O29 2.086199 1_556
Mn12 O19 2.093347 1_545
Mn12 O20 2.095286 1_555
Fe0 O6 2.009116 1_555
Fe0 O9 2.012126 1_545
Fe0 O2 2.068560 1_555
Fe0 O7 2.075507 1_655
Fe0 O1 2.076743 1_545
Fe0 O4 2.119707 1_545
Fe1 O6 2.016868 1_555
Fe1 O9 2.016902 1_445
Fe1 O7 2.063426 1_555
Fe1 O3 2.064876 1_555
Fe1 O0 2.087600 1_545
Fe1 O4 2.105386 1_545
Fe2 O8 2.009116 1_555
Fe2 O15 2.012126 1_565
Fe2 O11 2.068560 1_555
Fe2 O5 2.075507 1_455
Fe2 O12 2.076743 1_565
Fe2 O18 2.119707 1_565
Fe3 O8 2.016868 1_555
Fe3 O15 2.016902 1_665
Fe3 O5 2.063426 1_555
Fe3 O10 2.064876 1_555
Fe3 O13 2.087600 1_565
Fe3 O18 2.105386 1_565
Fe4 O5 2.036648 1_445
Fe4 O7 2.036648 1_555
Fe4 O13 2.070467 1_455
Fe4 O0 2.070467 1_545
Fe4 O12 2.073701 1_555
Fe4 O1 2.073701 1_445
Fe5 O23 2.024585 1_555
Fe5 O14 2.053729 1_555
Fe5 O17 2.054258 1_455
Fe5 O19 2.060183 1_555
Fe5 O16 2.082244 1_555
Fe5 O20 2.089504 1_555
Fe6 O21 2.017292 1_555
Fe6 O22 2.051324 1_555
Fe6 O14 2.061003 1_555
Fe6 O17 2.064532 1_555
Fe6 O19 2.065436 1_655
Fe6 O16 2.087266 1_555
Fe7 O21 2.021649 1_555
Fe7 O23 2.033032 1_545
Fe7 O22 2.046281 1_545
Fe7 O14 2.083445 1_545
Fe7 O20 2.084355 1_655
Fe7 O17 2.086764 1_555
Fe8 O25 2.021649 1_555
Fe8 O30 2.033032 1_565
Fe8 O31 2.046281 1_565
Fe8 O29 2.083445 1_565
Fe8 O24 2.084355 1_455
Fe8 O27 2.086764 1_555
Fe9 O25 2.017292 1_555
Fe9 O31 2.051324 1_555
Fe9 O29 2.061003 1_555
Fe9 O27 2.064532 1_555
Fe9 O26 2.065436 1_455
Fe9 O28 2.087266 1_555
Fe10 O30 2.024585 1_555
Fe10 O29 2.053729 1_555
Fe10 O27 2.054258 1_655
Fe10 O26 2.060183 1_555
Fe10 O28 2.082244 1_555
Fe10 O24 2.089504 1_555
