# generated using pymatgen
data_Li4Ti3Nb2Cr3O16
_symmetry_space_group_name_H-M   'P 1'
_cell_length_a   5.99754167
_cell_length_b   5.99754167
_cell_length_c   9.74489885
_cell_angle_alpha   89.43938264
_cell_angle_beta   89.43938264
_cell_angle_gamma   59.81917595
_symmetry_Int_Tables_number   1
_chemical_formula_structural   Li4Ti3Nb2Cr3O16
_chemical_formula_sum   'Li4 Ti3 Nb2 Cr3 O16'
_cell_volume   302.99302344
_cell_formula_units_Z   1
loop_
 _symmetry_equiv_pos_site_id
 _symmetry_equiv_pos_as_xyz
  1  'x, y, z'
loop_
 _atom_site_type_symbol
 _atom_site_label
 _atom_site_symmetry_multiplicity
 _atom_site_fract_x
 _atom_site_fract_y
 _atom_site_fract_z
 _atom_site_occupancy
  Li  Li0  1  0.66458000  0.66458000  0.10215900  1
  Li  Li1  1  0.99979500  0.99979500  0.00794000  1
  Li  Li2  1  0.99842400  0.99842400  0.50507300  1
  Li  Li3  1  0.33288400  0.33288400  0.59804800  1
  Ti  Ti0  1  0.17097100  0.17097100  0.27899500  1
  Ti  Ti1  1  0.34166600  0.83531800  0.78115200  1
  Ti  Ti2  1  0.83531800  0.34166600  0.78115200  1
  Nb  Nb0  1  0.66658600  0.66658600  0.50698600  1
  Nb  Nb1  1  0.33832700  0.33832700  0.00926900  1
  Cr  Cr0  1  0.83197300  0.83197300  0.78908500  1
  Cr  Cr1  1  0.17042500  0.66103400  0.28731200  1
  Cr  Cr2  1  0.66103400  0.17042500  0.28731200  1
  O  O0  1  0.32956500  0.83832900  0.40275000  1
  O  O1  1  0.51824200  0.51824200  0.66026700  1
  O  O2  1  0.66204300  0.66204300  0.89228900  1
  O  O3  1  0.00132300  0.00132300  0.69102200  1
  O  O4  1  0.00355000  0.00355000  0.19295800  1
  O  O5  1  0.83832900  0.32956500  0.40275000  1
  O  O6  1  0.51401400  0.96162000  0.66238100  1
  O  O7  1  0.96162000  0.51401400  0.66238100  1
  O  O8  1  0.16439700  0.16439700  0.89971900  1
  O  O9  1  0.83279400  0.83279400  0.40612500  1
  O  O10  1  0.03748100  0.47597100  0.16046200  1
  O  O11  1  0.47597100  0.03748100  0.16046200  1
  O  O12  1  0.32633800  0.32633800  0.39260500  1
  O  O13  1  0.17127600  0.67048700  0.90585800  1
  O  O14  1  0.47963500  0.47963500  0.15968200  1
  O  O15  1  0.67048700  0.17127600  0.90585800  1
loop_
_geom_bond_atom_site_label_1
_geom_bond_atom_site_label_2
_geom_bond_distance
_geom_bond_site_symmetry_2
Li0 O14 1.996918 1_555
Li0 O10 2.018132 1_655
Li0 O11 2.018132 1_565
Li0 O2 2.045630 1_554
Li1 O4 1.803845 1_665
Li1 O15 1.980954 1_564
Li1 O13 1.980954 1_654
Li1 O8 2.000124 1_664
Li2 O3 1.812645 1_665
Li2 O5 1.980695 1_565
Li2 O0 1.980695 1_655
Li2 O9 1.983180 1_555
Li3 O12 2.003946 1_555
Li3 O7 2.021164 1_455
Li3 O6 2.021164 1_545
Li3 O1 2.026902 1_555
Nb0 O9 1.978434 1_555
Nb0 O5 2.026013 1_555
Nb0 O0 2.026013 1_555
Nb0 O1 2.134987 1_555
Nb0 O6 2.158429 1_555
Nb0 O7 2.158429 1_555
Nb1 O15 1.990377 1_554
Nb1 O13 1.990377 1_554
Nb1 O14 2.087047 1_555
Nb1 O8 2.110379 1_554
Nb1 O10 2.140568 1_555
Nb1 O11 2.140568 1_555
Cr0 O3 1.993912 1_665
Cr0 O2 2.023139 1_555
Cr0 O6 2.074144 1_555
Cr0 O7 2.074144 1_555
Cr0 O13 2.101467 1_655
Cr0 O15 2.101467 1_565
Cr1 O4 1.995220 1_565
Cr1 O12 2.011925 1_555
Cr1 O14 2.030374 1_555
Cr1 O10 2.081267 1_555
Cr1 O0 2.090929 1_555
Cr1 O9 2.093386 1_455
Cr2 O4 1.995220 1_655
Cr2 O12 2.011925 1_555
Cr2 O14 2.030374 1_555
Cr2 O11 2.081267 1_555
Cr2 O5 2.090929 1_555
Cr2 O9 2.093386 1_545
O0 Ti0 2.099204 1_565
O1 Ti1 2.029809 1_555
O1 Ti2 2.029809 1_555
O2 Ti1 1.988952 1_555
O2 Ti2 1.988952 1_555
O3 Ti1 1.975819 1_545
O3 Ti2 1.975819 1_455
O4 Ti0 1.940656 1_555
O5 Ti0 2.099204 1_655
O6 Ti1 1.930953 1_555
O7 Ti2 1.930953 1_555
O8 Ti1 2.066754 1_545
O8 Ti2 2.066754 1_455
O10 Ti0 1.955915 1_555
O11 Ti0 1.955915 1_555
O12 Ti0 1.968678 1_555
O13 Ti1 2.113385 1_555
O15 Ti2 2.113385 1_555
