# generated using pymatgen
data_V2O3
_symmetry_space_group_name_H-M   'P 1'
_cell_length_a   8.27348800
_cell_length_b   8.28795305
_cell_length_c   8.29252977
_cell_angle_alpha   109.57152445
_cell_angle_beta   109.19302437
_cell_angle_gamma   109.45036825
_symmetry_Int_Tables_number   1
_chemical_formula_structural   V2O3
_chemical_formula_sum   'V16 O24'
_cell_volume   438.79132984
_cell_formula_units_Z   8
loop_
 _symmetry_equiv_pos_site_id
 _symmetry_equiv_pos_as_xyz
  1  'x, y, z'
loop_
 _atom_site_type_symbol
 _atom_site_label
 _atom_site_symmetry_multiplicity
 _atom_site_fract_x
 _atom_site_fract_y
 _atom_site_fract_z
 _atom_site_occupancy
  V  V0  1  0.68533500  0.71804900  0.53237500  1
  V  V1  1  0.28394300  0.53588300  0.24973300  1
  V  V2  1  0.96983400  0.18426800  0.78163000  1
  V  V3  1  0.46984000  0.18666900  0.28109300  1
  V  V4  1  0.21944300  0.96875600  0.74846800  1
  V  V5  1  0.31406700  0.78156100  0.96761400  1
  V  V6  1  0.77998400  0.02927100  0.25178900  1
  V  V7  1  0.03039800  0.81373100  0.21755900  1
  V  V8  1  0.31390300  0.28015600  0.46834900  1
  V  V9  1  0.71612400  0.46548100  0.75009700  1
  V  V10  1  0.52995100  0.81391800  0.71873700  1
  V  V11  1  0.68497100  0.21984700  0.03137200  1
  V  V12  1  0.49771000  0.49838500  0.00088000  1
  V  V13  1  0.99979500  0.00192500  0.99947500  1
  V  V14  1  0.50005100  0.99901300  0.50027200  1
  V  V15  1  0.00204600  0.50103900  0.50002800  1
  O  O0  1  0.18406100  0.92030900  0.54441200  1
  O  O1  1  0.46645000  0.49998000  0.77169400  1
  O  O2  1  0.20887500  0.93966600  0.01287400  1
  O  O3  1  0.80671900  0.31600300  0.22772800  1
  O  O4  1  0.19510900  0.68386400  0.77215500  1
  O  O5  1  0.81865700  0.08137100  0.45456900  1
  O  O6  1  0.44662000  0.68439200  0.04469900  1
  O  O7  1  0.00007300  0.01151500  0.72702500  1
  O  O8  1  0.29703000  0.52084400  0.96630300  1
  O  O9  1  0.81641700  0.28234400  0.72831100  1
  O  O10  1  0.02211100  0.25289900  0.51209300  1
  O  O11  1  0.74347500  0.78856100  0.24258700  1
  O  O12  1  0.51703100  0.97209300  0.25712100  1
  O  O13  1  0.48633600  0.03116700  0.74122900  1
  O  O14  1  0.53630200  0.50250400  0.22693300  1
  O  O15  1  0.70056300  0.47788800  0.03450500  1
  O  O16  1  0.99721400  0.98510600  0.27459100  1
  O  O17  1  0.79123000  0.06275900  0.98603300  1
  O  O18  1  0.58002100  0.30336800  0.46651700  1
  O  O19  1  0.41925000  0.69408100  0.53465400  1
  O  O20  1  0.97953400  0.74888400  0.48757100  1
  O  O21  1  0.18363900  0.71855400  0.27262600  1
  O  O22  1  0.25382600  0.20837500  0.75858600  1
  O  O23  1  0.55205800  0.31551800  0.95571100  1
loop_
_geom_bond_atom_site_label_1
_geom_bond_atom_site_label_2
_geom_bond_distance
_geom_bond_site_symmetry_2
O0 V4 1.500361 1_555
O0 O20 1.590569 1_455
O0 V14 2.654746 1_555
O1 V12 1.837120 1_556
O1 V8 2.133230 1_555
O1 V9 2.232291 1_555
O1 V10 2.691766 1_555
O2 V5 1.805582 1_554
O2 V13 1.943544 1_464
O2 V3 2.155905 1_565
O2 V4 2.310718 1_554
O3 V11 1.348577 1_555
O3 V15 1.921564 1_655
O4 V5 1.338861 1_555
O4 V15 1.914939 1_555
O5 V6 1.477916 1_555
O5 V14 2.681390 1_545
O6 O8 1.247019 1_554
O6 V5 1.652883 1_554
O6 V12 1.687291 1_555
O7 V2 1.481985 1_455
O7 V4 1.926044 1_545
O7 V13 2.287872 1_455
O7 V0 2.385386 1_445
O8 V12 1.673948 1_556
O8 V5 2.114119 1_555
O8 V1 2.351905 1_556
O8 V2 2.614946 1_455
O9 V2 1.739607 1_555
O9 V9 1.943861 1_555
O9 V14 2.370316 1_545
O10 O5 1.583037 1_455
O10 V6 2.027657 1_455
O10 V15 2.149735 1_555
O10 V8 2.505628 1_555
O10 V2 2.613435 1_455
O11 V6 1.886423 1_565
O11 V12 2.184001 1_555
O12 V3 1.905584 1_565
O12 V14 2.010187 1_555
O12 V5 2.029895 1_554
O12 V6 2.085708 1_565
O13 V10 1.912835 1_545
O13 V14 1.972038 1_545
O13 V11 2.025597 1_556
O13 V4 2.119980 1_545
O14 V12 1.781401 1_555
O14 V0 2.138994 1_555
O14 V1 2.254050 1_555
O14 V3 2.710621 1_555
O15 O23 1.236684 1_554
O15 V12 1.684406 1_555
O15 V11 2.089952 1_555
O15 V9 2.373915 1_554
O15 V7 2.624059 1_655
O16 V7 1.487101 1_655
O16 V6 1.913346 1_565
O16 V13 2.338337 1_564
O16 V8 2.399808 1_665
O17 V11 1.805801 1_556
O17 V13 1.932559 1_555
O17 V10 2.158066 1_545
O17 V6 2.338758 1_556
O18 V3 1.274994 1_555
O18 V9 1.933323 1_555
O18 V8 2.150975 1_555
O18 V14 2.522368 1_545
O19 V10 1.270709 1_555
O19 V1 1.939760 1_555
O19 V0 2.150543 1_555
O19 V14 2.529456 1_555
O20 V4 2.016800 1_655
O20 V15 2.156179 1_655
O20 V0 2.524265 1_555
O20 V7 2.598957 1_655
O21 V7 1.721886 1_555
O21 V1 1.940250 1_555
O21 V14 2.361805 1_555
O22 V4 1.878403 1_545
O22 V12 2.180498 1_556
O23 V11 1.640721 1_556
O23 V12 1.680406 1_556
