# generated using pymatgen
data_Ba2CaI6
_symmetry_space_group_name_H-M   'P 1'
_cell_length_a   8.29486900
_cell_length_b   9.44043900
_cell_length_c   23.73917000
_cell_angle_alpha   90.00000000
_cell_angle_beta   90.00000000
_cell_angle_gamma   90.00000000
_symmetry_Int_Tables_number   1
_chemical_formula_structural   Ba2CaI6
_chemical_formula_sum   'Ba8 Ca4 I24'
_cell_volume   1858.94804715
_cell_formula_units_Z   4
loop_
 _symmetry_equiv_pos_site_id
 _symmetry_equiv_pos_as_xyz
  1  'x, y, z'
loop_
 _atom_site_type_symbol
 _atom_site_label
 _atom_site_symmetry_multiplicity
 _atom_site_fract_x
 _atom_site_fract_y
 _atom_site_fract_z
 _atom_site_occupancy
  Ba  Ba0  1  0.26738500  0.33425300  0.15866200  1
  Ba  Ba1  1  0.76738500  0.66574700  0.15866200  1
  Ba  Ba2  1  0.76738500  0.16574700  0.34133800  1
  Ba  Ba3  1  0.26738500  0.83425300  0.34133800  1
  Ba  Ba4  1  0.73261500  0.16574700  0.65866200  1
  Ba  Ba5  1  0.23261500  0.83425300  0.65866200  1
  Ba  Ba6  1  0.23261500  0.33425300  0.84133800  1
  Ba  Ba7  1  0.73261500  0.66574700  0.84133800  1
  Ca  Ca0  1  0.75000000  0.14871300  0.00000000  1
  Ca  Ca1  1  0.25000000  0.85128700  0.00000000  1
  Ca  Ca2  1  0.25000000  0.35128700  0.50000000  1
  Ca  Ca3  1  0.75000000  0.64871300  0.50000000  1
  I  I0  1  0.94877900  0.92058800  0.07590500  1
  I  I1  1  0.44877900  0.07941200  0.07590500  1
  I  I2  1  0.92060700  0.38302600  0.07638600  1
  I  I3  1  0.42060700  0.61697400  0.07638600  1
  I  I4  1  0.11277800  0.60974400  0.23882400  1
  I  I5  1  0.61277800  0.39025600  0.23882400  1
  I  I6  1  0.11277800  0.10974400  0.26117600  1
  I  I7  1  0.61277800  0.89025600  0.26117600  1
  I  I8  1  0.42060700  0.11697400  0.42361400  1
  I  I9  1  0.92060700  0.88302600  0.42361400  1
  I  I10  1  0.94877900  0.42058800  0.42409500  1
  I  I11  1  0.44877900  0.57941200  0.42409500  1
  I  I12  1  0.55122100  0.42058800  0.57590500  1
  I  I13  1  0.05122100  0.57941200  0.57590500  1
  I  I14  1  0.07939300  0.11697400  0.57638600  1
  I  I15  1  0.57939300  0.88302600  0.57638600  1
  I  I16  1  0.38722200  0.10974400  0.73882400  1
  I  I17  1  0.88722200  0.89025600  0.73882400  1
  I  I18  1  0.88722200  0.39025600  0.76117600  1
  I  I19  1  0.38722200  0.60974400  0.76117600  1
  I  I20  1  0.57939300  0.38302600  0.92361400  1
  I  I21  1  0.07939300  0.61697400  0.92361400  1
  I  I22  1  0.05122100  0.07941200  0.92409500  1
  I  I23  1  0.55122100  0.92058800  0.92409500  1
loop_
_geom_bond_atom_site_label_1
_geom_bond_atom_site_label_2
_geom_bond_distance
_geom_bond_site_symmetry_2
Ba0 I1 3.451297 1_555
Ba0 I4 3.468418 1_555
Ba0 I6 3.472634 1_555
Ba0 I5 3.479801 1_555
Ba0 I2 3.507275 1_455
Ba0 I3 3.543134 1_555
Ba1 I0 3.451297 1_555
Ba1 I5 3.468418 1_555
Ba1 I7 3.472634 1_555
Ba1 I4 3.479801 1_655
Ba1 I3 3.507275 1_555
Ba1 I2 3.543134 1_555
Ba2 I10 3.451297 1_555
Ba2 I7 3.468418 1_545
Ba2 I5 3.472634 1_555
Ba2 I6 3.479801 1_655
Ba2 I8 3.507275 1_555
Ba2 I9 3.543134 1_545
Ba3 I11 3.451297 1_555
Ba3 I6 3.468418 1_565
Ba3 I4 3.472634 1_555
Ba3 I7 3.479801 1_555
Ba3 I9 3.507275 1_455
Ba3 I8 3.543134 1_565
Ba4 I12 3.451297 1_555
Ba4 I17 3.468418 1_545
Ba4 I18 3.472634 1_555
Ba4 I16 3.479801 1_555
Ba4 I14 3.507275 1_655
Ba4 I15 3.543134 1_545
Ba5 I13 3.451297 1_555
Ba5 I16 3.468418 1_565
Ba5 I19 3.472634 1_555
Ba5 I17 3.479801 1_455
Ba5 I15 3.507275 1_555
Ba5 I14 3.543134 1_565
Ba6 I22 3.451297 1_555
Ba6 I19 3.468418 1_555
Ba6 I16 3.472634 1_555
Ba6 I18 3.479801 1_455
Ba6 I20 3.507275 1_555
Ba6 I21 3.543134 1_555
Ba7 I23 3.451297 1_555
Ba7 I18 3.468418 1_555
Ba7 I17 3.472634 1_555
Ba7 I19 3.479801 1_555
Ba7 I21 3.507275 1_655
Ba7 I20 3.543134 1_555
Ca0 I22 3.149268 1_654
Ca0 I1 3.149268 1_555
Ca0 I2 3.191224 1_555
Ca0 I20 3.191224 1_554
Ca0 I0 3.256318 1_545
Ca0 I23 3.256318 1_544
Ca1 I23 3.149268 1_554
Ca1 I0 3.149268 1_455
Ca1 I3 3.191224 1_555
Ca1 I21 3.191224 1_554
Ca1 I1 3.256318 1_565
Ca1 I22 3.256318 1_564
Ca2 I12 3.149268 1_555
Ca2 I10 3.149268 1_455
Ca2 I8 3.191224 1_555
Ca2 I14 3.191224 1_555
Ca2 I11 3.256318 1_555
Ca2 I13 3.256318 1_555
Ca3 I13 3.149268 1_655
Ca3 I11 3.149268 1_555
Ca3 I9 3.191224 1_555
Ca3 I15 3.191224 1_555
Ca3 I10 3.256318 1_555
Ca3 I12 3.256318 1_555
