# generated using pymatgen
data_Li2TiFe3O8
_symmetry_space_group_name_H-M   'P 1'
_cell_length_a   8.41236500
_cell_length_b   8.43053200
_cell_length_c   8.44696484
_cell_angle_alpha   90.01310004
_cell_angle_beta   90.03546832
_cell_angle_gamma   90.06239614
_symmetry_Int_Tables_number   1
_chemical_formula_structural   Li2TiFe3O8
_chemical_formula_sum   'Li8 Ti4 Fe12 O32'
_cell_volume   599.06427768
_cell_formula_units_Z   4
loop_
 _symmetry_equiv_pos_site_id
 _symmetry_equiv_pos_as_xyz
  1  'x, y, z'
loop_
 _atom_site_type_symbol
 _atom_site_label
 _atom_site_symmetry_multiplicity
 _atom_site_fract_x
 _atom_site_fract_y
 _atom_site_fract_z
 _atom_site_occupancy
  Li  Li0  1  0.99642300  0.99765100  0.00251700  1
  Li  Li1  1  0.25549500  0.74810900  0.75032500  1
  Li  Li2  1  0.75375500  0.75028800  0.24953800  1
  Li  Li3  1  0.49738500  0.50109700  0.99840900  1
  Li  Li4  1  0.00321500  0.49996500  0.49890900  1
  Li  Li5  1  0.74682500  0.24850100  0.74860500  1
  Li  Li6  1  0.24584100  0.25154700  0.25044100  1
  Li  Li7  1  0.50191000  0.00241900  0.50288900  1
  Ti  Ti0  1  0.37788300  0.87775200  0.13055900  1
  Ti  Ti1  1  0.87474900  0.62306900  0.87247000  1
  Ti  Ti2  1  0.62763500  0.37803600  0.37433400  1
  Ti  Ti3  1  0.12270200  0.12179400  0.63092400  1
  Fe  Fe0  1  0.62388500  0.87287100  0.87683500  1
  Fe  Fe1  1  0.86838700  0.87756500  0.62395700  1
  Fe  Fe2  1  0.11974300  0.87376800  0.37325300  1
  Fe  Fe3  1  0.62046000  0.62399000  0.62788200  1
  Fe  Fe4  1  0.37008300  0.62046100  0.37391000  1
  Fe  Fe5  1  0.12547700  0.62766100  0.12244400  1
  Fe  Fe6  1  0.37426500  0.37255000  0.62242300  1
  Fe  Fe7  1  0.12851000  0.37956200  0.87245500  1
  Fe  Fe8  1  0.87870400  0.37581900  0.12736200  1
  Fe  Fe9  1  0.38022500  0.12603900  0.87299000  1
  Fe  Fe10  1  0.63102200  0.12299100  0.12389600  1
  Fe  Fe11  1  0.87529200  0.12643200  0.37699800  1
  O  O0  1  0.39692400  0.88240500  0.88669500  1
  O  O1  1  0.61068600  0.87870600  0.10825900  1
  O  O2  1  0.88105800  0.89561800  0.38608900  1
  O  O3  1  0.85106200  0.86544400  0.86834200  1
  O  O4  1  0.11798900  0.89274500  0.61436200  1
  O  O5  1  0.63021500  0.86354000  0.64706000  1
  O  O6  1  0.36716700  0.86464200  0.35772100  1
  O  O7  1  0.14006900  0.85610800  0.12873100  1
  O  O8  1  0.63944700  0.64138400  0.87019100  1
  O  O9  1  0.86678500  0.63522300  0.64299400  1
  O  O10  1  0.13172300  0.63570000  0.35265100  1
  O  O11  1  0.61729800  0.60630600  0.38391200  1
  O  O12  1  0.35630400  0.63793000  0.13188300  1
  O  O13  1  0.38111400  0.60072700  0.61429900  1
  O  O14  1  0.11004800  0.62264800  0.89096500  1
  O  O15  1  0.89516500  0.61745100  0.11267800  1
  O  O16  1  0.60585800  0.38239400  0.61272900  1
  O  O17  1  0.38988200  0.37676700  0.39313200  1
  O  O18  1  0.11907300  0.40002500  0.11362000  1
  O  O19  1  0.14311300  0.36196000  0.63144600  1
  O  O20  1  0.88212900  0.39386800  0.88375700  1
  O  O21  1  0.36815900  0.36540800  0.85099800  1
  O  O22  1  0.63318700  0.36450200  0.14355400  1
  O  O23  1  0.86086900  0.35836800  0.37103500  1
  O  O24  1  0.35992800  0.14362500  0.62860100  1
  O  O25  1  0.13325600  0.13539400  0.85825400  1
  O  O26  1  0.86993200  0.13701800  0.14686700  1
  O  O27  1  0.38321000  0.10750000  0.11487400  1
  O  O28  1  0.64848800  0.13439000  0.36826700  1
  O  O29  1  0.61832700  0.10382200  0.88648700  1
  O  O30  1  0.89005400  0.12097200  0.60929800  1
  O  O31  1  0.10175300  0.11746900  0.38578700  1
loop_
_geom_bond_atom_site_label_1
_geom_bond_atom_site_label_2
_geom_bond_distance
_geom_bond_site_symmetry_2
Li0 O26 2.000794 1_565
Li0 O3 2.004211 1_554
Li0 O7 2.005720 1_655
Li0 O25 2.039098 1_664
Li1 O13 1.996117 1_555
Li1 O0 2.004753 1_555
Li1 O14 2.006657 1_555
Li1 O4 2.036165 1_555
Li2 O2 1.993339 1_555
Li2 O15 2.002434 1_555
Li2 O1 2.011573 1_555
Li2 O11 2.019581 1_555
Li3 O8 1.999772 1_555
Li3 O12 2.003616 1_556
Li3 O21 2.008925 1_555
Li3 O22 2.033756 1_556
Li4 O19 1.998491 1_555
Li4 O10 2.001013 1_555
Li4 O23 2.005081 1_455
Li4 O9 2.025517 1_455
Li5 O30 1.999090 1_555
Li5 O16 1.999893 1_555
Li5 O29 2.003009 1_555
Li5 O20 2.023729 1_555
Li6 O17 2.007562 1_555
Li6 O18 2.010438 1_555
Li6 O31 2.013280 1_555
Li6 O27 2.031142 1_555
Li7 O24 1.993851 1_555
Li7 O5 2.005157 1_545
Li7 O28 2.012643 1_555
Li7 O6 2.032830 1_545
Fe0 O0 1.912922 1_555
Fe0 O3 1.913579 1_555
Fe0 O5 1.943242 1_555
Fe0 O29 1.949340 1_565
Fe0 O8 1.956881 1_555
Fe0 O1 1.958660 1_556
Fe1 O5 2.016535 1_555
Fe1 O2 2.017928 1_555
Fe1 O9 2.049457 1_555
Fe1 O30 2.063685 1_565
Fe1 O3 2.072077 1_555
Fe1 O4 2.105112 1_655
Fe2 O10 2.017165 1_555
Fe2 O2 2.019514 1_455
Fe2 O4 2.042941 1_555
Fe2 O31 2.062959 1_565
Fe2 O7 2.077960 1_555
Fe2 O6 2.087134 1_555
Fe3 O13 2.025960 1_555
Fe3 O5 2.027552 1_555
Fe3 O16 2.044327 1_555
Fe3 O8 2.058085 1_555
Fe3 O11 2.066310 1_555
Fe3 O9 2.078080 1_555
Fe4 O10 2.017322 1_555
Fe4 O13 2.039463 1_555
Fe4 O12 2.052937 1_555
Fe4 O6 2.063315 1_555
Fe4 O17 2.067805 1_555
Fe4 O11 2.084875 1_555
Fe5 O18 1.921218 1_555
Fe5 O7 1.930421 1_555
Fe5 O15 1.940988 1_455
Fe5 O12 1.945220 1_555
Fe5 O10 1.946390 1_555
Fe5 O14 1.959961 1_554
Fe6 O13 1.925693 1_555
Fe6 O21 1.932430 1_555
Fe6 O24 1.934311 1_555
Fe6 O17 1.941676 1_555
Fe6 O19 1.948026 1_555
Fe6 O16 1.951691 1_555
Fe7 O21 2.027898 1_555
Fe7 O19 2.044941 1_555
Fe7 O18 2.045962 1_556
Fe7 O14 2.061300 1_555
Fe7 O25 2.062362 1_555
Fe7 O20 2.078535 1_455
Fe8 O26 2.021259 1_555
Fe8 O18 2.035509 1_655
Fe8 O15 2.045435 1_555
Fe8 O20 2.063593 1_554
Fe8 O23 2.069110 1_555
Fe8 O22 2.072082 1_555
Fe9 O29 2.015102 1_555
Fe9 O21 2.029227 1_555
Fe9 O27 2.049331 1_556
Fe9 O0 2.062189 1_545
Fe9 O24 2.076636 1_555
Fe9 O25 2.082822 1_555
Fe10 O29 2.014607 1_554
Fe10 O26 2.022353 1_555
Fe10 O22 2.042849 1_555
Fe10 O1 2.070540 1_545
Fe10 O28 2.071526 1_555
Fe10 O27 2.089971 1_555
Fe11 O31 1.908052 1_655
Fe11 O28 1.910589 1_555
Fe11 O26 1.946473 1_555
Fe11 O2 1.948073 1_545
Fe11 O23 1.959893 1_555
Fe11 O30 1.966631 1_555
O0 Ti0 2.066606 1_556
O1 Ti0 1.967586 1_555
O3 Ti1 2.053561 1_555
O4 Ti3 1.936395 1_565
O6 Ti0 1.924198 1_555
O7 Ti0 2.008734 1_555
O8 Ti1 1.985709 1_555
O9 Ti1 1.942224 1_555
O11 Ti2 1.928178 1_555
O12 Ti0 2.029797 1_555
O14 Ti1 1.985487 1_455
O15 Ti1 2.036744 1_554
O16 Ti2 2.022472 1_555
O17 Ti2 2.006473 1_555
O19 Ti3 2.031812 1_555
O20 Ti1 1.935720 1_555
O22 Ti2 1.953291 1_555
O23 Ti2 1.969437 1_555
O24 Ti3 2.004010 1_555
O25 Ti3 1.925629 1_555
O27 Ti0 1.941925 1_545
O28 Ti2 2.062361 1_555
O30 Ti3 1.965519 1_655
O31 Ti3 2.078349 1_555
