# generated using pymatgen
data_FeOF
_symmetry_space_group_name_H-M   'P 1'
_cell_length_a   9.46413626
_cell_length_b   14.21879794
_cell_length_c   3.11168400
_cell_angle_alpha   90.00000000
_cell_angle_beta   90.00000000
_cell_angle_gamma   89.94057321
_symmetry_Int_Tables_number   1
_chemical_formula_structural   FeOF
_chemical_formula_sum   'Fe12 O12 F12'
_cell_volume   418.73486210
_cell_formula_units_Z   12
loop_
 _symmetry_equiv_pos_site_id
 _symmetry_equiv_pos_as_xyz
  1  'x, y, z'
loop_
 _atom_site_type_symbol
 _atom_site_label
 _atom_site_symmetry_multiplicity
 _atom_site_fract_x
 _atom_site_fract_y
 _atom_site_fract_z
 _atom_site_occupancy
  Fe  Fe0  1  0.01509500  0.99872300  0.00000000  1
  Fe  Fe1  1  0.02633400  0.32605700  0.00000000  1
  Fe  Fe2  1  0.99994400  0.67451100  0.00000000  1
  Fe  Fe3  1  0.23535000  0.15935000  0.50000000  1
  Fe  Fe4  1  0.21841300  0.50407000  0.50000000  1
  Fe  Fe5  1  0.25603400  0.85628700  0.50000000  1
  Fe  Fe6  1  0.51301200  0.32990200  0.00000000  1
  Fe  Fe7  1  0.52241000  0.98818100  0.00000000  1
  Fe  Fe8  1  0.50441400  0.67482800  0.00000000  1
  Fe  Fe9  1  0.72622700  0.16180000  0.50000000  1
  Fe  Fe10  1  0.74093100  0.48768400  0.50000000  1
  Fe  Fe11  1  0.74760400  0.82509200  0.50000000  1
  O  O0  1  0.10223200  0.26615000  0.50000000  1
  O  O1  1  0.09441100  0.60770700  0.50000000  1
  O  O2  1  0.09057000  0.93461100  0.50000000  1
  O  O3  1  0.15296300  0.10021800  0.00000000  1
  O  O4  1  0.14822400  0.43714300  0.00000000  1
  O  O5  1  0.35500200  0.90099100  0.00000000  1
  O  O6  1  0.59581900  0.26990400  0.50000000  1
  O  O7  1  0.60796300  0.92947900  0.50000000  1
  O  O8  1  0.65144600  0.09965000  0.00000000  1
  O  O9  1  0.64951100  0.43727100  0.00000000  1
  O  O10  1  0.64688800  0.76271400  0.00000000  1
  O  O11  1  0.90034800  0.73497700  0.50000000  1
  F  F0  1  0.16156700  0.77261700  0.00000000  1
  F  F1  1  0.34807600  0.23249800  0.00000000  1
  F  F2  1  0.35445200  0.56970400  0.00000000  1
  F  F3  1  0.40409700  0.06816200  0.50000000  1
  F  F4  1  0.40043600  0.40028600  0.50000000  1
  F  F5  1  0.39423100  0.72815800  0.50000000  1
  F  F6  1  0.59462600  0.60104900  0.50000000  1
  F  F7  1  0.84848600  0.23284000  0.00000000  1
  F  F8  1  0.84774100  0.90146300  0.00000000  1
  F  F9  1  0.84114200  0.56203100  0.00000000  1
  F  F10  1  0.90128600  0.06713500  0.50000000  1
  F  F11  1  0.90271300  0.39675800  0.50000000  1
loop_
_geom_bond_atom_site_label_1
_geom_bond_atom_site_label_2
_geom_bond_distance
_geom_bond_site_symmetry_2
Fe0 O2 1.939209 1_555
Fe0 O2 1.939209 1_554
Fe0 O3 1.946550 1_565
Fe1 O0 1.913352 1_555
Fe1 O0 1.913352 1_554
Fe1 O4 1.956881 1_555
Fe2 O11 2.011620 1_555
Fe2 O11 2.011620 1_554
Fe2 O1 2.029892 1_654
Fe2 O1 2.029892 1_655
Fe3 O3 1.933104 1_555
Fe3 O3 1.933104 1_556
Fe3 O0 1.972129 1_555
Fe4 O1 1.882860 1_555
Fe4 O4 1.941341 1_555
Fe4 O4 1.941341 1_556
Fe5 O2 1.920657 1_555
Fe5 O5 1.924375 1_556
Fe5 O5 1.924375 1_555
Fe6 O6 1.939386 1_555
Fe6 O6 1.939386 1_554
Fe6 O9 2.000910 1_555
Fe7 O7 1.942038 1_554
Fe7 O7 1.942038 1_555
Fe7 O8 2.001865 1_565
Fe7 O5 2.012774 1_555
Fe8 O10 1.839359 1_555
Fe9 O8 1.924515 1_555
Fe9 O8 1.924515 1_556
Fe9 O6 1.970283 1_555
Fe10 O9 1.919464 1_555
Fe10 O9 1.919464 1_556
Fe11 O11 1.930722 1_555
Fe11 O7 1.986336 1_555
Fe11 O10 2.029195 1_555
Fe11 O10 2.029195 1_556
F0 Fe2 2.071244 1_455
F0 Fe5 2.153492 1_555
F0 Fe5 2.153492 1_554
F1 Fe6 2.087886 1_555
F1 Fe3 2.154735 1_554
F1 Fe3 2.154735 1_555
F2 Fe8 2.062266 1_555
F2 Fe4 2.225242 1_554
F2 Fe4 2.225242 1_555
F3 Fe3 2.056061 1_555
F3 Fe7 2.228250 1_546
F3 Fe7 2.228250 1_545
F4 Fe6 2.134276 1_555
F4 Fe6 2.134276 1_556
F4 Fe4 2.267164 1_555
F5 Fe8 2.020250 1_556
F5 Fe8 2.020250 1_555
F5 Fe5 2.241607 1_555
F6 Fe8 2.061123 1_555
F6 Fe8 2.061123 1_556
F6 Fe10 2.123886 1_555
F7 Fe1 2.143476 1_655
F7 Fe9 2.186825 1_554
F7 Fe9 2.186825 1_555
F8 Fe0 2.103718 1_655
F8 Fe11 2.121349 1_554
F8 Fe11 2.121349 1_555
F9 Fe10 2.107064 1_555
F9 Fe10 2.107064 1_554
F9 Fe2 2.195820 1_555
F10 Fe0 2.127167 1_645
F10 Fe0 2.127167 1_646
F10 Fe9 2.133560 1_555
F11 Fe10 2.002929 1_555
F11 Fe1 2.190347 1_655
F11 Fe1 2.190347 1_656
