# generated using pymatgen
data_Sn2N2O
_symmetry_space_group_name_H-M   'P 1'
_cell_length_a   8.79997400
_cell_length_b   8.85043301
_cell_length_c   8.86796285
_cell_angle_alpha   109.53462149
_cell_angle_beta   109.34357631
_cell_angle_gamma   109.20802596
_symmetry_Int_Tables_number   1
_chemical_formula_structural   Sn2N2O
_chemical_formula_sum   'Sn16 N16 O8'
_cell_volume   533.81143262
_cell_formula_units_Z   8
loop_
 _symmetry_equiv_pos_site_id
 _symmetry_equiv_pos_as_xyz
  1  'x, y, z'
loop_
 _atom_site_type_symbol
 _atom_site_label
 _atom_site_symmetry_multiplicity
 _atom_site_fract_x
 _atom_site_fract_y
 _atom_site_fract_z
 _atom_site_occupancy
  Sn  Sn0  1  0.99015200  0.49916600  0.99919700  1
  Sn  Sn1  1  0.53475400  0.75247200  0.28689000  1
  Sn  Sn2  1  0.24471100  0.71752500  0.47327300  1
  Sn  Sn3  1  0.24476200  0.21328900  0.96099100  1
  Sn  Sn4  1  0.95688900  0.24471600  0.21582200  1
  Sn  Sn5  1  0.00434500  0.01125800  0.50712400  1
  Sn  Sn6  1  0.28790600  0.53166000  0.75408300  1
  Sn  Sn7  1  0.21375600  0.97553800  0.24981000  1
  Sn  Sn8  1  0.51274000  0.50725700  0.51495000  1
  Sn  Sn9  1  0.49998900  0.00246700  0.00055600  1
  Sn  Sn10  1  0.76451300  0.02024300  0.73313300  1
  Sn  Sn11  1  0.72911400  0.46758500  0.26213600  1
  Sn  Sn12  1  0.03553600  0.76063500  0.78726900  1
  Sn  Sn13  1  0.75918700  0.79051000  0.02544400  1
  Sn  Sn14  1  0.73797600  0.27523300  0.52606200  1
  Sn  Sn15  1  0.46691800  0.25176500  0.71162500  1
  N  N0  1  0.96609100  0.73021800  0.99555400  1
  N  N1  1  0.97268300  0.50754300  0.24010000  1
  N  N2  1  0.26433400  0.75992600  0.73288200  1
  N  N3  1  0.51624600  0.75370400  0.52500400  1
  N  N4  1  0.27696100  0.01588900  0.04362200  1
  N  N5  1  0.99673400  0.04063200  0.27060700  1
  N  N6  1  0.98653500  0.96262800  0.73057700  1
  N  N7  1  0.23327700  0.95746100  0.50047400  1
  N  N8  1  0.23652300  0.27631300  0.74264400  1
  N  N9  1  0.45717800  0.23366600  0.45514200  1
  N  N10  1  0.78069100  0.54617800  0.54274500  1
  N  N11  1  0.54710000  0.54825200  0.77983200  1
  N  N12  1  0.72768800  0.99820900  0.95099900  1
  N  N13  1  0.72717300  0.22495500  0.26815000  1
  N  N14  1  0.75571200  0.02890900  0.48333900  1
  N  N15  1  0.73044900  0.26474900  0.77210300  1
  O  O0  1  0.06771900  0.29443900  0.02946400  1
  O  O1  1  0.49817400  0.76710700  0.04747800  1
  O  O2  1  0.27277100  0.72776600  0.20820100  1
  O  O3  1  0.04120600  0.48070900  0.77053300  1
  O  O4  1  0.46003400  0.46079100  0.21858200  1
  O  O5  1  0.76178100  0.71422300  0.25513600  1
  O  O6  1  0.22198800  0.44023800  0.46226900  1
  O  O7  1  0.51770600  0.24417600  0.96619700  1
loop_
_geom_bond_atom_site_label_1
_geom_bond_atom_site_label_2
_geom_bond_distance
_geom_bond_site_symmetry_2
N0 Sn13 2.129447 1_556
N0 Sn0 2.133561 1_555
N0 Sn12 2.197640 1_655
N0 Sn7 2.214720 1_656
N1 Sn11 2.140641 1_555
N1 Sn2 2.164160 1_655
N1 Sn0 2.170743 1_554
N1 Sn4 2.215647 1_555
N2 Sn2 2.141733 1_555
N2 Sn6 2.159564 1_555
N2 Sn12 2.221732 1_555
N2 Sn9 2.223788 1_566
N3 Sn8 2.142479 1_555
N3 Sn2 2.166756 1_555
N3 Sn1 2.167728 1_555
N3 Sn10 2.184100 1_565
N4 Sn9 2.152101 1_555
N4 Sn3 2.171136 1_554
N4 Sn7 2.181721 1_545
N4 Sn12 2.234522 1_544
N5 Sn4 2.124188 1_555
N5 Sn13 2.173185 1_545
N5 Sn5 2.180437 1_655
N5 Sn7 2.213468 1_645
N6 Sn12 2.144605 1_655
N6 Sn10 2.180589 1_565
N6 Sn3 2.199072 1_665
N6 Sn5 2.206387 1_665
N7 Sn2 2.095671 1_555
N7 Sn5 2.231558 1_565
N7 Sn7 2.235900 1_555
N7 Sn15 2.276417 1_565
N8 Sn6 2.113280 1_555
N8 Sn3 2.172903 1_555
N8 Sn5 2.186882 1_555
N8 Sn15 2.202916 1_555
N9 Sn7 2.130120 1_545
N9 Sn8 2.138662 1_555
N9 Sn15 2.196461 1_555
N9 Sn14 2.203270 1_555
N10 Sn12 2.135231 1_655
N10 Sn8 2.182461 1_555
N10 Sn11 2.183718 1_555
N10 Sn14 2.246396 1_555
N11 Sn13 2.091729 1_556
N11 Sn8 2.151289 1_555
N11 Sn6 2.165264 1_555
N11 Sn15 2.277466 1_555
N12 Sn10 2.121537 1_565
N12 Sn9 2.198071 1_566
N12 Sn4 2.209827 1_566
N12 Sn13 2.217511 1_556
N13 Sn14 2.141408 1_555
N13 Sn9 2.155781 1_555
N13 Sn11 2.160425 1_555
N13 Sn4 2.185278 1_555
N14 Sn1 2.139365 1_545
N14 Sn14 2.152051 1_555
N14 Sn5 2.190273 1_655
N14 Sn10 2.218718 1_555
N15 Sn0 2.149414 1_555
N15 Sn15 2.153694 1_555
N15 Sn10 2.210758 1_555
N15 Sn14 2.236223 1_555
O0 Sn3 2.093598 1_554
O0 Sn0 2.199706 1_454
O0 Sn4 2.268859 1_455
O0 Sn10 2.596877 1_454
O1 Sn1 2.094404 1_555
O1 Sn9 2.252687 1_565
O1 Sn6 2.276699 1_554
O1 Sn13 2.316939 1_555
O2 Sn1 2.085745 1_555
O2 Sn0 2.200371 1_454
O2 Sn7 2.355801 1_555
O2 Sn2 2.471237 1_555
O3 Sn6 2.132439 1_555
O3 Sn0 2.184201 1_455
O3 Sn14 2.337869 1_455
O3 Sn12 2.450042 1_555
O4 Sn3 2.159069 1_554
O4 Sn1 2.244308 1_555
O4 Sn11 2.246029 1_555
O4 Sn8 2.373970 1_555
O5 Sn11 2.130935 1_555
O5 Sn1 2.222424 1_555
O5 Sn13 2.346144 1_555
O5 Sn5 2.383278 1_665
O6 Sn4 2.156411 1_455
O6 Sn6 2.232559 1_555
O6 Sn8 2.267332 1_555
O6 Sn2 2.361395 1_555
O7 Sn15 2.180247 1_555
O7 Sn9 2.222917 1_556
O7 Sn11 2.265598 1_556
O7 Sn3 2.309123 1_555
