# generated using pymatgen
data_LiV4(PO4)3
_symmetry_space_group_name_H-M   'P 1'
_cell_length_a   6.47823500
_cell_length_b   9.83055500
_cell_length_c   16.47960700
_cell_angle_alpha   90.00000000
_cell_angle_beta   90.00000000
_cell_angle_gamma   90.00000000
_symmetry_Int_Tables_number   1
_chemical_formula_structural   LiV4(PO4)3
_chemical_formula_sum   'Li4 V16 P12 O48'
_cell_volume   1049.49792929
_cell_formula_units_Z   4
loop_
 _symmetry_equiv_pos_site_id
 _symmetry_equiv_pos_as_xyz
  1  'x, y, z'
loop_
 _atom_site_type_symbol
 _atom_site_label
 _atom_site_symmetry_multiplicity
 _atom_site_fract_x
 _atom_site_fract_y
 _atom_site_fract_z
 _atom_site_occupancy
  Li  Li0  1  0.00000000  0.24490200  0.44489600  1
  Li  Li1  1  0.00000000  0.75509800  0.55510400  1
  Li  Li2  1  0.50000000  0.74490200  0.05510400  1
  Li  Li3  1  0.50000000  0.25509800  0.94489600  1
  V  V0  1  0.00000000  0.54878800  0.09328600  1
  V  V1  1  0.00000000  0.99157000  0.14012100  1
  V  V2  1  0.00000000  0.00843000  0.85987900  1
  V  V3  1  0.00000000  0.45121200  0.90671400  1
  V  V4  1  0.74901700  0.75832700  0.29417500  1
  V  V5  1  0.74901700  0.24167300  0.70582500  1
  V  V6  1  0.75098300  0.25832700  0.20582500  1
  V  V7  1  0.75098300  0.74167300  0.79417500  1
  V  V8  1  0.50000000  0.95121200  0.59328600  1
  V  V9  1  0.50000000  0.49157000  0.35987900  1
  V  V10  1  0.50000000  0.04878800  0.40671400  1
  V  V11  1  0.50000000  0.50843000  0.64012100  1
  V  V12  1  0.24901700  0.74167300  0.79417500  1
  V  V13  1  0.24901700  0.25832700  0.20582500  1
  V  V14  1  0.25098300  0.75832700  0.29417500  1
  V  V15  1  0.25098300  0.24167300  0.70582500  1
  P  P0  1  0.00000000  0.21034800  0.03735400  1
  P  P1  1  0.00000000  0.04964300  0.34133200  1
  P  P2  1  0.00000000  0.45807500  0.28494800  1
  P  P3  1  0.00000000  0.54192500  0.71505200  1
  P  P4  1  0.00000000  0.95035700  0.65866800  1
  P  P5  1  0.00000000  0.78965200  0.96264600  1
  P  P6  1  0.50000000  0.28965200  0.53735400  1
  P  P7  1  0.50000000  0.95807500  0.21505200  1
  P  P8  1  0.50000000  0.54964300  0.15866800  1
  P  P9  1  0.50000000  0.71034800  0.46264600  1
  P  P10  1  0.50000000  0.04192500  0.78494800  1
  P  P11  1  0.50000000  0.45035700  0.84133200  1
  O  O0  1  0.00000000  0.36636600  0.02588000  1
  O  O1  1  0.00000000  0.11802200  0.25268600  1
  O  O2  1  0.00000000  0.40497500  0.19339100  1
  O  O3  1  0.00000000  0.85217300  0.04675300  1
  O  O4  1  0.00000000  0.61494800  0.28195100  1
  O  O5  1  0.00000000  0.10753200  0.67003700  1
  O  O6  1  0.00000000  0.89246800  0.32996300  1
  O  O7  1  0.00000000  0.38505200  0.71804900  1
  O  O8  1  0.00000000  0.14782700  0.95324700  1
  O  O9  1  0.00000000  0.59502500  0.80660900  1
  O  O10  1  0.00000000  0.88197800  0.74731400  1
  O  O11  1  0.00000000  0.63363400  0.97412000  1
  O  O12  1  0.80822700  0.16259800  0.08928300  1
  O  O13  1  0.80822700  0.83740200  0.91071700  1
  O  O14  1  0.81253500  0.89888200  0.61072500  1
  O  O15  1  0.81253500  0.10111800  0.38927500  1
  O  O16  1  0.80029600  0.39539600  0.32063700  1
  O  O17  1  0.80029600  0.60460400  0.67936300  1
  O  O18  1  0.69970400  0.89539600  0.17936300  1
  O  O19  1  0.69970400  0.10460400  0.82063700  1
  O  O20  1  0.68746500  0.39888200  0.88927500  1
  O  O21  1  0.68746500  0.60111800  0.11072500  1
  O  O22  1  0.69177300  0.33740200  0.58928300  1
  O  O23  1  0.69177300  0.66259800  0.41071700  1
  O  O24  1  0.50000000  0.39246800  0.17003700  1
  O  O25  1  0.50000000  0.35217300  0.45324700  1
  O  O26  1  0.50000000  0.13363400  0.52588000  1
  O  O27  1  0.50000000  0.11494800  0.21804900  1
  O  O28  1  0.50000000  0.86636600  0.47412000  1
  O  O29  1  0.50000000  0.64782700  0.54675300  1
  O  O30  1  0.50000000  0.61802200  0.24731400  1
  O  O31  1  0.50000000  0.90497500  0.30660900  1
  O  O32  1  0.50000000  0.09502500  0.69339100  1
  O  O33  1  0.50000000  0.88505200  0.78195100  1
  O  O34  1  0.50000000  0.60753200  0.82996300  1
  O  O35  1  0.50000000  0.38197800  0.75268600  1
  O  O36  1  0.30822700  0.66259800  0.41071700  1
  O  O37  1  0.30822700  0.33740200  0.58928300  1
  O  O38  1  0.31253500  0.60111800  0.11072500  1
  O  O39  1  0.31253500  0.39888200  0.88927500  1
  O  O40  1  0.30029600  0.89539600  0.17936300  1
  O  O41  1  0.30029600  0.10460400  0.82063700  1
  O  O42  1  0.19970400  0.39539600  0.32063700  1
  O  O43  1  0.19970400  0.60460400  0.67936300  1
  O  O44  1  0.18746500  0.10111800  0.38927500  1
  O  O45  1  0.18746500  0.89888200  0.61072500  1
  O  O46  1  0.19177300  0.16259800  0.08928300  1
  O  O47  1  0.19177300  0.83740200  0.91071700  1
loop_
_geom_bond_atom_site_label_1
_geom_bond_atom_site_label_2
_geom_bond_distance
_geom_bond_site_symmetry_2
Li0 O44 2.076768 1_555
Li0 O15 2.076768 1_455
Li1 O45 2.076768 1_555
Li1 O14 2.076768 1_455
Li2 O21 2.076768 1_555
Li2 O38 2.076768 1_555
Li3 O20 2.076768 1_555
Li3 O39 2.076768 1_555
O0 P0 1.545355 1_555
O0 V0 2.109476 1_555
O0 V3 2.133598 1_554
O1 P1 1.608087 1_555
O1 V1 2.233026 1_545
O1 V13 2.258574 1_555
O1 V6 2.258574 1_455
O2 P2 1.596570 1_555
O2 V0 2.172603 1_555
O2 V13 2.173171 1_555
O2 V6 2.173171 1_455
O3 P5 1.516209 1_554
O3 V1 2.060427 1_555
O4 P2 1.542939 1_555
O4 V14 2.161225 1_555
O4 V4 2.161225 1_455
O5 P4 1.556435 1_545
O5 V15 2.174945 1_555
O5 V5 2.174945 1_455
O6 P1 1.556435 1_565
O6 V14 2.174945 1_555
O6 V4 2.174945 1_455
O7 P3 1.542939 1_555
O7 V15 2.161225 1_555
O7 V5 2.161225 1_455
O8 P0 1.516209 1_556
O8 V2 2.060427 1_555
O9 P3 1.596570 1_555
O9 V3 2.172603 1_555
O9 V12 2.173171 1_555
O9 V7 2.173171 1_455
O10 P4 1.608087 1_555
O10 V2 2.233026 1_565
O10 V12 2.258574 1_555
O10 V7 2.258574 1_455
O11 P5 1.545355 1_555
O11 V3 2.109476 1_555
O11 V0 2.133598 1_556
O12 P0 1.579912 1_655
O12 V6 2.170647 1_555
O12 V1 2.252132 1_645
O13 P5 1.579912 1_655
O13 V7 2.170647 1_555
O13 V2 2.252132 1_665
O14 P4 1.534654 1_655
O14 V8 2.108683 1_555
O15 P1 1.534654 1_655
O15 V10 2.108683 1_555
O16 P2 1.548971 1_655
O16 V9 2.257567 1_555
O16 V6 2.344695 1_555
O17 P3 1.548971 1_655
O17 V11 2.257567 1_555
O17 V7 2.344695 1_555
O18 P7 1.548971 1_555
O18 V1 2.257567 1_655
O18 V4 2.344695 1_555
O19 P10 1.548971 1_555
O19 V2 2.257567 1_655
O19 V5 2.344695 1_555
O20 P11 1.534654 1_555
O20 V3 2.108683 1_655
O21 P8 1.534654 1_555
O21 V0 2.108683 1_655
O22 P6 1.579912 1_555
O22 V5 2.170647 1_555
O22 V11 2.252132 1_555
O23 P9 1.579912 1_555
O23 V4 2.170647 1_555
O23 V9 2.252132 1_555
O24 P8 1.556435 1_555
O24 V6 2.174945 1_555
O24 V13 2.174945 1_555
O25 P6 1.516209 1_555
O25 V9 2.060427 1_555
O26 P6 1.545355 1_555
O26 V8 2.109476 1_545
O26 V10 2.133598 1_555
O27 P7 1.542939 1_545
O27 V6 2.161225 1_555
O27 V13 2.161225 1_555
O28 P9 1.545355 1_555
O28 V10 2.109476 1_565
O28 V8 2.133598 1_555
O29 P9 1.516209 1_555
O29 V11 2.060427 1_555
O30 P8 1.608087 1_555
O30 V9 2.233026 1_555
O30 V4 2.258574 1_555
O30 V14 2.258574 1_555
O31 P7 1.596570 1_555
O31 V10 2.172603 1_565
O31 V4 2.173171 1_555
O31 V14 2.173171 1_555
O32 P10 1.596570 1_555
O32 V8 2.172603 1_545
O32 V5 2.173171 1_555
O32 V15 2.173171 1_555
O33 P10 1.542939 1_565
O33 V7 2.161225 1_555
O33 V12 2.161225 1_555
O34 P11 1.556435 1_555
O34 V7 2.174945 1_555
O34 V12 2.174945 1_555
O35 P11 1.608087 1_555
O35 V11 2.233026 1_555
O35 V5 2.258574 1_555
O35 V15 2.258574 1_555
O36 P9 1.579912 1_555
O36 V14 2.170647 1_555
O36 V9 2.252132 1_555
O37 P6 1.579912 1_555
O37 V15 2.170647 1_555
O37 V11 2.252132 1_555
O38 P8 1.534654 1_555
O38 V0 2.108683 1_555
O39 P11 1.534654 1_555
O39 V3 2.108683 1_555
O40 P7 1.548971 1_555
O40 V1 2.257567 1_555
O40 V14 2.344695 1_555
O41 P10 1.548971 1_555
O41 V2 2.257567 1_555
O41 V15 2.344695 1_555
O42 P2 1.548971 1_555
O42 V9 2.257567 1_555
O42 V13 2.344695 1_555
O43 P3 1.548971 1_555
O43 V11 2.257567 1_555
O43 V12 2.344695 1_555
O44 P1 1.534654 1_555
O44 V10 2.108683 1_555
O45 P4 1.534654 1_555
O45 V8 2.108683 1_555
O46 P0 1.579912 1_555
O46 V13 2.170647 1_555
O46 V1 2.252132 1_545
O47 P5 1.579912 1_555
O47 V12 2.170647 1_555
O47 V2 2.252132 1_565
