# generated using pymatgen
data_Bi2(BO3)3
_symmetry_space_group_name_H-M   'P 1'
_cell_length_a   6.29732078
_cell_length_b   6.29732078
_cell_length_c   9.26351000
_cell_angle_alpha   90.00000000
_cell_angle_beta   90.00000000
_cell_angle_gamma   120.00000823
_symmetry_Int_Tables_number   1
_chemical_formula_structural   Bi2(BO3)3
_chemical_formula_sum   'Bi4 B6 O18'
_cell_volume   318.13965347
_cell_formula_units_Z   2
loop_
 _symmetry_equiv_pos_site_id
 _symmetry_equiv_pos_as_xyz
  1  'x, y, z'
loop_
 _atom_site_type_symbol
 _atom_site_label
 _atom_site_symmetry_multiplicity
 _atom_site_fract_x
 _atom_site_fract_y
 _atom_site_fract_z
 _atom_site_occupancy
  Bi  Bi0  1  0.33333300  0.66666700  0.00833700  1
  Bi  Bi1  1  0.33333300  0.66666700  0.49166300  1
  Bi  Bi2  1  0.66666700  0.33333300  0.50833700  1
  Bi  Bi3  1  0.66666700  0.33333300  0.99166300  1
  B  B0  1  0.00586200  0.77163400  0.75000000  1
  B  B1  1  0.22836600  0.23422800  0.75000000  1
  B  B2  1  0.76577200  0.99413800  0.75000000  1
  B  B3  1  0.23422800  0.00586200  0.25000000  1
  B  B4  1  0.77163400  0.76577200  0.25000000  1
  B  B5  1  0.99413800  0.22836600  0.25000000  1
  O  O0  1  0.01292200  0.78180800  0.25000000  1
  O  O1  1  0.00619300  0.63608100  0.88528100  1
  O  O2  1  0.00619300  0.63608100  0.61471900  1
  O  O3  1  0.21819200  0.23111500  0.25000000  1
  O  O4  1  0.62988700  0.99380700  0.61471900  1
  O  O5  1  0.62988700  0.99380700  0.88528100  1
  O  O6  1  0.36391900  0.37011300  0.61471900  1
  O  O7  1  0.36391900  0.37011300  0.88528100  1
  O  O8  1  0.23111500  0.01292200  0.75000000  1
  O  O9  1  0.76888500  0.98707800  0.25000000  1
  O  O10  1  0.63608100  0.62988700  0.38528100  1
  O  O11  1  0.63608100  0.62988700  0.11471900  1
  O  O12  1  0.37011300  0.00619300  0.11471900  1
  O  O13  1  0.37011300  0.00619300  0.38528100  1
  O  O14  1  0.78180800  0.76888500  0.75000000  1
  O  O15  1  0.99380700  0.36391900  0.11471900  1
  O  O16  1  0.99380700  0.36391900  0.38528100  1
  O  O17  1  0.98707800  0.21819200  0.75000000  1
loop_
_geom_bond_atom_site_label_1
_geom_bond_atom_site_label_2
_geom_bond_distance
_geom_bond_site_symmetry_2
Bi0 O12 2.258555 1_565
Bi0 O15 2.258559 1_455
Bi0 O11 2.258566 1_555
Bi0 O5 2.276791 1_554
Bi0 O1 2.276791 1_554
Bi0 O7 2.276791 1_554
Bi1 O13 2.258555 1_565
Bi1 O16 2.258559 1_455
Bi1 O10 2.258566 1_555
Bi1 O4 2.276791 1_555
Bi1 O2 2.276791 1_555
Bi1 O6 2.276791 1_555
Bi2 O4 2.258555 1_545
Bi2 O2 2.258559 1_655
Bi2 O6 2.258566 1_555
Bi2 O13 2.276791 1_555
Bi2 O16 2.276791 1_555
Bi2 O10 2.276791 1_555
Bi3 O5 2.258555 1_545
Bi3 O1 2.258559 1_655
Bi3 O7 2.258566 1_555
Bi3 O12 2.276791 1_556
Bi3 O15 2.276791 1_556
Bi3 O11 2.276791 1_556
B0 O14 1.402364 1_455
B0 O8 1.471580 1_565
B0 O2 1.516873 1_555
B0 O1 1.516873 1_555
B1 O8 1.402371 1_555
B1 O17 1.471577 1_455
B1 O7 1.516875 1_555
B1 O6 1.516875 1_555
B2 O17 1.402367 1_565
B2 O14 1.471583 1_555
B2 O4 1.516877 1_555
B2 O5 1.516877 1_555
B3 O0 1.402367 1_545
B3 O3 1.471583 1_555
B3 O12 1.516877 1_555
B3 O13 1.516877 1_555
B4 O9 1.402371 1_555
B4 O0 1.471577 1_655
B4 O11 1.516875 1_555
B4 O10 1.516875 1_555
B5 O3 1.402364 1_655
B5 O9 1.471580 1_545
B5 O16 1.516873 1_555
B5 O15 1.516873 1_555
