# generated using pymatgen
data_Li2MnV3O8
_symmetry_space_group_name_H-M   'P 1'
_cell_length_a   8.50221100
_cell_length_b   8.50221100
_cell_length_c   8.50221100
_cell_angle_alpha   90.00000000
_cell_angle_beta   90.00000000
_cell_angle_gamma   90.00000000
_symmetry_Int_Tables_number   1
_chemical_formula_structural   Li2MnV3O8
_chemical_formula_sum   'Li8 Mn4 V12 O32'
_cell_volume   614.60435892
_cell_formula_units_Z   4
loop_
 _symmetry_equiv_pos_site_id
 _symmetry_equiv_pos_as_xyz
  1  'x, y, z'
loop_
 _atom_site_type_symbol
 _atom_site_label
 _atom_site_symmetry_multiplicity
 _atom_site_fract_x
 _atom_site_fract_y
 _atom_site_fract_z
 _atom_site_occupancy
  Li  Li0  1  0.12736000  0.87264000  0.37264000  1
  Li  Li1  1  0.25131900  0.75131900  0.74868100  1
  Li  Li2  1  0.24868100  0.24868100  0.24868100  1
  Li  Li3  1  0.37264000  0.12736000  0.87264000  1
  Li  Li4  1  0.62736000  0.62736000  0.62736000  1
  Li  Li5  1  0.75131900  0.74868100  0.25131900  1
  Li  Li6  1  0.74868100  0.25131900  0.75131900  1
  Li  Li7  1  0.87264000  0.37264000  0.12736000  1
  Mn  Mn0  1  0.99601100  0.50398900  0.49601100  1
  Mn  Mn1  1  0.50398900  0.49601100  0.99601100  1
  Mn  Mn2  1  0.49601100  0.99601100  0.50398900  1
  Mn  Mn3  1  0.00398900  0.00398900  0.00398900  1
  V  V0  1  0.12621100  0.61947500  0.12149500  1
  V  V1  1  0.11947500  0.37850500  0.87378900  1
  V  V2  1  0.12149500  0.12621100  0.61947500  1
  V  V3  1  0.37850500  0.87378900  0.11947500  1
  V  V4  1  0.38052500  0.62149500  0.37378900  1
  V  V5  1  0.37378900  0.38052500  0.62149500  1
  V  V6  1  0.62621100  0.88052500  0.87850500  1
  V  V7  1  0.61947500  0.12149500  0.12621100  1
  V  V8  1  0.62149500  0.37378900  0.38052500  1
  V  V9  1  0.87850500  0.62621100  0.88052500  1
  V  V10  1  0.88052500  0.87850500  0.62621100  1
  V  V11  1  0.87378900  0.11947500  0.37850500  1
  O  O0  1  0.10313400  0.13078600  0.39934200  1
  O  O1  1  0.10065800  0.89686600  0.63078600  1
  O  O2  1  0.11526900  0.61526900  0.88473100  1
  O  O3  1  0.13078600  0.39934200  0.10313400  1
  O  O4  1  0.12198500  0.14729200  0.85012500  1
  O  O5  1  0.13589700  0.36410300  0.63589700  1
  O  O6  1  0.14987500  0.62198500  0.35270800  1
  O  O7  1  0.14729200  0.85012500  0.12198500  1
  O  O8  1  0.35270800  0.14987500  0.62198500  1
  O  O9  1  0.35012500  0.37801500  0.85270800  1
  O  O10  1  0.36410300  0.63589700  0.13589700  1
  O  O11  1  0.37801500  0.85270800  0.35012500  1
  O  O12  1  0.36921400  0.60065800  0.60313400  1
  O  O13  1  0.38473100  0.38473100  0.38473100  1
  O  O14  1  0.39934200  0.10313400  0.13078600  1
  O  O15  1  0.39686600  0.86921400  0.89934200  1
  O  O16  1  0.60313400  0.36921400  0.60065800  1
  O  O17  1  0.60065800  0.60313400  0.36921400  1
  O  O18  1  0.61526900  0.88473100  0.11526900  1
  O  O19  1  0.63078600  0.10065800  0.89686600  1
  O  O20  1  0.62198500  0.35270800  0.14987500  1
  O  O21  1  0.63589700  0.13589700  0.36410300  1
  O  O22  1  0.64987500  0.87801500  0.64729200  1
  O  O23  1  0.64729200  0.64987500  0.87801500  1
  O  O24  1  0.85270800  0.35012500  0.37801500  1
  O  O25  1  0.85012500  0.12198500  0.14729200  1
  O  O26  1  0.86410300  0.86410300  0.86410300  1
  O  O27  1  0.87801500  0.64729200  0.64987500  1
  O  O28  1  0.86921400  0.89934200  0.39686600  1
  O  O29  1  0.88473100  0.11526900  0.61526900  1
  O  O30  1  0.89934200  0.39686600  0.86921400  1
  O  O31  1  0.89686600  0.63078600  0.10065800  1
loop_
_geom_bond_atom_site_label_1
_geom_bond_atom_site_label_2
_geom_bond_distance
_geom_bond_site_symmetry_2
Li0 O6 2.146402 1_555
Li0 O7 2.146402 1_555
Li0 O11 2.146402 1_555
Li0 O0 2.216115 1_565
Li0 O1 2.216115 1_555
Li0 O28 2.216115 1_455
Li1 O2 2.003508 1_555
Li1 O1 2.043750 1_555
Li1 O12 2.043750 1_555
Li1 O15 2.043750 1_555
Li2 O13 2.003508 1_555
Li2 O3 2.043750 1_555
Li2 O0 2.043750 1_555
Li2 O14 2.043750 1_555
Li3 O8 2.146402 1_555
Li3 O4 2.146402 1_555
Li3 O9 2.146402 1_555
Li3 O14 2.216115 1_556
Li3 O19 2.216115 1_555
Li3 O15 2.216115 1_545
Li4 O22 2.146402 1_555
Li4 O23 2.146402 1_555
Li4 O27 2.146402 1_555
Li4 O16 2.216115 1_555
Li4 O17 2.216115 1_555
Li4 O12 2.216115 1_555
Li5 O18 2.003508 1_555
Li5 O31 2.043750 1_555
Li5 O17 2.043750 1_555
Li5 O28 2.043750 1_555
Li6 O29 2.003508 1_555
Li6 O19 2.043750 1_555
Li6 O16 2.043750 1_555
Li6 O30 2.043750 1_555
Li7 O20 2.146402 1_555
Li7 O25 2.146402 1_555
Li7 O24 2.146402 1_555
Li7 O3 2.216115 1_655
Li7 O31 2.216115 1_555
Li7 O30 2.216115 1_554
Mn0 O27 2.049949 1_555
Mn0 O6 2.049949 1_655
Mn0 O24 2.049949 1_555
Mn0 O5 2.059998 1_655
Mn1 O23 2.049949 1_555
Mn1 O20 2.049949 1_556
Mn1 O9 2.049949 1_555
Mn1 O10 2.059998 1_556
Mn2 O22 2.049949 1_555
Mn2 O8 2.049949 1_565
Mn2 O11 2.049949 1_555
Mn2 O21 2.059998 1_565
Mn3 O25 2.049949 1_455
Mn3 O4 2.049949 1_554
Mn3 O7 2.049949 1_545
Mn3 O26 2.059998 1_444
O0 V2 1.878519 1_555
O0 V11 1.960331 1_455
O1 V10 1.878519 1_455
O1 V2 1.960331 1_565
O2 V0 2.015483 1_556
O2 V1 2.015483 1_555
O2 V9 2.015483 1_455
O3 V0 1.878519 1_555
O3 V1 1.960331 1_554
O4 V2 1.969213 1_555
O4 V1 1.976206 1_555
O5 V5 2.031116 1_555
O5 V2 2.031116 1_555
O5 V1 2.031116 1_555
O6 V4 1.969213 1_555
O6 V0 1.976206 1_555
O7 V0 1.969213 1_555
O7 V3 1.976206 1_555
O8 V5 1.969213 1_555
O8 V2 1.976206 1_555
O9 V1 1.969213 1_555
O9 V5 1.976206 1_555
O10 V3 2.031116 1_555
O10 V0 2.031116 1_555
O10 V4 2.031116 1_555
O11 V3 1.969213 1_555
O11 V4 1.976206 1_555
O12 V5 1.878519 1_555
O12 V4 1.960331 1_555
O13 V8 2.015483 1_555
O13 V4 2.015483 1_555
O13 V5 2.015483 1_555
O14 V7 1.878519 1_555
O14 V3 1.960331 1_545
O15 V3 1.878519 1_556
O15 V6 1.960331 1_555
O16 V8 1.878519 1_555
O16 V5 1.960331 1_555
O17 V4 1.878519 1_555
O17 V8 1.960331 1_555
O18 V7 2.015483 1_565
O18 V3 2.015483 1_555
O18 V6 2.015483 1_554
O19 V6 1.878519 1_545
O19 V7 1.960331 1_556
O20 V8 1.969213 1_555
O20 V7 1.976206 1_555
O21 V11 2.031116 1_555
O21 V8 2.031116 1_555
O21 V7 2.031116 1_555
O22 V10 1.969213 1_555
O22 V6 1.976206 1_555
O23 V6 1.969213 1_555
O23 V9 1.976206 1_555
O24 V11 1.969213 1_555
O24 V8 1.976206 1_555
O25 V7 1.969213 1_555
O25 V11 1.976206 1_555
O26 V9 2.031116 1_555
O26 V10 2.031116 1_555
O26 V6 2.031116 1_555
O27 V9 1.969213 1_555
O27 V10 1.976206 1_555
O28 V11 1.878519 1_565
O28 V10 1.960331 1_555
O29 V11 2.015483 1_555
O29 V2 2.015483 1_655
O29 V10 2.015483 1_545
O30 V1 1.878519 1_655
O30 V9 1.960331 1_555
O31 V9 1.878519 1_554
O31 V0 1.960331 1_655
