# generated using pymatgen
data_InH8C8N4Cl7
_symmetry_space_group_name_H-M   'P 1'
_cell_length_a   8.25586100
_cell_length_b   11.19050400
_cell_length_c   13.55317900
_cell_angle_alpha   90.00000000
_cell_angle_beta   90.00000000
_cell_angle_gamma   90.00000000
_symmetry_Int_Tables_number   1
_chemical_formula_structural   InH8C8N4Cl7
_chemical_formula_sum   'In2 H16 C16 N8 Cl14'
_cell_volume   1252.14087617
_cell_formula_units_Z   2
loop_
 _symmetry_equiv_pos_site_id
 _symmetry_equiv_pos_as_xyz
  1  'x, y, z'
loop_
 _atom_site_type_symbol
 _atom_site_label
 _atom_site_symmetry_multiplicity
 _atom_site_fract_x
 _atom_site_fract_y
 _atom_site_fract_z
 _atom_site_occupancy
  In  In0  1  0.40157600  0.50000000  0.50000000  1
  In  In1  1  0.59842400  0.00000000  0.00000000  1
  H  H0  1  0.07118100  0.07488000  0.53069800  1
  H  H1  1  0.07118100  0.92512000  0.46930200  1
  H  H2  1  0.92881900  0.57488000  0.96930200  1
  H  H3  1  0.92881900  0.42512000  0.03069800  1
  H  H4  1  0.15389800  0.32778400  0.55866600  1
  H  H5  1  0.15389800  0.67221600  0.44133400  1
  H  H6  1  0.84610200  0.82778400  0.94133400  1
  H  H7  1  0.84610200  0.17221600  0.05866600  1
  H  H8  1  0.45895300  0.16155200  0.84287400  1
  H  H9  1  0.45895300  0.83844800  0.15712600  1
  H  H10  1  0.54104700  0.66155200  0.65712600  1
  H  H11  1  0.54104700  0.33844800  0.34287400  1
  H  H12  1  0.52921500  0.36136900  0.73642400  1
  H  H13  1  0.52921500  0.63863100  0.26357600  1
  H  H14  1  0.47078500  0.86136900  0.76357600  1
  H  H15  1  0.47078500  0.13863100  0.23642400  1
  C  C0  1  0.00841200  0.26647400  0.69105600  1
  C  C1  1  0.00841200  0.73352600  0.30894400  1
  C  C2  1  0.99158800  0.76647400  0.80894400  1
  C  C3  1  0.99158800  0.23352600  0.19105600  1
  C  C4  1  0.89327000  0.31089300  0.61010200  1
  C  C5  1  0.89327000  0.68910700  0.38989800  1
  C  C6  1  0.10673000  0.81089300  0.88989800  1
  C  C7  1  0.10673000  0.18910700  0.11010200  1
  C  C8  1  0.45001700  0.44750100  0.88019300  1
  C  C9  1  0.45001700  0.55249900  0.11980700  1
  C  C10  1  0.54998300  0.94750100  0.61980700  1
  C  C11  1  0.54998300  0.05249900  0.38019300  1
  C  C12  1  0.63426000  0.44290500  0.87787200  1
  C  C13  1  0.63426000  0.55709500  0.12212800  1
  C  C14  1  0.36574000  0.94290500  0.62212800  1
  C  C15  1  0.36574000  0.05709500  0.37787200  1
  N  N0  1  0.05448000  0.30874200  0.60310200  1
  N  N1  1  0.05448000  0.69125800  0.39689800  1
  N  N2  1  0.94552000  0.80874200  0.89689800  1
  N  N3  1  0.94552000  0.19125800  0.10310200  1
  N  N4  1  0.53800700  0.40252200  0.80590700  1
  N  N5  1  0.53800700  0.59747800  0.19409300  1
  N  N6  1  0.46199300  0.90252200  0.69409300  1
  N  N7  1  0.46199300  0.09747800  0.30590700  1
  Cl  Cl0  1  0.66623800  0.60109200  0.62887700  1
  Cl  Cl1  1  0.66623800  0.39890800  0.37112300  1
  Cl  Cl2  1  0.33376200  0.10109200  0.87112300  1
  Cl  Cl3  1  0.33376200  0.89890800  0.12887700  1
  Cl  Cl4  1  0.45548000  0.31143300  0.58567700  1
  Cl  Cl5  1  0.45548000  0.68856700  0.41432300  1
  Cl  Cl6  1  0.54452000  0.81143300  0.91432300  1
  Cl  Cl7  1  0.54452000  0.18856700  0.08567700  1
  Cl  Cl8  1  0.22868600  0.59692100  0.62136800  1
  Cl  Cl9  1  0.22868600  0.40307900  0.37863200  1
  Cl  Cl10  1  0.77131400  0.09692100  0.87863200  1
  Cl  Cl11  1  0.77131400  0.90307900  0.12136800  1
  Cl  Cl12  1  0.95735100  0.00000000  0.50000000  1
  Cl  Cl13  1  0.04264900  0.50000000  0.00000000  1
loop_
_geom_bond_atom_site_label_1
_geom_bond_atom_site_label_2
_geom_bond_distance
_geom_bond_site_symmetry_2
H4 N0 1.040093 1_555
H5 N1 1.040093 1_555
H6 N2 1.040093 1_555
H7 N3 1.040093 1_555
H12 N4 1.050799 1_555
H13 N5 1.050799 1_555
H14 N6 1.050799 1_555
H15 N7 1.050799 1_555
C0 N0 1.337677 1_555
C1 N1 1.337677 1_555
C2 N2 1.337677 1_555
C3 N3 1.337677 1_555
C4 N0 1.334522 1_655
C5 N1 1.334522 1_655
C6 N2 1.334522 1_455
C7 N3 1.334522 1_455
C8 N4 1.339673 1_555
C9 N5 1.339673 1_555
C10 N6 1.339673 1_555
C11 N7 1.339673 1_555
C12 N4 1.336790 1_555
C13 N5 1.336790 1_555
C14 N6 1.336790 1_555
C15 N7 1.336790 1_555
Cl0 H10 1.293286 1_555
Cl1 H11 1.293286 1_555
Cl2 H8 1.293286 1_555
Cl3 H9 1.293286 1_555
Cl4 In0 2.449326 1_555
Cl5 In0 2.449326 1_555
Cl6 In1 2.449326 1_566
Cl7 In1 2.449326 1_555
Cl8 In0 2.432994 1_555
Cl9 In0 2.432994 1_555
Cl10 In1 2.432994 1_556
Cl11 In1 2.432994 1_565
Cl12 H1 1.326051 1_645
Cl12 H0 1.326051 1_655
Cl13 H3 1.326051 1_455
Cl13 H2 1.326051 1_454
