# generated using pymatgen
data_Bi14SO24
_symmetry_space_group_name_H-M   'P 1'
_cell_length_a   10.55231684
_cell_length_b   10.55231684
_cell_length_c   8.66058696
_cell_angle_alpha   65.81009098
_cell_angle_beta   65.81009098
_cell_angle_gamma   109.01012589
_symmetry_Int_Tables_number   1
_chemical_formula_structural   Bi14SO24
_chemical_formula_sum   'Bi14 S1 O24'
_cell_volume   645.98347565
_cell_formula_units_Z   1
loop_
 _symmetry_equiv_pos_site_id
 _symmetry_equiv_pos_as_xyz
  1  'x, y, z'
loop_
 _atom_site_type_symbol
 _atom_site_label
 _atom_site_symmetry_multiplicity
 _atom_site_fract_x
 _atom_site_fract_y
 _atom_site_fract_z
 _atom_site_occupancy
  Bi  Bi0  1  0.21456155  0.21456155  0.23242752  1
  Bi  Bi1  1  0.46758472  0.12708538  0.81548855  1
  Bi  Bi2  1  0.72299739  0.06110848  0.40395293  1
  Bi  Bi3  1  0.45033079  0.45033079  0.33791617  1
  Bi  Bi4  1  0.66169000  0.34346020  0.99385572  1
  Bi  Bi5  1  0.55790759  0.55790759  0.65178301  1
  Bi  Bi6  1  0.94387814  0.27789089  0.59640317  1
  Bi  Bi7  1  0.87362053  0.53748426  0.18943385  1
  Bi  Bi8  1  0.79288761  0.79288761  0.76473745  1
  Bi  Bi9  1  0.12708538  0.46758472  0.81548855  1
  Bi  Bi10  1  0.06110848  0.72299739  0.40395293  1
  Bi  Bi11  1  0.34346020  0.66169000  0.99385572  1
  Bi  Bi12  1  0.27789089  0.94387814  0.59640317  1
  Bi  Bi13  1  0.53748426  0.87362053  0.18943385  1
  S  S0  1  0.96641340  0.96641340  0.00646630  1
  O  O0  1  0.49643932  0.00812764  0.32753845  1
  O  O1  1  0.39755109  0.24238669  0.30522828  1
  O  O2  1  0.45335647  0.29578897  0.94485037  1
  O  O3  1  0.67335250  0.18396030  0.82875902  1
  O  O4  1  0.62157889  0.37911292  0.49997882  1
  O  O5  1  0.87796624  0.11950262  0.50404792  1
  O  O6  1  0.97000394  0.11110417  0.99481649  1
  O  O7  1  0.82573265  0.33557741  0.17084850  1
  O  O8  1  0.70572606  0.54974711  0.05627664  1
  O  O9  1  0.76171089  0.60326921  0.68989158  1
  O  O10  1  0.00812764  0.49643932  0.32753845  1
  O  O11  1  0.99244607  0.50460454  0.67633366  1
  O  O12  1  0.24238669  0.39755109  0.30522828  1
  O  O13  1  0.79986815  0.79986815  0.21370690  1
  O  O14  1  0.29578897  0.45335647  0.94485037  1
  O  O15  1  0.18396030  0.67335250  0.82875902  1
  O  O16  1  0.98098723  0.98098723  0.82035274  1
  O  O17  1  0.11950262  0.87796624  0.50404792  1
  O  O18  1  0.37911292  0.62157889  0.49997882  1
  O  O19  1  0.11110417  0.97000394  0.99481649  1
  O  O20  1  0.33557741  0.82573265  0.17084850  1
  O  O21  1  0.54974711  0.70572606  0.05627664  1
  O  O22  1  0.60326921  0.76171089  0.68989158  1
  O  O23  1  0.50460454  0.99244607  0.67633366  1
loop_
_geom_bond_atom_site_label_1
_geom_bond_atom_site_label_2
_geom_bond_distance
_geom_bond_site_symmetry_2
Bi0 O2 2.233267 1_554
Bi0 O14 2.233267 1_554
Bi0 O12 2.234381 1_555
Bi0 O1 2.234381 1_555
Bi1 O3 2.121354 1_555
Bi1 O4 2.184060 1_555
Bi1 O23 2.236637 1_545
Bi1 O2 2.473393 1_555
Bi1 O20 2.665473 1_546
Bi2 O23 2.111143 1_545
Bi2 O5 2.179078 1_555
Bi2 O7 2.237947 1_555
Bi2 O22 2.476684 1_545
Bi2 O0 2.682374 1_555
Bi3 O8 2.233165 1_555
Bi3 O21 2.233165 1_555
Bi3 O1 2.246639 1_555
Bi3 O12 2.246639 1_555
Bi3 O4 2.810533 1_555
Bi3 O18 2.810533 1_555
Bi4 O9 2.341692 1_555
Bi4 O2 2.342073 1_555
Bi4 O1 2.392670 1_556
Bi4 O8 2.399574 1_556
Bi4 O3 2.618269 1_555
Bi4 O11 2.659143 1_555
Bi4 O0 2.717226 1_556
Bi4 O7 2.741698 1_556
Bi5 O22 2.236881 1_555
Bi5 O9 2.236881 1_555
Bi5 O2 2.296435 1_555
Bi5 O14 2.296435 1_555
Bi5 O13 2.703345 1_555
Bi5 O4 2.806108 1_555
Bi5 O18 2.806108 1_555
Bi6 O10 2.118243 1_655
Bi6 O5 2.170516 1_555
Bi6 O3 2.235023 1_555
Bi6 O12 2.483006 1_655
Bi6 O11 2.704519 1_555
Bi7 O7 2.113518 1_555
Bi7 O4 2.158397 1_555
Bi7 O10 2.236061 1_655
Bi7 O8 2.487358 1_555
Bi7 O15 2.724875 1_654
Bi8 O8 2.248190 1_556
Bi8 O21 2.248190 1_556
Bi8 O22 2.311042 1_555
Bi8 O9 2.311042 1_555
Bi8 O16 2.666815 1_555
Bi8 O17 2.779940 1_655
Bi8 O5 2.779940 1_565
Bi9 O15 2.121354 1_555
Bi9 O18 2.184060 1_555
Bi9 O11 2.236637 1_455
Bi9 O14 2.473393 1_555
Bi9 O7 2.665473 1_456
Bi10 O11 2.111143 1_455
Bi10 O17 2.179078 1_555
Bi10 O20 2.237947 1_555
Bi10 O9 2.476684 1_455
Bi10 O10 2.682374 1_555
Bi11 O22 2.341692 1_555
Bi11 O14 2.342073 1_555
Bi11 O12 2.392670 1_556
Bi11 O21 2.399574 1_556
Bi11 O15 2.618269 1_555
Bi11 O23 2.659143 1_555
Bi11 O10 2.717226 1_556
Bi11 O20 2.741698 1_556
Bi12 O0 2.118243 1_565
Bi12 O17 2.170516 1_555
Bi12 O15 2.235023 1_555
Bi12 O1 2.483006 1_565
Bi12 O23 2.704519 1_555
Bi13 O20 2.113518 1_555
Bi13 O18 2.158397 1_555
Bi13 O0 2.236061 1_565
Bi13 O21 2.487358 1_555
Bi13 O3 2.724875 1_564
O6 S0 1.475038 1_546
O13 S0 1.488760 1_555
O16 S0 1.491198 1_556
O19 S0 1.475038 1_456
