# generated using pymatgen
data_Li3CrSiO5
_symmetry_space_group_name_H-M   'P 1'
_cell_length_a   4.98626126
_cell_length_b   5.78007604
_cell_length_c   12.46838059
_cell_angle_alpha   84.94263581
_cell_angle_beta   82.65278180
_cell_angle_gamma   106.42768407
_symmetry_Int_Tables_number   1
_chemical_formula_structural   Li3CrSiO5
_chemical_formula_sum   'Li12 Cr4 Si4 O20'
_cell_volume   338.91951761
_cell_formula_units_Z   4
loop_
 _symmetry_equiv_pos_site_id
 _symmetry_equiv_pos_as_xyz
  1  'x, y, z'
loop_
 _atom_site_type_symbol
 _atom_site_label
 _atom_site_symmetry_multiplicity
 _atom_site_fract_x
 _atom_site_fract_y
 _atom_site_fract_z
 _atom_site_occupancy
  Li  Li0  1  0.50000200  0.09999600  0.09999000  1
  Li  Li1  1  0.99999000  0.60000000  0.59999700  1
  Li  Li2  1  0.50001600  0.59999900  0.10001500  1
  Li  Li3  1  0.99999900  0.09997200  0.60000800  1
  Li  Li4  1  0.50288700  0.30362200  0.29895500  1
  Li  Li5  1  0.00288900  0.80347400  0.79894800  1
  Li  Li6  1  0.99709000  0.39652600  0.40103900  1
  Li  Li7  1  0.49713500  0.89639000  0.90103300  1
  Li  Li8  1  0.02117400  0.20938600  0.19177800  1
  Li  Li9  1  0.52118700  0.70936800  0.69178000  1
  Li  Li10  1  0.97884000  0.99060200  0.00820900  1
  Li  Li11  1  0.47884400  0.49066000  0.50818500  1
  Cr  Cr0  1  0.00080400  0.29743000  0.79859200  1
  Cr  Cr1  1  0.99924500  0.90258300  0.40142100  1
  Cr  Cr2  1  0.50062900  0.79767600  0.29857300  1
  Cr  Cr3  1  0.49906200  0.40245300  0.90147100  1
  Si  Si0  1  0.99990800  0.69498700  0.19588300  1
  Si  Si1  1  0.49998400  0.19505100  0.69588200  1
  Si  Si2  1  0.00006400  0.50492900  0.00413700  1
  Si  Si3  1  0.49991500  0.00494500  0.50416000  1
  O  O0  1  0.77322600  0.87574800  0.16161800  1
  O  O1  1  0.27331500  0.37569200  0.66162900  1
  O  O2  1  0.22676900  0.32426700  0.03838600  1
  O  O3  1  0.72671700  0.82430300  0.53834900  1
  O  O4  1  0.27443200  0.17169300  0.45304600  1
  O  O5  1  0.77441500  0.67162100  0.95304000  1
  O  O6  1  0.22553400  0.52845400  0.24694800  1
  O  O7  1  0.72562500  0.02835900  0.74693500  1
  O  O8  1  0.79524400  0.43063700  0.14115600  1
  O  O9  1  0.29523000  0.93069900  0.64116400  1
  O  O10  1  0.20474300  0.76927500  0.05882000  1
  O  O11  1  0.70474000  0.26931300  0.55882200  1
  O  O12  1  0.26814400  0.73284200  0.45417200  1
  O  O13  1  0.76817200  0.23276700  0.95418900  1
  O  O14  1  0.23186200  0.96729300  0.24581300  1
  O  O15  1  0.73202300  0.46711700  0.74583900  1
  O  O16  1  0.72477700  0.08387500  0.36819800  1
  O  O17  1  0.22486100  0.58384600  0.86821300  1
  O  O18  1  0.77520700  0.61618600  0.33179800  1
  O  O19  1  0.27530100  0.11596300  0.83180900  1
loop_
_geom_bond_atom_site_label_1
_geom_bond_atom_site_label_2
_geom_bond_distance
_geom_bond_site_symmetry_2
Li0 O13 2.057577 1_554
Li0 O14 2.057679 1_545
Li0 O8 2.204082 1_555
Li0 O10 2.204463 1_545
Li0 O0 2.284179 1_545
Li0 O2 2.284201 1_555
Li1 O15 2.057605 1_555
Li1 O12 2.057818 1_655
Li1 O9 2.204317 1_655
Li1 O11 2.204330 1_555
Li1 O3 2.284690 1_555
Li1 O1 2.284845 1_655
Li2 O0 2.059496 1_555
Li2 O2 2.059696 1_555
Li2 O6 2.074965 1_555
Li2 O5 2.075142 1_554
Li2 O8 2.075605 1_555
Li2 O10 2.075677 1_555
Li3 O3 2.059753 1_545
Li3 O1 2.059770 1_655
Li3 O7 2.074617 1_555
Li3 O4 2.075062 1_655
Li3 O9 2.075338 1_645
Li3 O11 2.075827 1_555
Li4 O18 2.039742 1_555
Li4 O4 2.064220 1_555
Li4 O16 2.104427 1_555
Li4 O8 2.222960 1_555
Li4 O14 2.239345 1_545
Li4 O6 2.262559 1_555
Li5 O19 2.039716 1_565
Li5 O5 2.064204 1_455
Li5 O17 2.104357 1_555
Li5 O9 2.222862 1_555
Li5 O15 2.238963 1_455
Li5 O7 2.262444 1_465
Li6 O16 2.040077 1_555
Li6 O6 2.064201 1_655
Li6 O18 2.104030 1_555
Li6 O11 2.222867 1_555
Li6 O12 2.239297 1_655
Li6 O4 2.262519 1_655
Li7 O17 2.039453 1_555
Li7 O7 2.064380 1_565
Li7 O19 2.103397 1_565
Li7 O10 2.222962 1_556
Li7 O13 2.239648 1_565
Li7 O5 2.262001 1_555
Li8 O2 2.009804 1_555
Li8 O8 2.038958 1_455
Li8 O6 2.062219 1_555
Li8 O0 2.070530 1_445
Li8 O14 2.088522 1_545
Li8 O16 2.414505 1_455
Li9 O3 2.010158 1_555
Li9 O9 2.039387 1_555
Li9 O7 2.061892 1_565
Li9 O1 2.070527 1_555
Li9 O15 2.089877 1_555
Li9 O17 2.414493 1_555
Li10 O0 2.009998 1_555
Li10 O10 2.039143 1_655
Li10 O5 2.061911 1_554
Li10 O2 2.070690 1_665
Li10 O13 2.088714 1_564
Li10 O19 2.414394 1_664
Li11 O1 2.010315 1_555
Li11 O11 2.039308 1_555
Li11 O4 2.061651 1_555
Li11 O3 2.070436 1_555
Li11 O12 2.088879 1_555
Li11 O18 2.414107 1_555
Cr0 O1 1.972286 1_555
Cr0 O7 1.977872 1_455
Cr0 O19 2.006362 1_555
Cr0 O15 2.011462 1_455
Cr0 O17 2.048821 1_555
Cr0 O13 2.073729 1_455
Cr1 O3 1.971994 1_555
Cr1 O4 1.977839 1_665
Cr1 O16 2.005551 1_565
Cr1 O12 2.012153 1_655
Cr1 O18 2.048724 1_555
Cr1 O14 2.073800 1_655
Cr2 O0 1.972477 1_555
Cr2 O6 1.978005 1_555
Cr2 O18 2.006825 1_555
Cr2 O14 2.011174 1_555
Cr2 O16 2.048151 1_565
Cr2 O12 2.073406 1_555
Cr3 O2 1.971293 1_556
Cr3 O5 1.978134 1_555
Cr3 O17 2.004926 1_555
Cr3 O13 2.012686 1_555
Cr3 O19 2.048859 1_555
Cr3 O15 2.074737 1_555
O0 Si0 1.806790 1_555
O1 Si1 1.806188 1_555
O2 Si2 1.806411 1_555
O3 Si3 1.806524 1_565
O4 Si3 1.813030 1_555
O5 Si2 1.813404 1_656
O6 Si0 1.812537 1_455
O7 Si1 1.813161 1_555
O8 Si0 1.822549 1_555
O8 Si2 1.822753 1_655
O9 Si3 1.822345 1_565
O9 Si1 1.822666 1_565
O10 Si2 1.822275 1_555
O10 Si0 1.823245 1_455
O11 Si3 1.822500 1_555
O11 Si1 1.823067 1_555
O12 Si3 1.877940 1_565
O13 Si2 1.878188 1_656
O14 Si0 1.878786 1_455
O15 Si1 1.878167 1_555
O16 Si3 1.851283 1_555
O17 Si2 1.850761 1_556
O18 Si0 1.850473 1_555
O19 Si1 1.850549 1_555
