# generated using pymatgen
data_Li3VCr2O6
_symmetry_space_group_name_H-M   'P 1'
_cell_length_a   2.97214670
_cell_length_b   13.02087400
_cell_length_c   5.95444235
_cell_angle_alpha   76.00702563
_cell_angle_beta   89.96822037
_cell_angle_gamma   90.01143606
_symmetry_Int_Tables_number   1
_chemical_formula_structural   Li3VCr2O6
_chemical_formula_sum   'Li6 V2 Cr4 O12'
_cell_volume   223.59844194
_cell_formula_units_Z   2
loop_
 _symmetry_equiv_pos_site_id
 _symmetry_equiv_pos_as_xyz
  1  'x, y, z'
loop_
 _atom_site_type_symbol
 _atom_site_label
 _atom_site_symmetry_multiplicity
 _atom_site_fract_x
 _atom_site_fract_y
 _atom_site_fract_z
 _atom_site_occupancy
  Li  Li0  1  0.00000300  0.66660700  0.16670500  1
  Li  Li1  1  0.50000300  0.16660100  0.16671600  1
  Li  Li2  1  0.99999700  0.99719600  0.50123200  1
  Li  Li3  1  0.50007800  0.49795100  0.50077300  1
  Li  Li4  1  0.00000100  0.33602400  0.83219700  1
  Li  Li5  1  0.49992600  0.83532700  0.83262500  1
  V  V0  1  0.49999800  0.16667700  0.66664200  1
  V  V1  1  0.00000300  0.66668400  0.66664400  1
  Cr  Cr0  1  0.50036900  0.49955200  0.00084500  1
  Cr  Cr1  1  0.49962000  0.83381000  0.33244500  1
  Cr  Cr2  1  0.99998000  0.99943700  0.00006700  1
  Cr  Cr3  1  0.00002800  0.33393100  0.33324800  1
  O  O0  1  0.00081400  0.50286500  0.76620500  1
  O  O1  1  0.50063400  0.00273300  0.76559300  1
  O  O2  1  0.99920300  0.83052600  0.56709500  1
  O  O3  1  0.49934700  0.33064200  0.56771500  1
  O  O4  1  0.00050900  0.83847100  0.09724000  1
  O  O5  1  0.50065500  0.33866900  0.09790300  1
  O  O6  1  0.99950300  0.49489900  0.23607400  1
  O  O7  1  0.49931600  0.99470300  0.23540900  1
  O  O8  1  0.00055800  0.17190900  0.42763100  1
  O  O9  1  0.49793200  0.67176600  0.42756500  1
  O  O10  1  0.99943500  0.16143500  0.90568300  1
  O  O11  1  0.50208500  0.66158500  0.90574700  1
loop_
_geom_bond_atom_site_label_1
_geom_bond_atom_site_label_2
_geom_bond_distance
_geom_bond_site_symmetry_2
Li0 O9 2.158774 1_555
Li0 O11 2.158811 1_454
Li0 O9 2.166069 1_455
Li0 O11 2.166150 1_554
Li0 O6 2.173189 1_455
Li0 O4 2.175152 1_555
Li1 O8 2.161339 1_555
Li1 O10 2.161442 1_554
Li1 O8 2.164770 1_655
Li1 O10 2.164928 1_454
Li1 O7 2.175862 1_545
Li1 O5 2.177995 1_555
Li2 O2 2.109960 1_555
Li2 O7 2.175100 1_655
Li2 O1 2.176737 1_565
Li2 O7 2.179053 1_555
Li2 O1 2.180491 1_665
Li2 O8 2.210240 1_665
Li3 O3 2.117745 1_555
Li3 O6 2.171828 1_555
Li3 O6 2.175349 1_455
Li3 O0 2.179526 1_555
Li3 O0 2.183683 1_655
Li3 O9 2.198895 1_555
Li4 O0 2.112102 1_555
Li4 O5 2.175025 1_456
Li4 O3 2.176810 1_555
Li4 O5 2.178867 1_556
Li4 O3 2.180634 1_455
Li4 O10 2.208690 1_455
Li5 O1 2.118955 1_565
Li5 O4 2.171679 1_556
Li5 O4 2.175233 1_656
Li5 O2 2.179678 1_555
Li5 O2 2.183783 1_455
Li5 O11 2.197988 1_555
Cr0 O6 2.031646 1_555
Cr0 O0 2.032623 1_554
Cr0 O0 2.033411 1_654
Cr0 O5 2.033927 1_555
Cr0 O6 2.034255 1_455
Cr0 O11 2.047976 1_554
Cr1 O4 2.031484 1_555
Cr1 O2 2.032779 1_555
Cr1 O2 2.033445 1_455
Cr1 O7 2.034048 1_555
Cr1 O4 2.034194 1_655
Cr1 O9 2.048118 1_555
Cr2 O1 2.031526 1_564
Cr2 O7 2.032400 1_655
Cr2 O1 2.033223 1_664
Cr2 O7 2.034130 1_555
Cr2 O4 2.034991 1_655
Cr2 O10 2.047422 1_564
Cr3 O3 2.031452 1_555
Cr3 O5 2.032485 1_455
Cr3 O3 2.033267 1_455
Cr3 O5 2.034055 1_555
Cr3 O6 2.035016 1_455
Cr3 O8 2.047723 1_555
O0 V1 2.071205 1_555
O1 V0 2.072636 1_555
O2 V1 2.071489 1_655
O3 V0 2.072894 1_555
O8 V0 2.046715 1_555
O8 V0 2.047965 1_455
O9 V1 2.042839 1_555
O9 V1 2.052937 1_655
O10 V0 2.046813 1_555
O10 V0 2.048077 1_655
O11 V1 2.042883 1_655
O11 V1 2.053029 1_555
