# generated using pymatgen
data_K2Zn3P4(HO3)4
_symmetry_space_group_name_H-M   'P 1'
_cell_length_a   13.85102700
_cell_length_b   8.75424200
_cell_length_c   12.55645281
_cell_angle_alpha   89.24649933
_cell_angle_beta   90.00000000
_cell_angle_gamma   90.00000000
_symmetry_Int_Tables_number   1
_chemical_formula_structural   K2Zn3P4(HO3)4
_chemical_formula_sum   'K8 Zn12 P16 H16 O48'
_cell_volume   1522.40406783
_cell_formula_units_Z   4
loop_
 _symmetry_equiv_pos_site_id
 _symmetry_equiv_pos_as_xyz
  1  'x, y, z'
loop_
 _atom_site_type_symbol
 _atom_site_label
 _atom_site_symmetry_multiplicity
 _atom_site_fract_x
 _atom_site_fract_y
 _atom_site_fract_z
 _atom_site_occupancy
  K  K0  1  0.94610100  0.76109600  0.01885500  1
  K  K1  1  0.44610100  0.73890400  0.98114500  1
  K  K2  1  0.05389900  0.23890400  0.98114500  1
  K  K3  1  0.55389900  0.26109600  0.01885500  1
  K  K4  1  0.94561400  0.74342400  0.47401800  1
  K  K5  1  0.44561400  0.75657600  0.52598200  1
  K  K6  1  0.05438600  0.25657600  0.52598200  1
  K  K7  1  0.55438600  0.24342400  0.47401800  1
  Zn  Zn0  1  0.93674000  0.94324400  0.75017100  1
  Zn  Zn1  1  0.43674000  0.55675600  0.24982900  1
  Zn  Zn2  1  0.06326000  0.05675600  0.24982900  1
  Zn  Zn3  1  0.56326000  0.44324400  0.75017100  1
  Zn  Zn4  1  0.17579700  0.61773300  0.57582900  1
  Zn  Zn5  1  0.67579700  0.88226700  0.42417100  1
  Zn  Zn6  1  0.82420300  0.38226700  0.42417100  1
  Zn  Zn7  1  0.32420300  0.11773300  0.57582900  1
  Zn  Zn8  1  0.68500200  0.91263200  0.07166200  1
  Zn  Zn9  1  0.18500200  0.58736800  0.92833800  1
  Zn  Zn10  1  0.31499800  0.08736800  0.92833800  1
  Zn  Zn11  1  0.81499800  0.41263200  0.07166200  1
  P  P0  1  0.79881400  0.09579100  0.57671000  1
  P  P1  1  0.29881400  0.40420900  0.42329000  1
  P  P2  1  0.20118600  0.90420900  0.42329000  1
  P  P3  1  0.70118600  0.59579100  0.57671000  1
  P  P4  1  0.01038300  0.56887000  0.75645500  1
  P  P5  1  0.51038300  0.93113000  0.24354500  1
  P  P6  1  0.98961700  0.43113000  0.24354500  1
  P  P7  1  0.48961700  0.06887000  0.75645500  1
  P  P8  1  0.80287000  0.12844700  0.91873500  1
  P  P9  1  0.30287000  0.37155300  0.08126500  1
  P  P10  1  0.19713000  0.87155300  0.08126500  1
  P  P11  1  0.69713000  0.62844700  0.91873500  1
  P  P12  1  0.15644600  0.06975100  0.74402100  1
  P  P13  1  0.65644600  0.43024900  0.25597900  1
  P  P14  1  0.84355400  0.93024900  0.25597900  1
  P  P15  1  0.34355400  0.56975100  0.74402100  1
  H  H0  1  0.77221800  0.19031500  0.66214900  1
  H  H1  1  0.27221800  0.30968500  0.33785100  1
  H  H2  1  0.22778200  0.80968500  0.33785100  1
  H  H3  1  0.72778200  0.69031500  0.66214900  1
  H  H4  1  0.92844300  0.47305300  0.75940800  1
  H  H5  1  0.42844300  0.02694700  0.24059200  1
  H  H6  1  0.07155700  0.52694700  0.24059200  1
  H  H7  1  0.57155700  0.97305300  0.75940800  1
  H  H8  1  0.78146800  0.21946600  0.82846800  1
  H  H9  1  0.28146800  0.28053400  0.17153200  1
  H  H10  1  0.21853200  0.78053400  0.17153200  1
  H  H11  1  0.71853200  0.71946600  0.82846800  1
  H  H12  1  0.18049600  0.91429100  0.73184200  1
  H  H13  1  0.68049600  0.58570900  0.26815800  1
  H  H14  1  0.81950400  0.08570900  0.26815800  1
  H  H15  1  0.31950400  0.41429100  0.73184200  1
  O  O0  1  0.04596500  0.08691400  0.73716000  1
  O  O1  1  0.54596500  0.41308600  0.26284000  1
  O  O2  1  0.95403500  0.91308600  0.26284000  1
  O  O3  1  0.45403500  0.58691400  0.73716000  1
  O  O4  1  0.86791300  0.99590500  0.88251300  1
  O  O5  1  0.36791300  0.50409500  0.11748700  1
  O  O6  1  0.13208700  0.00409500  0.11748700  1
  O  O7  1  0.63208700  0.49590500  0.88251300  1
  O  O8  1  0.85752600  0.95902200  0.62101500  1
  O  O9  1  0.35752600  0.54097800  0.37898500  1
  O  O10  1  0.14247400  0.04097800  0.37898500  1
  O  O11  1  0.64247400  0.45902200  0.62101500  1
  O  O12  1  0.97609800  0.73203700  0.77729000  1
  O  O13  1  0.47609800  0.76796300  0.22271000  1
  O  O14  1  0.02390200  0.26796300  0.22271000  1
  O  O15  1  0.52390200  0.23203700  0.77729000  1
  O  O16  1  0.05394100  0.54811500  0.64349700  1
  O  O17  1  0.55394100  0.95188500  0.35650300  1
  O  O18  1  0.94605900  0.45188500  0.35650300  1
  O  O19  1  0.44605900  0.04811500  0.64349700  1
  O  O20  1  0.70215400  0.04651800  0.52749400  1
  O  O21  1  0.20215400  0.45348200  0.47250600  1
  O  O22  1  0.29784600  0.95348200  0.47250600  1
  O  O23  1  0.79784600  0.54651800  0.52749400  1
  O  O24  1  0.86259000  0.19360700  0.50099900  1
  O  O25  1  0.36259000  0.30639300  0.49900100  1
  O  O26  1  0.13741000  0.80639300  0.49900100  1
  O  O27  1  0.63741000  0.69360700  0.50099900  1
  O  O28  1  0.20422900  0.15922700  0.65110900  1
  O  O29  1  0.70422900  0.34077300  0.34889100  1
  O  O30  1  0.79577100  0.84077300  0.34889100  1
  O  O31  1  0.29577100  0.65922700  0.65110900  1
  O  O32  1  0.19358400  0.12023400  0.85336600  1
  O  O33  1  0.69358400  0.37976600  0.14663400  1
  O  O34  1  0.80641600  0.87976600  0.14663400  1
  O  O35  1  0.30641600  0.62023400  0.85336600  1
  O  O36  1  0.07503300  0.50667500  0.84729400  1
  O  O37  1  0.57503300  0.99332500  0.15270600  1
  O  O38  1  0.92496700  0.49332500  0.15270600  1
  O  O39  1  0.42496700  0.00667500  0.84729400  1
  O  O40  1  0.85932000  0.23084800  0.99613300  1
  O  O41  1  0.35932000  0.26915200  0.00386700  1
  O  O42  1  0.14068000  0.76915200  0.00386700  1
  O  O43  1  0.64068000  0.73084800  0.99613300  1
  O  O44  1  0.70437900  0.07484000  0.96177400  1
  O  O45  1  0.20437900  0.42516000  0.03822600  1
  O  O46  1  0.29562100  0.92516000  0.03822600  1
  O  O47  1  0.79562100  0.57484000  0.96177400  1
loop_
_geom_bond_atom_site_label_1
_geom_bond_atom_site_label_2
_geom_bond_distance
_geom_bond_site_symmetry_2
K0 O42 2.702537 1_655
K0 O34 2.727769 1_555
K0 O47 2.747252 1_554
K0 O4 2.869936 1_554
K0 O38 2.881277 1_555
K0 O12 3.075376 1_554
K1 O43 2.702537 1_555
K1 O35 2.727769 1_555
K1 O46 2.747252 1_556
K1 O5 2.869936 1_556
K1 O39 2.881277 1_565
K1 O13 3.075376 1_556
K2 O40 2.702537 1_455
K2 O32 2.727769 1_555
K2 O45 2.747252 1_556
K2 O6 2.869936 1_556
K2 O36 2.881277 1_555
K2 O14 3.075376 1_556
K3 O41 2.702537 1_555
K3 O33 2.727769 1_555
K3 O44 2.747252 1_554
K3 O7 2.869936 1_554
K3 O37 2.881277 1_545
K3 O15 3.075376 1_554
K4 O26 2.732069 1_655
K4 O30 2.732616 1_555
K4 O23 2.753348 1_555
K4 O8 2.923935 1_555
K4 O18 2.964817 1_555
K4 O2 3.024443 1_555
K4 O16 3.099612 1_655
K5 O27 2.732069 1_555
K5 O31 2.732616 1_555
K5 O22 2.753348 1_555
K5 O9 2.923935 1_555
K5 O19 2.964817 1_565
K5 O3 3.024443 1_555
K5 O17 3.099612 1_555
K6 O24 2.732069 1_455
K6 O28 2.732616 1_555
K6 O21 2.753348 1_555
K6 O10 2.923935 1_555
K6 O16 2.964817 1_555
K6 O0 3.024443 1_555
K6 O18 3.099612 1_455
K7 O25 2.732069 1_555
K7 O29 2.732616 1_555
K7 O20 2.753348 1_555
K7 O11 2.923935 1_555
K7 O17 2.964817 1_545
K7 O1 3.024443 1_555
K7 O19 3.099612 1_555
H0 P0 1.412342 1_555
H1 P1 1.412342 1_555
H2 P2 1.412342 1_555
H3 P3 1.412342 1_555
H4 P4 1.411478 1_655
H5 P5 1.411478 1_545
H6 P6 1.411478 1_455
H7 P7 1.411478 1_565
H8 P8 1.408435 1_555
H9 P9 1.408435 1_555
H10 P10 1.408435 1_555
H11 P11 1.408435 1_555
H12 P12 1.411372 1_565
H13 P13 1.411372 1_555
H14 P14 1.411372 1_545
H15 P15 1.411372 1_555
O0 P12 1.539935 1_555
O0 Zn0 1.972803 1_445
O1 P13 1.539935 1_555
O1 Zn1 1.972803 1_555
O2 P14 1.539935 1_555
O2 Zn2 1.972803 1_665
O3 P15 1.539935 1_555
O3 Zn3 1.972803 1_555
O4 P8 1.542301 1_565
O4 Zn0 1.975577 1_555
O5 P9 1.542301 1_555
O5 Zn1 1.975577 1_555
O6 P10 1.542301 1_545
O6 Zn2 1.975577 1_555
O7 P11 1.542301 1_555
O7 Zn3 1.975577 1_555
O8 P0 1.544941 1_565
O8 Zn0 1.961395 1_555
O9 P1 1.544941 1_555
O9 Zn1 1.961395 1_555
O10 P2 1.544941 1_545
O10 Zn2 1.961395 1_555
O11 P3 1.544941 1_555
O11 Zn3 1.961395 1_555
O12 P4 1.531052 1_655
O12 Zn0 1.953260 1_555
O13 P5 1.531052 1_555
O13 Zn1 1.953260 1_555
O14 P6 1.531052 1_455
O14 Zn2 1.953260 1_555
O15 P7 1.531052 1_555
O15 Zn3 1.953260 1_555
O16 P4 1.554192 1_555
O16 Zn4 1.982051 1_555
O17 P5 1.554192 1_555
O17 Zn5 1.982051 1_555
O18 P6 1.554192 1_555
O18 Zn6 1.982051 1_555
O19 P7 1.554192 1_555
O19 Zn7 1.982051 1_555
O20 P0 1.538656 1_555
O20 Zn5 1.983191 1_545
O21 P1 1.538656 1_555
O21 Zn4 1.983191 1_555
O22 P2 1.538656 1_555
O22 Zn7 1.983191 1_565
O23 P3 1.538656 1_555
O23 Zn6 1.983191 1_555
O24 P0 1.547881 1_555
O24 Zn6 1.974619 1_555
O25 P1 1.547881 1_555
O25 Zn7 1.974619 1_555
O26 P2 1.547881 1_555
O26 Zn4 1.974619 1_555
O27 P3 1.547881 1_555
O27 Zn5 1.974619 1_555
O28 P12 1.545514 1_555
O28 Zn7 1.948316 1_555
O29 P13 1.545514 1_555
O29 Zn6 1.948316 1_555
O30 P14 1.545514 1_555
O30 Zn5 1.948316 1_555
O31 P15 1.545514 1_555
O31 Zn4 1.948316 1_555
O32 P12 1.536543 1_555
O32 Zn10 1.946793 1_555
O33 P13 1.536543 1_555
O33 Zn11 1.946793 1_555
O34 P14 1.536543 1_555
O34 Zn8 1.946793 1_555
O35 P15 1.536543 1_555
O35 Zn9 1.946793 1_555
O36 P4 1.543691 1_555
O36 Zn9 1.968138 1_555
O37 P5 1.543691 1_555
O37 Zn8 1.968138 1_555
O38 P6 1.543691 1_555
O38 Zn11 1.968138 1_555
O39 P7 1.543691 1_555
O39 Zn10 1.968138 1_555
O40 P8 1.543489 1_555
O40 Zn11 1.961756 1_556
O41 P9 1.543489 1_555
O41 Zn10 1.961756 1_554
O42 P10 1.543489 1_555
O42 Zn9 1.961756 1_554
O43 P11 1.543489 1_555
O43 Zn8 1.961756 1_556
O44 P8 1.538395 1_555
O44 Zn8 1.985140 1_546
O45 P9 1.538395 1_555
O45 Zn9 1.985140 1_554
O46 P10 1.538395 1_555
O46 Zn10 1.985140 1_564
O47 P11 1.538395 1_555
O47 Zn11 1.985140 1_556
