# generated using pymatgen
data_Zr2N2O
_symmetry_space_group_name_H-M   'P 1'
_cell_length_a   8.76778328
_cell_length_b   8.79196961
_cell_length_c   8.79204823
_cell_angle_alpha   109.46916056
_cell_angle_beta   109.44976040
_cell_angle_gamma   109.33418573
_symmetry_Int_Tables_number   1
_chemical_formula_structural   Zr2N2O
_chemical_formula_sum   'Zr16 N16 O8'
_cell_volume   522.75860818
_cell_formula_units_Z   8
loop_
 _symmetry_equiv_pos_site_id
 _symmetry_equiv_pos_as_xyz
  1  'x, y, z'
loop_
 _atom_site_type_symbol
 _atom_site_label
 _atom_site_symmetry_multiplicity
 _atom_site_fract_x
 _atom_site_fract_y
 _atom_site_fract_z
 _atom_site_occupancy
  Zr  Zr0  1  0.01025879  0.00881865  0.51574025  1
  Zr  Zr1  1  0.24156786  0.02667779  0.27970607  1
  Zr  Zr2  1  0.03512914  0.28518553  0.25024188  1
  Zr  Zr3  1  0.46237757  0.21824597  0.75588648  1
  Zr  Zr4  1  0.78097670  0.74024375  0.02938719  1
  Zr  Zr5  1  0.28720586  0.74760064  0.53062922  1
  Zr  Zr6  1  0.48876486  0.49690701  0.48749359  1
  Zr  Zr7  1  0.50949905  0.00574447  0.00793796  1
  Zr  Zr8  1  0.74039500  0.45465363  0.21193702  1
  Zr  Zr9  1  0.00085538  0.49783475  0.98995637  1
  Zr  Zr10  1  0.25523574  0.53353089  0.78839554  1
  Zr  Zr11  1  0.72777457  0.26106272  0.47291463  1
  Zr  Zr12  1  0.21333667  0.25193610  0.97006358  1
  Zr  Zr13  1  0.96410153  0.71534998  0.74812924  1
  Zr  Zr14  1  0.53623636  0.78492025  0.24936990  1
  Zr  Zr15  1  0.75843352  0.97149399  0.71155972  1
  N  N0  1  0.04519505  0.77637143  0.03297216  1
  N  N1  1  0.22751698  0.95326163  0.48604188  1
  N  N2  1  0.46687274  0.23416319  0.01015485  1
  N  N3  1  0.72419914  0.46864136  0.95352933  1
  N  N4  1  0.25831796  0.49068711  0.53143541  1
  N  N5  1  0.73745929  0.51553284  0.46559517  1
  N  N6  1  0.24063183  0.27263324  0.72647116  1
  N  N7  1  0.77139898  0.22504694  0.23841060  1
  N  N8  1  0.27368795  0.53560140  0.05004410  1
  N  N9  1  0.00826758  0.96406835  0.73584390  1
  N  N10  1  0.53703625  0.76612537  0.99126737  1
  N  N11  1  0.97053365  0.45877286  0.72799942  1
  N  N12  1  0.27162185  0.25682642  0.23095688  1
  N  N13  1  0.77126588  0.04369807  0.50868574  1
  N  N14  1  0.48886000  0.72897779  0.45843693  1
  N  N15  1  0.94752752  0.22720106  0.96591834  1
  O  O0  1  0.51609228  0.27022640  0.54454988  1
  O  O1  1  0.72639666  0.73485633  0.77218764  1
  O  O2  1  0.03262769  0.54447435  0.27330507  1
  O  O3  1  0.98620945  0.03212522  0.26149551  1
  O  O4  1  0.22987795  0.77761309  0.76366455  1
  O  O5  1  0.76314681  0.72995801  0.27098977  1
  O  O6  1  0.53961635  0.00360249  0.77405808  1
  O  O7  1  0.45349255  0.98933391  0.22664062  1
loop_
_geom_bond_atom_site_label_1
_geom_bond_atom_site_label_2
_geom_bond_distance
_geom_bond_site_symmetry_2
N0 Zr1 2.081997 1_565
N0 Zr13 2.175112 1_454
N0 Zr4 2.219465 1_455
N0 Zr9 2.223854 1_554
N1 Zr1 2.144660 1_565
N1 Zr5 2.158584 1_555
N1 Zr0 2.190348 1_565
N1 Zr3 2.276419 1_565
N2 Zr8 2.110060 1_555
N2 Zr7 2.156125 1_555
N2 Zr3 2.178968 1_554
N2 Zr12 2.198879 1_554
N3 Zr4 2.079645 1_556
N3 Zr3 2.140765 1_555
N3 Zr9 2.251195 1_655
N3 Zr8 2.275946 1_556
N4 Zr2 2.159932 1_555
N4 Zr6 2.166904 1_555
N4 Zr10 2.174110 1_555
N4 Zr5 2.190734 1_555
N5 Zr8 2.124257 1_555
N5 Zr13 2.167416 1_555
N5 Zr6 2.209665 1_555
N5 Zr11 2.233977 1_555
N6 Zr0 2.105555 1_555
N6 Zr3 2.106818 1_555
N6 Zr10 2.121548 1_555
N6 Zr12 2.291167 1_555
N7 Zr7 2.112277 1_555
N7 Zr2 2.151939 1_655
N7 Zr11 2.160473 1_555
N7 Zr8 2.199463 1_555
N8 Zr14 2.141647 1_555
N8 Zr9 2.151088 1_554
N8 Zr12 2.168806 1_554
N8 Zr10 2.245162 1_554
N9 Zr0 2.103672 1_565
N9 Zr13 2.137284 1_455
N9 Zr15 2.154210 1_455
N9 Zr12 2.219413 1_565
N10 Zr4 2.152758 1_556
N10 Zr7 2.161620 1_566
N10 Zr10 2.180839 1_555
N10 Zr14 2.222218 1_556
N11 Zr11 2.086660 1_555
N11 Zr9 2.120751 1_655
N11 Zr10 2.177900 1_655
N11 Zr13 2.224404 1_555
N12 Zr6 2.114958 1_555
N12 Zr1 2.155876 1_555
N12 Zr12 2.159521 1_554
N12 Zr2 2.222312 1_555
N13 Zr15 2.106729 1_545
N13 Zr11 2.167901 1_555
N13 Zr0 2.200083 1_655
N13 Zr14 2.220315 1_545
N14 Zr5 2.103681 1_555
N14 Zr6 2.138880 1_555
N14 Zr14 2.183809 1_555
N14 Zr15 2.254404 1_555
N15 Zr15 2.124977 1_545
N15 Zr2 2.170559 1_656
N15 Zr9 2.187957 1_655
N15 Zr12 2.254478 1_655
O0 Zr11 2.165986 1_555
O0 Zr3 2.211205 1_555
O0 Zr6 2.276743 1_555
O0 Zr1 2.309042 1_555
O1 Zr4 2.130189 1_556
O1 Zr13 2.218984 1_555
O1 Zr6 2.265611 1_555
O1 Zr15 2.267945 1_555
O2 Zr5 2.143411 1_555
O2 Zr8 2.221551 1_455
O2 Zr2 2.228537 1_555
O2 Zr9 2.287607 1_554
O3 Zr2 2.164959 1_655
O3 Zr1 2.208645 1_655
O3 Zr4 2.234694 1_545
O3 Zr0 2.259028 1_655
O4 Zr13 2.154532 1_455
O4 Zr5 2.221117 1_555
O4 Zr7 2.238751 1_566
O4 Zr10 2.301443 1_555
O5 Zr14 2.161879 1_555
O5 Zr4 2.210113 1_555
O5 Zr8 2.222975 1_555
O5 Zr0 2.279623 1_665
O6 Zr7 2.153479 1_556
O6 Zr5 2.209196 1_545
O6 Zr15 2.240473 1_545
O6 Zr3 2.240668 1_555
O7 Zr1 2.158059 1_565
O7 Zr7 2.173963 1_565
O7 Zr14 2.191432 1_555
O7 Zr11 2.336426 1_565
