# generated using pymatgen
data_Mn3Fe5O12
_symmetry_space_group_name_H-M   'P 1'
_cell_length_a   8.24588700
_cell_length_b   8.33134484
_cell_length_c   8.26383638
_cell_angle_alpha   109.72185033
_cell_angle_beta   109.40086558
_cell_angle_gamma   108.81272363
_symmetry_Int_Tables_number   1
_chemical_formula_structural   Mn3Fe5O12
_chemical_formula_sum   'Mn6 Fe10 O24'
_cell_volume   439.57009285
_cell_formula_units_Z   2
loop_
 _symmetry_equiv_pos_site_id
 _symmetry_equiv_pos_as_xyz
  1  'x, y, z'
loop_
 _atom_site_type_symbol
 _atom_site_label
 _atom_site_symmetry_multiplicity
 _atom_site_fract_x
 _atom_site_fract_y
 _atom_site_fract_z
 _atom_site_occupancy
  Mn  Mn0  1  0.78302100  0.24960000  0.03566700  1
  Mn  Mn1  1  0.00016200  0.00356900  0.00381700  1
  Mn  Mn2  1  0.50155800  0.50161900  0.00334900  1
  Mn  Mn3  1  0.52778400  0.28125900  0.25268900  1
  Mn  Mn4  1  0.50200900  0.99839700  0.49956000  1
  Mn  Mn5  1  0.96909900  0.22142200  0.75154300  1
  Fe  Fe0  1  0.74769100  0.95702700  0.20990800  1
  Fe  Fe1  1  0.75202300  0.46563900  0.71369200  1
  Fe  Fe2  1  0.28837500  0.24990300  0.53809000  1
  Fe  Fe3  1  0.71290400  0.75067300  0.46305400  1
  Fe  Fe4  1  0.25109800  0.54182200  0.28980500  1
  Fe  Fe5  1  0.24912500  0.03710500  0.78752200  1
  Fe  Fe6  1  0.99839700  0.49701600  0.49452200  1
  Fe  Fe7  1  0.04230600  0.79025400  0.25114100  1
  Fe  Fe8  1  0.46073600  0.70875400  0.74820900  1
  Fe  Fe9  1  0.21055300  0.74923000  0.95892700  1
  O  O0  1  0.78513000  0.22371800  0.26687800  1
  O  O1  1  0.53697100  0.25764700  0.99702000  1
  O  O2  1  0.27075000  0.04596200  0.05172400  1
  O  O3  1  0.78298300  0.73487800  0.22661400  1
  O  O4  1  0.00939200  0.45975800  0.73639600  1
  O  O5  1  0.49524800  0.23056500  0.45653300  1
  O  O6  1  0.74446600  0.24640700  0.78767300  1
  O  O7  1  0.05146500  0.04810300  0.26945800  1
  O  O8  1  0.76388800  0.52960700  0.49576100  1
  O  O9  1  0.04314500  0.26454000  0.06592700  1
  O  O10  1  0.44101800  0.49741100  0.20752300  1
  O  O11  1  0.27972400  0.00016300  0.54562400  1
  O  O12  1  0.54715700  0.49702300  0.78201500  1
  O  O13  1  0.95189900  0.73655100  0.94640500  1
  O  O14  1  0.71381100  0.00369500  0.44715500  1
  O  O15  1  0.26168000  0.75754300  0.21199400  1
  O  O16  1  0.23212700  0.45321400  0.50143100  1
  O  O17  1  0.96247200  0.96912700  0.74428800  1
  O  O18  1  0.48998700  0.77266300  0.54752600  1
  O  O19  1  0.21613100  0.26159900  0.75516200  1
  O  O20  1  0.00702500  0.55744800  0.28227100  1
  O  O21  1  0.73361100  0.93498300  0.94546000  1
  O  O22  1  0.45920400  0.74014800  0.00269000  1
  O  O23  1  0.22387600  0.77395100  0.72497400  1
loop_
_geom_bond_atom_site_label_1
_geom_bond_atom_site_label_2
_geom_bond_distance
_geom_bond_site_symmetry_2
Mn0 O6 1.956182 1_554
Mn0 O1 1.973481 1_554
Mn0 O0 1.988956 1_555
Mn0 O9 2.032070 1_655
Mn0 O20 2.249265 1_655
Mn0 O21 2.320128 1_544
Mn1 O21 1.920904 1_444
Mn1 O9 1.935287 1_555
Mn1 O17 1.965451 1_444
Mn1 O7 1.966646 1_555
Mn1 O13 1.980817 1_444
Mn1 O2 2.017530 1_555
Mn2 O10 1.919764 1_555
Mn2 O12 1.976677 1_554
Mn2 O3 2.095947 1_555
Mn2 O22 2.127181 1_555
Mn2 O1 2.130900 1_554
Mn2 O19 2.175843 1_554
Mn3 O5 1.948165 1_555
Mn3 O2 1.969205 1_555
Mn3 O8 2.026126 1_555
Mn3 O1 2.084184 1_554
Mn3 O10 2.236385 1_555
Mn3 O0 2.296821 1_555
Mn4 O14 1.924942 1_565
Mn4 O11 1.995479 1_565
Mn4 O18 2.028015 1_555
Mn4 O5 2.095591 1_565
Mn4 O15 2.165493 1_555
Mn4 O6 2.188225 1_565
Mn5 O19 1.943017 1_655
Mn5 O4 1.959281 1_655
Mn5 O6 2.034117 1_555
Mn5 O17 2.064823 1_545
Mn5 O14 2.233605 1_555
Mn5 O9 2.329453 1_656
Fe0 O14 1.998129 1_565
Fe0 O0 2.002205 1_565
Fe0 O3 2.005578 1_555
Fe0 O22 2.071073 1_555
Fe0 O21 2.090405 1_554
Fe0 O7 2.189884 1_665
Fe1 O12 2.014892 1_555
Fe1 O13 2.018579 1_555
Fe1 O8 2.065964 1_555
Fe1 O4 2.085719 1_655
Fe1 O5 2.088577 1_555
Fe1 O6 2.102211 1_555
Fe2 O16 1.983863 1_555
Fe2 O7 2.013132 1_555
Fe2 O19 2.052235 1_555
Fe2 O5 2.063468 1_555
Fe2 O11 2.081539 1_555
Fe2 O12 2.088899 1_555
Fe3 O8 2.098049 1_555
Fe3 O17 2.121548 1_555
Fe3 O14 2.153706 1_565
Fe3 O10 2.175842 1_555
Fe3 O3 2.189657 1_555
Fe3 O18 2.209747 1_555
Fe4 O10 1.990767 1_555
Fe4 O18 2.029782 1_555
Fe4 O9 2.037874 1_555
Fe4 O20 2.040242 1_555
Fe4 O15 2.089803 1_555
Fe4 O16 2.146275 1_555
Fe5 O23 1.996630 1_545
Fe5 O11 2.030849 1_555
Fe5 O19 2.064245 1_555
Fe5 O1 2.077843 1_555
Fe5 O2 2.104345 1_556
Fe5 O17 2.115306 1_445
Fe6 O20 1.997727 1_655
Fe6 O0 2.035868 1_555
Fe6 O8 2.040362 1_555
Fe6 O16 2.060470 1_655
Fe6 O23 2.079059 1_655
Fe6 O4 2.101501 1_655
Fe7 O3 1.959373 1_455
Fe7 O20 1.983775 1_555
Fe7 O15 2.024448 1_555
Fe7 O7 2.076489 1_565
Fe7 O11 2.137218 1_565
Fe7 O13 2.207925 1_454
Fe8 O18 1.967455 1_555
Fe8 O21 2.006741 1_555
Fe8 O22 2.034621 1_556
Fe8 O16 2.042642 1_555
Fe8 O23 2.156864 1_555
Fe8 O12 2.169945 1_555
Fe9 O15 1.963101 1_556
Fe9 O22 1.991569 1_556
Fe9 O23 2.046359 1_555
Fe9 O13 2.066768 1_455
Fe9 O4 2.085588 1_555
Fe9 O2 2.149952 1_566
