# generated using pymatgen
data_Li3Cr4O8
_symmetry_space_group_name_H-M   'P 1'
_cell_length_a   5.89264243
_cell_length_b   10.37644510
_cell_length_c   5.92048357
_cell_angle_alpha   106.57221962
_cell_angle_beta   59.84557763
_cell_angle_gamma   106.50032656
_symmetry_Int_Tables_number   1
_chemical_formula_structural   Li3Cr4O8
_chemical_formula_sum   'Li6 Cr8 O16'
_cell_volume   295.65709190
_cell_formula_units_Z   2
loop_
 _symmetry_equiv_pos_site_id
 _symmetry_equiv_pos_as_xyz
  1  'x, y, z'
loop_
 _atom_site_type_symbol
 _atom_site_label
 _atom_site_symmetry_multiplicity
 _atom_site_fract_x
 _atom_site_fract_y
 _atom_site_fract_z
 _atom_site_occupancy
  Li  Li0  1  0.00104500  0.99991600  0.49944000  1
  Li  Li1  1  0.49898700  0.50008500  0.00047800  1
  Li  Li2  1  0.49872700  0.00026000  0.50150200  1
  Li  Li3  1  0.00127200  0.49972300  0.99845400  1
  Li  Li4  1  0.49876600  0.00028500  0.99999500  1
  Li  Li5  1  0.00119900  0.49971200  0.49999600  1
  Cr  Cr0  1  0.74997800  0.25000600  0.75003400  1
  Cr  Cr1  1  0.25000700  0.75000300  0.24999800  1
  Cr  Cr2  1  0.74999600  0.75003300  0.25002700  1
  Cr  Cr3  1  0.75000200  0.74997700  0.75000300  1
  Cr  Cr4  1  0.75009500  0.25001100  0.24992500  1
  Cr  Cr5  1  0.24995900  0.25000200  0.74996600  1
  Cr  Cr6  1  0.24993800  0.25000500  0.24999100  1
  Cr  Cr7  1  0.25002300  0.75001800  0.74997700  1
  O  O0  1  0.12081400  0.36217500  0.12066700  1
  O  O1  1  0.62211800  0.86218600  0.61999100  1
  O  O2  1  0.37918200  0.13783000  0.37935900  1
  O  O3  1  0.87781800  0.63781100  0.88002900  1
  O  O4  1  0.62666000  0.35755500  0.10389900  1
  O  O5  1  0.12711700  0.85815400  0.60569900  1
  O  O6  1  0.62660100  0.35754300  0.62697000  1
  O  O7  1  0.12711100  0.85807900  0.12545300  1
  O  O8  1  0.10705400  0.35717900  0.62504100  1
  O  O9  1  0.60358500  0.85677400  0.12664700  1
  O  O10  1  0.39303100  0.14280000  0.87489900  1
  O  O11  1  0.89633400  0.64322300  0.37350500  1
  O  O12  1  0.87343400  0.14241900  0.87302700  1
  O  O13  1  0.37276000  0.64189600  0.37465100  1
  O  O14  1  0.87350100  0.14243100  0.39592300  1
  O  O15  1  0.37288300  0.64191200  0.89445400  1
loop_
_geom_bond_atom_site_label_1
_geom_bond_atom_site_label_2
_geom_bond_distance
_geom_bond_site_symmetry_2
Li0 O2 2.166996 1_565
Li0 O1 2.169264 1_455
Li0 O5 2.174776 1_555
Li0 O7 2.174888 1_555
Li0 O14 2.176791 1_465
Li0 O12 2.176930 1_465
Li1 O0 2.167121 1_555
Li1 O3 2.168863 1_554
Li1 O15 2.174573 1_554
Li1 O13 2.175499 1_555
Li1 O6 2.176825 1_554
Li1 O4 2.177072 1_555
Li2 O5 2.162759 1_545
Li2 O2 2.174568 1_555
Li2 O14 2.175461 1_555
Li2 O10 2.176567 1_555
Li2 O1 2.179679 1_545
Li2 O9 2.187210 1_545
Li3 O15 2.163206 1_555
Li3 O0 2.174646 1_556
Li3 O4 2.174822 1_456
Li3 O8 2.176635 1_555
Li3 O3 2.179799 1_455
Li3 O11 2.188050 1_456
Li4 O7 2.163465 1_546
Li4 O12 2.174857 1_555
Li4 O2 2.175025 1_556
Li4 O10 2.176085 1_555
Li4 O1 2.180146 1_545
Li4 O9 2.187701 1_546
Li5 O13 2.162976 1_555
Li5 O6 2.174768 1_455
Li5 O0 2.174844 1_555
Li5 O8 2.176500 1_555
Li5 O3 2.180263 1_455
Li5 O11 2.187230 1_455
Cr0 O4 1.939101 1_556
Cr0 O6 1.939409 1_555
Cr0 O12 1.939850 1_555
Cr0 O14 1.940257 1_555
Cr0 O10 1.945745 1_555
Cr0 O8 1.946171 1_655
Cr1 O9 1.929621 1_555
Cr1 O11 1.930063 1_455
Cr1 O7 1.948153 1_555
Cr1 O13 1.948263 1_555
Cr1 O15 1.948461 1_554
Cr1 O5 1.949370 1_555
Cr2 O1 2.026241 1_555
Cr2 O3 2.026657 1_554
Cr2 O9 2.035230 1_555
Cr2 O11 2.035875 1_555
Cr2 O7 2.036901 1_655
Cr2 O13 2.037754 1_555
Cr3 O3 2.026347 1_555
Cr3 O1 2.026929 1_555
Cr3 O11 2.035254 1_555
Cr3 O9 2.036054 1_556
Cr3 O15 2.036982 1_555
Cr3 O5 2.037359 1_655
Cr4 O0 2.024012 1_655
Cr4 O2 2.024909 1_555
Cr4 O12 2.040667 1_554
Cr4 O4 2.040822 1_555
Cr4 O14 2.040860 1_555
Cr4 O6 2.041084 1_555
Cr5 O2 2.029041 1_555
Cr5 O0 2.029453 1_556
Cr5 O8 2.029744 1_555
Cr5 O10 2.030720 1_555
Cr5 O12 2.032912 1_455
Cr5 O6 2.033297 1_555
Cr6 O0 2.028947 1_555
Cr6 O2 2.029692 1_555
Cr6 O8 2.030052 1_555
Cr6 O10 2.030373 1_554
Cr6 O14 2.032514 1_455
Cr6 O4 2.033669 1_555
Cr7 O1 2.029918 1_555
Cr7 O3 2.030541 1_455
Cr7 O5 2.035463 1_555
Cr7 O13 2.035613 1_555
Cr7 O15 2.035917 1_555
Cr7 O7 2.036031 1_556
