# generated using pymatgen
data_Na6Sn2B4SO16
_symmetry_space_group_name_H-M   'P 1'
_cell_length_a   10.03717570
_cell_length_b   10.03717570
_cell_length_c   10.03717570
_cell_angle_alpha   60.00000000
_cell_angle_beta   60.00000000
_cell_angle_gamma   60.00000000
_symmetry_Int_Tables_number   1
_chemical_formula_structural   Na6Sn2B4SO16
_chemical_formula_sum   'Na12 Sn4 B8 S2 O32'
_cell_volume   715.02229129
_cell_formula_units_Z   2
loop_
 _symmetry_equiv_pos_site_id
 _symmetry_equiv_pos_as_xyz
  1  'x, y, z'
loop_
 _atom_site_type_symbol
 _atom_site_label
 _atom_site_symmetry_multiplicity
 _atom_site_fract_x
 _atom_site_fract_y
 _atom_site_fract_z
 _atom_site_occupancy
  Na  Na0  1  0.28649500  0.71350500  0.71350500  1
  Na  Na1  1  0.96350500  0.96350500  0.53649500  1
  Na  Na2  1  0.71350500  0.28649500  0.71350500  1
  Na  Na3  1  0.28649500  0.71350500  0.28649500  1
  Na  Na4  1  0.53649500  0.53649500  0.96350500  1
  Na  Na5  1  0.53649500  0.96350500  0.96350500  1
  Na  Na6  1  0.71350500  0.28649500  0.28649500  1
  Na  Na7  1  0.71350500  0.71350500  0.28649500  1
  Na  Na8  1  0.96350500  0.53649500  0.96350500  1
  Na  Na9  1  0.53649500  0.96350500  0.53649500  1
  Na  Na10  1  0.28649500  0.28649500  0.71350500  1
  Na  Na11  1  0.96350500  0.53649500  0.53649500  1
  Sn  Sn0  1  0.62500000  0.12500000  0.12500000  1
  Sn  Sn1  1  0.12500000  0.62500000  0.12500000  1
  Sn  Sn2  1  0.12500000  0.12500000  0.62500000  1
  Sn  Sn3  1  0.12500000  0.12500000  0.12500000  1
  B  B0  1  0.27284400  0.90905200  0.90905200  1
  B  B1  1  0.90905200  0.90905200  0.90905200  1
  B  B2  1  0.90905200  0.27284400  0.90905200  1
  B  B3  1  0.90905200  0.90905200  0.27284400  1
  B  B4  1  0.34094800  0.34094800  0.97715600  1
  B  B5  1  0.34094800  0.34094800  0.34094800  1
  B  B6  1  0.34094800  0.97715600  0.34094800  1
  B  B7  1  0.97715600  0.34094800  0.34094800  1
  S  S0  1  0.50000000  0.50000000  0.50000000  1
  S  S1  1  0.75000000  0.75000000  0.75000000  1
  O  O0  1  0.21751500  0.97322700  0.49070200  1
  O  O1  1  0.97322700  0.21751500  0.31855500  1
  O  O2  1  0.27677300  0.93144500  0.75929800  1
  O  O3  1  0.27677300  0.75929800  0.03248500  1
  O  O4  1  0.56082900  0.56082900  0.31751200  1
  O  O5  1  0.93144500  0.03248500  0.75929800  1
  O  O6  1  0.03248500  0.75929800  0.93144500  1
  O  O7  1  0.56082900  0.56082900  0.56082900  1
  O  O8  1  0.56082900  0.31751200  0.56082900  1
  O  O9  1  0.93144500  0.27677300  0.03248500  1
  O  O10  1  0.75929800  0.27677300  0.93144500  1
  O  O11  1  0.31751200  0.56082900  0.56082900  1
  O  O12  1  0.03248500  0.93144500  0.27677300  1
  O  O13  1  0.75929800  0.93144500  0.03248500  1
  O  O14  1  0.93144500  0.75929800  0.27677300  1
  O  O15  1  0.49070200  0.21751500  0.97322700  1
  O  O16  1  0.75929800  0.03248500  0.27677300  1
  O  O17  1  0.31855500  0.49070200  0.97322700  1
  O  O18  1  0.49070200  0.31855500  0.21751500  1
  O  O19  1  0.21751500  0.31855500  0.97322700  1
  O  O20  1  0.93248800  0.68917100  0.68917100  1
  O  O21  1  0.49070200  0.97322700  0.31855500  1
  O  O22  1  0.31855500  0.97322700  0.21751500  1
  O  O23  1  0.68917100  0.68917100  0.68917100  1
  O  O24  1  0.68917100  0.93248800  0.68917100  1
  O  O25  1  0.21751500  0.49070200  0.31855500  1
  O  O26  1  0.31855500  0.21751500  0.49070200  1
  O  O27  1  0.68917100  0.68917100  0.93248800  1
  O  O28  1  0.97322700  0.49070200  0.21751500  1
  O  O29  1  0.97322700  0.31855500  0.49070200  1
  O  O30  1  0.27677300  0.03248500  0.93144500  1
  O  O31  1  0.03248500  0.27677300  0.75929800  1
loop_
_geom_bond_atom_site_label_1
_geom_bond_atom_site_label_2
_geom_bond_distance
_geom_bond_site_symmetry_2
Na0 O6 2.398554 1_555
Na0 O2 2.398559 1_555
Na0 O7 2.487531 1_555
Na0 O11 2.487536 1_555
Na0 O17 2.487951 1_555
Na0 O0 2.487953 1_555
Na1 O0 2.398549 1_655
Na1 O1 2.398553 1_565
Na1 O20 2.487527 1_555
Na1 O24 2.487527 1_555
Na1 O12 2.487948 1_655
Na1 O5 2.487957 1_565
Na2 O5 2.398554 1_555
Na2 O10 2.398559 1_555
Na2 O7 2.487531 1_555
Na2 O8 2.487536 1_555
Na2 O29 2.487951 1_555
Na2 O15 2.487953 1_555
Na3 O3 2.398549 1_555
Na3 O12 2.398553 1_555
Na3 O11 2.487527 1_555
Na3 O4 2.487527 1_555
Na3 O22 2.487948 1_555
Na3 O25 2.487957 1_555
Na4 O18 2.398554 1_556
Na4 O17 2.398559 1_555
Na4 O23 2.487531 1_555
Na4 O27 2.487536 1_555
Na4 O10 2.487951 1_555
Na4 O3 2.487953 1_556
Na5 O15 2.398549 1_565
Na5 O22 2.398553 1_556
Na5 O24 2.487527 1_555
Na5 O27 2.487527 1_555
Na5 O30 2.487948 1_565
Na5 O13 2.487957 1_556
Na6 O16 2.398549 1_555
Na6 O9 2.398553 1_555
Na6 O8 2.487527 1_555
Na6 O4 2.487527 1_555
Na6 O1 2.487948 1_555
Na6 O18 2.487957 1_555
Na7 O13 2.398554 1_555
Na7 O14 2.398559 1_555
Na7 O7 2.487531 1_555
Na7 O4 2.487536 1_555
Na7 O21 2.487951 1_555
Na7 O28 2.487953 1_555
Na8 O28 2.398549 1_556
Na8 O19 2.398553 1_655
Na8 O20 2.487527 1_555
Na8 O27 2.487527 1_555
Na8 O9 2.487948 1_556
Na8 O6 2.487957 1_655
Na9 O26 2.398554 1_565
Na9 O21 2.398559 1_555
Na9 O23 2.487531 1_555
Na9 O24 2.487536 1_555
Na9 O2 2.487951 1_555
Na9 O16 2.487953 1_565
Na10 O31 2.398549 1_555
Na10 O30 2.398553 1_555
Na10 O11 2.487527 1_555
Na10 O8 2.487527 1_555
Na10 O19 2.487948 1_555
Na10 O26 2.487957 1_555
Na11 O25 2.398554 1_655
Na11 O29 2.398559 1_555
Na11 O23 2.487531 1_555
Na11 O20 2.487536 1_555
Na11 O14 2.487951 1_555
Na11 O31 2.487953 1_655
B0 O2 1.386777 1_555
B0 O3 1.386780 1_556
B0 O30 1.386787 1_565
B1 O6 1.386781 1_655
B1 O5 1.386781 1_565
B1 O13 1.386781 1_556
B2 O10 1.386777 1_555
B2 O31 1.386780 1_655
B2 O9 1.386787 1_556
B3 O14 1.386777 1_555
B3 O16 1.386780 1_565
B3 O12 1.386787 1_655
B4 O17 1.386777 1_555
B4 O15 1.386780 1_555
B4 O19 1.386787 1_555
B5 O18 1.386781 1_555
B5 O25 1.386781 1_555
B5 O26 1.386781 1_555
B6 O21 1.386777 1_555
B6 O0 1.386780 1_555
B6 O22 1.386787 1_555
B7 O29 1.386777 1_555
B7 O28 1.386780 1_555
B7 O1 1.386787 1_555
O0 Sn2 2.094549 1_565
O1 Sn3 2.094541 1_655
O2 Sn2 2.094547 1_565
O3 Sn1 2.094549 1_555
O4 S0 1.495547 1_555
O5 Sn2 2.094541 1_655
O6 Sn1 2.094541 1_556
O7 S0 1.495539 1_555
O8 S0 1.495547 1_555
O9 Sn3 2.094541 1_655
O10 Sn0 2.094547 1_556
O11 S0 1.495547 1_555
O12 Sn3 2.094541 1_565
O13 Sn0 2.094541 1_565
O14 Sn1 2.094547 1_655
O15 Sn0 2.094549 1_556
O16 Sn0 2.094549 1_555
O17 Sn1 2.094547 1_556
O18 Sn0 2.094541 1_555
O19 Sn3 2.094541 1_556
O20 S1 1.495547 1_555
O21 Sn0 2.094547 1_565
O22 Sn3 2.094541 1_565
O23 S1 1.495539 1_555
O24 S1 1.495547 1_555
O25 Sn1 2.094541 1_555
O26 Sn2 2.094541 1_555
O27 S1 1.495547 1_555
O28 Sn1 2.094549 1_655
O29 Sn2 2.094547 1_655
O30 Sn3 2.094541 1_556
O31 Sn2 2.094549 1_555
