# generated using pymatgen
data_Na4GeH28(Se2O7)2
_symmetry_space_group_name_H-M   'P 1'
_cell_length_a   8.58518948
_cell_length_b   8.58518948
_cell_length_c   8.21802535
_cell_angle_alpha   76.09692630
_cell_angle_beta   76.09692630
_cell_angle_gamma   82.53979538
_symmetry_Int_Tables_number   1
_chemical_formula_structural   Na4GeH28(Se2O7)2
_chemical_formula_sum   'Na4 Ge1 H28 Se4 O14'
_cell_volume   569.06947206
_cell_formula_units_Z   1
loop_
 _symmetry_equiv_pos_site_id
 _symmetry_equiv_pos_as_xyz
  1  'x, y, z'
loop_
 _atom_site_type_symbol
 _atom_site_label
 _atom_site_symmetry_multiplicity
 _atom_site_fract_x
 _atom_site_fract_y
 _atom_site_fract_z
 _atom_site_occupancy
  Na  Na0  1  0.86433200  0.42793200  0.40820300  1
  Na  Na1  1  0.57206800  0.13566800  0.59179700  1
  Na  Na2  1  0.58651700  0.74473200  0.68453900  1
  Na  Na3  1  0.25526800  0.41348300  0.31546100  1
  Ge  Ge0  1  0.99595800  0.00404200  0.00000000  1
  H  H0  1  0.37594500  0.45284300  0.91011700  1
  H  H1  1  0.54715700  0.62405500  0.08988300  1
  H  H2  1  0.28996600  0.61340600  0.81742000  1
  H  H3  1  0.38659400  0.71003400  0.18258000  1
  H  H4  1  0.80014600  0.49683800  0.91519200  1
  H  H5  1  0.50316200  0.19985400  0.08480800  1
  H  H6  1  0.81906100  0.67916800  0.88923600  1
  H  H7  1  0.32083200  0.18093900  0.11076400  1
  H  H8  1  0.38595900  0.94384700  0.94191700  1
  H  H9  1  0.05615300  0.61404100  0.05808300  1
  H  H10  1  0.56800500  0.95578600  0.93392600  1
  H  H11  1  0.04421400  0.43199500  0.06607400  1
  H  H12  1  0.84380400  0.94232200  0.43078100  1
  H  H13  1  0.05767800  0.15619600  0.56921900  1
  H  H14  1  0.88395100  0.91092600  0.61482200  1
  H  H15  1  0.08907400  0.11604900  0.38517800  1
  H  H16  1  0.64013700  0.39486300  0.74322700  1
  H  H17  1  0.60513700  0.35986300  0.25677300  1
  H  H18  1  0.79644600  0.28225300  0.75839500  1
  H  H19  1  0.71774700  0.20355400  0.24160500  1
  H  H20  1  0.25792600  0.30053300  0.65745900  1
  H  H21  1  0.69946700  0.74207400  0.34254100  1
  H  H22  1  0.37863200  0.42457400  0.63714800  1
  H  H23  1  0.57542600  0.62136800  0.36285200  1
  H  H24  1  0.31757700  0.92750700  0.55828900  1
  H  H25  1  0.07249300  0.68242300  0.44171100  1
  H  H26  1  0.45598400  0.94228100  0.38918600  1
  H  H27  1  0.05771900  0.54401600  0.61081400  1
  Se  Se0  1  0.01884900  0.28042500  0.86425500  1
  Se  Se1  1  0.71957500  0.98115100  0.13574500  1
  Se  Se2  1  0.06953500  0.83628000  0.79387600  1
  Se  Se3  1  0.16372000  0.93046500  0.20612400  1
  O  O0  1  0.38878400  0.53966600  0.80474600  1
  O  O1  1  0.46033400  0.61121600  0.19525400  1
  O  O2  1  0.73651900  0.60237100  0.90705800  1
  O  O3  1  0.39762900  0.26348100  0.09294200  1
  O  O4  1  0.49338000  0.94160600  0.86394200  1
  O  O5  1  0.05839400  0.50662000  0.13605800  1
  O  O6  1  0.79404000  0.92750300  0.55384100  1
  O  O7  1  0.07249700  0.20596000  0.44615900  1
  O  O8  1  0.70823300  0.31064400  0.69341400  1
  O  O9  1  0.68935600  0.29176700  0.30658600  1
  O  O10  1  0.35862300  0.34276100  0.57939100  1
  O  O11  1  0.65723900  0.64137700  0.42060900  1
  O  O12  1  0.43212300  0.94556500  0.51115200  1
  O  O13  1  0.05443500  0.56787700  0.48884800  1
loop_
_geom_bond_atom_site_label_1
_geom_bond_atom_site_label_2
_geom_bond_distance
_geom_bond_site_symmetry_2
Na0 O11 2.384538 1_555
Na0 O9 2.418377 1_555
Na0 O13 2.440902 1_655
Na0 O5 2.451449 1_655
Na0 O8 2.451605 1_555
Na0 O7 2.453690 1_655
Na1 O10 2.384538 1_555
Na1 O8 2.418377 1_555
Na1 O12 2.440902 1_545
Na1 O4 2.451449 1_545
Na1 O9 2.451605 1_555
Na1 O6 2.453690 1_545
Na2 O6 2.405495 1_555
Na2 O12 2.427685 1_555
Na2 O4 2.439234 1_555
Na2 O11 2.452059 1_555
Na2 O0 2.468100 1_555
Na2 O2 2.478939 1_555
Na3 O7 2.405495 1_555
Na3 O13 2.427685 1_555
Na3 O5 2.439234 1_555
Na3 O10 2.452059 1_555
Na3 O1 2.468100 1_555
Na3 O3 2.478939 1_555
Ge0 Se0 2.378437 1_654
Ge0 Se1 2.378437 1_545
Ge0 Se3 2.400994 1_645
Ge0 Se2 2.400994 1_644
H0 O0 0.991410 1_555
H1 O1 0.991410 1_555
H2 O0 0.990515 1_555
H3 O1 0.990515 1_555
H4 O2 0.991795 1_555
H5 O3 0.991795 1_555
H6 O2 0.991646 1_555
H7 O3 0.991646 1_555
H8 O4 0.989356 1_555
H9 O5 0.989356 1_555
H10 O4 0.993491 1_555
H11 O5 0.993491 1_555
H12 O6 0.982911 1_555
H13 O7 0.982911 1_555
H14 O6 0.995153 1_555
H15 O7 0.995153 1_555
H16 O8 0.974476 1_555
H17 O9 0.974476 1_555
H18 O8 1.000994 1_555
H19 O9 1.000994 1_555
H20 O10 0.996734 1_555
H21 O11 0.996734 1_555
H22 O10 0.989375 1_555
H23 O11 0.989375 1_555
H24 O12 0.984292 1_555
H25 O13 0.984292 1_555
H26 O12 0.980210 1_555
H27 O13 0.980210 1_555
