# generated using pymatgen
data_CuH20S2(NO7)2
_symmetry_space_group_name_H-M   'P 1'
_cell_length_a   12.74891100
_cell_length_b   6.10171300
_cell_length_c   9.45567347
_cell_angle_alpha   72.78637307
_cell_angle_beta   90.00000000
_cell_angle_gamma   90.00000000
_symmetry_Int_Tables_number   1
_chemical_formula_structural   CuH20S2(NO7)2
_chemical_formula_sum   'Cu2 H40 S4 N4 O28'
_cell_volume   702.61155181
_cell_formula_units_Z   2
loop_
 _symmetry_equiv_pos_site_id
 _symmetry_equiv_pos_as_xyz
  1  'x, y, z'
loop_
 _atom_site_type_symbol
 _atom_site_label
 _atom_site_symmetry_multiplicity
 _atom_site_fract_x
 _atom_site_fract_y
 _atom_site_fract_z
 _atom_site_occupancy
  Cu  Cu0  1  0.50000000  0.00000000  0.50000000  1
  Cu  Cu1  1  0.00000000  0.00000000  0.00000000  1
  H  H0  1  0.15339500  0.77077400  0.54142600  1
  H  H1  1  0.65339500  0.22922600  0.95857400  1
  H  H2  1  0.84660500  0.22922600  0.45857400  1
  H  H3  1  0.34660500  0.77077400  0.04142600  1
  H  H4  1  0.19573200  0.57917600  0.70430400  1
  H  H5  1  0.69573200  0.42082400  0.79569600  1
  H  H6  1  0.80426800  0.42082400  0.29569600  1
  H  H7  1  0.30426800  0.57917600  0.20430400  1
  H  H8  1  0.12300400  0.48615400  0.58353700  1
  H  H9  1  0.62300400  0.51384600  0.91646300  1
  H  H10  1  0.87699600  0.51384600  0.41646300  1
  H  H11  1  0.37699600  0.48615400  0.08353700  1
  H  H12  1  0.06733900  0.64909100  0.67883000  1
  H  H13  1  0.56733900  0.35090900  0.82117000  1
  H  H14  1  0.93266100  0.35090900  0.32117000  1
  H  H15  1  0.43266100  0.64909100  0.17883000  1
  H  H16  1  0.40759100  0.67080300  0.69543900  1
  H  H17  1  0.90759100  0.32919700  0.80456100  1
  H  H18  1  0.59240900  0.32919700  0.30456100  1
  H  H19  1  0.09240900  0.67080300  0.19543900  1
  H  H20  1  0.37508000  0.90289100  0.73318100  1
  H  H21  1  0.87508000  0.09710900  0.76681900  1
  H  H22  1  0.62492000  0.09710900  0.26681900  1
  H  H23  1  0.12492000  0.90289100  0.23318100  1
  H  H24  1  0.39793100  0.04765900  0.21592400  1
  H  H25  1  0.89793100  0.95234100  0.28407600  1
  H  H26  1  0.60206900  0.95234100  0.78407600  1
  H  H27  1  0.10206900  0.04765900  0.71592400  1
  H  H28  1  0.31391100  0.97349500  0.34266500  1
  H  H29  1  0.81391100  0.02650500  0.15733500  1
  H  H30  1  0.68608900  0.02650500  0.65733500  1
  H  H31  1  0.18608900  0.97349500  0.84266500  1
  H  H32  1  0.56154700  0.66728400  0.41456700  1
  H  H33  1  0.06154700  0.33271600  0.08543300  1
  H  H34  1  0.43845300  0.33271600  0.58543300  1
  H  H35  1  0.93845300  0.66728400  0.91456700  1
  H  H36  1  0.64036400  0.68408600  0.54357200  1
  H  H37  1  0.14036400  0.31591400  0.95642800  1
  H  H38  1  0.35963600  0.31591400  0.45642800  1
  H  H39  1  0.85963600  0.68408600  0.04357200  1
  S  S0  1  0.35623900  0.25132100  0.88659000  1
  S  S1  1  0.85623900  0.74867900  0.61341000  1
  S  S2  1  0.64376100  0.74867900  0.11341000  1
  S  S3  1  0.14376100  0.25132100  0.38659000  1
  N  N0  1  0.13598100  0.62252300  0.62663700  1
  N  N1  1  0.63598100  0.37747700  0.87336300  1
  N  N2  1  0.86401900  0.37747700  0.37336300  1
  N  N3  1  0.36401900  0.62252300  0.12663700  1
  O  O0  1  0.26047100  0.39437500  0.87938600  1
  O  O1  1  0.76047100  0.60562500  0.62061400  1
  O  O2  1  0.73952900  0.60562500  0.12061400  1
  O  O3  1  0.23952900  0.39437500  0.37938600  1
  O  O4  1  0.41282400  0.22603000  0.02811200  1
  O  O5  1  0.91282400  0.77397000  0.47188800  1
  O  O6  1  0.58717600  0.77397000  0.97188800  1
  O  O7  1  0.08717600  0.22603000  0.52811200  1
  O  O8  1  0.42676700  0.37215400  0.75987900  1
  O  O9  1  0.92676700  0.62784600  0.74012100  1
  O  O10  1  0.57323300  0.62784600  0.24012100  1
  O  O11  1  0.07323300  0.37215400  0.25987900  1
  O  O12  1  0.32735800  0.01980300  0.87317800  1
  O  O13  1  0.82735800  0.98019700  0.62682200  1
  O  O14  1  0.67264200  0.98019700  0.12682200  1
  O  O15  1  0.17264200  0.01980300  0.37317800  1
  O  O16  1  0.39056000  0.83625200  0.65140500  1
  O  O17  1  0.89056000  0.16374800  0.84859500  1
  O  O18  1  0.60944000  0.16374800  0.34859500  1
  O  O19  1  0.10944000  0.83625200  0.15140500  1
  O  O20  1  0.38747300  0.94919400  0.31827300  1
  O  O21  1  0.88747300  0.05080600  0.18172700  1
  O  O22  1  0.61252700  0.05080600  0.68172700  1
  O  O23  1  0.11252700  0.94919400  0.81827300  1
  O  O24  1  0.56541800  0.70136600  0.51101000  1
  O  O25  1  0.06541800  0.29863400  0.98899000  1
  O  O26  1  0.43458200  0.29863400  0.48899000  1
  O  O27  1  0.93458200  0.70136600  0.01101000  1
loop_
_geom_bond_atom_site_label_1
_geom_bond_atom_site_label_2
_geom_bond_distance
_geom_bond_site_symmetry_2
Cu0 O24 1.978501 1_545
Cu0 O26 1.978501 1_555
Cu0 O18 2.036651 1_555
Cu0 O16 2.036651 1_545
Cu0 O22 2.328559 1_555
Cu0 O20 2.328559 1_545
Cu1 O27 1.978501 1_445
Cu1 O25 1.978501 1_554
Cu1 O17 2.036651 1_454
Cu1 O19 2.036651 1_545
Cu1 O23 2.328559 1_544
Cu1 O21 2.328559 1_455
H0 N0 1.041813 1_555
H1 N1 1.041813 1_555
H2 N2 1.041813 1_555
H3 N3 1.041813 1_555
H4 N0 1.036631 1_555
H5 N1 1.036631 1_555
H6 N2 1.036631 1_555
H7 N3 1.036631 1_555
H8 N0 1.042368 1_555
H9 N1 1.042368 1_555
H10 N2 1.042368 1_555
H11 N3 1.042368 1_555
H12 N0 1.040679 1_555
H13 N1 1.040679 1_555
H14 N2 1.040679 1_555
H15 N3 1.040679 1_555
H16 O16 0.995419 1_555
H17 O17 0.995419 1_555
H18 O18 0.995419 1_555
H19 O19 0.995419 1_555
H20 O16 0.994125 1_555
H21 O17 0.994125 1_555
H22 O18 0.994125 1_555
H23 O19 0.994125 1_555
H24 O20 0.985494 1_545
H25 O21 0.985494 1_565
H26 O22 0.985494 1_565
H27 O23 0.985494 1_545
H28 O20 0.987400 1_555
H29 O21 0.987400 1_555
H30 O22 0.987400 1_555
H31 O23 0.987400 1_555
H32 O24 0.994761 1_555
H33 O25 0.994761 1_554
H34 O26 0.994761 1_555
H35 O27 0.994761 1_556
H36 O24 0.999822 1_555
H36 O1 1.702393 1_555
H37 O25 0.999822 1_555
H37 O0 1.702393 1_555
H38 O26 0.999822 1_555
H38 O3 1.702393 1_555
H39 O27 0.999822 1_555
H39 O2 1.702393 1_555
O0 S0 1.490653 1_555
O1 S1 1.490653 1_555
O2 S2 1.490653 1_555
O3 S3 1.490653 1_555
O4 S0 1.487530 1_554
O5 S1 1.487530 1_555
O6 S2 1.487530 1_556
O7 S3 1.487530 1_555
O8 S0 1.504914 1_555
O9 S1 1.504914 1_555
O10 S2 1.504914 1_555
O11 S3 1.504914 1_555
O12 S0 1.501096 1_555
O13 S1 1.501096 1_555
O14 S2 1.501096 1_555
O15 S3 1.501096 1_555
