# generated using pymatgen
data_Li3Fe8(BO3)8
_symmetry_space_group_name_H-M   'P 1'
_cell_length_a   5.29724500
_cell_length_b   9.07614248
_cell_length_c   10.18732855
_cell_angle_alpha   90.05138815
_cell_angle_beta   90.85425509
_cell_angle_gamma   90.07358190
_symmetry_Int_Tables_number   1
_chemical_formula_structural   Li3Fe8(BO3)8
_chemical_formula_sum   'Li3 Fe8 B8 O24'
_cell_volume   489.73694155
_cell_formula_units_Z   1
loop_
 _symmetry_equiv_pos_site_id
 _symmetry_equiv_pos_as_xyz
  1  'x, y, z'
loop_
 _atom_site_type_symbol
 _atom_site_label
 _atom_site_symmetry_multiplicity
 _atom_site_fract_x
 _atom_site_fract_y
 _atom_site_fract_z
 _atom_site_occupancy
  Li  Li0  1  0.34791800  0.00042300  0.90491300  1
  Li  Li1  1  0.14839900  0.49156700  0.66274600  1
  Li  Li2  1  0.14722800  0.51551100  0.17207100  1
  Fe  Fe0  1  0.83992100  0.16934400  0.87779600  1
  Fe  Fe1  1  0.16113500  0.15571000  0.62285000  1
  Fe  Fe2  1  0.65965100  0.32666500  0.13280400  1
  Fe  Fe3  1  0.35499300  0.33644600  0.38270500  1
  Fe  Fe4  1  0.65845800  0.67421300  0.63060900  1
  Fe  Fe5  1  0.83455500  0.82967900  0.37070900  1
  Fe  Fe6  1  0.34749600  0.65881500  0.88588400  1
  Fe  Fe7  1  0.16526100  0.84957000  0.13319000  1
  B  B0  1  0.84495000  0.16128500  0.37538400  1
  B  B1  1  0.66857800  0.33762600  0.63509100  1
  B  B2  1  0.17832000  0.18071800  0.11624200  1
  B  B3  1  0.33286800  0.32204300  0.87119400  1
  B  B4  1  0.65622800  0.65619100  0.13348900  1
  B  B5  1  0.32838100  0.67526600  0.37930500  1
  B  B6  1  0.84596700  0.84174500  0.87359000  1
  B  B7  1  0.16302000  0.82452500  0.62803600  1
  O  O0  1  0.73754100  0.02655700  0.36928600  1
  O  O1  1  0.92691200  0.19592900  0.07113800  1
  O  O2  1  0.29939500  0.05165800  0.10341700  1
  O  O3  1  0.81004800  0.21527700  0.67850800  1
  O  O4  1  0.71718300  0.28279100  0.32296000  1
  O  O5  1  0.20655800  0.18900700  0.83354400  1
  O  O6  1  0.08134800  0.18469300  0.43619900  1
  O  O7  1  0.57160200  0.30307600  0.92892600  1
  O  O8  1  0.78054800  0.47293000  0.63068000  1
  O  O9  1  0.41455200  0.31845100  0.59907500  1
  O  O10  1  0.29321400  0.30974600  0.16434000  1
  O  O11  1  0.78346100  0.52318900  0.12933500  1
  O  O12  1  0.22782700  0.45356100  0.85020400  1
  O  O13  1  0.71375900  0.71965900  0.82442400  1
  O  O14  1  0.57277500  0.69412800  0.43370500  1
  O  O15  1  0.23055300  0.53908300  0.36327800  1
  O  O16  1  0.40193800  0.66355800  0.09558200  1
  O  O17  1  0.92100700  0.80904100  0.57529100  1
  O  O18  1  0.78700700  0.78030300  0.17663600  1
  O  O19  1  0.29325900  0.69561400  0.66269500  1
  O  O20  1  0.19622400  0.80149400  0.34168200  1
  O  O21  1  0.71537600  0.97470000  0.87867500  1
  O  O22  1  0.09448800  0.83318300  0.91508500  1
  O  O23  1  0.26550500  0.96065400  0.64813600  1
loop_
_geom_bond_atom_site_label_1
_geom_bond_atom_site_label_2
_geom_bond_distance
_geom_bond_site_symmetry_2
Li0 O21 1.982787 1_545
Li0 O5 2.002064 1_555
Li0 O22 2.028840 1_545
Li0 O2 2.094236 1_556
Li1 O8 1.977986 1_455
Li1 O12 1.980039 1_555
Li1 O19 2.003736 1_555
Li1 O9 2.215483 1_555
Li2 O11 1.970525 1_455
Li2 O15 2.002059 1_555
Li2 O10 2.024166 1_555
Li2 O16 2.064407 1_555
Fe0 O21 1.885070 1_545
Fe0 O7 1.946835 1_555
Fe0 O5 2.008096 1_655
Fe0 O1 2.030232 1_556
Fe0 O3 2.076707 1_555
Fe1 O23 1.872237 1_545
Fe1 O6 1.959760 1_555
Fe1 O9 2.011886 1_555
Fe1 O3 2.026350 1_455
Fe1 O5 2.177050 1_555
Fe2 O11 1.900185 1_555
Fe2 O1 1.958687 1_555
Fe2 O10 1.978031 1_555
Fe2 O4 1.997051 1_555
Fe2 O7 2.132430 1_554
Fe3 O15 1.963694 1_555
Fe3 O6 2.077267 1_555
Fe3 O4 2.079746 1_555
Fe3 O9 2.228205 1_555
Fe3 O10 2.256456 1_555
Fe4 O8 1.938753 1_555
Fe4 O17 1.941543 1_555
Fe4 O19 1.976552 1_555
Fe4 O13 2.033572 1_555
Fe4 O14 2.058187 1_555
Fe5 O0 1.859968 1_565
Fe5 O20 1.959943 1_655
Fe5 O14 1.967737 1_555
Fe5 O18 2.038728 1_555
Fe5 O17 2.135633 1_555
Fe6 O12 1.998325 1_555
Fe6 O22 2.099007 1_555
Fe6 O13 2.120232 1_555
Fe6 O16 2.151761 1_556
Fe6 O19 2.312128 1_555
Fe7 O2 1.991270 1_565
Fe7 O16 2.141845 1_555
Fe7 O18 2.151666 1_455
Fe7 O20 2.172564 1_555
Fe7 O22 2.252547 1_554
B0 O0 1.349028 1_555
B0 O4 1.397023 1_555
B0 O6 1.404659 1_655
B1 O8 1.364158 1_555
B1 O9 1.400076 1_555
B1 O3 1.408362 1_555
B2 O2 1.343381 1_555
B2 O10 1.403631 1_555
B2 O1 1.409305 1_455
B3 O12 1.333722 1_555
B3 O7 1.397639 1_555
B3 O5 1.429051 1_555
B4 O11 1.384230 1_555
B4 O18 1.389270 1_555
B4 O16 1.397452 1_555
B5 O15 1.348486 1_555
B5 O20 1.394413 1_555
B5 O14 1.410790 1_555
B6 O22 1.378975 1_655
B6 O21 1.393019 1_555
B6 O13 1.398469 1_555
B7 O23 1.362971 1_555
B7 O17 1.389556 1_455
B7 O19 1.401829 1_555
