# generated using pymatgen
data_Cr2H21I7(N2O)3
_symmetry_space_group_name_H-M   'P 1'
_cell_length_a   8.40958700
_cell_length_b   11.59535200
_cell_length_c   27.32037100
_cell_angle_alpha   90.00000000
_cell_angle_beta   90.00000000
_cell_angle_gamma   90.00000000
_symmetry_Int_Tables_number   1
_chemical_formula_structural   Cr2H21I7(N2O)3
_chemical_formula_sum   'Cr8 H84 I28 N24 O12'
_cell_volume   2664.06733473
_cell_formula_units_Z   4
loop_
 _symmetry_equiv_pos_site_id
 _symmetry_equiv_pos_as_xyz
  1  'x, y, z'
loop_
 _atom_site_type_symbol
 _atom_site_label
 _atom_site_symmetry_multiplicity
 _atom_site_fract_x
 _atom_site_fract_y
 _atom_site_fract_z
 _atom_site_occupancy
  Cr  Cr0  1  0.25000000  0.76594200  0.10478700  1
  Cr  Cr1  1  0.25000000  0.89157400  0.18933400  1
  Cr  Cr2  1  0.75000000  0.39157400  0.31066600  1
  Cr  Cr3  1  0.75000000  0.26594200  0.39521300  1
  Cr  Cr4  1  0.25000000  0.73405800  0.60478700  1
  Cr  Cr5  1  0.25000000  0.60842600  0.68933400  1
  Cr  Cr6  1  0.75000000  0.10842600  0.81066600  1
  Cr  Cr7  1  0.75000000  0.23405800  0.89521300  1
  H  H0  1  0.25000000  0.78792100  0.00611800  1
  H  H1  1  0.34780600  0.89463200  0.03323400  1
  H  H2  1  0.15219400  0.89463200  0.03323400  1
  H  H3  1  0.07840600  0.61657700  0.05119000  1
  H  H4  1  0.42159400  0.61657700  0.05119000  1
  H  H5  1  0.54012900  0.68564100  0.08978500  1
  H  H6  1  0.95987100  0.68564100  0.08978500  1
  H  H7  1  0.07232000  0.57939300  0.10954300  1
  H  H8  1  0.42768000  0.57939300  0.10954300  1
  H  H9  1  0.50915700  0.89164000  0.13011900  1
  H  H10  1  0.99084300  0.89164000  0.13011900  1
  H  H11  1  0.15225700  0.09602800  0.16876400  1
  H  H12  1  0.34774300  0.09602800  0.16876400  1
  H  H13  1  0.25000000  0.65286800  0.19452400  1
  H  H14  1  0.25000000  0.11070000  0.22186000  1
  H  H15  1  0.53454800  0.90702800  0.22989900  1
  H  H16  1  0.96545200  0.90702800  0.22989900  1
  H  H17  1  0.90363800  0.43173400  0.22615700  1
  H  H18  1  0.59636200  0.43173400  0.22615700  1
  H  H19  1  0.55953100  0.29784200  0.24501100  1
  H  H20  1  0.94046900  0.29784200  0.24501100  1
  H  H21  1  0.05953100  0.79784200  0.25498900  1
  H  H22  1  0.44046900  0.79784200  0.25498900  1
  H  H23  1  0.09636200  0.93173400  0.27384300  1
  H  H24  1  0.40363800  0.93173400  0.27384300  1
  H  H25  1  0.03454800  0.40702800  0.27010100  1
  H  H26  1  0.46545200  0.40702800  0.27010100  1
  H  H27  1  0.75000000  0.61070000  0.27814000  1
  H  H28  1  0.75000000  0.15286800  0.30547600  1
  H  H29  1  0.65225700  0.59602800  0.33123600  1
  H  H30  1  0.84774300  0.59602800  0.33123600  1
  H  H31  1  0.00915700  0.39164000  0.36988100  1
  H  H32  1  0.49084300  0.39164000  0.36988100  1
  H  H33  1  0.57232000  0.07939300  0.39045700  1
  H  H34  1  0.92768000  0.07939300  0.39045700  1
  H  H35  1  0.04012900  0.18564100  0.41021500  1
  H  H36  1  0.45987100  0.18564100  0.41021500  1
  H  H37  1  0.57840600  0.11657700  0.44881000  1
  H  H38  1  0.92159400  0.11657700  0.44881000  1
  H  H39  1  0.65219400  0.39463200  0.46676600  1
  H  H40  1  0.84780600  0.39463200  0.46676600  1
  H  H41  1  0.75000000  0.28792100  0.49388200  1
  H  H42  1  0.25000000  0.71207900  0.50611800  1
  H  H43  1  0.15219400  0.60536800  0.53323400  1
  H  H44  1  0.34780600  0.60536800  0.53323400  1
  H  H45  1  0.07840600  0.88342300  0.55119000  1
  H  H46  1  0.42159400  0.88342300  0.55119000  1
  H  H47  1  0.54012900  0.81435900  0.58978500  1
  H  H48  1  0.95987100  0.81435900  0.58978500  1
  H  H49  1  0.07232000  0.92060700  0.60954300  1
  H  H50  1  0.42768000  0.92060700  0.60954300  1
  H  H51  1  0.50915700  0.60836000  0.63011900  1
  H  H52  1  0.99084300  0.60836000  0.63011900  1
  H  H53  1  0.15225700  0.40397200  0.66876400  1
  H  H54  1  0.34774300  0.40397200  0.66876400  1
  H  H55  1  0.25000000  0.84713200  0.69452400  1
  H  H56  1  0.25000000  0.38930000  0.72186000  1
  H  H57  1  0.53454800  0.59297200  0.72989900  1
  H  H58  1  0.96545200  0.59297200  0.72989900  1
  H  H59  1  0.59636200  0.06826600  0.72615700  1
  H  H60  1  0.90363800  0.06826600  0.72615700  1
  H  H61  1  0.55953100  0.20215800  0.74501100  1
  H  H62  1  0.94046900  0.20215800  0.74501100  1
  H  H63  1  0.05953100  0.70215800  0.75498900  1
  H  H64  1  0.44046900  0.70215800  0.75498900  1
  H  H65  1  0.09636200  0.56826600  0.77384300  1
  H  H66  1  0.40363800  0.56826600  0.77384300  1
  H  H67  1  0.03454800  0.09297200  0.77010100  1
  H  H68  1  0.46545200  0.09297200  0.77010100  1
  H  H69  1  0.75000000  0.88930000  0.77814000  1
  H  H70  1  0.75000000  0.34713200  0.80547600  1
  H  H71  1  0.65225700  0.90397200  0.83123600  1
  H  H72  1  0.84774300  0.90397200  0.83123600  1
  H  H73  1  0.00915700  0.10836000  0.86988100  1
  H  H74  1  0.49084300  0.10836000  0.86988100  1
  H  H75  1  0.57232000  0.42060700  0.89045700  1
  H  H76  1  0.92768000  0.42060700  0.89045700  1
  H  H77  1  0.04012900  0.31435900  0.91021500  1
  H  H78  1  0.45987100  0.31435900  0.91021500  1
  H  H79  1  0.57840600  0.38342300  0.94881000  1
  H  H80  1  0.92159400  0.38342300  0.94881000  1
  H  H81  1  0.65219400  0.10536800  0.96676600  1
  H  H82  1  0.84780600  0.10536800  0.96676600  1
  H  H83  1  0.75000000  0.21207900  0.99388200  1
  I  I0  1  0.75000000  0.66479000  0.18840000  1
  I  I1  1  0.25000000  0.16479000  0.31160000  1
  I  I2  1  0.75000000  0.83521000  0.68840000  1
  I  I3  1  0.25000000  0.33521000  0.81160000  1
  I  I4  1  0.75000000  0.87493600  0.03478700  1
  I  I5  1  0.75000000  0.44568100  0.03800300  1
  I  I6  1  0.25000000  0.25858700  0.05751700  1
  I  I7  1  0.75000000  0.26991900  0.11317000  1
  I  I8  1  0.25000000  0.38607300  0.15091800  1
  I  I9  1  0.75000000  0.08819500  0.19215400  1
  I  I10  1  0.25000000  0.58819500  0.30784600  1
  I  I11  1  0.75000000  0.88607300  0.34908200  1
  I  I12  1  0.25000000  0.76991900  0.38683000  1
  I  I13  1  0.75000000  0.75858700  0.44248300  1
  I  I14  1  0.25000000  0.94568100  0.46199700  1
  I  I15  1  0.25000000  0.37493600  0.46521300  1
  I  I16  1  0.75000000  0.62506400  0.53478700  1
  I  I17  1  0.75000000  0.05431900  0.53800300  1
  I  I18  1  0.25000000  0.24141300  0.55751700  1
  I  I19  1  0.75000000  0.23008100  0.61317000  1
  I  I20  1  0.25000000  0.11392700  0.65091800  1
  I  I21  1  0.75000000  0.41180500  0.69215400  1
  I  I22  1  0.25000000  0.91180500  0.80784600  1
  I  I23  1  0.75000000  0.61392700  0.84908200  1
  I  I24  1  0.25000000  0.73008100  0.88683000  1
  I  I25  1  0.75000000  0.74141300  0.94248300  1
  I  I26  1  0.25000000  0.55431900  0.96199700  1
  I  I27  1  0.25000000  0.12506400  0.96521300  1
  N  N0  1  0.25000000  0.84224900  0.03569300  1
  N  N1  1  0.07029400  0.64876200  0.08612200  1
  N  N2  1  0.42970600  0.64876200  0.08612200  1
  N  N3  1  0.25000000  0.06992700  0.18811900  1
  N  N4  1  0.07349300  0.88155500  0.24364300  1
  N  N5  1  0.42650700  0.88155500  0.24364300  1
  N  N6  1  0.57349300  0.38155500  0.25635700  1
  N  N7  1  0.92650700  0.38155500  0.25635700  1
  N  N8  1  0.75000000  0.56992700  0.31188100  1
  N  N9  1  0.57029400  0.14876200  0.41387800  1
  N  N10  1  0.92970600  0.14876200  0.41387800  1
  N  N11  1  0.75000000  0.34224900  0.46430700  1
  N  N12  1  0.25000000  0.65775100  0.53569300  1
  N  N13  1  0.07029400  0.85123800  0.58612200  1
  N  N14  1  0.42970600  0.85123800  0.58612200  1
  N  N15  1  0.25000000  0.43007300  0.68811900  1
  N  N16  1  0.07349300  0.61844500  0.74364300  1
  N  N17  1  0.42650700  0.61844500  0.74364300  1
  N  N18  1  0.57349300  0.11844500  0.75635700  1
  N  N19  1  0.92650700  0.11844500  0.75635700  1
  N  N20  1  0.75000000  0.93007300  0.81188100  1
  N  N21  1  0.57029400  0.35123800  0.91387800  1
  N  N22  1  0.92970600  0.35123800  0.91387800  1
  N  N23  1  0.75000000  0.15775100  0.96430700  1
  O  O0  1  0.10689700  0.89283600  0.12986000  1
  O  O1  1  0.39310300  0.89283600  0.12986000  1
  O  O2  1  0.25000000  0.72360000  0.17522800  1
  O  O3  1  0.75000000  0.22360000  0.32477200  1
  O  O4  1  0.60689700  0.39283600  0.37014000  1
  O  O5  1  0.89310300  0.39283600  0.37014000  1
  O  O6  1  0.10689700  0.60716400  0.62986000  1
  O  O7  1  0.39310300  0.60716400  0.62986000  1
  O  O8  1  0.25000000  0.77640000  0.67522800  1
  O  O9  1  0.75000000  0.27640000  0.82477200  1
  O  O10  1  0.60689700  0.10716400  0.87014000  1
  O  O11  1  0.89310300  0.10716400  0.87014000  1
loop_
_geom_bond_atom_site_label_1
_geom_bond_atom_site_label_2
_geom_bond_distance
_geom_bond_site_symmetry_2
Cr0 O2 1.986115 1_555
Cr0 O1 2.020508 1_555
Cr0 O0 2.020508 1_555
Cr0 N0 2.084753 1_555
Cr0 N2 2.095257 1_555
Cr0 N1 2.095257 1_555
Cr1 O2 1.985478 1_555
Cr1 O0 2.022033 1_555
Cr1 O1 2.022033 1_555
Cr1 N3 2.068332 1_565
Cr1 N4 2.101972 1_555
Cr1 N5 2.101972 1_555
Cr2 O3 1.985478 1_555
Cr2 O4 2.022033 1_555
Cr2 O5 2.022033 1_555
Cr2 N8 2.068332 1_555
Cr2 N6 2.101972 1_555
Cr2 N7 2.101972 1_555
Cr3 O3 1.986115 1_555
Cr3 O4 2.020508 1_555
Cr3 O5 2.020508 1_555
Cr3 N11 2.084753 1_555
Cr3 N9 2.095257 1_555
Cr3 N10 2.095257 1_555
Cr4 O8 1.986115 1_555
Cr4 O7 2.020508 1_555
Cr4 O6 2.020508 1_555
Cr4 N12 2.084753 1_555
Cr4 N13 2.095257 1_555
Cr4 N14 2.095257 1_555
Cr5 O8 1.985478 1_555
Cr5 O7 2.022033 1_555
Cr5 O6 2.022033 1_555
Cr5 N15 2.068332 1_555
Cr5 N16 2.101972 1_555
Cr5 N17 2.101972 1_555
Cr6 O9 1.985478 1_555
Cr6 O10 2.022033 1_555
Cr6 O11 2.022033 1_555
Cr6 N20 2.068332 1_545
Cr6 N19 2.101972 1_555
Cr6 N18 2.101972 1_555
Cr7 O9 1.986115 1_555
Cr7 O10 2.020508 1_555
Cr7 O11 2.020508 1_555
Cr7 N23 2.084753 1_555
Cr7 N22 2.095257 1_555
Cr7 N21 2.095257 1_555
H0 N0 1.024551 1_555
H1 N0 1.024679 1_555
H2 N0 1.024679 1_555
H3 N1 1.026997 1_555
H4 N2 1.026997 1_555
H5 N2 1.027228 1_555
H6 N1 1.027228 1_655
H7 N1 1.027967 1_555
H8 N2 1.027967 1_555
H9 O1 0.976090 1_555
H10 O0 0.976090 1_655
H11 N3 1.023162 1_555
H12 N3 1.023162 1_555
H13 O2 0.974976 1_555
H14 N3 1.035985 1_555
H15 N5 1.026525 1_555
H16 N4 1.026525 1_655
H17 N7 1.027753 1_555
H18 N6 1.027753 1_555
H19 N6 1.025717 1_555
H20 N7 1.025717 1_555
H21 N4 1.025717 1_555
H22 N5 1.025717 1_555
H23 N4 1.027753 1_555
H24 N5 1.027753 1_555
H25 N7 1.026525 1_455
H26 N6 1.026525 1_555
H27 N8 1.035985 1_555
H28 O3 0.974976 1_555
H29 N8 1.023162 1_555
H30 N8 1.023162 1_555
H31 O5 0.976090 1_455
H32 O4 0.976090 1_555
H33 N9 1.027967 1_555
H34 N10 1.027967 1_555
H35 N10 1.027228 1_455
H36 N9 1.027228 1_555
H37 N9 1.026997 1_555
H38 N10 1.026997 1_555
H39 N11 1.024679 1_555
H40 N11 1.024679 1_555
H41 N11 1.024551 1_555
H42 N12 1.024551 1_555
H43 N12 1.024679 1_555
H44 N12 1.024679 1_555
H45 N13 1.026997 1_555
H46 N14 1.026997 1_555
H47 N14 1.027228 1_555
H48 N13 1.027228 1_655
H49 N13 1.027967 1_555
H50 N14 1.027967 1_555
H51 O7 0.976090 1_555
H52 O6 0.976090 1_655
H53 N15 1.023162 1_555
H54 N15 1.023162 1_555
H55 O8 0.974976 1_555
H56 N15 1.035985 1_555
H57 N17 1.026525 1_555
H58 N16 1.026525 1_655
H59 N18 1.027753 1_555
H60 N19 1.027753 1_555
H61 N18 1.025717 1_555
H62 N19 1.025717 1_555
H63 N16 1.025717 1_555
H64 N17 1.025717 1_555
H65 N16 1.027753 1_555
H66 N17 1.027753 1_555
H67 N19 1.026525 1_455
H68 N18 1.026525 1_555
H69 N20 1.035985 1_555
H70 O9 0.974976 1_555
H71 N20 1.023162 1_555
H72 N20 1.023162 1_555
H73 O11 0.976090 1_455
H74 O10 0.976090 1_555
H75 N21 1.027967 1_555
H76 N22 1.027967 1_555
H77 N22 1.027228 1_455
H78 N21 1.027228 1_555
H79 N21 1.026997 1_555
H80 N22 1.026997 1_555
H81 N23 1.024679 1_555
H82 N23 1.024679 1_555
H83 N23 1.024551 1_555
I5 I7 2.893228 1_555
I6 I8 2.949006 1_555
I7 I9 3.016042 1_555
I10 I12 3.016042 1_555
I11 I13 2.949006 1_555
I12 I14 2.893228 1_555
I13 I16 2.959128 1_555
I15 I18 2.959128 1_555
I17 I19 2.893228 1_555
I18 I20 2.949006 1_555
I19 I21 3.016042 1_555
I22 I24 3.016042 1_555
I23 I25 2.949006 1_555
I24 I26 2.893228 1_555
I25 I4 2.959128 1_556
I27 I6 2.959128 1_556
