# generated using pymatgen
data_Nb5SiSn2
_symmetry_space_group_name_H-M   'P 1'
_cell_length_a   5.15014288
_cell_length_b   7.95932039
_cell_length_c   7.95931984
_cell_angle_alpha   83.99178195
_cell_angle_beta   71.12351912
_cell_angle_gamma   71.12352011
_symmetry_Int_Tables_number   1
_chemical_formula_structural   Nb5SiSn2
_chemical_formula_sum   'Nb10 Si2 Sn4'
_cell_volume   292.11500013
_cell_formula_units_Z   2
loop_
 _symmetry_equiv_pos_site_id
 _symmetry_equiv_pos_as_xyz
  1  'x, y, z'
loop_
 _atom_site_type_symbol
 _atom_site_label
 _atom_site_symmetry_multiplicity
 _atom_site_fract_x
 _atom_site_fract_y
 _atom_site_fract_z
 _atom_site_occupancy
  Nb  Nb0  1  0.71064281  0.85904565  0.71966773  1
  Nb  Nb1  1  0.93031154  0.85904565  0.28033227  1
  Nb  Nb2  1  0.28935719  0.14095435  0.28033227  1
  Nb  Nb3  1  0.25000000  0.50000000  0.50000000  1
  Nb  Nb4  1  0.43031154  0.28033227  0.85904565  1
  Nb  Nb5  1  0.56968846  0.71966773  0.14095435  1
  Nb  Nb6  1  0.75000000  0.50000000  0.50000000  1
  Nb  Nb7  1  0.78935719  0.28033227  0.14095435  1
  Nb  Nb8  1  0.06968846  0.14095435  0.71966773  1
  Nb  Nb9  1  0.21064281  0.71966773  0.85904565  1
  Si  Si0  1  0.75000000  -0.00000000  -0.00000000  1
  Si  Si1  1  0.25000000  -0.00000000  -0.00000000  1
  Sn  Sn0  1  0.66885027  0.16229947  0.50000000  1
  Sn  Sn1  1  0.83114973  0.50000000  0.83770053  1
  Sn  Sn2  1  0.33114973  0.83770053  0.50000000  1
  Sn  Sn3  1  0.16885027  0.50000000  0.16229947  1
loop_
_geom_bond_atom_site_label_1
_geom_bond_atom_site_label_2
_geom_bond_distance
_geom_bond_site_symmetry_2
Nb0 Si1 2.691106 1_566
Nb0 Si0 2.691108 1_566
Nb0 Sn0 2.820118 1_565
Nb0 Sn1 2.846431 1_555
Nb0 Sn2 3.064926 1_555
Nb0 Sn2 3.064931 1_655
Nb1 Si1 2.691105 1_665
Nb1 Si0 2.691108 1_565
Nb1 Sn0 2.820118 1_565
Nb1 Sn3 2.846431 1_655
Nb1 Sn2 3.064926 1_655
Nb1 Sn2 3.064931 1_555
Nb2 Si0 2.691106 1_555
Nb2 Si1 2.691108 1_555
Nb2 Sn2 2.820118 1_545
Nb2 Sn3 2.846431 1_555
Nb2 Sn0 3.064926 1_555
Nb2 Sn0 3.064931 1_455
Nb3 Nb6 2.575071 1_555
Nb3 Nb6 2.575071 1_455
Nb3 Sn3 2.850643 1_555
Nb3 Sn1 2.850643 1_455
Nb3 Sn2 2.850643 1_555
Nb3 Sn0 2.850643 1_555
Nb4 Si0 2.691106 1_556
Nb4 Si1 2.691108 1_556
Nb4 Sn3 2.820118 1_556
Nb4 Sn0 2.846431 1_555
Nb4 Sn1 3.064926 1_555
Nb4 Sn1 3.064931 1_455
Nb5 Si1 2.691106 1_565
Nb5 Si0 2.691108 1_565
Nb5 Sn1 2.820118 1_554
Nb5 Sn2 2.846431 1_555
Nb5 Sn3 3.064926 1_555
Nb5 Sn3 3.064931 1_655
Nb6 Sn1 2.850643 1_555
Nb6 Sn3 2.850643 1_655
Nb6 Sn0 2.850643 1_555
Nb6 Sn2 2.850643 1_555
Nb7 Si1 2.691106 1_655
Nb7 Si0 2.691108 1_555
Nb7 Sn1 2.820118 1_554
Nb7 Sn0 2.846430 1_555
Nb7 Sn3 3.064926 1_655
Nb7 Sn3 3.064931 1_555
Nb8 Si0 2.691105 1_456
Nb8 Si1 2.691108 1_556
Nb8 Sn2 2.820118 1_545
Nb8 Sn1 2.846431 1_455
Nb8 Sn0 3.064926 1_455
Nb8 Sn0 3.064931 1_555
Nb9 Si0 2.691106 1_466
Nb9 Si1 2.691108 1_566
Nb9 Sn3 2.820118 1_556
Nb9 Sn2 2.846430 1_555
Nb9 Sn1 3.064926 1_455
Nb9 Sn1 3.064931 1_555
Si0 Si1 2.575071 1_655
Si0 Si1 2.575071 1_555
