# generated using pymatgen
data_Li4Ti3Mn2Cu3O16
_symmetry_space_group_name_H-M   'P 1'
_cell_length_a   5.89489708
_cell_length_b   5.89327328
_cell_length_c   9.54627764
_cell_angle_alpha   89.91143295
_cell_angle_beta   91.98155819
_cell_angle_gamma   119.89101697
_symmetry_Int_Tables_number   1
_chemical_formula_structural   Li4Ti3Mn2Cu3O16
_chemical_formula_sum   'Li4 Ti3 Mn2 Cu3 O16'
_cell_volume   287.30449862
_cell_formula_units_Z   1
loop_
 _symmetry_equiv_pos_site_id
 _symmetry_equiv_pos_as_xyz
  1  'x, y, z'
loop_
 _atom_site_type_symbol
 _atom_site_label
 _atom_site_symmetry_multiplicity
 _atom_site_fract_x
 _atom_site_fract_y
 _atom_site_fract_z
 _atom_site_occupancy
  Li  Li0  1  0.33538200  0.66842300  0.89710200  1
  Li  Li1  1  0.97937000  0.98986800  0.98716300  1
  Li  Li2  1  0.98683700  0.99409600  0.49476100  1
  Li  Li3  1  0.67187100  0.33560700  0.40090300  1
  Ti  Ti0  1  0.17429500  0.83442900  0.21346900  1
  Ti  Ti1  1  0.17566000  0.34002800  0.21336500  1
  Ti  Ti2  1  0.34118500  0.16952400  0.71404700  1
  Mn  Mn0  1  0.33947100  0.66929800  0.48553500  1
  Mn  Mn1  1  0.67184500  0.33529300  0.98242200  1
  Cu  Cu0  1  0.66114000  0.83101300  0.20827000  1
  Cu  Cu1  1  0.82905100  0.65777200  0.71072200  1
  Cu  Cu2  1  0.82889300  0.17016600  0.70830900  1
  O  O0  1  0.18678100  0.84312200  0.59720300  1
  O  O1  1  0.04027700  0.51989000  0.33734400  1
  O  O2  1  0.32703800  0.66375800  0.10529900  1
  O  O3  1  0.00076100  0.00052900  0.30440600  1
  O  O4  1  0.99176200  0.99997600  0.79738500  1
  O  O5  1  0.19597800  0.34645000  0.59522700  1
  O  O6  1  0.46510500  0.95738400  0.35267700  1
  O  O7  1  0.46627400  0.50850700  0.35216100  1
  O  O8  1  0.34230400  0.17163400  0.10753800  1
  O  O9  1  0.66535400  0.83287700  0.59634300  1
  O  O10  1  0.50528800  0.46612100  0.85185200  1
  O  O11  1  0.49667600  0.03899000  0.85480900  1
  O  O12  1  0.66595600  0.32941500  0.60751800  1
  O  O13  1  0.85245700  0.66443100  0.09234700  1
  O  O14  1  0.95067600  0.47391800  0.84734200  1
  O  O15  1  0.85231300  0.18778300  0.09232300  1
loop_
_geom_bond_atom_site_label_1
_geom_bond_atom_site_label_2
_geom_bond_distance
_geom_bond_site_symmetry_2
Li0 O11 1.946919 1_565
Li0 O10 1.957761 1_555
Li0 O2 1.989623 1_556
Li0 O14 2.004682 1_455
Li1 O4 1.815359 1_555
Li1 O15 1.963547 1_566
Li1 O13 1.965232 1_556
Li1 O8 2.143551 1_666
Li2 O3 1.821352 1_665
Li2 O9 1.940139 1_555
Li2 O0 2.024852 1_655
Li2 O5 2.030879 1_665
Li3 O12 1.973877 1_555
Li3 O7 1.978393 1_555
Li3 O6 1.980505 1_545
Li3 O1 2.000568 1_655
Mn0 O9 1.937912 1_555
Mn0 O6 1.960758 1_555
Mn0 O7 1.962979 1_555
Mn0 O5 1.970545 1_555
Mn0 O0 1.996164 1_555
Mn0 O1 2.042241 1_555
Mn1 O11 1.929235 1_555
Mn1 O10 1.943967 1_555
Mn1 O15 1.957022 1_556
Mn1 O14 1.958794 1_555
Mn1 O13 1.966684 1_556
Mn1 O8 2.102378 1_556
Cu0 O3 1.931505 1_665
Cu0 O2 1.936742 1_555
Cu0 O15 2.152502 1_565
Cu0 O13 2.157199 1_555
Cu0 O7 2.178006 1_555
Cu0 O6 2.182107 1_555
Cu1 O4 1.921934 1_555
Cu1 O12 1.930196 1_555
Cu1 O14 2.023420 1_555
Cu1 O9 2.025953 1_555
Cu1 O0 2.161712 1_655
Cu1 O10 2.181274 1_555
Cu2 O4 1.884546 1_545
Cu2 O12 1.887027 1_555
Cu2 O9 2.012037 1_545
Cu2 O14 2.035186 1_555
Cu2 O5 2.201052 1_655
Cu2 O11 2.250753 1_555
O0 Ti2 1.991014 1_565
O1 Ti0 2.014160 1_555
O1 Ti1 2.018309 1_555
O2 Ti0 1.964396 1_555
O2 Ti1 1.964967 1_555
O3 Ti0 1.954573 1_545
O3 Ti1 1.954981 1_555
O4 Ti2 1.983342 1_665
O5 Ti2 1.981223 1_555
O6 Ti0 1.958882 1_555
O7 Ti1 1.956529 1_555
O8 Ti1 2.003461 1_555
O8 Ti0 2.013458 1_545
O10 Ti2 1.988829 1_555
O11 Ti2 1.962660 1_555
O12 Ti2 1.980153 1_555
O13 Ti0 1.974197 1_655
O15 Ti1 1.979831 1_655
