# generated using pymatgen
data_Li4Fe2C4SO16
_symmetry_space_group_name_H-M   'P 1'
_cell_length_a   9.72950176
_cell_length_b   9.64650226
_cell_length_c   9.31366401
_cell_angle_alpha   61.71886244
_cell_angle_beta   60.82336578
_cell_angle_gamma   57.45777177
_symmetry_Int_Tables_number   1
_chemical_formula_structural   Li4Fe2C4SO16
_chemical_formula_sum   'Li8 Fe4 C8 S2 O32'
_cell_volume   616.24866877
_cell_formula_units_Z   2
loop_
 _symmetry_equiv_pos_site_id
 _symmetry_equiv_pos_as_xyz
  1  'x, y, z'
loop_
 _atom_site_type_symbol
 _atom_site_label
 _atom_site_symmetry_multiplicity
 _atom_site_fract_x
 _atom_site_fract_y
 _atom_site_fract_z
 _atom_site_occupancy
  Li  Li0  1  0.95245900  0.54754100  0.95245900  1
  Li  Li1  1  0.54579700  0.95420300  0.95420300  1
  Li  Li2  1  0.29579700  0.70420300  0.70420300  1
  Li  Li3  1  0.70245900  0.29754100  0.70245900  1
  Li  Li4  1  0.54754100  0.95245900  0.54754100  1
  Li  Li5  1  0.95420300  0.54579700  0.54579700  1
  Li  Li6  1  0.70420300  0.29579700  0.29579700  1
  Li  Li7  1  0.29754100  0.70245900  0.29754100  1
  Fe  Fe0  1  0.12500000  0.12500000  0.12500000  1
  Fe  Fe1  1  0.12500000  0.12500000  0.62500000  1
  Fe  Fe2  1  0.12500000  0.62500000  0.12500000  1
  Fe  Fe3  1  0.62500000  0.12500000  0.12500000  1
  C  C0  1  0.91705500  0.91034900  0.89427400  1
  C  C1  1  0.33965100  0.33294500  0.97167800  1
  C  C2  1  0.89427400  0.27832200  0.91705500  1
  C  C3  1  0.27832200  0.89427400  0.91034900  1
  C  C4  1  0.97167800  0.35572600  0.33965100  1
  C  C5  1  0.35572600  0.97167800  0.33294500  1
  C  C6  1  0.91034900  0.91705500  0.27832200  1
  C  C7  1  0.33294500  0.33965100  0.35572600  1
  S  S0  1  0.50000000  0.50000000  0.50000000  1
  S  S1  1  0.75000000  0.75000000  0.75000000  1
  O  O0  1  0.93698100  0.76573700  0.01445700  1
  O  O1  1  0.30775100  0.57840100  0.55795400  1
  O  O2  1  0.04413300  0.92878800  0.75769200  1
  O  O3  1  0.32121200  0.20586700  0.98061200  1
  O  O4  1  0.75769200  0.26938800  0.04413300  1
  O  O5  1  0.21289200  0.48337400  0.96613600  1
  O  O6  1  0.55795400  0.55589400  0.30775100  1
  O  O7  1  0.57840100  0.30775100  0.55589400  1
  O  O8  1  0.33759800  0.96613600  0.48337400  1
  O  O9  1  0.26938800  0.75769200  0.92878800  1
  O  O10  1  0.48426300  0.31301900  0.96717500  1
  O  O11  1  0.55589400  0.55795400  0.57840100  1
  O  O12  1  0.01445700  0.28282500  0.93698100  1
  O  O13  1  0.28282500  0.01445700  0.76573700  1
  O  O14  1  0.76662600  0.03710800  0.91240200  1
  O  O15  1  0.96613600  0.33759800  0.21289200  1
  O  O16  1  0.28386400  0.91240200  0.03710800  1
  O  O17  1  0.48337400  0.21289200  0.33759800  1
  O  O18  1  0.96717500  0.23554300  0.48426300  1
  O  O19  1  0.23554300  0.96717500  0.31301900  1
  O  O20  1  0.69410600  0.69204600  0.67159900  1
  O  O21  1  0.76573700  0.93698100  0.28282500  1
  O  O22  1  0.98061200  0.49230800  0.32121200  1
  O  O23  1  0.91240200  0.28386400  0.76662600  1
  O  O24  1  0.67159900  0.94224900  0.69410600  1
  O  O25  1  0.69204600  0.69410600  0.94224900  1
  O  O26  1  0.03710800  0.76662600  0.28386400  1
  O  O27  1  0.49230800  0.98061200  0.20586700  1
  O  O28  1  0.92878800  0.04413300  0.26938800  1
  O  O29  1  0.20586700  0.32121200  0.49230800  1
  O  O30  1  0.94224900  0.67159900  0.69204600  1
  O  O31  1  0.31301900  0.48426300  0.23554300  1
loop_
_geom_bond_atom_site_label_1
_geom_bond_atom_site_label_2
_geom_bond_distance
_geom_bond_site_symmetry_2
Li0 O30 2.163600 1_555
Li0 O25 2.163600 1_555
Li0 O15 2.317872 1_556
Li0 O5 2.317872 1_655
Li0 O12 2.347830 1_655
Li0 O0 2.347830 1_556
Li1 O24 2.145144 1_555
Li1 O25 2.145144 1_555
Li1 O27 2.250229 1_556
Li1 O3 2.250232 1_565
Li1 O14 2.479003 1_565
Li1 O16 2.479003 1_556
Li2 O11 2.145144 1_555
Li2 O1 2.145144 1_555
Li2 O2 2.250234 1_555
Li2 O9 2.250238 1_555
Li2 O8 2.479003 1_555
Li2 O5 2.479003 1_555
Li3 O11 2.163600 1_555
Li3 O7 2.163600 1_555
Li3 O23 2.317872 1_555
Li3 O14 2.317872 1_555
Li3 O18 2.347830 1_555
Li3 O10 2.347830 1_555
Li4 O20 2.163600 1_555
Li4 O24 2.163600 1_555
Li4 O8 2.317872 1_555
Li4 O17 2.317872 1_565
Li4 O21 2.347830 1_555
Li4 O13 2.347830 1_565
Li5 O20 2.145144 1_555
Li5 O30 2.145144 1_555
Li5 O29 2.250234 1_655
Li5 O22 2.250238 1_555
Li5 O26 2.479003 1_655
Li5 O23 2.479003 1_555
Li6 O7 2.145144 1_555
Li6 O6 2.145144 1_555
Li6 O4 2.250229 1_555
Li6 O28 2.250232 1_555
Li6 O15 2.479003 1_555
Li6 O17 2.479003 1_555
Li7 O1 2.163600 1_555
Li7 O6 2.163600 1_555
Li7 O16 2.317872 1_555
Li7 O26 2.317872 1_555
Li7 O31 2.347830 1_555
Li7 O19 2.347830 1_555
Fe0 O19 2.022255 1_545
Fe0 O12 2.022255 1_554
Fe0 O3 2.041183 1_554
Fe0 O28 2.041183 1_455
Fe0 O15 2.052302 1_455
Fe0 O16 2.052302 1_545
Fe1 O13 2.022255 1_555
Fe1 O18 2.022255 1_455
Fe1 O29 2.041182 1_555
Fe1 O2 2.041182 1_545
Fe1 O23 2.052302 1_455
Fe1 O8 2.052302 1_545
Fe2 O31 2.022255 1_555
Fe2 O0 2.022255 1_455
Fe2 O9 2.041188 1_554
Fe2 O22 2.041188 1_455
Fe2 O26 2.052302 1_555
Fe2 O5 2.052302 1_554
Fe3 O21 2.022255 1_545
Fe3 O10 2.022255 1_554
Fe3 O4 2.041191 1_555
Fe3 O27 2.041191 1_545
Fe3 O17 2.052302 1_555
Fe3 O14 2.052302 1_554
C0 O2 1.291207 1_655
C0 O0 1.295186 1_556
C0 O14 1.301971 1_565
C1 O3 1.291212 1_555
C1 O10 1.295186 1_555
C1 O5 1.301971 1_555
C2 O4 1.291206 1_556
C2 O12 1.295186 1_655
C2 O23 1.301971 1_555
C3 O9 1.291202 1_555
C3 O13 1.295186 1_565
C3 O16 1.301971 1_556
C4 O22 1.291202 1_555
C4 O18 1.295186 1_555
C4 O15 1.301971 1_555
C5 O27 1.291206 1_555
C5 O19 1.295186 1_555
C5 O8 1.301971 1_555
C6 O28 1.291212 1_565
C6 O21 1.295186 1_555
C6 O26 1.301971 1_655
C7 O29 1.291207 1_555
C7 O31 1.295186 1_555
C7 O17 1.301971 1_555
O1 S0 1.497518 1_555
O6 S0 1.497518 1_555
O7 S0 1.497518 1_555
O11 S0 1.497518 1_555
O20 S1 1.497518 1_555
O24 S1 1.497518 1_555
O25 S1 1.497518 1_555
O30 S1 1.497518 1_555
