# generated using pymatgen
data_Li2HfO3
_symmetry_space_group_name_H-M   'P 1'
_cell_length_a   5.38461425
_cell_length_b   5.38461425
_cell_length_c   5.27993046
_cell_angle_alpha   80.04927084
_cell_angle_beta   80.04927084
_cell_angle_gamma   119.82331451
_symmetry_Int_Tables_number   1
_chemical_formula_structural   Li2HfO3
_chemical_formula_sum   'Li4 Hf2 O6'
_cell_volume   124.67353544
_cell_formula_units_Z   2
loop_
 _symmetry_equiv_pos_site_id
 _symmetry_equiv_pos_as_xyz
  1  'x, y, z'
loop_
 _atom_site_type_symbol
 _atom_site_label
 _atom_site_symmetry_multiplicity
 _atom_site_fract_x
 _atom_site_fract_y
 _atom_site_fract_z
 _atom_site_occupancy
  Li  Li0  1  0.15811000  0.84189000  0.00000000  1
  Li  Li1  1  0.84189000  0.15811000  0.00000000  1
  Li  Li2  1  0.50000000  0.50000000  0.00000000  1
  Li  Li3  1  0.00000000  0.00000000  0.50000000  1
  Hf  Hf0  1  0.66640800  0.33359200  0.50000000  1
  Hf  Hf1  1  0.33359200  0.66640800  0.50000000  1
  O  O0  1  0.43079200  0.07906200  0.26852400  1
  O  O1  1  0.56920800  0.92093800  0.73147600  1
  O  O2  1  0.07906200  0.43079200  0.26852400  1
  O  O3  1  0.27632600  0.27632600  0.73566900  1
  O  O4  1  0.92093800  0.56920800  0.73147600  1
  O  O5  1  0.72367400  0.72367400  0.26433100  1
loop_
_geom_bond_atom_site_label_1
_geom_bond_atom_site_label_2
_geom_bond_distance
_geom_bond_site_symmetry_2
Li0 O2 2.204759 1_555
Li0 O1 2.204759 1_554
Li0 O5 2.215573 1_455
Li0 O3 2.215573 1_564
Li0 O4 2.297179 1_454
Li0 O0 2.297179 1_565
Li1 O0 2.204759 1_555
Li1 O4 2.204759 1_554
Li1 O5 2.215573 1_545
Li1 O3 2.215573 1_654
Li1 O1 2.297179 1_544
Li1 O2 2.297179 1_655
Li2 O3 2.137294 1_554
Li2 O5 2.137294 1_555
Li2 O0 2.270037 1_555
Li2 O1 2.270037 1_554
Li2 O2 2.270037 1_555
Li2 O4 2.270037 1_554
Li3 O1 2.216727 1_445
Li3 O0 2.216727 1_555
Li3 O2 2.216727 1_555
Li3 O4 2.216727 1_445
Li3 O5 2.248054 1_445
Li3 O3 2.248054 1_555
Hf0 O4 2.089733 1_555
Hf0 O0 2.089733 1_555
Hf0 O3 2.091689 1_555
Hf0 O5 2.091689 1_555
Hf0 O1 2.094878 1_545
Hf0 O2 2.094878 1_655
Hf1 O1 2.089733 1_555
Hf1 O2 2.089733 1_555
Hf1 O3 2.091689 1_555
Hf1 O5 2.091689 1_555
Hf1 O0 2.094878 1_565
Hf1 O4 2.094878 1_455
