# generated using pymatgen
data_Li3V3P8O29
_symmetry_space_group_name_H-M   'P 1'
_cell_length_a   9.76463600
_cell_length_b   9.78122778
_cell_length_c   14.49893183
_cell_angle_alpha   90.25668948
_cell_angle_beta   90.07867885
_cell_angle_gamma   119.88004735
_symmetry_Int_Tables_number   1
_chemical_formula_structural   Li3V3P8O29
_chemical_formula_sum   'Li6 V6 P16 O58'
_cell_volume   1200.69204089
_cell_formula_units_Z   2
loop_
 _symmetry_equiv_pos_site_id
 _symmetry_equiv_pos_as_xyz
  1  'x, y, z'
loop_
 _atom_site_type_symbol
 _atom_site_label
 _atom_site_symmetry_multiplicity
 _atom_site_fract_x
 _atom_site_fract_y
 _atom_site_fract_z
 _atom_site_occupancy
  Li  Li0  1  0.92030700  0.69512600  0.44017100  1
  Li  Li1  1  0.77716100  0.69718500  0.94508500  1
  Li  Li2  1  0.08887800  0.30303000  0.54635600  1
  Li  Li3  1  0.92206000  0.21729300  0.95117700  1
  Li  Li4  1  0.77294300  0.08457800  0.43630900  1
  Li  Li5  1  0.30102600  0.08066300  0.94920800  1
  V  V0  1  0.43358300  0.00080300  0.74630400  1
  V  V1  1  0.56319400  0.56537700  0.74813600  1
  V  V2  1  0.00202200  0.57084800  0.24649800  1
  V  V3  1  0.99882400  0.43417900  0.75370600  1
  V  V4  1  0.43467100  0.43043400  0.25446100  1
  V  V5  1  0.56223800  0.99667300  0.25033700  1
  P  P0  1  0.68585300  0.91485500  0.83373700  1
  P  P1  1  0.68699100  0.77276700  0.33691200  1
  P  P2  1  0.22693000  0.91495900  0.34085100  1
  P  P3  1  0.32867000  0.66283100  0.63476300  1
  P  P4  1  0.33480300  0.66321100  0.13439800  1
  P  P5  1  0.08823700  0.77525500  0.83476100  1
  P  P6  1  0.90993500  0.67862200  0.65838200  1
  P  P7  1  0.23030700  0.31465100  0.84081000  1
  P  P8  1  0.76623200  0.68139500  0.15817200  1
  P  P9  1  0.08923700  0.32115200  0.33737600  1
  P  P10  1  0.90768300  0.22825500  0.16212100  1
  P  P11  1  0.66538100  0.33262000  0.86704700  1
  P  P12  1  0.67390700  0.33701100  0.36965100  1
  P  P13  1  0.77057900  0.08954800  0.65616500  1
  P  P14  1  0.31255500  0.22826500  0.66003500  1
  P  P15  1  0.31671400  0.08799100  0.16254700  1
  O  O0  1  0.76495900  0.02247800  0.56374100  1
  O  O1  1  0.65849100  0.91599800  0.33896400  1
  O  O2  1  0.78040000  0.79816100  0.24034500  1
  O  O3  1  0.76436800  0.74839300  0.06718800  1
  O  O4  1  0.52474300  0.90839600  0.81846000  1
  O  O5  1  0.65914200  0.74449700  0.83626300  1
  O  O6  1  0.48023700  0.81646600  0.17844300  1
  O  O7  1  0.38164400  0.90746100  0.32248000  1
  O  O8  1  0.25226900  0.01406500  0.07160800  1
  O  O9  1  0.25789000  0.91988300  0.83673800  1
  O  O10  1  0.47745500  0.66288800  0.67907700  1
  O  O11  1  0.33262300  0.81436500  0.67672100  1
  O  O12  1  0.52676300  0.61805400  0.32500400  1
  O  O13  1  0.32550000  0.65444100  0.53292300  1
  O  O14  1  0.33326900  0.66618500  0.03240100  1
  O  O15  1  0.38271400  0.47509400  0.82297900  1
  O  O16  1  0.18325000  0.66175300  0.17703300  1
  O  O17  1  0.33882200  0.52044200  0.17891800  1
  O  O18  1  0.08333600  0.74249000  0.33569900  1
  O  O19  1  0.01767000  0.79819500  0.73852000  1
  O  O20  1  0.99035500  0.76728000  0.91442900  1
  O  O21  1  0.97655100  0.73580700  0.56653500  1
  O  O22  1  0.09772400  0.62091900  0.82117800  1
  O  O23  1  0.18046200  0.51375900  0.67736900  1
  O  O24  1  0.25761300  0.34481900  0.33494400  1
  O  O25  1  0.91341300  0.66040600  0.17215000  1
  O  O26  1  0.09625600  0.48013600  0.32185700  1
  O  O27  1  0.78275400  0.77363200  0.41645500  1
  O  O28  1  0.23199000  0.23426600  0.57547100  1
  O  O29  1  0.90094000  0.51876700  0.68401100  1
  O  O30  1  0.08464900  0.34038700  0.83957500  1
  O  O31  1  0.20631100  0.21079400  0.74901800  1
  O  O32  1  0.74371100  0.65852600  0.67506000  1
  O  O33  1  0.82204500  0.48631700  0.32774500  1
  O  O34  1  0.90035100  0.38172700  0.18018800  1
  O  O35  1  0.98408400  0.23135700  0.07349100  1
  O  O36  1  0.00052500  0.24015900  0.42341900  1
  O  O37  1  0.00218200  0.21205300  0.24881100  1
  O  O38  1  0.92003900  0.25581800  0.66834600  1
  O  O39  1  0.66521200  0.48185200  0.82759100  1
  O  O40  1  0.61659100  0.52154200  0.17946600  1
  O  O41  1  0.81649700  0.33110200  0.82509900  1
  O  O42  1  0.67864300  0.34514800  0.47214100  1
  O  O43  1  0.67320800  0.33222300  0.96928500  1
  O  O44  1  0.47506700  0.38206700  0.67836000  1
  O  O45  1  0.67186000  0.18441900  0.33181900  1
  O  O46  1  0.52546300  0.33891200  0.32591800  1
  O  O47  1  0.74018600  0.08427800  0.17333600  1
  O  O48  1  0.78188400  0.98514200  0.73777400  1
  O  O49  1  0.77635800  0.01179900  0.91392500  1
  O  O50  1  0.61828200  0.09877100  0.67857500  1
  O  O51  1  0.51604800  0.18324600  0.82577900  1
  O  O52  1  0.34045400  0.25577900  0.17428800  1
  O  O53  1  0.47952100  0.09851800  0.18336800  1
  O  O54  1  0.23585500  0.22921300  0.92331600  1
  O  O55  1  0.34157700  0.08661700  0.66883400  1
  O  O56  1  0.22828500  0.00025900  0.42460900  1
  O  O57  1  0.20372300  0.98982100  0.24569800  1
loop_
_geom_bond_atom_site_label_1
_geom_bond_atom_site_label_2
_geom_bond_distance
_geom_bond_site_symmetry_2
Li0 O27 1.881673 1_555
Li0 O21 1.894642 1_555
Li0 O18 2.078781 1_655
Li0 O33 2.400511 1_555
Li1 O3 1.858944 1_556
Li1 O20 1.893284 1_555
Li1 O5 2.136489 1_555
Li1 O39 2.490353 1_555
Li2 O28 1.876390 1_555
Li2 O36 1.938289 1_555
Li2 O38 2.305742 1_455
Li2 O23 2.603878 1_555
Li3 O35 1.855426 1_556
Li3 O49 1.869436 1_555
Li3 O30 2.169884 1_655
Li4 O0 1.937015 1_555
Li4 O36 1.980740 1_655
Li4 O1 2.024517 1_545
Li4 O45 2.278749 1_555
Li5 O8 1.871930 1_556
Li5 O54 1.892785 1_555
Li5 O9 2.150551 1_545
Li5 O51 2.558342 1_555
O0 P13 1.478231 1_555
O1 P1 1.558582 1_555
O1 V5 1.975347 1_555
O2 P8 1.604048 1_555
O2 P1 1.623223 1_555
O3 P8 1.479715 1_555
O4 P0 1.558153 1_555
O4 V0 1.873864 1_565
O5 P0 1.553544 1_555
O5 V1 1.980182 1_555
O6 P4 1.593573 1_555
O6 V5 1.846516 1_555
O7 P2 1.571605 1_555
O7 V5 1.856151 1_555
O8 P15 1.480927 1_555
O9 P5 1.552697 1_555
O9 V0 1.987823 1_565
O10 P3 1.587501 1_555
O10 V1 1.847984 1_555
O11 P3 1.582185 1_555
O11 V0 1.872096 1_565
O12 P1 1.550994 1_555
O12 V4 1.886515 1_555
O13 P3 1.477908 1_555
O14 P4 1.479466 1_555
O15 P7 1.556297 1_555
O15 V1 1.877860 1_555
O16 P4 1.598085 1_555
O16 V2 1.838944 1_555
O17 P4 1.559135 1_555
O17 V4 1.917690 1_555
O18 P2 1.568191 1_555
O18 V2 1.941971 1_555
O19 P6 1.607228 1_455
O19 P5 1.620644 1_555
O20 P5 1.477639 1_655
O21 P6 1.468298 1_555
O22 P5 1.569385 1_555
O22 V3 1.857355 1_455
O23 P3 1.584321 1_555
O23 V3 1.901108 1_455
O24 P9 1.542403 1_555
O24 V4 1.903632 1_555
O25 P8 1.562762 1_555
O25 V2 1.854476 1_655
O26 P9 1.539649 1_555
O26 V2 1.909759 1_555
O27 P1 1.481084 1_555
O28 P14 1.472963 1_555
O29 P6 1.568130 1_555
O29 V3 1.847159 1_555
O30 P7 1.563114 1_555
O30 V3 1.966572 1_455
O31 P14 1.612139 1_555
O31 P7 1.614923 1_555
O32 P6 1.554103 1_555
O32 V1 1.863698 1_555
O33 P12 1.581099 1_555
O33 V2 1.930393 1_655
O34 P10 1.559100 1_555
O34 V2 1.866405 1_655
O35 P10 1.479607 1_555
O36 P9 1.504119 1_555
O37 P9 1.609707 1_555
O37 P10 1.612672 1_455
O38 P13 1.561369 1_555
O38 V3 1.951393 1_555
O39 P11 1.570920 1_555
O39 V1 1.950157 1_555
O40 P8 1.550584 1_555
O40 V4 1.889104 1_555
O41 P11 1.603657 1_555
O41 V3 1.866438 1_555
O42 P12 1.487192 1_555
O43 P11 1.484328 1_555
O44 P14 1.571167 1_555
O44 V1 1.850099 1_555
O45 P12 1.578561 1_555
O45 V5 1.983013 1_545
O46 P12 1.589936 1_555
O46 V4 1.859381 1_555
O47 P10 1.546780 1_555
O47 V5 1.878909 1_545
O48 P13 1.605593 1_565
O48 P0 1.630231 1_555
O49 P0 1.477914 1_545
O50 P13 1.568434 1_555
O50 V0 1.851104 1_555
O51 P11 1.576710 1_555
O51 V0 1.925614 1_555
O52 P15 1.547413 1_555
O52 V4 1.878657 1_555
O53 P15 1.569825 1_555
O53 V5 1.842752 1_545
O54 P7 1.478584 1_555
O55 P14 1.552052 1_555
O55 V0 1.878922 1_555
O56 P2 1.466610 1_545
O57 P15 1.597263 1_565
O57 P2 1.632298 1_555
