# generated using pymatgen
data_Na2Ti2O5
_symmetry_space_group_name_H-M   'P 1'
_cell_length_a   12.14954200
_cell_length_b   5.49714800
_cell_length_c   10.76950635
_cell_angle_alpha   59.86091309
_cell_angle_beta   90.00000000
_cell_angle_gamma   90.00000000
_symmetry_Int_Tables_number   1
_chemical_formula_structural   Na2Ti2O5
_chemical_formula_sum   'Na8 Ti8 O20'
_cell_volume   622.03293420
_cell_formula_units_Z   4
loop_
 _symmetry_equiv_pos_site_id
 _symmetry_equiv_pos_as_xyz
  1  'x, y, z'
loop_
 _atom_site_type_symbol
 _atom_site_label
 _atom_site_symmetry_multiplicity
 _atom_site_fract_x
 _atom_site_fract_y
 _atom_site_fract_z
 _atom_site_occupancy
  Na  Na0  1  0.52865300  0.08215300  0.61987000  1
  Na  Na1  1  0.99623200  0.58417900  0.62941600  1
  Na  Na2  1  0.49623200  0.41582100  0.87058400  1
  Na  Na3  1  0.02865300  0.91784700  0.88013000  1
  Na  Na4  1  0.97134700  0.08215300  0.11987000  1
  Na  Na5  1  0.50376800  0.58417900  0.12941600  1
  Na  Na6  1  0.00376800  0.41582100  0.37058400  1
  Na  Na7  1  0.47134700  0.91784700  0.38013000  1
  Ti  Ti0  1  0.69292100  0.63083700  0.55786400  1
  Ti  Ti1  1  0.82472100  0.01741700  0.67305700  1
  Ti  Ti2  1  0.32472100  0.98258300  0.82694300  1
  Ti  Ti3  1  0.19292100  0.36916300  0.94213600  1
  Ti  Ti4  1  0.80707900  0.63083700  0.05786400  1
  Ti  Ti5  1  0.67527900  0.01741700  0.17305700  1
  Ti  Ti6  1  0.17527900  0.98258300  0.32694300  1
  Ti  Ti7  1  0.30707900  0.36916300  0.44213600  1
  O  O0  1  0.71144700  0.27525200  0.57858900  1
  O  O1  1  0.56500100  0.64197300  0.63002600  1
  O  O2  1  0.95656700  0.15844700  0.61945900  1
  O  O3  1  0.80965500  0.71329100  0.64286100  1
  O  O4  1  0.31814200  0.10084000  0.63381300  1
  O  O5  1  0.30965500  0.28670900  0.85713900  1
  O  O6  1  0.81814200  0.89916000  0.86618700  1
  O  O7  1  0.45656700  0.84155300  0.88054100  1
  O  O8  1  0.06500100  0.35802700  0.86997400  1
  O  O9  1  0.21144700  0.72474800  0.92141100  1
  O  O10  1  0.78855300  0.27525200  0.07858900  1
  O  O11  1  0.93499900  0.64197300  0.13002600  1
  O  O12  1  0.54343300  0.15844700  0.11945900  1
  O  O13  1  0.18185800  0.10084000  0.13381300  1
  O  O14  1  0.69034500  0.71329100  0.14286100  1
  O  O15  1  0.68185800  0.89916000  0.36618700  1
  O  O16  1  0.19034500  0.28670900  0.35713900  1
  O  O17  1  0.04343300  0.84155300  0.38054100  1
  O  O18  1  0.43499900  0.35802700  0.36997400  1
  O  O19  1  0.28855300  0.72474800  0.42141100  1
loop_
_geom_bond_atom_site_label_1
_geom_bond_atom_site_label_2
_geom_bond_distance
_geom_bond_site_symmetry_2
Na0 O0 2.404736 1_555
Na0 O1 2.407557 1_545
Na0 O4 2.567094 1_555
Na0 O7 2.582383 1_545
Na0 O18 2.595941 1_555
Na1 O17 2.388800 1_655
Na1 O8 2.391867 1_655
Na1 O3 2.401334 1_555
Na1 O2 2.443933 1_555
Na2 O12 2.388800 1_556
Na2 O1 2.391867 1_555
Na2 O5 2.401334 1_555
Na2 O7 2.443933 1_555
Na3 O9 2.404736 1_555
Na3 O8 2.407557 1_565
Na3 O6 2.567094 1_455
Na3 O2 2.582383 1_465
Na3 O11 2.595941 1_456
Na4 O10 2.404736 1_555
Na4 O11 2.407557 1_545
Na4 O13 2.567094 1_655
Na4 O17 2.582383 1_645
Na4 O8 2.595941 1_654
Na5 O7 2.388800 1_554
Na5 O18 2.391867 1_555
Na5 O14 2.401334 1_555
Na5 O12 2.443933 1_555
Na6 O2 2.388800 1_455
Na6 O11 2.391867 1_455
Na6 O16 2.401334 1_555
Na6 O17 2.443933 1_555
Na7 O19 2.404736 1_555
Na7 O18 2.407557 1_565
Na7 O15 2.567094 1_555
Na7 O12 2.582383 1_565
Na7 O1 2.595941 1_555
O0 Ti0 1.866340 1_555
O0 Ti1 1.868130 1_555
O1 Ti0 1.752405 1_555
O2 Ti1 1.746660 1_555
O3 Ti0 1.863191 1_555
O3 Ti1 1.865533 1_565
O4 Ti2 1.843163 1_545
O4 Ti7 1.843180 1_555
O5 Ti3 1.863191 1_555
O5 Ti2 1.865533 1_545
O6 Ti1 1.843163 1_565
O6 Ti4 1.843180 1_556
O7 Ti2 1.746660 1_555
O8 Ti3 1.752405 1_555
O9 Ti3 1.866340 1_555
O9 Ti2 1.868130 1_555
O10 Ti4 1.866340 1_555
O10 Ti5 1.868130 1_555
O11 Ti4 1.752405 1_555
O12 Ti5 1.746660 1_555
O13 Ti6 1.843163 1_545
O13 Ti3 1.843180 1_554
O14 Ti4 1.863191 1_555
O14 Ti5 1.865533 1_565
O15 Ti5 1.843163 1_565
O15 Ti0 1.843180 1_555
O16 Ti7 1.863191 1_555
O16 Ti6 1.865533 1_545
O17 Ti6 1.746660 1_555
O18 Ti7 1.752405 1_555
O19 Ti7 1.866340 1_555
O19 Ti6 1.868130 1_555
