# generated using pymatgen
data_Li4MnNi3(PO4)4
_symmetry_space_group_name_H-M   'P 1'
_cell_length_a   4.73502631
_cell_length_b   10.19185797
_cell_length_c   5.97256700
_cell_angle_alpha   90.00000000
_cell_angle_beta   90.00000000
_cell_angle_gamma   89.91360257
_symmetry_Int_Tables_number   1
_chemical_formula_structural   Li4MnNi3(PO4)4
_chemical_formula_sum   'Li4 Mn1 Ni3 P4 O16'
_cell_volume   288.22808491
_cell_formula_units_Z   1
loop_
 _symmetry_equiv_pos_site_id
 _symmetry_equiv_pos_as_xyz
  1  'x, y, z'
loop_
 _atom_site_type_symbol
 _atom_site_label
 _atom_site_symmetry_multiplicity
 _atom_site_fract_x
 _atom_site_fract_y
 _atom_site_fract_z
 _atom_site_occupancy
  Li  Li0  1  0.00043600  0.99834000  0.99996300  1
  Li  Li1  1  0.00043600  0.99834000  0.50003700  1
  Li  Li2  1  0.49889900  0.50220100  0.50048600  1
  Li  Li3  1  0.49889900  0.50220100  0.99951400  1
  Mn  Mn0  1  0.97521300  0.27891800  0.25000000  1
  Ni  Ni0  1  0.01954700  0.72582100  0.75000000  1
  Ni  Ni1  1  0.48109200  0.22184700  0.75000000  1
  Ni  Ni2  1  0.52080800  0.77664200  0.25000000  1
  P  P0  1  0.08760800  0.59845900  0.25000000  1
  P  P1  1  0.41754300  0.08936900  0.25000000  1
  P  P2  1  0.58421200  0.90519200  0.75000000  1
  P  P3  1  0.91131800  0.40699400  0.75000000  1
  O  O0  1  0.20865400  0.45717500  0.25000000  1
  O  O1  1  0.22598400  0.66840700  0.04281100  1
  O  O2  1  0.22598400  0.66840700  0.45718900  1
  O  O3  1  0.23474300  0.39823900  0.75000000  1
  O  O4  1  0.26058500  0.89940700  0.75000000  1
  O  O5  1  0.28150900  0.16082700  0.04325400  1
  O  O6  1  0.28150900  0.16082700  0.45674600  1
  O  O7  1  0.29476000  0.94801000  0.25000000  1
  O  O8  1  0.70157600  0.04741900  0.75000000  1
  O  O9  1  0.72540100  0.83447800  0.54404600  1
  O  O10  1  0.72540100  0.83447800  0.95595400  1
  O  O11  1  0.74041600  0.09296700  0.25000000  1
  O  O12  1  0.76351500  0.60127300  0.25000000  1
  O  O13  1  0.76695300  0.33673800  0.54647100  1
  O  O14  1  0.76695300  0.33673800  0.95352900  1
  O  O15  1  0.80004300  0.55028700  0.75000000  1
loop_
_geom_bond_atom_site_label_1
_geom_bond_atom_site_label_2
_geom_bond_distance
_geom_bond_site_symmetry_2
Li0 O7 2.105543 1_556
Li0 O8 2.116464 1_465
Li0 O10 2.135585 1_455
Li0 O5 2.141786 1_566
Li0 O11 2.161602 1_466
Li0 O4 2.181541 1_555
Li1 O7 2.105543 1_555
Li1 O8 2.116464 1_465
Li1 O9 2.135585 1_455
Li1 O6 2.141786 1_565
Li1 O11 2.161602 1_465
Li1 O4 2.181541 1_555
Li2 O0 2.083120 1_555
Li2 O15 2.120464 1_555
Li2 O13 2.126926 1_555
Li2 O2 2.144683 1_555
Li2 O12 2.198052 1_555
Li2 O3 2.216293 1_555
Li3 O0 2.083120 1_556
Li3 O15 2.120464 1_555
Li3 O14 2.126926 1_555
Li3 O1 2.144683 1_556
Li3 O12 2.198052 1_556
Li3 O3 2.216293 1_555
Mn0 O13 2.110283 1_555
Mn0 O14 2.110283 1_554
Mn0 O0 2.128029 1_655
Mn0 O11 2.198663 1_555
Mn0 O5 2.251994 1_655
Mn0 O6 2.251994 1_655
Ni0 O15 2.070376 1_455
Ni0 O1 2.086762 1_556
Ni0 O2 2.086762 1_555
Ni0 O4 2.106809 1_555
Ni0 O10 2.162097 1_455
Ni0 O9 2.162097 1_455
Ni1 O8 2.060270 1_555
Ni1 O5 2.085498 1_556
Ni1 O6 2.085498 1_555
Ni1 O3 2.141559 1_555
Ni1 O14 2.164646 1_555
Ni1 O13 2.164646 1_555
Ni2 O7 2.047062 1_555
Ni2 O9 2.090917 1_555
Ni2 O10 2.090917 1_554
Ni2 O12 2.123462 1_555
Ni2 O2 2.168319 1_555
Ni2 O1 2.168319 1_555
O0 P0 1.549021 1_555
O1 P0 1.571694 1_555
O2 P0 1.571694 1_555
O3 P3 1.533889 1_455
O4 P2 1.533605 1_555
O5 P1 1.571187 1_555
O6 P1 1.571187 1_555
O7 P1 1.554406 1_565
O8 P2 1.553214 1_545
O9 P2 1.574162 1_555
O10 P2 1.574162 1_555
O11 P1 1.529307 1_555
O12 P0 1.534814 1_655
O13 P3 1.568158 1_555
O14 P3 1.568158 1_555
O15 P3 1.551813 1_555
