# generated using pymatgen
data_LaNb2O7
_symmetry_space_group_name_H-M   'P 1'
_cell_length_a   3.93541700
_cell_length_b   3.93541700
_cell_length_c   10.61050500
_cell_angle_alpha   90.00000000
_cell_angle_beta   90.00000000
_cell_angle_gamma   90.00000000
_symmetry_Int_Tables_number   1
_chemical_formula_structural   LaNb2O7
_chemical_formula_sum   'La1 Nb2 O7'
_cell_volume   164.33027008
_cell_formula_units_Z   1
loop_
 _symmetry_equiv_pos_site_id
 _symmetry_equiv_pos_as_xyz
  1  'x, y, z'
loop_
 _atom_site_type_symbol
 _atom_site_label
 _atom_site_symmetry_multiplicity
 _atom_site_fract_x
 _atom_site_fract_y
 _atom_site_fract_z
 _atom_site_occupancy
  La  La0  1  0.00000000  0.00000000  0.00000000  1
  Nb  Nb0  1  0.50000000  0.50000000  0.77947700  1
  Nb  Nb1  1  0.50000000  0.50000000  0.22052300  1
  O  O0  1  0.50000000  0.00000000  0.83045800  1
  O  O1  1  0.00000000  0.50000000  0.83045800  1
  O  O2  1  0.50000000  0.00000000  0.16954200  1
  O  O3  1  0.00000000  0.50000000  0.16954200  1
  O  O4  1  0.50000000  0.50000000  0.61442500  1
  O  O5  1  0.50000000  0.50000000  0.38557500  1
  O  O6  1  0.50000000  0.50000000  0.00000000  1
loop_
_geom_bond_atom_site_label_1
_geom_bond_atom_site_label_2
_geom_bond_distance
_geom_bond_site_symmetry_2
La0 O1 2.666086 1_544
La0 O0 2.666086 1_454
La0 O0 2.666086 1_554
La0 O3 2.666086 1_555
La0 O1 2.666086 1_554
La0 O2 2.666086 1_455
La0 O3 2.666086 1_545
La0 O2 2.666086 1_555
La0 O6 2.782760 1_455
La0 O6 2.782760 1_555
La0 O6 2.782760 1_445
La0 O6 2.782760 1_545
Nb0 O4 1.751285 1_555
Nb0 O1 2.040707 1_555
Nb0 O0 2.040707 1_565
Nb0 O1 2.040707 1_655
Nb0 O0 2.040707 1_555
Nb0 O6 2.339860 1_556
Nb1 O5 1.751285 1_555
Nb1 O3 2.040707 1_555
Nb1 O2 2.040707 1_555
Nb1 O3 2.040707 1_655
Nb1 O2 2.040707 1_565
Nb1 O6 2.339860 1_555
