# generated using pymatgen
data_Ho2TeO6
_symmetry_space_group_name_H-M   'P 1'
_cell_length_a   5.22893164
_cell_length_b   9.02023697
_cell_length_c   9.87756462
_cell_angle_alpha   90.00000000
_cell_angle_beta   90.00000000
_cell_angle_gamma   90.00000000
_symmetry_Int_Tables_number   1
_chemical_formula_structural   Ho2TeO6
_chemical_formula_sum   'Ho8 Te4 O24'
_cell_volume   465.88721300
_cell_formula_units_Z   4
loop_
 _symmetry_equiv_pos_site_id
 _symmetry_equiv_pos_as_xyz
  1  'x, y, z'
loop_
 _atom_site_type_symbol
 _atom_site_label
 _atom_site_symmetry_multiplicity
 _atom_site_fract_x
 _atom_site_fract_y
 _atom_site_fract_z
 _atom_site_occupancy
  Ho  Ho0  1  0.01953735  0.39597080  0.03764936  1
  Ho  Ho1  1  0.03839245  0.28287351  0.63456824  1
  Ho  Ho2  1  0.46160755  0.71712649  0.13456824  1
  Ho  Ho3  1  0.48046265  0.60402920  0.53764936  1
  Ho  Ho4  1  0.51953735  0.10402920  0.96235064  1
  Ho  Ho5  1  0.53839245  0.21712649  0.36543176  1
  Ho  Ho6  1  0.96160755  0.78287351  0.86543176  1
  Ho  Ho7  1  0.98046265  0.89597080  0.46235064  1
  Te  Te0  1  0.03875628  0.00499618  0.14850806  1
  Te  Te1  1  0.46124372  0.99500382  0.64850806  1
  Te  Te2  1  0.53875628  0.49500382  0.85149194  1
  Te  Te3  1  0.96124372  0.50499618  0.35149194  1
  O  O0  1  0.08623218  0.65503368  0.47133503  1
  O  O1  1  0.16852772  0.55124762  0.20017642  1
  O  O2  1  0.18821191  0.85878226  0.26215667  1
  O  O3  1  0.18052644  0.85944815  0.67926251  1
  O  O4  1  0.23236230  0.38532016  0.42988390  1
  O  O5  1  0.25630424  0.08508424  0.50520389  1
  O  O6  1  0.24369576  0.91491576  0.00520389  1
  O  O7  1  0.26763770  0.61467984  0.92988390  1
  O  O8  1  0.31947356  0.14055185  0.17926251  1
  O  O9  1  0.31178809  0.14121774  0.76215667  1
  O  O10  1  0.33147228  0.44875238  0.70017642  1
  O  O11  1  0.41376782  0.34496632  0.97133503  1
  O  O12  1  0.58623218  0.84496632  0.52866497  1
  O  O13  1  0.66852772  0.94875238  0.79982358  1
  O  O14  1  0.68821191  0.64121774  0.73784333  1
  O  O15  1  0.68052644  0.64055185  0.32073749  1
  O  O16  1  0.73236230  0.11467984  0.57011610  1
  O  O17  1  0.75630424  0.41491576  0.49479611  1
  O  O18  1  0.74369576  0.58508424  0.99479611  1
  O  O19  1  0.76763770  0.88532016  0.07011610  1
  O  O20  1  0.81947356  0.35944815  0.82073749  1
  O  O21  1  0.81178809  0.35878226  0.23784333  1
  O  O22  1  0.83147228  0.05124762  0.29982358  1
  O  O23  1  0.91376782  0.15503368  0.02866497  1
loop_
_geom_bond_atom_site_label_1
_geom_bond_atom_site_label_2
_geom_bond_distance
_geom_bond_site_symmetry_2
Ho0 O11 2.211359 1_554
Ho0 O23 2.244333 1_455
Ho0 O1 2.268464 1_555
Ho0 O18 2.273649 1_454
Ho0 O21 2.280968 1_455
Ho0 O20 2.406962 1_454
Ho0 O7 2.589987 1_554
Ho1 O10 2.237704 1_555
Ho1 O20 2.273546 1_455
Ho1 O9 2.294475 1_555
Ho1 O16 2.295149 1_455
Ho1 O17 2.345287 1_455
Ho1 O4 2.443413 1_555
Ho1 O5 2.472682 1_555
Ho2 O1 2.237704 1_555
Ho2 O15 2.273546 1_555
Ho2 O2 2.294475 1_555
Ho2 O19 2.295149 1_555
Ho2 O18 2.345287 1_554
Ho2 O7 2.443413 1_554
Ho2 O6 2.472682 1_555
Ho3 O0 2.211359 1_555
Ho3 O12 2.244333 1_555
Ho3 O10 2.268464 1_555
Ho3 O17 2.273649 1_555
Ho3 O14 2.280968 1_555
Ho3 O15 2.406962 1_555
Ho3 O4 2.589987 1_555
Ho4 O23 2.211359 1_556
Ho4 O11 2.244333 1_555
Ho4 O13 2.268464 1_545
Ho4 O6 2.273649 1_546
Ho4 O9 2.280968 1_555
Ho4 O8 2.406962 1_556
Ho4 O19 2.589987 1_546
Ho5 O22 2.237704 1_555
Ho5 O8 2.273546 1_555
Ho5 O21 2.294475 1_555
Ho5 O4 2.295149 1_555
Ho5 O5 2.345287 1_555
Ho5 O16 2.443413 1_555
Ho5 O17 2.472682 1_555
Ho6 O13 2.237704 1_555
Ho6 O3 2.273546 1_655
Ho6 O14 2.294475 1_555
Ho6 O7 2.295149 1_655
Ho6 O6 2.345287 1_656
Ho6 O19 2.443413 1_556
Ho6 O18 2.472682 1_555
Ho7 O12 2.211359 1_555
Ho7 O0 2.244333 1_655
Ho7 O22 2.268464 1_565
Ho7 O5 2.273649 1_665
Ho7 O2 2.280968 1_655
Ho7 O3 2.406962 1_655
Ho7 O16 2.589987 1_565
O0 Te3 1.913123 1_455
O1 Te3 1.892816 1_455
O2 Te0 1.900093 1_565
O3 Te1 1.934418 1_555
O4 Te3 1.942851 1_455
O5 Te1 1.952491 1_545
O6 Te0 1.952491 1_565
O7 Te2 1.942851 1_555
O8 Te0 1.934418 1_555
O9 Te1 1.900093 1_545
O10 Te2 1.892816 1_555
O11 Te2 1.913123 1_555
O12 Te1 1.913123 1_555
O13 Te1 1.892816 1_555
O14 Te2 1.900093 1_555
O15 Te3 1.934418 1_555
O16 Te1 1.942851 1_545
O17 Te3 1.952491 1_555
O18 Te2 1.952491 1_555
O19 Te0 1.942851 1_665
O20 Te2 1.934418 1_555
O21 Te3 1.900093 1_555
O22 Te0 1.892816 1_655
O23 Te0 1.913123 1_655
