# generated using pymatgen
data_LiFe2F5
_symmetry_space_group_name_H-M   'P 1'
_cell_length_a   6.45043218
_cell_length_b   6.45043218
_cell_length_c   5.46987241
_cell_angle_alpha   88.94806282
_cell_angle_beta   88.94806282
_cell_angle_gamma   48.77996473
_symmetry_Int_Tables_number   1
_chemical_formula_structural   LiFe2F5
_chemical_formula_sum   'Li2 Fe4 F10'
_cell_volume   171.15554304
_cell_formula_units_Z   2
loop_
 _symmetry_equiv_pos_site_id
 _symmetry_equiv_pos_as_xyz
  1  'x, y, z'
loop_
 _atom_site_type_symbol
 _atom_site_label
 _atom_site_symmetry_multiplicity
 _atom_site_fract_x
 _atom_site_fract_y
 _atom_site_fract_z
 _atom_site_occupancy
  Li  Li0  1  0.00000000  0.50000000  0.50000000  1
  Li  Li1  1  0.50000000  0.00000000  0.00000000  1
  Fe  Fe0  1  0.65892200  0.15126700  0.53830000  1
  Fe  Fe1  1  0.15126700  0.65892200  0.03830000  1
  Fe  Fe2  1  0.84873300  0.34107800  0.96170000  1
  Fe  Fe3  1  0.34107800  0.84873300  0.46170000  1
  F  F0  1  0.53126100  0.29203700  0.90607000  1
  F  F1  1  0.29203700  0.53126100  0.40607000  1
  F  F2  1  0.86850000  0.69297400  0.83783000  1
  F  F3  1  0.69297400  0.86850000  0.33783000  1
  F  F4  1  0.30702600  0.13150000  0.66217000  1
  F  F5  1  0.13150000  0.30702600  0.16217000  1
  F  F6  1  0.70796300  0.46873900  0.59393000  1
  F  F7  1  0.46873900  0.70796300  0.09393000  1
  F  F8  1  0.04542900  0.95457100  0.75000000  1
  F  F9  1  0.95457100  0.04542900  0.25000000  1
loop_
_geom_bond_atom_site_label_1
_geom_bond_atom_site_label_2
_geom_bond_distance
_geom_bond_site_symmetry_2
F0 Li1 2.077132 1_556
F0 Fe1 2.117712 1_556
F0 Fe0 2.137797 1_555
F0 Fe2 2.294870 1_555
F1 Li0 2.077132 1_555
F1 Fe0 2.117712 1_555
F1 Fe1 2.137797 1_555
F1 Fe3 2.294870 1_555
F2 Fe1 2.028329 1_656
F2 Li1 2.035225 1_566
F2 Li0 2.078225 1_655
F2 Fe2 2.439157 1_555
F3 Fe0 2.028329 1_565
F3 Li0 2.035225 1_655
F3 Li1 2.078225 1_565
F3 Fe3 2.439157 1_555
F4 Fe3 2.028329 1_545
F4 Li0 2.035225 1_555
F4 Li1 2.078225 1_556
F4 Fe0 2.439157 1_555
F5 Fe2 2.028329 1_454
F5 Li1 2.035225 1_555
F5 Li0 2.078225 1_555
F5 Fe1 2.439157 1_555
F6 Li0 2.077132 1_655
F6 Fe3 2.117712 1_555
F6 Fe2 2.137797 1_555
F6 Fe0 2.294870 1_555
F7 Li1 2.077132 1_565
F7 Fe2 2.117712 1_554
F7 Fe3 2.137797 1_555
F7 Fe1 2.294870 1_555
F8 Fe3 2.191585 1_555
F8 Fe1 2.191585 1_556
F8 Fe2 2.247141 1_465
F8 Fe0 2.247141 1_465
F9 Fe2 2.191585 1_554
F9 Fe0 2.191585 1_555
F9 Fe3 2.247141 1_645
F9 Fe1 2.247141 1_645
