# generated using pymatgen
data_BaC2(N3O2)2
_symmetry_space_group_name_H-M   'P 1'
_cell_length_a   7.80726011
_cell_length_b   7.80726011
_cell_length_c   4.66914781
_cell_angle_alpha   82.12186608
_cell_angle_beta   82.12186608
_cell_angle_gamma   55.12876632
_symmetry_Int_Tables_number   1
_chemical_formula_structural   BaC2(N3O2)2
_chemical_formula_sum   'Ba1 C2 N6 O4'
_cell_volume   230.68904399
_cell_formula_units_Z   1
loop_
 _symmetry_equiv_pos_site_id
 _symmetry_equiv_pos_as_xyz
  1  'x, y, z'
loop_
 _atom_site_type_symbol
 _atom_site_label
 _atom_site_symmetry_multiplicity
 _atom_site_fract_x
 _atom_site_fract_y
 _atom_site_fract_z
 _atom_site_occupancy
  Ba  Ba0  1  0.08134700  0.91865300  0.00000000  1
  C  C0  1  0.00951800  0.28178600  0.55422500  1
  C  C1  1  0.71821400  0.99048200  0.44577500  1
  N  N0  1  0.06181500  0.46914700  0.39939200  1
  N  N1  1  0.53085300  0.93818500  0.60060800  1
  N  N2  1  0.44652600  0.52276700  0.61796900  1
  N  N3  1  0.47723300  0.55347400  0.38203100  1
  N  N4  1  0.12785800  0.47360500  0.16195200  1
  N  N5  1  0.52639500  0.87214200  0.83804800  1
  O  O0  1  0.10327900  0.11824500  0.42461300  1
  O  O1  1  0.88175500  0.89672100  0.57538700  1
  O  O2  1  0.90593800  0.33413000  0.78841800  1
  O  O3  1  0.66587000  0.09406200  0.21158200  1
loop_
_geom_bond_atom_site_label_1
_geom_bond_atom_site_label_2
_geom_bond_distance
_geom_bond_site_symmetry_2
Ba0 O0 2.762826 1_565
Ba0 O1 2.762826 1_454
Ba0 O2 2.790366 1_464
Ba0 O3 2.790366 1_465
Ba0 O0 2.950682 1_564
Ba0 O1 2.950682 1_455
Ba0 N5 3.269378 1_554
Ba0 N4 3.269378 1_555
Ba0 N3 3.302156 1_555
Ba0 N2 3.302156 1_554
C0 O2 1.232424 1_455
C0 O0 1.246583 1_555
C0 N0 1.772337 1_555
C1 O3 1.232424 1_565
C1 O1 1.246583 1_555
C1 N1 1.772337 1_555
N0 N4 1.161636 1_555
N1 N5 1.161636 1_555
N2 N3 1.117791 1_555
