# generated using pymatgen
data_K3ZrHS(OF)5
_symmetry_space_group_name_H-M   'P 1'
_cell_length_a   10.27589300
_cell_length_b   10.27589300
_cell_length_c   13.31109200
_cell_angle_alpha   90.00000000
_cell_angle_beta   90.00000000
_cell_angle_gamma   134.41539505
_symmetry_Int_Tables_number   1
_chemical_formula_structural   K3ZrHS(OF)5
_chemical_formula_sum   'K12 Zr4 H4 S4 O20 F20'
_cell_volume   1003.97790264
_cell_formula_units_Z   4
loop_
 _symmetry_equiv_pos_site_id
 _symmetry_equiv_pos_as_xyz
  1  'x, y, z'
loop_
 _atom_site_type_symbol
 _atom_site_label
 _atom_site_symmetry_multiplicity
 _atom_site_fract_x
 _atom_site_fract_y
 _atom_site_fract_z
 _atom_site_occupancy
  K  K0  1  0.16992000  0.32207400  0.29108500  1
  K  K1  1  0.67792600  0.83008000  0.29108500  1
  K  K2  1  0.83008000  0.67792600  0.79108500  1
  K  K3  1  0.32207400  0.16992000  0.79108500  1
  K  K4  1  0.09532600  0.90467400  0.50575600  1
  K  K5  1  0.90467400  0.09532600  0.00575600  1
  K  K6  1  0.03181300  0.46815300  0.77173400  1
  K  K7  1  0.53184700  0.96818700  0.77173400  1
  K  K8  1  0.96818700  0.53184700  0.27173400  1
  K  K9  1  0.46815300  0.03181300  0.27173400  1
  K  K10  1  0.57624800  0.42375200  0.07970200  1
  K  K11  1  0.42375200  0.57624800  0.57970200  1
  Zr  Zr0  1  0.84066400  0.15933600  0.49584100  1
  Zr  Zr1  1  0.15933600  0.84066400  0.99584100  1
  Zr  Zr2  1  0.65455300  0.34544700  0.58810400  1
  Zr  Zr3  1  0.34544700  0.65455300  0.08810400  1
  H  H0  1  0.17383600  0.62987000  0.45265400  1
  H  H1  1  0.37013000  0.82616400  0.45265400  1
  H  H2  1  0.82616400  0.37013000  0.95265400  1
  H  H3  1  0.62987000  0.17383600  0.95265400  1
  S  S0  1  0.92871000  0.07129000  0.68063200  1
  S  S1  1  0.07129000  0.92871000  0.18063200  1
  S  S2  1  0.57156600  0.42843400  0.39874500  1
  S  S3  1  0.42843400  0.57156600  0.89874500  1
  O  O0  1  0.04817000  0.24931600  0.62200700  1
  O  O1  1  0.75068400  0.95183000  0.62200700  1
  O  O2  1  0.95183000  0.75068400  0.12200700  1
  O  O3  1  0.24931600  0.04817000  0.12200700  1
  O  O4  1  0.99361500  0.00638500  0.17793100  1
  O  O5  1  0.00638500  0.99361500  0.67793100  1
  O  O6  1  0.90092200  0.09907800  0.78391100  1
  O  O7  1  0.09907800  0.90092200  0.28391100  1
  O  O8  1  0.74576700  0.55145300  0.46005600  1
  O  O9  1  0.44854700  0.25423300  0.46005600  1
  O  O10  1  0.25423300  0.44854700  0.96005600  1
  O  O11  1  0.55145300  0.74576700  0.96005600  1
  O  O12  1  0.49372000  0.50628000  0.39339800  1
  O  O13  1  0.50628000  0.49372000  0.89339800  1
  O  O14  1  0.60406900  0.39593100  0.29789300  1
  O  O15  1  0.39593100  0.60406900  0.79789300  1
  O  O16  1  0.76080600  0.23919400  0.94695700  1
  O  O17  1  0.23919400  0.76080600  0.44695700  1
  O  O18  1  0.72429600  0.27570400  0.10849500  1
  O  O19  1  0.27570400  0.72429600  0.60849500  1
  F  F0  1  0.77142300  0.22857700  0.62702400  1
  F  F1  1  0.22857700  0.77142300  0.12702400  1
  F  F2  1  0.72629700  0.27370300  0.46032500  1
  F  F3  1  0.27370300  0.72629700  0.96032500  1
  F  F4  1  0.82693200  0.17306800  0.33825400  1
  F  F5  1  0.17306800  0.82693200  0.83825400  1
  F  F6  1  0.94178400  0.05821600  0.44142100  1
  F  F7  1  0.05821600  0.94178400  0.94142100  1
  F  F8  1  0.66752100  0.33247900  0.74767000  1
  F  F9  1  0.33247900  0.66752100  0.24767000  1
  F  F10  1  0.55280500  0.44719500  0.64230100  1
  F  F11  1  0.44719500  0.55280500  0.14230100  1
  F  F12  1  0.91634700  0.57367300  0.96389900  1
  F  F13  1  0.42632700  0.08365300  0.96389900  1
  F  F14  1  0.08365300  0.42632700  0.46389900  1
  F  F15  1  0.57367300  0.91634700  0.46389900  1
  F  F16  1  0.08240500  0.41796800  0.12103400  1
  F  F17  1  0.58203200  0.91759500  0.12103400  1
  F  F18  1  0.91759500  0.58203200  0.62103400  1
  F  F19  1  0.41796800  0.08240500  0.62103400  1
loop_
_geom_bond_atom_site_label_1
_geom_bond_atom_site_label_2
_geom_bond_distance
_geom_bond_site_symmetry_2
K0 O12 2.773661 1_555
K0 O4 2.801442 1_455
K1 O12 2.773661 1_555
K1 O4 2.801442 1_565
K2 O13 2.773661 1_555
K2 O5 2.801442 1_655
K3 O13 2.773661 1_555
K3 O5 2.801442 1_545
K4 O17 2.836008 1_555
K4 O5 2.844697 1_555
K4 O9 2.863207 1_565
K4 O8 2.863207 1_455
K4 O7 2.953855 1_555
K5 O16 2.836008 1_554
K5 O4 2.844697 1_555
K5 O10 2.863207 1_654
K5 O11 2.863207 1_544
K5 O6 2.953855 1_554
K6 O19 2.949092 1_555
K6 O15 2.959250 1_555
K6 O6 3.013125 1_455
K6 O16 3.091918 1_455
K6 O0 3.096180 1_555
K7 O19 2.949092 1_555
K7 O15 2.959250 1_555
K7 O6 3.013125 1_565
K7 O16 3.091918 1_565
K7 O1 3.096180 1_555
K8 O18 2.949092 1_555
K8 O14 2.959250 1_555
K8 O7 3.013125 1_655
K8 O17 3.091918 1_655
K8 O2 3.096180 1_555
K9 O18 2.949092 1_555
K9 O14 2.959250 1_555
K9 O7 3.013125 1_545
K9 O17 3.091918 1_545
K9 O3 3.096180 1_555
K10 O13 2.812008 1_554
K10 O18 2.831128 1_555
K10 O3 2.889689 1_555
K10 O2 2.889689 1_555
K10 O14 2.951808 1_555
K11 O12 2.812008 1_555
K11 O19 2.831128 1_555
K11 O0 2.889689 1_555
K11 O1 2.889689 1_555
K11 O15 2.951808 1_555
H0 O17 1.001150 1_555
H0 K8 2.881066 1_455
H1 O17 1.001150 1_555
H1 K9 2.881066 1_565
H2 O16 1.001150 1_555
H2 K6 2.881066 1_655
H3 O16 1.001150 1_555
H3 K7 2.881066 1_545
O0 S0 1.522892 1_455
O0 Zr0 2.337185 1_455
O1 S0 1.522892 1_565
O1 Zr0 2.337185 1_565
O2 S1 1.522892 1_655
O2 Zr1 2.337185 1_654
O3 S1 1.522892 1_545
O3 Zr1 2.337185 1_544
O4 S1 1.472148 1_645
O5 S0 1.472148 1_465
O6 S0 1.472126 1_555
O7 S1 1.472126 1_555
O8 S2 1.516919 1_555
O8 Zr2 2.342583 1_555
O9 S2 1.516919 1_555
O9 Zr2 2.342583 1_555
O10 S3 1.516919 1_555
O10 Zr3 2.342583 1_556
O11 S3 1.516919 1_555
O11 Zr3 2.342583 1_556
O12 S2 1.476665 1_555
O13 S3 1.476665 1_555
O14 S2 1.476965 1_555
O15 S3 1.476965 1_555
F0 Zr0 2.184098 1_555
F0 Zr2 2.274133 1_555
F0 K6 2.776771 1_655
F0 K7 2.776771 1_545
F1 Zr1 2.184098 1_554
F1 Zr3 2.274133 1_555
F1 K9 2.776771 1_565
F1 K8 2.776771 1_455
F2 Zr2 2.177332 1_555
F2 Zr0 2.217883 1_555
F2 K8 3.207460 1_555
F2 K9 3.207460 1_555
F3 Zr3 2.177332 1_556
F3 Zr1 2.217883 1_555
F3 K7 3.207460 1_555
F3 K6 3.207460 1_555
F4 Zr0 2.113729 1_555
F4 K1 2.758107 1_545
F4 K0 2.758107 1_655
F4 K9 2.998799 1_555
F4 K8 2.998799 1_555
F5 Zr1 2.113729 1_555
F5 K2 2.758107 1_455
F5 K3 2.758107 1_565
F5 K6 2.998799 1_555
F5 K7 2.998799 1_555
F6 Zr0 2.048290 1_555
F6 K0 2.820443 1_655
F6 K1 2.820443 1_545
F6 K4 3.032587 1_645
F7 Zr1 2.048290 1_555
F7 K3 2.820443 1_565
F7 K2 2.820443 1_455
F7 K5 3.032587 1_466
F8 Zr2 2.138162 1_555
F8 K2 2.724960 1_555
F8 K3 2.724960 1_555
F8 K7 2.958800 1_545
F8 K6 2.958800 1_655
F9 Zr3 2.138162 1_555
F9 K1 2.724960 1_555
F9 K0 2.724960 1_555
F9 K8 2.958800 1_455
F9 K9 2.958800 1_565
F10 Zr2 2.058382 1_555
F10 K11 2.583248 1_555
F10 K3 2.864661 1_555
F10 K2 2.864661 1_555
F11 Zr3 2.058382 1_555
F11 K10 2.583248 1_555
F11 K0 2.864661 1_555
F11 K1 2.864661 1_555
F12 H2 1.594640 1_555
F12 Zr1 2.086599 1_655
F12 K2 2.924780 1_555
F12 K10 3.070370 1_556
F13 H3 1.594640 1_555
F13 Zr1 2.086599 1_545
F13 K3 2.924780 1_555
F13 K10 3.070370 1_556
F14 H0 1.594640 1_555
F14 Zr0 2.086599 1_455
F14 K0 2.924780 1_555
F14 K11 3.070370 1_555
F15 H1 1.594640 1_555
F15 Zr0 2.086599 1_565
F15 K1 2.924780 1_555
F15 K11 3.070370 1_555
F16 Zr3 2.052007 1_555
F16 K0 2.853740 1_555
F16 K5 2.864757 1_455
F16 K8 2.948450 1_455
F17 Zr3 2.052007 1_555
F17 K1 2.853740 1_555
F17 K5 2.864757 1_565
F17 K9 2.948450 1_565
F18 Zr2 2.052007 1_555
F18 K2 2.853740 1_555
F18 K4 2.864757 1_655
F18 K6 2.948450 1_655
F19 Zr2 2.052007 1_555
F19 K3 2.853740 1_555
F19 K4 2.864757 1_545
F19 K7 2.948450 1_545
