# generated using pymatgen
data_Na8Nb5O14
_symmetry_space_group_name_H-M   'P 1'
_cell_length_a   8.66597500
_cell_length_b   8.75468883
_cell_length_c   10.82558149
_cell_angle_alpha   104.23407611
_cell_angle_beta   100.44776721
_cell_angle_gamma   112.85615725
_symmetry_Int_Tables_number   1
_chemical_formula_structural   Na8Nb5O14
_chemical_formula_sum   'Na16 Nb10 O28'
_cell_volume   697.46463932
_cell_formula_units_Z   2
loop_
 _symmetry_equiv_pos_site_id
 _symmetry_equiv_pos_as_xyz
  1  'x, y, z'
loop_
 _atom_site_type_symbol
 _atom_site_label
 _atom_site_symmetry_multiplicity
 _atom_site_fract_x
 _atom_site_fract_y
 _atom_site_fract_z
 _atom_site_occupancy
  Na  Na0  1  0.45921400  0.68297600  0.02014600  1
  Na  Na1  1  0.00000000  0.00000000  0.00000000  1
  Na  Na2  1  0.20696200  0.68676900  0.19624100  1
  Na  Na3  1  0.30501100  0.36697900  0.17547500  1
  Na  Na4  1  0.37055100  0.01936000  0.11627000  1
  Na  Na5  1  0.70371100  0.42122700  0.29622900  1
  Na  Na6  1  0.10684400  0.48203900  0.38848500  1
  Na  Na7  1  0.56775600  0.13523700  0.42814300  1
  Na  Na8  1  0.50000000  0.50000000  0.50000000  1
  Na  Na9  1  0.43224400  0.86476300  0.57185700  1
  Na  Na10  1  0.89315600  0.51796100  0.61151500  1
  Na  Na11  1  0.29628900  0.57877300  0.70377100  1
  Na  Na12  1  0.62944900  0.98064000  0.88373000  1
  Na  Na13  1  0.69498900  0.63302100  0.82452500  1
  Na  Na14  1  0.79303800  0.31323100  0.80375900  1
  Na  Na15  1  0.54078600  0.31702400  0.97985400  1
  Nb  Nb0  1  0.85253200  0.70549600  0.14192100  1
  Nb  Nb1  1  0.78015300  0.08504600  0.20944700  1
  Nb  Nb2  1  0.62520800  0.77383200  0.35689000  1
  Nb  Nb3  1  0.16937300  0.09923500  0.34451400  1
  Nb  Nb4  1  0.03199800  0.85988000  0.47120300  1
  Nb  Nb5  1  0.96800200  0.14012000  0.52879700  1
  Nb  Nb6  1  0.83062700  0.90076500  0.65548600  1
  Nb  Nb7  1  0.37479200  0.22616800  0.64311000  1
  Nb  Nb8  1  0.21984700  0.91495400  0.79055300  1
  Nb  Nb9  1  0.14746800  0.29450400  0.85807900  1
  O  O0  1  0.80759900  0.53203600  0.98482900  1
  O  O1  1  0.75536400  0.85980100  0.05861700  1
  O  O2  1  0.61848300  0.59217400  0.17883500  1
  O  O3  1  0.55745100  0.91016000  0.23514600  1
  O  O4  1  0.67104200  0.17734300  0.10644200  1
  O  O5  1  0.09703000  0.88728500  0.16488200  1
  O  O6  1  0.96814700  0.64419900  0.28661500  1
  O  O7  1  0.88191000  0.93336300  0.32708300  1
  O  O8  1  0.39358700  0.63879900  0.35453500  1
  O  O9  1  0.03431400  0.19883000  0.22181100  1
  O  O10  1  0.39826600  0.23503600  0.31261500  1
  O  O11  1  0.69514400  0.99355900  0.52641400  1
  O  O12  1  0.76369200  0.67642000  0.47315000  1
  O  O13  1  0.84493100  0.25468400  0.39554200  1
  O  O14  1  0.15506900  0.74531600  0.60445800  1
  O  O15  1  0.23630800  0.32358000  0.52685000  1
  O  O16  1  0.30485600  0.00644100  0.47358600  1
  O  O17  1  0.60173400  0.76496400  0.68738500  1
  O  O18  1  0.96568600  0.80117000  0.77818900  1
  O  O19  1  0.60641300  0.36120100  0.64546500  1
  O  O20  1  0.11809000  0.06663700  0.67291700  1
  O  O21  1  0.03185300  0.35580100  0.71338500  1
  O  O22  1  0.90297000  0.11271500  0.83511800  1
  O  O23  1  0.32895800  0.82265700  0.89355800  1
  O  O24  1  0.44254900  0.08984000  0.76485400  1
  O  O25  1  0.38151700  0.40782600  0.82116500  1
  O  O26  1  0.24463600  0.14019900  0.94138300  1
  O  O27  1  0.19240100  0.46796400  0.01517100  1
loop_
_geom_bond_atom_site_label_1
_geom_bond_atom_site_label_2
_geom_bond_distance
_geom_bond_site_symmetry_2
Na0 O1 2.316337 1_555
Na0 O27 2.327298 1_555
Na0 O3 2.405690 1_555
Na0 O23 2.446005 1_554
Na0 O2 2.480344 1_555
Na0 O25 2.560916 1_554
Na1 O26 2.291971 1_554
Na1 O1 2.291971 1_445
Na1 O5 2.415208 1_545
Na1 O22 2.415208 1_454
Na1 O9 2.483504 1_555
Na1 O18 2.483504 1_444
Na2 O27 2.324577 1_555
Na2 O5 2.362070 1_555
Na2 O8 2.367466 1_555
Na2 O6 2.386134 1_455
Na2 O3 2.782810 1_555
Na3 O10 2.307571 1_555
Na3 O27 2.357122 1_555
Na3 O8 2.404696 1_555
Na3 O9 2.455389 1_555
Na3 O26 2.622119 1_554
Na3 O2 2.652578 1_555
Na4 O10 2.372708 1_555
Na4 O5 2.419686 1_545
Na4 O23 2.463570 1_544
Na4 O4 2.465823 1_555
Na4 O3 2.499070 1_545
Na4 O26 2.650793 1_554
Na5 O12 2.358465 1_555
Na5 O6 2.405019 1_555
Na5 O2 2.419492 1_555
Na5 O4 2.454043 1_555
Na5 O13 2.541513 1_555
Na5 O10 2.579860 1_555
Na6 O13 2.397379 1_455
Na6 O9 2.444628 1_555
Na6 O8 2.474538 1_555
Na6 O6 2.508191 1_455
Na6 O15 2.654869 1_555
Na6 O14 2.683444 1_555
Na7 O11 2.274988 1_545
Na7 O10 2.313639 1_555
Na7 O16 2.321129 1_555
Na7 O13 2.350601 1_555
Na7 O3 2.454998 1_545
Na7 O19 2.543852 1_555
Na8 O12 2.326319 1_555
Na8 O15 2.326319 1_555
Na8 O10 2.392031 1_555
Na8 O17 2.392031 1_555
Na8 O19 2.468123 1_555
Na8 O8 2.468123 1_555
Na9 O16 2.274988 1_565
Na9 O17 2.313639 1_555
Na9 O11 2.321129 1_555
Na9 O14 2.350601 1_555
Na9 O24 2.454998 1_565
Na9 O8 2.543852 1_555
Na10 O14 2.397379 1_655
Na10 O18 2.444628 1_555
Na10 O19 2.474538 1_555
Na10 O21 2.508191 1_655
Na10 O12 2.654869 1_555
Na10 O13 2.683444 1_555
Na11 O15 2.358465 1_555
Na11 O21 2.405019 1_555
Na11 O25 2.419492 1_555
Na11 O23 2.454043 1_555
Na11 O14 2.541513 1_555
Na11 O17 2.579860 1_555
Na12 O17 2.372708 1_555
Na12 O22 2.419686 1_565
Na12 O4 2.463570 1_566
Na12 O23 2.465823 1_555
Na12 O24 2.499070 1_565
Na12 O1 2.650793 1_556
Na13 O17 2.307571 1_555
Na13 O0 2.357122 1_555
Na13 O19 2.404696 1_555
Na13 O18 2.455389 1_555
Na13 O1 2.622119 1_556
Na13 O25 2.652578 1_555
Na14 O0 2.324577 1_555
Na14 O22 2.362070 1_555
Na14 O19 2.367466 1_555
Na14 O21 2.386134 1_655
Na14 O24 2.782810 1_555
Na15 O26 2.316337 1_555
Na15 O0 2.327298 1_555
Na15 O24 2.405690 1_555
Na15 O4 2.446005 1_556
Na15 O25 2.480344 1_555
Na15 O2 2.560916 1_556
Nb0 O0 1.838555 1_554
Nb0 O6 2.001819 1_555
Nb0 O5 2.019633 1_655
Nb0 O2 2.045372 1_555
Nb0 O1 2.134150 1_555
Nb0 O7 2.348689 1_555
Nb1 O4 1.855974 1_555
Nb1 O9 1.996131 1_655
Nb1 O13 2.012500 1_555
Nb1 O3 2.062756 1_545
Nb1 O1 2.135681 1_545
Nb1 O7 2.344527 1_545
Nb2 O8 1.884249 1_555
Nb2 O11 2.095357 1_555
Nb2 O12 2.127592 1_555
Nb2 O3 2.131554 1_555
Nb2 O2 2.151239 1_555
Nb2 O7 2.252074 1_555
Nb3 O10 2.021298 1_555
Nb3 O5 2.120698 1_545
Nb3 O9 2.166351 1_555
Nb3 O16 2.166804 1_555
Nb3 O15 2.209862 1_555
Nb3 O7 2.287947 1_445
Nb4 O6 2.190080 1_455
Nb4 O16 2.200665 1_565
Nb4 O7 2.224269 1_455
Nb4 O20 2.240032 1_565
Nb4 O12 2.262675 1_455
Nb4 O14 2.282308 1_555
Nb5 O21 2.190080 1_655
Nb5 O11 2.200665 1_545
Nb5 O20 2.224269 1_655
Nb5 O7 2.240032 1_545
Nb5 O15 2.262675 1_655
Nb5 O13 2.282308 1_555
Nb6 O17 2.021298 1_555
Nb6 O22 2.120698 1_565
Nb6 O18 2.166351 1_555
Nb6 O11 2.166804 1_555
Nb6 O12 2.209862 1_555
Nb6 O20 2.287947 1_665
Nb7 O19 1.884249 1_555
Nb7 O16 2.095357 1_555
Nb7 O15 2.127592 1_555
Nb7 O24 2.131554 1_555
Nb7 O25 2.151239 1_555
Nb7 O20 2.252074 1_555
Nb8 O23 1.855974 1_555
Nb8 O18 1.996131 1_455
Nb8 O14 2.012500 1_555
Nb8 O24 2.062756 1_565
Nb8 O26 2.135681 1_565
Nb8 O20 2.344527 1_565
Nb9 O27 1.838555 1_556
Nb9 O21 2.001819 1_555
Nb9 O22 2.019633 1_455
Nb9 O25 2.045372 1_555
Nb9 O26 2.134150 1_555
Nb9 O20 2.348689 1_555
