# generated using pymatgen
data_SrCaI4
_symmetry_space_group_name_H-M   'P 1'
_cell_length_a   7.90118000
_cell_length_b   7.40825700
_cell_length_c   19.98311694
_cell_angle_alpha   68.99029054
_cell_angle_beta   90.00000000
_cell_angle_gamma   90.00000000
_symmetry_Int_Tables_number   1
_chemical_formula_structural   SrCaI4
_chemical_formula_sum   'Sr4 Ca4 I16'
_cell_volume   1091.92976650
_cell_formula_units_Z   4
loop_
 _symmetry_equiv_pos_site_id
 _symmetry_equiv_pos_as_xyz
  1  'x, y, z'
loop_
 _atom_site_type_symbol
 _atom_site_label
 _atom_site_symmetry_multiplicity
 _atom_site_fract_x
 _atom_site_fract_y
 _atom_site_fract_z
 _atom_site_occupancy
  Sr  Sr0  1  0.75086800  0.17194900  0.32100300  1
  Sr  Sr1  1  0.25086800  0.82805100  0.17899700  1
  Sr  Sr2  1  0.74913200  0.17194900  0.82100300  1
  Sr  Sr3  1  0.24913200  0.82805100  0.67899700  1
  Ca  Ca0  1  0.74554000  0.42749000  0.06476100  1
  Ca  Ca1  1  0.75446000  0.42749000  0.56476100  1
  Ca  Ca2  1  0.24554000  0.57251000  0.43523900  1
  Ca  Ca3  1  0.25446000  0.57251000  0.93523900  1
  I  I0  1  0.42535000  0.46972700  0.81092700  1
  I  I1  1  0.92480000  0.33046300  0.94006500  1
  I  I2  1  0.42480000  0.66953700  0.55993500  1
  I  I3  1  0.42035400  0.20136900  0.04879400  1
  I  I4  1  0.92535000  0.53027300  0.68907300  1
  I  I5  1  0.38764100  0.94346400  0.31515800  1
  I  I6  1  0.88764100  0.05653600  0.18484200  1
  I  I7  1  0.92035400  0.79863100  0.45120600  1
  I  I8  1  0.07964600  0.20136900  0.54879400  1
  I  I9  1  0.11235900  0.94346400  0.81515800  1
  I  I10  1  0.61235900  0.05653600  0.68484200  1
  I  I11  1  0.07465000  0.46972700  0.31092700  1
  I  I12  1  0.57964600  0.79863100  0.95120600  1
  I  I13  1  0.57520000  0.33046300  0.44006500  1
  I  I14  1  0.07520000  0.66953700  0.05993500  1
  I  I15  1  0.57465000  0.53027300  0.18907300  1
loop_
_geom_bond_atom_site_label_1
_geom_bond_atom_site_label_2
_geom_bond_distance
_geom_bond_site_symmetry_2
Ca0 I6 3.137246 1_555
Ca0 I14 3.144066 1_655
Ca0 I3 3.145284 1_555
Ca0 I15 3.151223 1_555
Ca0 I12 3.154883 1_554
Ca0 I1 3.164843 1_554
Ca1 I10 3.137246 1_555
Ca1 I2 3.144066 1_555
Ca1 I8 3.145284 1_655
Ca1 I4 3.151223 1_555
Ca1 I7 3.154883 1_555
Ca1 I13 3.164843 1_555
Ca2 I5 3.137246 1_555
Ca2 I13 3.144066 1_555
Ca2 I7 3.145284 1_455
Ca2 I11 3.151223 1_555
Ca2 I8 3.154883 1_555
Ca2 I2 3.164843 1_555
Ca3 I9 3.137246 1_555
Ca3 I1 3.144066 1_455
Ca3 I12 3.145284 1_555
Ca3 I0 3.151223 1_555
Ca3 I3 3.154883 1_556
Ca3 I14 3.164843 1_556
I0 Sr3 3.304163 1_555
I0 Sr2 3.336651 1_555
I1 Sr2 3.312048 1_555
I2 Sr3 3.312048 1_555
I3 Sr1 3.324448 1_545
I4 Sr2 3.304163 1_555
I4 Sr3 3.336651 1_655
I5 Sr1 3.312168 1_555
I5 Sr0 3.355147 1_565
I6 Sr0 3.312168 1_555
I6 Sr1 3.355147 1_645
I7 Sr0 3.324448 1_565
I8 Sr3 3.324448 1_545
I9 Sr3 3.312168 1_555
I9 Sr2 3.355147 1_465
I10 Sr2 3.312168 1_555
I10 Sr3 3.355147 1_545
I11 Sr1 3.304163 1_555
I11 Sr0 3.336651 1_455
I12 Sr2 3.324448 1_565
I13 Sr0 3.312048 1_555
I14 Sr1 3.312048 1_555
I15 Sr0 3.304163 1_555
I15 Sr1 3.336651 1_555
