# generated using pymatgen
data_Fe13Cu5O24
_symmetry_space_group_name_H-M   'P 1'
_cell_length_a   5.84910600
_cell_length_b   5.91392656
_cell_length_c   13.06318001
_cell_angle_alpha   102.13864484
_cell_angle_beta   102.40964539
_cell_angle_gamma   92.11547100
_symmetry_Int_Tables_number   1
_chemical_formula_structural   Fe13Cu5O24
_chemical_formula_sum   'Fe13 Cu5 O24'
_cell_volume   429.84831109
_cell_formula_units_Z   1
loop_
 _symmetry_equiv_pos_site_id
 _symmetry_equiv_pos_as_xyz
  1  'x, y, z'
loop_
 _atom_site_type_symbol
 _atom_site_label
 _atom_site_symmetry_multiplicity
 _atom_site_fract_x
 _atom_site_fract_y
 _atom_site_fract_z
 _atom_site_occupancy
  Fe  Fe0  1  0.01155800  0.00913700  0.00268200  1
  Fe  Fe1  1  0.08053900  0.57335500  0.16101900  1
  Fe  Fe2  1  0.37888900  0.12143900  0.25655500  1
  Fe  Fe3  1  0.87073100  0.12807300  0.24740000  1
  Fe  Fe4  1  0.65065800  0.67667800  0.33905900  1
  Fe  Fe5  1  0.20589700  0.96206100  0.41870300  1
  Fe  Fe6  1  0.76818500  0.22917900  0.50178100  1
  Fe  Fe7  1  0.04218600  0.79144300  0.58339300  1
  Fe  Fe8  1  0.31796800  0.35346400  0.66599600  1
  Fe  Fe9  1  0.87987400  0.62028000  0.74861000  1
  Fe  Fe10  1  0.42936100  0.90943300  0.83047300  1
  Fe  Fe11  1  0.20277500  0.45680300  0.91370500  1
  Fe  Fe12  1  0.70310300  0.46084600  0.91131300  1
  Cu  Cu0  1  0.54147300  0.29296600  0.08359200  1
  Cu  Cu1  1  0.54293300  0.79113400  0.08361700  1
  Cu  Cu2  1  0.20925600  0.46244400  0.41610100  1
  Cu  Cu3  1  0.54178900  0.79171300  0.58483100  1
  Cu  Cu4  1  0.87556100  0.12101400  0.75080000  1
  O  O0  1  0.28379500  0.51524100  0.06660800  1
  O  O1  1  0.77476500  0.54110400  0.06879700  1
  O  O2  1  0.31020000  0.04245700  0.09858200  1
  O  O3  1  0.78938900  0.06273700  0.08662600  1
  O  O4  1  0.60724500  0.89064000  0.24844400  1
  O  O5  1  0.61781400  0.35676800  0.26259600  1
  O  O6  1  0.13596000  0.88850300  0.25981700  1
  O  O7  1  0.15153700  0.35726000  0.25627600  1
  O  O8  1  0.45299000  0.17625100  0.41094300  1
  O  O9  1  0.98902100  0.19839900  0.41229400  1
  O  O10  1  0.96075300  0.74308200  0.42841600  1
  O  O11  1  0.42660500  0.72852300  0.42330600  1
  O  O12  1  0.25828300  0.04102300  0.57372700  1
  O  O13  1  0.27750100  0.57013100  0.57610000  1
  O  O14  1  0.80676500  0.01201700  0.59146100  1
  O  O15  1  0.82688300  0.54275200  0.59453000  1
  O  O16  1  0.65887300  0.85631000  0.74771100  1
  O  O17  1  0.12465700  0.83998100  0.73839800  1
  O  O18  1  0.10072200  0.38789700  0.75855200  1
  O  O19  1  0.63292900  0.40800400  0.75705500  1
  O  O20  1  0.96094600  0.68557400  0.90845700  1
  O  O21  1  0.94553800  0.23413700  0.91051800  1
  O  O22  1  0.44566000  0.23876300  0.90411500  1
  O  O23  1  0.45843200  0.68098500  0.91703900  1
loop_
_geom_bond_atom_site_label_1
_geom_bond_atom_site_label_2
_geom_bond_distance
_geom_bond_site_symmetry_2
Fe0 O3 1.867704 1_455
Fe0 O2 1.894662 1_555
Fe0 O21 1.970042 1_454
Fe0 O20 2.018740 1_444
Fe1 O0 1.880070 1_555
Fe1 O1 1.907507 1_455
Fe1 O7 1.959582 1_555
Fe1 O6 2.002088 1_555
Fe2 O5 1.912833 1_555
Fe2 O8 1.923381 1_555
Fe2 O4 1.947535 1_545
Fe2 O6 1.955687 1_545
Fe2 O7 1.962233 1_555
Fe2 O2 1.965345 1_555
Fe3 O3 2.000564 1_555
Fe3 O4 2.050450 1_545
Fe3 O5 2.053797 1_555
Fe3 O7 2.058138 1_655
Fe3 O9 2.062283 1_555
Fe3 O6 2.142683 1_645
Fe4 O11 1.878898 1_555
Fe4 O4 1.895059 1_555
Fe4 O10 1.910819 1_555
Fe4 O5 1.926119 1_555
Fe5 O8 1.919751 1_565
Fe5 O9 1.924621 1_465
Fe5 O11 1.926359 1_555
Fe5 O12 1.933401 1_565
Fe5 O10 1.938915 1_455
Fe5 O6 1.976546 1_555
Fe6 O14 1.900853 1_555
Fe6 O9 1.909184 1_555
Fe6 O8 1.940590 1_555
Fe6 O15 1.963187 1_555
Fe7 O10 1.933708 1_455
Fe7 O17 1.934080 1_555
Fe7 O14 1.935465 1_465
Fe7 O13 1.937379 1_555
Fe7 O12 1.949715 1_565
Fe7 O15 1.949910 1_455
Fe8 O13 1.900706 1_555
Fe8 O18 1.921948 1_555
Fe8 O19 1.940557 1_555
Fe8 O12 1.955444 1_555
Fe9 O19 1.915029 1_555
Fe9 O15 1.921149 1_555
Fe9 O18 1.925676 1_655
Fe9 O16 1.937297 1_555
Fe9 O17 1.942563 1_655
Fe9 O20 1.988964 1_555
Fe10 O16 1.892560 1_555
Fe10 O17 1.899646 1_555
Fe10 O23 1.926080 1_555
Fe10 O22 1.971476 1_565
Fe11 O0 1.903783 1_556
Fe11 O18 1.935191 1_555
Fe11 O23 1.948617 1_555
Fe11 O21 1.950221 1_455
Fe11 O22 1.959722 1_555
Fe11 O20 1.993617 1_455
Fe12 O19 1.922749 1_555
Fe12 O22 1.934550 1_555
Fe12 O1 1.958893 1_556
Fe12 O23 1.972605 1_555
Fe12 O20 1.984761 1_555
Fe12 O21 1.987292 1_555
Cu0 O3 2.025319 1_555
Cu0 O1 2.034111 1_555
Cu0 O2 2.037392 1_555
Cu0 O0 2.043035 1_555
Cu0 O5 2.231013 1_555
Cu0 O22 2.240455 1_554
Cu1 O1 2.050157 1_555
Cu1 O4 2.055866 1_555
Cu1 O2 2.059601 1_565
Cu1 O23 2.078847 1_554
Cu1 O3 2.106599 1_565
Cu1 O0 2.128181 1_555
Cu2 O11 1.959536 1_555
Cu2 O9 1.972712 1_455
Cu2 O7 1.998821 1_555
Cu2 O13 1.999068 1_555
Cu2 O10 2.249317 1_455
Cu2 O8 2.252343 1_555
Cu3 O13 1.957465 1_555
Cu3 O14 1.962863 1_565
Cu3 O11 2.021036 1_555
Cu3 O16 2.038318 1_555
Cu3 O12 2.260924 1_565
Cu3 O15 2.265710 1_555
Cu4 O16 1.965601 1_545
Cu4 O18 1.989431 1_655
Cu4 O14 1.991622 1_555
Cu4 O21 1.998495 1_555
Cu4 O19 2.251823 1_555
Cu4 O17 2.253514 1_645
