# generated using pymatgen
data_Bi12AsO20
_symmetry_space_group_name_H-M   'P 1'
_cell_length_a   8.86214962
_cell_length_b   8.86207717
_cell_length_c   8.86209621
_cell_angle_alpha   109.47081825
_cell_angle_beta   109.47129818
_cell_angle_gamma   109.47119775
_symmetry_Int_Tables_number   1
_chemical_formula_structural   Bi12AsO20
_chemical_formula_sum   'Bi12 As1 O20'
_cell_volume   535.78560252
_cell_formula_units_Z   1
loop_
 _symmetry_equiv_pos_site_id
 _symmetry_equiv_pos_as_xyz
  1  'x, y, z'
loop_
 _atom_site_type_symbol
 _atom_site_label
 _atom_site_symmetry_multiplicity
 _atom_site_fract_x
 _atom_site_fract_y
 _atom_site_fract_z
 _atom_site_occupancy
  Bi  Bi0  1  0.80192628  0.14884625  0.30251449  1
  Bi  Bi1  1  0.85115319  0.65307849  0.15367014  1
  Bi  Bi2  1  0.50058793  0.34691519  0.19806897  1
  Bi  Bi3  1  0.65308217  0.15367014  0.85115340  1
  Bi  Bi4  1  0.34692059  0.19807307  0.50058982  1
  Bi  Bi5  1  0.84633342  0.49941132  0.69748575  1
  Bi  Bi6  1  0.19807313  0.50058785  0.34691763  1
  Bi  Bi7  1  0.30251627  0.80192452  0.14884628  1
  Bi  Bi8  1  0.69748497  0.84633044  0.49941037  1
  Bi  Bi9  1  0.14884323  0.30251522  0.80192682  1
  Bi  Bi10  1  0.49941187  0.69748416  0.84633004  1
  Bi  Bi11  1  0.15366705  0.85115299  0.65307985  1
  As  As0  1  0.00000145  0.00002079  0.00001259  1
  O  O0  1  0.60248976  -0.00000010  0.00000038  1
  O  O1  1  0.75826457  0.37493766  0.11796191  1
  O  O2  1  0.19286156  0.00000326  0.00000139  1
  O  O3  1  0.61667199  0.24173291  0.35969801  1
  O  O4  1  0.88203209  0.25697294  0.64030117  1
  O  O5  1  -0.00000116  0.19285312  0.00000152  1
  O  O6  1  0.00000045  0.00000322  0.19286364  1
  O  O7  1  0.74302508  0.62505983  0.38331996  1
  O  O8  1  0.39751229  0.39751093  0.39750990  1
  O  O9  1  0.62506328  0.38332765  0.74302703  1
  O  O10  1  0.37493746  0.11796227  0.75826452  1
  O  O11  1  0.35969926  0.61667170  0.24173021  1
  O  O12  1  0.64030096  0.88203554  0.25697484  1
  O  O13  1  -0.00000018  -0.00000080  0.60248860  1
  O  O14  1  -0.00000004  0.60248669  0.99999892  1
  O  O15  1  0.24173608  0.35969894  0.61667394  1
  O  O16  1  0.80713992  0.80714181  0.80714076  1
  O  O17  1  0.38332922  0.74302659  0.62506199  1
  O  O18  1  0.11796423  0.75826492  0.37493889  1
  O  O19  1  0.25697362  0.64029948  0.88203427  1
loop_
_geom_bond_atom_site_label_1
_geom_bond_atom_site_label_2
_geom_bond_distance
_geom_bond_site_symmetry_2
Bi0 O12 2.127429 1_545
Bi0 O3 2.192552 1_555
Bi0 O0 2.231682 1_555
Bi0 O4 2.569181 1_555
Bi0 O6 2.755317 1_655
Bi1 O18 2.127432 1_655
Bi1 O1 2.192521 1_555
Bi1 O14 2.231710 1_654
Bi1 O7 2.569095 1_555
Bi1 O6 2.755361 1_665
Bi2 O3 2.127417 1_555
Bi2 O7 2.192569 1_555
Bi2 O8 2.231703 1_555
Bi2 O1 2.569158 1_555
Bi2 O2 2.755302 1_555
Bi3 O1 2.127419 1_556
Bi3 O10 2.192572 1_555
Bi3 O0 2.231690 1_556
Bi3 O9 2.569139 1_555
Bi3 O5 2.755354 1_656
Bi4 O15 2.127427 1_555
Bi4 O9 2.192565 1_555
Bi4 O8 2.231691 1_555
Bi4 O10 2.569148 1_555
Bi4 O6 2.755346 1_555
Bi5 O9 2.127435 1_555
Bi5 O4 2.192525 1_555
Bi5 O14 2.231674 1_655
Bi5 O3 2.569192 1_555
Bi5 O16 2.755361 1_555
Bi6 O11 2.127444 1_555
Bi6 O17 2.192575 1_555
Bi6 O8 2.231694 1_555
Bi6 O18 2.569158 1_555
Bi6 O5 2.755350 1_555
Bi7 O19 2.127434 1_554
Bi7 O11 2.192508 1_555
Bi7 O14 2.231704 1_554
Bi7 O12 2.569164 1_555
Bi7 O2 2.755358 1_565
Bi8 O7 2.127442 1_555
Bi8 O12 2.192529 1_555
Bi8 O13 2.231693 1_665
Bi8 O11 2.569187 1_555
Bi8 O16 2.755330 1_555
Bi9 O4 2.127434 1_455
Bi9 O15 2.192562 1_555
Bi9 O13 2.231697 1_555
Bi9 O19 2.569146 1_555
Bi9 O5 2.755358 1_556
Bi10 O17 2.127413 1_555
Bi10 O19 2.192563 1_555
Bi10 O0 2.231690 1_566
Bi10 O15 2.569166 1_555
Bi10 O16 2.755334 1_555
Bi11 O10 2.127427 1_565
Bi11 O18 2.192548 1_555
Bi11 O13 2.231670 1_565
Bi11 O17 2.569196 1_555
Bi11 O2 2.755345 1_566
As0 O5 1.708935 1_555
As0 O6 1.709119 1_555
As0 O2 1.709240 1_555
As0 O16 1.709251 1_444
