# generated using pymatgen
data_Li9Fe5(SiO8)2
_symmetry_space_group_name_H-M   'P 1'
_cell_length_a   11.61217800
_cell_length_b   5.07810400
_cell_length_c   5.13037609
_cell_angle_alpha   70.57506887
_cell_angle_beta   90.00000000
_cell_angle_gamma   90.00000000
_symmetry_Int_Tables_number   1
_chemical_formula_structural   Li9Fe5(SiO8)2
_chemical_formula_sum   'Li9 Fe5 Si2 O16'
_cell_volume   285.30679036
_cell_formula_units_Z   1
loop_
 _symmetry_equiv_pos_site_id
 _symmetry_equiv_pos_as_xyz
  1  'x, y, z'
loop_
 _atom_site_type_symbol
 _atom_site_label
 _atom_site_symmetry_multiplicity
 _atom_site_fract_x
 _atom_site_fract_y
 _atom_site_fract_z
 _atom_site_occupancy
  Li  Li0  1  0.38421400  0.00000000  0.00000000  1
  Li  Li1  1  0.12492400  0.00000000  0.00000000  1
  Li  Li2  1  0.25796100  0.50000000  0.00000000  1
  Li  Li3  1  0.87507600  0.00000000  0.00000000  1
  Li  Li4  1  0.00000000  0.50000000  0.00000000  1
  Li  Li5  1  0.61578600  0.00000000  0.00000000  1
  Li  Li6  1  0.74203900  0.50000000  0.00000000  1
  Li  Li7  1  0.50000000  0.00000000  0.50000000  1
  Li  Li8  1  0.50000000  0.50000000  0.00000000  1
  Fe  Fe0  1  0.26107700  0.00000000  0.50000000  1
  Fe  Fe1  1  0.00000000  0.00000000  0.50000000  1
  Fe  Fe2  1  0.12948100  0.50000000  0.50000000  1
  Fe  Fe3  1  0.73892300  0.00000000  0.50000000  1
  Fe  Fe4  1  0.87051900  0.50000000  0.50000000  1
  Si  Si0  1  0.38310500  0.50000000  0.50000000  1
  Si  Si1  1  0.61689500  0.50000000  0.50000000  1
  O  O0  1  0.37498400  0.72041600  0.71028400  1
  O  O1  1  0.12765200  0.75784000  0.73116600  1
  O  O2  1  0.26691400  0.72954700  0.27849300  1
  O  O3  1  0.00000000  0.74226300  0.26675800  1
  O  O4  1  0.26691400  0.27045300  0.72150700  1
  O  O5  1  0.87234800  0.75784000  0.73116600  1
  O  O6  1  0.37498400  0.27958400  0.28971600  1
  O  O7  1  0.00000000  0.25773700  0.73324200  1
  O  O8  1  0.62501600  0.72041600  0.71028400  1
  O  O9  1  0.73308600  0.72954700  0.27849300  1
  O  O10  1  0.12765200  0.24216000  0.26883400  1
  O  O11  1  0.73308600  0.27045300  0.72150700  1
  O  O12  1  0.87234800  0.24216000  0.26883400  1
  O  O13  1  0.50000000  0.70655700  0.28851900  1
  O  O14  1  0.62501600  0.27958400  0.28971600  1
  O  O15  1  0.50000000  0.29344300  0.71148100  1
loop_
_geom_bond_atom_site_label_1
_geom_bond_atom_site_label_2
_geom_bond_distance
_geom_bond_site_symmetry_2
Li0 O4 2.116068 1_554
Li0 O2 2.116068 1_545
Li0 O15 2.179946 1_554
Li0 O13 2.179946 1_545
Li0 O6 2.374882 1_555
Li0 O0 2.374882 1_544
Li1 O3 2.121067 1_545
Li1 O7 2.121067 1_554
Li1 O1 2.131562 1_544
Li1 O10 2.131562 1_555
Li1 O2 2.311058 1_545
Li1 O4 2.311058 1_554
Li2 O6 2.049896 1_555
Li2 O0 2.049896 1_554
Li2 O2 2.125735 1_555
Li2 O4 2.125735 1_554
Li2 O1 2.169134 1_554
Li2 O10 2.169134 1_555
Li3 O3 2.121067 1_645
Li3 O7 2.121067 1_654
Li3 O12 2.131562 1_555
Li3 O5 2.131562 1_544
Li3 O9 2.311058 1_545
Li3 O11 2.311058 1_554
Li4 O7 2.122814 1_554
Li4 O3 2.122814 1_555
Li4 O1 2.147725 1_554
Li4 O12 2.147725 1_455
Li4 O5 2.147725 1_454
Li4 O10 2.147725 1_555
Li5 O11 2.116068 1_554
Li5 O9 2.116068 1_545
Li5 O15 2.179946 1_554
Li5 O13 2.179946 1_545
Li5 O14 2.374882 1_555
Li5 O8 2.374882 1_544
Li6 O8 2.049896 1_554
Li6 O14 2.049896 1_555
Li6 O9 2.125735 1_555
Li6 O11 2.125735 1_554
Li6 O5 2.169134 1_554
Li6 O12 2.169134 1_555
Li7 O14 2.065977 1_555
Li7 O6 2.065977 1_555
Li7 O0 2.065977 1_545
Li7 O8 2.065977 1_545
Li7 O13 2.114959 1_545
Li7 O15 2.114959 1_555
Li8 O15 2.079415 1_554
Li8 O13 2.079415 1_555
Li8 O0 2.112568 1_554
Li8 O8 2.112568 1_554
Li8 O14 2.112568 1_555
Li8 O6 2.112568 1_555
Fe0 O0 1.977464 1_545
Fe0 O6 1.977464 1_555
Fe0 O2 2.054347 1_545
Fe0 O4 2.054347 1_555
Fe0 O1 2.085467 1_545
Fe0 O10 2.085467 1_555
Fe1 O12 2.036157 1_455
Fe1 O10 2.036157 1_555
Fe1 O1 2.036157 1_545
Fe1 O5 2.036157 1_445
Fe1 O7 2.046121 1_555
Fe1 O3 2.046121 1_545
Fe2 O1 2.038185 1_555
Fe2 O10 2.038185 1_555
Fe2 O7 2.055940 1_555
Fe2 O3 2.055940 1_555
Fe2 O4 2.077497 1_555
Fe2 O2 2.077497 1_555
Fe3 O8 1.977464 1_545
Fe3 O14 1.977464 1_555
Fe3 O9 2.054347 1_545
Fe3 O11 2.054347 1_555
Fe3 O5 2.085467 1_545
Fe3 O12 2.085467 1_555
Fe4 O5 2.038185 1_555
Fe4 O12 2.038185 1_555
Fe4 O7 2.055940 1_655
Fe4 O3 2.055940 1_655
Fe4 O9 2.077497 1_555
Fe4 O11 2.077497 1_555
O0 Si0 1.796882 1_555
O2 Si0 1.894606 1_555
O4 Si0 1.894606 1_555
O6 Si0 1.796882 1_555
O8 Si1 1.796882 1_555
O9 Si1 1.894606 1_555
O11 Si1 1.894606 1_555
O13 Si1 1.833845 1_555
O13 Si0 1.833845 1_555
O14 Si1 1.796882 1_555
O15 Si1 1.833845 1_555
O15 Si0 1.833845 1_555
