# generated using pymatgen
data_ZnH16C3N8O7
_symmetry_space_group_name_H-M   'P 1'
_cell_length_a   8.21034901
_cell_length_b   8.21034901
_cell_length_c   10.52835642
_cell_angle_alpha   67.70202015
_cell_angle_beta   67.70202015
_cell_angle_gamma   83.08920301
_symmetry_Int_Tables_number   1
_chemical_formula_structural   ZnH16C3N8O7
_chemical_formula_sum   'Zn2 H32 C6 N16 O14'
_cell_volume   607.31094323
_cell_formula_units_Z   2
loop_
 _symmetry_equiv_pos_site_id
 _symmetry_equiv_pos_as_xyz
  1  'x, y, z'
loop_
 _atom_site_type_symbol
 _atom_site_label
 _atom_site_symmetry_multiplicity
 _atom_site_fract_x
 _atom_site_fract_y
 _atom_site_fract_z
 _atom_site_occupancy
  Zn  Zn0  1  0.92524300  0.08362500  0.00418300  1
  Zn  Zn1  1  0.08362500  0.92524300  0.50418300  1
  H  H0  1  0.61712800  0.98399900  0.00313900  1
  H  H1  1  0.98399900  0.61712800  0.50313900  1
  H  H2  1  0.76906500  0.90217200  0.89137900  1
  H  H3  1  0.90217200  0.76906500  0.39137900  1
  H  H4  1  0.64427400  0.65494700  0.10695500  1
  H  H5  1  0.65494700  0.64427400  0.60695500  1
  H  H6  1  0.14504000  0.86313000  0.88996200  1
  H  H7  1  0.86313000  0.14504000  0.38996200  1
  H  H8  1  0.16504900  0.05310600  0.74592400  1
  H  H9  1  0.05310600  0.16504900  0.24592400  1
  H  H10  1  0.41525200  0.97450800  0.84121500  1
  H  H11  1  0.97450800  0.41525200  0.34121500  1
  H  H12  1  0.03262600  0.40595300  0.78334000  1
  H  H13  1  0.40595300  0.03262600  0.28334000  1
  H  H14  1  0.86054300  0.33492700  0.76590500  1
  H  H15  1  0.33492700  0.86054300  0.26590500  1
  H  H16  1  0.75458400  0.55743600  0.86318700  1
  H  H17  1  0.55743600  0.75458400  0.36318700  1
  H  H18  1  0.06368600  0.51101300  0.01778600  1
  H  H19  1  0.51101300  0.06368600  0.51778600  1
  H  H20  1  0.18350500  0.60749900  0.83871600  1
  H  H21  1  0.60750000  0.18350500  0.33871600  1
  H  H22  1  0.31284000  0.55712600  0.06758800  1
  H  H23  1  0.55712600  0.31284000  0.56758800  1
  H  H24  1  0.42797200  0.62503100  0.88649500  1
  H  H25  1  0.62503100  0.42797200  0.38649500  1
  H  H26  1  0.34950100  0.40775600  0.98275400  1
  H  H27  1  0.40775600  0.34950100  0.48275400  1
  H  H28  1  0.12989400  0.75773600  0.18536800  1
  H  H29  1  0.75773600  0.12989400  0.68536800  1
  H  H30  1  0.21662200  0.61242600  0.28708700  1
  H  H31  1  0.61242600  0.21662200  0.78708700  1
  C  C0  1  0.81204300  0.71603200  0.19006400  1
  C  C1  1  0.71603200  0.81204300  0.69006400  1
  C  C2  1  0.28704600  0.12991600  0.96396100  1
  C  C3  1  0.12991600  0.28704600  0.46396100  1
  C  C4  1  0.68498000  0.35699300  0.06691400  1
  C  C5  1  0.35699300  0.68498000  0.56691400  1
  N  N0  1  0.73569600  0.92178200  0.98923100  1
  N  N1  1  0.92178200  0.73569600  0.48923100  1
  N  N2  1  0.71024000  0.75692500  0.10613000  1
  N  N3  1  0.75692500  0.71024000  0.60613000  1
  N  N4  1  0.15413600  0.99904500  0.85432800  1
  N  N5  1  0.99904500  0.15413600  0.35432800  1
  N  N6  1  0.30555900  0.04855900  0.86632800  1
  N  N7  1  0.04855900  0.30555900  0.36632800  1
  N  N8  1  0.91075900  0.34351300  0.84002800  1
  N  N9  1  0.34351300  0.91075900  0.34002800  1
  N  N10  1  0.79809500  0.44314700  0.92223400  1
  N  N11  1  0.44314700  0.79809500  0.42223400  1
  N  N12  1  0.32224700  0.53877100  0.97286800  1
  N  N13  1  0.53877100  0.32224700  0.47286800  1
  N  N14  1  0.16351200  0.60139600  0.94314600  1
  N  N15  1  0.60139600  0.16351200  0.44314600  1
  O  O0  1  0.91005800  0.83657000  0.17805100  1
  O  O1  1  0.83657000  0.91005800  0.67805100  1
  O  O2  1  0.79892600  0.55801200  0.28187700  1
  O  O3  1  0.55801200  0.79892600  0.78187700  1
  O  O4  1  0.13281300  0.17044300  0.03684500  1
  O  O5  1  0.17044300  0.13281300  0.53684500  1
  O  O6  1  0.42828300  0.16819200  0.97226500  1
  O  O7  1  0.16819200  0.42828300  0.47226500  1
  O  O8  1  0.71391600  0.19427600  0.13192300  1
  O  O9  1  0.19427600  0.71391600  0.63192300  1
  O  O10  1  0.56700400  0.44827700  0.12522400  1
  O  O11  1  0.44827700  0.56700400  0.62522400  1
  O  O12  1  0.24513800  0.71132800  0.19071000  1
  O  O13  1  0.71132800  0.24513800  0.69071000  1
loop_
_geom_bond_atom_site_label_1
_geom_bond_atom_site_label_2
_geom_bond_distance
_geom_bond_site_symmetry_2
H0 N0 1.029065 1_554
H1 N1 1.029065 1_555
H2 N0 1.031217 1_555
H3 N1 1.031217 1_555
H4 N2 1.046173 1_555
H5 N3 1.046173 1_555
H6 N4 1.035704 1_555
H7 N5 1.035704 1_555
H8 N4 1.027225 1_545
H9 N5 1.027225 1_455
H10 N6 1.029651 1_565
H11 N7 1.029651 1_655
H12 N8 1.028717 1_455
H13 N9 1.028717 1_545
H14 N8 1.037722 1_555
H15 N9 1.037722 1_555
H16 N10 1.019700 1_555
H17 N11 1.019700 1_555
H18 N14 1.027160 1_554
H19 N15 1.027160 1_555
H20 N14 1.030301 1_555
H21 N15 1.030299 1_555
H22 N12 1.037290 1_554
H23 N13 1.037290 1_555
H24 N12 1.068752 1_555
H24 O3 1.634823 1_555
H25 N13 1.068752 1_555
H25 O2 1.634823 1_555
H26 N12 1.045360 1_555
H27 N13 1.045360 1_555
H28 O12 0.990448 1_555
H29 O13 0.990448 1_555
H30 O12 0.991974 1_555
H31 O13 0.991974 1_555
C0 O2 1.277567 1_555
C0 O0 1.289364 1_555
C0 N2 1.363845 1_555
C1 O3 1.277567 1_555
C1 O1 1.289364 1_555
C1 N3 1.363845 1_555
C2 O6 1.279283 1_555
C2 O4 1.287657 1_556
C2 N6 1.379832 1_555
C3 O7 1.279283 1_555
C3 O5 1.287657 1_555
C3 N7 1.379832 1_555
C4 O10 1.264924 1_555
C4 O8 1.289508 1_555
C4 N10 1.396450 1_554
C5 O11 1.264924 1_555
C5 O9 1.289508 1_555
C5 N11 1.396450 1_555
N0 Zn0 2.248253 1_566
N1 Zn1 2.248253 1_655
N4 N6 1.416564 1_565
N4 Zn0 2.184161 1_466
N5 N7 1.416564 1_655
N5 Zn1 2.184161 1_645
N8 Zn0 2.202393 1_556
N9 Zn1 2.202393 1_555
N10 N8 1.421809 1_555
N11 N9 1.421809 1_555
O0 Zn0 2.133279 1_565
O1 Zn1 2.133279 1_655
O4 Zn0 2.110397 1_455
O5 Zn1 2.110397 1_545
O8 Zn0 2.102766 1_555
O9 Zn1 2.102766 1_555
