# generated using pymatgen
data_Li4Ti2Fe5O12
_symmetry_space_group_name_H-M   'P 1'
_cell_length_a   9.21396600
_cell_length_b   5.11223000
_cell_length_c   9.96950559
_cell_angle_alpha   78.54650869
_cell_angle_beta   90.00000000
_cell_angle_gamma   90.00000000
_symmetry_Int_Tables_number   1
_chemical_formula_structural   Li4Ti2Fe5O12
_chemical_formula_sum   'Li8 Ti4 Fe10 O24'
_cell_volume   460.25116027
_cell_formula_units_Z   2
loop_
 _symmetry_equiv_pos_site_id
 _symmetry_equiv_pos_as_xyz
  1  'x, y, z'
loop_
 _atom_site_type_symbol
 _atom_site_label
 _atom_site_symmetry_multiplicity
 _atom_site_fract_x
 _atom_site_fract_y
 _atom_site_fract_z
 _atom_site_occupancy
  Li  Li0  1  0.92133200  0.00392400  0.74605600  1
  Li  Li1  1  0.91999700  0.49312900  0.25847600  1
  Li  Li2  1  0.58093300  0.75615700  0.50039200  1
  Li  Li3  1  0.58620700  0.50221900  0.25452900  1
  Li  Li4  1  0.42133200  0.99607600  0.25394400  1
  Li  Li5  1  0.41999700  0.50687100  0.74152400  1
  Li  Li6  1  0.08093300  0.24384300  0.49960800  1
  Li  Li7  1  0.08620700  0.49778100  0.74547100  1
  Ti  Ti0  1  0.74553400  0.24107800  0.51312400  1
  Ti  Ti1  1  0.74910600  0.75790300  0.98731200  1
  Ti  Ti2  1  0.24910600  0.24209700  0.01268800  1
  Ti  Ti3  1  0.24553400  0.75892200  0.48687600  1
  Fe  Fe0  1  0.92199600  0.24974600  0.00756300  1
  Fe  Fe1  1  0.92213900  0.75197200  0.49463800  1
  Fe  Fe2  1  0.75225300  0.99674100  0.25050600  1
  Fe  Fe3  1  0.57715200  0.23333900  0.99605000  1
  Fe  Fe4  1  0.74138900  0.50357900  0.74743500  1
  Fe  Fe5  1  0.42213900  0.24802800  0.50536200  1
  Fe  Fe6  1  0.42199600  0.75025400  0.99243700  1
  Fe  Fe7  1  0.25225300  0.00325900  0.74949400  1
  Fe  Fe8  1  0.24138900  0.49642100  0.25256500  1
  Fe  Fe9  1  0.07715200  0.76666100  0.00395000  1
  O  O0  1  0.89096000  0.12331900  0.38090800  1
  O  O1  1  0.89563100  0.84857100  0.12109100  1
  O  O2  1  0.76619400  0.88374100  0.61517200  1
  O  O3  1  0.90151100  0.64003800  0.88221600  1
  O  O4  1  0.76132400  0.11890100  0.88452800  1
  O  O5  1  0.90268800  0.37799300  0.61342500  1
  O  O6  1  0.59239000  0.13641700  0.38549000  1
  O  O7  1  0.76059600  0.62772100  0.38184600  1
  O  O8  1  0.74304600  0.36344100  0.12303900  1
  O  O9  1  0.60099800  0.86047600  0.12904800  1
  O  O10  1  0.59223600  0.63159900  0.88777400  1
  O  O11  1  0.58897500  0.37510000  0.60811500  1
  O  O12  1  0.39563100  0.15142900  0.87890900  1
  O  O13  1  0.39096000  0.87668100  0.61909200  1
  O  O14  1  0.26619400  0.11625900  0.38482800  1
  O  O15  1  0.40268800  0.62200700  0.38657500  1
  O  O16  1  0.26132400  0.88109900  0.11547200  1
  O  O17  1  0.40151100  0.35996200  0.11778400  1
  O  O18  1  0.10099800  0.13952400  0.87095200  1
  O  O19  1  0.26059600  0.37227900  0.61815400  1
  O  O20  1  0.24304600  0.63655900  0.87696100  1
  O  O21  1  0.09239000  0.86358300  0.61451000  1
  O  O22  1  0.08897500  0.62490000  0.39188500  1
  O  O23  1  0.09223600  0.36840100  0.11222600  1
loop_
_geom_bond_atom_site_label_1
_geom_bond_atom_site_label_2
_geom_bond_distance
_geom_bond_site_symmetry_2
Li0 O3 2.081764 1_545
Li0 O5 2.104915 1_555
Li0 O2 2.107558 1_545
Li0 O4 2.178787 1_555
Li0 O21 2.256652 1_645
Li0 O18 2.261465 1_655
Li1 O0 2.054060 1_555
Li1 O1 2.059080 1_555
Li1 O7 2.116459 1_555
Li1 O22 2.236671 1_655
Li1 O8 2.297065 1_555
Li1 O23 2.328148 1_655
Li2 O11 2.030489 1_555
Li2 O6 2.053780 1_565
Li2 O15 2.182708 1_555
Li2 O7 2.208265 1_555
Li2 O2 2.223749 1_555
Li2 O13 2.265726 1_555
Li3 O9 2.006981 1_555
Li3 O6 2.057998 1_555
Li3 O8 2.163209 1_555
Li3 O7 2.219912 1_555
Li3 O15 2.299444 1_555
Li3 O17 2.382695 1_555
Li4 O17 2.081764 1_565
Li4 O15 2.104915 1_555
Li4 O14 2.107558 1_565
Li4 O16 2.178787 1_555
Li4 O6 2.256652 1_565
Li4 O9 2.261465 1_555
Li5 O13 2.054060 1_555
Li5 O12 2.059080 1_555
Li5 O19 2.116459 1_555
Li5 O11 2.236671 1_555
Li5 O20 2.297065 1_555
Li5 O10 2.328148 1_555
Li6 O22 2.030489 1_555
Li6 O21 2.053780 1_545
Li6 O5 2.182708 1_455
Li6 O19 2.208265 1_555
Li6 O14 2.223749 1_555
Li6 O0 2.265726 1_455
Li7 O18 2.006981 1_555
Li7 O21 2.057998 1_555
Li7 O20 2.163209 1_555
Li7 O19 2.219912 1_555
Li7 O5 2.299444 1_455
Li7 O3 2.382695 1_455
Fe0 O23 2.041702 1_655
Fe0 O4 2.114118 1_554
Fe0 O3 2.141982 1_554
Fe0 O1 2.150428 1_545
Fe0 O8 2.155830 1_555
Fe0 O18 2.279788 1_654
Fe1 O22 2.024533 1_655
Fe1 O0 2.029095 1_565
Fe1 O7 2.041346 1_555
Fe1 O5 2.047098 1_555
Fe1 O2 2.069749 1_555
Fe1 O21 2.117859 1_655
Fe2 O0 2.018994 1_565
Fe2 O8 2.047024 1_565
Fe2 O9 2.056400 1_555
Fe2 O7 2.073244 1_555
Fe2 O1 2.090881 1_555
Fe2 O6 2.207288 1_565
Fe3 O9 2.106193 1_546
Fe3 O10 2.111160 1_555
Fe3 O12 2.128557 1_555
Fe3 O8 2.171641 1_556
Fe3 O4 2.171724 1_555
Fe3 O17 2.196129 1_556
Fe4 O2 2.133139 1_555
Fe4 O10 2.153641 1_555
Fe4 O11 2.166809 1_555
Fe4 O4 2.168332 1_555
Fe4 O5 2.178665 1_555
Fe4 O3 2.200261 1_555
Fe5 O11 2.024533 1_555
Fe5 O13 2.029095 1_545
Fe5 O19 2.041346 1_555
Fe5 O15 2.047098 1_555
Fe5 O14 2.069749 1_555
Fe5 O6 2.117859 1_555
Fe6 O10 2.041702 1_555
Fe6 O16 2.114118 1_556
Fe6 O17 2.141982 1_556
Fe6 O12 2.150428 1_565
Fe6 O20 2.155830 1_555
Fe6 O9 2.279788 1_556
Fe7 O13 2.018994 1_545
Fe7 O20 2.047024 1_545
Fe7 O18 2.056400 1_555
Fe7 O19 2.073244 1_555
Fe7 O12 2.090881 1_555
Fe7 O21 2.207288 1_545
Fe8 O14 2.133139 1_555
Fe8 O23 2.153641 1_555
Fe8 O22 2.166809 1_555
Fe8 O16 2.168332 1_555
Fe8 O15 2.178665 1_555
Fe8 O17 2.200261 1_555
Fe9 O18 2.106193 1_564
Fe9 O23 2.111160 1_555
Fe9 O1 2.128557 1_455
Fe9 O20 2.171641 1_554
Fe9 O16 2.171724 1_555
Fe9 O3 2.196129 1_454
O0 Ti0 2.051948 1_555
O1 Ti1 2.015403 1_554
O2 Ti0 1.915811 1_565
O3 Ti1 1.919250 1_555
O4 Ti1 1.928093 1_545
O5 Ti0 1.965839 1_555
O6 Ti0 2.041296 1_555
O7 Ti0 2.147498 1_555
O8 Ti1 2.194764 1_554
O9 Ti1 2.104334 1_554
O10 Ti1 1.935280 1_555
O11 Ti0 1.924797 1_555
O12 Ti2 2.015403 1_556
O13 Ti3 2.051948 1_555
O14 Ti3 1.915811 1_545
O15 Ti3 1.965839 1_555
O16 Ti2 1.928093 1_565
O17 Ti2 1.919250 1_555
O18 Ti2 2.104334 1_556
O19 Ti3 2.147498 1_555
O20 Ti2 2.194764 1_556
O21 Ti3 2.041296 1_555
O22 Ti3 1.924797 1_555
O23 Ti2 1.935280 1_555
