# generated using pymatgen
data_Li3Mn5F15
_symmetry_space_group_name_H-M   'P 1'
_cell_length_a   13.06308200
_cell_length_b   13.06308200
_cell_length_c   3.94268500
_cell_angle_alpha   90.00000000
_cell_angle_beta   90.00000000
_cell_angle_gamma   90.00000000
_symmetry_Int_Tables_number   1
_chemical_formula_structural   Li3Mn5F15
_chemical_formula_sum   'Li6 Mn10 F30'
_cell_volume   672.79597811
_cell_formula_units_Z   2
loop_
 _symmetry_equiv_pos_site_id
 _symmetry_equiv_pos_as_xyz
  1  'x, y, z'
loop_
 _atom_site_type_symbol
 _atom_site_label
 _atom_site_symmetry_multiplicity
 _atom_site_fract_x
 _atom_site_fract_y
 _atom_site_fract_z
 _atom_site_occupancy
  Li  Li0  1  0.00000000  0.00000000  0.67344200  1
  Li  Li1  1  0.66212100  0.16212100  0.62970700  1
  Li  Li2  1  0.16212100  0.33787900  0.62970700  1
  Li  Li3  1  0.50000000  0.50000000  0.67344200  1
  Li  Li4  1  0.83787900  0.66212100  0.62970700  1
  Li  Li5  1  0.33787900  0.83787900  0.62970700  1
  Mn  Mn0  1  0.50000000  0.00000000  0.58344500  1
  Mn  Mn1  1  0.21267300  0.07992300  0.59824900  1
  Mn  Mn2  1  0.92007700  0.21267300  0.59824900  1
  Mn  Mn3  1  0.42007700  0.28732700  0.59824900  1
  Mn  Mn4  1  0.71267300  0.42007700  0.59824900  1
  Mn  Mn5  1  0.00000000  0.50000000  0.58344500  1
  Mn  Mn6  1  0.28732700  0.57992300  0.59824900  1
  Mn  Mn7  1  0.57992300  0.71267300  0.59824900  1
  Mn  Mn8  1  0.07992300  0.78732700  0.59824900  1
  Mn  Mn9  1  0.78732700  0.92007700  0.59824900  1
  F  F0  1  0.50000000  0.00000000  0.08489400  1
  F  F1  1  0.65948400  0.01496000  0.59381000  1
  F  F2  1  0.86803600  0.06291300  0.61263100  1
  F  F3  1  0.21553900  0.08176900  0.09917800  1
  F  F4  1  0.06291300  0.13196400  0.61263100  1
  F  F5  1  0.51496000  0.15948400  0.59381000  1
  F  F6  1  0.91823100  0.21553900  0.09917800  1
  F  F7  1  0.26391600  0.23608400  0.59986100  1
  F  F8  1  0.76391600  0.26391600  0.59986100  1
  F  F9  1  0.41823100  0.28446100  0.09917800  1
  F  F10  1  0.01496000  0.34051600  0.59381000  1
  F  F11  1  0.56291300  0.36803600  0.61263100  1
  F  F12  1  0.71553900  0.41823100  0.09917800  1
  F  F13  1  0.36803600  0.43708700  0.61263100  1
  F  F14  1  0.15948400  0.48504000  0.59381000  1
  F  F15  1  0.00000000  0.50000000  0.08489400  1
  F  F16  1  0.84051600  0.51496000  0.59381000  1
  F  F17  1  0.63196400  0.56291300  0.61263100  1
  F  F18  1  0.28446100  0.58176900  0.09917800  1
  F  F19  1  0.43708700  0.63196400  0.61263100  1
  F  F20  1  0.98504000  0.65948400  0.59381000  1
  F  F21  1  0.58176900  0.71553900  0.09917800  1
  F  F22  1  0.23608400  0.73608400  0.59986100  1
  F  F23  1  0.73608400  0.76391600  0.59986100  1
  F  F24  1  0.08176900  0.78446100  0.09917800  1
  F  F25  1  0.48504000  0.84051600  0.59381000  1
  F  F26  1  0.93708700  0.86803600  0.61263100  1
  F  F27  1  0.78446100  0.91823100  0.09917800  1
  F  F28  1  0.13196400  0.93708700  0.61263100  1
  F  F29  1  0.34051600  0.98504000  0.59381000  1
loop_
_geom_bond_atom_site_label_1
_geom_bond_atom_site_label_2
_geom_bond_distance
_geom_bond_site_symmetry_2
F0 Mn0 1.965630 1_555
F0 Mn0 1.977055 1_554
F1 Li1 1.927887 1_555
F1 Mn9 2.079797 1_545
F1 Mn0 2.092897 1_555
F2 Li0 1.924729 1_655
F2 Mn2 2.071854 1_555
F2 Mn9 2.143894 1_545
F3 Mn1 1.968184 1_555
F3 Mn1 1.975507 1_554
F4 Li0 1.924729 1_555
F4 Mn1 2.071854 1_555
F4 Mn2 2.143894 1_455
F5 Li1 1.927887 1_555
F5 Mn3 2.079797 1_555
F5 Mn0 2.092897 1_555
F6 Mn2 1.968184 1_555
F6 Mn2 1.975507 1_554
F7 Li2 1.884238 1_555
F7 Mn1 2.146974 1_555
F7 Mn3 2.146974 1_555
F8 Li1 1.884238 1_555
F8 Mn4 2.146974 1_555
F8 Mn2 2.146974 1_555
F9 Mn3 1.968184 1_555
F9 Mn3 1.975507 1_554
F10 Li2 1.927887 1_555
F10 Mn2 2.079797 1_455
F10 Mn5 2.092897 1_555
F11 Li3 1.924729 1_555
F11 Mn4 2.071854 1_555
F11 Mn3 2.143894 1_555
F12 Mn4 1.968184 1_555
F12 Mn4 1.975507 1_554
F13 Li3 1.924729 1_555
F13 Mn3 2.071854 1_555
F13 Mn6 2.143894 1_555
F14 Li2 1.927887 1_555
F14 Mn6 2.079797 1_555
F14 Mn5 2.092897 1_555
F15 Mn5 1.965630 1_555
F15 Mn5 1.977055 1_554
F16 Li4 1.927887 1_555
F16 Mn4 2.079797 1_555
F16 Mn5 2.092897 1_655
F17 Li3 1.924729 1_555
F17 Mn7 2.071854 1_555
F17 Mn4 2.143894 1_555
F18 Mn6 1.968184 1_555
F18 Mn6 1.975507 1_554
F19 Li3 1.924729 1_555
F19 Mn6 2.071854 1_555
F19 Mn7 2.143894 1_555
F20 Li4 1.927887 1_555
F20 Mn8 2.079797 1_655
F20 Mn5 2.092897 1_655
F21 Mn7 1.968184 1_555
F21 Mn7 1.975507 1_554
F22 Li5 1.884238 1_555
F22 Mn8 2.146974 1_555
F22 Mn6 2.146974 1_555
F23 Li4 1.884238 1_555
F23 Mn7 2.146974 1_555
F23 Mn9 2.146974 1_555
F24 Mn8 1.968184 1_555
F24 Mn8 1.975507 1_554
F25 Li5 1.927887 1_555
F25 Mn7 2.079797 1_555
F25 Mn0 2.092897 1_565
F26 Li0 1.924729 1_665
F26 Mn9 2.071854 1_555
F26 Mn8 2.143894 1_655
F27 Mn9 1.968184 1_555
F27 Mn9 1.975507 1_554
F28 Li0 1.924729 1_565
F28 Mn8 2.071854 1_555
F28 Mn1 2.143894 1_565
F29 Li5 1.927887 1_555
F29 Mn1 2.079797 1_565
F29 Mn0 2.092897 1_565
