# generated using pymatgen
data_Li3Cu3(PO4)2
_symmetry_space_group_name_H-M   'P 1'
_cell_length_a   5.10969000
_cell_length_b   5.38556258
_cell_length_c   6.27620041
_cell_angle_alpha   90.17964894
_cell_angle_beta   90.08272753
_cell_angle_gamma   90.02668204
_symmetry_Int_Tables_number   1
_chemical_formula_structural   Li3Cu3(PO4)2
_chemical_formula_sum   'Li3 Cu3 P2 O8'
_cell_volume   172.71091973
_cell_formula_units_Z   1
loop_
 _symmetry_equiv_pos_site_id
 _symmetry_equiv_pos_as_xyz
  1  'x, y, z'
loop_
 _atom_site_type_symbol
 _atom_site_label
 _atom_site_symmetry_multiplicity
 _atom_site_fract_x
 _atom_site_fract_y
 _atom_site_fract_z
 _atom_site_occupancy
  Li  Li0  1  0.99424400  0.32731500  0.75288200  1
  Li  Li1  1  0.49203100  0.67335700  0.74849400  1
  Li  Li2  1  0.49183600  0.67470700  0.25163200  1
  Cu  Cu0  1  0.49136400  0.17335400  0.00065600  1
  Cu  Cu1  1  0.99818600  0.82716000  0.49944800  1
  Cu  Cu2  1  0.99642100  0.33117500  0.24509400  1
  P  P0  1  0.99920000  0.81991400  0.99515300  1
  P  P1  1  0.49908000  0.17664000  0.50536600  1
  O  O0  1  0.90795300  0.09615100  0.98524700  1
  O  O1  1  0.30271300  0.80350000  0.99999700  1
  O  O2  1  0.88842100  0.67804200  0.79684200  1
  O  O3  1  0.38443800  0.31579000  0.70324400  1
  O  O4  1  0.80263200  0.18791300  0.51387200  1
  O  O5  1  0.40861900  0.89967300  0.50111500  1
  O  O6  1  0.40487700  0.31678100  0.30035200  1
  O  O7  1  0.88057700  0.69852600  0.20060800  1
loop_
_geom_bond_atom_site_label_1
_geom_bond_atom_site_label_2
_geom_bond_distance
_geom_bond_site_symmetry_2
Li0 O4 1.939192 1_555
Li0 O0 1.970756 1_555
Li0 O2 1.983537 1_555
Li0 O3 2.019360 1_655
Li1 O1 1.979076 1_555
Li1 O3 2.021472 1_555
Li1 O5 2.021937 1_555
Li1 O2 2.047733 1_555
Li2 O1 1.977947 1_554
Li2 O6 2.002496 1_555
Li2 O7 2.016540 1_555
Li2 O5 2.022611 1_555
Cu0 O6 2.079312 1_555
Cu0 O3 2.092279 1_554
Cu0 O0 2.171291 1_554
Cu0 O1 2.212446 1_544
Cu1 O7 2.084963 1_555
Cu1 O2 2.110771 1_555
Cu1 O5 2.133062 1_655
Cu1 O4 2.186847 1_565
Cu2 O7 2.084813 1_555
Cu2 O4 2.105636 1_555
Cu2 O0 2.109622 1_554
Cu2 O6 2.116703 1_655
O0 P0 1.560647 1_545
O1 P0 1.553675 1_455
O2 P0 1.563625 1_555
O3 P1 1.563262 1_555
O4 P1 1.553050 1_555
O5 P1 1.561531 1_565
O6 P1 1.568944 1_555
O7 P0 1.569934 1_554
