# generated using pymatgen
data_RbTmN4O15
_symmetry_space_group_name_H-M   'P 1'
_cell_length_a   11.62607200
_cell_length_b   10.62660100
_cell_length_c   12.63518836
_cell_angle_alpha   60.54571558
_cell_angle_beta   90.00000000
_cell_angle_gamma   90.00000000
_symmetry_Int_Tables_number   1
_chemical_formula_structural   RbTmN4O15
_chemical_formula_sum   'Rb4 Tm4 N16 O60'
_cell_volume   1359.25752766
_cell_formula_units_Z   4
loop_
 _symmetry_equiv_pos_site_id
 _symmetry_equiv_pos_as_xyz
  1  'x, y, z'
loop_
 _atom_site_type_symbol
 _atom_site_label
 _atom_site_symmetry_multiplicity
 _atom_site_fract_x
 _atom_site_fract_y
 _atom_site_fract_z
 _atom_site_occupancy
  Rb  Rb0  1  0.29810100  0.68693500  0.95131200  1
  Rb  Rb1  1  0.20189900  0.68693500  0.45131200  1
  Rb  Rb2  1  0.70189900  0.31306500  0.04868800  1
  Rb  Rb3  1  0.79810100  0.31306500  0.54868800  1
  Tm  Tm0  1  0.35278500  0.29640200  0.41918000  1
  Tm  Tm1  1  0.14721500  0.29640200  0.91918000  1
  Tm  Tm2  1  0.64721500  0.70359800  0.58082000  1
  Tm  Tm3  1  0.85278500  0.70359800  0.08082000  1
  N  N0  1  0.90205200  0.41403300  0.25428000  1
  N  N1  1  0.59794800  0.41403300  0.75428000  1
  N  N2  1  0.09794800  0.58596700  0.74572000  1
  N  N3  1  0.40205200  0.58596700  0.24572000  1
  N  N4  1  0.64235000  0.70495300  0.96902800  1
  N  N5  1  0.85765000  0.70495300  0.46902800  1
  N  N6  1  0.35765000  0.29504700  0.03097200  1
  N  N7  1  0.14235000  0.29504700  0.53097200  1
  N  N8  1  0.76074900  0.91488600  0.61792300  1
  N  N9  1  0.73925100  0.91488600  0.11792300  1
  N  N10  1  0.23925100  0.08511400  0.38207700  1
  N  N11  1  0.26074900  0.08511400  0.88207700  1
  N  N12  1  0.58306100  0.26862800  0.35291600  1
  N  N13  1  0.91693900  0.26862800  0.85291600  1
  N  N14  1  0.41693900  0.73137200  0.64708400  1
  N  N15  1  0.08306100  0.73137200  0.14708400  1
  O  O0  1  0.89424000  0.45038000  0.14176500  1
  O  O1  1  0.60576000  0.45038000  0.64176500  1
  O  O2  1  0.10576000  0.54962000  0.85823500  1
  O  O3  1  0.39424000  0.54962000  0.35823500  1
  O  O4  1  0.37552300  0.48387400  0.22066300  1
  O  O5  1  0.12447700  0.48387400  0.72066300  1
  O  O6  1  0.62447700  0.51612600  0.77933700  1
  O  O7  1  0.87552300  0.51612600  0.27933700  1
  O  O8  1  0.93183800  0.29379400  0.33441500  1
  O  O9  1  0.56816200  0.29379400  0.83441500  1
  O  O10  1  0.06816200  0.70620600  0.66558500  1
  O  O11  1  0.43183800  0.70620600  0.16558500  1
  O  O12  1  0.68886100  0.58904100  0.05758900  1
  O  O13  1  0.81113900  0.58904100  0.55758900  1
  O  O14  1  0.31113900  0.41095900  0.94241100  1
  O  O15  1  0.18886100  0.41095900  0.44241100  1
  O  O16  1  0.20307300  0.18031400  0.56881800  1
  O  O17  1  0.29692700  0.18031400  0.06881800  1
  O  O18  1  0.79692700  0.81968600  0.43118200  1
  O  O19  1  0.70307300  0.81968600  0.93118200  1
  O  O20  1  0.54858700  0.70202200  0.92632400  1
  O  O21  1  0.95141300  0.70202200  0.42632400  1
  O  O22  1  0.45141300  0.29797800  0.07367600  1
  O  O23  1  0.04858700  0.29797800  0.57367600  1
  O  O24  1  0.22509200  0.22396500  0.31810900  1
  O  O25  1  0.27490800  0.22396500  0.81810900  1
  O  O26  1  0.77490800  0.77603500  0.68189100  1
  O  O27  1  0.72509200  0.77603500  0.18189100  1
  O  O28  1  0.31471700  0.04189200  0.46572900  1
  O  O29  1  0.18528300  0.04189200  0.96572900  1
  O  O30  1  0.68528300  0.95810800  0.53427100  1
  O  O31  1  0.81471700  0.95810800  0.03427100  1
  O  O32  1  0.81816500  0.99837900  0.63850400  1
  O  O33  1  0.68183500  0.99837900  0.13850400  1
  O  O34  1  0.18183500  0.00162100  0.36149600  1
  O  O35  1  0.31816500  0.00162100  0.86149600  1
  O  O36  1  0.49803600  0.20238100  0.33855100  1
  O  O37  1  0.00196400  0.20238100  0.83855100  1
  O  O38  1  0.50196400  0.79761900  0.66144900  1
  O  O39  1  0.99803600  0.79761900  0.16144900  1
  O  O40  1  0.67896300  0.27426400  0.30957900  1
  O  O41  1  0.82103700  0.27426400  0.80957900  1
  O  O42  1  0.32103700  0.72573600  0.69042100  1
  O  O43  1  0.17896300  0.72573600  0.19042100  1
  O  O44  1  0.56177600  0.33169200  0.41663300  1
  O  O45  1  0.93822400  0.33169200  0.91663300  1
  O  O46  1  0.43822400  0.66830800  0.58336700  1
  O  O47  1  0.06177600  0.66830800  0.08336700  1
  O  O48  1  0.47132500  0.12049400  0.67206200  1
  O  O49  1  0.02867500  0.12049400  0.17206200  1
  O  O50  1  0.52867500  0.87950600  0.32793800  1
  O  O51  1  0.97132500  0.87950600  0.82793800  1
  O  O52  1  0.93368300  0.74338600  0.88864500  1
  O  O53  1  0.56631700  0.74338600  0.38864500  1
  O  O54  1  0.06631700  0.25661400  0.11135500  1
  O  O55  1  0.43368300  0.25661400  0.61135500  1
  O  O56  1  0.06681200  0.89963800  0.77415600  1
  O  O57  1  0.43318800  0.89963800  0.27415600  1
  O  O58  1  0.93318800  0.10036200  0.22584400  1
  O  O59  1  0.56681200  0.10036200  0.72584400  1
loop_
_geom_bond_atom_site_label_1
_geom_bond_atom_site_label_2
_geom_bond_distance
_geom_bond_site_symmetry_2
N0 O8 1.226942 1_555
N0 O0 1.280038 1_555
N0 O7 1.307736 1_555
N1 O9 1.226942 1_555
N1 O1 1.280038 1_555
N1 O6 1.307736 1_555
N2 O10 1.226942 1_555
N2 O2 1.280038 1_555
N2 O5 1.307736 1_555
N3 O11 1.226942 1_555
N3 O3 1.280038 1_555
N3 O4 1.307736 1_555
N4 O20 1.223497 1_555
N4 O19 1.280697 1_555
N4 O12 1.306226 1_556
N5 O21 1.223497 1_555
N5 O18 1.280697 1_555
N5 O13 1.306226 1_555
N6 O22 1.223497 1_555
N6 O17 1.280697 1_555
N6 O14 1.306226 1_554
N7 O23 1.223497 1_555
N7 O16 1.280697 1_555
N7 O15 1.306226 1_555
N8 O32 1.235849 1_555
N8 O30 1.272977 1_555
N8 O26 1.297941 1_555
N9 O33 1.235849 1_555
N9 O31 1.272977 1_555
N9 O27 1.297941 1_555
N10 O34 1.235849 1_555
N10 O28 1.272977 1_555
N10 O24 1.297941 1_555
N11 O35 1.235849 1_555
N11 O29 1.272977 1_555
N11 O25 1.297941 1_555
N12 O40 1.230574 1_555
N12 O36 1.277239 1_555
N12 O44 1.299652 1_555
N13 O41 1.230574 1_555
N13 O37 1.277239 1_655
N13 O45 1.299652 1_555
N14 O42 1.230574 1_555
N14 O38 1.277239 1_555
N14 O46 1.299652 1_555
N15 O43 1.230574 1_555
N15 O39 1.277239 1_455
N15 O47 1.299652 1_555
O0 Tm3 2.455220 1_555
O0 Rb2 3.193817 1_555
O1 Tm2 2.455220 1_555
O1 Rb3 3.193817 1_555
O2 Tm1 2.455220 1_555
O2 Rb0 3.193817 1_555
O3 Tm0 2.455220 1_555
O3 Rb1 3.193817 1_555
O4 Tm0 2.327214 1_555
O4 Rb0 3.134748 1_554
O5 Tm1 2.327214 1_555
O5 Rb1 3.134748 1_555
O6 Tm2 2.327214 1_555
O6 Rb2 3.134748 1_556
O7 Tm3 2.327214 1_555
O7 Rb3 3.134748 1_555
O8 Rb3 3.214750 1_555
O9 Rb2 3.214750 1_556
O10 Rb1 3.214750 1_555
O11 Rb0 3.214750 1_554
O12 Tm3 2.356176 1_555
O12 Rb2 2.993434 1_555
O13 Tm2 2.356176 1_555
O13 Rb3 2.993434 1_555
O14 Tm1 2.356176 1_555
O14 Rb0 2.993434 1_555
O15 Tm0 2.356176 1_555
O15 Rb1 2.993434 1_555
O16 Tm0 2.415018 1_555
O17 Tm1 2.415018 1_554
O18 Tm2 2.415018 1_555
O19 Tm3 2.415018 1_556
O20 Rb0 2.925121 1_555
O21 Rb1 2.925121 1_655
O22 Rb2 2.925121 1_555
O23 Rb3 2.925121 1_455
O24 Tm0 2.322518 1_555
O25 Tm1 2.322518 1_555
O26 Tm2 2.322518 1_555
O27 Tm3 2.322518 1_555
O28 Tm0 2.508414 1_555
O29 Tm1 2.508414 1_555
O30 Tm2 2.508414 1_555
O31 Tm3 2.508414 1_555
O32 Rb3 2.965251 1_565
O33 Rb2 2.965251 1_565
O34 Rb1 2.965251 1_545
O35 Rb0 2.965251 1_545
O36 Tm0 2.426697 1_555
O37 Tm1 2.426697 1_555
O38 Tm2 2.426697 1_555
O39 Tm3 2.426697 1_555
O40 Rb2 3.125814 1_555
O40 Rb3 3.527209 1_555
O41 Rb3 3.125814 1_555
O41 Rb2 3.527209 1_556
O42 Rb0 3.125814 1_555
O42 Rb1 3.527209 1_555
O43 Rb1 3.125814 1_555
O43 Rb0 3.527209 1_554
O44 Tm0 2.456310 1_555
O44 Rb3 3.169752 1_555
O45 Tm1 2.456310 1_655
O45 Rb2 3.169752 1_556
O46 Tm2 2.456310 1_555
O46 Rb1 3.169752 1_555
O47 Tm3 2.456310 1_455
O47 Rb0 3.169752 1_554
O48 O59 1.263719 1_555
O48 O55 1.334559 1_555
O49 O58 1.263719 1_455
O49 O54 1.334559 1_555
O50 O57 1.263719 1_555
O50 O53 1.334559 1_555
O51 O56 1.263719 1_655
O51 O52 1.334559 1_555
O52 Tm3 2.439197 1_556
O53 Tm2 2.439197 1_555
O54 Tm1 2.439197 1_554
O55 Tm0 2.439197 1_555
O56 Rb0 3.517709 1_555
O57 Rb1 3.517709 1_555
O58 Rb2 3.517709 1_555
O59 Rb3 3.517709 1_555
