# generated using pymatgen
data_Na3Mn20O40
_symmetry_space_group_name_H-M   'P 1'
_cell_length_a   5.96712667
_cell_length_b   10.33178285
_cell_length_c   13.31407759
_cell_angle_alpha   75.09345163
_cell_angle_beta   102.98753244
_cell_angle_gamma   106.79474923
_symmetry_Int_Tables_number   1
_chemical_formula_structural   Na3Mn20O40
_chemical_formula_sum   'Na3 Mn20 O40'
_cell_volume   749.26657635
_cell_formula_units_Z   1
loop_
 _symmetry_equiv_pos_site_id
 _symmetry_equiv_pos_as_xyz
  1  'x, y, z'
loop_
 _atom_site_type_symbol
 _atom_site_label
 _atom_site_symmetry_multiplicity
 _atom_site_fract_x
 _atom_site_fract_y
 _atom_site_fract_z
 _atom_site_occupancy
  Na  Na0  1  0.00218900  0.37440300  0.12592400  1
  Na  Na1  1  0.79854300  0.77524700  0.32423500  1
  Na  Na2  1  0.19872400  0.22419000  0.67544900  1
  Mn  Mn0  1  0.39826800  0.19642100  0.09872200  1
  Mn  Mn1  1  0.50054700  0.50339000  0.99656600  1
  Mn  Mn2  1  0.20491300  0.10018800  0.30230100  1
  Mn  Mn3  1  0.89829900  0.70423900  0.09601200  1
  Mn  Mn4  1  0.39773500  0.70375600  0.09538800  1
  Mn  Mn5  1  0.69383600  0.09979100  0.30273500  1
  Mn  Mn6  1  0.29839600  0.90302400  0.19607900  1
  Mn  Mn7  1  0.09768700  0.29972100  0.40044600  1
  Mn  Mn8  1  0.99893400  0.99951400  0.50118600  1
  Mn  Mn9  1  0.19914800  0.59944000  0.29997200  1
  Mn  Mn10  1  0.00059100  0.50127600  0.50015500  1
  Mn  Mn11  1  0.50160400  0.50084300  0.49990300  1
  Mn  Mn12  1  0.80335900  0.40492700  0.70120300  1
  Mn  Mn13  1  0.69955400  0.09730900  0.80303300  1
  Mn  Mn14  1  0.90318300  0.70015400  0.60335000  1
  Mn  Mn15  1  0.60231700  0.30071700  0.90019800  1
  Mn  Mn16  1  0.30107400  0.89687300  0.70022200  1
  Mn  Mn17  1  0.10128600  0.30033400  0.89987300  1
  Mn  Mn18  1  0.79548500  0.89603400  0.70068000  1
  Mn  Mn19  1  0.59840900  0.80077200  0.89907800  1
  O  O0  1  0.65454300  0.34589200  0.03769800  1
  O  O1  1  0.23125600  0.34561400  0.03734000  1
  O  O2  1  0.13778200  0.05352700  0.16007700  1
  O  O3  1  0.57418900  0.05308700  0.16045600  1
  O  O4  1  0.59864600  0.56956800  0.13098100  1
  O  O5  1  0.48603700  0.22742300  0.24600700  1
  O  O6  1  0.68497800  0.82891900  0.04527500  1
  O  O7  1  0.11273000  0.57959000  0.15022000  1
  O  O8  1  0.19776300  0.83698200  0.06231500  1
  O  O9  1  0.99786300  0.23054500  0.27113400  1
  O  O10  1  0.82666600  0.14723600  0.44357500  1
  O  O11  1  0.02969900  0.74919300  0.23576700  1
  O  O12  1  0.45298900  0.74890900  0.23523700  1
  O  O13  1  0.25972400  0.14789700  0.44344300  1
  O  O14  1  0.93850300  0.45510300  0.35832400  1
  O  O15  1  0.37093000  0.45407700  0.35750400  1
  O  O16  1  0.39733900  0.96426300  0.33317900  1
  O  O17  1  0.19924700  0.36996200  0.53039000  1
  O  O18  1  0.28802500  0.62874300  0.44488300  1
  O  O19  1  0.08320600  0.02040000  0.64734600  1
  O  O20  1  0.80305000  0.63224200  0.47045900  1
  O  O21  1  0.71489300  0.37372700  0.55526200  1
  O  O22  1  0.91417200  0.97685200  0.35608600  1
  O  O23  1  0.60003800  0.03246700  0.66791300  1
  O  O24  1  0.62815500  0.54693900  0.64191500  1
  O  O25  1  0.06308800  0.54652000  0.64171800  1
  O  O26  1  0.54754900  0.25543600  0.76268200  1
  O  O27  1  0.73936200  0.85015500  0.56010800  1
  O  O28  1  0.96952600  0.25489600  0.76264100  1
  O  O29  1  0.17177000  0.85154900  0.55966200  1
  O  O30  1  0.80304300  0.16820600  0.93602500  1
  O  O31  1  0.89038700  0.42798600  0.84982900  1
  O  O32  1  0.00070100  0.76453700  0.73466100  1
  O  O33  1  0.51171300  0.77164700  0.75356600  1
  O  O34  1  0.40022800  0.43275600  0.86432400  1
  O  O35  1  0.31340300  0.17308400  0.95036000  1
  O  O36  1  0.42482000  0.94591100  0.83993500  1
  O  O37  1  0.85893400  0.94554000  0.84039300  1
  O  O38  1  0.77365300  0.65572600  0.95809000  1
  O  O39  1  0.33779800  0.65492800  0.95764300  1
loop_
_geom_bond_atom_site_label_1
_geom_bond_atom_site_label_2
_geom_bond_distance
_geom_bond_site_symmetry_2
Na0 O9 2.114105 1_455
Na0 O7 2.117245 1_555
Na0 O1 2.118459 1_555
Na0 O0 2.121209 1_455
Na1 O11 2.114322 1_655
Na1 O12 2.115003 1_555
Na1 O22 2.118240 1_555
Na1 O20 2.119772 1_555
Na2 O28 2.114855 1_455
Na2 O19 2.121087 1_555
Na2 O17 2.121747 1_555
Na2 O26 2.122187 1_555
Mn0 O3 1.963389 1_555
Mn0 O2 1.971559 1_555
Mn0 O1 1.977526 1_555
Mn0 O0 1.982855 1_555
Mn0 O35 1.985262 1_554
Mn0 O5 1.996712 1_555
Mn1 O38 1.968137 1_555
Mn1 O39 1.974331 1_555
Mn1 O34 1.981358 1_555
Mn1 O4 1.985004 1_556
Mn1 O1 1.989257 1_556
Mn1 O0 1.992899 1_556
Mn2 O16 1.970350 1_545
Mn2 O5 1.971729 1_555
Mn2 O9 1.989017 1_455
Mn2 O22 1.989423 1_445
Mn2 O13 1.997093 1_555
Mn2 O2 1.998912 1_555
Mn3 O38 1.954647 1_554
Mn3 O6 1.961987 1_555
Mn3 O11 1.967524 1_655
Mn3 O7 1.968665 1_655
Mn3 O8 1.975576 1_655
Mn3 O4 1.988238 1_555
Mn4 O39 1.955170 1_554
Mn4 O6 1.960742 1_555
Mn4 O12 1.968581 1_555
Mn4 O7 1.971384 1_555
Mn4 O8 1.978275 1_555
Mn4 O4 1.987732 1_555
Mn5 O16 1.963127 1_545
Mn5 O5 1.964277 1_555
Mn5 O9 1.981813 1_555
Mn5 O22 1.981830 1_545
Mn5 O10 1.991246 1_555
Mn5 O3 1.998571 1_555
Mn6 O3 1.958333 1_565
Mn6 O2 1.958947 1_565
Mn6 O11 1.962672 1_555
Mn6 O12 1.965629 1_555
Mn6 O8 1.976274 1_555
Mn6 O16 1.993678 1_555
Mn7 O9 1.938007 1_455
Mn7 O17 1.951323 1_555
Mn7 O13 1.972012 1_555
Mn7 O10 1.976550 1_455
Mn7 O14 1.993131 1_455
Mn7 O15 1.993962 1_555
Mn8 O22 1.941098 1_555
Mn8 O19 1.949305 1_665
Mn8 O13 1.978806 1_665
Mn8 O10 1.980995 1_565
Mn8 O27 1.984411 1_555
Mn8 O29 1.986132 1_655
Mn9 O15 1.959054 1_555
Mn9 O18 1.960397 1_555
Mn9 O14 1.962935 1_455
Mn9 O7 1.992582 1_555
Mn9 O12 1.993047 1_555
Mn9 O11 1.995515 1_555
Mn10 O20 1.952867 1_455
Mn10 O17 1.960053 1_555
Mn10 O25 1.986604 1_555
Mn10 O21 1.986894 1_455
Mn10 O14 1.994385 1_455
Mn10 O18 1.995261 1_555
Mn11 O20 1.965764 1_555
Mn11 O17 1.971128 1_555
Mn11 O21 1.983483 1_555
Mn11 O18 1.990630 1_555
Mn11 O24 1.996427 1_555
Mn11 O15 2.006252 1_555
Mn12 O24 1.946413 1_555
Mn12 O25 1.953135 1_655
Mn12 O21 1.980144 1_555
Mn12 O28 1.981496 1_555
Mn12 O26 1.983505 1_555
Mn12 O31 1.987793 1_555
Mn13 O37 1.964316 1_545
Mn13 O36 1.964799 1_545
Mn13 O23 1.986914 1_555
Mn13 O28 1.989590 1_555
Mn13 O26 1.991525 1_555
Mn13 O30 1.991873 1_555
Mn14 O32 1.937770 1_655
Mn14 O27 1.962735 1_555
Mn14 O29 1.963627 1_655
Mn14 O20 1.975115 1_555
Mn14 O24 1.980422 1_555
Mn14 O25 1.982411 1_655
Mn15 O26 1.939394 1_555
Mn15 O0 1.940486 1_556
Mn15 O30 1.972654 1_555
Mn15 O31 1.972764 1_555
Mn15 O34 1.974815 1_555
Mn15 O35 1.976799 1_555
Mn16 O33 1.955489 1_555
Mn16 O19 1.974779 1_565
Mn16 O29 1.977346 1_555
Mn16 O36 1.978231 1_555
Mn16 O23 1.980093 1_565
Mn16 O32 1.980629 1_555
Mn17 O28 1.938870 1_455
Mn17 O1 1.939839 1_556
Mn17 O31 1.974145 1_455
Mn17 O30 1.976213 1_455
Mn17 O35 1.976602 1_555
Mn17 O34 1.978349 1_555
Mn18 O33 1.956387 1_555
Mn18 O19 1.976511 1_665
Mn18 O27 1.980567 1_555
Mn18 O37 1.981454 1_555
Mn18 O23 1.985544 1_565
Mn18 O32 1.986495 1_655
Mn19 O36 1.965992 1_555
Mn19 O37 1.966054 1_555
Mn19 O33 1.967490 1_555
Mn19 O39 1.970596 1_555
Mn19 O38 1.971571 1_555
Mn19 O6 1.972982 1_556
