# generated using pymatgen
data_P2H6N2O5
_symmetry_space_group_name_H-M   'P 1'
_cell_length_a   5.17693500
_cell_length_b   8.57807500
_cell_length_c   16.75368804
_cell_angle_alpha   89.51750588
_cell_angle_beta   90.00000000
_cell_angle_gamma   90.00000000
_symmetry_Int_Tables_number   1
_chemical_formula_structural   P2H6N2O5
_chemical_formula_sum   'P8 H24 N8 O20'
_cell_volume   743.97368850
_cell_formula_units_Z   4
loop_
 _symmetry_equiv_pos_site_id
 _symmetry_equiv_pos_as_xyz
  1  'x, y, z'
loop_
 _atom_site_type_symbol
 _atom_site_label
 _atom_site_symmetry_multiplicity
 _atom_site_fract_x
 _atom_site_fract_y
 _atom_site_fract_z
 _atom_site_occupancy
  P  P0  1  0.20857100  0.61439200  0.14261000  1
  P  P1  1  0.20857100  0.38560800  0.85739000  1
  P  P2  1  0.79077100  0.88932200  0.64374600  1
  P  P3  1  0.79077100  0.11067800  0.35625400  1
  P  P4  1  0.00140600  0.28589400  0.09615600  1
  P  P5  1  0.00140600  0.71410600  0.90384400  1
  P  P6  1  0.99469500  0.21965300  0.59822100  1
  P  P7  1  0.99469500  0.78034700  0.40177900  1
  H  H0  1  0.72690100  0.72673200  0.89064300  1
  H  H1  1  0.72690100  0.27326800  0.10935700  1
  H  H2  1  0.27032400  0.76802100  0.38989800  1
  H  H3  1  0.27032400  0.23197900  0.61010200  1
  H  H4  1  0.80614500  0.53433200  0.10790600  1
  H  H5  1  0.80614500  0.46566800  0.89209400  1
  H  H6  1  0.18943400  0.96988300  0.60325400  1
  H  H7  1  0.18943400  0.03011700  0.39674600  1
  H  H8  1  0.04312700  0.22888200  0.22795800  1
  H  H9  1  0.04312700  0.77111800  0.77204200  1
  H  H10  1  0.95986300  0.26824600  0.73091400  1
  H  H11  1  0.95986300  0.73175400  0.26908600  1
  H  H12  1  0.17271800  0.38184400  0.34376100  1
  H  H13  1  0.17271800  0.61815600  0.65623900  1
  H  H14  1  0.82592100  0.11703900  0.84543700  1
  H  H15  1  0.82592100  0.88296100  0.15456300  1
  H  H16  1  0.37500800  0.49342400  0.25528900  1
  H  H17  1  0.37500800  0.50657600  0.74471100  1
  H  H18  1  0.62594800  0.00700100  0.75686300  1
  H  H19  1  0.62594800  0.99299900  0.24313700  1
  H  H20  1  0.39275200  0.49959300  0.37766500  1
  H  H21  1  0.39275200  0.50040700  0.62233500  1
  H  H22  1  0.61389200  0.99421800  0.87942600  1
  H  H23  1  0.61389200  0.00578200  0.12057400  1
  N  N0  1  0.42788500  0.64733400  0.05971100  1
  N  N1  1  0.42788500  0.35266600  0.94028900  1
  N  N2  1  0.57464700  0.85993900  0.55997700  1
  N  N3  1  0.57464700  0.14006100  0.44002300  1
  N  N4  1  0.98769800  0.48676900  0.11386900  1
  N  N5  1  0.98769800  0.51323100  0.88613100  1
  N  N6  1  0.01030800  0.01766000  0.61365400  1
  N  N7  1  0.01030800  0.98234000  0.38634600  1
  O  O0  1  0.07785500  0.75766800  0.17442100  1
  O  O1  1  0.07785500  0.24233200  0.82557900  1
  O  O2  1  0.92182200  0.74518600  0.67569900  1
  O  O3  1  0.92182200  0.25481400  0.32430100  1
  O  O4  1  0.41218700  0.53045600  0.19525800  1
  O  O5  1  0.41218700  0.46954400  0.80474200  1
  O  O6  1  0.58938900  0.97224500  0.69682100  1
  O  O7  1  0.58938900  0.02775500  0.30317900  1
  O  O8  1  0.12486400  0.20624300  0.17502700  1
  O  O9  1  0.12486400  0.79375700  0.82497300  1
  O  O10  1  0.87452400  0.29288000  0.67841200  1
  O  O11  1  0.87452400  0.70712000  0.32158800  1
  O  O12  1  0.38751400  0.23356600  0.98091900  1
  O  O13  1  0.38751400  0.76643400  0.01908100  1
  O  O14  1  0.61305800  0.26142400  0.47904900  1
  O  O15  1  0.61305800  0.73857600  0.52095100  1
  O  O16  1  0.34093700  0.43471900  0.33327700  1
  O  O17  1  0.34093700  0.56528100  0.66672300  1
  O  O18  1  0.65836400  0.06350600  0.83539100  1
  O  O19  1  0.65836400  0.93649400  0.16460900  1
loop_
_geom_bond_atom_site_label_1
_geom_bond_atom_site_label_2
_geom_bond_distance
_geom_bond_site_symmetry_2
H0 P5 1.442134 1_655
H1 P4 1.442134 1_655
H2 P7 1.444727 1_455
H3 P6 1.444727 1_455
H4 N4 1.029149 1_555
H5 N5 1.029149 1_555
H6 N6 1.029298 1_565
H7 N7 1.029298 1_545
H8 O8 1.003027 1_555
H9 O9 1.003027 1_555
H10 O10 1.005189 1_555
H11 O11 1.005189 1_555
H12 O16 0.996808 1_555
H13 O17 0.996808 1_555
H14 O18 0.996464 1_555
H15 O19 0.996464 1_555
H16 O4 1.069621 1_555
H16 O16 1.407404 1_555
H17 O5 1.069621 1_555
H17 O17 1.407404 1_555
H18 O6 1.068477 1_545
H18 O18 1.415886 1_555
H19 O7 1.068477 1_565
H19 O19 1.415886 1_555
H20 O16 0.970383 1_555
H21 O17 0.970383 1_555
H22 O18 0.971161 1_565
H23 O19 0.971161 1_545
N0 O13 1.240600 1_555
N0 P0 1.814183 1_555
N1 O12 1.240600 1_555
N1 P1 1.814183 1_555
N2 O15 1.249923 1_555
N2 P2 1.814105 1_555
N3 O14 1.249923 1_555
N3 P3 1.814105 1_555
N4 P0 1.657318 1_655
N4 P4 1.752387 1_655
N5 P1 1.657318 1_655
N5 P5 1.752387 1_655
N6 P2 1.657855 1_445
N6 P6 1.751607 1_455
N7 P3 1.657855 1_465
N7 P7 1.751607 1_455
O0 P0 1.504501 1_555
O1 P1 1.504501 1_555
O2 P2 1.504800 1_555
O3 P3 1.504800 1_555
O4 P0 1.548182 1_555
O5 P1 1.548182 1_555
O6 P2 1.547321 1_555
O7 P3 1.547321 1_555
O8 P4 1.614362 1_555
O9 P5 1.614362 1_555
O10 P6 1.612697 1_555
O11 P7 1.612697 1_555
