# generated using pymatgen
data_KFe3P8(H11O18)2
_symmetry_space_group_name_H-M   'P 1'
_cell_length_a   9.81384041
_cell_length_b   9.81384041
_cell_length_c   18.00399541
_cell_angle_alpha   88.29715206
_cell_angle_beta   88.29715206
_cell_angle_gamma   59.55249114
_symmetry_Int_Tables_number   1
_chemical_formula_structural   KFe3P8(H11O18)2
_chemical_formula_sum   'K2 Fe6 P16 H44 O72'
_cell_volume   1493.98664908
_cell_formula_units_Z   2
loop_
 _symmetry_equiv_pos_site_id
 _symmetry_equiv_pos_as_xyz
  1  'x, y, z'
loop_
 _atom_site_type_symbol
 _atom_site_label
 _atom_site_symmetry_multiplicity
 _atom_site_fract_x
 _atom_site_fract_y
 _atom_site_fract_z
 _atom_site_occupancy
  K  K0  1  0.23485300  0.76514700  0.25000000  1
  K  K1  1  0.76514700  0.23485300  0.75000000  1
  Fe  Fe0  1  0.23879300  0.18406200  0.24301900  1
  Fe  Fe1  1  0.81593800  0.76120700  0.25698100  1
  Fe  Fe2  1  0.76120700  0.81593800  0.75698100  1
  Fe  Fe3  1  0.18406200  0.23879300  0.74301900  1
  Fe  Fe4  1  0.65674900  0.34325100  0.25000000  1
  Fe  Fe5  1  0.34325100  0.65674900  0.75000000  1
  P  P0  1  0.87547000  0.00724200  0.35398000  1
  P  P1  1  0.99275800  0.12453000  0.14602000  1
  P  P2  1  0.12453000  0.99275800  0.64602000  1
  P  P3  1  0.00724200  0.87547000  0.85398000  1
  P  P4  1  0.11818900  0.52784400  0.14600900  1
  P  P5  1  0.47215600  0.88181100  0.35399100  1
  P  P6  1  0.88181100  0.47215600  0.85399100  1
  P  P7  1  0.52784400  0.11818900  0.64600900  1
  P  P8  1  0.35326300  0.39144500  0.35210800  1
  P  P9  1  0.60855500  0.64673700  0.14789200  1
  P  P10  1  0.64673700  0.60855500  0.64789200  1
  P  P11  1  0.39144500  0.35326300  0.85210800  1
  P  P12  1  0.57766900  0.10110700  0.15757900  1
  P  P13  1  0.89889300  0.42233100  0.34242100  1
  P  P14  1  0.42233100  0.89889300  0.84242100  1
  P  P15  1  0.10110700  0.57766900  0.65757900  1
  H  H0  1  0.99669600  0.34852300  0.45515200  1
  H  H1  1  0.65147700  0.00330400  0.04484800  1
  H  H2  1  0.00330400  0.65147700  0.54484800  1
  H  H3  1  0.34852300  0.99669600  0.95515200  1
  H  H4  1  0.38070000  0.42237400  0.15152400  1
  H  H5  1  0.57762600  0.61930000  0.34847600  1
  H  H6  1  0.61930000  0.57762600  0.84847600  1
  H  H7  1  0.42237400  0.38070000  0.65152400  1
  H  H8  1  0.93784700  0.65232400  0.05844100  1
  H  H9  1  0.34767600  0.06215300  0.44155900  1
  H  H10  1  0.06215300  0.34767600  0.94155900  1
  H  H11  1  0.65232400  0.93784700  0.55844100  1
  H  H12  1  0.88723000  0.96891900  0.16001500  1
  H  H13  1  0.03108100  0.11277000  0.33998500  1
  H  H14  1  0.11277000  0.03108100  0.83998500  1
  H  H15  1  0.96891900  0.88723000  0.66001500  1
  H  H16  1  0.90106300  0.22287000  0.03562200  1
  H  H17  1  0.77713000  0.09893700  0.46437800  1
  H  H18  1  0.09893700  0.77713000  0.96437800  1
  H  H19  1  0.22287000  0.90106300  0.53562200  1
  H  H20  1  0.09161800  0.55144100  0.35240100  1
  H  H21  1  0.44855900  0.90838200  0.14759900  1
  H  H22  1  0.90838200  0.44855900  0.64759900  1
  H  H23  1  0.55144100  0.09161800  0.85240100  1
  H  H24  1  0.51912500  0.31548800  0.44735200  1
  H  H25  1  0.68451200  0.48087500  0.05264800  1
  H  H26  1  0.48087500  0.68451200  0.55264800  1
  H  H27  1  0.31548800  0.51912500  0.94735200  1
  H  H28  1  0.75127400  0.71009500  0.50454800  1
  H  H29  1  0.28990500  0.24872600  0.99545200  1
  H  H30  1  0.24872600  0.28990500  0.49545200  1
  H  H31  1  0.71009500  0.75127400  0.00454800  1
  H  H32  1  0.81343700  0.82197900  0.47224600  1
  H  H33  1  0.17802100  0.18656300  0.02775400  1
  H  H34  1  0.18656300  0.17802100  0.52775400  1
  H  H35  1  0.82197900  0.81343700  0.97224600  1
  H  H36  1  0.69920100  0.34994300  0.95270500  1
  H  H37  1  0.65005700  0.30079900  0.54729500  1
  H  H38  1  0.30079900  0.65005700  0.04729500  1
  H  H39  1  0.34994300  0.69920100  0.45270500  1
  H  H40  1  0.65876500  0.25830400  0.01693400  1
  H  H41  1  0.74169600  0.34123500  0.48306600  1
  H  H42  1  0.34123500  0.74169600  0.98306600  1
  H  H43  1  0.25830400  0.65876500  0.51693400  1
  O  O0  1  0.84259900  0.25519800  0.18186000  1
  O  O1  1  0.74480200  0.15740100  0.31814000  1
  O  O2  1  0.15740100  0.74480200  0.81814000  1
  O  O3  1  0.25519800  0.84259900  0.68186000  1
  O  O4  1  0.14776200  0.08232200  0.18117100  1
  O  O5  1  0.91767800  0.85223800  0.31882900  1
  O  O6  1  0.85223800  0.91767800  0.81882900  1
  O  O7  1  0.08232200  0.14776200  0.68117100  1
  O  O8  1  0.98833500  0.96604700  0.14313200  1
  O  O9  1  0.03395300  0.01166500  0.35686800  1
  O  O10  1  0.01166500  0.03395300  0.85686800  1
  O  O11  1  0.96604700  0.98833500  0.64313200  1
  O  O12  1  0.00507800  0.17265000  0.06193100  1
  O  O13  1  0.82735000  0.99492200  0.43806900  1
  O  O14  1  0.99492200  0.82735000  0.93806900  1
  O  O15  1  0.17265000  0.00507800  0.56193100  1
  O  O16  1  0.63167400  0.85402600  0.32665300  1
  O  O17  1  0.14597400  0.36832600  0.17334700  1
  O  O18  1  0.36832600  0.14597400  0.67334700  1
  O  O19  1  0.85402600  0.63167400  0.82665300  1
  O  O20  1  0.02057700  0.66500100  0.19776100  1
  O  O21  1  0.33499900  0.97942300  0.30223900  1
  O  O22  1  0.97942300  0.33499900  0.80223900  1
  O  O23  1  0.66500100  0.02057700  0.69776100  1
  O  O24  1  0.04898600  0.56565600  0.06534000  1
  O  O25  1  0.43434400  0.95101400  0.43466000  1
  O  O26  1  0.95101400  0.43434400  0.93466000  1
  O  O27  1  0.56565600  0.04898600  0.56534000  1
  O  O28  1  0.28390000  0.51842300  0.13049900  1
  O  O29  1  0.48157700  0.71610000  0.36950100  1
  O  O30  1  0.71610000  0.48157700  0.86950100  1
  O  O31  1  0.51842300  0.28390000  0.63049900  1
  O  O32  1  0.32635200  0.27443000  0.31167000  1
  O  O33  1  0.72557000  0.67364800  0.18833000  1
  O  O34  1  0.67364800  0.72557000  0.68833000  1
  O  O35  1  0.27443000  0.32635200  0.81167000  1
  O  O36  1  0.45801400  0.44534200  0.31266700  1
  O  O37  1  0.55465800  0.54198600  0.18733300  1
  O  O38  1  0.54198600  0.55465800  0.68733300  1
  O  O39  1  0.44534200  0.45801400  0.81266700  1
  O  O40  1  0.42050700  0.31897400  0.43184000  1
  O  O41  1  0.68102600  0.57949300  0.06816000  1
  O  O42  1  0.57949300  0.68102600  0.56816000  1
  O  O43  1  0.31897400  0.42050700  0.93184000  1
  O  O44  1  0.19089800  0.54705500  0.36957100  1
  O  O45  1  0.45294500  0.80910200  0.13042900  1
  O  O46  1  0.80910200  0.45294500  0.63042900  1
  O  O47  1  0.54705500  0.19089800  0.86957100  1
  O  O48  1  0.54193700  0.26462400  0.18294900  1
  O  O49  1  0.73537600  0.45806300  0.31705100  1
  O  O50  1  0.45806300  0.73537600  0.81705100  1
  O  O51  1  0.26462400  0.54193700  0.68294900  1
  O  O52  1  0.73355800  0.96244300  0.18776300  1
  O  O53  1  0.03755700  0.26644200  0.31223700  1
  O  O54  1  0.26644200  0.03755700  0.81223700  1
  O  O55  1  0.96244300  0.73355800  0.68776300  1
  O  O56  1  0.92662100  0.56136100  0.32585000  1
  O  O57  1  0.43863900  0.07337900  0.17415000  1
  O  O58  1  0.07337900  0.43863900  0.67415000  1
  O  O59  1  0.56136100  0.92662100  0.82585000  1
  O  O60  1  0.60119100  0.10973400  0.06903200  1
  O  O61  1  0.89026600  0.39880900  0.43096800  1
  O  O62  1  0.39880900  0.89026600  0.93096800  1
  O  O63  1  0.10973400  0.60119100  0.56903200  1
  O  O64  1  0.68165700  0.28734900  0.49449900  1
  O  O65  1  0.71265100  0.31834300  0.00550100  1
  O  O66  1  0.31834300  0.71265100  0.50550100  1
  O  O67  1  0.28734900  0.68165700  0.99449900  1
  O  O68  1  0.24134600  0.18591100  0.98413800  1
  O  O69  1  0.81408900  0.75865400  0.51586200  1
  O  O70  1  0.75865400  0.81408900  0.01586200  1
  O  O71  1  0.18591100  0.24134600  0.48413800  1
loop_
_geom_bond_atom_site_label_1
_geom_bond_atom_site_label_2
_geom_bond_distance
_geom_bond_site_symmetry_2
K0 O21 2.922270 1_555
K0 O20 2.922270 1_555
K0 O9 2.942631 1_565
K0 O8 2.942631 1_455
K0 O37 2.981560 1_555
K0 O36 2.981560 1_555
K0 O5 3.015364 1_455
K0 O4 3.015364 1_565
K0 O29 3.128932 1_555
K0 O28 3.128932 1_555
K0 O45 3.163559 1_555
K0 O44 3.163559 1_555
K1 O23 2.922270 1_555
K1 O22 2.922270 1_555
K1 O11 2.942631 1_545
K1 O10 2.942631 1_655
K1 O38 2.981560 1_555
K1 O39 2.981560 1_555
K1 O7 3.015364 1_655
K1 O6 3.015364 1_545
K1 O30 3.128932 1_555
K1 O31 3.128932 1_555
K1 O46 3.163559 1_555
K1 O47 3.163559 1_555
Fe0 O17 1.984169 1_555
Fe0 O32 1.988264 1_555
Fe0 O4 2.015974 1_555
Fe0 O21 2.017991 1_545
Fe0 O57 2.083316 1_555
Fe0 O53 2.098160 1_555
Fe1 O16 1.984169 1_555
Fe1 O33 1.988264 1_555
Fe1 O5 2.015974 1_555
Fe1 O20 2.017991 1_655
Fe1 O56 2.083316 1_555
Fe1 O52 2.098160 1_555
Fe2 O19 1.984169 1_555
Fe2 O34 1.988264 1_555
Fe2 O6 2.015974 1_555
Fe2 O23 2.017991 1_565
Fe2 O59 2.083316 1_555
Fe2 O55 2.098160 1_555
Fe3 O18 1.984169 1_555
Fe3 O35 1.988264 1_555
Fe3 O7 2.015974 1_555
Fe3 O22 2.017991 1_455
Fe3 O58 2.083316 1_555
Fe3 O54 2.098160 1_555
Fe4 O1 1.977630 1_555
Fe4 O0 1.977630 1_555
Fe4 O37 2.009132 1_555
Fe4 O36 2.009132 1_555
Fe4 O48 2.083181 1_555
Fe4 O49 2.083181 1_555
Fe5 O3 1.977630 1_555
Fe5 O2 1.977630 1_555
Fe5 O38 2.009132 1_555
Fe5 O39 2.009132 1_555
Fe5 O50 2.083181 1_555
Fe5 O51 2.083181 1_555
H0 O61 1.007930 1_555
H1 O60 1.007930 1_555
H2 O63 1.007930 1_555
H3 O62 1.007930 1_555
H4 O28 1.013352 1_555
H4 O48 1.655009 1_555
H5 O29 1.013352 1_555
H5 O49 1.655009 1_555
H6 O30 1.013352 1_555
H6 O50 1.655009 1_555
H7 O31 1.013352 1_555
H7 O51 1.655009 1_555
H8 O24 0.995010 1_655
H9 O25 0.995010 1_545
H10 O26 0.995010 1_455
H11 O27 0.995010 1_565
H12 O8 1.015847 1_555
H12 O52 1.605769 1_555
H13 O9 1.015847 1_555
H13 O53 1.605769 1_555
H14 O10 1.015847 1_555
H14 O54 1.605769 1_555
H15 O11 1.015847 1_555
H15 O55 1.605769 1_555
H16 O12 1.007097 1_655
H17 O13 1.007097 1_545
H18 O14 1.007097 1_455
H19 O15 1.007097 1_565
H20 O44 1.010601 1_555
H20 O56 1.656333 1_455
H21 O45 1.010601 1_555
H21 O57 1.656333 1_565
H22 O46 1.010601 1_555
H22 O58 1.656333 1_655
H23 O47 1.010601 1_555
H23 O59 1.656333 1_545
H24 O40 0.998891 1_555
H25 O41 0.998891 1_555
H26 O42 0.998891 1_555
H27 O43 0.998891 1_555
H28 O69 0.979582 1_555
H29 O68 0.979582 1_555
H30 O71 0.979582 1_555
H31 O70 0.979582 1_555
H32 O69 0.984966 1_555
H33 O68 0.984966 1_554
H34 O71 0.984966 1_555
H35 O70 0.984966 1_556
H36 O65 0.982635 1_556
H37 O64 0.982635 1_555
H38 O67 0.982635 1_554
H39 O66 0.982635 1_555
H40 O65 0.985557 1_555
H41 O64 0.985557 1_555
H42 O67 0.985557 1_555
H43 O66 0.985557 1_555
O0 P1 1.519814 1_555
O1 P0 1.519814 1_555
O2 P3 1.519814 1_555
O3 P2 1.519814 1_555
O4 P1 1.512982 1_455
O5 P0 1.512982 1_565
O6 P3 1.512982 1_655
O7 P2 1.512982 1_545
O8 P1 1.580187 1_565
O9 P0 1.580187 1_455
O10 P3 1.580187 1_545
O11 P2 1.580187 1_655
O12 P1 1.591898 1_455
O13 P0 1.591898 1_565
O14 P3 1.591898 1_655
O15 P2 1.591898 1_545
O16 P5 1.515552 1_555
O17 P4 1.515552 1_555
O18 P7 1.515552 1_555
O19 P6 1.515552 1_555
O20 P4 1.520617 1_555
O21 P5 1.520617 1_555
O22 P6 1.520617 1_555
O23 P7 1.520617 1_555
O24 P4 1.574635 1_555
O25 P5 1.574635 1_555
O26 P6 1.574635 1_555
O27 P7 1.574635 1_555
O28 P4 1.597939 1_555
O29 P5 1.597939 1_555
O30 P6 1.597939 1_555
O31 P7 1.597939 1_555
O32 P8 1.512296 1_555
O33 P9 1.512296 1_555
O34 P10 1.512296 1_555
O35 P11 1.512296 1_555
O36 P8 1.525188 1_555
O37 P9 1.525188 1_555
O38 P10 1.525188 1_555
O39 P11 1.525188 1_555
O40 P8 1.588053 1_555
O41 P9 1.588053 1_555
O42 P10 1.588053 1_555
O43 P11 1.588053 1_555
O44 P8 1.581939 1_555
O45 P9 1.581939 1_555
O46 P10 1.581939 1_555
O47 P11 1.581939 1_555
O48 P12 1.539635 1_555
O49 P13 1.539635 1_555
O50 P14 1.539635 1_555
O51 P15 1.539635 1_555
O52 P12 1.543743 1_565
O53 P13 1.543743 1_455
O54 P14 1.543743 1_545
O55 P15 1.543743 1_655
O56 P13 1.540121 1_555
O57 P12 1.540121 1_555
O58 P15 1.540121 1_555
O59 P14 1.540121 1_555
O60 P12 1.609920 1_555
O61 P13 1.609920 1_555
O62 P14 1.609920 1_555
O63 P15 1.609920 1_555
