# generated using pymatgen
data_Li2Co3(P2O7)2
_symmetry_space_group_name_H-M   'P 1'
_cell_length_a   5.30304000
_cell_length_b   6.41071598
_cell_length_c   16.11776628
_cell_angle_alpha   81.16232331
_cell_angle_beta   81.76366925
_cell_angle_gamma   72.38125081
_symmetry_Int_Tables_number   1
_chemical_formula_structural   Li2Co3(P2O7)2
_chemical_formula_sum   'Li4 Co6 P8 O28'
_cell_volume   513.31021306
_cell_formula_units_Z   2
loop_
 _symmetry_equiv_pos_site_id
 _symmetry_equiv_pos_as_xyz
  1  'x, y, z'
loop_
 _atom_site_type_symbol
 _atom_site_label
 _atom_site_symmetry_multiplicity
 _atom_site_fract_x
 _atom_site_fract_y
 _atom_site_fract_z
 _atom_site_occupancy
  Li  Li0  1  0.92807800  0.77158600  0.00721700  1
  Li  Li1  1  0.35279500  0.68988900  0.11913100  1
  Li  Li2  1  0.07192200  0.22841400  0.99278300  1
  Li  Li3  1  0.64720500  0.31011100  0.88086900  1
  Co  Co0  1  0.80232900  0.72079200  0.40906300  1
  Co  Co1  1  0.04345700  0.62835900  0.81078100  1
  Co  Co2  1  0.95654300  0.37164100  0.18921900  1
  Co  Co3  1  0.23455000  0.96668300  0.33589600  1
  Co  Co4  1  0.76545000  0.03331700  0.66410400  1
  Co  Co5  1  0.19767100  0.27920800  0.59093700  1
  P  P0  1  0.17599100  0.09806500  0.78962200  1
  P  P1  1  0.36376800  0.43071800  0.31964300  1
  P  P2  1  0.63623200  0.56928200  0.68035700  1
  P  P3  1  0.29411200  0.78112500  0.54131600  1
  P  P4  1  0.43883900  0.75284300  0.92562200  1
  P  P5  1  0.82400900  0.90193500  0.21037800  1
  P  P6  1  0.56116100  0.24715700  0.07437800  1
  P  P7  1  0.70588800  0.21887500  0.45868400  1
  O  O0  1  0.25754100  0.32753300  0.07384800  1
  O  O1  1  0.11519900  0.98613900  0.58183500  1
  O  O2  1  0.28226700  0.85371400  0.00514500  1
  O  O3  1  0.60666800  0.45272100  0.26317800  1
  O  O4  1  0.44073800  0.30086900  0.41039200  1
  O  O5  1  0.34554300  0.14278700  0.70739500  1
  O  O6  1  0.97535000  0.69990300  0.16361700  1
  O  O7  1  0.74245900  0.67246700  0.92615200  1
  O  O8  1  0.83864200  0.40002400  0.45161100  1
  O  O9  1  0.65445700  0.85721300  0.29260500  1
  O  O10  1  0.39913200  0.95485800  0.85018200  1
  O  O11  1  0.17575600  0.65796900  0.33894300  1
  O  O12  1  0.32289500  0.57712400  0.90416800  1
  O  O13  1  0.82424400  0.34203100  0.66105700  1
  O  O14  1  0.58650600  0.15653300  0.54889900  1
  O  O15  1  0.16135800  0.59997600  0.54838900  1
  O  O16  1  0.02465000  0.30009700  0.83638300  1
  O  O17  1  0.88480100  0.01386100  0.41816500  1
  O  O18  1  0.01584500  0.03495300  0.21786500  1
  O  O19  1  0.60086800  0.04514200  0.14981800  1
  O  O20  1  0.39333200  0.54727900  0.73682200  1
  O  O21  1  0.20989100  0.29235700  0.28884800  1
  O  O22  1  0.98415500  0.96504700  0.78213500  1
  O  O23  1  0.55926200  0.69913100  0.58960800  1
  O  O24  1  0.41349400  0.84346700  0.45110100  1
  O  O25  1  0.79010900  0.70764300  0.71115200  1
  O  O26  1  0.71773300  0.14628600  0.99485500  1
  O  O27  1  0.67710500  0.42287600  0.09583200  1
loop_
_geom_bond_atom_site_label_1
_geom_bond_atom_site_label_2
_geom_bond_distance
_geom_bond_site_symmetry_2
Li0 O7 2.020423 1_554
Li0 O2 2.093209 1_655
Li0 O26 2.312704 1_564
Li0 O6 2.526642 1_555
Li0 O12 2.599282 1_654
Li1 O2 1.996094 1_555
Li1 O6 2.012416 1_455
Li1 O27 2.063793 1_555
Li2 O0 2.020423 1_556
Li2 O26 2.093209 1_455
Li2 O2 2.312704 1_546
Li2 O16 2.526642 1_555
Li2 O27 2.599282 1_456
Li3 O26 1.996094 1_555
Li3 O16 2.012416 1_655
Li3 O12 2.063793 1_555
Co0 O8 2.025035 1_555
Co0 O24 2.027609 1_555
Co0 O17 2.084015 1_565
Co0 O11 2.092103 1_655
Co0 O9 2.098861 1_555
Co1 O20 2.026465 1_555
Co1 O22 2.072509 1_455
Co1 O16 2.111193 1_555
Co1 O25 2.143807 1_455
Co1 O12 2.182185 1_555
Co1 O7 2.263529 1_455
Co2 O3 2.026465 1_555
Co2 O18 2.072509 1_655
Co2 O6 2.111193 1_555
Co2 O21 2.143807 1_655
Co2 O27 2.182185 1_555
Co2 O0 2.263529 1_655
Co3 O21 2.080317 1_565
Co3 O11 2.087022 1_555
Co3 O17 2.090160 1_465
Co3 O24 2.138394 1_555
Co3 O9 2.167304 1_555
Co3 O18 2.285791 1_565
Co4 O25 2.080317 1_545
Co4 O13 2.087022 1_555
Co4 O1 2.090160 1_645
Co4 O14 2.138394 1_555
Co4 O5 2.167304 1_555
Co4 O22 2.285791 1_545
Co5 O15 2.025035 1_555
Co5 O14 2.027609 1_555
Co5 O1 2.084015 1_545
Co5 O13 2.092103 1_455
Co5 O5 2.098861 1_555
O0 P6 1.535702 1_555
O1 P3 1.544468 1_555
O2 P4 1.541150 1_554
O3 P1 1.497348 1_555
O4 P1 1.609407 1_555
O4 P7 1.612356 1_555
O5 P0 1.531336 1_555
O6 P5 1.544992 1_555
O7 P4 1.535702 1_555
O8 P7 1.512765 1_555
O9 P5 1.531336 1_555
O10 P0 1.610524 1_565
O10 P4 1.620003 1_555
O11 P1 1.544123 1_555
O12 P4 1.538338 1_555
O13 P2 1.544123 1_555
O14 P7 1.544566 1_555
O15 P3 1.512765 1_555
O16 P0 1.544992 1_555
O17 P7 1.544468 1_555
O18 P5 1.539027 1_445
O19 P5 1.610524 1_545
O19 P6 1.620003 1_555
O20 P2 1.497348 1_555
O21 P1 1.545472 1_555
O22 P0 1.539027 1_665
O23 P2 1.609407 1_555
O23 P3 1.612356 1_555
O24 P3 1.544566 1_555
O25 P2 1.545472 1_555
O26 P6 1.541150 1_556
O27 P6 1.538338 1_555
