# generated using pymatgen
data_CaMgUH24C3O23
_symmetry_space_group_name_H-M   'P 1'
_cell_length_a   14.79046300
_cell_length_b   6.49048200
_cell_length_c   11.22040383
_cell_angle_alpha   80.31295026
_cell_angle_beta   90.00000000
_cell_angle_gamma   90.00000000
_symmetry_Int_Tables_number   1
_chemical_formula_structural   CaMgUH24C3O23
_chemical_formula_sum   'Ca2 Mg2 U2 H48 C6 O46'
_cell_volume   1061.76953348
_cell_formula_units_Z   2
loop_
 _symmetry_equiv_pos_site_id
 _symmetry_equiv_pos_as_xyz
  1  'x, y, z'
loop_
 _atom_site_type_symbol
 _atom_site_label
 _atom_site_symmetry_multiplicity
 _atom_site_fract_x
 _atom_site_fract_y
 _atom_site_fract_z
 _atom_site_occupancy
  Ca  Ca0  1  0.25000000  0.22041600  0.58643900  1
  Ca  Ca1  1  0.75000000  0.77958400  0.41356100  1
  Mg  Mg0  1  0.50000000  0.00000000  0.00000000  1
  Mg  Mg1  1  0.00000000  0.00000000  0.00000000  1
  U  U0  1  0.25000000  0.44911300  0.22030300  1
  U  U1  1  0.75000000  0.55088700  0.77969700  1
  H  H0  1  0.25000000  0.90146800  0.40482600  1
  H  H1  1  0.75000000  0.09853200  0.59517400  1
  H  H2  1  0.25000000  0.76137000  0.53331800  1
  H  H3  1  0.75000000  0.23863000  0.46668200  1
  H  H4  1  0.25000000  0.89526900  0.80824700  1
  H  H5  1  0.75000000  0.10473100  0.19175300  1
  H  H6  1  0.25000000  0.09109300  0.86695900  1
  H  H7  1  0.75000000  0.90890700  0.13304100  1
  H  H8  1  0.44939800  0.16657500  0.55725500  1
  H  H9  1  0.94939800  0.83342500  0.44274500  1
  H  H10  1  0.55060200  0.83342500  0.44274500  1
  H  H11  1  0.05060200  0.16657500  0.55725500  1
  H  H12  1  0.44105600  0.93591800  0.62108400  1
  H  H13  1  0.94105600  0.06408200  0.37891600  1
  H  H14  1  0.55894400  0.06408200  0.37891600  1
  H  H15  1  0.05894400  0.93591800  0.62108400  1
  H  H16  1  0.33061000  0.52831500  0.73091600  1
  H  H17  1  0.83061000  0.47168500  0.26908400  1
  H  H18  1  0.66939000  0.47168500  0.26908400  1
  H  H19  1  0.16939000  0.52831500  0.73091600  1
  H  H20  1  0.40541900  0.55330000  0.62785600  1
  H  H21  1  0.90541900  0.44670000  0.37214400  1
  H  H22  1  0.59458100  0.44670000  0.37214400  1
  H  H23  1  0.09458100  0.55330000  0.62785600  1
  H  H24  1  0.41635300  0.65362800  0.94662000  1
  H  H25  1  0.91635300  0.34637200  0.05338000  1
  H  H26  1  0.58364700  0.34637200  0.05338000  1
  H  H27  1  0.08364700  0.65362800  0.94662000  1
  H  H28  1  0.50675700  0.67652600  0.86310500  1
  H  H29  1  0.00675700  0.32347400  0.13689500  1
  H  H30  1  0.49324300  0.32347400  0.13689500  1
  H  H31  1  0.99324300  0.67652600  0.86310500  1
  H  H32  1  0.47850900  0.67606700  0.19555900  1
  H  H33  1  0.97850900  0.32393300  0.80444100  1
  H  H34  1  0.52149100  0.32393300  0.80444100  1
  H  H35  1  0.02149100  0.67606700  0.19555900  1
  H  H36  1  0.53450300  0.86249100  0.24034800  1
  H  H37  1  0.03450300  0.13750900  0.75965200  1
  H  H38  1  0.46549700  0.13750900  0.75965200  1
  H  H39  1  0.96549700  0.86249100  0.24034800  1
  H  H40  1  0.33498700  0.00044500  0.10002500  1
  H  H41  1  0.83498700  0.99955500  0.89997500  1
  H  H42  1  0.66501300  0.99955500  0.89997500  1
  H  H43  1  0.16501300  0.00044500  0.10002500  1
  H  H44  1  0.35074400  0.20255700  0.00756600  1
  H  H45  1  0.85074400  0.79744300  0.99243400  1
  H  H46  1  0.64925600  0.79744300  0.99243400  1
  H  H47  1  0.14925600  0.20255700  0.00756600  1
  C  C0  1  0.25000000  0.54714300  0.95508500  1
  C  C1  1  0.75000000  0.45285700  0.04491500  1
  C  C2  1  0.41887000  0.36421600  0.35448800  1
  C  C3  1  0.91887000  0.63578400  0.64551200  1
  C  C4  1  0.58113000  0.63578400  0.64551200  1
  C  C5  1  0.08113000  0.36421600  0.35448800  1
  O  O0  1  0.25000000  0.72694400  0.22845700  1
  O  O1  1  0.75000000  0.27305600  0.77154300  1
  O  O2  1  0.25000000  0.17111300  0.20966400  1
  O  O3  1  0.75000000  0.82888700  0.79033600  1
  O  O4  1  0.32464000  0.50992000  0.01833500  1
  O  O5  1  0.82464000  0.49008000  0.98166500  1
  O  O6  1  0.67536000  0.49008000  0.98166500  1
  O  O7  1  0.17536000  0.50992000  0.01833500  1
  O  O8  1  0.25000000  0.61237900  0.84186900  1
  O  O9  1  0.75000000  0.38762100  0.15813100  1
  O  O10  1  0.41861900  0.43296900  0.23706700  1
  O  O11  1  0.91861900  0.56703100  0.76293300  1
  O  O12  1  0.58138100  0.56703100  0.76293300  1
  O  O13  1  0.08138100  0.43296900  0.23706700  1
  O  O14  1  0.33882900  0.36079300  0.40407400  1
  O  O15  1  0.83882900  0.63920700  0.59592600  1
  O  O16  1  0.66117100  0.63920700  0.59592600  1
  O  O17  1  0.16117100  0.36079300  0.40407400  1
  O  O18  1  0.48991400  0.30494600  0.41418200  1
  O  O19  1  0.98991400  0.69505400  0.58581800  1
  O  O20  1  0.51008600  0.69505400  0.58581800  1
  O  O21  1  0.01008600  0.30494600  0.41418200  1
  O  O22  1  0.25000000  0.90635500  0.49133000  1
  O  O23  1  0.75000000  0.09364500  0.50867000  1
  O  O24  1  0.25000000  0.04952500  0.78815100  1
  O  O25  1  0.75000000  0.95047500  0.21184900  1
  O  O26  1  0.42057700  0.07706500  0.62802700  1
  O  O27  1  0.92057700  0.92293500  0.37197300  1
  O  O28  1  0.57942300  0.92293500  0.37197300  1
  O  O29  1  0.07942300  0.07706500  0.62802700  1
  O  O30  1  0.34536400  0.49255500  0.65151900  1
  O  O31  1  0.84536400  0.50744500  0.34848100  1
  O  O32  1  0.65463600  0.50744500  0.34848100  1
  O  O33  1  0.15463600  0.49255500  0.65151900  1
  O  O34  1  0.46782500  0.74584700  0.91621400  1
  O  O35  1  0.96782500  0.25415300  0.08378600  1
  O  O36  1  0.53217500  0.25415300  0.08378600  1
  O  O37  1  0.03217500  0.74584700  0.91621400  1
  O  O38  1  0.50425200  0.81697600  0.16951200  1
  O  O39  1  0.00425200  0.18302400  0.83048800  1
  O  O40  1  0.49574800  0.18302400  0.83048800  1
  O  O41  1  0.99574800  0.81697600  0.16951200  1
  O  O42  1  0.35973000  0.05050200  0.01928400  1
  O  O43  1  0.85973000  0.94949800  0.98071600  1
  O  O44  1  0.64027000  0.94949800  0.98071600  1
  O  O45  1  0.14027000  0.05050200  0.01928400  1
loop_
_geom_bond_atom_site_label_1
_geom_bond_atom_site_label_2
_geom_bond_distance
_geom_bond_site_symmetry_2
Ca0 O24 2.346893 1_555
Ca0 O22 2.454792 1_545
Ca0 O30 2.465076 1_555
Ca0 O33 2.465076 1_555
Ca0 O14 2.473018 1_555
Ca0 O17 2.473018 1_555
Ca0 O26 2.702296 1_555
Ca0 O29 2.702296 1_555
Ca1 O25 2.346893 1_555
Ca1 O23 2.454792 1_565
Ca1 O32 2.465076 1_555
Ca1 O31 2.465076 1_555
Ca1 O15 2.473018 1_555
Ca1 O16 2.473018 1_555
Ca1 O27 2.702296 1_555
Ca1 O28 2.702296 1_555
Mg0 O40 2.066956 1_554
Mg0 O38 2.066956 1_545
Mg0 O36 2.086448 1_555
Mg0 O34 2.086448 1_544
Mg0 O42 2.117152 1_555
Mg0 O44 2.117152 1_544
Mg1 O39 2.066956 1_554
Mg1 O41 2.066956 1_445
Mg1 O35 2.086448 1_455
Mg1 O37 2.086448 1_544
Mg1 O45 2.117152 1_555
Mg1 O43 2.117152 1_444
H0 O22 0.976448 1_555
H1 O23 0.976448 1_555
H2 O22 0.978919 1_555
H3 O23 0.978919 1_555
H4 O24 0.988566 1_565
H5 O25 0.988566 1_545
H6 O24 0.966948 1_555
H7 O25 0.966948 1_555
H8 O26 0.997273 1_555
H9 O27 0.997273 1_555
H10 O28 0.997273 1_555
H11 O29 0.997273 1_555
H12 O26 0.980353 1_565
H13 O27 0.980353 1_545
H14 O28 0.980353 1_545
H15 O29 0.980353 1_565
H16 O30 0.982200 1_555
H17 O31 0.982200 1_555
H18 O32 0.982200 1_555
H19 O33 0.982200 1_555
H20 O30 0.989789 1_555
H21 O31 0.989789 1_555
H22 O32 0.989789 1_555
H23 O33 0.989789 1_555
H24 O34 0.992724 1_555
H25 O35 0.992724 1_555
H26 O36 0.992724 1_555
H27 O37 0.992724 1_555
H28 O34 0.989614 1_555
H29 O35 0.989614 1_455
H30 O36 0.989614 1_555
H31 O37 0.989614 1_655
H32 O38 0.988366 1_555
H33 O39 0.988366 1_655
H34 O40 0.988366 1_555
H35 O41 0.988366 1_455
H36 O38 0.999098 1_555
H37 O39 0.999098 1_555
H38 O40 0.999098 1_555
H39 O41 0.999098 1_555
H40 O42 0.980392 1_555
H41 O43 0.980392 1_555
H42 O44 0.980392 1_555
H43 O45 0.980392 1_555
H44 O42 0.982484 1_555
H45 O43 0.982484 1_555
H46 O44 0.982484 1_555
H47 O45 0.982484 1_555
C0 O8 1.269647 1_555
C0 O7 1.312652 1_556
C0 O4 1.312652 1_556
C1 O9 1.269647 1_555
C1 O6 1.312652 1_554
C1 O5 1.312652 1_554
C2 O18 1.270441 1_555
C2 O14 1.306665 1_555
C2 O10 1.317999 1_555
C3 O19 1.270441 1_555
C3 O15 1.306665 1_555
C3 O11 1.317999 1_555
C4 O20 1.270441 1_555
C4 O16 1.306665 1_555
C4 O12 1.317999 1_555
C5 O21 1.270441 1_555
C5 O17 1.306665 1_555
C5 O13 1.317999 1_555
O0 U0 1.820887 1_555
O1 U1 1.820887 1_555
O2 U0 1.828231 1_555
O3 U1 1.828231 1_555
O4 U0 2.491785 1_555
O5 U1 2.491785 1_555
O6 U1 2.491785 1_555
O7 U0 2.491785 1_555
O10 U0 2.501905 1_555
O11 U1 2.501905 1_555
O12 U1 2.501905 1_555
O13 U0 2.501905 1_555
O14 U0 2.430787 1_555
O15 U1 2.430787 1_555
O16 U1 2.430787 1_555
O17 U0 2.430787 1_555
