# generated using pymatgen
data_Li4CoNi5(PO4)6
_symmetry_space_group_name_H-M   'P 1'
_cell_length_a   8.28485200
_cell_length_b   8.34759820
_cell_length_c   8.36373437
_cell_angle_alpha   63.05782321
_cell_angle_beta   63.26035454
_cell_angle_gamma   63.43151399
_symmetry_Int_Tables_number   1
_chemical_formula_structural   Li4CoNi5(PO4)6
_chemical_formula_sum   'Li4 Co1 Ni5 P6 O24'
_cell_volume   438.45139800
_cell_formula_units_Z   1
loop_
 _symmetry_equiv_pos_site_id
 _symmetry_equiv_pos_as_xyz
  1  'x, y, z'
loop_
 _atom_site_type_symbol
 _atom_site_label
 _atom_site_symmetry_multiplicity
 _atom_site_fract_x
 _atom_site_fract_y
 _atom_site_fract_z
 _atom_site_occupancy
  Li  Li0  1  0.74819400  0.14493600  0.35659100  1
  Li  Li1  1  0.25887100  0.85483800  0.64532600  1
  Li  Li2  1  0.64384700  0.25847800  0.85617300  1
  Li  Li3  1  0.85608200  0.64415600  0.25896100  1
  Co  Co0  1  0.85766600  0.85501800  0.85734700  1
  Ni  Ni0  1  0.00830400  0.00193100  0.99727400  1
  Ni  Ni1  1  0.35747900  0.35813700  0.35622500  1
  Ni  Ni2  1  0.49352700  0.50278300  0.49978500  1
  Ni  Ni3  1  0.14146300  0.14399900  0.14350800  1
  Ni  Ni4  1  0.64515400  0.64640900  0.64840400  1
  P  P0  1  0.05270700  0.74722200  0.45252300  1
  P  P1  1  0.44860000  0.04821500  0.75260700  1
  P  P2  1  0.75012800  0.45141300  0.04847200  1
  P  P3  1  0.24727800  0.54572700  0.95323600  1
  P  P4  1  0.55112900  0.95361500  0.24830800  1
  P  P5  1  0.94730500  0.24656600  0.54504800  1
  O  O0  1  0.47398000  0.89456900  0.68408500  1
  O  O1  1  0.68056900  0.47624600  0.89635400  1
  O  O2  1  0.89684400  0.67838400  0.47797300  1
  O  O3  1  0.05229700  0.91185500  0.26081000  1
  O  O4  1  0.01428300  0.81453100  0.61425600  1
  O  O5  1  0.24959300  0.59822900  0.43402500  1
  O  O6  1  0.25170300  0.07006100  0.90413700  1
  O  O7  1  0.45328200  0.23903800  0.58978700  1
  O  O8  1  0.17933700  0.38983200  0.98749900  1
  O  O9  1  0.60326800  0.43149000  0.25028300  1
  O  O10  1  0.08938700  0.74962300  0.92994200  1
  O  O11  1  0.38656600  0.00117700  0.18789200  1
  O  O12  1  0.61174900  0.00891100  0.82202700  1
  O  O13  1  0.89918600  0.24973400  0.07186200  1
  O  O14  1  0.39950500  0.56918600  0.75264000  1
  O  O15  1  0.81834100  0.61227000  0.01246000  1
  O  O16  1  0.56954600  0.75344500  0.40139400  1
  O  O17  1  0.75425600  0.92653500  0.08737300  1
  O  O18  1  0.74835900  0.40143500  0.57359400  1
  O  O19  1  0.96282800  0.18341200  0.39356400  1
  O  O20  1  0.93031100  0.08729100  0.74854300  1
  O  O21  1  0.11151600  0.30508300  0.50549800  1
  O  O22  1  0.31231900  0.51731900  0.10792500  1
  O  O23  1  0.54324200  0.10390100  0.30928800  1
loop_
_geom_bond_atom_site_label_1
_geom_bond_atom_site_label_2
_geom_bond_distance
_geom_bond_site_symmetry_2
Li0 O23 2.098731 1_555
Li0 O13 2.100379 1_555
Li0 O9 2.101963 1_555
Li0 O19 2.111051 1_555
Li0 O7 2.402921 1_555
Li0 O3 2.446665 1_645
Li1 O14 2.089349 1_555
Li1 O0 2.130060 1_555
Li1 O10 2.147173 1_555
Li1 O4 2.334506 1_555
Li1 O16 2.528685 1_555
Li1 O20 2.568776 1_465
Li2 O18 2.070401 1_555
Li2 O1 2.156470 1_555
Li2 O20 2.166651 1_555
Li2 O12 2.365463 1_555
Li2 O14 2.533841 1_555
Li2 O17 2.592850 1_546
Li3 O16 2.095131 1_555
Li3 O17 2.138396 1_555
Li3 O2 2.160617 1_555
Li3 O15 2.360278 1_555
Li3 O18 2.549343 1_555
Li3 O10 2.573743 1_654
Co0 O15 1.929596 1_556
Co0 O12 1.935185 1_565
Co0 O4 1.946272 1_655
Co0 O10 1.970328 1_655
Co0 O17 1.972750 1_556
Co0 O20 1.975318 1_565
Ni0 O6 2.051222 1_555
Ni0 O13 2.115287 1_456
Ni0 O3 2.128943 1_546
Ni0 O10 2.161734 1_545
Ni0 O20 2.169674 1_455
Ni0 O17 2.172988 1_446
Ni1 O21 1.980960 1_555
Ni1 O22 1.993051 1_555
Ni1 O5 2.072450 1_555
Ni1 O9 2.075268 1_555
Ni1 O23 2.077557 1_555
Ni1 O7 2.088977 1_555
Ni2 O5 2.045565 1_555
Ni2 O7 2.110453 1_555
Ni2 O9 2.114110 1_555
Ni2 O14 2.140113 1_555
Ni2 O16 2.145740 1_555
Ni2 O18 2.157769 1_555
Ni3 O8 1.947647 1_554
Ni3 O11 1.947905 1_555
Ni3 O19 2.018706 1_455
Ni3 O3 2.041822 1_545
Ni3 O13 2.045816 1_455
Ni3 O6 2.047756 1_554
Ni4 O1 1.977306 1_555
Ni4 O2 1.982322 1_555
Ni4 O0 1.985681 1_555
Ni4 O14 2.094079 1_555
Ni4 O18 2.101980 1_555
Ni4 O16 2.109482 1_555
O0 P1 1.527762 1_565
O1 P2 1.519107 1_556
O2 P0 1.532500 1_655
O3 P0 1.569576 1_555
O4 P0 1.545330 1_555
O5 P0 1.537538 1_555
O6 P1 1.543827 1_555
O7 P1 1.560569 1_555
O8 P3 1.504868 1_555
O9 P2 1.560645 1_555
O10 P3 1.607249 1_555
O11 P4 1.491878 1_545
O12 P1 1.551980 1_555
O13 P2 1.567410 1_555
O14 P3 1.569346 1_555
O15 P2 1.540219 1_555
O16 P4 1.569617 1_555
O17 P4 1.609965 1_555
O18 P5 1.569864 1_555
O19 P5 1.515807 1_555
O20 P5 1.607955 1_555
O21 P5 1.497322 1_455
O22 P3 1.501828 1_554
O23 P4 1.521420 1_545
