# generated using pymatgen
data_Li2FeCo9O20
_symmetry_space_group_name_H-M   'P 1'
_cell_length_a   4.93487500
_cell_length_b   7.50832840
_cell_length_c   10.02071564
_cell_angle_alpha   95.63867986
_cell_angle_beta   94.66132495
_cell_angle_gamma   108.99298982
_symmetry_Int_Tables_number   1
_chemical_formula_structural   Li2FeCo9O20
_chemical_formula_sum   'Li2 Fe1 Co9 O20'
_cell_volume   346.84229017
_cell_formula_units_Z   1
loop_
 _symmetry_equiv_pos_site_id
 _symmetry_equiv_pos_as_xyz
  1  'x, y, z'
loop_
 _atom_site_type_symbol
 _atom_site_label
 _atom_site_symmetry_multiplicity
 _atom_site_fract_x
 _atom_site_fract_y
 _atom_site_fract_z
 _atom_site_occupancy
  Li  Li0  1  0.80036000  0.34784700  0.24631100  1
  Li  Li1  1  0.19964000  0.65215300  0.75368900  1
  Fe  Fe0  1  0.00000000  0.00000000  0.50000000  1
  Co  Co0  1  0.20092200  0.90092100  0.00527900  1
  Co  Co1  1  0.60290600  0.20310500  0.50464700  1
  Co  Co2  1  0.79907800  0.09907900  0.99472100  1
  Co  Co3  1  0.39967600  0.30001600  0.99521900  1
  Co  Co4  1  0.20127500  0.40244300  0.49971600  1
  Co  Co5  1  0.79872500  0.59755700  0.50028400  1
  Co  Co6  1  0.00000000  0.50000000  0.00000000  1
  Co  Co7  1  0.39709400  0.79689500  0.49535300  1
  Co  Co8  1  0.60032400  0.69998400  0.00478100  1
  O  O0  1  0.89050400  0.91950000  0.09625200  1
  O  O1  1  0.33065100  0.98294600  0.40230000  1
  O  O2  1  0.66934900  0.01705400  0.59770000  1
  O  O3  1  0.49957600  0.87484800  0.90405800  1
  O  O4  1  0.10949600  0.08050000  0.90374800  1
  O  O5  1  0.30461600  0.23377400  0.59809700  1
  O  O6  1  0.50042400  0.12515200  0.09594200  1
  O  O7  1  0.90331800  0.19780000  0.39924500  1
  O  O8  1  0.51477100  0.38332700  0.40342700  1
  O  O9  1  0.70718400  0.28131100  0.90250500  1
  O  O10  1  0.90187000  0.42505200  0.60007300  1
  O  O11  1  0.08397900  0.31345800  0.09401200  1
  O  O12  1  0.68757800  0.51192200  0.09733800  1
  O  O13  1  0.09813000  0.57494800  0.39992700  1
  O  O14  1  0.48522900  0.61667300  0.59657300  1
  O  O15  1  0.31242200  0.48807800  0.90266200  1
  O  O16  1  0.09668200  0.80220000  0.60075500  1
  O  O17  1  0.91602100  0.68654200  0.90598800  1
  O  O18  1  0.29281600  0.71868900  0.09749500  1
  O  O19  1  0.69538400  0.76622600  0.40190300  1
loop_
_geom_bond_atom_site_label_1
_geom_bond_atom_site_label_2
_geom_bond_distance
_geom_bond_site_symmetry_2
Li0 O7 2.112173 1_555
Li0 O12 2.174524 1_555
Li0 O6 2.188283 1_555
Li0 O11 2.204473 1_655
Li0 O13 2.218565 1_655
Li0 O8 2.249134 1_555
Li1 O16 2.112173 1_555
Li1 O15 2.174524 1_555
Li1 O3 2.188283 1_555
Li1 O17 2.204473 1_455
Li1 O10 2.218565 1_455
Li1 O14 2.249134 1_555
Fe0 O1 2.002100 1_545
Fe0 O2 2.002100 1_455
Fe0 O5 2.002561 1_555
Fe0 O19 2.002561 1_445
Fe0 O16 2.032302 1_545
Fe0 O7 2.032302 1_455
Co0 O18 1.875076 1_555
Co0 O0 1.881014 1_455
Co0 O17 1.882139 1_454
Co0 O3 1.905528 1_554
Co0 O4 1.909880 1_564
Co0 O6 1.925068 1_565
Co1 O2 1.852788 1_555
Co1 O5 1.870587 1_555
Co1 O1 1.893867 1_545
Co1 O7 1.897264 1_555
Co1 O8 1.905287 1_555
Co1 O10 1.930117 1_555
Co2 O9 1.875076 1_555
Co2 O4 1.881014 1_655
Co2 O11 1.882139 1_656
Co2 O6 1.905528 1_556
Co2 O0 1.909880 1_546
Co2 O3 1.925068 1_545
Co3 O9 1.878285 1_555
Co3 O4 1.887024 1_555
Co3 O12 1.889328 1_556
Co3 O6 1.895638 1_556
Co3 O15 1.904644 1_555
Co3 O11 1.936687 1_556
Co4 O5 1.849272 1_555
Co4 O14 1.870279 1_555
Co4 O7 1.876536 1_455
Co4 O13 1.880831 1_555
Co4 O10 1.895902 1_455
Co4 O8 1.924823 1_555
Co5 O19 1.849272 1_555
Co5 O8 1.870279 1_555
Co5 O16 1.876536 1_655
Co5 O10 1.880831 1_555
Co5 O13 1.895902 1_655
Co5 O14 1.924823 1_555
Co6 O11 1.895950 1_555
Co6 O17 1.895950 1_454
Co6 O18 1.910385 1_555
Co6 O9 1.910385 1_454
Co6 O12 1.911423 1_455
Co6 O15 1.911423 1_554
Co7 O1 1.852788 1_555
Co7 O19 1.870587 1_555
Co7 O2 1.893867 1_565
Co7 O16 1.897264 1_555
Co7 O14 1.905287 1_555
Co7 O13 1.930117 1_555
Co8 O18 1.878285 1_555
Co8 O0 1.887024 1_555
Co8 O15 1.889328 1_554
Co8 O3 1.895638 1_554
Co8 O12 1.904644 1_555
Co8 O17 1.936687 1_554
