# generated using pymatgen
data_HoGaO3
_symmetry_space_group_name_H-M   'P 1'
_cell_length_a   5.28377400
_cell_length_b   5.59309000
_cell_length_c   7.63411200
_cell_angle_alpha   90.00000000
_cell_angle_beta   90.00000000
_cell_angle_gamma   90.00000000
_symmetry_Int_Tables_number   1
_chemical_formula_structural   HoGaO3
_chemical_formula_sum   'Ho4 Ga4 O12'
_cell_volume   225.60803786
_cell_formula_units_Z   4
loop_
 _symmetry_equiv_pos_site_id
 _symmetry_equiv_pos_as_xyz
  1  'x, y, z'
loop_
 _atom_site_type_symbol
 _atom_site_label
 _atom_site_symmetry_multiplicity
 _atom_site_fract_x
 _atom_site_fract_y
 _atom_site_fract_z
 _atom_site_occupancy
  Ho  Ho0  1  0.52046800  0.06896200  0.75000000  1
  Ho  Ho1  1  0.97953200  0.56896200  0.75000000  1
  Ho  Ho2  1  0.02046800  0.43103800  0.25000000  1
  Ho  Ho3  1  0.47953200  0.93103800  0.25000000  1
  Ga  Ga0  1  0.50000000  0.50000000  0.50000000  1
  Ga  Ga1  1  0.00000000  0.00000000  0.50000000  1
  Ga  Ga2  1  0.00000000  0.00000000  0.00000000  1
  Ga  Ga3  1  0.50000000  0.50000000  0.00000000  1
  O  O0  1  0.61483200  0.54148600  0.25000000  1
  O  O1  1  0.69383400  0.80393200  0.55883400  1
  O  O2  1  0.69383400  0.80393200  0.94116600  1
  O  O3  1  0.80616600  0.30393200  0.94116600  1
  O  O4  1  0.80616600  0.30393200  0.55883400  1
  O  O5  1  0.88516800  0.04148600  0.25000000  1
  O  O6  1  0.11483200  0.95851400  0.75000000  1
  O  O7  1  0.19383400  0.69606800  0.05883400  1
  O  O8  1  0.19383400  0.69606800  0.44116600  1
  O  O9  1  0.30616600  0.19606800  0.44116600  1
  O  O10  1  0.30616600  0.19606800  0.05883400  1
  O  O11  1  0.38516800  0.45851400  0.75000000  1
loop_
_geom_bond_atom_site_label_1
_geom_bond_atom_site_label_2
_geom_bond_distance
_geom_bond_site_symmetry_2
Ho0 O6 2.230537 1_545
Ho0 O2 2.272933 1_545
Ho0 O1 2.272933 1_545
Ho0 O11 2.293086 1_555
Ho0 O3 2.477039 1_555
Ho0 O4 2.477039 1_555
Ho0 O9 2.710384 1_555
Ho0 O10 2.710384 1_556
Ho1 O11 2.230537 1_655
Ho1 O3 2.272933 1_555
Ho1 O4 2.272933 1_555
Ho1 O6 2.293086 1_655
Ho1 O2 2.477039 1_555
Ho1 O1 2.477039 1_555
Ho1 O8 2.710384 1_655
Ho1 O7 2.710384 1_656
Ho2 O0 2.230537 1_455
Ho2 O7 2.272933 1_555
Ho2 O8 2.272933 1_555
Ho2 O5 2.293086 1_455
Ho2 O9 2.477039 1_555
Ho2 O10 2.477039 1_555
Ho2 O4 2.710384 1_455
Ho2 O3 2.710384 1_454
Ho3 O5 2.230537 1_565
Ho3 O10 2.272933 1_565
Ho3 O9 2.272933 1_565
Ho3 O0 2.293086 1_555
Ho3 O8 2.477039 1_555
Ho3 O7 2.477039 1_555
Ho3 O1 2.710384 1_555
Ho3 O2 2.710384 1_554
Ga0 O4 2.005321 1_555
Ga0 O8 2.005321 1_555
Ga0 O0 2.016051 1_555
Ga0 O11 2.016051 1_555
Ga0 O1 2.034795 1_555
Ga0 O9 2.034795 1_555
Ga1 O1 2.005321 1_445
Ga1 O9 2.005321 1_555
Ga1 O6 2.016051 1_545
Ga1 O5 2.016051 1_455
Ga1 O8 2.034795 1_545
Ga1 O4 2.034795 1_455
Ga2 O10 2.005321 1_555
Ga2 O2 2.005321 1_444
Ga2 O6 2.016051 1_544
Ga2 O5 2.016051 1_455
Ga2 O7 2.034795 1_545
Ga2 O3 2.034795 1_454
Ga3 O3 2.005321 1_554
Ga3 O7 2.005321 1_555
Ga3 O0 2.016051 1_555
Ga3 O11 2.016051 1_554
Ga3 O2 2.034795 1_554
Ga3 O10 2.034795 1_555
