# generated using pymatgen
data_Ba4Ti3O10
_symmetry_space_group_name_H-M   'P 1'
_cell_length_a   14.97284721
_cell_length_b   14.97034299
_cell_length_c   4.09626567
_cell_angle_alpha   82.17190945
_cell_angle_beta   82.10251341
_cell_angle_gamma   15.72557714
_symmetry_Int_Tables_number   1
_chemical_formula_structural   Ba4Ti3O10
_chemical_formula_sum   'Ba4 Ti3 O10'
_cell_volume   246.46560435
_cell_formula_units_Z   1
loop_
 _symmetry_equiv_pos_site_id
 _symmetry_equiv_pos_as_xyz
  1  'x, y, z'
loop_
 _atom_site_type_symbol
 _atom_site_label
 _atom_site_symmetry_multiplicity
 _atom_site_fract_x
 _atom_site_fract_y
 _atom_site_fract_z
 _atom_site_occupancy
  Ba  Ba0  1  0.92467400  0.94004000  0.05996000  1
  Ba  Ba1  1  0.79339600  0.80400700  0.19599300  1
  Ba  Ba2  1  0.05996000  0.07532600  0.92467400  1
  Ba  Ba3  1  0.19599300  0.20660400  0.79339600  1
  Ti  Ti0  1  0.47593500  0.52406500  0.47593500  1
  Ti  Ti1  1  0.61476000  0.65990800  0.34009200  1
  Ti  Ti2  1  0.34009200  0.38524000  0.61476000  1
  O  O0  1  0.30619900  0.28655200  0.71344800  1
  O  O1  1  0.57671200  0.55944900  0.44055100  1
  O  O2  1  0.50549800  0.49450200  0.02202900  1
  O  O3  1  0.02202900  0.97797100  0.50549800  1
  O  O4  1  0.63884200  0.63511700  0.88170700  1
  O  O5  1  0.15566600  0.11829300  0.36488300  1
  O  O6  1  0.36488300  0.36115800  0.15566600  1
  O  O7  1  0.88170700  0.84433400  0.63884200  1
  O  O8  1  0.71344800  0.69380100  0.30619900  1
  O  O9  1  0.44055100  0.42328800  0.57671200  1
loop_
_geom_bond_atom_site_label_1
_geom_bond_atom_site_label_2
_geom_bond_distance
_geom_bond_site_symmetry_2
Ba0 O9 2.808271 1_564
Ba0 O2 2.817468 1_565
Ba0 O3 2.817468 1_654
Ba0 O6 2.862696 1_565
Ba0 O7 2.862696 1_554
Ba0 O9 2.891598 1_565
Ba0 O9 2.891598 1_654
Ba0 O2 2.895672 1_655
Ba0 O3 2.895672 1_655
Ba0 O6 2.918787 1_655
Ba0 O7 2.918787 1_555
Ba0 O9 2.997710 1_655
Ba1 O7 2.766522 1_554
Ba1 O6 2.766522 1_565
Ba1 O8 2.794503 1_555
Ba1 O6 2.810301 1_655
Ba1 O7 2.810301 1_555
Ba1 O0 2.815953 1_564
Ba1 O0 2.892160 1_565
Ba1 O0 2.892160 1_654
Ba1 O0 2.991580 1_655
Ba2 O1 2.808271 1_455
Ba2 O3 2.817468 1_545
Ba2 O2 2.817468 1_456
Ba2 O5 2.862696 1_555
Ba2 O4 2.862696 1_455
Ba2 O1 2.891598 1_545
Ba2 O1 2.891598 1_456
Ba2 O3 2.895672 1_546
Ba2 O2 2.895672 1_546
Ba2 O4 2.918787 1_545
Ba2 O5 2.918787 1_556
Ba2 O1 2.997710 1_546
Ba3 O4 2.766522 1_455
Ba3 O5 2.766522 1_555
Ba3 O0 2.794503 1_555
Ba3 O4 2.810301 1_545
Ba3 O5 2.810301 1_556
Ba3 O8 2.815953 1_455
Ba3 O8 2.892160 1_456
Ba3 O8 2.892160 1_545
Ba3 O8 2.991580 1_546
O0 Ti2 1.956510 1_555
O1 Ti0 2.009022 1_555
O1 Ti1 2.042544 1_555
O2 Ti0 1.862719 1_555
O2 Ti0 2.240762 1_554
O3 Ti0 1.862719 1_555
O3 Ti0 2.240762 1_465
O4 Ti1 1.881365 1_556
O4 Ti1 2.219876 1_555
O5 Ti1 1.881365 1_545
O5 Ti1 2.219876 1_455
O6 Ti2 1.881365 1_555
O6 Ti2 2.219876 1_554
O7 Ti2 1.881365 1_655
O7 Ti2 2.219876 1_565
O8 Ti1 1.956510 1_555
O9 Ti0 2.009022 1_555
O9 Ti2 2.042544 1_555
