# generated using pymatgen
data_Ho2(WO4)3
_symmetry_space_group_name_H-M   'P 1'
_cell_length_a   6.92624795
_cell_length_b   6.92624795
_cell_length_c   11.40584058
_cell_angle_alpha   79.18845816
_cell_angle_beta   79.18845816
_cell_angle_gamma   112.15655902
_symmetry_Int_Tables_number   1
_chemical_formula_structural   Ho2(WO4)3
_chemical_formula_sum   'Ho4 W6 O24'
_cell_volume   477.28104055
_cell_formula_units_Z   2
loop_
 _symmetry_equiv_pos_site_id
 _symmetry_equiv_pos_as_xyz
  1  'x, y, z'
loop_
 _atom_site_type_symbol
 _atom_site_label
 _atom_site_symmetry_multiplicity
 _atom_site_fract_x
 _atom_site_fract_y
 _atom_site_fract_z
 _atom_site_occupancy
  Ho  Ho0  1  0.71231500  0.95720300  0.59311500  1
  Ho  Ho1  1  0.95720300  0.71231500  0.09311500  1
  Ho  Ho2  1  0.04279700  0.28768500  0.90688500  1
  Ho  Ho3  1  0.28768500  0.04279700  0.40688500  1
  W  W0  1  0.53950000  0.75341700  0.95082200  1
  W  W1  1  0.75341700  0.53950000  0.45082200  1
  W  W2  1  0.13192800  0.86807200  0.75000000  1
  W  W3  1  0.86807200  0.13192800  0.25000000  1
  W  W4  1  0.24658300  0.46050000  0.54917800  1
  W  W5  1  0.46050000  0.24658300  0.04917800  1
  O  O0  1  0.54873700  0.90435100  0.79826900  1
  O  O1  1  0.87156700  0.79102000  0.71941800  1
  O  O2  1  0.07930000  0.65878400  0.89412000  1
  O  O3  1  0.76715500  0.32968700  0.56177000  1
  O  O4  1  0.81906600  0.91871800  0.96212100  1
  O  O5  1  0.52745800  0.60338500  0.57596300  1
  O  O6  1  0.90435100  0.54873700  0.29826900  1
  O  O7  1  0.39661500  0.47254200  0.92403700  1
  O  O8  1  0.08128200  0.18093400  0.53787900  1
  O  O9  1  0.67031300  0.23284500  0.93823000  1
  O  O10  1  0.34121600  0.92070000  0.60588000  1
  O  O11  1  0.79102000  0.87156700  0.21941800  1
  O  O12  1  0.20898000  0.12843300  0.78058200  1
  O  O13  1  0.65878400  0.07930000  0.39412000  1
  O  O14  1  0.32968700  0.76715500  0.06177000  1
  O  O15  1  0.91871800  0.81906600  0.46212100  1
  O  O16  1  0.60338500  0.52745800  0.07596300  1
  O  O17  1  0.09564900  0.45126300  0.70173100  1
  O  O18  1  0.47254200  0.39661500  0.42403700  1
  O  O19  1  0.18093400  0.08128200  0.03787900  1
  O  O20  1  0.23284500  0.67031300  0.43823000  1
  O  O21  1  0.92070000  0.34121600  0.10588000  1
  O  O22  1  0.12843300  0.20898000  0.28058200  1
  O  O23  1  0.45126300  0.09564900  0.20173100  1
loop_
_geom_bond_atom_site_label_1
_geom_bond_atom_site_label_2
_geom_bond_distance
_geom_bond_site_symmetry_2
Ho0 O0 2.294397 1_555
Ho0 O8 2.317711 1_665
Ho0 O1 2.355526 1_555
Ho0 O5 2.364388 1_555
Ho0 O3 2.406644 1_565
Ho0 O13 2.415847 1_565
Ho0 O15 2.440933 1_555
Ho0 O10 2.459128 1_555
Ho1 O6 2.294397 1_555
Ho1 O19 2.317711 1_665
Ho1 O11 2.355526 1_555
Ho1 O16 2.364388 1_555
Ho1 O14 2.406644 1_655
Ho1 O2 2.415847 1_654
Ho1 O4 2.440933 1_554
Ho1 O21 2.459128 1_555
Ho2 O17 2.294397 1_555
Ho2 O4 2.317711 1_445
Ho2 O12 2.355526 1_555
Ho2 O7 2.364388 1_555
Ho2 O9 2.406644 1_455
Ho2 O21 2.415847 1_456
Ho2 O19 2.440933 1_556
Ho2 O2 2.459128 1_555
Ho3 O23 2.294397 1_555
Ho3 O15 2.317711 1_445
Ho3 O22 2.355526 1_555
Ho3 O18 2.364388 1_555
Ho3 O20 2.406644 1_545
Ho3 O10 2.415847 1_545
Ho3 O8 2.440933 1_555
Ho3 O13 2.459128 1_555
O0 W0 1.830280 1_555
O1 W2 1.799547 1_655
O2 W2 1.849048 1_555
O3 W1 1.783770 1_555
O4 W0 1.885111 1_555
O5 W4 1.934314 1_555
O5 W1 2.145622 1_555
O6 W1 1.830280 1_555
O7 W0 1.934314 1_555
O7 W5 2.145622 1_556
O8 W4 1.885111 1_555
O9 W5 1.783770 1_556
O10 W2 1.849048 1_555
O11 W3 1.799547 1_565
O12 W2 1.799547 1_545
O13 W3 1.849048 1_555
O14 W0 1.783770 1_554
O15 W1 1.885111 1_555
O16 W5 1.934314 1_555
O16 W0 2.145622 1_554
O17 W4 1.830280 1_555
O18 W1 1.934314 1_555
O18 W4 2.145622 1_555
O19 W5 1.885111 1_555
O20 W4 1.783770 1_555
O21 W3 1.849048 1_555
O22 W3 1.799547 1_455
O23 W5 1.830280 1_555
