# generated using pymatgen
data_Ba3(P3O13)2
_symmetry_space_group_name_H-M   'P 1'
_cell_length_a   10.93616537
_cell_length_b   10.93616537
_cell_length_c   16.63451593
_cell_angle_alpha   63.28375751
_cell_angle_beta   63.28375751
_cell_angle_gamma   39.87579633
_symmetry_Int_Tables_number   1
_chemical_formula_structural   Ba3(P3O13)2
_chemical_formula_sum   'Ba6 P12 O52'
_cell_volume   1120.19128529
_cell_formula_units_Z   2
loop_
 _symmetry_equiv_pos_site_id
 _symmetry_equiv_pos_as_xyz
  1  'x, y, z'
loop_
 _atom_site_type_symbol
 _atom_site_label
 _atom_site_symmetry_multiplicity
 _atom_site_fract_x
 _atom_site_fract_y
 _atom_site_fract_z
 _atom_site_occupancy
  Ba  Ba0  1  0.60966000  0.79955500  0.72593800  1
  Ba  Ba1  1  0.20044500  0.39034000  0.77406200  1
  Ba  Ba2  1  0.39034000  0.20044500  0.27406200  1
  Ba  Ba3  1  0.79955500  0.60966000  0.22593800  1
  Ba  Ba4  1  0.27372200  0.72627800  0.75000000  1
  Ba  Ba5  1  0.72627800  0.27372200  0.25000000  1
  P  P0  1  0.75557100  0.98478700  0.78213400  1
  P  P1  1  0.01521300  0.24442900  0.71786600  1
  P  P2  1  0.24442900  0.01521300  0.21786600  1
  P  P3  1  0.98478700  0.75557100  0.28213400  1
  P  P4  1  0.36593000  0.70375000  0.37743200  1
  P  P5  1  0.29625000  0.63407000  0.12256800  1
  P  P6  1  0.63407000  0.29625000  0.62256800  1
  P  P7  1  0.70375000  0.36593000  0.87743200  1
  P  P8  1  0.78270500  0.47062100  0.57144800  1
  P  P9  1  0.52937900  0.21729500  0.92855200  1
  P  P10  1  0.21729500  0.52937900  0.42855200  1
  P  P11  1  0.47062100  0.78270500  0.07144800  1
  O  O0  1  0.96270300  0.28869900  0.62691300  1
  O  O1  1  0.71130100  0.03729700  0.87308700  1
  O  O2  1  0.03729700  0.71130100  0.37308700  1
  O  O3  1  0.28869900  0.96270300  0.12691300  1
  O  O4  1  0.96983100  0.40817300  0.72667200  1
  O  O5  1  0.59182700  0.03016900  0.77332800  1
  O  O6  1  0.03016900  0.59182700  0.27332800  1
  O  O7  1  0.40817300  0.96983100  0.22667200  1
  O  O8  1  0.21683500  0.04186000  0.72328000  1
  O  O9  1  0.95814000  0.78316500  0.77672000  1
  O  O10  1  0.78316500  0.95814000  0.27672000  1
  O  O11  1  0.04186000  0.21683500  0.22328000  1
  O  O12  1  0.54241200  0.57022500  0.83361400  1
  O  O13  1  0.42977500  0.45758800  0.66638600  1
  O  O14  1  0.45758800  0.42977500  0.16638600  1
  O  O15  1  0.57022500  0.54241200  0.33361400  1
  O  O16  1  0.80136500  0.32957300  0.93821400  1
  O  O17  1  0.67042700  0.19863500  0.56178600  1
  O  O18  1  0.19863500  0.67042700  0.06178600  1
  O  O19  1  0.32957300  0.80136500  0.43821400  1
  O  O20  1  0.36539000  0.74034500  0.06179300  1
  O  O21  1  0.25965500  0.63461000  0.43820700  1
  O  O22  1  0.63461000  0.25965500  0.93820700  1
  O  O23  1  0.74034500  0.36539000  0.56179300  1
  O  O24  1  0.62274300  0.61388800  0.13106300  1
  O  O25  1  0.38611200  0.37725700  0.36893700  1
  O  O26  1  0.37725700  0.38611200  0.86893700  1
  O  O27  1  0.61388800  0.62274300  0.63106300  1
  O  O28  1  0.85516500  0.52690600  0.47648200  1
  O  O29  1  0.47309400  0.14483500  0.02351800  1
  O  O30  1  0.14483500  0.47309400  0.52351800  1
  O  O31  1  0.52690600  0.85516500  0.97648200  1
  O  O32  1  0.86627000  0.23276200  0.79750400  1
  O  O33  1  0.76723800  0.13373000  0.70249600  1
  O  O34  1  0.13373000  0.76723800  0.20249600  1
  O  O35  1  0.23276200  0.86627000  0.29750400  1
  O  O36  1  0.50458000  0.13633500  0.59776200  1
  O  O37  1  0.86366500  0.49542000  0.90223800  1
  O  O38  1  0.49542000  0.86366500  0.40223800  1
  O  O39  1  0.13633500  0.50458000  0.09776200  1
  O  O40  1  0.03524000  0.60806200  0.01585700  1
  O  O41  1  0.39193800  0.96476000  0.48414300  1
  O  O42  1  0.96476000  0.39193800  0.98414300  1
  O  O43  1  0.60806200  0.03524000  0.51585700  1
  O  O44  1  0.64514300  0.98681100  0.12922000  1
  O  O45  1  0.01318900  0.35485700  0.37078000  1
  O  O46  1  0.35485700  0.01318900  0.87078000  1
  O  O47  1  0.98681100  0.64514300  0.62922000  1
  O  O48  1  0.98030200  0.25739600  0.03884300  1
  O  O49  1  0.74260400  0.01969800  0.46115700  1
  O  O50  1  0.01969800  0.74260400  0.96115700  1
  O  O51  1  0.25739600  0.98030200  0.53884300  1
loop_
_geom_bond_atom_site_label_1
_geom_bond_atom_site_label_2
_geom_bond_distance
_geom_bond_site_symmetry_2
Ba0 O12 2.765242 1_555
Ba0 O5 2.813285 1_565
Ba0 O4 2.820397 1_555
Ba0 O46 2.839117 1_565
Ba0 O8 2.841136 1_565
Ba0 O36 2.842115 1_565
Ba0 O47 2.870185 1_555
Ba0 O27 2.961907 1_555
Ba1 O13 2.765242 1_555
Ba1 O4 2.813285 1_455
Ba1 O5 2.820397 1_555
Ba1 O47 2.839117 1_455
Ba1 O9 2.841136 1_455
Ba1 O37 2.842115 1_455
Ba1 O46 2.870185 1_555
Ba1 O26 2.961907 1_555
Ba2 O14 2.765242 1_555
Ba2 O7 2.813285 1_545
Ba2 O6 2.820397 1_555
Ba2 O44 2.839117 1_545
Ba2 O10 2.841136 1_545
Ba2 O38 2.842115 1_545
Ba2 O45 2.870185 1_555
Ba2 O25 2.961907 1_555
Ba3 O15 2.765242 1_555
Ba3 O6 2.813285 1_655
Ba3 O7 2.820397 1_555
Ba3 O45 2.839117 1_655
Ba3 O11 2.841136 1_655
Ba3 O39 2.842115 1_655
Ba3 O44 2.870185 1_555
Ba3 O24 2.961907 1_555
Ba4 O13 2.706465 1_555
Ba4 O12 2.706465 1_555
Ba4 O26 2.822561 1_555
Ba4 O27 2.822561 1_555
Ba4 O8 2.840699 1_565
Ba4 O9 2.840699 1_455
Ba4 O51 3.334050 1_555
Ba4 O50 3.334050 1_555
Ba5 O14 2.706465 1_555
Ba5 O15 2.706465 1_555
Ba5 O24 2.822561 1_555
Ba5 O25 2.822561 1_555
Ba5 O10 2.840699 1_545
Ba5 O11 2.840699 1_655
Ba5 O49 3.334050 1_555
Ba5 O48 3.334050 1_555
O0 P1 1.596581 1_655
O0 P8 1.629678 1_555
O1 P0 1.596581 1_545
O1 P9 1.629678 1_555
O2 P3 1.596581 1_455
O2 P10 1.629678 1_555
O3 P2 1.596581 1_565
O3 P11 1.629678 1_555
O4 P1 1.510254 1_655
O5 P0 1.510254 1_545
O6 P3 1.510254 1_455
O7 P2 1.510254 1_565
O8 P1 1.509770 1_555
O9 P0 1.509770 1_555
O10 P3 1.509770 1_555
O11 P2 1.509770 1_555
O12 P7 1.509192 1_555
O13 P6 1.509192 1_555
O14 P5 1.509192 1_555
O15 P4 1.509192 1_555
O16 P7 1.509154 1_555
O17 P6 1.509154 1_555
O18 P5 1.509154 1_555
O19 P4 1.509154 1_555
O20 P5 1.596755 1_555
O20 P11 1.617455 1_555
O21 P4 1.596755 1_555
O21 P10 1.617455 1_555
O22 P7 1.596755 1_555
O22 P9 1.617455 1_555
O23 P6 1.596755 1_555
O23 P8 1.617455 1_555
O24 P11 1.510808 1_555
O25 P10 1.510808 1_555
O26 P9 1.510808 1_555
O27 P8 1.510808 1_555
O28 P8 1.500379 1_555
O29 P9 1.500379 1_554
O30 P10 1.500379 1_555
O31 P11 1.500379 1_556
O32 P1 1.628262 1_655
O32 P7 1.640423 1_555
O33 P0 1.628262 1_545
O33 P6 1.640423 1_555
O34 P3 1.628262 1_455
O34 P5 1.640423 1_555
O35 P2 1.628262 1_565
O35 P4 1.640423 1_555
O36 O43 1.551431 1_555
O37 O42 1.551431 1_555
O38 O41 1.551431 1_555
O39 O40 1.551431 1_555
O40 O50 1.254264 1_554
O41 O51 1.254264 1_555
O42 O48 1.254264 1_556
O43 O49 1.254264 1_555
