# generated using pymatgen
data_Li5Bi2(BO3)4
_symmetry_space_group_name_H-M   'P 1'
_cell_length_a   6.47376900
_cell_length_b   8.87365000
_cell_length_c   10.43192987
_cell_angle_alpha   62.99319484
_cell_angle_beta   90.00000000
_cell_angle_gamma   90.00000000
_symmetry_Int_Tables_number   1
_chemical_formula_structural   Li5Bi2(BO3)4
_chemical_formula_sum   'Li10 Bi4 B8 O24'
_cell_volume   533.92314822
_cell_formula_units_Z   2
loop_
 _symmetry_equiv_pos_site_id
 _symmetry_equiv_pos_as_xyz
  1  'x, y, z'
loop_
 _atom_site_type_symbol
 _atom_site_label
 _atom_site_symmetry_multiplicity
 _atom_site_fract_x
 _atom_site_fract_y
 _atom_site_fract_z
 _atom_site_occupancy
  Li  Li0  1  0.97663900  0.61183500  0.51151800  1
  Li  Li1  1  0.48373100  0.40309800  0.97934900  1
  Li  Li2  1  0.48394400  0.82873400  0.45113200  1
  Li  Li3  1  0.97147700  0.15733700  0.04456200  1
  Li  Li4  1  0.51605600  0.82873400  0.95113200  1
  Li  Li5  1  0.18339200  0.29422000  0.16625700  1
  Li  Li6  1  0.02852300  0.15733700  0.54456200  1
  Li  Li7  1  0.02336100  0.61183500  0.01151800  1
  Li  Li8  1  0.81660800  0.29422000  0.66625700  1
  Li  Li9  1  0.51626900  0.40309800  0.47934900  1
  Bi  Bi0  1  0.23188200  0.80090400  0.20642600  1
  Bi  Bi1  1  0.76811800  0.80090400  0.70642600  1
  Bi  Bi2  1  0.71750400  0.18789300  0.29661600  1
  Bi  Bi3  1  0.28249600  0.18789300  0.79661600  1
  B  B0  1  0.08087800  0.46007300  0.82235900  1
  B  B1  1  0.59398500  0.53526900  0.68320100  1
  B  B2  1  0.57288000  0.05689600  0.10836200  1
  B  B3  1  0.07708800  0.95050500  0.38809700  1
  B  B4  1  0.42712000  0.05689600  0.60836200  1
  B  B5  1  0.92291200  0.95050500  0.88809700  1
  B  B6  1  0.91912200  0.46007300  0.32235900  1
  B  B7  1  0.40601500  0.53526900  0.18320100  1
  O  O0  1  0.54458000  0.38470400  0.68002900  1
  O  O1  1  0.04657800  0.41885800  0.70961400  1
  O  O2  1  0.18526100  0.33940300  0.94418700  1
  O  O3  1  0.69749700  0.66040900  0.56539700  1
  O  O4  1  0.55470400  0.57242800  0.79522400  1
  O  O5  1  0.47336000  0.00412000  0.01790300  1
  O  O6  1  0.18286500  0.79968200  0.43476200  1
  O  O7  1  0.01693600  0.60670000  0.82328200  1
  O  O8  1  0.54929900  0.96243000  0.25461300  1
  O  O9  1  0.06665300  0.06545100  0.24362700  1
  O  O10  1  0.68393400  0.20674100  0.05636900  1
  O  O11  1  0.96498000  0.98897800  0.48305500  1
  O  O12  1  0.52664000  0.00412000  0.51790300  1
  O  O13  1  0.81713500  0.79968200  0.93476200  1
  O  O14  1  0.45070100  0.96243000  0.75461400  1
  O  O15  1  0.93334700  0.06545100  0.74362700  1
  O  O16  1  0.45542000  0.38470400  0.18002900  1
  O  O17  1  0.31606600  0.20674100  0.55636900  1
  O  O18  1  0.03502000  0.98897800  0.98305500  1
  O  O19  1  0.95342200  0.41885800  0.20961400  1
  O  O20  1  0.81473900  0.33940300  0.44418700  1
  O  O21  1  0.30250300  0.66040900  0.06539700  1
  O  O22  1  0.44529600  0.57242800  0.29522400  1
  O  O23  1  0.98306400  0.60670000  0.32328200  1
loop_
_geom_bond_atom_site_label_1
_geom_bond_atom_site_label_2
_geom_bond_distance
_geom_bond_site_symmetry_2
Li0 O23 1.985207 1_555
Li0 O3 1.996831 1_555
Li0 O6 1.997468 1_655
Li0 O1 2.047929 1_655
Li1 O4 1.880713 1_555
Li1 O10 2.022346 1_556
Li1 O16 2.032870 1_556
Li1 O2 2.091839 1_555
Li2 O8 1.892201 1_555
Li2 O6 1.983597 1_555
Li2 O3 1.986501 1_555
Li2 O12 1.992040 1_565
Li3 O18 1.919220 1_644
Li3 O10 1.929128 1_555
Li3 O9 1.954251 1_655
Li3 O2 2.021287 1_654
Li4 O14 1.892192 1_555
Li4 O13 1.983597 1_555
Li4 O21 1.986501 1_556
Li4 O5 1.992040 1_566
Li5 O9 1.963545 1_555
Li5 O16 1.967581 1_555
Li5 O19 2.024488 1_455
Li5 O2 2.164272 1_554
Li6 O11 1.919220 1_445
Li6 O17 1.929128 1_555
Li6 O15 1.954251 1_455
Li6 O20 2.021287 1_455
Li7 O7 1.985207 1_554
Li7 O21 1.996831 1_555
Li7 O13 1.997468 1_454
Li7 O19 2.047929 1_455
Li8 O15 1.963545 1_555
Li8 O0 1.967581 1_555
Li8 O1 2.024488 1_655
Li8 O20 2.164272 1_555
Li9 O22 1.880713 1_555
Li9 O17 2.022346 1_555
Li9 O0 2.032870 1_555
Li9 O20 2.091839 1_555
Bi0 O23 2.267720 1_455
Bi0 O22 2.274130 1_555
Bi0 O21 2.365057 1_555
Bi0 O6 2.398168 1_555
Bi0 O18 2.511451 1_554
Bi0 O5 2.518435 1_565
Bi0 O8 2.680303 1_555
Bi0 O9 2.762768 1_565
Bi1 O7 2.267720 1_655
Bi1 O4 2.274130 1_555
Bi1 O3 2.365057 1_555
Bi1 O13 2.398168 1_555
Bi1 O11 2.511451 1_555
Bi1 O12 2.518435 1_565
Bi1 O14 2.680307 1_555
Bi1 O15 2.762768 1_565
Bi2 O16 2.340699 1_555
Bi2 O19 2.380635 1_555
Bi2 O10 2.444535 1_555
Bi2 O12 2.469030 1_555
Bi2 O8 2.485281 1_545
Bi2 O11 2.519369 1_545
Bi2 O20 2.540350 1_555
Bi2 O9 2.672175 1_655
Bi3 O0 2.340699 1_555
Bi3 O1 2.380635 1_555
Bi3 O17 2.444535 1_555
Bi3 O5 2.469030 1_556
Bi3 O14 2.485275 1_545
Bi3 O18 2.519369 1_545
Bi3 O2 2.540350 1_555
Bi3 O15 2.672175 1_455
B0 O7 1.369572 1_555
B0 O1 1.398944 1_555
B0 O2 1.408007 1_555
B1 O4 1.374414 1_555
B1 O0 1.388741 1_555
B1 O3 1.397508 1_555
B2 O8 1.375566 1_545
B2 O10 1.387118 1_555
B2 O5 1.387898 1_555
B3 O6 1.380354 1_555
B3 O9 1.385712 1_565
B3 O11 1.389855 1_455
B4 O14 1.375574 1_545
B4 O17 1.387118 1_555
B4 O12 1.387898 1_555
B5 O13 1.380354 1_555
B5 O15 1.385712 1_565
B5 O18 1.389855 1_655
B6 O23 1.369572 1_555
B6 O19 1.398944 1_555
B6 O20 1.408007 1_555
B7 O22 1.374414 1_555
B7 O16 1.388741 1_555
B7 O21 1.397508 1_555
