# generated using pymatgen
data_LiMn3Al2(HO2)6
_symmetry_space_group_name_H-M   'P 1'
_cell_length_a   5.95405600
_cell_length_b   7.90475784
_cell_length_c   10.50236651
_cell_angle_alpha   105.29125516
_cell_angle_beta   105.77637026
_cell_angle_gamma   101.92288149
_symmetry_Int_Tables_number   1
_chemical_formula_structural   LiMn3Al2(HO2)6
_chemical_formula_sum   'Li2 Mn6 Al4 H12 O24'
_cell_volume   437.73125948
_cell_formula_units_Z   2
loop_
 _symmetry_equiv_pos_site_id
 _symmetry_equiv_pos_as_xyz
  1  'x, y, z'
loop_
 _atom_site_type_symbol
 _atom_site_label
 _atom_site_symmetry_multiplicity
 _atom_site_fract_x
 _atom_site_fract_y
 _atom_site_fract_z
 _atom_site_occupancy
  Li  Li0  1  0.75813400  0.01097800  0.49917000  1
  Li  Li1  1  0.07530000  0.32248900  0.50085800  1
  Mn  Mn0  1  0.99544000  0.99775800  0.99613100  1
  Mn  Mn1  1  0.49589300  0.99882500  0.99754300  1
  Mn  Mn2  1  0.33436200  0.33575300  0.00265100  1
  Mn  Mn3  1  0.16755900  0.66703400  0.00082000  1
  Mn  Mn4  1  0.83820600  0.33619500  0.00482100  1
  Mn  Mn5  1  0.66563200  0.66415900  0.99671800  1
  Al  Al0  1  0.24677800  0.00472300  0.49726900  1
  Al  Al1  1  0.58632200  0.32836600  0.50234200  1
  Al  Al2  1  0.91724000  0.66664200  0.50006600  1
  Al  Al3  1  0.41638500  0.66679700  0.50029300  1
  H  H0  1  0.38888300  0.02537800  0.28991300  1
  H  H1  1  0.91094600  0.32492500  0.70986000  1
  H  H2  1  0.92114400  0.00890600  0.28979000  1
  H  H3  1  0.77147600  0.65012700  0.71316800  1
  H  H4  1  0.44694400  0.30535900  0.71017700  1
  H  H5  1  0.72076600  0.36267600  0.29549400  1
  H  H6  1  0.26123600  0.66030000  0.70475700  1
  H  H7  1  0.56844600  0.67518400  0.29576200  1
  H  H8  1  0.25614700  0.36122200  0.30056100  1
  H  H9  1  0.11372900  0.97074000  0.70471800  1
  H  H10  1  0.06717700  0.67824600  0.28661100  1
  H  H11  1  0.57617600  0.97543900  0.69966100  1
  O  O0  1  0.21712100  0.06883400  0.89951200  1
  O  O1  1  0.44820900  0.07496200  0.39391100  1
  O  O2  1  0.85326100  0.28588900  0.60718100  1
  O  O3  1  0.05144300  0.39893600  0.90064800  1
  O  O4  1  0.70211400  0.07470900  0.89462900  1
  O  O5  1  0.97966400  0.04717700  0.39242300  1
  O  O6  1  0.12261200  0.28083100  0.10626000  1
  O  O7  1  0.70334300  0.60989400  0.60786100  1
  O  O8  1  0.55238600  0.39392000  0.90038900  1
  O  O9  1  0.38474100  0.25888600  0.60629900  1
  O  O10  1  0.61721600  0.26925200  0.10496700  1
  O  O11  1  0.78400300  0.41005900  0.39944200  1
  O  O12  1  0.20291100  0.61710900  0.60039800  1
  O  O13  1  0.35821600  0.74072000  0.89018200  1
  O  O14  1  0.44980200  0.60175800  0.10149300  1
  O  O15  1  0.32333100  0.40994100  0.40454700  1
  O  O16  1  0.63055100  0.71583200  0.39964100  1
  O  O17  1  0.04948500  0.92351900  0.60086400  1
  O  O18  1  0.88261800  0.71285000  0.89269500  1
  O  O19  1  0.29427900  0.92725800  0.10427800  1
  O  O20  1  0.97412400  0.59618500  0.11114400  1
  O  O21  1  0.13026800  0.72428700  0.39256800  1
  O  O22  1  0.51045700  0.92349900  0.59571000  1
  O  O23  1  0.77772200  0.93567200  0.09440600  1
loop_
_geom_bond_atom_site_label_1
_geom_bond_atom_site_label_2
_geom_bond_distance
_geom_bond_site_symmetry_2
Li0 O5 1.973788 1_555
Li0 O2 2.042504 1_555
Li0 O22 2.107685 1_545
Li0 O1 2.110532 1_555
Li0 O17 2.122599 1_645
Li0 O16 2.159275 1_545
Li1 O2 1.973184 1_455
Li1 O5 2.045837 1_455
Li1 O9 2.107269 1_555
Li1 O15 2.107405 1_555
Li1 O11 2.121840 1_455
Li1 O12 2.155628 1_555
Mn0 O23 1.928308 1_556
Mn0 O0 1.951938 1_665
Mn0 O4 2.079705 1_565
Mn0 O6 2.092053 1_666
Mn0 O18 2.095493 1_555
Mn0 O19 2.100282 1_656
Mn1 O13 1.923262 1_555
Mn1 O23 1.945665 1_556
Mn1 O4 1.948058 1_565
Mn1 O19 1.950186 1_556
Mn1 O0 1.967761 1_565
Mn1 O10 2.002746 1_566
Mn2 O6 1.931599 1_555
Mn2 O8 1.954983 1_554
Mn2 O14 1.958302 1_555
Mn2 O3 1.970592 1_554
Mn2 O0 1.971600 1_554
Mn2 O10 1.986703 1_555
Mn3 O19 1.927488 1_555
Mn3 O18 1.929295 1_454
Mn3 O13 1.943988 1_554
Mn3 O20 1.945251 1_455
Mn3 O14 1.971819 1_555
Mn3 O3 1.974620 1_554
Mn4 O20 1.932991 1_555
Mn4 O6 1.940400 1_655
Mn4 O4 1.950548 1_554
Mn4 O3 1.958630 1_654
Mn4 O10 1.968736 1_555
Mn4 O8 1.969040 1_554
Mn5 O18 1.947977 1_555
Mn5 O14 1.974550 1_556
Mn5 O8 1.983789 1_555
Mn5 O23 1.994685 1_556
Mn5 O20 2.157488 1_556
Mn5 O13 2.160941 1_555
Al0 O5 1.821451 1_455
Al0 O9 1.901476 1_555
Al0 O1 1.917200 1_555
Al0 O17 1.930656 1_545
Al0 O22 1.957013 1_545
Al0 O21 2.066053 1_545
Al1 O2 1.820738 1_555
Al1 O1 1.895379 1_555
Al1 O9 1.921109 1_555
Al1 O11 1.927680 1_555
Al1 O15 1.953109 1_555
Al1 O7 2.074773 1_555
Al2 O11 1.899632 1_555
Al2 O17 1.901609 1_655
Al2 O12 1.917008 1_655
Al2 O16 1.920651 1_555
Al2 O21 1.975406 1_655
Al2 O7 1.980058 1_555
Al3 O22 1.894226 1_555
Al3 O15 1.896296 1_555
Al3 O12 1.900862 1_555
Al3 O16 1.907499 1_555
Al3 O21 1.982840 1_555
Al3 O7 1.983374 1_555
H0 O1 0.989220 1_555
H1 O2 0.977429 1_555
H2 O5 0.977240 1_555
H3 O7 1.003041 1_555
H3 O18 1.712188 1_555
H4 O9 0.987425 1_555
H5 O11 0.988133 1_555
H6 O12 0.992516 1_555
H6 O13 1.764601 1_555
H7 O16 0.988358 1_555
H8 O15 0.988923 1_555
H9 O17 0.987268 1_555
H10 O21 1.007213 1_555
H10 O20 1.670188 1_455
H11 O22 0.989174 1_555
