# generated using pymatgen
data_Fe5(OF4)2
_symmetry_space_group_name_H-M   'P 1'
_cell_length_a   4.82021250
_cell_length_b   4.82402700
_cell_length_c   16.06278257
_cell_angle_alpha   90.00000000
_cell_angle_beta   89.47994190
_cell_angle_gamma   90.00000000
_symmetry_Int_Tables_number   1
_chemical_formula_structural   Fe5(OF4)2
_chemical_formula_sum   'Fe10 O4 F16'
_cell_volume   373.48985104
_cell_formula_units_Z   2
loop_
 _symmetry_equiv_pos_site_id
 _symmetry_equiv_pos_as_xyz
  1  'x, y, z'
loop_
 _atom_site_type_symbol
 _atom_site_label
 _atom_site_symmetry_multiplicity
 _atom_site_fract_x
 _atom_site_fract_y
 _atom_site_fract_z
 _atom_site_occupancy
  Fe  Fe0  1  0.00000000  0.00000000  0.00000000  1
  Fe  Fe1  1  0.99592400  0.01310800  0.19226100  1
  Fe  Fe2  1  0.97375800  0.97195200  0.39910300  1
  Fe  Fe3  1  0.02624200  0.02804800  0.60089700  1
  Fe  Fe4  1  0.00407600  0.98689200  0.80773900  1
  Fe  Fe5  1  0.52624200  0.47195200  0.10089700  1
  Fe  Fe6  1  0.50000000  0.50000000  0.50000000  1
  Fe  Fe7  1  0.50407600  0.51310800  0.30773900  1
  Fe  Fe8  1  0.49592400  0.48689200  0.69226100  1
  Fe  Fe9  1  0.47375800  0.52804800  0.89910300  1
  O  O0  1  0.17400200  0.82355500  0.89531200  1
  O  O1  1  0.32599800  0.32355500  0.60468800  1
  O  O2  1  0.67400200  0.67644500  0.39531200  1
  O  O3  1  0.82599800  0.17644500  0.10468800  1
  F  F0  1  0.21757400  0.78676100  0.11007500  1
  F  F1  1  0.19400800  0.79736600  0.29000700  1
  F  F2  1  0.19447400  0.80346700  0.49890700  1
  F  F3  1  0.20429500  0.80408700  0.70784600  1
  F  F4  1  0.30552600  0.30346700  0.00109300  1
  F  F5  1  0.30599200  0.29736600  0.20999300  1
  F  F6  1  0.28242600  0.28676100  0.38992500  1
  F  F7  1  0.29570500  0.30408700  0.79215400  1
  F  F8  1  0.69447400  0.69653300  0.99890700  1
  F  F9  1  0.70429500  0.69591300  0.20784600  1
  F  F10  1  0.71757400  0.71323900  0.61007500  1
  F  F11  1  0.69400800  0.70263400  0.79000700  1
  F  F12  1  0.80552600  0.19653300  0.50109300  1
  F  F13  1  0.79570500  0.19591300  0.29215400  1
  F  F14  1  0.78242600  0.21323900  0.88992500  1
  F  F15  1  0.80599200  0.20263400  0.70999300  1
loop_
_geom_bond_atom_site_label_1
_geom_bond_atom_site_label_2
_geom_bond_distance
_geom_bond_site_symmetry_2
Fe0 O3 2.056714 1_455
Fe0 O0 2.056714 1_544
Fe1 O3 1.814213 1_555
Fe2 O2 2.031047 1_555
Fe3 O1 2.031047 1_555
Fe4 O0 1.814213 1_555
Fe5 O3 2.031047 1_555
Fe6 O2 2.056714 1_555
Fe6 O1 2.056714 1_555
Fe7 O2 1.814213 1_555
Fe8 O1 1.814213 1_555
Fe9 O0 2.031047 1_555
F0 Fe1 2.012682 1_465
F0 Fe5 2.130194 1_555
F0 Fe0 2.306062 1_565
F1 Fe7 2.050132 1_555
F1 Fe1 2.118289 1_465
F1 Fe2 2.207600 1_455
F2 Fe6 2.076710 1_555
F2 Fe2 2.096061 1_455
F2 Fe3 2.119205 1_565
F3 Fe4 2.062907 1_555
F3 Fe8 2.091338 1_555
F3 Fe3 2.209477 1_565
F4 Fe0 2.076710 1_555
F4 Fe5 2.096061 1_555
F4 Fe9 2.119205 1_554
F5 Fe1 2.050132 1_455
F5 Fe7 2.118289 1_555
F5 Fe5 2.207600 1_555
F6 Fe7 2.012682 1_555
F6 Fe2 2.130194 1_445
F6 Fe6 2.306062 1_555
F7 Fe8 2.062907 1_555
F7 Fe4 2.091338 1_545
F7 Fe9 2.209477 1_555
F8 Fe0 2.076710 1_666
F8 Fe9 2.096061 1_555
F8 Fe5 2.119205 1_556
F9 Fe7 2.062907 1_555
F9 Fe1 2.091338 1_565
F9 Fe5 2.209477 1_555
F10 Fe8 2.012682 1_555
F10 Fe3 2.130194 1_665
F10 Fe6 2.306062 1_555
F11 Fe4 2.050132 1_655
F11 Fe8 2.118289 1_555
F11 Fe9 2.207600 1_555
F12 Fe6 2.076710 1_555
F12 Fe3 2.096061 1_655
F12 Fe2 2.119205 1_545
F13 Fe1 2.062907 1_555
F13 Fe7 2.091338 1_555
F13 Fe2 2.209477 1_545
F14 Fe4 2.012682 1_645
F14 Fe9 2.130194 1_555
F14 Fe0 2.306062 1_656
F15 Fe8 2.050132 1_555
F15 Fe4 2.118289 1_645
F15 Fe3 2.207600 1_655
