# generated using pymatgen
data_Ba8Co7O19
_symmetry_space_group_name_H-M   'P 1'
_cell_length_a   10.79188000
_cell_length_b   10.81420838
_cell_length_c   11.72178754
_cell_angle_alpha   104.52853276
_cell_angle_beta   105.73832816
_cell_angle_gamma   115.57746401
_symmetry_Int_Tables_number   1
_chemical_formula_structural   Ba8Co7O19
_chemical_formula_sum   'Ba16 Co14 O38'
_cell_volume   1075.72795573
_cell_formula_units_Z   2
loop_
 _symmetry_equiv_pos_site_id
 _symmetry_equiv_pos_as_xyz
  1  'x, y, z'
loop_
 _atom_site_type_symbol
 _atom_site_label
 _atom_site_symmetry_multiplicity
 _atom_site_fract_x
 _atom_site_fract_y
 _atom_site_fract_z
 _atom_site_occupancy
  Ba  Ba0  1  0.33746600  0.33577600  0.66635600  1
  Ba  Ba1  1  0.05108700  0.28470600  0.31887800  1
  Ba  Ba2  1  0.58415200  0.78774200  0.83760800  1
  Ba  Ba3  1  0.53259500  0.82460000  0.33779900  1
  Ba  Ba4  1  0.08105800  0.57749500  0.16287900  1
  Ba  Ba5  1  0.82268700  0.81148400  0.63827700  1
  Ba  Ba6  1  0.81934600  0.82298200  0.18301600  1
  Ba  Ba7  1  0.11085700  0.60141800  0.68088000  1
  Ba  Ba8  1  0.03500400  0.28826800  0.82271700  1
  Ba  Ba9  1  0.80061000  0.50060600  0.34168700  1
  Ba  Ba10  1  0.26416500  0.05709100  0.84256100  1
  Ba  Ba11  1  0.57376800  0.06933200  0.13896600  1
  Ba  Ba12  1  0.36816600  0.36283300  0.19111000  1
  Ba  Ba13  1  0.57655000  0.06990100  0.68775600  1
  Ba  Ba14  1  0.78671800  0.51627300  0.82129800  1
  Ba  Ba15  1  0.28114500  0.04462300  0.33177000  1
  Co  Co0  1  0.13500200  0.84670200  0.01420100  1
  Co  Co1  1  0.85815400  0.17247800  0.00329300  1
  Co  Co2  1  0.43587800  0.57699200  0.99563500  1
  Co  Co3  1  0.32756900  0.68945700  0.49887500  1
  Co  Co4  1  0.69178700  0.28325700  0.99599900  1
  Co  Co5  1  0.28516400  0.71346800  0.98655700  1
  Co  Co6  1  0.54502600  0.42241600  0.99039400  1
  Co  Co7  1  0.03505600  0.94438300  0.49438000  1
  Co  Co8  1  0.46580700  0.55260000  0.49487900  1
  Co  Co9  1  0.16901700  0.79156100  0.48890700  1
  Co  Co10  1  0.58334700  0.39063900  0.50776200  1
  Co  Co11  1  0.72745600  0.23742700  0.48258000  1
  Co  Co12  1  0.92673700  0.11973900  0.50169800  1
  Co  Co13  1  0.99806100  0.02227900  0.98660300  1
  O  O0  1  0.08853700  0.56751400  0.91926300  1
  O  O1  1  0.33527300  0.80205300  0.64916200  1
  O  O2  1  0.07594000  0.84062000  0.59452500  1
  O  O3  1  0.84164100  0.32098700  0.15082600  1
  O  O4  1  0.32416400  0.58044700  0.84683200  1
  O  O5  1  0.79127900  0.13627600  0.36308700  1
  O  O6  1  0.57903700  0.31477300  0.08897100  1
  O  O7  1  0.98662600  0.83046900  0.87102700  1
  O  O8  1  0.00476100  0.78752100  0.35403800  1
  O  O9  1  0.83420300  0.32187000  0.92489400  1
  O  O10  1  0.26410200  0.85807900  0.92568200  1
  O  O11  1  0.35114100  0.34263000  0.42572300  1
  O  O12  1  0.64081000  0.06050800  0.92937100  1
  O  O13  1  0.53480300  0.76014300  0.57815300  1
  O  O14  1  0.53861300  0.26091400  0.85137700  1
  O  O15  1  0.58555600  0.56118000  0.65189100  1
  O  O16  1  0.61819500  0.53693800  0.42856300  1
  O  O17  1  0.06242200  0.08826200  0.64171700  1
  O  O18  1  0.61157700  0.57151700  0.93354300  1
  O  O19  1  0.29724400  0.85215200  0.14678600  1
  O  O20  1  0.55278100  0.58519600  0.14839000  1
  O  O21  1  0.53494800  0.25544400  0.58093400  1
  O  O22  1  0.19787200  0.06706500  0.08012300  1
  O  O23  1  0.10504200  0.57925900  0.42626700  1
  O  O24  1  0.00681200  0.76290500  0.07685800  1
  O  O25  1  0.32631400  0.56168800  0.35650100  1
  O  O26  1  0.81161100  0.91403800  0.43022100  1
  O  O27  1  0.33031300  0.35542400  0.92305000  1
  O  O28  1  0.07199400  0.08147200  0.41769500  1
  O  O29  1  0.86891900  0.00854400  0.07381700  1
  O  O30  1  0.76567900  0.13797100  0.58175900  1
  O  O31  1  0.81550800  0.45277800  0.57481900  1
  O  O32  1  0.57185400  0.22592500  0.34885600  1
  O  O33  1  0.07185400  0.27544900  0.07685900  1
  O  O34  1  0.49546800  0.77692100  0.08327000  1
  O  O35  1  0.31701600  0.85052800  0.42717200  1
  O  O36  1  0.05869400  0.31546800  0.57921000  1
  O  O37  1  0.86802100  0.02326100  0.84357600  1
loop_
_geom_bond_atom_site_label_1
_geom_bond_atom_site_label_2
_geom_bond_distance
_geom_bond_site_symmetry_2
Ba0 O36 2.791489 1_555
Ba0 O15 2.820850 1_555
Ba0 O11 2.881771 1_555
Ba0 O17 2.888823 1_555
Ba0 O21 2.935843 1_555
Ba0 O28 2.985255 1_555
Ba0 O27 2.987317 1_555
Ba0 O4 3.030050 1_555
Ba0 O18 3.084665 1_555
Ba0 O14 3.148898 1_555
Ba1 O28 2.790457 1_555
Ba1 O3 2.807388 1_455
Ba1 O5 2.833009 1_455
Ba1 O23 2.838873 1_555
Ba1 O11 2.846298 1_555
Ba1 O33 2.886177 1_555
Ba1 O29 2.932260 1_455
Ba1 O36 2.959830 1_555
Ba1 O25 2.988866 1_555
Ba2 O12 2.593421 1_565
Ba2 O4 2.786494 1_555
Ba2 O15 2.848881 1_555
Ba2 O13 2.854951 1_555
Ba2 O29 2.922826 1_566
Ba2 O18 2.925084 1_555
Ba2 O37 2.988966 1_565
Ba2 O1 3.070687 1_555
Ba2 O34 3.284692 1_556
Ba3 O26 2.523060 1_555
Ba3 O34 2.780138 1_555
Ba3 O25 2.863534 1_555
Ba3 O35 2.885620 1_555
Ba3 O13 3.063871 1_555
Ba3 O19 3.075070 1_555
Ba3 O20 3.089493 1_555
Ba3 O30 3.140759 1_565
Ba3 O5 3.188565 1_565
Ba4 O24 2.764465 1_555
Ba4 O3 2.794142 1_455
Ba4 O0 2.854928 1_554
Ba4 O9 2.874244 1_454
Ba4 O19 2.972741 1_555
Ba4 O23 3.021910 1_555
Ba4 O35 3.072266 1_555
Ba4 O25 3.084189 1_555
Ba4 O33 3.115915 1_555
Ba4 O8 3.304500 1_555
Ba5 O37 2.627577 1_565
Ba5 O7 2.720736 1_555
Ba5 O16 2.732344 1_555
Ba5 O13 2.753845 1_555
Ba5 O2 2.816006 1_655
Ba5 O15 2.891092 1_555
Ba5 O26 2.916383 1_555
Ba5 O17 2.974963 1_665
Ba6 O29 2.585486 1_565
Ba6 O8 2.653658 1_655
Ba6 O20 2.740133 1_555
Ba6 O26 2.853730 1_555
Ba6 O24 2.856311 1_655
Ba6 O18 2.856959 1_554
Ba6 O28 2.882249 1_665
Ba6 O34 3.133602 1_555
Ba7 O31 2.590855 1_455
Ba7 O1 2.658429 1_555
Ba7 O4 2.716146 1_555
Ba7 O36 2.753832 1_555
Ba7 O10 2.852906 1_555
Ba7 O23 2.914670 1_555
Ba7 O0 2.967038 1_555
Ba7 O2 3.131535 1_555
Ba8 O0 2.675460 1_555
Ba8 O27 2.758056 1_555
Ba8 O37 2.766145 1_455
Ba8 O17 2.803192 1_555
Ba8 O9 2.851678 1_455
Ba8 O30 2.869033 1_455
Ba8 O33 2.943453 1_556
Ba8 O36 3.008540 1_555
Ba8 O4 3.218868 1_555
Ba9 O16 2.573214 1_555
Ba9 O6 2.748231 1_555
Ba9 O23 2.810195 1_655
Ba9 O3 2.841496 1_555
Ba9 O8 2.863752 1_655
Ba9 O31 2.881623 1_555
Ba9 O32 2.971707 1_555
Ba10 O10 2.575317 1_545
Ba10 O2 2.708283 1_545
Ba10 O14 2.779226 1_555
Ba10 O27 2.815520 1_555
Ba10 O17 2.940668 1_555
Ba10 O22 3.045396 1_556
Ba10 O7 3.114931 1_445
Ba10 O6 3.180537 1_556
Ba11 O32 2.624607 1_555
Ba11 O5 2.677477 1_555
Ba11 O12 2.734019 1_554
Ba11 O34 2.738144 1_545
Ba11 O6 2.838994 1_555
Ba11 O3 2.929451 1_555
Ba11 O19 2.938463 1_545
Ba11 O10 2.940634 1_544
Ba12 O22 2.615342 1_555
Ba12 O20 2.647877 1_555
Ba12 O33 2.710127 1_555
Ba12 O16 2.735433 1_555
Ba12 O25 2.794444 1_555
Ba12 O11 2.861005 1_555
Ba12 O6 3.011550 1_555
Ba12 O27 3.032400 1_554
Ba13 O30 2.605537 1_555
Ba13 O14 2.698423 1_555
Ba13 O21 2.743885 1_555
Ba13 O1 2.750606 1_545
Ba13 O12 2.766234 1_555
Ba13 O9 2.889243 1_555
Ba13 O35 2.964575 1_545
Ba13 O13 3.049307 1_545
Ba14 O18 2.755032 1_555
Ba14 O15 2.819126 1_555
Ba14 O9 2.833803 1_555
Ba14 O0 2.885865 1_655
Ba14 O24 2.896614 1_656
Ba14 O21 2.918755 1_555
Ba14 O7 2.921236 1_555
Ba14 O31 2.931073 1_555
Ba14 O14 3.087968 1_555
Ba15 O19 2.704890 1_545
Ba15 O35 2.729575 1_545
Ba15 O11 2.799163 1_555
Ba15 O32 2.806728 1_555
Ba15 O28 2.841907 1_555
Ba15 O21 2.856157 1_555
Ba15 O22 2.945673 1_555
Ba15 O24 3.133760 1_545
Ba15 O8 3.212604 1_545
Co0 O24 1.754163 1_555
Co0 O7 1.887594 1_454
Co0 O10 1.932128 1_554
Co0 O19 1.968045 1_555
Co0 O22 2.032723 1_565
Co1 O33 1.877281 1_655
Co1 O12 1.907167 1_554
Co1 O9 2.120836 1_554
Co1 O3 2.150003 1_555
Co1 O29 2.168128 1_555
Co1 O37 2.204778 1_554
Co2 O20 1.844940 1_556
Co2 O4 1.851501 1_555
Co2 O34 1.862821 1_556
Co2 O27 1.964003 1_555
Co2 O18 2.225422 1_555
Co3 O1 1.830251 1_555
Co3 O13 1.868041 1_555
Co3 O25 1.873267 1_555
Co3 O23 1.955219 1_555
Co3 O35 2.146471 1_555
Co4 O3 1.882030 1_556
Co4 O9 1.883247 1_555
Co4 O14 1.895817 1_555
Co4 O6 1.917154 1_556
Co4 O12 2.096174 1_555
Co5 O0 1.786504 1_555
Co5 O34 1.943246 1_556
Co5 O10 1.945583 1_555
Co5 O19 2.019625 1_556
Co5 O4 2.154902 1_555
Co6 O18 1.832645 1_555
Co6 O6 1.907531 1_556
Co6 O27 1.946405 1_555
Co6 O14 2.029043 1_555
Co6 O20 2.165340 1_556
Co7 O17 1.862572 1_565
Co7 O28 1.875483 1_565
Co7 O8 1.876147 1_555
Co7 O2 1.907671 1_555
Co7 O26 2.167300 1_455
Co8 O11 1.857535 1_555
Co8 O15 1.893802 1_555
Co8 O13 1.899512 1_555
Co8 O25 1.946779 1_555
Co8 O16 2.050722 1_555
Co9 O35 1.860216 1_555
Co9 O2 1.904833 1_555
Co9 O23 1.948688 1_555
Co9 O8 2.005397 1_555
Co9 O1 2.156301 1_555
Co10 O21 1.832706 1_555
Co10 O16 1.979620 1_555
Co10 O31 2.135320 1_555
Co10 O15 2.152451 1_555
Co10 O32 2.162637 1_555
Co10 O11 2.189258 1_555
Co11 O30 1.851686 1_555
Co11 O32 1.893731 1_555
Co11 O31 1.940105 1_555
Co11 O5 2.009485 1_555
Co12 O36 1.750487 1_655
Co12 O26 1.818724 1_545
Co12 O5 1.972782 1_555
Co12 O17 2.088238 1_655
Co12 O28 2.188889 1_655
Co12 O30 2.242451 1_555
Co13 O37 1.877703 1_555
Co13 O22 1.906715 1_656
Co13 O29 1.918303 1_556
Co13 O7 2.105130 1_545
Co13 O33 2.335867 1_656
