# generated using pymatgen
data_HfSO
_symmetry_space_group_name_H-M   'P 1'
_cell_length_a   5.65965741
_cell_length_b   5.65965741
_cell_length_c   5.65965741
_cell_angle_alpha   90.00000000
_cell_angle_beta   90.00000000
_cell_angle_gamma   90.00000000
_symmetry_Int_Tables_number   1
_chemical_formula_structural   HfSO
_chemical_formula_sum   'Hf4 S4 O4'
_cell_volume   181.28857276
_cell_formula_units_Z   4
loop_
 _symmetry_equiv_pos_site_id
 _symmetry_equiv_pos_as_xyz
  1  'x, y, z'
loop_
 _atom_site_type_symbol
 _atom_site_label
 _atom_site_symmetry_multiplicity
 _atom_site_fract_x
 _atom_site_fract_y
 _atom_site_fract_z
 _atom_site_occupancy
  Hf  Hf0  1  0.67952673  0.82047327  0.17952673  1
  Hf  Hf1  1  0.82047327  0.17952673  0.67952673  1
  Hf  Hf2  1  0.17952673  0.67952673  0.82047327  1
  Hf  Hf3  1  0.32047327  0.32047327  0.32047327  1
  S  S0  1  0.91839036  0.41839036  0.08160964  1
  S  S1  1  0.08160964  0.91839036  0.41839036  1
  S  S2  1  0.41839036  0.08160964  0.91839036  1
  S  S3  1  0.58160964  0.58160964  0.58160964  1
  O  O0  1  0.40488942  0.59511058  0.09511058  1
  O  O1  1  0.59511058  0.09511058  0.40488942  1
  O  O2  1  0.90488942  0.90488942  0.90488942  1
  O  O3  1  0.09511058  0.40488942  0.59511058  1
loop_
_geom_bond_atom_site_label_1
_geom_bond_atom_site_label_2
_geom_bond_distance
_geom_bond_site_symmetry_2
Hf0 O0 2.066667 1_555
Hf0 O2 2.066667 1_554
Hf0 O1 2.066667 1_565
Hf0 S2 2.559871 1_564
Hf0 S1 2.704311 1_655
Hf0 S3 2.704311 1_555
Hf0 S0 2.704311 1_555
Hf1 O1 2.066667 1_555
Hf1 O2 2.066667 1_545
Hf1 O3 2.066667 1_655
Hf1 S1 2.559871 1_645
Hf1 S0 2.704311 1_556
Hf1 S2 2.704311 1_555
Hf1 S3 2.704311 1_555
Hf2 O3 2.066667 1_555
Hf2 O0 2.066667 1_556
Hf2 O2 2.066667 1_455
Hf2 S0 2.559871 1_456
Hf2 S2 2.704311 1_565
Hf2 S3 2.704311 1_555
Hf2 S1 2.704311 1_555
Hf3 O3 2.066667 1_555
Hf3 O0 2.066667 1_555
Hf3 O1 2.066667 1_555
Hf3 S3 2.559871 1_555
Hf3 S1 2.704311 1_545
Hf3 S0 2.704311 1_455
Hf3 S2 2.704311 1_554
