# generated using pymatgen
data_Na4Cu6O5
_symmetry_space_group_name_H-M   'P 1'
_cell_length_a   7.81103994
_cell_length_b   7.81103994
_cell_length_c   8.05252300
_cell_angle_alpha   90.00000000
_cell_angle_beta   90.00000000
_cell_angle_gamma   119.99999949
_symmetry_Int_Tables_number   1
_chemical_formula_structural   Na4Cu6O5
_chemical_formula_sum   'Na8 Cu12 O10'
_cell_volume   425.48115038
_cell_formula_units_Z   2
loop_
 _symmetry_equiv_pos_site_id
 _symmetry_equiv_pos_as_xyz
  1  'x, y, z'
loop_
 _atom_site_type_symbol
 _atom_site_label
 _atom_site_symmetry_multiplicity
 _atom_site_fract_x
 _atom_site_fract_y
 _atom_site_fract_z
 _atom_site_occupancy
  Na  Na0  1  0.12082300  0.40841400  0.25000000  1
  Na  Na1  1  0.28759100  0.87917700  0.25000000  1
  Na  Na2  1  0.00000000  0.00000000  0.50000000  1
  Na  Na3  1  0.00000000  0.00000000  0.00000000  1
  Na  Na4  1  0.59158600  0.71240900  0.25000000  1
  Na  Na5  1  0.71240900  0.59158600  0.75000000  1
  Na  Na6  1  0.40841400  0.12082300  0.75000000  1
  Na  Na7  1  0.87917700  0.28759100  0.75000000  1
  Cu  Cu0  1  0.16791200  0.71239500  0.90936600  1
  Cu  Cu1  1  0.16791200  0.71239500  0.59063400  1
  Cu  Cu2  1  0.28760500  0.45551700  0.90936600  1
  Cu  Cu3  1  0.28760500  0.45551700  0.59063400  1
  Cu  Cu4  1  0.54448300  0.83208800  0.59063400  1
  Cu  Cu5  1  0.54448300  0.83208800  0.90936600  1
  Cu  Cu6  1  0.45551700  0.28760500  0.09063400  1
  Cu  Cu7  1  0.45551700  0.28760500  0.40936600  1
  Cu  Cu8  1  0.83208800  0.54448300  0.09063400  1
  Cu  Cu9  1  0.83208800  0.54448300  0.40936600  1
  Cu  Cu10  1  0.71239500  0.16791200  0.09063400  1
  Cu  Cu11  1  0.71239500  0.16791200  0.40936600  1
  O  O0  1  0.05150100  0.78993600  0.75000000  1
  O  O1  1  0.33333300  0.66666700  0.44580700  1
  O  O2  1  0.33333300  0.66666700  0.05419300  1
  O  O3  1  0.21006400  0.26156500  0.75000000  1
  O  O4  1  0.26156500  0.21006400  0.25000000  1
  O  O5  1  0.73843500  0.94849900  0.75000000  1
  O  O6  1  0.66666700  0.33333300  0.55419300  1
  O  O7  1  0.66666700  0.33333300  0.94580700  1
  O  O8  1  0.94849900  0.73843500  0.25000000  1
  O  O9  1  0.78993600  0.05150100  0.25000000  1
loop_
_geom_bond_atom_site_label_1
_geom_bond_atom_site_label_2
_geom_bond_distance
_geom_bond_site_symmetry_2
Na0 O4 2.304816 1_555
Na0 O1 2.441764 1_555
Na0 O2 2.441764 1_555
Na0 O9 2.691980 1_455
Na1 O8 2.304816 1_455
Na1 O1 2.441761 1_555
Na1 O2 2.441761 1_555
Na1 O4 2.691980 1_565
Na2 O9 2.750794 1_455
Na2 O0 2.750794 1_545
Na2 O8 2.750794 1_445
Na2 O5 2.750794 1_445
Na2 O3 2.750794 1_555
Na2 O4 2.750794 1_555
Na3 O0 2.750794 1_544
Na3 O9 2.750794 1_455
Na3 O5 2.750794 1_444
Na3 O8 2.750794 1_445
Na3 O3 2.750794 1_554
Na3 O4 2.750794 1_555
Na4 O9 2.304816 1_565
Na4 O1 2.441766 1_555
Na4 O2 2.441766 1_555
Na4 O8 2.691980 1_555
Na5 O0 2.304816 1_655
Na5 O7 2.441766 1_555
Na5 O6 2.441766 1_555
Na5 O5 2.691980 1_555
Na6 O3 2.304816 1_555
Na6 O7 2.441764 1_555
Na6 O6 2.441764 1_555
Na6 O0 2.691980 1_545
Na7 O5 2.304816 1_545
Na7 O7 2.441761 1_555
Na7 O6 2.441761 1_555
Na7 O3 2.691980 1_655
Cu0 O0 1.841533 1_555
Cu0 O2 1.902294 1_556
Cu1 O0 1.841533 1_555
Cu1 O1 1.902294 1_555
Cu2 O3 1.841533 1_555
Cu2 O2 1.902300 1_556
Cu3 O3 1.841533 1_555
Cu3 O1 1.902300 1_555
Cu4 O5 1.841533 1_555
Cu4 O1 1.902298 1_555
Cu5 O5 1.841533 1_555
Cu5 O2 1.902298 1_556
Cu6 O4 1.841533 1_555
Cu6 O7 1.902300 1_554
Cu7 O4 1.841533 1_555
Cu7 O6 1.902300 1_555
Cu8 O8 1.841533 1_555
Cu8 O7 1.902298 1_554
Cu9 O8 1.841533 1_555
Cu9 O6 1.902298 1_555
Cu10 O9 1.841533 1_555
Cu10 O7 1.902294 1_554
Cu11 O9 1.841533 1_555
Cu11 O6 1.902294 1_555
