# generated using pymatgen
data_LiVF6
_symmetry_space_group_name_H-M   'P 1'
_cell_length_a   8.66172410
_cell_length_b   8.66172410
_cell_length_c   10.08802031
_cell_angle_alpha   84.98863797
_cell_angle_beta   84.98863797
_cell_angle_gamma   62.18604601
_symmetry_Int_Tables_number   1
_chemical_formula_structural   LiVF6
_chemical_formula_sum   'Li6 V6 F36'
_cell_volume   665.92453937
_cell_formula_units_Z   6
loop_
 _symmetry_equiv_pos_site_id
 _symmetry_equiv_pos_as_xyz
  1  'x, y, z'
loop_
 _atom_site_type_symbol
 _atom_site_label
 _atom_site_symmetry_multiplicity
 _atom_site_fract_x
 _atom_site_fract_y
 _atom_site_fract_z
 _atom_site_occupancy
  Li  Li0  1  0.65414900  0.34056000  0.47993000  1
  Li  Li1  1  0.34056000  0.65414900  0.97993000  1
  Li  Li2  1  0.91885000  0.41760500  0.96007600  1
  Li  Li3  1  0.41760500  0.91885000  0.46007600  1
  Li  Li4  1  0.96282300  0.63952400  0.43691900  1
  Li  Li5  1  0.63952400  0.96282300  0.93691900  1
  V  V0  1  0.99810900  0.00748800  0.50063700  1
  V  V1  1  0.34065500  0.33249100  0.28192900  1
  V  V2  1  0.00748800  0.99810900  0.00063700  1
  V  V3  1  0.33249100  0.34065500  0.78192900  1
  V  V4  1  0.66214200  0.66449400  0.20800600  1
  V  V5  1  0.66449400  0.66214200  0.70800600  1
  F  F0  1  0.08015700  0.06673400  0.34661000  1
  F  F1  1  0.06673400  0.08015700  0.84661000  1
  F  F2  1  0.41016700  0.12283400  0.37974800  1
  F  F3  1  0.42100700  0.13137100  0.88381500  1
  F  F4  1  0.25005200  0.25817400  0.16732900  1
  F  F5  1  0.25817400  0.25005200  0.66732900  1
  F  F6  1  0.77992700  0.08598600  0.43780300  1
  F  F7  1  0.13137100  0.42100700  0.38381500  1
  F  F8  1  0.54654200  0.25230500  0.19306800  1
  F  F9  1  0.79257200  0.05924800  0.93695800  1
  F  F10  1  0.12283400  0.41016700  0.87974800  1
  F  F11  1  0.54434700  0.26600300  0.69506300  1
  F  F12  1  0.43088800  0.40239000  0.41192200  1
  F  F13  1  0.93534600  0.21679200  0.06147000  1
  F  F14  1  0.26600300  0.54434700  0.19506300  1
  F  F15  1  0.40239000  0.43088800  0.91192200  1
  F  F16  1  0.90905900  0.22904000  0.55566500  1
  F  F17  1  0.25230500  0.54654200  0.69306800  1
  F  F18  1  0.72844400  0.46018300  0.30438100  1
  F  F19  1  0.05924800  0.79257200  0.43695800  1
  F  F20  1  0.57540800  0.59114300  0.08356900  1
  F  F21  1  0.76028400  0.45590500  0.80429400  1
  F  F22  1  0.08598600  0.77992700  0.93780300  1
  F  F23  1  0.59114300  0.57540800  0.58356900  1
  F  F24  1  0.45590500  0.76028400  0.30429400  1
  F  F25  1  0.87084100  0.57722100  0.11275300  1
  F  F26  1  0.22904000  0.90905900  0.05566500  1
  F  F27  1  0.46018300  0.72844400  0.80438100  1
  F  F28  1  0.87151400  0.59765600  0.61233800  1
  F  F29  1  0.21679200  0.93534600  0.56147000  1
  F  F30  1  0.75286700  0.73803000  0.33231300  1
  F  F31  1  0.73803000  0.75286700  0.83231300  1
  F  F32  1  0.59765600  0.87151400  0.11233800  1
  F  F33  1  0.57722100  0.87084100  0.61275300  1
  F  F34  1  0.93175500  0.93706200  0.15651400  1
  F  F35  1  0.93706200  0.93175500  0.65651400  1
loop_
_geom_bond_atom_site_label_1
_geom_bond_atom_site_label_2
_geom_bond_distance
_geom_bond_site_symmetry_2
F0 V0 1.786308 1_455
F1 V2 1.786308 1_546
F2 V1 1.845122 1_555
F2 Li3 1.853468 1_545
F3 V3 1.856209 1_555
F3 Li5 1.860816 1_545
F4 V1 1.768256 1_555
F5 V3 1.768256 1_555
F6 V0 1.835872 1_555
F6 Li0 2.017611 1_555
F7 V1 1.856209 1_555
F7 Li4 1.860816 1_455
F8 V1 1.771970 1_555
F9 V2 1.840646 1_646
F9 Li5 1.867709 1_545
F10 V3 1.845122 1_555
F10 Li2 1.853468 1_455
F11 V3 1.806693 1_555
F11 Li0 2.449357 1_555
F12 V1 1.859162 1_555
F12 Li0 1.923094 1_555
F13 V2 1.840243 1_645
F13 Li2 1.890743 1_554
F14 V1 1.806693 1_555
F14 Li1 2.449357 1_554
F15 V3 1.859162 1_555
F15 Li1 1.923094 1_555
F16 V0 1.820917 1_555
F16 Li0 2.137131 1_555
F17 V3 1.771970 1_555
F18 V4 1.804262 1_555
F18 Li0 2.174053 1_555
F19 V0 1.840646 1_465
F19 Li4 1.867709 1_455
F20 V4 1.814782 1_555
F20 Li1 2.182829 1_554
F21 V5 1.810400 1_555
F21 Li2 2.080133 1_555
F22 V2 1.835872 1_556
F22 Li1 2.017611 1_555
F23 V5 1.814782 1_555
F23 Li0 2.182829 1_555
F24 V4 1.810400 1_555
F24 Li3 2.080133 1_555
F25 V4 1.819549 1_555
F25 Li2 2.044558 1_554
F26 V2 1.820917 1_555
F26 Li1 2.137131 1_554
F27 V5 1.804262 1_555
F27 Li1 2.174053 1_555
F28 V5 1.820976 1_555
F28 Li4 1.949267 1_555
F29 V0 1.840243 1_465
F29 Li3 1.890743 1_555
F30 V4 1.837008 1_555
F30 Li4 1.969461 1_555
F31 V5 1.837008 1_555
F31 Li5 1.969461 1_555
F32 V4 1.820976 1_555
F32 Li5 1.949267 1_554
F33 V5 1.819549 1_555
F33 Li3 2.044558 1_555
F34 V2 1.783493 1_655
F35 V0 1.783493 1_565
