# generated using pymatgen
data_Na9Mn21O40
_symmetry_space_group_name_H-M   'P 1'
_cell_length_a   6.24817757
_cell_length_b   6.24817757
_cell_length_c   21.46067966
_cell_angle_alpha   82.71619188
_cell_angle_beta   82.71619188
_cell_angle_gamma   94.77222279
_symmetry_Int_Tables_number   1
_chemical_formula_structural   Na9Mn21O40
_chemical_formula_sum   'Na9 Mn21 O40'
_cell_volume   820.14542725
_cell_formula_units_Z   1
loop_
 _symmetry_equiv_pos_site_id
 _symmetry_equiv_pos_as_xyz
  1  'x, y, z'
loop_
 _atom_site_type_symbol
 _atom_site_label
 _atom_site_symmetry_multiplicity
 _atom_site_fract_x
 _atom_site_fract_y
 _atom_site_fract_z
 _atom_site_occupancy
  Na  Na0  1  0.76317800  0.43008800  0.80161500  1
  Na  Na1  1  0.36467800  0.03549500  0.59987900  1
  Na  Na2  1  0.43627100  0.56372900  0.50000000  1
  Na  Na3  1  0.83516400  0.96243800  0.70023800  1
  Na  Na4  1  0.03756200  0.16483600  0.29976200  1
  Na  Na5  1  0.96450500  0.63532200  0.40012100  1
  Na  Na6  1  0.56991200  0.23682200  0.19838500  1
  Na  Na7  1  0.63414200  0.77360300  0.10184900  1
  Na  Na8  1  0.22639700  0.36585800  0.89815100  1
  Mn  Mn0  1  0.00274100  0.89306700  0.85042100  1
  Mn  Mn1  1  0.09983600  0.49876600  0.65008000  1
  Mn  Mn2  1  0.29999500  0.69904700  0.74956600  1
  Mn  Mn3  1  0.50023700  0.89703300  0.84955700  1
  Mn  Mn4  1  0.29907700  0.19957000  0.75033700  1
  Mn  Mn5  1  0.60024500  0.49848600  0.65025200  1
  Mn  Mn6  1  0.19995800  0.09914700  0.45028700  1
  Mn  Mn7  1  0.90085300  0.80004200  0.54971300  1
  Mn  Mn8  1  0.50123400  0.90016400  0.34992000  1
  Mn  Mn9  1  0.10296700  0.49976300  0.15044300  1
  Mn  Mn10  1  0.89995500  0.29888400  0.55019300  1
  Mn  Mn11  1  0.70111600  0.10004500  0.44980700  1
  Mn  Mn12  1  0.30095300  0.70000500  0.25043400  1
  Mn  Mn13  1  0.50151400  0.39975500  0.34974800  1
  Mn  Mn14  1  0.80043000  0.70092300  0.24966300  1
  Mn  Mn15  1  0.10693300  0.99725900  0.14957900  1
  Mn  Mn16  1  0.17238800  0.82761200  0.00000000  1
  Mn  Mn17  1  0.69480600  0.59913700  0.95081400  1
  Mn  Mn18  1  0.40086300  0.30519400  0.04918600  1
  Mn  Mn19  1  0.89615900  0.30443100  0.04905700  1
  Mn  Mn20  1  0.69556900  0.10384100  0.95094300  1
  O  O0  1  0.07854300  0.46920100  0.74230700  1
  O  O1  1  0.27029800  0.67771300  0.84108800  1
  O  O2  1  0.27236200  0.09874000  0.84325000  1
  O  O3  1  0.09889600  0.92908200  0.75680400  1
  O  O4  1  0.50151200  0.46986800  0.74327200  1
  O  O5  1  0.52113900  0.93010100  0.75772200  1
  O  O6  1  0.12037300  0.52946400  0.55801500  1
  O  O7  1  0.33046500  0.71974900  0.65763200  1
  O  O8  1  0.87091200  0.69982000  0.64319100  1
  O  O9  1  0.69900600  0.52792400  0.55712700  1
  O  O10  1  0.10086400  0.06991000  0.54331600  1
  O  O11  1  0.32916900  0.29789500  0.65716800  1
  O  O12  1  0.67961000  0.06823500  0.54237900  1
  O  O13  1  0.86993700  0.27782900  0.64228200  1
  O  O14  1  0.28025100  0.66953500  0.34236800  1
  O  O15  1  0.06989900  0.47886100  0.24227800  1
  O  O16  1  0.47053600  0.87962700  0.44198500  1
  O  O17  1  0.53013200  0.49848800  0.25672800  1
  O  O18  1  0.93009000  0.89913600  0.45668400  1
  O  O19  1  0.07091800  0.90110400  0.24319600  1
  O  O20  1  0.47207600  0.30099400  0.44287300  1
  O  O21  1  0.70210500  0.67083100  0.34283200  1
  O  O22  1  0.30018000  0.12908800  0.35680900  1
  O  O23  1  0.53079900  0.92145700  0.25769300  1
  O  O24  1  0.93176500  0.32039000  0.45762100  1
  O  O25  1  0.32228700  0.72970200  0.15891200  1
  O  O26  1  0.72217100  0.13006300  0.35771800  1
  O  O27  1  0.13582200  0.53431300  0.05557800  1
  O  O28  1  0.15152200  0.07288700  0.05464900  1
  O  O29  1  0.65397000  0.51599800  0.04313300  1
  O  O30  1  0.90126000  0.72763800  0.15675000  1
  O  O31  1  0.30167900  0.27123700  0.14258300  1
  O  O32  1  0.46568700  0.86417800  0.94442200  1
  O  O33  1  0.88855600  0.26508900  0.14111200  1
  O  O34  1  0.66192900  0.08530300  0.04287400  1
  O  O35  1  0.48400200  0.34603000  0.95686700  1
  O  O36  1  0.92711300  0.84847800  0.94535100  1
  O  O37  1  0.72876300  0.69832100  0.85741700  1
  O  O38  1  0.91469700  0.33807100  0.95712600  1
  O  O39  1  0.73491100  0.11144400  0.85888800  1
loop_
_geom_bond_atom_site_label_1
_geom_bond_atom_site_label_2
_geom_bond_distance
_geom_bond_site_symmetry_2
Na0 O0 2.183455 1_655
Na0 O39 2.184427 1_555
Na0 O37 2.189251 1_555
Na0 O4 2.193234 1_555
Na1 O12 2.165623 1_555
Na1 O7 2.171766 1_545
Na1 O10 2.176461 1_555
Na1 O11 2.179751 1_555
Na2 O6 2.175032 1_555
Na2 O16 2.175032 1_555
Na2 O9 2.179421 1_555
Na2 O20 2.179421 1_555
Na3 O5 2.160913 1_555
Na3 O13 2.171695 1_565
Na3 O3 2.175481 1_655
Na3 O8 2.177672 1_555
Na4 O15 2.160913 1_555
Na4 O26 2.171695 1_455
Na4 O19 2.175481 1_545
Na4 O22 2.177672 1_555
Na5 O24 2.165623 1_555
Na5 O14 2.171766 1_655
Na5 O18 2.176461 1_555
Na5 O21 2.179751 1_555
Na6 O23 2.183455 1_545
Na6 O33 2.184427 1_555
Na6 O31 2.189251 1_555
Na6 O17 2.193234 1_555
Na7 O25 2.143010 1_555
Na7 O34 2.165172 1_565
Na7 O29 2.168348 1_555
Na7 O30 2.179177 1_555
Na8 O1 2.143010 1_555
Na8 O38 2.165172 1_455
Na8 O35 2.168348 1_555
Na8 O2 2.179177 1_555
Mn0 O37 1.993878 1_455
Mn0 O3 2.001202 1_555
Mn0 O2 2.009235 1_565
Mn0 O36 2.010327 1_455
Mn0 O1 2.236766 1_555
Mn0 O39 2.249641 1_465
Mn1 O13 1.945929 1_455
Mn1 O6 1.947428 1_555
Mn1 O7 1.947853 1_555
Mn1 O0 1.950821 1_555
Mn1 O8 1.987807 1_455
Mn1 O11 1.989396 1_555
Mn2 O1 1.935734 1_555
Mn2 O7 1.944613 1_555
Mn2 O0 1.944737 1_555
Mn2 O5 1.953848 1_555
Mn2 O4 1.989979 1_555
Mn2 O3 1.994084 1_555
Mn3 O5 1.941894 1_555
Mn3 O1 1.943394 1_555
Mn3 O39 1.949477 1_565
Mn3 O37 1.977816 1_555
Mn3 O2 1.984460 1_565
Mn3 O32 2.002176 1_555
Mn4 O2 1.995063 1_555
Mn4 O11 1.996155 1_555
Mn4 O3 1.996185 1_545
Mn4 O4 2.001530 1_555
Mn4 O0 2.267042 1_555
Mn4 O5 2.271968 1_545
Mn5 O4 1.994118 1_555
Mn5 O9 1.995974 1_555
Mn5 O11 1.999365 1_555
Mn5 O8 1.999556 1_555
Mn5 O13 2.267787 1_555
Mn5 O7 2.270088 1_555
Mn6 O18 1.992737 1_445
Mn6 O10 1.994457 1_555
Mn6 O22 2.004589 1_555
Mn6 O20 2.007594 1_555
Mn6 O24 2.262181 1_455
Mn6 O16 2.267740 1_545
Mn7 O10 1.992737 1_665
Mn7 O18 1.994457 1_555
Mn7 O8 2.004589 1_555
Mn7 O9 2.007594 1_555
Mn7 O12 2.262181 1_565
Mn7 O6 2.267740 1_655
Mn8 O26 1.945929 1_565
Mn8 O16 1.947428 1_555
Mn8 O14 1.947853 1_555
Mn8 O23 1.950821 1_555
Mn8 O22 1.987807 1_565
Mn8 O21 1.989396 1_555
Mn9 O15 1.941894 1_555
Mn9 O25 1.943394 1_555
Mn9 O33 1.949477 1_455
Mn9 O31 1.977816 1_555
Mn9 O30 1.984460 1_455
Mn9 O27 2.002176 1_555
Mn10 O12 1.946828 1_555
Mn10 O6 1.946875 1_655
Mn10 O13 1.947869 1_555
Mn10 O24 1.957578 1_555
Mn10 O10 1.987411 1_655
Mn10 O9 1.988009 1_555
Mn11 O24 1.946828 1_555
Mn11 O16 1.946875 1_545
Mn11 O26 1.947869 1_555
Mn11 O12 1.957578 1_555
Mn11 O18 1.987411 1_545
Mn11 O20 1.988009 1_555
Mn12 O25 1.935734 1_555
Mn12 O14 1.944613 1_555
Mn12 O23 1.944737 1_555
Mn12 O15 1.953848 1_555
Mn12 O17 1.989979 1_555
Mn12 O19 1.994084 1_555
Mn13 O17 1.994118 1_555
Mn13 O20 1.995974 1_555
Mn13 O21 1.999365 1_555
Mn13 O22 1.999556 1_555
Mn13 O26 2.267787 1_555
Mn13 O14 2.270088 1_555
Mn14 O30 1.995063 1_555
Mn14 O21 1.996155 1_555
Mn14 O19 1.996185 1_655
Mn14 O17 2.001530 1_555
Mn14 O23 2.267042 1_555
Mn14 O15 2.271968 1_655
Mn15 O31 1.993878 1_565
Mn15 O19 2.001202 1_555
Mn15 O30 2.009235 1_455
Mn15 O28 2.010327 1_565
Mn15 O25 2.236766 1_555
Mn15 O33 2.249641 1_465
Mn16 O27 2.034744 1_555
Mn16 O32 2.034744 1_554
Mn16 O28 2.047270 1_565
Mn16 O36 2.047270 1_454
Mn17 O35 1.952095 1_555
Mn17 O29 1.961889 1_556
Mn17 O37 2.000465 1_555
Mn17 O36 2.020395 1_555
Mn17 O38 2.220548 1_555
Mn17 O32 2.279758 1_555
Mn18 O29 1.952095 1_555
Mn18 O35 1.961889 1_554
Mn18 O31 2.000465 1_555
Mn18 O28 2.020395 1_555
Mn18 O34 2.220548 1_555
Mn18 O27 2.279758 1_555
Mn19 O38 1.944940 1_554
Mn19 O34 1.948319 1_555
Mn19 O33 1.953625 1_555
Mn19 O27 2.017739 1_655
Mn19 O29 2.095831 1_555
Mn19 O28 2.245401 1_655
Mn20 O34 1.944940 1_556
Mn20 O38 1.948319 1_555
Mn20 O39 1.953625 1_555
Mn20 O32 2.017739 1_545
Mn20 O35 2.095831 1_555
Mn20 O36 2.245401 1_545
