# generated using pymatgen
data_CsTmO2
_symmetry_space_group_name_H-M   'P 1'
_cell_length_a   3.47226148
_cell_length_b   3.47226384
_cell_length_c   13.61187854
_cell_angle_alpha   89.99847125
_cell_angle_beta   90.00095273
_cell_angle_gamma   120.00006682
_symmetry_Int_Tables_number   1
_chemical_formula_structural   CsTmO2
_chemical_formula_sum   'Cs2 Tm2 O4'
_cell_volume   142.12600365
_cell_formula_units_Z   2
loop_
 _symmetry_equiv_pos_site_id
 _symmetry_equiv_pos_as_xyz
  1  'x, y, z'
loop_
 _atom_site_type_symbol
 _atom_site_label
 _atom_site_symmetry_multiplicity
 _atom_site_fract_x
 _atom_site_fract_y
 _atom_site_fract_z
 _atom_site_occupancy
  Cs  Cs0  1  0.33331854  0.66662845  0.75000281  1
  Cs  Cs1  1  0.66667854  0.33331338  0.25000282  1
  Tm  Tm0  1  0.99998083  0.99994094  -0.00000510  1
  Tm  Tm1  1  0.00004043  0.00008793  0.49998814  1
  O  O0  1  0.33333581  0.66672239  0.41912934  1
  O  O1  1  0.33332233  0.66662424  0.08087532  1
  O  O2  1  0.66667219  0.33337126  0.58087351  1
  O  O3  1  0.66665234  0.33331041  0.91913116  1
loop_
_geom_bond_atom_site_label_1
_geom_bond_atom_site_label_2
_geom_bond_distance
_geom_bond_site_symmetry_2
Cs0 O3 3.052602 1_555
Cs0 O2 3.052606 1_555
Cs0 O2 3.052631 1_455
Cs0 O3 3.052672 1_455
Cs0 O3 3.052730 1_565
Cs0 O2 3.052796 1_565
Cs1 O0 3.052468 1_545
Cs1 O1 3.052619 1_655
Cs1 O1 3.052623 1_555
Cs1 O0 3.052624 1_655
Cs1 O1 3.052736 1_545
Cs1 O0 3.052856 1_555
O0 Tm1 2.286874 1_555
O0 Tm1 2.286990 1_565
O0 Tm1 2.287075 1_665
O1 Tm0 2.287076 1_455
O1 Tm0 2.287102 1_555
O1 Tm0 2.287185 1_445
O2 Tm1 2.287057 1_555
O2 Tm1 2.287139 1_655
O2 Tm1 2.287265 1_665
O3 Tm0 2.286937 1_556
O3 Tm0 2.287027 1_446
O3 Tm0 2.287071 1_546
