# generated using pymatgen
data_Li4Ti2Fe3Sn3O16
_symmetry_space_group_name_H-M   'P 1'
_cell_length_a   6.14569061
_cell_length_b   6.11981398
_cell_length_c   9.71552208
_cell_angle_alpha   89.98846993
_cell_angle_beta   89.47525317
_cell_angle_gamma   119.84896779
_symmetry_Int_Tables_number   1
_chemical_formula_structural   Li4Ti2Fe3Sn3O16
_chemical_formula_sum   'Li4 Ti2 Fe3 Sn3 O16'
_cell_volume   316.91287139
_cell_formula_units_Z   1
loop_
 _symmetry_equiv_pos_site_id
 _symmetry_equiv_pos_as_xyz
  1  'x, y, z'
loop_
 _atom_site_type_symbol
 _atom_site_label
 _atom_site_symmetry_multiplicity
 _atom_site_fract_x
 _atom_site_fract_y
 _atom_site_fract_z
 _atom_site_occupancy
  Li  Li0  1  0.34221400  0.67107100  0.89157000  1
  Li  Li1  1  0.98090200  0.99076500  0.98835200  1
  Li  Li2  1  0.98513800  0.99236700  0.49971500  1
  Li  Li3  1  0.66511700  0.33293000  0.39870400  1
  Ti  Ti0  1  0.35135900  0.67497100  0.50103100  1
  Ti  Ti1  1  0.69911200  0.34961500  0.98284500  1
  Fe  Fe0  1  0.65588900  0.82938300  0.21814800  1
  Fe  Fe1  1  0.83131700  0.65415400  0.71542800  1
  Fe  Fe2  1  0.83141900  0.17719000  0.71552500  1
  Sn  Sn0  1  0.16958000  0.83030900  0.21350200  1
  Sn  Sn1  1  0.17023800  0.33966400  0.21386400  1
  Sn  Sn2  1  0.34256700  0.17100500  0.71319900  1
  O  O0  1  0.17137700  0.83092700  0.59323900  1
  O  O1  1  0.02929900  0.51540700  0.34148000  1
  O  O2  1  0.34084800  0.66999200  0.09769700  1
  O  O3  1  0.98953700  0.99485900  0.31253700  1
  O  O4  1  0.99489100  0.99721900  0.80195600  1
  O  O5  1  0.17107400  0.34024800  0.59337600  1
  O  O6  1  0.47687300  0.95552900  0.34615100  1
  O  O7  1  0.47569800  0.52006500  0.34694300  1
  O  O8  1  0.32407800  0.16155400  0.09467000  1
  O  O9  1  0.65030100  0.82496100  0.59248700  1
  O  O10  1  0.52582700  0.48051000  0.84732300  1
  O  O11  1  0.52620400  0.04533800  0.84749200  1
  O  O12  1  0.67263700  0.33632800  0.60197500  1
  O  O13  1  0.83213300  0.66153500  0.09283600  1
  O  O14  1  0.96185000  0.48083900  0.85289000  1
  O  O15  1  0.83252100  0.17156300  0.09290300  1
loop_
_geom_bond_atom_site_label_1
_geom_bond_atom_site_label_2
_geom_bond_distance
_geom_bond_site_symmetry_2
Li0 O2 2.002568 1_556
Li0 O10 2.029641 1_555
Li0 O11 2.029968 1_565
Li0 O14 2.065968 1_455
Li1 O4 1.811677 1_555
Li1 O13 2.018507 1_556
Li1 O15 2.018771 1_566
Li1 O8 2.110339 1_666
Li2 O3 1.818433 1_555
Li2 O9 1.990884 1_555
Li2 O0 2.063030 1_655
Li2 O5 2.065060 1_665
Li3 O12 1.975719 1_555
Li3 O1 2.013570 1_655
Li3 O7 2.063293 1_555
Li3 O6 2.070017 1_545
Fe0 O3 2.009683 1_555
Fe0 O6 2.042966 1_555
Fe0 O2 2.057087 1_555
Fe0 O7 2.064561 1_555
Fe0 O15 2.180865 1_565
Fe0 O13 2.189620 1_555
Fe1 O4 2.010083 1_555
Fe1 O12 2.020289 1_555
Fe1 O10 2.065316 1_555
Fe1 O14 2.101947 1_555
Fe1 O0 2.156566 1_655
Fe1 O9 2.222234 1_555
Fe2 O4 2.010981 1_545
Fe2 O12 2.020655 1_555
Fe2 O11 2.064534 1_555
Fe2 O14 2.101105 1_555
Fe2 O5 2.154552 1_655
Fe2 O9 2.225181 1_545
O0 Ti0 1.992492 1_555
O0 Sn2 2.154180 1_565
O1 Sn0 2.080545 1_555
O1 Sn1 2.086242 1_555
O1 Ti0 2.325264 1_555
O2 Sn1 2.080214 1_555
O2 Sn0 2.083995 1_555
O3 Sn1 2.062043 1_665
O3 Sn0 2.062578 1_655
O4 Sn2 2.035689 1_665
O5 Ti0 1.987576 1_555
O5 Sn2 2.155778 1_555
O6 Sn0 2.102152 1_555
O6 Ti0 2.113422 1_555
O7 Sn1 2.096811 1_555
O7 Ti0 2.103445 1_555
O8 Sn0 2.099241 1_545
O8 Sn1 2.104592 1_555
O8 Ti1 2.265022 1_554
O9 Ti0 1.832740 1_555
O10 Ti1 2.093771 1_555
O10 Sn2 2.111519 1_555
O11 Ti1 2.093524 1_555
O11 Sn2 2.111395 1_555
O12 Sn2 2.054902 1_555
O13 Ti1 1.979282 1_554
O13 Sn0 2.157502 1_655
O14 Ti1 1.875569 1_555
O15 Ti1 1.976812 1_554
O15 Sn1 2.160297 1_655
