# generated using pymatgen
data_Li2MnVO4
_symmetry_space_group_name_H-M   'P 1'
_cell_length_a   5.31025827
_cell_length_b   6.09230647
_cell_length_c   5.83379838
_cell_angle_alpha   118.59314114
_cell_angle_beta   89.95124413
_cell_angle_gamma   109.89118900
_symmetry_Int_Tables_number   1
_chemical_formula_structural   Li2MnVO4
_chemical_formula_sum   'Li4 Mn2 V2 O8'
_cell_volume   152.80080506
_cell_formula_units_Z   2
loop_
 _symmetry_equiv_pos_site_id
 _symmetry_equiv_pos_as_xyz
  1  'x, y, z'
loop_
 _atom_site_type_symbol
 _atom_site_label
 _atom_site_symmetry_multiplicity
 _atom_site_fract_x
 _atom_site_fract_y
 _atom_site_fract_z
 _atom_site_occupancy
  Li  Li0  1  0.99980700  0.00018200  0.50135800  1
  Li  Li1  1  0.00030400  0.00001300  0.99868900  1
  Li  Li2  1  0.00055600  0.50125800  0.50052100  1
  Li  Li3  1  0.99961900  0.49886000  0.99946600  1
  Mn  Mn0  1  0.49995900  0.00008300  0.74995700  1
  Mn  Mn1  1  0.50003900  0.99991400  0.24999400  1
  V  V0  1  0.50004100  0.50003700  0.74997900  1
  V  V1  1  0.50006400  0.50001300  0.25001900  1
  O  O0  1  0.71479200  0.23840000  0.61976200  1
  O  O1  1  0.71480300  0.23844300  0.11803100  1
  O  O2  1  0.28492600  0.76138900  0.88028500  1
  O  O3  1  0.28506300  0.76140600  0.38206500  1
  O  O4  1  0.74371000  0.73302400  0.61613000  1
  O  O5  1  0.74105300  0.73473900  0.11699300  1
  O  O6  1  0.25636700  0.26701900  0.88382200  1
  O  O7  1  0.25889600  0.26522100  0.38293000  1
loop_
_geom_bond_atom_site_label_1
_geom_bond_atom_site_label_2
_geom_bond_distance
_geom_bond_site_symmetry_2
Li0 O4 2.117126 1_545
Li0 O6 2.122132 1_655
Li0 O7 2.128840 1_655
Li0 O5 2.133891 1_545
Li0 O0 2.325391 1_555
Li0 O3 2.328878 1_645
Li1 O6 2.116787 1_555
Li1 O4 2.122622 1_445
Li1 O5 2.129671 1_446
Li1 O7 2.133009 1_556
Li1 O2 2.325331 1_545
Li1 O1 2.328519 1_456
Li2 O3 2.165453 1_555
Li2 O4 2.169389 1_455
Li2 O2 2.171803 1_555
Li2 O0 2.182207 1_455
Li2 O1 2.185862 1_455
Li2 O7 2.194768 1_555
Li3 O1 2.167674 1_556
Li3 O6 2.169274 1_655
Li3 O0 2.172666 1_555
Li3 O2 2.179590 1_655
Li3 O3 2.185545 1_656
Li3 O5 2.195094 1_556
Mn0 O3 1.977556 1_545
Mn0 O1 1.978208 1_556
Mn0 O0 1.978214 1_555
Mn0 O2 1.980788 1_545
Mn0 O6 2.267581 1_555
Mn0 O4 2.268828 1_545
Mn1 O0 1.985334 1_565
Mn1 O2 1.985709 1_554
Mn1 O1 1.986617 1_565
Mn1 O3 1.987355 1_555
Mn1 O5 2.248426 1_555
Mn1 O7 2.249584 1_565
O0 V0 2.120078 1_555
O1 V1 2.119721 1_555
O2 V0 2.120286 1_555
O3 V1 2.120006 1_555
O4 V1 2.025755 1_555
O4 V0 2.026863 1_555
O5 V0 2.023808 1_554
O5 V1 2.024884 1_555
O6 V1 2.026226 1_556
O6 V0 2.026974 1_555
O7 V0 2.024222 1_555
O7 V1 2.025044 1_555
