# generated using pymatgen
data_Li3Sb(PO4)2
_symmetry_space_group_name_H-M   'P 1'
_cell_length_a   5.24913300
_cell_length_b   12.94690500
_cell_length_c   19.59609196
_cell_angle_alpha   71.15618287
_cell_angle_beta   90.00000000
_cell_angle_gamma   90.00000000
_symmetry_Int_Tables_number   1
_chemical_formula_structural   Li3Sb(PO4)2
_chemical_formula_sum   'Li24 Sb8 P16 O64'
_cell_volume   1260.37244381
_cell_formula_units_Z   8
loop_
 _symmetry_equiv_pos_site_id
 _symmetry_equiv_pos_as_xyz
  1  'x, y, z'
loop_
 _atom_site_type_symbol
 _atom_site_label
 _atom_site_symmetry_multiplicity
 _atom_site_fract_x
 _atom_site_fract_y
 _atom_site_fract_z
 _atom_site_occupancy
  Li  Li0  1  0.76387500  0.68071300  0.96196100  1
  Li  Li1  1  0.29457800  0.79367600  0.87218500  1
  Li  Li2  1  0.70255300  0.94334500  0.80663400  1
  Li  Li3  1  0.73612500  0.18071300  0.96196100  1
  Li  Li4  1  0.20542200  0.29367600  0.87218500  1
  Li  Li5  1  0.79744700  0.44334500  0.80663400  1
  Li  Li6  1  0.21126400  0.75188500  0.69163500  1
  Li  Li7  1  0.79430000  0.67141600  0.62737300  1
  Li  Li8  1  0.28873600  0.25188500  0.69163500  1
  Li  Li9  1  0.26496500  0.64156700  0.54127000  1
  Li  Li10  1  0.70570000  0.17141600  0.62737300  1
  Li  Li11  1  0.76496500  0.85843300  0.45873000  1
  Li  Li12  1  0.23503500  0.14156700  0.54127000  1
  Li  Li13  1  0.29430000  0.82858400  0.37262700  1
  Li  Li14  1  0.73503500  0.35843300  0.45873000  1
  Li  Li15  1  0.71126400  0.74811500  0.30836500  1
  Li  Li16  1  0.20570000  0.32858400  0.37262700  1
  Li  Li17  1  0.78873600  0.24811500  0.30836500  1
  Li  Li18  1  0.20255300  0.55665500  0.19336600  1
  Li  Li19  1  0.79457800  0.70632400  0.12781500  1
  Li  Li20  1  0.26387500  0.81928700  0.03803900  1
  Li  Li21  1  0.29744700  0.05665500  0.19336600  1
  Li  Li22  1  0.70542200  0.20632400  0.12781500  1
  Li  Li23  1  0.23612500  0.31928700  0.03803900  1
  Sb  Sb0  1  0.31497800  0.53891200  0.87487600  1
  Sb  Sb1  1  0.18502200  0.03891200  0.87487600  1
  Sb  Sb2  1  0.68630600  0.91418300  0.62445600  1
  Sb  Sb3  1  0.81369400  0.41418300  0.62445600  1
  Sb  Sb4  1  0.18630600  0.58581700  0.37554400  1
  Sb  Sb5  1  0.31369400  0.08581700  0.37554400  1
  Sb  Sb6  1  0.81497800  0.96108800  0.12512400  1
  Sb  Sb7  1  0.68502200  0.46108800  0.12512400  1
  P  P0  1  0.72571600  0.91463200  0.95959000  1
  P  P1  1  0.77428400  0.41463200  0.95959000  1
  P  P2  1  0.78420800  0.71291200  0.79035300  1
  P  P3  1  0.71579200  0.21291200  0.79035300  1
  P  P4  1  0.28730300  0.50145500  0.70910700  1
  P  P5  1  0.22496600  0.87683200  0.53822200  1
  P  P6  1  0.21269700  0.00145500  0.70910700  1
  P  P7  1  0.27503400  0.37683200  0.53822200  1
  P  P8  1  0.72496600  0.62316800  0.46177800  1
  P  P9  1  0.78730300  0.99854500  0.29089300  1
  P  P10  1  0.77503400  0.12316800  0.46177800  1
  P  P11  1  0.71269700  0.49854500  0.29089300  1
  P  P12  1  0.28420800  0.78708800  0.20964700  1
  P  P13  1  0.21579200  0.28708800  0.20964700  1
  P  P14  1  0.22571600  0.58536800  0.04041000  1
  P  P15  1  0.27428400  0.08536800  0.04041000  1
  O  O0  1  0.47459800  0.90638200  0.91845100  1
  O  O1  1  0.95238500  0.89940300  0.90858100  1
  O  O2  1  0.23440200  0.68469600  0.97170300  1
  O  O3  1  0.74335800  0.52698800  0.96865600  1
  O  O4  1  0.29810900  0.97972500  0.79064400  1
  O  O5  1  0.64748400  0.77619000  0.83341900  1
  O  O6  1  0.02540200  0.40638200  0.91845100  1
  O  O7  1  0.54761500  0.39940300  0.90858100  1
  O  O8  1  0.26559800  0.18469600  0.97170300  1
  O  O9  1  0.07775000  0.71345800  0.79912600  1
  O  O10  1  0.75664200  0.02698800  0.96865600  1
  O  O11  1  0.68072900  0.59362400  0.81234400  1
  O  O12  1  0.91901100  0.99684800  0.70662600  1
  O  O13  1  0.32825200  0.90434600  0.68873800  1
  O  O14  1  0.20189100  0.47972500  0.79064400  1
  O  O15  1  0.85251600  0.27619000  0.83341900  1
  O  O16  1  0.72955600  0.76096300  0.70593600  1
  O  O17  1  0.42225000  0.21345800  0.79912600  1
  O  O18  1  0.81927100  0.09362400  0.81234400  1
  O  O19  1  0.58098900  0.49684800  0.70662600  1
  O  O20  1  0.17098400  0.61001300  0.66119400  1
  O  O21  1  0.17174800  0.40434600  0.68873800  1
  O  O22  1  0.98755700  0.82399400  0.58571900  1
  O  O23  1  0.46169500  0.81344800  0.58379500  1
  O  O24  1  0.77044400  0.26096300  0.70593600  1
  O  O25  1  0.25223900  0.99793700  0.52964800  1
  O  O26  1  0.71510100  0.65331500  0.53121000  1
  O  O27  1  0.32901600  0.11001300  0.66119400  1
  O  O28  1  0.21510100  0.84668500  0.46879000  1
  O  O29  1  0.51244300  0.32399400  0.58571900  1
  O  O30  1  0.03830500  0.31344800  0.58379500  1
  O  O31  1  0.24776100  0.49793700  0.52964800  1
  O  O32  1  0.75223900  0.50206300  0.47035200  1
  O  O33  1  0.96169500  0.68655200  0.41620500  1
  O  O34  1  0.48755700  0.67600600  0.41428100  1
  O  O35  1  0.78489900  0.15331500  0.53121000  1
  O  O36  1  0.67098400  0.88998700  0.33880600  1
  O  O37  1  0.28489900  0.34668500  0.46879000  1
  O  O38  1  0.74776100  0.00206300  0.47035200  1
  O  O39  1  0.22955600  0.73903700  0.29406400  1
  O  O40  1  0.53830500  0.18655200  0.41620500  1
  O  O41  1  0.01244300  0.17600600  0.41428100  1
  O  O42  1  0.82825200  0.59565400  0.31126200  1
  O  O43  1  0.82901600  0.38998700  0.33880600  1
  O  O44  1  0.41901100  0.50315200  0.29337400  1
  O  O45  1  0.18072900  0.90637600  0.18765600  1
  O  O46  1  0.57775000  0.78654200  0.20087400  1
  O  O47  1  0.27044400  0.23903700  0.29406400  1
  O  O48  1  0.14748400  0.72381000  0.16658100  1
  O  O49  1  0.79810900  0.52027500  0.20935600  1
  O  O50  1  0.67174800  0.09565400  0.31126200  1
  O  O51  1  0.08098900  0.00315200  0.29337400  1
  O  O52  1  0.31927100  0.40637600  0.18765600  1
  O  O53  1  0.24335800  0.97301200  0.03134400  1
  O  O54  1  0.92225000  0.28654200  0.20087400  1
  O  O55  1  0.73440200  0.81530400  0.02829700  1
  O  O56  1  0.45238500  0.60059700  0.09141900  1
  O  O57  1  0.97459800  0.59361800  0.08154900  1
  O  O58  1  0.35251600  0.22381000  0.16658100  1
  O  O59  1  0.70189100  0.02027500  0.20935600  1
  O  O60  1  0.25664200  0.47301200  0.03134400  1
  O  O61  1  0.76559800  0.31530400  0.02829700  1
  O  O62  1  0.04761500  0.10059700  0.09141900  1
  O  O63  1  0.52540200  0.09361800  0.08154900  1
loop_
_geom_bond_atom_site_label_1
_geom_bond_atom_site_label_2
_geom_bond_distance
_geom_bond_site_symmetry_2
Li0 O3 1.954810 1_555
Li0 O2 2.479045 1_655
Li0 O55 2.492675 1_556
Li0 O5 2.496968 1_555
Li0 O57 2.505949 1_556
Li1 O2 2.028850 1_555
Li1 O5 2.042304 1_555
Li1 O0 2.167662 1_555
Li1 O9 2.320394 1_555
Li1 O4 2.422680 1_555
Li1 O1 2.497889 1_455
Li2 O5 2.075761 1_555
Li2 O18 2.077032 1_565
Li2 O4 2.175256 1_555
Li2 O12 2.175906 1_555
Li2 O1 2.302239 1_555
Li2 O0 2.405133 1_555
Li3 O10 1.954810 1_555
Li3 O8 2.479045 1_555
Li3 O61 2.492675 1_556
Li3 O15 2.496968 1_555
Li3 O63 2.505949 1_556
Li4 O8 2.028850 1_555
Li4 O15 2.042304 1_455
Li4 O6 2.167662 1_555
Li4 O17 2.320394 1_555
Li4 O14 2.422680 1_555
Li4 O7 2.497889 1_555
Li5 O15 2.075761 1_555
Li5 O11 2.077032 1_555
Li5 O14 2.175256 1_655
Li5 O19 2.175906 1_555
Li5 O7 2.302239 1_555
Li5 O6 2.405133 1_655
Li6 O13 2.050417 1_555
Li6 O20 2.117119 1_555
Li6 O9 2.121004 1_555
Li6 O22 2.303615 1_455
Li6 O23 2.396049 1_555
Li6 O16 2.550919 1_455
Li7 O26 2.015951 1_555
Li7 O22 2.134478 1_555
Li7 O20 2.154173 1_655
Li7 O16 2.232204 1_555
Li7 O23 2.478797 1_555
Li7 O19 2.550759 1_555
Li8 O21 2.050417 1_555
Li8 O27 2.117119 1_555
Li8 O17 2.121004 1_555
Li8 O29 2.303615 1_555
Li8 O30 2.396049 1_555
Li8 O24 2.550919 1_555
Li9 O31 1.947198 1_555
Li9 O20 2.304946 1_555
Li9 O26 2.371827 1_555
Li9 O28 2.588768 1_555
Li10 O35 2.015951 1_555
Li10 O29 2.134478 1_555
Li10 O27 2.154173 1_555
Li10 O24 2.232204 1_555
Li10 O30 2.478797 1_655
Li10 O12 2.550759 1_545
Li11 O38 1.947198 1_565
Li11 O36 2.304946 1_555
Li11 O28 2.371827 1_655
Li11 O26 2.588768 1_555
Li12 O25 1.947198 1_545
Li12 O27 2.304946 1_555
Li12 O35 2.371827 1_455
Li12 O37 2.588768 1_555
Li13 O28 2.015951 1_555
Li13 O34 2.134478 1_555
Li13 O36 2.154173 1_555
Li13 O39 2.232204 1_555
Li13 O33 2.478797 1_455
Li13 O51 2.550759 1_565
Li14 O32 1.947198 1_555
Li14 O43 2.304946 1_555
Li14 O37 2.371827 1_555
Li14 O35 2.588768 1_555
Li15 O42 2.050417 1_555
Li15 O36 2.117119 1_555
Li15 O46 2.121004 1_555
Li15 O34 2.303615 1_555
Li15 O33 2.396049 1_555
Li15 O39 2.550919 1_555
Li16 O37 2.015951 1_555
Li16 O41 2.134478 1_555
Li16 O43 2.154173 1_455
Li16 O47 2.232204 1_555
Li16 O40 2.478797 1_555
Li16 O44 2.550759 1_555
Li17 O50 2.050417 1_555
Li17 O43 2.117119 1_555
Li17 O54 2.121004 1_555
Li17 O41 2.303615 1_655
Li17 O40 2.396049 1_555
Li17 O47 2.550919 1_655
Li18 O48 2.075761 1_555
Li18 O52 2.077032 1_555
Li18 O49 2.175256 1_455
Li18 O44 2.175906 1_555
Li18 O56 2.302239 1_555
Li18 O57 2.405133 1_455
Li19 O55 2.028850 1_555
Li19 O48 2.042304 1_655
Li19 O57 2.167662 1_555
Li19 O46 2.320394 1_555
Li19 O49 2.422680 1_555
Li19 O56 2.497889 1_555
Li20 O53 1.954810 1_555
Li20 O55 2.479045 1_555
Li20 O2 2.492675 1_554
Li20 O48 2.496968 1_555
Li20 O0 2.505949 1_554
Li21 O58 2.075761 1_555
Li21 O45 2.077032 1_545
Li21 O59 2.175256 1_555
Li21 O51 2.175906 1_555
Li21 O62 2.302239 1_555
Li21 O63 2.405133 1_555
Li22 O61 2.028850 1_555
Li22 O58 2.042304 1_555
Li22 O63 2.167662 1_555
Li22 O54 2.320394 1_555
Li22 O59 2.422680 1_555
Li22 O62 2.497889 1_655
Li23 O60 1.954810 1_555
Li23 O61 2.479045 1_455
Li23 O8 2.492675 1_554
Li23 O58 2.496968 1_555
Li23 O6 2.505949 1_554
O0 P0 1.566671 1_555
O0 Sb1 2.244393 1_565
O1 P0 1.606550 1_555
O1 Sb1 2.102186 1_665
O2 P14 1.533015 1_556
O3 P1 1.530000 1_555
O4 P6 1.594604 1_565
O4 Sb1 2.116879 1_565
O5 P2 1.531365 1_555
O6 P1 1.566671 1_455
O6 Sb0 2.244393 1_555
O7 P1 1.606550 1_555
O7 Sb0 2.102186 1_555
O8 P15 1.533015 1_556
O9 P2 1.550671 1_455
O9 Sb0 2.587272 1_555
O10 P0 1.530000 1_545
O11 P2 1.560776 1_555
O11 Sb0 2.264627 1_555
O12 P6 1.544123 1_665
O12 Sb2 2.518636 1_555
O13 P6 1.559527 1_565
O13 Sb2 2.243165 1_555
O14 P4 1.594604 1_555
O14 Sb0 2.116879 1_555
O15 P3 1.531365 1_555
O16 P2 1.594067 1_555
O16 Sb2 2.118974 1_555
O17 P3 1.550671 1_555
O17 Sb1 2.587272 1_555
O18 P3 1.560776 1_555
O18 Sb1 2.264627 1_655
O19 P4 1.544123 1_555
O19 Sb3 2.518636 1_555
O20 P4 1.541850 1_555
O21 P4 1.559527 1_555
O21 Sb3 2.243165 1_455
O22 P5 1.573521 1_655
O22 Sb2 2.238924 1_555
O23 P5 1.594261 1_555
O23 Sb2 2.096951 1_555
O24 P3 1.594067 1_555
O24 Sb3 2.118974 1_555
O25 P5 1.528714 1_555
O26 P8 1.532741 1_555
O27 P6 1.541850 1_555
O28 P5 1.532741 1_555
O29 P7 1.573521 1_555
O29 Sb3 2.238924 1_555
O30 P7 1.594261 1_555
O30 Sb3 2.096951 1_455
O31 P7 1.528714 1_555
O32 P8 1.528714 1_555
O33 P8 1.594261 1_555
O33 Sb4 2.096951 1_655
O34 P8 1.573521 1_555
O34 Sb4 2.238924 1_555
O35 P10 1.532741 1_555
O36 P9 1.541850 1_555
O37 P7 1.532741 1_555
O38 P10 1.528714 1_555
O39 P12 1.594067 1_555
O39 Sb4 2.118974 1_555
O40 P10 1.594261 1_555
O40 Sb5 2.096951 1_555
O41 P10 1.573521 1_455
O41 Sb5 2.238924 1_555
O42 P11 1.559527 1_555
O42 Sb4 2.243165 1_655
O43 P11 1.541850 1_555
O44 P11 1.544123 1_555
O44 Sb4 2.518636 1_555
O45 P12 1.560776 1_555
O45 Sb6 2.264627 1_455
O46 P12 1.550671 1_555
O46 Sb6 2.587272 1_555
O47 P13 1.594067 1_555
O47 Sb5 2.118974 1_555
O48 P12 1.531365 1_555
O49 P11 1.594604 1_555
O49 Sb7 2.116879 1_555
O50 P9 1.559527 1_545
O50 Sb5 2.243165 1_555
O51 P9 1.544123 1_445
O51 Sb5 2.518636 1_555
O52 P13 1.560776 1_555
O52 Sb7 2.264627 1_555
O53 P15 1.530000 1_565
O54 P13 1.550671 1_655
O54 Sb7 2.587272 1_555
O55 P0 1.533015 1_554
O56 P14 1.606550 1_555
O56 Sb7 2.102186 1_555
O57 P14 1.566671 1_655
O57 Sb7 2.244393 1_555
O58 P13 1.531365 1_555
O59 P9 1.594604 1_545
O59 Sb6 2.116879 1_545
O60 P14 1.530000 1_555
O61 P1 1.533015 1_554
O62 P15 1.606550 1_555
O62 Sb6 2.102186 1_445
O63 P15 1.566671 1_555
O63 Sb6 2.244393 1_545
