# generated using pymatgen
data_Na5CoO4
_symmetry_space_group_name_H-M   'P 1'
_cell_length_a   10.36135400
_cell_length_b   10.49163100
_cell_length_c   10.65766900
_cell_angle_alpha   90.00000000
_cell_angle_beta   90.00000000
_cell_angle_gamma   90.00000000
_symmetry_Int_Tables_number   1
_chemical_formula_structural   Na5CoO4
_chemical_formula_sum   'Na40 Co8 O32'
_cell_volume   1158.56858296
_cell_formula_units_Z   8
loop_
 _symmetry_equiv_pos_site_id
 _symmetry_equiv_pos_as_xyz
  1  'x, y, z'
loop_
 _atom_site_type_symbol
 _atom_site_label
 _atom_site_symmetry_multiplicity
 _atom_site_fract_x
 _atom_site_fract_y
 _atom_site_fract_z
 _atom_site_occupancy
  Na  Na0  1  0.14826400  0.61395500  0.10505400  1
  Na  Na1  1  0.64826400  0.88604500  0.10505400  1
  Na  Na2  1  0.83754300  0.10629300  0.11272100  1
  Na  Na3  1  0.33754300  0.39370700  0.11272100  1
  Na  Na4  1  0.36469900  0.84498200  0.11722900  1
  Na  Na5  1  0.86469900  0.65501800  0.11722900  1
  Na  Na6  1  0.08974900  0.87955700  0.14742100  1
  Na  Na7  1  0.58974900  0.62044300  0.14742100  1
  Na  Na8  1  0.39956100  0.12130900  0.16144300  1
  Na  Na9  1  0.89956100  0.37869100  0.16144300  1
  Na  Na10  1  0.89956100  0.87869100  0.33855700  1
  Na  Na11  1  0.39956100  0.62130900  0.33855700  1
  Na  Na12  1  0.58974900  0.12044300  0.35257900  1
  Na  Na13  1  0.08974900  0.37955700  0.35257900  1
  Na  Na14  1  0.36469900  0.34498200  0.38277100  1
  Na  Na15  1  0.86469900  0.15501800  0.38277100  1
  Na  Na16  1  0.83754300  0.60629300  0.38727900  1
  Na  Na17  1  0.33754300  0.89370700  0.38727900  1
  Na  Na18  1  0.64826400  0.38604500  0.39494600  1
  Na  Na19  1  0.14826400  0.11395500  0.39494600  1
  Na  Na20  1  0.35173600  0.61395500  0.60505400  1
  Na  Na21  1  0.85173600  0.88604500  0.60505400  1
  Na  Na22  1  0.66245700  0.10629300  0.61272100  1
  Na  Na23  1  0.16245700  0.39370700  0.61272100  1
  Na  Na24  1  0.63530100  0.65501800  0.61722900  1
  Na  Na25  1  0.13530100  0.84498200  0.61722900  1
  Na  Na26  1  0.91025100  0.62044300  0.64742100  1
  Na  Na27  1  0.41025100  0.87955700  0.64742100  1
  Na  Na28  1  0.10043900  0.12130900  0.66144300  1
  Na  Na29  1  0.60043900  0.37869100  0.66144300  1
  Na  Na30  1  0.10043900  0.62130900  0.83855700  1
  Na  Na31  1  0.60043900  0.87869100  0.83855700  1
  Na  Na32  1  0.41025100  0.37955700  0.85257900  1
  Na  Na33  1  0.91025100  0.12044300  0.85257900  1
  Na  Na34  1  0.63530100  0.15501800  0.88277100  1
  Na  Na35  1  0.13530100  0.34498200  0.88277100  1
  Na  Na36  1  0.66245700  0.60629300  0.88727900  1
  Na  Na37  1  0.16245700  0.89370700  0.88727900  1
  Na  Na38  1  0.35173600  0.11395500  0.89494600  1
  Na  Na39  1  0.85173600  0.38604500  0.89494600  1
  Co  Co0  1  0.11652500  0.14774300  0.12584000  1
  Co  Co1  1  0.61652500  0.35225700  0.12584000  1
  Co  Co2  1  0.11652500  0.64774300  0.37416000  1
  Co  Co3  1  0.61652500  0.85225700  0.37416000  1
  Co  Co4  1  0.38347500  0.14774300  0.62584000  1
  Co  Co5  1  0.88347500  0.35225700  0.62584000  1
  Co  Co6  1  0.38347500  0.64774300  0.87416000  1
  Co  Co7  1  0.88347500  0.85225700  0.87416000  1
  O  O0  1  0.50336600  0.26319600  0.02104900  1
  O  O1  1  0.00336600  0.23680400  0.02104900  1
  O  O2  1  0.23074600  0.02408800  0.05111200  1
  O  O3  1  0.73074600  0.47591200  0.05111200  1
  O  O4  1  0.00505800  0.05254500  0.24239300  1
  O  O5  1  0.50505800  0.44745500  0.24239300  1
  O  O6  1  0.22500300  0.24451700  0.23507800  1
  O  O7  1  0.72500300  0.25548300  0.23507800  1
  O  O8  1  0.22500300  0.74451700  0.26492200  1
  O  O9  1  0.72500300  0.75548300  0.26492200  1
  O  O10  1  0.00505800  0.55254500  0.25760700  1
  O  O11  1  0.50505800  0.94745500  0.25760700  1
  O  O12  1  0.23074600  0.52408800  0.44888800  1
  O  O13  1  0.73074600  0.97591200  0.44888800  1
  O  O14  1  0.50336600  0.76319600  0.47895100  1
  O  O15  1  0.00336600  0.73680400  0.47895100  1
  O  O16  1  0.99663400  0.26319600  0.52104900  1
  O  O17  1  0.49663400  0.23680400  0.52104900  1
  O  O18  1  0.26925400  0.02408800  0.55111200  1
  O  O19  1  0.76925400  0.47591200  0.55111200  1
  O  O20  1  0.49494200  0.05254500  0.74239300  1
  O  O21  1  0.99494200  0.44745500  0.74239300  1
  O  O22  1  0.27499700  0.24451700  0.73507800  1
  O  O23  1  0.77499700  0.25548300  0.73507800  1
  O  O24  1  0.27499700  0.74451700  0.76492200  1
  O  O25  1  0.77499700  0.75548300  0.76492200  1
  O  O26  1  0.99494200  0.94745500  0.75760700  1
  O  O27  1  0.49494200  0.55254500  0.75760700  1
  O  O28  1  0.76925400  0.97591200  0.94888800  1
  O  O29  1  0.26925400  0.52408800  0.94888800  1
  O  O30  1  0.99663400  0.76319600  0.97895100  1
  O  O31  1  0.49663400  0.73680400  0.97895100  1
loop_
_geom_bond_atom_site_label_1
_geom_bond_atom_site_label_2
_geom_bond_distance
_geom_bond_site_symmetry_2
Na0 O29 2.287060 1_554
Na0 O10 2.293516 1_555
Na0 O8 2.326283 1_555
Na0 O30 2.593500 1_454
Na1 O28 2.287060 1_554
Na1 O11 2.293516 1_555
Na1 O9 2.326283 1_555
Na1 O31 2.593500 1_554
Na2 O4 2.289216 1_655
Na2 O28 2.328221 1_544
Na2 O7 2.347388 1_555
Na2 O1 2.404475 1_655
Na3 O5 2.289216 1_555
Na3 O29 2.328221 1_554
Na3 O6 2.347388 1_555
Na3 O0 2.404475 1_555
Na4 O31 2.308410 1_554
Na4 O11 2.347168 1_555
Na4 O8 2.384064 1_555
Na4 O2 2.440075 1_565
Na5 O30 2.308410 1_554
Na5 O10 2.347168 1_655
Na5 O9 2.384064 1_555
Na5 O3 2.440075 1_555
Na6 O4 2.255769 1_565
Na6 O2 2.342479 1_565
Na6 O8 2.353610 1_555
Na6 O30 2.375929 1_454
Na7 O5 2.255769 1_555
Na7 O3 2.342479 1_555
Na7 O9 2.353610 1_555
Na7 O31 2.375929 1_554
Na8 O2 2.341499 1_555
Na8 O6 2.357556 1_555
Na8 O11 2.360563 1_545
Na8 O0 2.368896 1_555
Na9 O3 2.341499 1_555
Na9 O7 2.357556 1_555
Na9 O10 2.360563 1_655
Na9 O1 2.368896 1_655
Na10 O13 2.341499 1_555
Na10 O9 2.357556 1_555
Na10 O4 2.360563 1_665
Na10 O15 2.368896 1_655
Na11 O12 2.341499 1_555
Na11 O8 2.357556 1_555
Na11 O5 2.360563 1_555
Na11 O14 2.368896 1_555
Na12 O11 2.255769 1_545
Na12 O13 2.342479 1_545
Na12 O7 2.353610 1_555
Na12 O17 2.375929 1_555
Na13 O10 2.255769 1_555
Na13 O12 2.342479 1_555
Na13 O6 2.353610 1_555
Na13 O16 2.375929 1_455
Na14 O17 2.308410 1_555
Na14 O5 2.347168 1_555
Na14 O6 2.384064 1_555
Na14 O12 2.440075 1_555
Na15 O16 2.308410 1_555
Na15 O4 2.347168 1_655
Na15 O7 2.384064 1_555
Na15 O13 2.440075 1_545
Na16 O10 2.289216 1_655
Na16 O19 2.328221 1_555
Na16 O9 2.347388 1_555
Na16 O15 2.404475 1_655
Na17 O11 2.289216 1_555
Na17 O18 2.328221 1_565
Na17 O8 2.347388 1_555
Na17 O14 2.404475 1_555
Na18 O19 2.287060 1_555
Na18 O5 2.293516 1_555
Na18 O7 2.326283 1_555
Na18 O17 2.593500 1_555
Na19 O18 2.287060 1_555
Na19 O4 2.293516 1_555
Na19 O6 2.326283 1_555
Na19 O16 2.593500 1_455
Na20 O12 2.287060 1_555
Na20 O27 2.293516 1_555
Na20 O24 2.326283 1_555
Na20 O14 2.593500 1_555
Na21 O13 2.287060 1_555
Na21 O26 2.293516 1_555
Na21 O25 2.326283 1_555
Na21 O15 2.593500 1_655
Na22 O20 2.289216 1_555
Na22 O13 2.328221 1_545
Na22 O23 2.347388 1_555
Na22 O17 2.404475 1_555
Na23 O21 2.289216 1_455
Na23 O12 2.328221 1_555
Na23 O22 2.347388 1_555
Na23 O16 2.404475 1_455
Na24 O14 2.308410 1_555
Na24 O27 2.347168 1_555
Na24 O25 2.384064 1_555
Na24 O19 2.440075 1_555
Na25 O15 2.308410 1_555
Na25 O26 2.347168 1_455
Na25 O24 2.384064 1_555
Na25 O18 2.440075 1_565
Na26 O21 2.255769 1_555
Na26 O19 2.342479 1_555
Na26 O25 2.353610 1_555
Na26 O15 2.375929 1_655
Na27 O20 2.255769 1_565
Na27 O18 2.342479 1_565
Na27 O24 2.353610 1_555
Na27 O14 2.375929 1_555
Na28 O18 2.341499 1_555
Na28 O22 2.357556 1_555
Na28 O26 2.360563 1_445
Na28 O16 2.368896 1_455
Na29 O19 2.341499 1_555
Na29 O23 2.357556 1_555
Na29 O27 2.360563 1_555
Na29 O17 2.368896 1_555
Na30 O29 2.341499 1_555
Na30 O24 2.357556 1_555
Na30 O21 2.360563 1_455
Na30 O30 2.368896 1_455
Na31 O28 2.341499 1_555
Na31 O25 2.357556 1_555
Na31 O20 2.360563 1_565
Na31 O31 2.368896 1_555
Na32 O27 2.255769 1_555
Na32 O29 2.342479 1_555
Na32 O22 2.353610 1_555
Na32 O0 2.375929 1_556
Na33 O26 2.255769 1_545
Na33 O28 2.342479 1_545
Na33 O23 2.353610 1_555
Na33 O1 2.375929 1_656
Na34 O0 2.308410 1_556
Na34 O20 2.347168 1_555
Na34 O23 2.384064 1_555
Na34 O28 2.440075 1_545
Na35 O1 2.308410 1_556
Na35 O21 2.347168 1_455
Na35 O22 2.384064 1_555
Na35 O29 2.440075 1_555
Na36 O27 2.289216 1_555
Na36 O3 2.328221 1_556
Na36 O25 2.347388 1_555
Na36 O31 2.404475 1_555
Na37 O26 2.289216 1_455
Na37 O2 2.328221 1_566
Na37 O24 2.347388 1_555
Na37 O30 2.404475 1_455
Na38 O2 2.287060 1_556
Na38 O20 2.293516 1_555
Na38 O22 2.326283 1_555
Na38 O0 2.593500 1_556
Na39 O3 2.287060 1_556
Na39 O21 2.293516 1_555
Na39 O23 2.326283 1_555
Na39 O1 2.593500 1_656
Co0 O1 1.869521 1_555
Co0 O6 1.910396 1_555
Co0 O2 1.928219 1_555
Co0 O4 1.968373 1_555
Co1 O0 1.869521 1_555
Co1 O7 1.910396 1_555
Co1 O3 1.928219 1_555
Co1 O5 1.968373 1_555
Co2 O15 1.869521 1_555
Co2 O8 1.910396 1_555
Co2 O12 1.928219 1_555
Co2 O10 1.968373 1_555
Co3 O14 1.869521 1_555
Co3 O9 1.910396 1_555
Co3 O13 1.928219 1_555
Co3 O11 1.968373 1_555
Co4 O17 1.869521 1_555
Co4 O22 1.910396 1_555
Co4 O18 1.928219 1_555
Co4 O20 1.968373 1_555
Co5 O16 1.869521 1_555
Co5 O23 1.910396 1_555
Co5 O19 1.928219 1_555
Co5 O21 1.968373 1_555
Co6 O31 1.869521 1_555
Co6 O24 1.910396 1_555
Co6 O29 1.928219 1_555
Co6 O27 1.968373 1_555
Co7 O30 1.869521 1_555
Co7 O25 1.910396 1_555
Co7 O28 1.928219 1_555
Co7 O26 1.968373 1_555
