# generated using pymatgen
data_Li4Ti3Mn4Cr2O18
_symmetry_space_group_name_H-M   'P 1'
_cell_length_a   2.93587100
_cell_length_b   9.10050000
_cell_length_c   25.28868500
_cell_angle_alpha   90.00000000
_cell_angle_beta   90.00000000
_cell_angle_gamma   90.00000000
_symmetry_Int_Tables_number   1
_chemical_formula_structural   Li4Ti3Mn4Cr2O18
_chemical_formula_sum   'Li8 Ti6 Mn8 Cr4 O36'
_cell_volume   675.66040613
_cell_formula_units_Z   2
loop_
 _symmetry_equiv_pos_site_id
 _symmetry_equiv_pos_as_xyz
  1  'x, y, z'
loop_
 _atom_site_type_symbol
 _atom_site_label
 _atom_site_symmetry_multiplicity
 _atom_site_fract_x
 _atom_site_fract_y
 _atom_site_fract_z
 _atom_site_occupancy
  Li  Li0  1  0.00000000  0.93309700  0.99522200  1
  Li  Li1  1  0.00000000  0.94951100  0.20866400  1
  Li  Li2  1  0.00000000  0.05048900  0.70866400  1
  Li  Li3  1  0.00000000  0.06690300  0.49522200  1
  Li  Li4  1  0.00000000  0.43244200  0.49715600  1
  Li  Li5  1  0.00000000  0.44394600  0.30430300  1
  Li  Li6  1  0.00000000  0.55605400  0.80430300  1
  Li  Li7  1  0.00000000  0.56755800  0.99715600  1
  Ti  Ti0  1  0.00000000  0.75464900  0.10486500  1
  Ti  Ti1  1  0.00000000  0.24535100  0.60486500  1
  Ti  Ti2  1  0.00000000  0.24715700  0.39351700  1
  Ti  Ti3  1  0.50000000  0.39670600  0.69532100  1
  Ti  Ti4  1  0.50000000  0.60329400  0.19532100  1
  Ti  Ti5  1  0.00000000  0.75284300  0.89351700  1
  Mn  Mn0  1  0.00000000  0.77389400  0.31312300  1
  Mn  Mn1  1  0.50000000  0.89149900  0.58664100  1
  Mn  Mn2  1  0.50000000  0.10850100  0.08664100  1
  Mn  Mn3  1  0.00000000  0.22610600  0.81312300  1
  Mn  Mn4  1  0.00000000  0.26221900  0.18930500  1
  Mn  Mn5  1  0.50000000  0.39040200  0.91291600  1
  Mn  Mn6  1  0.50000000  0.60959800  0.41291600  1
  Mn  Mn7  1  0.00000000  0.73778100  0.68930500  1
  Cr  Cr0  1  0.00000000  0.75006800  0.49969100  1
  Cr  Cr1  1  0.50000000  0.89701100  0.80549500  1
  Cr  Cr2  1  0.50000000  0.10298900  0.30549500  1
  Cr  Cr3  1  0.00000000  0.24993200  0.99969100  1
  O  O0  1  0.00000000  0.74870300  0.42071800  1
  O  O1  1  0.00000000  0.75317300  0.57888200  1
  O  O2  1  0.50000000  0.78638300  0.94190500  1
  O  O3  1  0.50000000  0.80188700  0.16146300  1
  O  O4  1  0.50000000  0.86135700  0.66173200  1
  O  O5  1  0.00000000  0.86388500  0.75570100  1
  O  O6  1  0.50000000  0.90128800  0.50853300  1
  O  O7  1  0.50000000  0.89021000  0.28435100  1
  O  O8  1  0.00000000  0.93273600  0.85915600  1
  O  O9  1  0.00000000  0.96898500  0.08719800  1
  O  O10  1  0.00000000  0.03101500  0.58719800  1
  O  O11  1  0.00000000  0.06726400  0.35915600  1
  O  O12  1  0.50000000  0.10979000  0.78435100  1
  O  O13  1  0.50000000  0.09871200  0.00853300  1
  O  O14  1  0.00000000  0.13611500  0.25570100  1
  O  O15  1  0.50000000  0.13864300  0.16173200  1
  O  O16  1  0.50000000  0.19811300  0.66146300  1
  O  O17  1  0.50000000  0.21361700  0.44190500  1
  O  O18  1  0.00000000  0.24682700  0.07888200  1
  O  O19  1  0.00000000  0.25129700  0.92071800  1
  O  O20  1  0.50000000  0.28547900  0.55895200  1
  O  O21  1  0.50000000  0.30719000  0.33954400  1
  O  O22  1  0.50000000  0.35601200  0.83810500  1
  O  O23  1  0.00000000  0.36446500  0.74288600  1
  O  O24  1  0.50000000  0.40134900  0.99052300  1
  O  O25  1  0.50000000  0.39196600  0.21022900  1
  O  O26  1  0.00000000  0.42875300  0.64218600  1
  O  O27  1  0.00000000  0.47158500  0.41170100  1
  O  O28  1  0.00000000  0.52841500  0.91170100  1
  O  O29  1  0.00000000  0.57124700  0.14218600  1
  O  O30  1  0.50000000  0.60803400  0.71022900  1
  O  O31  1  0.50000000  0.59865100  0.49052300  1
  O  O32  1  0.00000000  0.63553500  0.24288600  1
  O  O33  1  0.50000000  0.64398800  0.33810500  1
  O  O34  1  0.50000000  0.69281000  0.83954400  1
  O  O35  1  0.50000000  0.71452100  0.05895200  1
loop_
_geom_bond_atom_site_label_1
_geom_bond_atom_site_label_2
_geom_bond_distance
_geom_bond_site_symmetry_2
Li0 O13 2.130666 1_466
Li0 O13 2.130666 1_566
Li0 O9 2.348770 1_556
Li0 O2 2.399057 1_555
Li0 O2 2.399057 1_455
Li1 O14 2.073347 1_565
Li1 O3 2.320453 1_455
Li1 O3 2.320453 1_555
Li1 O7 2.471754 1_555
Li1 O7 2.471754 1_455
Li1 O15 2.554596 1_565
Li1 O15 2.554596 1_465
Li2 O5 2.073347 1_545
Li2 O16 2.320453 1_555
Li2 O16 2.320453 1_455
Li2 O12 2.471754 1_455
Li2 O12 2.471754 1_555
Li2 O4 2.554596 1_545
Li2 O4 2.554596 1_445
Li3 O6 2.130666 1_545
Li3 O6 2.130666 1_445
Li3 O10 2.348770 1_555
Li3 O17 2.399057 1_555
Li3 O17 2.399057 1_455
Li4 O31 2.114447 1_455
Li4 O31 2.114447 1_555
Li4 O27 2.190207 1_555
Li4 O20 2.527000 1_455
Li4 O20 2.527000 1_555
Li5 O21 2.120842 1_455
Li5 O21 2.120842 1_555
Li5 O32 2.335011 1_555
Li5 O33 2.489917 1_455
Li5 O33 2.489917 1_555
Li6 O34 2.120842 1_455
Li6 O34 2.120842 1_555
Li6 O23 2.335011 1_555
Li6 O22 2.489917 1_455
Li6 O22 2.489917 1_555
Li7 O24 2.114447 1_555
Li7 O24 2.114447 1_455
Li7 O28 2.190207 1_555
Li7 O35 2.527000 1_456
Li7 O35 2.527000 1_556
Mn0 O7 1.950574 1_455
Mn0 O7 1.950574 1_555
Mn0 O33 1.987857 1_455
Mn0 O33 1.987857 1_555
Mn0 O32 2.177226 1_555
Mn1 O4 1.918662 1_555
Mn1 O10 1.940898 1_565
Mn1 O10 1.940898 1_665
Mn1 O1 1.943708 1_555
Mn1 O1 1.943708 1_655
Mn1 O6 1.977256 1_555
Mn2 O15 1.918662 1_555
Mn2 O9 1.940898 1_645
Mn2 O9 1.940898 1_545
Mn2 O18 1.943708 1_655
Mn2 O18 1.943708 1_555
Mn2 O13 1.977256 1_555
Mn3 O12 1.950574 1_555
Mn3 O12 1.950574 1_455
Mn3 O22 1.987857 1_455
Mn3 O22 1.987857 1_555
Mn3 O23 2.177226 1_555
Mn4 O25 1.956789 1_455
Mn4 O25 1.956789 1_555
Mn4 O15 1.976303 1_455
Mn4 O15 1.976303 1_555
Mn4 O14 2.033783 1_555
Mn5 O22 1.917584 1_555
Mn5 O28 1.932170 1_555
Mn5 O28 1.932170 1_655
Mn5 O19 1.948417 1_555
Mn5 O19 1.948417 1_655
Mn5 O24 1.965106 1_555
Mn6 O33 1.917584 1_555
Mn6 O27 1.932170 1_555
Mn6 O27 1.932170 1_655
Mn6 O0 1.948417 1_655
Mn6 O0 1.948417 1_555
Mn6 O31 1.965106 1_555
Mn7 O30 1.956789 1_455
Mn7 O30 1.956789 1_555
Mn7 O4 1.976303 1_555
Mn7 O4 1.976303 1_455
Mn7 O5 2.033783 1_555
Cr0 O0 1.997162 1_555
Cr0 O1 2.002836 1_555
Cr0 O6 2.024524 1_455
Cr0 O6 2.024524 1_555
Cr0 O31 2.026670 1_555
Cr0 O31 2.026670 1_455
Cr1 O5 1.957386 1_655
Cr1 O5 1.957386 1_555
Cr1 O12 2.008864 1_565
Cr1 O8 2.025346 1_655
Cr1 O8 2.025346 1_555
Cr1 O34 2.048123 1_555
Cr2 O14 1.957386 1_655
Cr2 O14 1.957386 1_555
Cr2 O7 2.008864 1_545
Cr2 O11 2.025346 1_655
Cr2 O11 2.025346 1_555
Cr2 O21 2.048123 1_555
Cr3 O19 1.997162 1_555
Cr3 O18 2.002836 1_556
Cr3 O13 2.024524 1_456
Cr3 O13 2.024524 1_556
Cr3 O24 2.026670 1_455
Cr3 O24 2.026670 1_555
O2 Ti5 1.935295 1_655
O2 Ti5 1.935295 1_555
O3 Ti4 1.999859 1_555
O3 Ti0 2.094810 1_555
O3 Ti0 2.094810 1_655
O8 Ti5 1.853433 1_555
O9 Ti0 2.001077 1_555
O10 Ti1 2.001077 1_555
O11 Ti2 1.853433 1_555
O16 Ti3 1.999859 1_555
O16 Ti1 2.094810 1_655
O16 Ti1 2.094810 1_555
O17 Ti2 1.935295 1_555
O17 Ti2 1.935295 1_655
O20 Ti1 1.906908 1_555
O20 Ti1 1.906908 1_655
O21 Ti2 2.077566 1_555
O21 Ti2 2.077566 1_655
O23 Ti3 1.920361 1_555
O23 Ti3 1.920361 1_455
O25 Ti4 1.959794 1_555
O26 Ti1 1.917416 1_555
O26 Ti3 2.011333 1_555
O26 Ti3 2.011333 1_455
O27 Ti2 2.093535 1_555
O28 Ti5 2.093535 1_555
O29 Ti0 1.917416 1_555
O29 Ti4 2.011333 1_455
O29 Ti4 2.011333 1_555
O30 Ti3 1.959794 1_555
O32 Ti4 1.920361 1_555
O32 Ti4 1.920361 1_455
O34 Ti5 2.077566 1_655
O34 Ti5 2.077566 1_555
O35 Ti0 1.906908 1_655
O35 Ti0 1.906908 1_555
