# generated using pymatgen
data_LiSnPO4
_symmetry_space_group_name_H-M   'P 1'
_cell_length_a   7.39082000
_cell_length_b   7.72109800
_cell_length_c   13.56622700
_cell_angle_alpha   90.00000000
_cell_angle_beta   90.00000000
_cell_angle_gamma   90.00000000
_symmetry_Int_Tables_number   1
_chemical_formula_structural   LiSnPO4
_chemical_formula_sum   'Li8 Sn8 P8 O32'
_cell_volume   774.16007454
_cell_formula_units_Z   8
loop_
 _symmetry_equiv_pos_site_id
 _symmetry_equiv_pos_as_xyz
  1  'x, y, z'
loop_
 _atom_site_type_symbol
 _atom_site_label
 _atom_site_symmetry_multiplicity
 _atom_site_fract_x
 _atom_site_fract_y
 _atom_site_fract_z
 _atom_site_occupancy
  Li  Li0  1  0.16482600  0.16245600  0.23064700  1
  Li  Li1  1  0.66482600  0.16245600  0.26935300  1
  Li  Li2  1  0.16482600  0.33754400  0.73064700  1
  Li  Li3  1  0.66482600  0.33754400  0.76935300  1
  Li  Li4  1  0.33517400  0.66245600  0.23064700  1
  Li  Li5  1  0.83517400  0.66245600  0.26935300  1
  Li  Li6  1  0.33517400  0.83754400  0.73064700  1
  Li  Li7  1  0.83517400  0.83754400  0.76935300  1
  Sn  Sn0  1  0.43547800  0.19056800  0.54975600  1
  Sn  Sn1  1  0.93547800  0.19056800  0.95024400  1
  Sn  Sn2  1  0.43547800  0.30943200  0.04975600  1
  Sn  Sn3  1  0.93547800  0.30943200  0.45024400  1
  Sn  Sn4  1  0.06452200  0.69056800  0.54975600  1
  Sn  Sn5  1  0.56452200  0.69056800  0.95024400  1
  Sn  Sn6  1  0.06452200  0.80943200  0.04975600  1
  Sn  Sn7  1  0.56452200  0.80943200  0.45024400  1
  P  P0  1  0.90382200  0.09922400  0.63737300  1
  P  P1  1  0.40382200  0.09922400  0.86262700  1
  P  P2  1  0.90382200  0.40077600  0.13737300  1
  P  P3  1  0.40382200  0.40077600  0.36262700  1
  P  P4  1  0.59617800  0.59922400  0.63737300  1
  P  P5  1  0.09617800  0.59922400  0.86262700  1
  P  P6  1  0.59617800  0.90077600  0.13737300  1
  P  P7  1  0.09617800  0.90077600  0.36262700  1
  O  O0  1  0.73263500  0.88429300  0.04860800  1
  O  O1  1  0.23263500  0.88429300  0.45139200  1
  O  O2  1  0.31517700  0.13305300  0.76260600  1
  O  O3  1  0.81517700  0.13305300  0.73739400  1
  O  O4  1  0.52018200  0.09046700  0.14278300  1
  O  O5  1  0.02018200  0.09046700  0.35721700  1
  O  O6  1  0.05456600  0.23370800  0.60970600  1
  O  O7  1  0.55456600  0.23370800  0.89029400  1
  O  O8  1  0.05456600  0.26629200  0.10970600  1
  O  O9  1  0.55456600  0.26629200  0.39029400  1
  O  O10  1  0.52018200  0.40953300  0.64278300  1
  O  O11  1  0.02018200  0.40953300  0.85721700  1
  O  O12  1  0.81517700  0.36694700  0.23739400  1
  O  O13  1  0.31517700  0.36694700  0.26260600  1
  O  O14  1  0.73263500  0.61570700  0.54860800  1
  O  O15  1  0.23263500  0.61570700  0.95139200  1
  O  O16  1  0.26736500  0.38429300  0.45139200  1
  O  O17  1  0.76736500  0.38429300  0.04860800  1
  O  O18  1  0.68482300  0.63305300  0.73739400  1
  O  O19  1  0.18482300  0.63305300  0.76260600  1
  O  O20  1  0.97981800  0.59046700  0.14278300  1
  O  O21  1  0.47981800  0.59046700  0.35721700  1
  O  O22  1  0.44543400  0.73370800  0.60970600  1
  O  O23  1  0.94543400  0.73370800  0.89029400  1
  O  O24  1  0.44543400  0.76629200  0.10970600  1
  O  O25  1  0.94543400  0.76629200  0.39029400  1
  O  O26  1  0.97981800  0.90953300  0.64278300  1
  O  O27  1  0.47981800  0.90953300  0.85721700  1
  O  O28  1  0.68482300  0.86694700  0.23739400  1
  O  O29  1  0.18482300  0.86694700  0.26260600  1
  O  O30  1  0.76736500  0.11570700  0.54860800  1
  O  O31  1  0.26736500  0.11570700  0.95139200  1
loop_
_geom_bond_atom_site_label_1
_geom_bond_atom_site_label_2
_geom_bond_distance
_geom_bond_site_symmetry_2
Li0 O13 1.978810 1_555
Li0 O8 1.999697 1_555
Li0 O5 2.097653 1_555
Li0 O29 2.327180 1_545
Li1 O12 1.978810 1_555
Li1 O9 1.999697 1_555
Li1 O4 2.097653 1_555
Li1 O28 2.327180 1_545
Li2 O2 1.978810 1_555
Li2 O6 1.999697 1_555
Li2 O11 2.097653 1_555
Li2 O19 2.327180 1_555
Li3 O3 1.978810 1_555
Li3 O7 1.999697 1_555
Li3 O10 2.097653 1_555
Li3 O18 2.327180 1_555
Li4 O29 1.978810 1_555
Li4 O24 1.999697 1_555
Li4 O21 2.097653 1_555
Li4 O13 2.327180 1_555
Li5 O28 1.978810 1_555
Li5 O25 1.999697 1_555
Li5 O20 2.097653 1_555
Li5 O12 2.327180 1_555
Li6 O19 1.978810 1_555
Li6 O22 1.999697 1_555
Li6 O27 2.097653 1_555
Li6 O2 2.327180 1_565
Li7 O18 1.978810 1_555
Li7 O23 1.999697 1_555
Li7 O26 2.097653 1_555
Li7 O3 2.327180 1_565
O0 P6 1.575893 1_555
O0 Sn5 2.358350 1_554
O0 Sn6 2.520147 1_655
O1 P7 1.575893 1_555
O1 Sn4 2.358350 1_555
O1 Sn7 2.520147 1_555
O2 P1 1.529266 1_555
O3 P0 1.529266 1_555
O4 P6 1.570345 1_545
O4 Sn2 2.200664 1_555
O5 P7 1.570345 1_545
O5 Sn3 2.200664 1_455
O6 P0 1.568549 1_455
O6 Sn3 2.407567 1_455
O7 P1 1.568549 1_555
O7 Sn2 2.407567 1_556
O8 P2 1.568549 1_455
O8 Sn1 2.407567 1_454
O9 P3 1.568549 1_555
O9 Sn0 2.407567 1_555
O10 P4 1.570345 1_555
O10 Sn0 2.200664 1_555
O11 P5 1.570345 1_555
O11 Sn1 2.200664 1_455
O12 P2 1.529266 1_555
O13 P3 1.529266 1_555
O14 P4 1.575893 1_555
O14 Sn7 2.358350 1_555
O14 Sn4 2.520147 1_655
O15 P5 1.575893 1_555
O15 Sn6 2.358350 1_556
O15 Sn5 2.520147 1_555
O16 P3 1.575893 1_555
O16 Sn0 2.358350 1_555
O16 Sn3 2.520147 1_455
O17 P2 1.575893 1_555
O17 Sn1 2.358350 1_554
O17 Sn2 2.520147 1_555
O18 P4 1.529266 1_555
O19 P5 1.529266 1_555
O20 P2 1.570345 1_555
O20 Sn6 2.200664 1_655
O21 P3 1.570345 1_555
O21 Sn7 2.200664 1_555
O22 P4 1.568549 1_555
O22 Sn7 2.407567 1_555
O23 P5 1.568549 1_655
O23 Sn6 2.407567 1_656
O24 P6 1.568549 1_555
O24 Sn5 2.407567 1_554
O25 P7 1.568549 1_655
O25 Sn4 2.407567 1_655
O26 P0 1.570345 1_565
O26 Sn4 2.200664 1_655
O27 P1 1.570345 1_565
O27 Sn5 2.200664 1_555
O28 P6 1.529266 1_555
O29 P7 1.529266 1_555
O30 P0 1.575893 1_555
O30 Sn3 2.358350 1_555
O30 Sn0 2.520147 1_555
O31 P1 1.575893 1_555
O31 Sn2 2.358350 1_556
O31 Sn1 2.520147 1_455
