# generated using pymatgen
data_Li2Ni3TeO8
_symmetry_space_group_name_H-M   'P 1'
_cell_length_a   5.87815873
_cell_length_b   5.87815873
_cell_length_c   9.59835100
_cell_angle_alpha   90.00000000
_cell_angle_beta   90.00000000
_cell_angle_gamma   120.00000823
_symmetry_Int_Tables_number   1
_chemical_formula_structural   Li2Ni3TeO8
_chemical_formula_sum   'Li4 Ni6 Te2 O16'
_cell_volume   287.21680182
_cell_formula_units_Z   2
loop_
 _symmetry_equiv_pos_site_id
 _symmetry_equiv_pos_as_xyz
  1  'x, y, z'
loop_
 _atom_site_type_symbol
 _atom_site_label
 _atom_site_symmetry_multiplicity
 _atom_site_fract_x
 _atom_site_fract_y
 _atom_site_fract_z
 _atom_site_occupancy
  Li  Li0  1  0.33333300  0.66666700  0.90616700  1
  Li  Li1  1  0.00000000  0.00000000  0.98742900  1
  Li  Li2  1  0.00000000  0.00000000  0.48742900  1
  Li  Li3  1  0.66666700  0.33333300  0.40616700  1
  Ni  Ni0  1  0.17086700  0.82913300  0.21323800  1
  Ni  Ni1  1  0.17086700  0.34173300  0.21323800  1
  Ni  Ni2  1  0.65826700  0.82913300  0.21323800  1
  Ni  Ni3  1  0.34173300  0.17086700  0.71323800  1
  Ni  Ni4  1  0.82913300  0.65826700  0.71323800  1
  Ni  Ni5  1  0.82913300  0.17086700  0.71323800  1
  Te  Te0  1  0.33333300  0.66666700  0.48378400  1
  Te  Te1  1  0.66666700  0.33333300  0.98378400  1
  O  O0  1  0.16934800  0.83065200  0.59062700  1
  O  O1  1  0.03333600  0.51666800  0.35104600  1
  O  O2  1  0.33333300  0.66666700  0.11557700  1
  O  O3  1  0.00000000  0.00000000  0.29521700  1
  O  O4  1  0.00000000  0.00000000  0.79521700  1
  O  O5  1  0.16934800  0.33869500  0.59062700  1
  O  O6  1  0.48333200  0.96666400  0.35104600  1
  O  O7  1  0.48333200  0.51666800  0.35104600  1
  O  O8  1  0.33869500  0.16934800  0.09062700  1
  O  O9  1  0.66130500  0.83065200  0.59062700  1
  O  O10  1  0.51666800  0.48333200  0.85104600  1
  O  O11  1  0.51666800  0.03333600  0.85104600  1
  O  O12  1  0.66666700  0.33333300  0.61557700  1
  O  O13  1  0.83065200  0.66130500  0.09062700  1
  O  O14  1  0.96666400  0.48333200  0.85104600  1
  O  O15  1  0.83065200  0.16934800  0.09062700  1
loop_
_geom_bond_atom_site_label_1
_geom_bond_atom_site_label_2
_geom_bond_distance
_geom_bond_site_symmetry_2
Li0 O11 1.940110 1_565
Li0 O14 1.940110 1_455
Li0 O10 1.940116 1_555
Li0 O2 2.009991 1_556
Li1 O4 1.844918 1_555
Li1 O8 1.988447 1_556
Li1 O13 1.988447 1_446
Li1 O15 1.988452 1_456
Li2 O3 1.844918 1_555
Li2 O5 1.988447 1_555
Li2 O9 1.988447 1_445
Li2 O0 1.988452 1_545
Li3 O6 1.940110 1_545
Li3 O1 1.940110 1_655
Li3 O7 1.940116 1_555
Li3 O12 2.009991 1_555
Ni0 O2 1.901255 1_555
Ni0 O3 1.909322 1_565
Ni0 O1 2.071678 1_555
Ni0 O6 2.071678 1_555
Ni0 O13 2.093967 1_455
Ni0 O8 2.093967 1_565
Ni1 O2 1.901264 1_555
Ni1 O3 1.909317 1_555
Ni1 O7 2.071678 1_555
Ni1 O1 2.071682 1_555
Ni1 O8 2.093959 1_555
Ni1 O15 2.093967 1_455
Ni2 O2 1.901264 1_555
Ni2 O3 1.909317 1_665
Ni2 O7 2.071678 1_555
Ni2 O6 2.071682 1_555
Ni2 O13 2.093959 1_555
Ni2 O15 2.093967 1_565
Ni3 O12 1.901264 1_555
Ni3 O4 1.909317 1_555
Ni3 O10 2.071678 1_555
Ni3 O11 2.071682 1_555
Ni3 O5 2.093959 1_555
Ni3 O0 2.093967 1_545
Ni4 O12 1.901264 1_555
Ni4 O4 1.909317 1_665
Ni4 O10 2.071678 1_555
Ni4 O14 2.071682 1_555
Ni4 O9 2.093959 1_555
Ni4 O0 2.093967 1_655
Ni5 O12 1.901255 1_555
Ni5 O4 1.909322 1_655
Ni5 O11 2.071678 1_555
Ni5 O14 2.071678 1_555
Ni5 O9 2.093967 1_545
Ni5 O5 2.093967 1_655
O0 Te0 1.959379 1_555
O1 Te0 1.988846 1_555
O5 Te0 1.959388 1_555
O6 Te0 1.988846 1_555
O7 Te0 1.988850 1_555
O8 Te1 1.959388 1_554
O9 Te0 1.959388 1_555
O10 Te1 1.988850 1_555
O11 Te1 1.988846 1_555
O13 Te1 1.959388 1_554
O14 Te1 1.988846 1_555
O15 Te1 1.959379 1_554
