# generated using pymatgen
data_Li6Ni9(PO4)8
_symmetry_space_group_name_H-M   'P 1'
_cell_length_a   8.68493500
_cell_length_b   8.76445042
_cell_length_c   9.14528779
_cell_angle_alpha   112.10791524
_cell_angle_beta   99.80020437
_cell_angle_gamma   102.06335412
_symmetry_Int_Tables_number   1
_chemical_formula_structural   Li6Ni9(PO4)8
_chemical_formula_sum   'Li6 Ni9 P8 O32'
_cell_volume   606.44317751
_cell_formula_units_Z   1
loop_
 _symmetry_equiv_pos_site_id
 _symmetry_equiv_pos_as_xyz
  1  'x, y, z'
loop_
 _atom_site_type_symbol
 _atom_site_label
 _atom_site_symmetry_multiplicity
 _atom_site_fract_x
 _atom_site_fract_y
 _atom_site_fract_z
 _atom_site_occupancy
  Li  Li0  1  0.36151800  0.09931200  0.97169300  1
  Li  Li1  1  0.98081800  0.28072100  0.74466100  1
  Li  Li2  1  0.67820500  0.68462300  0.64705500  1
  Li  Li3  1  0.32179500  0.31537700  0.35294500  1
  Li  Li4  1  0.01918200  0.71927900  0.25533900  1
  Li  Li5  1  0.63848200  0.90068800  0.02830700  1
  Ni  Ni0  1  0.50000000  0.50000000  0.00000000  1
  Ni  Ni1  1  0.19514700  0.72942700  0.92910300  1
  Ni  Ni2  1  0.29812900  0.14542400  0.58335100  1
  Ni  Ni3  1  0.00000000  0.00000000  0.00000000  1
  Ni  Ni4  1  0.67847200  0.29316400  0.54237000  1
  Ni  Ni5  1  0.00000000  0.50000000  0.50000000  1
  Ni  Ni6  1  0.32152800  0.70683600  0.45763000  1
  Ni  Ni7  1  0.70187100  0.85457600  0.41664900  1
  Ni  Ni8  1  0.80485300  0.27057300  0.07089700  1
  P  P0  1  0.60880900  0.04251900  0.71629200  1
  P  P1  1  0.83320000  0.62056900  0.90995800  1
  P  P2  1  0.33928600  0.55184500  0.72107500  1
  P  P3  1  0.04588000  0.88005000  0.65254400  1
  P  P4  1  0.95412000  0.11995000  0.34745600  1
  P  P5  1  0.66071400  0.44815500  0.27892500  1
  P  P6  1  0.16680000  0.37943100  0.09004200  1
  P  P7  1  0.39119100  0.95748100  0.28370800  1
  O  O0  1  0.70013100  0.04368100  0.87687800  1
  O  O1  1  0.98885000  0.32326600  0.98113900  1
  O  O2  1  0.72167700  0.51784900  0.97650400  1
  O  O3  1  0.11418600  0.06323300  0.66818000  1
  O  O4  1  0.45601800  0.10074200  0.74118700  1
  O  O5  1  0.39806700  0.40669600  0.74897900  1
  O  O6  1  0.41788300  0.72713000  0.87642100  1
  O  O7  1  0.78950700  0.78836900  0.92290200  1
  O  O8  1  0.14951600  0.51572200  0.70467200  1
  O  O9  1  0.72924300  0.14939200  0.65717900  1
  O  O10  1  0.09843000  0.87919300  0.82598000  1
  O  O11  1  0.82029900  0.51755100  0.72533300  1
  O  O12  1  0.14213500  0.18560800  0.41218100  1
  O  O13  1  0.44590700  0.14714300  0.42475400  1
  O  O14  1  0.38028000  0.55744200  0.56660600  1
  O  O15  1  0.11690000  0.74421700  0.53844200  1
  O  O16  1  0.88310000  0.25578300  0.46155800  1
  O  O17  1  0.61972000  0.44255800  0.43339400  1
  O  O18  1  0.55409300  0.85285700  0.57524600  1
  O  O19  1  0.85786500  0.81439200  0.58781900  1
  O  O20  1  0.17970100  0.48244900  0.27466700  1
  O  O21  1  0.90157000  0.12080700  0.17402000  1
  O  O22  1  0.27075700  0.85060800  0.34282100  1
  O  O23  1  0.85048400  0.48427800  0.29532800  1
  O  O24  1  0.21049300  0.21163100  0.07709800  1
  O  O25  1  0.58211700  0.27287000  0.12357900  1
  O  O26  1  0.60193300  0.59330400  0.25102100  1
  O  O27  1  0.54398200  0.89925800  0.25881300  1
  O  O28  1  0.88581400  0.93676700  0.33182000  1
  O  O29  1  0.27832300  0.48215100  0.02349600  1
  O  O30  1  0.01115000  0.67673400  0.01886100  1
  O  O31  1  0.29986900  0.95631900  0.12312200  1
loop_
_geom_bond_atom_site_label_1
_geom_bond_atom_site_label_2
_geom_bond_distance
_geom_bond_site_symmetry_2
Li0 O24 1.968389 1_556
Li0 O25 2.049246 1_556
Li0 O31 2.247997 1_546
Li0 O4 2.392105 1_555
Li0 O10 2.429879 1_545
Li1 O1 2.037591 1_555
Li1 O9 2.097467 1_555
Li1 O3 2.378958 1_655
Li1 O8 2.451644 1_655
Li1 O16 2.493944 1_555
Li2 O19 2.007844 1_555
Li2 O17 2.160664 1_555
Li2 O18 2.217980 1_555
Li2 O7 2.280590 1_555
Li2 O11 2.328772 1_555
Li2 O14 2.451090 1_555
Li3 O12 2.007844 1_555
Li3 O14 2.160664 1_555
Li3 O13 2.217980 1_555
Li3 O24 2.280590 1_555
Li3 O20 2.328772 1_555
Li3 O17 2.451090 1_555
Li4 O30 2.037591 1_555
Li4 O22 2.097467 1_555
Li4 O28 2.378958 1_455
Li4 O23 2.451644 1_455
Li4 O15 2.493944 1_555
Li5 O7 1.968389 1_554
Li5 O6 2.049246 1_554
Li5 O0 2.247997 1_564
Li5 O27 2.392105 1_555
Li5 O21 2.429879 1_565
Ni0 O29 1.953837 1_555
Ni0 O2 1.953837 1_554
Ni0 O26 2.077259 1_555
Ni0 O5 2.077259 1_554
Ni1 O30 1.965740 1_556
Ni1 O31 1.992177 1_556
Ni1 O6 2.073854 1_555
Ni1 O8 2.096928 1_555
Ni1 O10 2.107348 1_555
Ni2 O3 2.008583 1_555
Ni2 O4 2.023213 1_555
Ni2 O12 2.074231 1_555
Ni2 O13 2.096004 1_555
Ni2 O5 2.098156 1_555
Ni3 O21 1.989406 1_455
Ni3 O10 1.989406 1_544
Ni3 O24 2.106900 1_555
Ni3 O7 2.106900 1_444
Ni4 O9 1.988756 1_555
Ni4 O11 1.998389 1_555
Ni4 O13 2.004560 1_555
Ni4 O17 2.014048 1_555
Ni4 O16 2.078496 1_555
Ni5 O8 2.027905 1_555
Ni5 O23 2.027905 1_455
Ni5 O16 2.034589 1_455
Ni5 O15 2.034589 1_555
Ni6 O22 1.988756 1_555
Ni6 O20 1.998389 1_555
Ni6 O18 2.004560 1_555
Ni6 O14 2.014048 1_555
Ni6 O15 2.078496 1_555
Ni7 O28 2.008583 1_555
Ni7 O27 2.023213 1_555
Ni7 O19 2.074231 1_555
Ni7 O18 2.096004 1_555
Ni7 O26 2.098156 1_555
Ni8 O1 1.965740 1_554
Ni8 O0 1.992177 1_554
Ni8 O25 2.073854 1_555
Ni8 O23 2.096928 1_555
Ni8 O21 2.107348 1_555
O0 P0 1.541037 1_555
O1 P6 1.552979 1_656
O2 P1 1.538702 1_555
O3 P3 1.533039 1_545
O4 P0 1.539983 1_555
O5 P2 1.554213 1_555
O6 P2 1.559856 1_555
O7 P1 1.561543 1_555
O8 P2 1.581482 1_555
O9 P0 1.558138 1_555
O10 P3 1.577372 1_555
O11 P1 1.557066 1_555
O12 P4 1.539378 1_455
O13 P7 1.581162 1_545
O14 P2 1.529987 1_555
O15 P3 1.574037 1_555
O16 P4 1.574037 1_555
O17 P5 1.529987 1_555
O18 P0 1.581162 1_565
O19 P3 1.539378 1_655
O20 P6 1.557066 1_555
O21 P4 1.577372 1_555
O22 P7 1.558138 1_555
O23 P5 1.581482 1_555
O24 P6 1.561543 1_555
O25 P5 1.559856 1_555
O26 P5 1.554213 1_555
O27 P7 1.539983 1_555
O28 P4 1.533039 1_565
O29 P6 1.538702 1_555
O30 P1 1.552979 1_454
O31 P7 1.541037 1_555
