# generated using pymatgen
data_Na3V5O10
_symmetry_space_group_name_H-M   'P 1'
_cell_length_a   6.58002315
_cell_length_b   7.25238607
_cell_length_c   10.25659767
_cell_angle_alpha   97.25233930
_cell_angle_beta   104.22869085
_cell_angle_gamma   108.73881105
_symmetry_Int_Tables_number   1
_chemical_formula_structural   Na3V5O10
_chemical_formula_sum   'Na6 V10 O20'
_cell_volume   437.91991987
_cell_formula_units_Z   2
loop_
 _symmetry_equiv_pos_site_id
 _symmetry_equiv_pos_as_xyz
  1  'x, y, z'
loop_
 _atom_site_type_symbol
 _atom_site_label
 _atom_site_symmetry_multiplicity
 _atom_site_fract_x
 _atom_site_fract_y
 _atom_site_fract_z
 _atom_site_occupancy
  Na  Na0  1  0.69990900  0.19987300  0.30000200  1
  Na  Na1  1  0.69990300  0.19988600  0.79999900  1
  Na  Na2  1  0.09359400  0.59691600  0.39815300  1
  Na  Na3  1  0.09318800  0.59698300  0.89754100  1
  Na  Na4  1  0.30636200  0.80309400  0.20180200  1
  Na  Na5  1  0.30679000  0.80307800  0.70244800  1
  V  V0  1  0.19993500  0.19995900  0.79991800  1
  V  V1  1  0.19993200  0.19984900  0.29988900  1
  V  V2  1  0.59783000  0.60236800  0.40373000  1
  V  V3  1  0.59484600  0.60085000  0.90018200  1
  V  V4  1  0.80229100  0.79771700  0.19629600  1
  V  V5  1  0.80514900  0.79916700  0.69982500  1
  V  V6  1  0.40368000  0.39741500  0.09874700  1
  V  V7  1  0.40951300  0.39724500  0.60175300  1
  V  V8  1  0.99645200  0.00261000  0.50131300  1
  V  V9  1  0.99043700  0.00274700  0.99823600  1
  O  O0  1  0.09270000  0.27569600  0.44636100  1
  O  O1  1  0.08764900  0.27828200  0.94346900  1
  O  O2  1  0.30727400  0.12429900  0.15364200  1
  O  O3  1  0.31230400  0.12176800  0.65658400  1
  O  O4  1  0.10867100  0.92156200  0.34000900  1
  O  O5  1  0.11790900  0.92485100  0.84837700  1
  O  O6  1  0.29137600  0.47850800  0.26001300  1
  O  O7  1  0.28211200  0.47524600  0.75168200  1
  O  O8  1  0.68497500  0.87115300  0.34436100  1
  O  O9  1  0.68724800  0.87803300  0.85429700  1
  O  O10  1  0.71507600  0.52886800  0.25564900  1
  O  O11  1  0.71278900  0.52197100  0.74569800  1
  O  O12  1  0.51021600  0.32744900  0.43715300  1
  O  O13  1  0.50617600  0.32452800  0.94071000  1
  O  O14  1  0.88978100  0.07258200  0.16284500  1
  O  O15  1  0.89381500  0.07544300  0.65930700  1
  O  O16  1  0.48661400  0.67520900  0.06090500  1
  O  O17  1  0.48420700  0.67690600  0.54479500  1
  O  O18  1  0.91583400  0.72310900  0.05520000  1
  O  O19  1  0.91346200  0.72478500  0.53911200  1
loop_
_geom_bond_atom_site_label_1
_geom_bond_atom_site_label_2
_geom_bond_distance
_geom_bond_site_symmetry_2
Na0 O14 2.381023 1_555
Na0 O12 2.381043 1_555
Na0 O8 2.458749 1_545
Na0 O10 2.460338 1_555
Na0 O2 2.490890 1_555
Na0 O0 2.491385 1_655
Na1 O13 2.416668 1_555
Na1 O15 2.416827 1_555
Na1 O9 2.447796 1_545
Na1 O11 2.449113 1_555
Na1 O3 2.450772 1_555
Na1 O1 2.451382 1_655
Na2 O19 2.359066 1_455
Na2 O6 2.399135 1_555
Na2 O10 2.412841 1_455
Na2 O0 2.440298 1_555
Na2 O17 2.475113 1_555
Na2 O4 2.478401 1_555
Na3 O1 2.407228 1_555
Na3 O7 2.418435 1_555
Na3 O11 2.445709 1_455
Na3 O5 2.455468 1_555
Na3 O18 2.460382 1_456
Na3 O16 2.552461 1_556
Na4 O16 2.359300 1_555
Na4 O4 2.399320 1_555
Na4 O8 2.413520 1_555
Na4 O2 2.440002 1_565
Na4 O18 2.474532 1_455
Na4 O6 2.478358 1_555
Na5 O3 2.406980 1_565
Na5 O5 2.418833 1_555
Na5 O9 2.446117 1_555
Na5 O7 2.455516 1_555
Na5 O17 2.460797 1_555
Na5 O19 2.551757 1_455
O0 V1 1.902412 1_555
O0 V8 2.071869 1_455
O0 V7 2.119965 1_555
O1 V0 1.905152 1_555
O1 V9 2.087249 1_455
O1 V6 2.115980 1_556
O2 V1 1.900275 1_555
O2 V6 2.071858 1_555
O2 V9 2.120136 1_454
O3 V0 1.903361 1_555
O3 V7 2.087178 1_555
O3 V8 2.115162 1_455
O4 V4 2.021182 1_455
O4 V1 2.038554 1_565
O4 V8 2.064403 1_465
O5 V9 2.025874 1_465
O5 V0 2.051700 1_565
O5 V5 2.071289 1_455
O6 V2 2.021532 1_555
O6 V1 2.040073 1_555
O6 V6 2.064529 1_555
O7 V7 2.026385 1_555
O7 V0 2.051921 1_555
O7 V3 2.070926 1_555
O8 V4 1.955007 1_555
O8 V2 2.062194 1_555
O8 V8 2.106203 1_565
O9 V9 2.008298 1_565
O9 V5 2.024774 1_555
O9 V3 2.055831 1_555
O10 V2 1.954975 1_555
O10 V4 2.062551 1_555
O10 V6 2.105621 1_555
O11 V7 2.008711 1_555
O11 V3 2.025091 1_555
O11 V5 2.055855 1_555
O12 V2 1.989064 1_555
O12 V1 2.012708 1_555
O12 V7 2.023639 1_555
O13 V6 1.977823 1_556
O13 V0 2.008102 1_555
O13 V3 2.026696 1_555
O14 V4 1.988798 1_545
O14 V1 2.011107 1_655
O14 V9 2.023601 1_554
O15 V8 1.977916 1_555
O15 V0 2.006773 1_655
O15 V5 2.026347 1_545
O16 V6 2.025461 1_555
O16 V3 2.028520 1_554
O16 V4 2.029071 1_555
O17 V2 1.881096 1_555
O17 V7 2.120448 1_555
O17 V5 2.136469 1_555
O18 V4 1.881164 1_555
O18 V9 2.120328 1_564
O18 V3 2.136618 1_554
O19 V8 2.025501 1_565
O19 V2 2.028809 1_555
O19 V5 2.028816 1_555
