# generated using pymatgen
data_La4TiMn5(PbO9)2
_symmetry_space_group_name_H-M   'P 1'
_cell_length_a   5.54625100
_cell_length_b   5.62187855
_cell_length_c   12.44541271
_cell_angle_alpha   103.00594372
_cell_angle_beta   102.21267855
_cell_angle_gamma   90.02537701
_symmetry_Int_Tables_number   1
_chemical_formula_structural   La4TiMn5(PbO9)2
_chemical_formula_sum   'La4 Ti1 Mn5 Pb2 O18'
_cell_volume   369.07009983
_cell_formula_units_Z   1
loop_
 _symmetry_equiv_pos_site_id
 _symmetry_equiv_pos_as_xyz
  1  'x, y, z'
loop_
 _atom_site_type_symbol
 _atom_site_label
 _atom_site_symmetry_multiplicity
 _atom_site_fract_x
 _atom_site_fract_y
 _atom_site_fract_z
 _atom_site_occupancy
  La  La0  1  0.75040600  0.24642200  0.49998500  1
  La  La1  1  0.58259100  0.08609900  0.16963100  1
  La  La2  1  0.91626600  0.41686800  0.83102700  1
  La  La3  1  0.24960300  0.74917600  0.49998200  1
  Ti  Ti0  1  0.99850400  0.00063000  0.00016700  1
  Mn  Mn0  1  0.33313400  0.33390700  0.66656800  1
  Mn  Mn1  1  0.66723400  0.66653600  0.33324000  1
  Mn  Mn2  1  0.16743600  0.16636600  0.33469700  1
  Mn  Mn3  1  0.49959200  0.50005900  0.99996200  1
  Mn  Mn4  1  0.83231400  0.83424300  0.66561500  1
  Pb  Pb0  1  0.08576600  0.58521300  0.16961400  1
  Pb  Pb1  1  0.41419100  0.91365200  0.83028400  1
  O  O0  1  0.54622700  0.59403500  0.63985200  1
  O  O1  1  0.87317700  0.94901200  0.31859100  1
  O  O2  1  0.04279500  0.54441500  0.64524200  1
  O  O3  1  0.08286200  0.12602700  0.16527600  1
  O  O4  1  0.24811600  0.18782800  0.49768600  1
  O  O5  1  0.20801400  0.26626100  0.97939500  1
  O  O6  1  0.38984000  0.89298900  0.32106400  1
  O  O7  1  0.28826200  0.79224800  0.02037600  1
  O  O8  1  0.41819700  0.46314100  0.83541300  1
  O  O9  1  0.58047900  0.51884200  0.16504700  1
  O  O10  1  0.72421200  0.21879800  0.98492600  1
  O  O11  1  0.62816800  0.12841200  0.68129300  1
  O  O12  1  0.78155400  0.73963200  0.01554000  1
  O  O13  1  0.75040600  0.80623200  0.50053600  1
  O  O14  1  0.92099800  0.85563000  0.83590300  1
  O  O15  1  0.95547100  0.45180500  0.36049300  1
  O  O16  1  0.10805500  0.06958100  0.67806900  1
  O  O17  1  0.45612700  0.39594100  0.35452500  1
loop_
_geom_bond_atom_site_label_1
_geom_bond_atom_site_label_2
_geom_bond_distance
_geom_bond_site_symmetry_2
La0 O17 2.466527 1_555
La0 O2 2.469525 1_655
La0 O13 2.476247 1_545
La0 O1 2.703343 1_545
La0 O11 2.704072 1_555
La0 O15 2.716060 1_555
La0 O0 2.726957 1_555
La0 O4 2.785543 1_655
La0 O4 2.798460 1_555
La0 O16 2.994783 1_655
La0 O6 3.004426 1_545
La0 O13 3.145648 1_555
La1 O9 2.446275 1_555
La1 O1 2.451192 1_545
La1 O7 2.485526 1_545
La1 O6 2.765084 1_545
La1 O3 2.770864 1_555
La1 O17 2.775057 1_555
La1 O3 2.796504 1_655
La1 O12 2.811624 1_545
La1 O10 2.827176 1_554
La2 O14 2.453714 1_555
La2 O11 2.456283 1_555
La2 O5 2.487076 1_655
La2 O8 2.783715 1_655
La2 O16 2.784388 1_655
La2 O8 2.785612 1_555
La2 O2 2.790173 1_655
La2 O10 2.804487 1_555
La2 O12 2.824102 1_556
La3 O15 2.441907 1_455
La3 O0 2.443446 1_555
La3 O4 2.472633 1_565
La3 O16 2.777348 1_565
La3 O2 2.778811 1_555
La3 O6 2.785563 1_555
La3 O13 2.788610 1_455
La3 O17 2.791754 1_555
La3 O13 2.794279 1_555
Mn0 O16 1.989162 1_555
Mn0 O11 2.003973 1_555
Mn0 O2 2.006561 1_555
Mn0 O0 2.007381 1_555
Mn0 O8 2.014739 1_555
Mn0 O4 2.029236 1_555
Mn1 O6 2.000157 1_555
Mn1 O13 2.005472 1_555
Mn1 O17 2.016508 1_555
Mn1 O1 2.019055 1_555
Mn1 O15 2.021036 1_555
Mn1 O9 2.023310 1_555
Mn2 O4 1.958374 1_555
Mn2 O6 1.971097 1_545
Mn2 O1 1.986562 1_445
Mn2 O17 1.994491 1_555
Mn2 O15 1.997416 1_455
Mn2 O3 2.020773 1_555
Mn3 O8 1.964219 1_555
Mn3 O9 1.986438 1_556
Mn3 O12 2.012335 1_556
Mn3 O10 2.013571 1_555
Mn3 O7 2.019032 1_556
Mn3 O5 2.019877 1_555
Mn4 O13 1.977749 1_555
Mn4 O16 1.979629 1_665
Mn4 O11 2.001233 1_565
Mn4 O2 2.005716 1_655
Mn4 O0 2.007999 1_555
Mn4 O14 2.047454 1_555
O0 Pb1 2.863655 1_555
O1 Pb0 2.868977 1_655
O3 Ti0 1.969574 1_455
O3 Pb0 2.569848 1_555
O5 Ti0 1.986570 1_456
O5 Pb1 2.815146 1_545
O5 Pb0 2.837045 1_556
O6 Pb0 2.564242 1_555
O7 Ti0 1.995400 1_465
O7 Pb0 2.814273 1_555
O7 Pb1 2.824173 1_554
O8 Pb1 2.547832 1_555
O9 Pb0 2.779973 1_555
O9 Pb0 2.813949 1_655
O10 Ti0 1.959318 1_556
O10 Pb1 2.591275 1_545
O11 Pb1 2.870855 1_545
O12 Ti0 1.964585 1_565
O12 Pb0 2.580510 1_655
O14 Ti0 1.976458 1_566
O14 Pb1 2.771996 1_655
O14 Pb1 2.817844 1_555
O15 Pb0 2.873294 1_655
O16 Pb1 2.574481 1_545
