# generated using pymatgen
data_Na3VH11IO13
_symmetry_space_group_name_H-M   'P 1'
_cell_length_a   6.96994500
_cell_length_b   8.65972395
_cell_length_c   12.76071416
_cell_angle_alpha   76.83106730
_cell_angle_beta   86.22666288
_cell_angle_gamma   85.40983404
_symmetry_Int_Tables_number   1
_chemical_formula_structural   Na3VH11IO13
_chemical_formula_sum   'Na6 V2 H22 I2 O26'
_cell_volume   746.65005662
_cell_formula_units_Z   2
loop_
 _symmetry_equiv_pos_site_id
 _symmetry_equiv_pos_as_xyz
  1  'x, y, z'
loop_
 _atom_site_type_symbol
 _atom_site_label
 _atom_site_symmetry_multiplicity
 _atom_site_fract_x
 _atom_site_fract_y
 _atom_site_fract_z
 _atom_site_occupancy
  Na  Na0  1  0.96616100  0.30396800  0.23609600  1
  Na  Na1  1  0.03383900  0.69603200  0.76390400  1
  Na  Na2  1  0.58122000  0.30301500  0.10407200  1
  Na  Na3  1  0.41878000  0.69698500  0.89592800  1
  Na  Na4  1  0.54703000  0.68606100  0.57701800  1
  Na  Na5  1  0.45297000  0.31393900  0.42298200  1
  V  V0  1  0.05724800  0.67936300  0.49981700  1
  V  V1  1  0.94275200  0.32063700  0.50018300  1
  H  H0  1  0.84742700  0.99799300  0.44410700  1
  H  H1  1  0.15257300  0.00200700  0.55589300  1
  H  H2  1  0.12817100  0.14513300  0.14126000  1
  H  H3  1  0.87182900  0.85486700  0.85874000  1
  H  H4  1  0.88406400  0.36962000  0.81222200  1
  H  H5  1  0.11593600  0.63038000  0.18777800  1
  H  H6  1  0.21230400  0.10922200  0.17740900  1
  H  H7  1  0.78769600  0.89077800  0.82259100  1
  H  H8  1  0.89931200  0.88664100  0.08343200  1
  H  H9  1  0.10068800  0.11335900  0.91656800  1
  H  H10  1  0.09807200  0.54404700  0.35375900  1
  H  H11  1  0.90192800  0.45595300  0.64624100  1
  H  H12  1  0.95200000  0.94139400  0.34403300  1
  H  H13  1  0.04800000  0.05860600  0.65596700  1
  H  H14  1  0.57736100  0.92255700  0.63437500  1
  H  H15  1  0.42263900  0.07744300  0.36562500  1
  H  H16  1  0.92883800  0.33920700  0.01027600  1
  H  H17  1  0.07116200  0.66079300  0.98972400  1
  H  H18  1  0.55489200  0.49671500  0.49399600  1
  H  H19  1  0.44510800  0.50328500  0.50600400  1
  H  H20  1  0.53112600  0.07118100  0.36584900  1
  H  H21  1  0.46887400  0.92881900  0.63415100  1
  I  I0  1  0.21420100  0.33965100  0.75989600  1
  I  I1  1  0.78579900  0.66034900  0.24010400  1
  O  O0  1  0.89059500  0.68058900  0.60881400  1
  O  O1  1  0.10940500  0.31941100  0.39118600  1
  O  O2  1  0.32339300  0.29503700  0.93067200  1
  O  O3  1  0.67660700  0.70496300  0.06932800  1
  O  O4  1  0.98690400  0.42287300  0.83729800  1
  O  O5  1  0.01309600  0.57712700  0.16270200  1
  O  O6  1  0.18165700  0.49726700  0.53165400  1
  O  O7  1  0.81834300  0.50273300  0.46834600  1
  O  O8  1  0.93196200  0.33790500  0.66229900  1
  O  O9  1  0.06803800  0.66209500  0.33770100  1
  O  O10  1  0.31844400  0.53627500  0.74087100  1
  O  O11  1  0.68155600  0.46372500  0.25912900  1
  O  O12  1  0.22438100  0.81095500  0.50600700  1
  O  O13  1  0.77561900  0.18904500  0.49399300  1
  O  O14  1  0.86291700  0.90878200  0.40586300  1
  O  O15  1  0.13708300  0.09121800  0.59413700  1
  O  O16  1  0.88865700  0.26436200  0.07556300  1
  O  O17  1  0.11134300  0.73563800  0.92443700  1
  O  O18  1  0.39857700  0.85830900  0.20546100  1
  O  O19  1  0.60142300  0.14169100  0.79453900  1
  O  O20  1  0.39660800  0.41646900  0.95402200  1
  O  O21  1  0.60339200  0.58353100  0.04597800  1
  O  O22  1  0.68994900  0.18087300  0.86470900  1
  O  O23  1  0.31005100  0.81912700  0.13529100  1
  O  O24  1  0.86487700  0.88227300  0.15947900  1
  O  O25  1  0.13512300  0.11772700  0.84052100  1
loop_
_geom_bond_atom_site_label_1
_geom_bond_atom_site_label_2
_geom_bond_distance
_geom_bond_site_symmetry_2
Na0 O16 2.258606 1_555
Na0 O1 2.309415 1_655
Na0 O11 2.367405 1_555
Na0 O5 2.377762 1_655
Na1 O17 2.258606 1_555
Na1 O0 2.309415 1_455
Na1 O10 2.367405 1_555
Na1 O4 2.377762 1_455
Na2 O16 2.161976 1_555
Na2 O20 2.356264 1_554
Na2 O21 2.387233 1_555
Na2 O11 2.816652 1_555
Na3 O17 2.161976 1_555
Na3 O21 2.356264 1_556
Na3 O20 2.387233 1_555
Na3 O10 2.816652 1_555
Na4 O0 2.449914 1_555
Na4 O12 2.545688 1_555
Na4 O10 2.692436 1_555
Na5 O1 2.449914 1_555
Na5 O13 2.545688 1_555
Na5 O11 2.692436 1_555
H0 O14 0.999072 1_555
H1 O15 0.999072 1_555
H2 H6 0.770983 1_555
H2 Na0 2.227447 1_455
H3 H7 0.770983 1_555
H3 Na1 2.227447 1_655
H4 O4 0.989533 1_555
H5 O5 0.989533 1_555
H8 O24 0.977145 1_555
H9 O25 0.977145 1_555
H10 O9 1.003385 1_555
H11 O8 1.003385 1_555
H12 O14 0.974602 1_555
H13 O15 0.974602 1_555
H14 H21 0.753897 1_555
H14 Na4 2.355274 1_555
H15 H20 0.753897 1_555
H15 Na5 2.355274 1_555
H16 O16 0.972057 1_555
H17 O17 0.972057 1_555
H18 H19 0.770585 1_555
H18 Na4 2.140893 1_555
H18 Na5 2.179286 1_555
H19 Na5 2.140893 1_555
H19 Na4 2.179286 1_555
H20 Na5 2.389637 1_555
H21 Na4 2.389637 1_555
I0 O10 1.863465 1_555
I0 O4 1.985050 1_455
I0 O25 2.061454 1_555
I0 O2 2.294581 1_555
I0 O8 2.399356 1_455
I1 O11 1.863465 1_555
I1 O5 1.985050 1_655
I1 O24 2.061454 1_555
I1 O3 2.294581 1_555
I1 O9 2.399356 1_655
O0 V0 1.753852 1_655
O1 V1 1.753852 1_455
O2 O20 1.305242 1_555
O6 V0 1.714403 1_555
O6 V1 2.459502 1_455
O7 V1 1.714403 1_555
O7 V0 2.459502 1_655
O8 V1 2.103872 1_555
O9 V0 2.103872 1_555
O12 V0 1.710970 1_555
O13 V1 1.710970 1_555
O14 V0 2.432436 1_655
O15 V1 2.432436 1_455
O18 O23 1.241886 1_555
O19 O22 1.241886 1_555
O21 O3 1.305242 1_555
