# generated using pymatgen
data_Na3(CoO2)2
_symmetry_space_group_name_H-M   'P 1'
_cell_length_a   4.96639772
_cell_length_b   4.96639772
_cell_length_c   10.53434900
_cell_angle_alpha   90.00000000
_cell_angle_beta   90.00000000
_cell_angle_gamma   109.32944135
_symmetry_Int_Tables_number   1
_chemical_formula_structural   Na3(CoO2)2
_chemical_formula_sum   'Na6 Co4 O8'
_cell_volume   245.18443124
_cell_formula_units_Z   2
loop_
 _symmetry_equiv_pos_site_id
 _symmetry_equiv_pos_as_xyz
  1  'x, y, z'
loop_
 _atom_site_type_symbol
 _atom_site_label
 _atom_site_symmetry_multiplicity
 _atom_site_fract_x
 _atom_site_fract_y
 _atom_site_fract_z
 _atom_site_occupancy
  Na  Na0  1  0.64614200  0.35385800  0.06154800  1
  Na  Na1  1  0.64614200  0.35385800  0.43845200  1
  Na  Na2  1  0.35385800  0.64614200  0.56154800  1
  Na  Na3  1  0.31627100  0.68372900  0.25000000  1
  Na  Na4  1  0.68372900  0.31627100  0.75000000  1
  Na  Na5  1  0.35385800  0.64614200  0.93845200  1
  Co  Co0  1  0.00000000  0.00000000  0.00000000  1
  Co  Co1  1  0.93223800  0.06776200  0.25000000  1
  Co  Co2  1  0.00000000  0.00000000  0.50000000  1
  Co  Co3  1  0.06776200  0.93223800  0.75000000  1
  O  O0  1  0.14005700  0.30252600  0.11413300  1
  O  O1  1  0.14005700  0.30252600  0.38586700  1
  O  O2  1  0.30252600  0.14005700  0.88586700  1
  O  O3  1  0.30252600  0.14005700  0.61413300  1
  O  O4  1  0.69747400  0.85994300  0.38586700  1
  O  O5  1  0.69747400  0.85994300  0.11413300  1
  O  O6  1  0.85994300  0.69747400  0.61413300  1
  O  O7  1  0.85994300  0.69747400  0.88586700  1
loop_
_geom_bond_atom_site_label_1
_geom_bond_atom_site_label_2
_geom_bond_distance
_geom_bond_site_symmetry_2
Na0 O0 2.502988 1_555
Na0 O5 2.502988 1_555
Na0 O7 2.503037 1_554
Na0 O2 2.503037 1_554
Na0 O5 2.608244 1_545
Na0 O0 2.608244 1_655
Na1 O1 2.502988 1_555
Na1 O4 2.502988 1_555
Na1 O6 2.503037 1_555
Na1 O3 2.503037 1_555
Na1 O4 2.608244 1_545
Na1 O1 2.608244 1_655
Na2 O3 2.502988 1_555
Na2 O6 2.502988 1_555
Na2 O4 2.503037 1_555
Na2 O1 2.503037 1_555
Na2 O6 2.608244 1_455
Na2 O3 2.608244 1_565
Na3 O1 2.302569 1_555
Na3 O4 2.302569 1_555
Na3 O0 2.302569 1_555
Na3 O5 2.302569 1_555
Na4 O2 2.302569 1_555
Na4 O7 2.302569 1_555
Na4 O3 2.302569 1_555
Na4 O6 2.302569 1_555
Na5 O2 2.502988 1_555
Na5 O7 2.502988 1_555
Na5 O5 2.503037 1_556
Na5 O0 2.503037 1_556
Na5 O7 2.608244 1_455
Na5 O2 2.608244 1_565
Co0 O0 1.869479 1_555
Co0 O2 1.869479 1_554
Co0 O5 1.869479 1_445
Co0 O7 1.869479 1_444
Co1 O1 1.917435 1_655
Co1 O4 1.917435 1_545
Co1 O0 1.917435 1_655
Co1 O5 1.917435 1_545
Co2 O3 1.869479 1_555
Co2 O6 1.869479 1_445
Co2 O1 1.869479 1_555
Co2 O4 1.869479 1_445
Co3 O2 1.917435 1_565
Co3 O7 1.917435 1_455
Co3 O3 1.917435 1_565
Co3 O6 1.917435 1_455
