# generated using pymatgen
data_Na3Mn2P2(CO7)2
_symmetry_space_group_name_H-M   'P 1'
_cell_length_a   6.57844400
_cell_length_b   8.98087383
_cell_length_c   10.38662658
_cell_angle_alpha   91.49348148
_cell_angle_beta   90.38236538
_cell_angle_gamma   91.23872604
_symmetry_Int_Tables_number   1
_chemical_formula_structural   Na3Mn2P2(CO7)2
_chemical_formula_sum   'Na6 Mn4 P4 C4 O28'
_cell_volume   613.27582686
_cell_formula_units_Z   2
loop_
 _symmetry_equiv_pos_site_id
 _symmetry_equiv_pos_as_xyz
  1  'x, y, z'
loop_
 _atom_site_type_symbol
 _atom_site_label
 _atom_site_symmetry_multiplicity
 _atom_site_fract_x
 _atom_site_fract_y
 _atom_site_fract_z
 _atom_site_occupancy
  Na  Na0  1  0.00491100  0.24011600  0.13105800  1
  Na  Na1  1  0.48685000  0.23911900  0.12514300  1
  Na  Na2  1  0.02468600  0.24183400  0.62828000  1
  Na  Na3  1  0.51315000  0.76088100  0.87485700  1
  Na  Na4  1  0.99508900  0.75988400  0.86894200  1
  Na  Na5  1  0.97531400  0.75816600  0.37172000  1
  Mn  Mn0  1  0.74388500  0.34564200  0.85375700  1
  Mn  Mn1  1  0.74253200  0.34835300  0.36153200  1
  Mn  Mn2  1  0.25611500  0.65435800  0.14624300  1
  Mn  Mn3  1  0.25746800  0.65164700  0.63846800  1
  P  P0  1  0.24913500  0.42564400  0.89671400  1
  P  P1  1  0.24595500  0.42806300  0.38997000  1
  P  P2  1  0.75086500  0.57435600  0.10328600  1
  P  P3  1  0.75404500  0.57193700  0.61003000  1
  C  C0  1  0.75321400  0.07677100  0.88426700  1
  C  C1  1  0.74620600  0.07766200  0.38495800  1
  C  C2  1  0.24678600  0.92322900  0.11573300  1
  C  C3  1  0.25379400  0.92233800  0.61504200  1
  O  O0  1  0.24027600  0.06045700  0.10096800  1
  O  O1  1  0.24659500  0.05864900  0.60516500  1
  O  O2  1  0.75138700  0.14129300  0.77304000  1
  O  O3  1  0.73639600  0.14677100  0.27312500  1
  O  O4  1  0.74706900  0.17559200  0.98126100  1
  O  O5  1  0.74939800  0.17555600  0.48177200  1
  O  O6  1  0.06085400  0.32717100  0.86003600  1
  O  O7  1  0.43624300  0.33020200  0.87052800  1
  O  O8  1  0.05806300  0.32670500  0.35487000  1
  O  O9  1  0.43233100  0.33633300  0.35028400  1
  O  O10  1  0.24178800  0.46318900  0.04601100  1
  O  O11  1  0.74709000  0.42580600  0.17632000  1
  O  O12  1  0.24240800  0.46564400  0.53731900  1
  O  O13  1  0.76186800  0.42277600  0.68066500  1
  O  O14  1  0.25291000  0.57419400  0.82368000  1
  O  O15  1  0.75821200  0.53681100  0.95398900  1
  O  O16  1  0.23813200  0.57722400  0.31933500  1
  O  O17  1  0.75759200  0.53435600  0.46268100  1
  O  O18  1  0.56375700  0.66979800  0.12947200  1
  O  O19  1  0.93914600  0.67282900  0.13996400  1
  O  O20  1  0.56766900  0.66366700  0.64971600  1
  O  O21  1  0.94193700  0.67329500  0.64513000  1
  O  O22  1  0.25293100  0.82440800  0.01873900  1
  O  O23  1  0.25060200  0.82444400  0.51822800  1
  O  O24  1  0.24861300  0.85870700  0.22696000  1
  O  O25  1  0.26360400  0.85322900  0.72687500  1
  O  O26  1  0.75972400  0.93954300  0.89903200  1
  O  O27  1  0.75340500  0.94135100  0.39483500  1
loop_
_geom_bond_atom_site_label_1
_geom_bond_atom_site_label_2
_geom_bond_distance
_geom_bond_site_symmetry_2
Na0 O0 2.277405 1_555
Na0 O4 2.347116 1_454
Na0 O11 2.443519 1_455
Na0 O8 2.452379 1_555
Na0 O3 2.456750 1_455
Na0 O10 2.682866 1_555
Na1 O0 2.264896 1_555
Na1 O4 2.349721 1_554
Na1 O3 2.415965 1_555
Na1 O11 2.416968 1_555
Na1 O9 2.505506 1_555
Na1 O10 2.744599 1_555
Na1 O7 2.808312 1_554
Na2 O1 2.232305 1_555
Na2 O5 2.412249 1_455
Na2 O13 2.452322 1_455
Na2 O6 2.515297 1_555
Na2 O2 2.518942 1_455
Na2 O12 2.641349 1_555
Na3 O26 2.264896 1_555
Na3 O22 2.349721 1_556
Na3 O25 2.415965 1_555
Na3 O14 2.416968 1_555
Na3 O20 2.505506 1_555
Na3 O15 2.744599 1_555
Na3 O18 2.808312 1_556
Na4 O26 2.277405 1_555
Na4 O22 2.347116 1_656
Na4 O14 2.443519 1_655
Na4 O21 2.452379 1_555
Na4 O25 2.456750 1_655
Na4 O15 2.682866 1_555
Na5 O27 2.232305 1_555
Na5 O23 2.412249 1_655
Na5 O16 2.452322 1_655
Na5 O19 2.515297 1_555
Na5 O24 2.518942 1_655
Na5 O17 2.641349 1_555
Mn0 O13 1.946875 1_555
Mn0 O15 1.984657 1_555
Mn0 O2 1.999414 1_555
Mn0 O7 2.034500 1_555
Mn0 O4 2.047701 1_555
Mn0 O6 2.096039 1_655
Mn1 O17 1.950387 1_555
Mn1 O3 2.007981 1_555
Mn1 O5 2.018257 1_555
Mn1 O9 2.043563 1_555
Mn1 O11 2.062790 1_555
Mn1 O8 2.090405 1_655
Mn2 O16 1.946875 1_555
Mn2 O10 1.984657 1_555
Mn2 O24 1.999414 1_555
Mn2 O18 2.034500 1_555
Mn2 O22 2.047701 1_555
Mn2 O19 2.096039 1_455
Mn3 O12 1.950387 1_555
Mn3 O25 2.007981 1_555
Mn3 O23 2.018257 1_555
Mn3 O20 2.043563 1_555
Mn3 O14 2.062790 1_555
Mn3 O21 2.090405 1_455
C0 O26 1.247508 1_545
C0 O2 1.305983 1_555
C0 O4 1.326542 1_555
C1 O27 1.233046 1_545
C1 O5 1.318103 1_555
C1 O3 1.333017 1_555
C2 O0 1.247508 1_565
C2 O24 1.305983 1_555
C2 O22 1.326542 1_555
C3 O1 1.233046 1_565
C3 O23 1.318103 1_555
C3 O25 1.333017 1_555
O6 P0 1.546010 1_555
O7 P0 1.536777 1_555
O8 P1 1.554784 1_555
O9 P1 1.544193 1_555
O10 P0 1.579597 1_554
O11 P2 1.551604 1_555
O12 P1 1.559055 1_555
O13 P3 1.545681 1_555
O14 P0 1.551604 1_555
O15 P2 1.579597 1_556
O16 P1 1.545681 1_555
O17 P3 1.559055 1_555
O18 P2 1.536777 1_555
O19 P2 1.546010 1_555
O20 P3 1.544193 1_555
O21 P3 1.554784 1_555
