# generated using pymatgen
data_LiFe2(ClO)2
_symmetry_space_group_name_H-M   'P 1'
_cell_length_a   24.21788600
_cell_length_b   5.29144100
_cell_length_c   5.30682663
_cell_angle_alpha   82.22134769
_cell_angle_beta   90.00000000
_cell_angle_gamma   90.00000000
_symmetry_Int_Tables_number   1
_chemical_formula_structural   LiFe2(ClO)2
_chemical_formula_sum   'Li6 Fe12 Cl12 O12'
_cell_volume   673.79899268
_cell_formula_units_Z   6
loop_
 _symmetry_equiv_pos_site_id
 _symmetry_equiv_pos_as_xyz
  1  'x, y, z'
loop_
 _atom_site_type_symbol
 _atom_site_label
 _atom_site_symmetry_multiplicity
 _atom_site_fract_x
 _atom_site_fract_y
 _atom_site_fract_z
 _atom_site_occupancy
  Li  Li0  1  0.02163400  0.00000000  0.75000000  1
  Li  Li1  1  0.97836600  0.00000000  0.25000000  1
  Li  Li2  1  0.64492500  0.50000000  0.75000000  1
  Li  Li3  1  0.31430800  0.50000000  0.75000000  1
  Li  Li4  1  0.68569200  0.50000000  0.25000000  1
  Li  Li5  1  0.35507500  0.50000000  0.25000000  1
  Fe  Fe0  1  0.19339300  0.00000000  0.75000000  1
  Fe  Fe1  1  0.86173100  0.00000000  0.75000000  1
  Fe  Fe2  1  0.53501500  0.00000000  0.75000000  1
  Fe  Fe3  1  0.13151000  0.50000000  0.75000000  1
  Fe  Fe4  1  0.79798500  0.50000000  0.75000000  1
  Fe  Fe5  1  0.13826900  0.00000000  0.25000000  1
  Fe  Fe6  1  0.80660700  0.00000000  0.25000000  1
  Fe  Fe7  1  0.46498500  0.00000000  0.25000000  1
  Fe  Fe8  1  0.47176900  0.50000000  0.75000000  1
  Fe  Fe9  1  0.86849000  0.50000000  0.25000000  1
  Fe  Fe10  1  0.52823100  0.50000000  0.25000000  1
  Fe  Fe11  1  0.20201500  0.50000000  0.25000000  1
  Cl  Cl0  1  0.05467500  0.25247200  0.03227100  1
  Cl  Cl1  1  0.72076500  0.23795000  0.98937600  1
  Cl  Cl2  1  0.38861400  0.24715600  0.96884700  1
  Cl  Cl3  1  0.27923500  0.76205000  0.01062400  1
  Cl  Cl4  1  0.27923500  0.23795000  0.48937600  1
  Cl  Cl5  1  0.94532500  0.74752800  0.96772900  1
  Cl  Cl6  1  0.94532500  0.25247200  0.53227100  1
  Cl  Cl7  1  0.61138600  0.24715600  0.46884700  1
  Cl  Cl8  1  0.61138600  0.75284400  0.03115300  1
  Cl  Cl9  1  0.72076500  0.76205000  0.51062400  1
  Cl  Cl10  1  0.05467500  0.74752800  0.46772900  1
  Cl  Cl11  1  0.38861400  0.75284400  0.53115300  1
  O  O0  1  0.85322400  0.23366700  0.01142000  1
  O  O1  1  0.51972800  0.26811100  0.98543600  1
  O  O2  1  0.18527600  0.23355000  0.00989700  1
  O  O3  1  0.48027200  0.73188900  0.01456400  1
  O  O4  1  0.81472400  0.23355000  0.50989700  1
  O  O5  1  0.14677600  0.76633300  0.98858000  1
  O  O6  1  0.81472400  0.76645000  0.99010300  1
  O  O7  1  0.14677600  0.23366700  0.51142000  1
  O  O8  1  0.48027200  0.26811100  0.48543600  1
  O  O9  1  0.85322400  0.76633300  0.48858000  1
  O  O10  1  0.51972800  0.73188900  0.51456400  1
  O  O11  1  0.18527600  0.76645000  0.49010300  1
loop_
_geom_bond_atom_site_label_1
_geom_bond_atom_site_label_2
_geom_bond_distance
_geom_bond_site_symmetry_2
Fe0 O2 1.982307 1_556
Fe0 O11 1.982307 1_545
Fe0 O7 1.995644 1_555
Fe0 O5 1.995644 1_545
Fe1 O0 1.990018 1_556
Fe1 O9 1.990018 1_545
Fe1 O6 2.005123 1_545
Fe1 O4 2.005123 1_555
Fe2 O1 2.047099 1_555
Fe2 O10 2.047099 1_545
Fe2 O3 2.280867 1_546
Fe2 O8 2.280867 1_555
Fe3 O5 2.051532 1_555
Fe3 O7 2.051532 1_555
Fe3 O2 2.249262 1_556
Fe3 O11 2.249262 1_555
Fe4 O6 2.064463 1_555
Fe4 O4 2.064463 1_555
Fe4 O9 2.274008 1_555
Fe4 O0 2.274008 1_556
Fe5 O7 1.990018 1_555
Fe5 O5 1.990018 1_544
Fe5 O11 2.005123 1_545
Fe5 O2 2.005123 1_555
Fe6 O4 1.982307 1_555
Fe6 O6 1.982307 1_544
Fe6 O0 1.995644 1_555
Fe6 O9 1.995644 1_545
Fe7 O8 2.047099 1_555
Fe7 O3 2.047099 1_545
Fe7 O10 2.280867 1_545
Fe7 O1 2.280867 1_554
Fe8 O3 1.996381 1_556
Fe8 O8 1.996381 1_555
Fe8 O1 2.000163 1_555
Fe8 O10 2.000163 1_555
Fe9 O9 2.051532 1_555
Fe9 O0 2.051532 1_555
Fe9 O4 2.249262 1_555
Fe9 O6 2.249262 1_554
Fe10 O10 1.996381 1_555
Fe10 O1 1.996381 1_554
Fe10 O8 2.000163 1_555
Fe10 O3 2.000163 1_555
Fe11 O11 2.064463 1_555
Fe11 O2 2.064463 1_555
Fe11 O5 2.274008 1_554
Fe11 O7 2.274008 1_555
Cl0 Li0 2.282681 1_554
Cl0 Li1 2.473301 1_455
Cl0 Fe5 2.607765 1_555
Cl0 Fe3 2.625038 1_554
Cl1 Li4 2.253055 1_556
Cl1 Li2 2.536345 1_555
Cl1 Fe4 2.560650 1_555
Cl1 Fe6 2.710855 1_556
Cl2 Li5 2.283912 1_556
Cl2 Li3 2.440599 1_555
Cl2 Fe8 2.602642 1_555
Cl2 Fe7 2.613262 1_556
Cl3 Li3 2.253055 1_554
Cl3 Li5 2.536345 1_555
Cl3 Fe11 2.560650 1_555
Cl3 Fe0 2.710855 1_564
Cl4 Li3 2.253055 1_555
Cl4 Li5 2.536345 1_555
Cl4 Fe11 2.560650 1_555
Cl4 Fe0 2.710855 1_555
Cl5 Li1 2.282681 1_566
Cl5 Li0 2.473301 1_665
Cl5 Fe1 2.607765 1_565
Cl5 Fe9 2.625038 1_556
Cl6 Li1 2.282681 1_555
Cl6 Li0 2.473301 1_655
Cl6 Fe1 2.607765 1_555
Cl6 Fe9 2.625038 1_555
Cl7 Li2 2.283912 1_555
Cl7 Li4 2.440599 1_555
Cl7 Fe10 2.602642 1_555
Cl7 Fe2 2.613262 1_555
Cl8 Li2 2.283912 1_554
Cl8 Li4 2.440599 1_555
Cl8 Fe10 2.602642 1_555
Cl8 Fe2 2.613262 1_564
Cl9 Li4 2.253055 1_555
Cl9 Li2 2.536345 1_555
Cl9 Fe4 2.560650 1_555
Cl9 Fe6 2.710855 1_565
Cl10 Li0 2.282681 1_565
Cl10 Li1 2.473301 1_465
Cl10 Fe5 2.607765 1_565
Cl10 Fe3 2.625038 1_555
Cl11 Li5 2.283912 1_555
Cl11 Li3 2.440599 1_555
Cl11 Fe8 2.602642 1_555
Cl11 Fe7 2.613262 1_565
