# generated using pymatgen
data_Ce3Th2O9
_symmetry_space_group_name_H-M   'P 1'
_cell_length_a   10.42535480
_cell_length_b   10.42535480
_cell_length_c   10.42535480
_cell_angle_alpha   158.32612792
_cell_angle_beta   148.72154110
_cell_angle_gamma   38.37585219
_symmetry_Int_Tables_number   1
_chemical_formula_structural   Ce3Th2O9
_chemical_formula_sum   'Ce3 Th2 O9'
_cell_volume   216.96379930
_cell_formula_units_Z   1
loop_
 _symmetry_equiv_pos_site_id
 _symmetry_equiv_pos_as_xyz
  1  'x, y, z'
loop_
 _atom_site_type_symbol
 _atom_site_label
 _atom_site_symmetry_multiplicity
 _atom_site_fract_x
 _atom_site_fract_y
 _atom_site_fract_z
 _atom_site_occupancy
  Ce  Ce0  1  0.90542600  0.89512300  0.01030300  1
  Ce  Ce1  1  0.45786600  0.50000000  0.95786600  1
  Ce  Ce2  1  0.11518000  0.10487700  0.01030300  1
  Th  Th0  1  0.70171900  0.69731200  0.00440700  1
  Th  Th1  1  0.30709500  0.30268800  0.00440700  1
  O  O0  1  0.65462100  0.41282000  0.24180000  1
  O  O1  1  0.55784700  0.80164500  0.75620200  1
  O  O2  1  0.05514100  0.79810500  0.25703500  1
  O  O3  1  0.82898000  0.58718000  0.24180000  1
  O  O4  1  0.95455600  0.19835500  0.75620200  1
  O  O5  1  0.14017800  0.39639700  0.74378200  1
  O  O6  1  0.45893000  0.20189500  0.25703500  1
  O  O7  1  0.34738500  0.60360300  0.74378200  1
  O  O8  1  0.23834700  0.00000000  0.23834700  1
loop_
_geom_bond_atom_site_label_1
_geom_bond_atom_site_label_2
_geom_bond_distance
_geom_bond_site_symmetry_2
Ce0 O1 2.329923 1_554
Ce0 O5 2.359021 1_654
Ce0 O5 2.359025 1_665
Ce0 O2 2.360808 1_655
Ce0 O8 2.430724 1_665
Ce0 O0 2.498257 1_565
Ce0 O0 2.498260 1_554
Ce1 O8 2.316154 1_555
Ce1 O8 2.316154 1_566
Ce1 O0 2.344020 1_556
Ce1 O3 2.344025 1_556
Ce1 O7 2.368631 1_555
Ce1 O5 2.368641 1_555
Ce2 O4 2.329917 1_454
Ce2 O7 2.359025 1_555
Ce2 O7 2.359025 1_544
Ce2 O6 2.360814 1_555
Ce2 O8 2.430724 1_555
Ce2 O3 2.498259 1_455
Ce2 O3 2.498259 1_444
O0 Th1 2.546390 1_555
O1 Th1 2.417770 1_555
O1 Th1 2.417770 1_566
O1 Th0 2.483474 1_556
O2 Th1 2.404904 1_555
O2 Th1 2.404907 1_566
O2 Th0 2.440510 1_455
O3 Th0 2.546380 1_555
O4 Th0 2.417767 1_556
O4 Th0 2.417770 1_545
O4 Th1 2.483484 1_656
O5 Th1 2.356136 1_556
O6 Th0 2.404908 1_556
O6 Th0 2.404908 1_545
O6 Th1 2.440500 1_555
O7 Th0 2.356142 1_556
