# generated using pymatgen
data_Na4NpO5
_symmetry_space_group_name_H-M   'P 1'
_cell_length_a   5.74158155
_cell_length_b   5.74158155
_cell_length_c   5.74157069
_cell_angle_alpha   99.23030833
_cell_angle_beta   99.23032144
_cell_angle_gamma   132.78066798
_symmetry_Int_Tables_number   1
_chemical_formula_structural   Na4NpO5
_chemical_formula_sum   'Na4 Np1 O5'
_cell_volume   127.29193177
_cell_formula_units_Z   1
loop_
 _symmetry_equiv_pos_site_id
 _symmetry_equiv_pos_as_xyz
  1  'x, y, z'
loop_
 _atom_site_type_symbol
 _atom_site_label
 _atom_site_symmetry_multiplicity
 _atom_site_fract_x
 _atom_site_fract_y
 _atom_site_fract_z
 _atom_site_occupancy
  Na  Na0  1  0.80352577  0.40262363  0.20614839  1
  Na  Na1  1  0.40262263  0.19647423  0.59909886  1
  Na  Na2  1  0.59737737  0.80352577  0.40090114  1
  Na  Na3  1  0.19647423  0.59737637  0.79385161  1
  Np  Np0  1  0.00000000  -0.00000000  0.00000000  1
  O  O0  1  0.50000000  0.50000000  0.00000000  1
  O  O1  1  0.74270865  0.07887935  0.82158800  1
  O  O2  1  0.07887935  0.25729135  0.33617070  1
  O  O3  1  0.92112065  0.74270865  0.66382930  1
  O  O4  1  0.25729135  0.92112065  0.17841200  1
loop_
_geom_bond_atom_site_label_1
_geom_bond_atom_site_label_2
_geom_bond_distance
_geom_bond_site_symmetry_2
Na0 O2 2.316520 1_655
Na0 O4 2.329178 1_655
Na0 O4 2.329182 1_545
Na0 O0 2.371645 1_555
Na0 O1 2.450832 1_554
Na0 O3 2.677281 1_555
Na1 O4 2.316521 1_545
Na1 O3 2.329175 1_445
Na1 O3 2.329184 1_555
Na1 O0 2.371637 1_556
Na1 O2 2.450837 1_555
Na1 O1 2.677282 1_555
Na2 O1 2.316521 1_565
Na2 O2 2.329175 1_665
Na2 O2 2.329184 1_555
Na2 O0 2.371637 1_555
Na2 O3 2.450837 1_555
Na2 O4 2.677282 1_555
Na3 O3 2.316520 1_455
Na3 O1 2.329178 1_455
Na3 O1 2.329182 1_565
Na3 O0 2.371645 1_556
Na3 O4 2.450832 1_556
Na3 O2 2.677281 1_555
Np0 O3 2.002225 1_444
Np0 O2 2.002225 1_555
Np0 O4 2.002227 1_545
Np0 O1 2.002227 1_454
Np0 O0 2.299524 1_555
Np0 O0 2.299524 1_445
