# generated using pymatgen
data_TeWO6
_symmetry_space_group_name_H-M   'P 1'
_cell_length_a   5.33107231
_cell_length_b   5.33107231
_cell_length_c   5.33107213
_cell_angle_alpha   57.54224946
_cell_angle_beta   57.54224946
_cell_angle_gamma   57.54224993
_symmetry_Int_Tables_number   1
_chemical_formula_structural   TeWO6
_chemical_formula_sum   'Te1 W1 O6'
_cell_volume   101.07968838
_cell_formula_units_Z   1
loop_
 _symmetry_equiv_pos_site_id
 _symmetry_equiv_pos_as_xyz
  1  'x, y, z'
loop_
 _atom_site_type_symbol
 _atom_site_label
 _atom_site_symmetry_multiplicity
 _atom_site_fract_x
 _atom_site_fract_y
 _atom_site_fract_z
 _atom_site_occupancy
  Te  Te0  1  0.50000000  0.50000000  0.50000000  1
  W  W0  1  0.00000000  0.00000000  0.00000000  1
  O  O0  1  0.64456600  0.86137300  0.25512200  1
  O  O1  1  0.74487800  0.35543400  0.13862700  1
  O  O2  1  0.86137300  0.25512200  0.64456600  1
  O  O3  1  0.13862700  0.74487800  0.35543400  1
  O  O4  1  0.25512200  0.64456600  0.86137300  1
  O  O5  1  0.35543400  0.13862700  0.74487800  1
loop_
_geom_bond_atom_site_label_1
_geom_bond_atom_site_label_2
_geom_bond_distance
_geom_bond_site_symmetry_2
O0 W0 1.909039 1_665
O0 Te0 1.955479 1_555
O1 W0 1.909039 1_655
O1 Te0 1.955479 1_555
O2 W0 1.909039 1_656
O2 Te0 1.955479 1_555
O3 W0 1.909039 1_565
O3 Te0 1.955479 1_555
O4 W0 1.909039 1_566
O4 Te0 1.955479 1_555
O5 W0 1.909039 1_556
O5 Te0 1.955479 1_555
