# generated using pymatgen
data_Mn12O5F19
_symmetry_space_group_name_H-M   'P 1'
_cell_length_a   4.88158100
_cell_length_b   5.84931752
_cell_length_c   15.93277723
_cell_angle_alpha   90.61927572
_cell_angle_beta   90.01206130
_cell_angle_gamma   93.32192642
_symmetry_Int_Tables_number   1
_chemical_formula_structural   Mn12O5F19
_chemical_formula_sum   'Mn12 O5 F19'
_cell_volume   454.15208057
_cell_formula_units_Z   1
loop_
 _symmetry_equiv_pos_site_id
 _symmetry_equiv_pos_as_xyz
  1  'x, y, z'
loop_
 _atom_site_type_symbol
 _atom_site_label
 _atom_site_symmetry_multiplicity
 _atom_site_fract_x
 _atom_site_fract_y
 _atom_site_fract_z
 _atom_site_occupancy
  Mn  Mn0  1  0.98901800  0.14756800  0.57778200  1
  Mn  Mn1  1  0.00577600  0.85135800  0.75411800  1
  Mn  Mn2  1  0.02396000  0.16478700  0.91529900  1
  Mn  Mn3  1  0.98081100  0.15159500  0.24863100  1
  Mn  Mn4  1  0.97529600  0.83344100  0.41741100  1
  Mn  Mn5  1  0.99526700  0.82793900  0.09228600  1
  Mn  Mn6  1  0.50549600  0.35741200  0.41391400  1
  Mn  Mn7  1  0.49322600  0.32986700  0.07544400  1
  Mn  Mn8  1  0.48509400  0.32125500  0.75097600  1
  Mn  Mn9  1  0.47889500  0.64501100  0.91774300  1
  Mn  Mn10  1  0.51296500  0.67539500  0.58160800  1
  Mn  Mn11  1  0.52968500  0.66842100  0.25361800  1
  O  O0  1  0.78461500  0.88241600  0.52043100  1
  O  O1  1  0.77836200  0.88162300  0.19861800  1
  O  O2  1  0.71470000  0.62853000  0.35872300  1
  O  O3  1  0.27804700  0.38113300  0.96813500  1
  O  O4  1  0.20995600  0.11278700  0.81280500  1
  F  F0  1  0.76194300  0.10173400  0.69148000  1
  F  F1  1  0.76818900  0.13133100  0.35865300  1
  F  F2  1  0.79994000  0.12230400  0.02226000  1
  F  F3  1  0.75831600  0.88983600  0.86951100  1
  F  F4  1  0.73425800  0.39826400  0.85921700  1
  F  F5  1  0.73271100  0.61194200  0.69729100  1
  F  F6  1  0.72627500  0.38604100  0.52901700  1
  F  F7  1  0.73437500  0.38132500  0.18558700  1
  F  F8  1  0.72619500  0.61717200  0.02480700  1
  F  F9  1  0.27231400  0.61648000  0.80364300  1
  F  F10  1  0.26509100  0.38858700  0.63496800  1
  F  F11  1  0.25900600  0.60303600  0.47359700  1
  F  F12  1  0.29791700  0.62384900  0.14725900  1
  F  F13  1  0.27137800  0.39094900  0.29753300  1
  F  F14  1  0.23231500  0.10540200  0.46547900  1
  F  F15  1  0.23744400  0.89781100  0.64096900  1
  F  F16  1  0.23550400  0.87484300  0.98239300  1
  F  F17  1  0.23090600  0.11752900  0.14394100  1
  F  F18  1  0.21475300  0.88102800  0.31485300  1
loop_
_geom_bond_atom_site_label_1
_geom_bond_atom_site_label_2
_geom_bond_distance
_geom_bond_site_symmetry_2
Mn0 O0 2.006411 1_545
Mn1 O4 1.999555 1_565
Mn2 O4 1.898822 1_555
Mn2 O3 1.908712 1_555
Mn3 O1 1.974074 1_545
Mn4 O0 1.914173 1_555
Mn4 O2 1.930755 1_555
Mn5 O1 2.029218 1_555
Mn6 O2 2.043027 1_555
Mn7 O3 2.040417 1_554
Mn8 O4 2.024357 1_555
Mn9 O3 1.959608 1_555
Mn10 O0 2.003718 1_555
Mn11 O1 1.909292 1_555
Mn11 O2 1.925284 1_555
F0 Mn8 2.132874 1_555
F0 Mn0 2.135214 1_555
F0 Mn1 2.188779 1_645
F1 Mn3 2.038432 1_555
F1 Mn6 2.083335 1_555
F1 Mn4 2.274585 1_545
F2 Mn2 2.034784 1_654
F2 Mn7 2.150069 1_555
F2 Mn5 2.313015 1_545
F3 Mn9 2.073579 1_555
F3 Mn2 2.129061 1_665
F3 Mn1 2.216666 1_655
F4 Mn8 2.139002 1_555
F4 Mn9 2.164832 1_555
F4 Mn2 2.216563 1_655
F5 Mn1 2.076909 1_655
F5 Mn10 2.178477 1_555
F5 Mn8 2.208507 1_555
F6 Mn0 2.103532 1_555
F6 Mn6 2.127071 1_555
F6 Mn10 2.196586 1_555
F7 Mn3 2.116097 1_555
F7 Mn7 2.121942 1_555
F7 Mn11 2.269138 1_555
F8 Mn5 2.045522 1_555
F8 Mn9 2.102772 1_554
F8 Mn7 2.139315 1_555
F9 Mn9 2.079144 1_555
F9 Mn1 2.105533 1_555
F9 Mn8 2.223067 1_555
F10 Mn0 2.094144 1_455
F10 Mn8 2.188322 1_555
F10 Mn10 2.190294 1_555
F11 Mn6 2.141863 1_555
F11 Mn10 2.144795 1_555
F11 Mn4 2.185790 1_455
F12 Mn11 2.043314 1_555
F12 Mn5 2.145106 1_455
F12 Mn7 2.307198 1_555
F13 Mn3 2.079656 1_455
F13 Mn11 2.121672 1_555
F13 Mn6 2.194517 1_555
F14 Mn6 2.103594 1_555
F14 Mn4 2.105530 1_445
F14 Mn0 2.167555 1_455
F15 Mn10 2.138400 1_555
F15 Mn1 2.139772 1_555
F15 Mn0 2.203419 1_465
F16 Mn9 2.106103 1_555
F16 Mn5 2.119008 1_456
F16 Mn2 2.308068 1_565
F17 Mn7 2.054026 1_555
F17 Mn3 2.081898 1_455
F17 Mn5 2.147900 1_445
F18 Mn4 2.021600 1_455
F18 Mn11 2.248979 1_555
F18 Mn3 2.273146 1_465
