# generated using pymatgen
data_Li2V5CoO12
_symmetry_space_group_name_H-M   'P 1'
_cell_length_a   6.91783256
_cell_length_b   6.91783234
_cell_length_c   5.70045618
_cell_angle_alpha   73.32229206
_cell_angle_beta   106.67770449
_cell_angle_gamma   99.97750044
_symmetry_Int_Tables_number   1
_chemical_formula_structural   Li2V5CoO12
_chemical_formula_sum   'Li2 V5 Co1 O12'
_cell_volume   249.10348184
_cell_formula_units_Z   1
loop_
 _symmetry_equiv_pos_site_id
 _symmetry_equiv_pos_as_xyz
  1  'x, y, z'
loop_
 _atom_site_type_symbol
 _atom_site_label
 _atom_site_symmetry_multiplicity
 _atom_site_fract_x
 _atom_site_fract_y
 _atom_site_fract_z
 _atom_site_occupancy
  Li  Li0  1  0.27116100  0.27116100  0.25000000  1
  Li  Li1  1  0.74489700  0.74489700  0.75000000  1
  V  V0  1  0.92052600  0.92052600  0.25000000  1
  V  V1  1  0.19544800  0.61334600  0.75783300  1
  V  V2  1  0.38937100  0.81820600  0.24186700  1
  V  V3  1  0.61334600  0.19544800  0.74216700  1
  V  V4  1  0.81820600  0.38937100  0.25813300  1
  Co  Co0  1  0.08871300  0.08871300  0.75000000  1
  O  O0  1  0.02244700  0.79818500  0.65015000  1
  O  O1  1  0.06486800  0.37977800  0.74326400  1
  O  O2  1  0.19249400  0.99696300  0.14822900  1
  O  O3  1  0.37350200  0.66883500  0.57781200  1
  O  O4  1  0.37977800  0.06486800  0.75673600  1
  O  O5  1  0.31610000  0.59543200  0.08050000  1
  O  O6  1  0.66883500  0.37350200  0.92218800  1
  O  O7  1  0.65454000  0.89518800  0.32006800  1
  O  O8  1  0.59543200  0.31610000  0.41950000  1
  O  O9  1  0.79818500  0.02244700  0.84985000  1
  O  O10  1  0.89518800  0.65454000  0.17993200  1
  O  O11  1  0.99696300  0.19249400  0.35177100  1
loop_
_geom_bond_atom_site_label_1
_geom_bond_atom_site_label_2
_geom_bond_distance
_geom_bond_site_symmetry_2
Li0 O2 2.079301 1_545
Li0 O11 2.079301 1_455
Li0 O5 2.179240 1_555
Li0 O8 2.179240 1_555
Li1 O9 2.099528 1_565
Li1 O0 2.099529 1_655
Li1 O7 2.315492 1_555
Li1 O10 2.315492 1_556
Li1 O6 2.494364 1_555
Li1 O3 2.494364 1_555
Co0 O1 2.037181 1_555
Co0 O4 2.037181 1_555
Co0 O11 2.113534 1_455
Co0 O2 2.113534 1_546
Co0 O0 2.181994 1_545
Co0 O9 2.181994 1_455
O0 V1 1.761322 1_555
O0 V0 2.142925 1_455
O1 V1 1.721001 1_555
O2 V2 1.859179 1_555
O2 V0 2.064369 1_455
O3 V1 1.747345 1_555
O3 V2 1.921648 1_555
O4 V3 1.721001 1_555
O5 V1 1.766080 1_554
O5 V2 1.937389 1_555
O6 V3 1.747345 1_555
O6 V4 1.921648 1_556
O7 V2 1.782053 1_555
O7 V0 1.961103 1_555
O8 V3 1.766080 1_555
O8 V4 1.937389 1_555
O9 V3 1.761322 1_555
O9 V0 2.142925 1_546
O10 V4 1.782053 1_555
O10 V0 1.961103 1_555
O11 V4 1.859179 1_555
O11 V0 2.064369 1_545
