# generated using pymatgen
data_LiVF4
_symmetry_space_group_name_H-M   'P 1'
_cell_length_a   3.13065300
_cell_length_b   4.94162300
_cell_length_c   5.44357855
_cell_angle_alpha   67.42547600
_cell_angle_beta   90.00000000
_cell_angle_gamma   90.00000000
_symmetry_Int_Tables_number   1
_chemical_formula_structural   LiVF4
_chemical_formula_sum   'Li1 V1 F4'
_cell_volume   77.76245637
_cell_formula_units_Z   1
loop_
 _symmetry_equiv_pos_site_id
 _symmetry_equiv_pos_as_xyz
  1  'x, y, z'
loop_
 _atom_site_type_symbol
 _atom_site_label
 _atom_site_symmetry_multiplicity
 _atom_site_fract_x
 _atom_site_fract_y
 _atom_site_fract_z
 _atom_site_occupancy
  Li  Li0  1  0.50000000  0.00000000  0.50000000  1
  V  V0  1  0.00000000  0.00000000  0.00000000  1
  F  F0  1  0.00000000  0.19224600  0.24780100  1
  F  F1  1  0.50000000  0.77370400  0.21984700  1
  F  F2  1  0.50000000  0.22629600  0.78015300  1
  F  F3  1  0.00000000  0.80775400  0.75219900  1
loop_
_geom_bond_atom_site_label_1
_geom_bond_atom_site_label_2
_geom_bond_distance
_geom_bond_site_symmetry_2
F0 V0 1.925097 1_555
F0 Li0 2.058196 1_555
F0 Li0 2.058196 1_455
F1 V0 2.026202 1_665
F1 V0 2.026202 1_565
F1 Li0 2.210342 1_565
F2 V0 2.026202 1_656
F2 V0 2.026202 1_556
F2 Li0 2.210342 1_555
F3 V0 1.925097 1_566
F3 Li0 2.058196 1_565
F3 Li0 2.058196 1_465
