# generated using pymatgen
data_VCrO3
_symmetry_space_group_name_H-M   'P 1'
_cell_length_a   5.05175554
_cell_length_b   5.41107111
_cell_length_c   8.89314761
_cell_angle_alpha   85.39857856
_cell_angle_beta   73.50958820
_cell_angle_gamma   118.03140513
_symmetry_Int_Tables_number   1
_chemical_formula_structural   VCrO3
_chemical_formula_sum   'V4 Cr4 O12'
_cell_volume   199.09235298
_cell_formula_units_Z   4
loop_
 _symmetry_equiv_pos_site_id
 _symmetry_equiv_pos_as_xyz
  1  'x, y, z'
loop_
 _atom_site_type_symbol
 _atom_site_label
 _atom_site_symmetry_multiplicity
 _atom_site_fract_x
 _atom_site_fract_y
 _atom_site_fract_z
 _atom_site_occupancy
  V  V0  1  0.15113766  0.37068563  0.07897015  1
  V  V1  1  0.35689154  0.87652096  0.17341441  1
  V  V2  1  0.34972391  0.37860576  0.67645782  1
  V  V3  1  0.85367012  0.13271615  0.42213034  1
  Cr  Cr0  1  0.14939725  0.87854861  0.57511959  1
  Cr  Cr1  1  0.65136791  0.62808325  0.32570788  1
  Cr  Cr2  1  0.64816753  0.12313113  0.82514762  1
  Cr  Cr3  1  0.84979344  0.62111866  0.92500548  1
  O  O0  1  0.05103377  0.52779741  0.72209673  1
  O  O1  1  0.05192815  0.02417102  0.22197252  1
  O  O2  1  0.44198033  0.87117153  0.37517311  1
  O  O3  1  0.56050801  0.62365876  0.12585953  1
  O  O4  1  0.24919362  0.77220990  0.97228769  1
  O  O5  1  0.25066186  0.27669423  0.47077714  1
  O  O6  1  0.75040920  0.72573471  0.52763587  1
  O  O7  1  0.74912831  0.22346102  0.02584012  1
  O  O8  1  0.44658181  0.37223727  0.87700789  1
  O  O9  1  0.55285999  0.12440049  0.62509592  1
  O  O10  1  0.94389018  0.97193882  0.77710763  1
  O  O11  1  0.94167739  0.47711268  0.27719155  1
loop_
_geom_bond_atom_site_label_1
_geom_bond_atom_site_label_2
_geom_bond_distance
_geom_bond_site_symmetry_2
Cr0 O6 1.974177 1_455
Cr0 O0 1.975950 1_555
Cr0 O2 1.980621 1_555
Cr0 O5 2.034217 1_565
Cr0 O10 2.034684 1_455
Cr0 O9 2.045028 1_565
Cr1 O11 1.956460 1_555
Cr1 O3 1.956938 1_555
Cr1 O5 1.970668 1_555
Cr1 O1 2.021369 1_665
Cr1 O6 2.041613 1_555
Cr1 O2 2.044267 1_555
Cr2 O9 1.970902 1_555
Cr2 O4 1.971574 1_545
Cr2 O10 1.981444 1_545
Cr2 O7 2.037725 1_556
Cr2 O8 2.046947 1_555
Cr2 O0 2.051119 1_655
Cr3 O3 1.966558 1_556
Cr3 O4 1.975493 1_655
Cr3 O10 1.988922 1_555
Cr3 O7 2.023813 1_556
Cr3 O0 2.032726 1_655
Cr3 O8 2.037749 1_555
O0 V2 1.985717 1_555
O1 V0 1.938169 1_555
O1 V1 2.008185 1_545
O1 V3 2.055515 1_455
O2 V1 1.961180 1_555
O2 V3 2.079439 1_565
O3 V0 2.060302 1_555
O3 V1 2.068275 1_555
O4 V1 2.059045 1_556
O4 V0 2.063226 1_556
O5 V3 1.973387 1_455
O5 V2 2.079049 1_555
O6 V2 1.970708 1_555
O6 V3 2.076787 1_565
O7 V1 1.950642 1_545
O7 V0 2.016619 1_655
O8 V0 1.979274 1_556
O8 V2 1.980649 1_555
O9 V3 1.983638 1_555
O9 V2 2.077309 1_555
O10 V2 2.061180 1_665
O11 V3 1.960216 1_555
O11 V0 2.058032 1_655
O11 V1 2.059729 1_655
