# generated using pymatgen
data_LiFe2P2HO8
_symmetry_space_group_name_H-M   'P 1'
_cell_length_a   5.02681599
_cell_length_b   8.63524306
_cell_length_c   7.78195758
_cell_angle_alpha   89.98775967
_cell_angle_beta   104.77225861
_cell_angle_gamma   90.00124904
_symmetry_Int_Tables_number   1
_chemical_formula_structural   LiFe2P2HO8
_chemical_formula_sum   'Li2 Fe4 P4 H2 O16'
_cell_volume   326.63224345
_cell_formula_units_Z   2
loop_
 _symmetry_equiv_pos_site_id
 _symmetry_equiv_pos_as_xyz
  1  'x, y, z'
loop_
 _atom_site_type_symbol
 _atom_site_label
 _atom_site_symmetry_multiplicity
 _atom_site_fract_x
 _atom_site_fract_y
 _atom_site_fract_z
 _atom_site_occupancy
  Li  Li0  1  0.00844300  0.99604100  0.49707800  1
  Li  Li1  1  0.49156200  0.49602500  0.00290300  1
  Fe  Fe0  1  0.37946100  0.84259600  0.83602900  1
  Fe  Fe1  1  0.89345700  0.65398800  0.32051200  1
  Fe  Fe2  1  0.12070700  0.34251600  0.66413500  1
  Fe  Fe3  1  0.60637400  0.15397200  0.17939300  1
  P  P0  1  0.12530700  0.35605200  0.27926400  1
  P  P1  1  0.37474200  0.85610300  0.22072500  1
  P  P2  1  0.63681400  0.14570800  0.77764800  1
  P  P3  1  0.86313400  0.64566800  0.72238300  1
  H  H0  1  0.52352900  0.51911800  0.50333300  1
  H  H1  1  0.97656400  0.01910700  0.99667200  1
  O  O0  1  0.08494600  0.53158000  0.81939300  1
  O  O1  1  0.41470100  0.03174800  0.68061100  1
  O  O2  1  0.00745900  0.20345500  0.33383100  1
  O  O3  1  0.49244600  0.70361700  0.16591800  1
  O  O4  1  0.14869300  0.82919200  0.31919800  1
  O  O5  1  0.35135300  0.32927100  0.18076000  1
  O  O6  1  0.24914800  0.44947900  0.45904500  1
  O  O7  1  0.25100200  0.94974100  0.04102600  1
  O  O8  1  0.50858400  0.29536100  0.82788600  1
  O  O9  1  0.99168800  0.79533400  0.67231200  1
  O  O10  1  0.63665100  0.67124500  0.81867100  1
  O  O11  1  0.86317300  0.17128600  0.68126400  1
  O  O12  1  0.77609600  0.06546100  0.96982400  1
  O  O13  1  0.72382100  0.56567800  0.53010300  1
  O  O14  1  0.60846200  0.95930400  0.33008200  1
  O  O15  1  0.89168100  0.45936300  0.17000100  1
loop_
_geom_bond_atom_site_label_1
_geom_bond_atom_site_label_2
_geom_bond_distance
_geom_bond_site_symmetry_2
Li0 O14 2.121271 1_455
Li0 O2 2.194914 1_565
Li0 O1 2.195046 1_565
Li0 O9 2.219921 1_455
Li0 O4 2.233299 1_555
Li0 O11 2.326467 1_465
Li1 O15 2.121948 1_555
Li1 O3 2.195642 1_555
Li1 O0 2.196092 1_554
Li1 O8 2.219296 1_554
Li1 O5 2.232145 1_555
Li1 O10 2.325728 1_554
Fe0 O10 1.992062 1_555
Fe0 O1 2.066513 1_565
Fe0 O9 2.079209 1_455
Fe0 O7 2.084205 1_556
Fe1 O4 1.985399 1_655
Fe1 O15 2.047436 1_555
Fe1 O3 2.111299 1_555
Fe1 O13 2.162782 1_555
Fe1 O6 2.548369 1_655
Fe2 O11 1.991939 1_455
Fe2 O0 2.066187 1_555
Fe2 O8 2.079445 1_555
Fe2 O6 2.083758 1_555
Fe3 O5 1.985441 1_555
Fe3 O14 2.047899 1_545
Fe3 O2 2.111035 1_655
Fe3 O12 2.163760 1_554
Fe3 O7 2.545703 1_545
H0 O13 1.054426 1_555
H0 O6 1.463014 1_555
H1 O12 1.054505 1_555
H1 O7 1.462261 1_646
O0 P3 1.534343 1_455
O1 P2 1.534784 1_555
O2 P0 1.547782 1_555
O3 P1 1.547511 1_555
O4 P1 1.541556 1_555
O5 P0 1.541596 1_555
O6 P0 1.597517 1_555
O7 P1 1.597570 1_555
O8 P2 1.538542 1_555
O9 P3 1.538793 1_555
O10 P3 1.530201 1_555
O11 P2 1.530115 1_555
O12 P2 1.634791 1_555
O13 P3 1.634792 1_555
O14 P1 1.545679 1_555
O15 P0 1.545493 1_655
