# generated using pymatgen
data_Li3Ti2(PO4)3
_symmetry_space_group_name_H-M   'P 1'
_cell_length_a   8.62448348
_cell_length_b   8.62448348
_cell_length_c   6.45213488
_cell_angle_alpha   73.99268508
_cell_angle_beta   73.99268508
_cell_angle_gamma   93.14095357
_symmetry_Int_Tables_number   1
_chemical_formula_structural   Li3Ti2(PO4)3
_chemical_formula_sum   'Li6 Ti4 P6 O24'
_cell_volume   438.95769206
_cell_formula_units_Z   2
loop_
 _symmetry_equiv_pos_site_id
 _symmetry_equiv_pos_as_xyz
  1  'x, y, z'
loop_
 _atom_site_type_symbol
 _atom_site_label
 _atom_site_symmetry_multiplicity
 _atom_site_fract_x
 _atom_site_fract_y
 _atom_site_fract_z
 _atom_site_occupancy
  Li  Li0  1  0.99701200  0.00298800  0.75000000  1
  Li  Li1  1  0.28855400  0.71144600  0.75000000  1
  Li  Li2  1  0.50000000  0.50000000  0.50000000  1
  Li  Li3  1  0.71144600  0.28855400  0.25000000  1
  Li  Li4  1  0.00298800  0.99701200  0.25000000  1
  Li  Li5  1  0.50000000  0.50000000  0.00000000  1
  Ti  Ti0  1  0.94800400  0.61200700  0.62262900  1
  Ti  Ti1  1  0.61200700  0.94800400  0.12262900  1
  Ti  Ti2  1  0.38799300  0.05199600  0.87737100  1
  Ti  Ti3  1  0.05199600  0.38799300  0.37737100  1
  P  P0  1  0.66212400  0.85944700  0.61659000  1
  P  P1  1  0.85944700  0.66212400  0.11659000  1
  P  P2  1  0.71123600  0.28876400  0.75000000  1
  P  P3  1  0.28876400  0.71123600  0.25000000  1
  P  P4  1  0.14055300  0.33787600  0.88341000  1
  P  P5  1  0.33787600  0.14055300  0.38341000  1
  O  O0  1  0.98539000  0.65881200  0.89388900  1
  O  O1  1  0.84603800  0.83529100  0.58243200  1
  O  O2  1  0.60845700  0.94699300  0.80669500  1
  O  O3  1  0.65881200  0.98539000  0.39388900  1
  O  O4  1  0.83529100  0.84603800  0.08243200  1
  O  O5  1  0.94699300  0.60845700  0.30669500  1
  O  O6  1  0.54401200  0.70341000  0.68902600  1
  O  O7  1  0.73690600  0.46564700  0.75990600  1
  O  O8  1  0.70341000  0.54401200  0.18902600  1
  O  O9  1  0.82539600  0.26182800  0.53424000  1
  O  O10  1  0.73817200  0.17460400  0.96576000  1
  O  O11  1  0.46564700  0.73690600  0.25990600  1
  O  O12  1  0.53435300  0.26309400  0.74009400  1
  O  O13  1  0.26182800  0.82539600  0.03424000  1
  O  O14  1  0.17460400  0.73817200  0.46576000  1
  O  O15  1  0.29659000  0.45598800  0.81097400  1
  O  O16  1  0.26309400  0.53435300  0.24009400  1
  O  O17  1  0.45598800  0.29659000  0.31097400  1
  O  O18  1  0.05300700  0.39154300  0.69330500  1
  O  O19  1  0.16470900  0.15396200  0.91756800  1
  O  O20  1  0.34118800  0.01461000  0.60611100  1
  O  O21  1  0.39154300  0.05300700  0.19330500  1
  O  O22  1  0.15396200  0.16470900  0.41756800  1
  O  O23  1  0.01461000  0.34118800  0.10611100  1
loop_
_geom_bond_atom_site_label_1
_geom_bond_atom_site_label_2
_geom_bond_distance
_geom_bond_site_symmetry_2
Li0 O22 2.218133 1_655
Li0 O4 2.218133 1_546
Li0 O19 2.527560 1_655
Li0 O1 2.527560 1_545
Li1 O15 2.137141 1_555
Li1 O6 2.137141 1_555
Li1 O14 2.273334 1_555
Li1 O13 2.273334 1_556
Li1 O0 2.490587 1_455
Li1 O20 2.490587 1_565
Li2 O15 2.193895 1_555
Li2 O8 2.193895 1_555
Li2 O11 2.288232 1_555
Li2 O12 2.288232 1_555
Li2 O6 2.464046 1_555
Li2 O17 2.464046 1_555
Li3 O17 2.137141 1_555
Li3 O8 2.137141 1_555
Li3 O10 2.273334 1_554
Li3 O9 2.273334 1_555
Li3 O23 2.490587 1_655
Li3 O3 2.490587 1_545
Li4 O19 2.218133 1_564
Li4 O1 2.218133 1_455
Li4 O22 2.527560 1_565
Li4 O4 2.527560 1_455
Li5 O6 2.193895 1_554
Li5 O17 2.193895 1_555
Li5 O7 2.288232 1_554
Li5 O16 2.288232 1_555
Li5 O8 2.464046 1_555
Li5 O15 2.464046 1_554
O0 P1 1.552597 1_556
O0 Ti0 2.004186 1_555
O1 P0 1.573730 1_555
O1 Ti0 2.141235 1_555
O2 P0 1.588955 1_555
O2 Ti1 2.049508 1_556
O2 Ti2 2.140463 1_565
O3 P0 1.552597 1_555
O3 Ti1 2.004186 1_555
O4 P1 1.573730 1_555
O4 Ti1 2.141235 1_555
O5 P1 1.588955 1_555
O5 Ti0 2.049508 1_555
O5 Ti3 2.140463 1_655
O6 P0 1.519022 1_555
O7 P2 1.550772 1_555
O7 Ti0 1.983599 1_555
O8 P1 1.519022 1_555
O9 P2 1.552037 1_555
O9 Ti3 2.023949 1_655
O10 P2 1.552037 1_555
O10 Ti1 2.023949 1_546
O11 P3 1.550772 1_555
O11 Ti1 1.983599 1_555
O12 P2 1.550772 1_555
O12 Ti2 1.983599 1_555
O13 P3 1.552037 1_555
O13 Ti2 2.023949 1_564
O14 P3 1.552037 1_555
O14 Ti0 2.023949 1_455
O15 P4 1.519022 1_555
O16 P3 1.550772 1_555
O16 Ti3 1.983599 1_555
O17 P5 1.519022 1_555
O18 P4 1.588955 1_555
O18 Ti3 2.049508 1_555
O18 Ti0 2.140463 1_455
O19 P4 1.573730 1_555
O19 Ti2 2.141235 1_555
O20 P5 1.552597 1_555
O20 Ti2 2.004186 1_555
O21 P5 1.588955 1_555
O21 Ti2 2.049508 1_554
O21 Ti1 2.140463 1_545
O22 P5 1.573730 1_555
O22 Ti3 2.141235 1_555
O23 P4 1.552597 1_554
O23 Ti3 2.004186 1_555
