# generated using pymatgen
data_Li3TiCr3O8
_symmetry_space_group_name_H-M   'P 1'
_cell_length_a   5.88909407
_cell_length_b   10.26592124
_cell_length_c   5.99931033
_cell_angle_alpha   106.68330503
_cell_angle_beta   60.60772170
_cell_angle_gamma   106.66658618
_symmetry_Int_Tables_number   1
_chemical_formula_structural   Li3TiCr3O8
_chemical_formula_sum   'Li6 Ti2 Cr6 O16'
_cell_volume   298.04949980
_cell_formula_units_Z   2
loop_
 _symmetry_equiv_pos_site_id
 _symmetry_equiv_pos_as_xyz
  1  'x, y, z'
loop_
 _atom_site_type_symbol
 _atom_site_label
 _atom_site_symmetry_multiplicity
 _atom_site_fract_x
 _atom_site_fract_y
 _atom_site_fract_z
 _atom_site_occupancy
  Li  Li0  1  0.75010600  0.24999000  0.74999100  1
  Li  Li1  1  0.25010800  0.74998200  0.24998600  1
  Li  Li2  1  0.49996600  0.00011600  0.49993900  1
  Li  Li3  1  0.99997100  0.50011500  0.99992700  1
  Li  Li4  1  0.49977800  0.49985200  0.00001500  1
  Li  Li5  1  0.99978100  0.99984800  0.50000200  1
  Ti  Ti0  1  0.99945500  0.00002100  0.99998900  1
  Ti  Ti1  1  0.49941900  0.50002300  0.49998700  1
  Cr  Cr0  1  0.99885800  0.50000400  0.50000700  1
  Cr  Cr1  1  0.25037000  0.75053000  0.75099800  1
  Cr  Cr2  1  0.25082700  0.24949000  0.24907900  1
  Cr  Cr3  1  0.49889500  0.00000400  0.00000500  1
  Cr  Cr4  1  0.75043300  0.25053600  0.25101200  1
  Cr  Cr5  1  0.75086800  0.74947900  0.74905300  1
  O  O0  1  0.10917200  0.37346500  0.15756000  1
  O  O1  1  0.60918300  0.87346500  0.65757000  1
  O  O2  1  0.39328500  0.12653900  0.34243600  1
  O  O3  1  0.89327500  0.62653400  0.84244100  1
  O  O4  1  0.88746200  0.12505000  0.35064600  1
  O  O5  1  0.38746500  0.62505100  0.85064600  1
  O  O6  1  0.61303800  0.37495100  0.14936000  1
  O  O7  1  0.11303100  0.87495200  0.64936000  1
  O  O8  1  0.63780600  0.38231400  0.59968800  1
  O  O9  1  0.13782100  0.88232200  0.09969500  1
  O  O10  1  0.14446000  0.38201700  0.59774100  1
  O  O11  1  0.64447500  0.88201400  0.09773900  1
  O  O12  1  0.35517900  0.11768500  0.90030200  1
  O  O13  1  0.85518000  0.61768600  0.40028800  1
  O  O14  1  0.86017700  0.11798500  0.90226200  1
  O  O15  1  0.36015600  0.61798300  0.40227300  1
loop_
_geom_bond_atom_site_label_1
_geom_bond_atom_site_label_2
_geom_bond_distance
_geom_bond_site_symmetry_2
Li0 O14 2.210670 1_555
Li0 O10 2.210866 1_655
Li0 O8 2.213542 1_555
Li0 O12 2.213542 1_555
Li0 O4 2.228857 1_555
Li0 O6 2.229042 1_556
Li1 O15 2.210599 1_555
Li1 O11 2.210938 1_555
Li1 O13 2.213503 1_455
Li1 O9 2.213572 1_555
Li1 O5 2.228801 1_554
Li1 O7 2.229099 1_555
Li2 O7 2.150322 1_545
Li2 O4 2.151558 1_555
Li2 O2 2.174052 1_555
Li2 O1 2.186592 1_545
Li2 O12 2.206457 1_555
Li2 O11 2.216515 1_545
Li3 O6 2.150319 1_556
Li3 O5 2.151553 1_655
Li3 O3 2.174002 1_555
Li3 O0 2.186529 1_656
Li3 O13 2.206455 1_556
Li3 O10 2.216437 1_655
Li4 O5 2.150153 1_554
Li4 O6 2.151401 1_555
Li4 O0 2.173995 1_555
Li4 O3 2.186768 1_554
Li4 O8 2.206185 1_554
Li4 O15 2.216875 1_555
Li5 O4 2.150144 1_565
Li5 O7 2.151377 1_655
Li5 O1 2.173958 1_555
Li5 O2 2.186830 1_665
Li5 O9 2.206052 1_655
Li5 O14 2.216906 1_565
Cr0 O3 1.992884 1_555
Cr0 O0 1.992979 1_655
Cr0 O8 2.007873 1_555
Cr0 O13 2.007878 1_555
Cr0 O15 2.010691 1_655
Cr0 O10 2.010761 1_655
Cr1 O3 2.019113 1_455
Cr1 O1 2.021369 1_555
Cr1 O9 2.043125 1_556
Cr1 O5 2.044762 1_555
Cr1 O7 2.044831 1_555
Cr1 O15 2.046681 1_555
Cr2 O0 2.019160 1_555
Cr2 O2 2.021188 1_555
Cr2 O12 2.043515 1_554
Cr2 O6 2.044693 1_555
Cr2 O4 2.044849 1_455
Cr2 O10 2.046330 1_555
Cr3 O2 1.992894 1_555
Cr3 O1 1.992929 1_544
Cr3 O9 2.007935 1_545
Cr3 O12 2.007970 1_554
Cr3 O14 2.010626 1_554
Cr3 O11 2.010690 1_545
Cr4 O2 2.019351 1_555
Cr4 O0 2.021018 1_655
Cr4 O8 2.042980 1_555
Cr4 O4 2.044486 1_555
Cr4 O6 2.045066 1_555
Cr4 O14 2.046800 1_554
Cr5 O1 2.019240 1_555
Cr5 O3 2.021040 1_555
Cr5 O13 2.043413 1_555
Cr5 O7 2.044547 1_655
Cr5 O5 2.044954 1_555
Cr5 O11 2.046465 1_556
O4 Ti0 2.020235 1_554
O5 Ti1 2.020239 1_555
O6 Ti1 2.020300 1_555
O7 Ti0 2.020294 1_465
O8 Ti1 1.985077 1_555
O9 Ti0 1.984923 1_464
O10 Ti1 1.983240 1_555
O11 Ti0 1.983336 1_564
O12 Ti0 1.984653 1_455
O13 Ti1 1.984806 1_555
O14 Ti0 1.983052 1_555
O15 Ti1 1.982901 1_555
