# generated using pymatgen
data_Li5Ti12O24
_symmetry_space_group_name_H-M   'P 1'
_cell_length_a   8.88726900
_cell_length_b   5.08802500
_cell_length_c   9.73782291
_cell_angle_alpha   89.89643261
_cell_angle_beta   90.00000000
_cell_angle_gamma   90.00000000
_symmetry_Int_Tables_number   1
_chemical_formula_structural   Li5Ti12O24
_chemical_formula_sum   'Li5 Ti12 O24'
_cell_volume   440.33045586
_cell_formula_units_Z   1
loop_
 _symmetry_equiv_pos_site_id
 _symmetry_equiv_pos_as_xyz
  1  'x, y, z'
loop_
 _atom_site_type_symbol
 _atom_site_label
 _atom_site_symmetry_multiplicity
 _atom_site_fract_x
 _atom_site_fract_y
 _atom_site_fract_z
 _atom_site_occupancy
  Li  Li0  1  0.50000000  0.42838700  0.96772000  1
  Li  Li1  1  0.00000000  0.56792800  0.03733600  1
  Li  Li2  1  0.00000000  0.93895300  0.53411100  1
  Li  Li3  1  0.33356400  0.93379100  0.53342700  1
  Li  Li4  1  0.66643600  0.93379100  0.53342700  1
  Ti  Ti0  1  0.50000000  0.00300400  0.14481100  1
  Ti  Ti1  1  0.82681800  0.02810400  0.13967000  1
  Ti  Ti2  1  0.17318200  0.02810400  0.13967000  1
  Ti  Ti3  1  0.16427500  0.47891700  0.64215700  1
  Ti  Ti4  1  0.50000000  0.46907500  0.64328300  1
  Ti  Ti5  1  0.83572500  0.47891700  0.64215700  1
  Ti  Ti6  1  0.33540300  0.51217000  0.35788500  1
  Ti  Ti7  1  0.00000000  0.52394300  0.35721000  1
  Ti  Ti8  1  0.66459700  0.51217000  0.35788500  1
  Ti  Ti9  1  0.00000000  0.99756800  0.85974200  1
  Ti  Ti10  1  0.67360100  0.96879900  0.86532000  1
  Ti  Ti11  1  0.32639900  0.96879900  0.86532000  1
  O  O0  1  0.17265400  0.19556500  0.77506100  1
  O  O1  1  0.50000000  0.20820900  0.78718600  1
  O  O2  1  0.82734600  0.19556500  0.77506100  1
  O  O3  1  0.33673000  0.19550200  0.03551500  1
  O  O4  1  0.66327000  0.19550200  0.03551500  1
  O  O5  1  0.00000000  0.20024200  0.03563300  1
  O  O6  1  0.33365900  0.30229700  0.53438100  1
  O  O7  1  0.66634100  0.30229700  0.53438100  1
  O  O8  1  0.00000000  0.30525400  0.53457900  1
  O  O9  1  0.16343600  0.30661300  0.27693900  1
  O  O10  1  0.83656400  0.30661300  0.27693900  1
  O  O11  1  0.50000000  0.30257200  0.27454300  1
  O  O12  1  0.00000000  0.71448900  0.71533200  1
  O  O13  1  0.33634100  0.70997800  0.71377000  1
  O  O14  1  0.66365900  0.70997800  0.71377000  1
  O  O15  1  0.50000000  0.70629700  0.46519800  1
  O  O16  1  0.83392700  0.70921900  0.46627600  1
  O  O17  1  0.16607300  0.70921900  0.46627600  1
  O  O18  1  0.83720500  0.79869100  0.96504300  1
  O  O19  1  0.50000000  0.79571000  0.96375500  1
  O  O20  1  0.16279500  0.79869100  0.96504300  1
  O  O21  1  0.00000000  0.79508000  0.21431300  1
  O  O22  1  0.32875600  0.80474900  0.22622500  1
  O  O23  1  0.67124400  0.80474900  0.22622500  1
loop_
_geom_bond_atom_site_label_1
_geom_bond_atom_site_label_2
_geom_bond_distance
_geom_bond_site_symmetry_2
Li0 O19 1.869278 1_555
Li0 O3 1.985579 1_556
Li0 O4 1.985579 1_556
Li0 O1 2.086317 1_555
Li1 O5 1.870899 1_555
Li1 O20 1.991083 1_554
Li1 O18 1.991083 1_454
Li1 O21 2.076771 1_555
Li2 O8 1.863762 1_565
Li2 O17 1.995954 1_555
Li2 O16 1.995954 1_455
Li2 O12 2.100290 1_555
Li3 O6 1.875008 1_565
Li3 O17 1.987872 1_555
Li3 O15 1.992969 1_555
Li3 O13 2.091465 1_555
Li4 O7 1.875008 1_565
Li4 O16 1.987872 1_555
Li4 O15 1.992969 1_555
Li4 O14 2.091465 1_555
O0 Ti3 1.937072 1_555
O0 Ti11 1.991747 1_545
O0 Ti9 2.011544 1_545
O1 Ti4 1.928375 1_555
O1 Ti10 2.107066 1_545
O1 Ti11 2.107066 1_545
O2 Ti5 1.937072 1_555
O2 Ti10 1.991747 1_545
O2 Ti9 2.011544 1_645
O3 Ti2 1.965617 1_555
O3 Ti11 2.023011 1_544
O3 Ti0 2.047863 1_555
O4 Ti1 1.965617 1_555
O4 Ti10 2.023011 1_544
O4 Ti0 2.047863 1_555
O5 Ti9 2.000862 1_544
O5 Ti1 2.039394 1_455
O5 Ti2 2.039394 1_555
O6 Ti4 2.008318 1_555
O6 Ti6 2.021823 1_555
O6 Ti3 2.044149 1_555
O7 Ti4 2.008318 1_555
O7 Ti8 2.021823 1_555
O7 Ti5 2.044149 1_555
O8 Ti5 2.003244 1_455
O8 Ti3 2.003244 1_555
O8 Ti7 2.052881 1_555
O9 Ti2 1.951712 1_555
O9 Ti7 1.986613 1_555
O9 Ti6 2.013434 1_555
O10 Ti1 1.951712 1_555
O10 Ti7 1.986613 1_655
O10 Ti8 2.013434 1_555
O11 Ti0 1.981444 1_555
O11 Ti8 1.984667 1_555
O11 Ti6 1.984667 1_555
O12 Ti9 2.014778 1_555
O12 Ti5 2.019639 1_455
O12 Ti3 2.019639 1_555
O13 Ti11 1.981644 1_555
O13 Ti4 2.022889 1_555
O13 Ti3 2.051792 1_555
O14 Ti10 1.981644 1_555
O14 Ti4 2.022889 1_555
O14 Ti5 2.051792 1_555
O15 Ti8 2.052116 1_555
O15 Ti6 2.052116 1_555
O15 Ti4 2.111060 1_555
O16 Ti7 2.049061 1_655
O16 Ti5 2.073501 1_555
O16 Ti8 2.094694 1_555
O17 Ti7 2.049061 1_555
O17 Ti3 2.073501 1_555
O17 Ti6 2.094694 1_555
O18 Ti10 1.950173 1_555
O18 Ti9 2.040799 1_655
O18 Ti1 2.066361 1_566
O19 Ti10 2.017846 1_555
O19 Ti11 2.017846 1_555
O19 Ti0 2.056123 1_566
O20 Ti11 1.950173 1_555
O20 Ti9 2.040799 1_555
O20 Ti2 2.066361 1_566
O21 Ti7 1.957680 1_555
O21 Ti1 2.073598 1_465
O21 Ti2 2.073598 1_565
O22 Ti6 1.963772 1_555
O22 Ti2 1.977395 1_565
O22 Ti0 1.989803 1_565
O23 Ti8 1.963772 1_555
O23 Ti1 1.977395 1_565
O23 Ti0 1.989803 1_565
