# generated using pymatgen
data_Sr2Re4H16C3(N2O7)3
_symmetry_space_group_name_H-M   'P 1'
_cell_length_a   19.98216953
_cell_length_b   17.83563069
_cell_length_c   10.60872878
_cell_angle_alpha   85.40491770
_cell_angle_beta   62.74121771
_cell_angle_gamma   31.90080573
_symmetry_Int_Tables_number   1
_chemical_formula_structural   Sr2Re4H16C3(N2O7)3
_chemical_formula_sum   'Sr4 Re8 H32 C6 N12 O42'
_cell_volume   1338.72395307
_cell_formula_units_Z   2
loop_
 _symmetry_equiv_pos_site_id
 _symmetry_equiv_pos_as_xyz
  1  'x, y, z'
loop_
 _atom_site_type_symbol
 _atom_site_label
 _atom_site_symmetry_multiplicity
 _atom_site_fract_x
 _atom_site_fract_y
 _atom_site_fract_z
 _atom_site_occupancy
  Sr  Sr0  1  0.25562695  0.73587461  0.54172854  1
  Sr  Sr1  1  0.46647933  0.54173287  0.73414687  1
  Sr  Sr2  1  0.70736228  0.78533876  0.99537500  1
  Sr  Sr3  1  0.51295619  0.99519343  0.78508334  1
  Re  Re0  1  0.67484784  0.27671698  0.95951949  1
  Re  Re1  1  0.08759068  0.95843599  0.27760171  1
  Re  Re2  1  0.28811159  0.16414350  0.57582995  1
  Re  Re3  1  0.97205446  0.57436718  0.16574917  1
  Re  Re4  1  0.06715044  0.74759028  0.45518055  1
  Re  Re5  1  0.73251151  0.45359619  0.74459746  1
  Re  Re6  1  0.79635139  0.51894275  0.18305922  1
  Re  Re7  1  0.50282688  0.18393999  0.51815080  1
  H  H0  1  0.92112451  0.01434500  0.09654379  1
  H  H1  1  0.96685400  0.09992513  0.01490841  1
  H  H2  1  0.15342134  0.28241106  0.33219945  1
  H  H3  1  0.23382717  0.33119575  0.28481016  1
  H  H4  1  0.70334786  0.18074503  0.31835779  1
  H  H5  1  0.79782405  0.31950354  0.18333491  1
  H  H6  1  0.93020677  0.45313229  0.54540219  1
  H  H7  1  0.06967161  0.54689693  0.45606865  1
  H  H8  1  0.03360786  0.72673975  0.12067104  1
  H  H9  1  0.12195558  0.11784499  0.71963457  1
  H  H10  1  0.12824594  0.13366965  0.21274850  1
  H  H11  1  0.52306114  0.21674527  0.13343223  1
  H  H12  1  0.13593154  0.71650828  0.08666247  1
  H  H13  1  0.05976588  0.08722725  0.71518653  1
  H  H14  1  0.16446182  0.19086146  0.11344901  1
  H  H15  1  0.53393195  0.11312268  0.18824821  1
  H  H16  1  0.95847055  0.77831311  0.97106680  1
  H  H17  1  0.29683224  0.96759697  0.77094845  1
  H  H18  1  0.27970800  0.95723669  0.29156445  1
  H  H19  1  0.47642820  0.28883938  0.95455018  1
  H  H20  1  0.02416682  0.78480942  0.80050996  1
  H  H21  1  0.38978678  0.80198174  0.78308508  1
  H  H22  1  0.45507171  0.85426187  0.21865162  1
  H  H23  1  0.47319007  0.22029293  0.85339621  1
  H  H24  1  0.47075903  0.65906563  0.21572138  1
  H  H25  1  0.65128777  0.21796997  0.65808550  1
  H  H26  1  0.03259620  0.59971424  0.78077523  1
  H  H27  1  0.59327848  0.77668479  0.59477387  1
  H  H28  1  0.49736306  0.66071656  0.33125115  1
  H  H29  1  0.50348079  0.33794363  0.66531479  1
  H  H30  1  0.91427023  0.74502607  0.75778601  1
  H  H31  1  0.58153366  0.75850467  0.74560226  1
  C  C0  1  0.72506693  0.27537373  0.27382194  1
  C  C1  1  0.97374512  0.52614197  0.52750953  1
  C  C2  1  0.10210060  0.73949178  0.91985984  1
  C  C3  1  0.23580553  0.92271278  0.73993577  1
  C  C4  1  0.32906597  0.01287088  0.14858245  1
  C  C5  1  0.50896804  0.15068356  0.01303887  1
  N  N0  1  0.78926194  0.14568959  0.22530954  1
  N  N1  1  0.83771276  0.22867682  0.14601764  1
  N  N2  1  0.02287512  0.41172031  0.46313780  1
  N  N3  1  0.10298504  0.46271397  0.41350457  1
  N  N4  1  0.08471424  0.73204689  0.05672430  1
  N  N5  1  0.12578592  0.05739801  0.72990615  1
  N  N6  1  0.19637745  0.12135804  0.15963456  1
  N  N7  1  0.51543346  0.16787604  0.12646699  1
  N  N8  1  0.02928416  0.76124195  0.88982799  1
  N  N9  1  0.31805816  0.89165945  0.76047020  1
  N  N10  1  0.35477560  0.93708404  0.22687889  1
  N  N11  1  0.48660071  0.22403456  0.93305269  1
  O  O0  1  0.51744974  0.44829141  0.19140357  1
  O  O1  1  0.84161345  0.18964842  0.44391862  1
  O  O2  1  0.05641714  0.40991491  0.73198530  1
  O  O3  1  0.80211634  0.73106306  0.41131797  1
  O  O4  1  0.60650913  0.37791262  0.85952477  1
  O  O5  1  0.14602414  0.86751234  0.38713203  1
  O  O6  1  0.38426237  0.10108162  0.64769193  1
  O  O7  1  0.86575205  0.64886282  0.10323674  1
  O  O8  1  0.90448783  0.09715283  0.82260349  1
  O  O9  1  0.18094636  0.81492703  0.09657900  1
  O  O10  1  0.42681572  0.07549039  0.34533615  1
  O  O11  1  0.15099031  0.34439050  0.07700126  1
  O  O12  1  0.68151789  0.17281705  0.95749899  1
  O  O13  1  0.18677923  0.95680969  0.17582728  1
  O  O14  1  0.28825552  0.06642799  0.57291785  1
  O  O15  1  0.07626708  0.56737470  0.06542752  1
  O  O16  1  0.12833167  0.72895789  0.55368670  1
  O  O17  1  0.59256109  0.55010684  0.72506744  1
  O  O18  1  0.69780035  0.65942793  0.12129299  1
  O  O19  1  0.52587153  0.11898453  0.65591137  1
  O  O20  1  0.89064677  0.96313859  0.50649469  1
  O  O21  1  0.64272361  0.50352829  0.95913328  1
  O  O22  1  0.74883119  0.60766229  0.35527027  1
  O  O23  1  0.28684960  0.35862135  0.61176023  1
  O  O24  1  0.26216232  0.56852935  0.21145717  1
  O  O25  1  0.96182651  0.20985466  0.56474253  1
  O  O26  1  0.03995787  0.29119412  0.98644183  1
  O  O27  1  0.68117404  0.99041420  0.28933035  1
  O  O28  1  0.98889340  0.72615622  0.54608900  1
  O  O29  1  0.73882129  0.54680155  0.72648882  1
  O  O30  1  0.70486862  0.51066585  0.26472466  1
  O  O31  1  0.51936962  0.26702502  0.51055337  1
  O  O32  1  0.56049836  0.43945706  0.43782035  1
  O  O33  1  0.80942710  0.69011048  0.69160736  1
  O  O34  1  0.17953690  0.73158397  0.82742764  1
  O  O35  1  0.25567538  0.83286512  0.73616460  1
  O  O36  1  0.42324868  0.98809884  0.06992154  1
  O  O37  1  0.51805654  0.07220536  0.98833632  1
  O  O38  1  0.40345317  0.72519199  0.34577273  1
  O  O39  1  0.52153965  0.34953622  0.72703543  1
  O  O40  1  0.90116470  0.72851062  0.85020677  1
  O  O41  1  0.52238284  0.84821568  0.72551641  1
loop_
_geom_bond_atom_site_label_1
_geom_bond_atom_site_label_2
_geom_bond_distance
_geom_bond_site_symmetry_2
H0 N0 1.015720 1_555
H1 N1 1.014551 1_555
H2 N2 1.016034 1_555
H3 N3 1.015962 1_555
H4 N0 1.018141 1_555
H5 N1 1.018635 1_555
H6 N2 1.018211 1_655
H7 N3 1.018642 1_555
H8 N4 1.015527 1_555
H9 N5 1.014279 1_555
H10 N6 1.014252 1_555
H11 N7 1.017156 1_555
H12 N4 1.013484 1_555
H13 N5 1.015615 1_555
H14 N6 1.014924 1_555
H15 N7 1.013084 1_555
H16 N8 1.015453 1_655
H17 N9 1.015967 1_555
H18 N10 1.015532 1_555
H19 N11 1.014956 1_555
H20 N8 1.018309 1_555
H21 N9 1.015467 1_555
H22 N10 1.019801 1_555
H23 N11 1.018437 1_555
H24 O38 0.985420 1_555
H25 O39 0.985491 1_555
H26 O40 0.986088 1_455
H27 O41 0.986522 1_555
H28 O38 0.983387 1_555
H29 O39 0.983114 1_555
H30 O40 0.982937 1_555
H31 O41 0.983647 1_555
C0 O32 1.280622 1_555
C0 N1 1.341936 1_555
C0 N0 1.344811 1_555
C1 O33 1.280548 1_555
C1 N2 1.342511 1_655
C1 N3 1.345152 1_655
C2 O34 1.279626 1_555
C2 N8 1.347425 1_555
C2 N4 1.353468 1_556
C3 O35 1.281647 1_555
C3 N9 1.348552 1_555
C3 N5 1.349599 1_565
C4 O36 1.281427 1_545
C4 N10 1.346435 1_545
C4 N6 1.352174 1_555
C5 O37 1.282345 1_554
C5 N11 1.344643 1_554
C5 N7 1.351854 1_555
O0 Re0 1.756414 1_554
O0 Sr0 2.678119 1_555
O1 Re1 1.756101 1_645
O1 Sr1 2.671139 1_555
O2 Re2 1.753086 1_555
O2 Sr2 2.671776 1_455
O3 Re3 1.754386 1_555
O3 Sr3 2.662668 1_555
O4 Re0 1.755855 1_555
O4 Sr1 2.653412 1_555
O5 Re1 1.751921 1_555
O5 Sr0 2.634631 1_555
O6 Re2 1.752941 1_555
O6 Sr3 2.655252 1_545
O7 Re3 1.753377 1_555
O7 Sr2 2.653642 1_554
O8 Re0 1.763562 1_555
O8 Sr0 2.605581 1_645
O9 Re1 1.765824 1_555
O9 Sr1 2.604198 1_554
O10 Re2 1.769613 1_555
O10 Sr2 2.597352 1_544
O11 Re3 1.768803 1_455
O11 Sr3 2.603812 1_544
O12 Re0 1.742602 1_555
O13 Re1 1.744155 1_555
O14 Re2 1.743104 1_555
O15 Re3 1.742064 1_455
O16 Re4 1.766897 1_555
O16 Sr0 2.595399 1_555
O17 Re5 1.768231 1_555
O17 Sr1 2.606377 1_555
O18 Re6 1.768196 1_555
O18 Sr2 2.622633 1_554
O19 Re7 1.769029 1_555
O19 Sr3 2.641591 1_545
O20 Re4 1.752014 1_655
O21 Re5 1.750244 1_555
O22 Re6 1.751040 1_555
O23 Re7 1.748706 1_555
O24 Re4 1.741457 1_555
O25 Re5 1.741656 1_555
O26 Re6 1.740599 1_456
O27 Re7 1.743289 1_565
O28 Re4 1.759560 1_655
O29 Re5 1.760347 1_555
O30 Re6 1.760974 1_555
O31 Re7 1.760653 1_555
O32 Sr0 2.524807 1_555
O32 Sr1 2.535651 1_555
O33 Sr2 2.530668 1_555
O33 Sr3 2.537130 1_555
O34 Sr0 2.728199 1_555
O34 Sr1 2.773932 1_555
O35 Sr1 2.739263 1_555
O35 Sr0 2.797092 1_555
O36 Sr2 2.723935 1_554
O36 Sr3 2.778926 1_554
O37 Sr3 2.731304 1_545
O37 Sr2 2.797897 1_545
O38 Sr0 2.562464 1_555
O39 Sr1 2.555124 1_555
O40 Sr2 2.553122 1_555
O41 Sr3 2.573857 1_555
