# generated using pymatgen
data_Li3VPCO7
_symmetry_space_group_name_H-M   'P 1'
_cell_length_a   6.61602800
_cell_length_b   8.51418128
_cell_length_c   9.99486171
_cell_angle_alpha   95.26317409
_cell_angle_beta   90.26845506
_cell_angle_gamma   90.38405947
_symmetry_Int_Tables_number   1
_chemical_formula_structural   Li3VPCO7
_chemical_formula_sum   'Li12 V4 P4 C4 O28'
_cell_volume   560.61690713
_cell_formula_units_Z   4
loop_
 _symmetry_equiv_pos_site_id
 _symmetry_equiv_pos_as_xyz
  1  'x, y, z'
loop_
 _atom_site_type_symbol
 _atom_site_label
 _atom_site_symmetry_multiplicity
 _atom_site_fract_x
 _atom_site_fract_y
 _atom_site_fract_z
 _atom_site_occupancy
  Li  Li0  1  0.74069500  0.91004500  0.38412700  1
  Li  Li1  1  0.74401900  0.90229700  0.88283600  1
  Li  Li2  1  0.53147200  0.71582500  0.12245900  1
  Li  Li3  1  0.97180800  0.72053700  0.62529500  1
  Li  Li4  1  0.53231300  0.71822800  0.62533300  1
  Li  Li5  1  0.74930800  0.33691600  0.10593900  1
  Li  Li6  1  0.48099300  0.28042700  0.36561400  1
  Li  Li7  1  0.01846500  0.28094100  0.36532200  1
  Li  Li8  1  0.48591500  0.28024300  0.88731600  1
  Li  Li9  1  0.01067700  0.27826800  0.88721500  1
  Li  Li10  1  0.25186200  0.10631500  0.10808500  1
  Li  Li11  1  0.25137000  0.10007700  0.61571400  1
  V  V0  1  0.98768300  0.72718000  0.13226200  1
  V  V1  1  0.25178800  0.66957800  0.39946500  1
  V  V2  1  0.25463300  0.66810000  0.89035800  1
  V  V3  1  0.75061000  0.32790800  0.60327100  1
  P  P0  1  0.75015000  0.59101300  0.36110800  1
  P  P1  1  0.74900100  0.58303800  0.86053000  1
  P  P2  1  0.24999200  0.40682100  0.13920100  1
  P  P3  1  0.25092000  0.40873200  0.63850700  1
  C  C0  1  0.24609600  0.96509700  0.34686700  1
  C  C1  1  0.24770600  0.96410900  0.84805200  1
  C  C2  1  0.74795300  0.03945300  0.15040600  1
  C  C3  1  0.75055700  0.03512200  0.65312100  1
  O  O0  1  0.25299500  0.92801100  0.46935000  1
  O  O1  1  0.74750700  0.88944400  0.18291600  1
  O  O2  1  0.24685000  0.92309600  0.97138900  1
  O  O3  1  0.23898400  0.84597200  0.25168300  1
  O  O4  1  0.75126700  0.88867600  0.68028200  1
  O  O5  1  0.24893100  0.85059800  0.75075400  1
  O  O6  1  0.93401600  0.69458600  0.41454800  1
  O  O7  1  0.56838000  0.69311200  0.41426300  1
  O  O8  1  0.93459200  0.68655000  0.91618900  1
  O  O9  1  0.57056500  0.69101900  0.91178600  1
  O  O10  1  0.24986800  0.57611600  0.08675000  1
  O  O11  1  0.75301600  0.57401400  0.20381500  1
  O  O12  1  0.25214800  0.57637500  0.58930800  1
  O  O13  1  0.75413600  0.56938000  0.70340500  1
  O  O14  1  0.25048500  0.43357100  0.29674200  1
  O  O15  1  0.74989100  0.42485900  0.41024800  1
  O  O16  1  0.25151200  0.43001900  0.79539700  1
  O  O17  1  0.74692500  0.41969300  0.91189300  1
  O  O18  1  0.06214200  0.30912300  0.09020400  1
  O  O19  1  0.43691800  0.31163100  0.08996500  1
  O  O20  1  0.43268400  0.30696500  0.58504300  1
  O  O21  1  0.06765900  0.30651800  0.58418500  1
  O  O22  1  0.74472100  0.14920900  0.24793500  1
  O  O23  1  0.24826200  0.10736400  0.31455600  1
  O  O24  1  0.75112900  0.14854100  0.74904200  1
  O  O25  1  0.75069500  0.06665300  0.02716500  1
  O  O26  1  0.24877800  0.10950700  0.82279800  1
  O  O27  1  0.74896300  0.07312900  0.52998200  1
loop_
_geom_bond_atom_site_label_1
_geom_bond_atom_site_label_2
_geom_bond_distance
_geom_bond_site_symmetry_2
Li0 O27 1.919129 1_565
Li0 O1 2.003363 1_555
Li0 O7 2.208825 1_555
Li0 O6 2.285543 1_555
Li0 O22 2.551122 1_565
Li1 O25 1.915549 1_566
Li1 O4 2.017983 1_555
Li1 O9 2.169673 1_555
Li1 O8 2.283533 1_555
Li2 O1 2.095916 1_555
Li2 O11 2.111895 1_555
Li2 O9 2.114119 1_554
Li2 O10 2.213509 1_555
Li2 O3 2.535801 1_555
Li3 O4 2.090835 1_555
Li3 O6 2.111195 1_555
Li3 O13 2.123624 1_555
Li3 O12 2.243159 1_655
Li3 O5 2.420056 1_655
Li4 O4 2.079491 1_555
Li4 O7 2.115605 1_555
Li4 O13 2.136454 1_555
Li4 O12 2.215411 1_555
Li4 O5 2.479491 1_555
Li5 O19 2.080398 1_555
Li5 O18 2.089797 1_655
Li5 O17 2.123467 1_554
Li5 O11 2.160910 1_555
Li5 O22 2.232748 1_555
Li5 O25 2.362809 1_555
Li6 O23 2.150979 1_555
Li6 O14 2.163619 1_555
Li6 O15 2.176876 1_555
Li6 O20 2.209025 1_555
Li6 O22 2.341005 1_555
Li7 O23 2.157027 1_555
Li7 O14 2.159052 1_555
Li7 O15 2.190015 1_455
Li7 O21 2.200799 1_555
Li7 O22 2.371925 1_455
Li8 O19 2.046205 1_556
Li8 O17 2.089753 1_555
Li8 O26 2.185964 1_555
Li8 O16 2.259062 1_555
Li8 O24 2.451740 1_555
Li9 O18 2.048344 1_556
Li9 O17 2.129189 1_455
Li9 O26 2.197895 1_555
Li9 O16 2.292163 1_555
Li9 O24 2.397578 1_455
Li10 O2 1.977145 1_544
Li10 O23 2.063099 1_555
Li10 O19 2.149212 1_555
Li10 O18 2.161635 1_555
Li11 O0 1.973211 1_545
Li11 O26 2.064116 1_555
Li11 O20 2.170246 1_555
Li11 O21 2.189221 1_555
C0 O23 1.281909 1_565
C0 O0 1.292687 1_555
C0 O3 1.325861 1_555
C1 O26 1.285883 1_565
C1 O5 1.306739 1_555
C1 O2 1.311723 1_555
C2 O25 1.274254 1_555
C2 O22 1.287351 1_555
C2 O1 1.346453 1_545
C3 O24 1.296819 1_555
C3 O4 1.300217 1_545
C3 O27 1.300993 1_555
O0 V1 2.246602 1_555
O1 V0 2.144432 1_555
O2 V2 2.247549 1_555
O3 V1 2.202714 1_555
O3 V0 2.224703 1_455
O5 V2 2.181917 1_555
O6 P0 1.560714 1_555
O6 V1 2.119241 1_655
O7 P0 1.555451 1_555
O7 V1 2.106022 1_555
O8 P1 1.575760 1_555
O8 V2 2.139359 1_655
O8 V0 2.182019 1_556
O9 P1 1.560502 1_555
O9 V2 2.106090 1_555
O10 P2 1.578331 1_555
O10 V2 2.179369 1_554
O10 V0 2.190909 1_455
O11 P0 1.565709 1_555
O11 V0 2.185614 1_555
O12 P3 1.551718 1_555
O12 V1 2.122800 1_555
O13 P1 1.564614 1_555
O13 V3 2.202433 1_555
O14 P2 1.570159 1_555
O14 V1 2.170967 1_555
O15 P0 1.539465 1_555
O15 V3 2.166909 1_555
O16 P3 1.561914 1_555
O16 V2 2.157902 1_555
O17 P1 1.526011 1_555
O18 P2 1.543390 1_555
O19 P2 1.540921 1_555
O20 P3 1.554828 1_555
O20 V3 2.115356 1_555
O21 P3 1.554095 1_555
O21 V3 2.114711 1_455
O24 V3 2.205267 1_555
O27 V3 2.224941 1_555
