# generated using pymatgen
data_Li2SiNiO4
_symmetry_space_group_name_H-M   'P 1'
_cell_length_a   4.98187600
_cell_length_b   10.20668400
_cell_length_c   13.31373400
_cell_angle_alpha   90.00000000
_cell_angle_beta   90.00000000
_cell_angle_gamma   90.00000000
_symmetry_Int_Tables_number   1
_chemical_formula_structural   Li2SiNiO4
_chemical_formula_sum   'Li16 Si8 Ni8 O32'
_cell_volume   676.98252538
_cell_formula_units_Z   8
loop_
 _symmetry_equiv_pos_site_id
 _symmetry_equiv_pos_as_xyz
  1  'x, y, z'
loop_
 _atom_site_type_symbol
 _atom_site_label
 _atom_site_symmetry_multiplicity
 _atom_site_fract_x
 _atom_site_fract_y
 _atom_site_fract_z
 _atom_site_occupancy
  Li  Li0  1  0.02139400  0.97813200  0.55241700  1
  Li  Li1  1  0.51553800  0.00487400  0.94403900  1
  Li  Li2  1  0.01038600  0.21343200  0.19186400  1
  Li  Li3  1  0.54007000  0.17940200  0.29231100  1
  Li  Li4  1  0.01038600  0.28656800  0.69186400  1
  Li  Li5  1  0.54007000  0.32059800  0.79231100  1
  Li  Li6  1  0.51553800  0.49512600  0.44403900  1
  Li  Li7  1  0.02139400  0.52186800  0.05241700  1
  Li  Li8  1  0.48446200  0.50487400  0.94403900  1
  Li  Li9  1  0.97860600  0.47813100  0.55241700  1
  Li  Li10  1  0.45993000  0.67940200  0.29231100  1
  Li  Li11  1  0.98961400  0.71343200  0.19186400  1
  Li  Li12  1  0.45993000  0.82059800  0.79231100  1
  Li  Li13  1  0.98961400  0.78656800  0.69186400  1
  Li  Li14  1  0.97860600  0.02186800  0.05241700  1
  Li  Li15  1  0.48446200  0.99512600  0.44403900  1
  Si  Si0  1  0.01500200  0.02194000  0.81078100  1
  Si  Si1  1  0.51167800  0.22903000  0.06866000  1
  Si  Si2  1  0.51167800  0.27097000  0.56866000  1
  Si  Si3  1  0.01500200  0.47806000  0.31078100  1
  Si  Si4  1  0.98499800  0.52194000  0.81078100  1
  Si  Si5  1  0.48832200  0.72903000  0.06866000  1
  Si  Si6  1  0.48832200  0.77097000  0.56866000  1
  Si  Si7  1  0.98499800  0.97806000  0.31078100  1
  Ni  Ni0  1  0.51211200  0.03437300  0.68029800  1
  Ni  Ni1  1  0.03103400  0.22143400  0.43617300  1
  Ni  Ni2  1  0.03103400  0.27856600  0.93617300  1
  Ni  Ni3  1  0.51211200  0.46562700  0.18029800  1
  Ni  Ni4  1  0.48788800  0.53437300  0.68029800  1
  Ni  Ni5  1  0.96896600  0.72143400  0.43617300  1
  Ni  Ni6  1  0.96896600  0.77856600  0.93617300  1
  Ni  Ni7  1  0.48788800  0.96562700  0.18029800  1
  O  O0  1  0.30620400  0.01870900  0.30876300  1
  O  O1  1  0.84483000  0.03973500  0.20871900  1
  O  O2  1  0.31049500  0.10719800  0.09624700  1
  O  O3  1  0.85584200  0.05058700  0.41126500  1
  O  O4  1  0.09342500  0.17911700  0.81250800  1
  O  O5  1  0.65317700  0.21243700  0.67085300  1
  O  O6  1  0.32593200  0.14802600  0.52469700  1
  O  O7  1  0.73643200  0.17008100  0.99086800  1
  O  O8  1  0.32593200  0.35197400  0.02469700  1
  O  O9  1  0.73643200  0.32991900  0.49086800  1
  O  O10  1  0.65317700  0.28756300  0.17085300  1
  O  O11  1  0.09342500  0.32088300  0.31250800  1
  O  O12  1  0.31049500  0.39280200  0.59624700  1
  O  O13  1  0.85584200  0.44941300  0.91126500  1
  O  O14  1  0.30620400  0.48129100  0.80876300  1
  O  O15  1  0.84483000  0.46026500  0.70871900  1
  O  O16  1  0.15517000  0.53973500  0.20871900  1
  O  O17  1  0.69379600  0.51870900  0.30876300  1
  O  O18  1  0.14415800  0.55058700  0.41126500  1
  O  O19  1  0.68950500  0.60719800  0.09624700  1
  O  O20  1  0.34682300  0.71243700  0.67085300  1
  O  O21  1  0.90657500  0.67911700  0.81250800  1
  O  O22  1  0.26356800  0.67008100  0.99086800  1
  O  O23  1  0.67406800  0.64802600  0.52469700  1
  O  O24  1  0.67406800  0.85197400  0.02469700  1
  O  O25  1  0.26356800  0.82991900  0.49086800  1
  O  O26  1  0.34682300  0.78756300  0.17085300  1
  O  O27  1  0.90657500  0.82088300  0.31250800  1
  O  O28  1  0.14415800  0.94941300  0.91126500  1
  O  O29  1  0.68950500  0.89280200  0.59624700  1
  O  O30  1  0.15517000  0.96026500  0.70871900  1
  O  O31  1  0.69379600  0.98129100  0.80876300  1
loop_
_geom_bond_atom_site_label_1
_geom_bond_atom_site_label_2
_geom_bond_distance
_geom_bond_site_symmetry_2
Li0 O29 1.957774 1_455
Li0 O25 2.101319 1_555
Li0 O3 2.181455 1_465
Li0 O30 2.192676 1_555
Li0 O6 2.333443 1_565
Li1 O28 1.983421 1_545
Li1 O31 2.022447 1_545
Li1 O24 2.052413 1_546
Li1 O7 2.107857 1_555
Li1 O2 2.498146 1_556
Li2 O10 1.953872 1_455
Li2 O1 1.968169 1_455
Li2 O11 1.988437 1_555
Li2 O2 2.243127 1_555
Li3 O0 2.023730 1_555
Li3 O10 2.037434 1_555
Li3 O1 2.361337 1_555
Li4 O5 1.953872 1_455
Li4 O15 1.968169 1_455
Li4 O4 1.988437 1_555
Li4 O12 2.243127 1_555
Li5 O14 2.023730 1_555
Li5 O5 2.037434 1_555
Li5 O15 2.361337 1_555
Li6 O18 1.983421 1_555
Li6 O17 2.022447 1_555
Li6 O23 2.052413 1_555
Li6 O9 2.107857 1_555
Li6 O12 2.498146 1_555
Li7 O19 1.957774 1_455
Li7 O22 2.101319 1_554
Li7 O13 2.181455 1_454
Li7 O16 2.192676 1_555
Li7 O8 2.333443 1_555
Li8 O13 1.983421 1_555
Li8 O14 2.022447 1_555
Li8 O8 2.052413 1_556
Li8 O22 2.107857 1_555
Li8 O19 2.498146 1_556
Li9 O12 1.957770 1_655
Li9 O9 2.101312 1_555
Li9 O18 2.181458 1_655
Li9 O15 2.192675 1_555
Li9 O23 2.333450 1_555
Li10 O17 2.023730 1_555
Li10 O26 2.037434 1_555
Li10 O16 2.361337 1_555
Li11 O26 1.953872 1_655
Li11 O16 1.968169 1_655
Li11 O27 1.988437 1_555
Li11 O19 2.243127 1_555
Li12 O31 2.023730 1_555
Li12 O20 2.037434 1_555
Li12 O30 2.361337 1_555
Li13 O20 1.953872 1_655
Li13 O30 1.968169 1_655
Li13 O21 1.988437 1_555
Li13 O29 2.243127 1_555
Li14 O2 1.957774 1_655
Li14 O7 2.101319 1_554
Li14 O28 2.181455 1_644
Li14 O1 2.192676 1_555
Li14 O24 2.333443 1_545
Li15 O3 1.983421 1_565
Li15 O0 2.022447 1_565
Li15 O6 2.052413 1_565
Li15 O25 2.107857 1_555
Li15 O29 2.498146 1_555
Ni0 O5 1.952638 1_555
Ni0 O30 1.969126 1_545
Ni0 O31 2.009499 1_545
Ni0 O29 2.030071 1_545
Ni0 O6 2.549040 1_555
Ni1 O11 1.959005 1_555
Ni1 O9 1.977467 1_455
Ni1 O3 1.978003 1_455
Ni1 O6 2.027025 1_555
Ni2 O4 1.959005 1_555
Ni2 O7 1.977467 1_455
Ni2 O13 1.978003 1_455
Ni2 O8 2.027025 1_556
Ni3 O10 1.952638 1_555
Ni3 O16 1.969126 1_555
Ni3 O17 2.009499 1_555
Ni3 O19 2.030071 1_555
Ni3 O8 2.549040 1_555
Ni4 O20 1.952638 1_555
Ni4 O15 1.969126 1_555
Ni4 O14 2.009499 1_555
Ni4 O12 2.030071 1_555
Ni4 O23 2.549040 1_555
Ni5 O27 1.959005 1_555
Ni5 O25 1.977467 1_655
Ni5 O18 1.978003 1_655
Ni5 O23 2.027025 1_555
Ni6 O21 1.959005 1_555
Ni6 O22 1.977467 1_655
Ni6 O28 1.978003 1_655
Ni6 O24 2.027025 1_556
Ni7 O26 1.952638 1_555
Ni7 O1 1.969126 1_565
Ni7 O0 2.009499 1_565
Ni7 O2 2.030071 1_565
Ni7 O24 2.549040 1_555
O0 Si7 1.653337 1_445
O1 Si7 1.652361 1_545
O2 Si1 1.638821 1_555
O3 Si7 1.658841 1_545
O4 Si0 1.651305 1_555
O5 Si2 1.644688 1_555
O6 Si2 1.665394 1_555
O7 Si1 1.639637 1_556
O8 Si1 1.665394 1_555
O9 Si2 1.639637 1_555
O10 Si1 1.644688 1_555
O11 Si3 1.651305 1_555
O12 Si2 1.638821 1_555
O13 Si4 1.658841 1_555
O14 Si4 1.653337 1_455
O15 Si4 1.652361 1_555
O16 Si3 1.652361 1_555
O17 Si3 1.653337 1_655
O18 Si3 1.658841 1_555
O19 Si5 1.638821 1_555
O20 Si6 1.644688 1_555
O21 Si4 1.651305 1_555
O22 Si5 1.639637 1_556
O23 Si6 1.665394 1_555
O24 Si5 1.665394 1_555
O25 Si6 1.639637 1_555
O26 Si5 1.644688 1_555
O27 Si7 1.651305 1_555
O28 Si0 1.658841 1_565
O29 Si6 1.638821 1_555
O30 Si0 1.652361 1_565
O31 Si0 1.653337 1_665
