# generated using pymatgen
data_Na3CoO3
_symmetry_space_group_name_H-M   'P 1'
_cell_length_a   7.51691001
_cell_length_b   7.51692301
_cell_length_c   7.51687300
_cell_angle_alpha   90.00269825
_cell_angle_beta   89.99814022
_cell_angle_gamma   89.99573156
_symmetry_Int_Tables_number   1
_chemical_formula_structural   Na3CoO3
_chemical_formula_sum   'Na12 Co4 O12'
_cell_volume   424.73364413
_cell_formula_units_Z   4
loop_
 _symmetry_equiv_pos_site_id
 _symmetry_equiv_pos_as_xyz
  1  'x, y, z'
loop_
 _atom_site_type_symbol
 _atom_site_label
 _atom_site_symmetry_multiplicity
 _atom_site_fract_x
 _atom_site_fract_y
 _atom_site_fract_z
 _atom_site_occupancy
  Na  Na0  1  0.03270600  0.03270700  0.03269800  1
  Na  Na1  1  0.21238000  0.28761200  0.71238100  1
  Na  Na2  1  0.23302500  0.73303800  0.76697600  1
  Na  Na3  1  0.26696300  0.26696700  0.26697300  1
  Na  Na4  1  0.28762200  0.71238400  0.21238100  1
  Na  Na5  1  0.46729400  0.96728600  0.53271100  1
  Na  Na6  1  0.53271200  0.46729300  0.96729100  1
  Na  Na7  1  0.71238600  0.21238000  0.28761900  1
  Na  Na8  1  0.73302500  0.76697600  0.23303300  1
  Na  Na9  1  0.76696800  0.23302400  0.73303500  1
  Na  Na10  1  0.78761600  0.78762400  0.78761500  1
  Na  Na11  1  0.96729100  0.53270700  0.46728600  1
  Co  Co0  1  0.97841700  0.02159000  0.52157900  1
  Co  Co1  1  0.52158200  0.97842400  0.02158400  1
  Co  Co2  1  0.47841800  0.47841100  0.47842000  1
  Co  Co3  1  0.02158500  0.52157400  0.97841600  1
  O  O0  1  0.00147500  0.22354000  0.40122300  1
  O  O1  1  0.09878800  0.99852100  0.72354100  1
  O  O2  1  0.22354200  0.40122200  0.00147800  1
  O  O3  1  0.27646700  0.59877500  0.50147100  1
  O  O4  1  0.40121300  0.00148000  0.22355200  1
  O  O5  1  0.49852400  0.77643500  0.90120900  1
  O  O6  1  0.50147300  0.27647700  0.59877000  1
  O  O7  1  0.59877800  0.50147400  0.27646900  1
  O  O8  1  0.72355300  0.09878800  0.99852000  1
  O  O9  1  0.77645200  0.90121700  0.49852900  1
  O  O10  1  0.90121700  0.49852200  0.77645200  1
  O  O11  1  0.99852500  0.72355300  0.09878800  1
loop_
_geom_bond_atom_site_label_1
_geom_bond_atom_site_label_2
_geom_bond_distance
_geom_bond_site_symmetry_2
Na0 O8 2.390191 1_454
Na0 O1 2.390212 1_544
Na0 O11 2.390284 1_445
Na1 O6 2.336337 1_555
Na1 O2 2.336362 1_556
Na1 O1 2.336377 1_545
Na1 O10 2.866283 1_455
Na1 O0 2.866387 1_555
Na1 O3 2.866504 1_555
Na2 O1 2.259876 1_555
Na2 O5 2.260014 1_555
Na2 O3 2.260092 1_555
Na3 O4 2.259894 1_555
Na3 O0 2.259987 1_555
Na3 O2 2.260079 1_555
Na4 O3 2.336378 1_555
Na4 O11 2.336379 1_455
Na4 O4 2.336407 1_565
Na4 O7 2.866312 1_555
Na4 O2 2.866355 1_555
Na4 O5 2.866387 1_554
Na5 O9 2.390191 1_555
Na5 O4 2.390286 1_565
Na5 O6 2.390462 1_565
Na6 O5 2.390155 1_555
Na6 O2 2.390363 1_556
Na6 O7 2.390375 1_556
Na7 O8 2.336318 1_554
Na7 O7 2.336323 1_555
Na7 O0 2.336360 1_655
Na7 O6 2.866285 1_555
Na7 O9 2.866436 1_545
Na7 O4 2.866516 1_555
Na8 O9 2.259983 1_555
Na8 O11 2.259988 1_555
Na8 O7 2.260160 1_555
Na9 O8 2.259945 1_555
Na9 O10 2.260102 1_555
Na9 O6 2.260126 1_555
Na10 O9 2.336309 1_555
Na10 O5 2.336312 1_555
Na10 O10 2.336354 1_555
Na10 O8 2.866279 1_565
Na10 O11 2.866492 1_556
Na10 O1 2.866505 1_655
Na11 O0 2.390256 1_655
Na11 O10 2.390295 1_555
Na11 O3 2.390412 1_655
Co0 O0 1.775707 1_655
Co0 O1 1.775825 1_645
Co0 O9 1.775877 1_545
Co1 O4 1.775782 1_565
Co1 O8 1.775890 1_564
Co1 O5 1.775964 1_554
Co2 O6 1.775563 1_555
Co2 O3 1.775629 1_555
Co2 O7 1.775670 1_555
Co3 O2 1.775647 1_556
Co3 O10 1.775813 1_455
Co3 O11 1.775862 1_456
