# generated using pymatgen
data_Li3V2F12
_symmetry_space_group_name_H-M   'P 1'
_cell_length_a   8.84241100
_cell_length_b   5.03045500
_cell_length_c   9.72815648
_cell_angle_alpha   88.37122966
_cell_angle_beta   90.00000000
_cell_angle_gamma   90.00000000
_symmetry_Int_Tables_number   1
_chemical_formula_structural   Li3V2F12
_chemical_formula_sum   'Li6 V4 F24'
_cell_volume   432.54670628
_cell_formula_units_Z   2
loop_
 _symmetry_equiv_pos_site_id
 _symmetry_equiv_pos_as_xyz
  1  'x, y, z'
loop_
 _atom_site_type_symbol
 _atom_site_label
 _atom_site_symmetry_multiplicity
 _atom_site_fract_x
 _atom_site_fract_y
 _atom_site_fract_z
 _atom_site_occupancy
  Li  Li0  1  0.39284600  0.98405600  0.89171500  1
  Li  Li1  1  0.85008900  0.50349100  0.61768700  1
  Li  Li2  1  0.31496900  0.01797200  0.60229800  1
  Li  Li3  1  0.60715400  0.98405600  0.39171500  1
  Li  Li4  1  0.14991100  0.50349100  0.11768700  1
  Li  Li5  1  0.68503100  0.01797200  0.10229800  1
  V  V0  1  0.00716100  0.00234200  0.86840400  1
  V  V1  1  0.50616300  0.49726300  0.63302900  1
  V  V2  1  0.99283900  0.00234200  0.36840400  1
  V  V3  1  0.49383700  0.49726300  0.13302900  1
  F  F0  1  0.13922700  0.17728900  0.97860300  1
  F  F1  1  0.01852400  0.71177600  0.98342000  1
  F  F2  1  0.85164100  0.12491300  0.96906900  1
  F  F3  1  0.17286400  0.88507600  0.77436700  1
  F  F4  1  0.99664600  0.28967300  0.75193200  1
  F  F5  1  0.88545200  0.82182200  0.75648500  1
  F  F6  1  0.49394000  0.78592100  0.75048200  1
  F  F7  1  0.36865000  0.28933000  0.74122900  1
  F  F8  1  0.67360700  0.35212900  0.71697200  1
  F  F9  1  0.35159600  0.66298400  0.53728200  1
  F  F10  1  0.49110300  0.20190000  0.51201300  1
  F  F11  1  0.65545400  0.67912000  0.52022800  1
  F  F12  1  0.86077300  0.17728900  0.47860300  1
  F  F13  1  0.98147600  0.71177600  0.48342000  1
  F  F14  1  0.14835900  0.12491300  0.46906900  1
  F  F15  1  0.82713600  0.88507600  0.27436700  1
  F  F16  1  0.00335400  0.28967300  0.25193200  1
  F  F17  1  0.11454800  0.82182200  0.25648500  1
  F  F18  1  0.50606000  0.78592100  0.25048200  1
  F  F19  1  0.63135000  0.28933000  0.24122900  1
  F  F20  1  0.32639300  0.35212900  0.21697200  1
  F  F21  1  0.64840400  0.66298400  0.03728200  1
  F  F22  1  0.50889700  0.20190000  0.01201300  1
  F  F23  1  0.34454600  0.67912000  0.02022800  1
loop_
_geom_bond_atom_site_label_1
_geom_bond_atom_site_label_2
_geom_bond_distance
_geom_bond_site_symmetry_2
F0 V0 1.827871 1_555
F0 Li4 2.158363 1_556
F1 V0 1.818118 1_565
F1 Li4 2.018868 1_556
F2 V0 1.806821 1_655
F2 Li5 2.024843 1_556
F3 V0 1.833681 1_565
F3 Li2 2.182710 1_565
F3 Li0 2.316706 1_555
F4 V0 1.813439 1_655
F4 Li1 2.112342 1_555
F5 V0 1.795680 1_665
F5 Li1 2.146669 1_555
F6 V1 1.876187 1_555
F6 Li0 1.938572 1_555
F6 Li2 2.418571 1_565
F7 V1 1.902100 1_555
F7 Li2 2.005051 1_555
F7 Li0 2.102237 1_545
F8 V1 1.832538 1_555
F8 Li1 1.976381 1_555
F9 V1 1.840220 1_555
F9 Li2 1.938568 1_565
F10 Li3 1.922596 1_545
F10 V1 1.926330 1_555
F10 Li2 2.001736 1_555
F11 V1 1.930452 1_555
F11 Li3 1.997355 1_555
F11 Li1 2.143320 1_555
F12 V2 1.827871 1_555
F12 Li1 2.158363 1_555
F13 V2 1.818118 1_565
F13 Li1 2.018868 1_555
F14 V2 1.806821 1_455
F14 Li2 2.024843 1_555
F15 V2 1.833681 1_565
F15 Li5 2.182710 1_565
F15 Li3 2.316706 1_555
F16 V2 1.813439 1_455
F16 Li4 2.112342 1_555
F17 V2 1.795680 1_465
F17 Li4 2.146669 1_555
F18 V3 1.876187 1_555
F18 Li3 1.938572 1_555
F18 Li5 2.418571 1_565
F19 V3 1.902100 1_555
F19 Li5 2.005051 1_555
F19 Li3 2.102237 1_545
F20 V3 1.832538 1_555
F20 Li4 1.976381 1_555
F21 V3 1.840220 1_555
F21 Li5 1.938568 1_565
F22 Li0 1.922596 1_544
F22 V3 1.926330 1_555
F22 Li5 2.001736 1_555
F23 V3 1.930452 1_555
F23 Li0 1.997355 1_554
F23 Li4 2.143320 1_555
