# generated using pymatgen
data_Li3Fe3SiO8
_symmetry_space_group_name_H-M   'P 1'
_cell_length_a   5.82999100
_cell_length_b   5.08282800
_cell_length_c   5.18591178
_cell_angle_alpha   71.38610216
_cell_angle_beta   90.00000000
_cell_angle_gamma   90.00000000
_symmetry_Int_Tables_number   1
_chemical_formula_structural   Li3Fe3SiO8
_chemical_formula_sum   'Li3 Fe3 Si1 O8'
_cell_volume   145.63480739
_cell_formula_units_Z   1
loop_
 _symmetry_equiv_pos_site_id
 _symmetry_equiv_pos_as_xyz
  1  'x, y, z'
loop_
 _atom_site_type_symbol
 _atom_site_label
 _atom_site_symmetry_multiplicity
 _atom_site_fract_x
 _atom_site_fract_y
 _atom_site_fract_z
 _atom_site_occupancy
  Li  Li0  1  0.50000000  0.00000000  0.00000000  1
  Li  Li1  1  0.76191900  0.50000000  0.00000000  1
  Li  Li2  1  0.23808100  0.50000000  0.00000000  1
  Fe  Fe0  1  0.75396000  0.00000000  0.50000000  1
  Fe  Fe1  1  0.24604000  0.00000000  0.50000000  1
  Fe  Fe2  1  0.50000000  0.50000000  0.50000000  1
  Si  Si0  1  0.00000000  0.50000000  0.50000000  1
  O  O0  1  0.00000000  0.72325800  0.70373900  1
  O  O1  1  0.76797900  0.71903700  0.29177500  1
  O  O2  1  0.50000000  0.76789400  0.73542200  1
  O  O3  1  0.76797900  0.28096300  0.70822500  1
  O  O4  1  0.23202100  0.71903700  0.29177500  1
  O  O5  1  0.00000000  0.27674200  0.29626100  1
  O  O6  1  0.50000000  0.23210600  0.26457800  1
  O  O7  1  0.23202100  0.28096300  0.70822500  1
loop_
_geom_bond_atom_site_label_1
_geom_bond_atom_site_label_2
_geom_bond_distance
_geom_bond_site_symmetry_2
Li0 O6 2.075518 1_555
Li0 O2 2.075518 1_544
Li0 O3 2.321711 1_554
Li0 O1 2.321711 1_545
Li0 O7 2.321711 1_554
Li0 O4 2.321711 1_545
Li1 O0 2.112295 1_654
Li1 O5 2.112295 1_655
Li1 O1 2.146086 1_555
Li1 O3 2.146086 1_554
Li1 O2 2.208102 1_554
Li1 O6 2.208102 1_555
Li2 O5 2.112295 1_555
Li2 O0 2.112295 1_554
Li2 O4 2.146086 1_555
Li2 O7 2.146086 1_554
Li2 O2 2.208102 1_554
Li2 O6 2.208102 1_555
Fe0 O6 2.038385 1_555
Fe0 O2 2.038385 1_545
Fe0 O3 2.048561 1_555
Fe0 O1 2.048561 1_545
Fe0 O5 2.050300 1_655
Fe0 O0 2.050300 1_645
Fe1 O6 2.038385 1_555
Fe1 O2 2.038385 1_545
Fe1 O7 2.048561 1_555
Fe1 O4 2.048561 1_545
Fe1 O0 2.050300 1_545
Fe1 O5 2.050300 1_555
Fe2 O1 2.019631 1_555
Fe2 O3 2.019631 1_555
Fe2 O4 2.019631 1_555
Fe2 O7 2.019631 1_555
Fe2 O2 2.099026 1_555
Fe2 O6 2.099026 1_555
O0 Si0 1.780303 1_555
O1 Si0 1.862209 1_655
O3 Si0 1.862209 1_655
O4 Si0 1.862209 1_555
O5 Si0 1.780303 1_555
O7 Si0 1.862209 1_555
