# generated using pymatgen
data_HgBrO4
_symmetry_space_group_name_H-M   'P 1'
_cell_length_a   4.77704200
_cell_length_b   7.29890400
_cell_length_c   11.86230000
_cell_angle_alpha   90.00000000
_cell_angle_beta   90.00000000
_cell_angle_gamma   90.00000000
_symmetry_Int_Tables_number   1
_chemical_formula_structural   HgBrO4
_chemical_formula_sum   'Hg4 Br4 O16'
_cell_volume   413.60484210
_cell_formula_units_Z   4
loop_
 _symmetry_equiv_pos_site_id
 _symmetry_equiv_pos_as_xyz
  1  'x, y, z'
loop_
 _atom_site_type_symbol
 _atom_site_label
 _atom_site_symmetry_multiplicity
 _atom_site_fract_x
 _atom_site_fract_y
 _atom_site_fract_z
 _atom_site_occupancy
  Hg  Hg0  1  0.07602100  0.00000000  0.75000000  1
  Hg  Hg1  1  0.92397900  0.50000000  0.25000000  1
  Hg  Hg2  1  0.92397900  0.00000000  0.25000000  1
  Hg  Hg3  1  0.07602100  0.50000000  0.75000000  1
  Br  Br0  1  0.49964900  0.25000000  0.94908100  1
  Br  Br1  1  0.50035100  0.75000000  0.05091900  1
  Br  Br2  1  0.49964900  0.75000000  0.55091900  1
  Br  Br3  1  0.50035100  0.25000000  0.44908100  1
  O  O0  1  0.08324800  0.25000000  0.67173500  1
  O  O1  1  0.91675200  0.75000000  0.32826500  1
  O  O2  1  0.08324800  0.75000000  0.82826500  1
  O  O3  1  0.91675200  0.25000000  0.17173500  1
  O  O4  1  0.14613200  0.25000000  0.94645400  1
  O  O5  1  0.85386800  0.75000000  0.05354600  1
  O  O6  1  0.14613200  0.75000000  0.55354600  1
  O  O7  1  0.85386800  0.25000000  0.44645400  1
  O  O8  1  0.42048200  0.06407500  0.36995600  1
  O  O9  1  0.57951800  0.56407500  0.63004400  1
  O  O10  1  0.42048200  0.93592500  0.13004400  1
  O  O11  1  0.57951800  0.43592500  0.86995600  1
  O  O12  1  0.57951800  0.93592500  0.63004400  1
  O  O13  1  0.42048200  0.43592500  0.36995600  1
  O  O14  1  0.57951800  0.06407500  0.86995600  1
  O  O15  1  0.42048200  0.56407500  0.13004400  1
loop_
_geom_bond_atom_site_label_1
_geom_bond_atom_site_label_2
_geom_bond_distance
_geom_bond_site_symmetry_2
Hg0 O2 2.047620 1_545
Hg0 O0 2.047620 1_555
Hg1 O1 2.047620 1_555
Hg1 O3 2.047620 1_555
Hg2 O1 2.047620 1_545
Hg2 O3 2.047620 1_555
Hg3 O2 2.047620 1_555
Hg3 O0 2.047620 1_555
Br0 O4 1.689053 1_555
Br0 O14 1.693556 1_555
Br0 O11 1.693556 1_555
Br1 O5 1.689053 1_555
Br1 O15 1.693556 1_555
Br1 O10 1.693556 1_555
Br2 O6 1.689053 1_555
Br2 O9 1.693556 1_555
Br2 O12 1.693556 1_555
Br3 O7 1.689053 1_555
Br3 O13 1.693556 1_555
Br3 O8 1.693556 1_555
