# generated using pymatgen
data_Li3Fe2OF5
_symmetry_space_group_name_H-M   'P 1'
_cell_length_a   5.25228500
_cell_length_b   5.26299392
_cell_length_c   9.44360798
_cell_angle_alpha   100.50112318
_cell_angle_beta   100.42712994
_cell_angle_gamma   109.15413559
_symmetry_Int_Tables_number   1
_chemical_formula_structural   Li3Fe2OF5
_chemical_formula_sum   'Li6 Fe4 O2 F10'
_cell_volume   234.17631326
_cell_formula_units_Z   2
loop_
 _symmetry_equiv_pos_site_id
 _symmetry_equiv_pos_as_xyz
  1  'x, y, z'
loop_
 _atom_site_type_symbol
 _atom_site_label
 _atom_site_symmetry_multiplicity
 _atom_site_fract_x
 _atom_site_fract_y
 _atom_site_fract_z
 _atom_site_occupancy
  Li  Li0  1  0.79581600  0.53808600  0.08337900  1
  Li  Li1  1  0.87469900  0.12223200  0.24090600  1
  Li  Li2  1  0.54010200  0.78797400  0.58272600  1
  Li  Li3  1  0.46705600  0.21725300  0.43702400  1
  Li  Li4  1  0.11385500  0.86242100  0.72937400  1
  Li  Li5  1  0.21647100  0.46268900  0.92663700  1
  Fe  Fe0  1  0.29097400  0.04417400  0.08264700  1
  Fe  Fe1  1  0.03947400  0.29059600  0.58329100  1
  Fe  Fe2  1  0.36988600  0.62347500  0.23788700  1
  Fe  Fe3  1  0.70962100  0.96363500  0.92864200  1
  O  O0  1  0.04452100  0.29543500  0.08537000  1
  O  O1  1  0.54587200  0.79480800  0.08298400  1
  F  F0  1  0.12818100  0.88815400  0.25274800  1
  F  F1  1  0.80481600  0.52478900  0.58326000  1
  F  F2  1  0.61701200  0.35781300  0.24857500  1
  F  F3  1  0.67849400  0.97113800  0.42221400  1
  F  F4  1  0.35826000  0.65118900  0.74299800  1
  F  F5  1  0.24444900  0.45228400  0.42145300  1
  F  F6  1  0.27384700  0.05635000  0.58373900  1
  F  F7  1  0.44855900  0.20917200  0.91337400  1
  F  F8  1  0.87655000  0.08468300  0.74681700  1
  F  F9  1  0.97815100  0.71831200  0.91728700  1
loop_
_geom_bond_atom_site_label_1
_geom_bond_atom_site_label_2
_geom_bond_distance
_geom_bond_site_symmetry_2
Li0 O0 2.105273 1_655
Li0 O1 2.170936 1_555
Li1 O0 2.052483 1_655
Li1 O1 2.086715 1_545
Li5 O0 2.070473 1_556
Li5 O1 2.092534 1_556
Fe0 O0 2.132576 1_555
Fe0 O1 2.160511 1_545
Fe2 O1 2.056867 1_555
Fe2 O0 2.059641 1_555
Fe3 O1 2.019400 1_556
Fe3 O0 2.105692 1_666
F0 Li1 2.091738 1_465
F0 Fe0 2.122026 1_565
F0 Fe2 2.173822 1_555
F0 Li0 2.191965 1_455
F0 Li3 2.225637 1_565
F1 Fe1 2.008757 1_655
F1 Li3 2.021933 1_555
F1 Li4 2.024600 1_655
F1 Li2 2.261748 1_555
F2 Fe0 2.084113 1_555
F2 Li1 2.116190 1_555
F2 Li0 2.168182 1_555
F2 Fe2 2.201082 1_555
F2 Li3 2.222520 1_555
F3 Li3 1.965908 1_565
F3 Li2 2.055955 1_555
F3 Fe1 2.160408 1_665
F3 Fe2 2.208355 1_555
F3 Li1 2.285430 1_565
F4 Li4 1.956820 1_555
F4 Li2 2.047069 1_555
F4 Fe1 2.153416 1_555
F4 Fe3 2.229333 1_555
F4 Li5 2.270705 1_555
F5 Li3 1.967704 1_555
F5 Li2 2.053058 1_555
F5 Fe1 2.165050 1_555
F5 Fe2 2.200937 1_555
F5 Li1 2.281251 1_455
F6 Li4 2.001636 1_545
F6 Fe1 2.007773 1_555
F6 Li3 2.009793 1_555
F6 Li2 2.290614 1_545
F7 Li5 2.084115 1_555
F7 Fe0 2.123148 1_556
F7 Fe3 2.174846 1_545
F7 Li0 2.180796 1_556
F7 Li4 2.252406 1_545
F8 Li4 1.977326 1_645
F8 Li2 2.068439 1_545
F8 Fe3 2.167968 1_545
F8 Fe1 2.184331 1_655
F8 Li5 2.317202 1_655
F9 Fe0 2.079748 1_666
F9 Li5 2.119652 1_655
F9 Li0 2.183345 1_556
F9 Li4 2.196832 1_655
F9 Fe3 2.206129 1_555
