# generated using pymatgen
data_Li2V3CrO8
_symmetry_space_group_name_H-M   'P 1'
_cell_length_a   5.26849100
_cell_length_b   5.90651617
_cell_length_c   10.68784449
_cell_angle_alpha   98.74957716
_cell_angle_beta   102.22087253
_cell_angle_gamma   107.19691933
_symmetry_Int_Tables_number   1
_chemical_formula_structural   Li2V3CrO8
_chemical_formula_sum   'Li4 V6 Cr2 O16'
_cell_volume   302.19847503
_cell_formula_units_Z   2
loop_
 _symmetry_equiv_pos_site_id
 _symmetry_equiv_pos_as_xyz
  1  'x, y, z'
loop_
 _atom_site_type_symbol
 _atom_site_label
 _atom_site_symmetry_multiplicity
 _atom_site_fract_x
 _atom_site_fract_y
 _atom_site_fract_z
 _atom_site_occupancy
  Li  Li0  1  0.99615500  0.24817700  0.00098700  1
  Li  Li1  1  0.50000000  0.00000000  0.50000000  1
  Li  Li2  1  0.00384500  0.75182300  0.99901300  1
  Li  Li3  1  0.50000000  0.50000000  0.50000000  1
  V  V0  1  0.39153600  0.06595000  0.87191500  1
  V  V1  1  0.60014200  0.43188000  0.12931200  1
  V  V2  1  0.89669500  0.81971400  0.36909900  1
  V  V3  1  0.10330500  0.18028600  0.63090100  1
  V  V4  1  0.39985800  0.56812000  0.87068800  1
  V  V5  1  0.60846400  0.93405000  0.12808500  1
  Cr  Cr0  1  0.89050300  0.31651000  0.37415500  1
  Cr  Cr1  1  0.10949700  0.68349000  0.62584500  1
  O  O0  1  0.16541400  0.65795500  0.44464600  1
  O  O1  1  0.38291400  0.02464400  0.68469500  1
  O  O2  1  0.66402600  0.39088300  0.94380300  1
  O  O3  1  0.88391200  0.77427900  0.18220900  1
  O  O4  1  0.15866400  0.13997000  0.44204300  1
  O  O5  1  0.37058100  0.50088700  0.67548200  1
  O  O6  1  0.67078400  0.91064200  0.94559000  1
  O  O7  1  0.87144000  0.25503700  0.17877700  1
  O  O8  1  0.62941900  0.49911300  0.32451800  1
  O  O9  1  0.84133600  0.86003000  0.55795700  1
  O  O10  1  0.11608800  0.22572100  0.81779100  1
  O  O11  1  0.33597400  0.60911700  0.05619700  1
  O  O12  1  0.61708600  0.97535600  0.31530500  1
  O  O13  1  0.83458600  0.34204500  0.55535400  1
  O  O14  1  0.12856000  0.74496300  0.82122300  1
  O  O15  1  0.32921600  0.08935800  0.05441000  1
loop_
_geom_bond_atom_site_label_1
_geom_bond_atom_site_label_2
_geom_bond_distance
_geom_bond_site_symmetry_2
Li0 O6 2.110474 1_544
Li0 O7 2.136586 1_555
Li0 O2 2.173010 1_554
Li0 O10 2.178260 1_654
Li0 O15 2.235436 1_655
Li0 O11 2.238654 1_655
Li1 O13 2.151266 1_555
Li1 O0 2.151266 1_545
Li1 O12 2.186219 1_545
Li1 O1 2.186219 1_555
Li1 O9 2.205559 1_545
Li1 O4 2.205559 1_555
Li2 O15 2.110474 1_566
Li2 O14 2.136586 1_555
Li2 O11 2.173010 1_556
Li2 O3 2.178260 1_456
Li2 O6 2.235436 1_455
Li2 O2 2.238654 1_455
Li3 O8 2.126747 1_555
Li3 O5 2.126747 1_555
Li3 O9 2.237440 1_555
Li3 O4 2.237440 1_555
Li3 O0 2.242018 1_555
Li3 O13 2.242018 1_555
Cr0 O13 2.009729 1_555
Cr0 O12 2.011331 1_545
Cr0 O8 2.019690 1_555
Cr0 O0 2.020200 1_655
Cr0 O7 2.039940 1_555
Cr0 O4 2.068110 1_655
Cr1 O0 2.009729 1_555
Cr1 O1 2.011331 1_565
Cr1 O5 2.019690 1_555
Cr1 O13 2.020200 1_455
Cr1 O14 2.039940 1_555
Cr1 O9 2.068110 1_455
O0 V2 2.029708 1_455
O1 V0 1.967726 1_555
O1 V3 1.987149 1_555
O2 V0 1.946768 1_555
O2 V1 2.070659 1_556
O2 V4 2.072084 1_555
O3 V2 1.958481 1_555
O3 V5 1.987867 1_555
O3 V1 2.037465 1_555
O4 V2 1.908631 1_445
O4 V3 2.088091 1_555
O5 V3 1.913231 1_555
O5 V4 2.027252 1_555
O6 V4 2.021680 1_555
O6 V5 2.036469 1_556
O6 V0 2.037975 1_565
O7 V5 1.903698 1_545
O7 V1 2.035785 1_555
O8 V2 1.913231 1_555
O8 V1 2.027252 1_555
O9 V3 1.908631 1_665
O9 V2 2.088091 1_555
O10 V3 1.958481 1_555
O10 V0 1.987867 1_555
O10 V4 2.037465 1_555
O11 V5 1.946768 1_555
O11 V4 2.070659 1_554
O11 V1 2.072084 1_555
O12 V5 1.967726 1_555
O12 V2 1.987149 1_555
O13 V3 2.029708 1_655
O14 V0 1.903698 1_565
O14 V4 2.035785 1_555
O15 V1 2.021680 1_555
O15 V0 2.036469 1_554
O15 V5 2.037975 1_545
