# generated using pymatgen
data_Na4Cu2C4SO16
_symmetry_space_group_name_H-M   'P 1'
_cell_length_a   9.89834761
_cell_length_b   9.86107717
_cell_length_c   9.63259202
_cell_angle_alpha   61.01777354
_cell_angle_beta   60.63064713
_cell_angle_gamma   58.35157933
_symmetry_Int_Tables_number   1
_chemical_formula_structural   Na4Cu2C4SO16
_chemical_formula_sum   'Na8 Cu4 C8 S2 O32'
_cell_volume   664.00904655
_cell_formula_units_Z   2
loop_
 _symmetry_equiv_pos_site_id
 _symmetry_equiv_pos_as_xyz
  1  'x, y, z'
loop_
 _atom_site_type_symbol
 _atom_site_label
 _atom_site_symmetry_multiplicity
 _atom_site_fract_x
 _atom_site_fract_y
 _atom_site_fract_z
 _atom_site_occupancy
  Na  Na0  1  0.28813100  0.71186900  0.71186900  1
  Na  Na1  1  0.71033000  0.28967000  0.71033000  1
  Na  Na2  1  0.96033000  0.53967000  0.96033000  1
  Na  Na3  1  0.53813100  0.96186900  0.96186900  1
  Na  Na4  1  0.71186900  0.28813100  0.28813100  1
  Na  Na5  1  0.28967000  0.71033000  0.28967000  1
  Na  Na6  1  0.53967000  0.96033000  0.53967000  1
  Na  Na7  1  0.96186900  0.53813100  0.53813100  1
  Cu  Cu0  1  0.12500000  0.12500000  0.62500000  1
  Cu  Cu1  1  0.12500000  0.12500000  0.12500000  1
  Cu  Cu2  1  0.12500000  0.62500000  0.12500000  1
  Cu  Cu3  1  0.62500000  0.12500000  0.12500000  1
  C  C0  1  0.33347600  0.33891700  0.97999300  1
  C  C1  1  0.91108300  0.91652400  0.90238700  1
  C  C2  1  0.34761300  0.97999300  0.33891700  1
  C  C3  1  0.97999300  0.34761300  0.33347600  1
  C  C4  1  0.27000700  0.90238700  0.91652400  1
  C  C5  1  0.90238700  0.27000700  0.91108300  1
  C  C6  1  0.33891700  0.33347600  0.34761300  1
  C  C7  1  0.91652400  0.91108300  0.27000700  1
  S  S0  1  0.75000000  0.75000000  0.75000000  1
  S  S1  1  0.50000000  0.50000000  0.50000000  1
  O  O0  1  0.31062500  0.48303700  0.97444100  1
  O  O1  1  0.93648700  0.68085200  0.69062000  1
  O  O2  1  0.21365800  0.31627800  0.98626100  1
  O  O3  1  0.93372200  0.03634200  0.76619600  1
  O  O4  1  0.48380400  0.98626100  0.31627800  1
  O  O5  1  0.02958400  0.76931600  0.92167100  1
  O  O6  1  0.69204200  0.69062000  0.68085200  1
  O  O7  1  0.68085200  0.93648700  0.69204200  1
  O  O8  1  0.92167100  0.27942900  0.02958400  1
  O  O9  1  0.98626100  0.48380400  0.21365800  1
  O  O10  1  0.76696300  0.93937500  0.01810300  1
  O  O11  1  0.69062000  0.69204200  0.93648700  1
  O  O12  1  0.23189700  0.97444100  0.48303700  1
  O  O13  1  0.97444100  0.23189700  0.31062500  1
  O  O14  1  0.48068400  0.22041600  0.97057100  1
  O  O15  1  0.27942900  0.92167100  0.76931600  1
  O  O16  1  0.97057100  0.32832900  0.48068400  1
  O  O17  1  0.76931600  0.02958400  0.27942900  1
  O  O18  1  0.27555900  0.01810300  0.93937500  1
  O  O19  1  0.01810300  0.27555900  0.76696300  1
  O  O20  1  0.55938000  0.55795800  0.31351300  1
  O  O21  1  0.48303700  0.31062500  0.23189700  1
  O  O22  1  0.26373900  0.76619600  0.03634200  1
  O  O23  1  0.32832900  0.97057100  0.22041600  1
  O  O24  1  0.56914800  0.31351300  0.55795800  1
  O  O25  1  0.55795800  0.55938000  0.56914800  1
  O  O26  1  0.22041600  0.48068400  0.32832900  1
  O  O27  1  0.76619600  0.26373900  0.93372200  1
  O  O28  1  0.31627800  0.21365800  0.48380400  1
  O  O29  1  0.03634200  0.93372200  0.26373900  1
  O  O30  1  0.31351300  0.56914800  0.55938000  1
  O  O31  1  0.93937500  0.76696300  0.27555900  1
loop_
_geom_bond_atom_site_label_1
_geom_bond_atom_site_label_2
_geom_bond_distance
_geom_bond_site_symmetry_2
Na0 O15 2.338706 1_555
Na0 O5 2.338706 1_555
Na0 O25 2.339161 1_555
Na0 O30 2.339166 1_555
Na0 O12 2.456195 1_555
Na0 O0 2.456195 1_555
Na1 O27 2.342470 1_555
Na1 O3 2.342474 1_555
Na1 O25 2.344162 1_555
Na1 O24 2.344167 1_555
Na1 O16 2.509633 1_555
Na1 O14 2.509633 1_555
Na2 O2 2.342476 1_655
Na2 O9 2.342479 1_556
Na2 O11 2.344158 1_555
Na2 O1 2.344158 1_555
Na2 O8 2.509633 1_556
Na2 O5 2.509633 1_655
Na3 O23 2.338706 1_556
Na3 O14 2.338706 1_565
Na3 O11 2.339157 1_555
Na3 O7 2.339157 1_555
Na3 O10 2.456195 1_556
Na3 O18 2.456195 1_565
Na4 O8 2.338706 1_555
Na4 O17 2.338706 1_555
Na4 O20 2.339157 1_555
Na4 O24 2.339157 1_555
Na4 O21 2.456195 1_555
Na4 O13 2.456195 1_555
Na5 O29 2.342476 1_555
Na5 O22 2.342479 1_555
Na5 O20 2.344158 1_555
Na5 O30 2.344158 1_555
Na5 O23 2.509633 1_555
Na5 O26 2.509633 1_555
Na6 O4 2.342470 1_555
Na6 O28 2.342474 1_565
Na6 O6 2.344162 1_555
Na6 O7 2.344167 1_555
Na6 O17 2.509633 1_565
Na6 O15 2.509633 1_555
Na7 O26 2.338706 1_655
Na7 O16 2.338706 1_555
Na7 O6 2.339161 1_555
Na7 O1 2.339166 1_555
Na7 O31 2.456195 1_555
Na7 O19 2.456195 1_655
Cu0 O19 2.023233 1_555
Cu0 O12 2.023233 1_545
Cu0 O3 2.063444 1_455
Cu0 O28 2.063444 1_555
Cu0 O15 2.110962 1_545
Cu0 O16 2.110962 1_455
Cu1 O13 2.023233 1_455
Cu1 O18 2.023233 1_554
Cu1 O29 2.063444 1_545
Cu1 O2 2.063444 1_554
Cu1 O23 2.110962 1_545
Cu1 O8 2.110962 1_455
Cu2 O31 2.023233 1_455
Cu2 O0 2.023233 1_554
Cu2 O9 2.063436 1_455
Cu2 O22 2.063436 1_555
Cu2 O5 2.110962 1_554
Cu2 O26 2.110962 1_555
Cu3 O21 2.023233 1_555
Cu3 O10 2.023233 1_545
Cu3 O4 2.063438 1_545
Cu3 O27 2.063438 1_554
Cu3 O17 2.110962 1_555
Cu3 O14 2.110962 1_554
C0 O2 1.286325 1_555
C0 O0 1.294080 1_555
C0 O14 1.297361 1_555
C1 O3 1.286334 1_565
C1 O10 1.294076 1_556
C1 O5 1.297360 1_655
C2 O4 1.286344 1_555
C2 O12 1.294077 1_555
C2 O23 1.297355 1_555
C3 O9 1.286337 1_555
C3 O13 1.294071 1_555
C3 O16 1.297364 1_555
C4 O22 1.286337 1_556
C4 O18 1.294071 1_565
C4 O15 1.297364 1_555
C5 O27 1.286344 1_555
C5 O19 1.294077 1_655
C5 O8 1.297355 1_556
C6 O28 1.286334 1_555
C6 O21 1.294076 1_555
C6 O26 1.297360 1_555
C7 O29 1.286325 1_655
C7 O31 1.294080 1_555
C7 O17 1.297361 1_565
O1 S0 1.490289 1_555
O6 S0 1.490281 1_555
O7 S0 1.490289 1_555
O11 S0 1.490289 1_555
O20 S1 1.490289 1_555
O24 S1 1.490289 1_555
O25 S1 1.490281 1_555
O30 S1 1.490289 1_555
