# generated using pymatgen
data_MnAl2P2(HO)18
_symmetry_space_group_name_H-M   'P 1'
_cell_length_a   7.07345600
_cell_length_b   10.25515548
_cell_length_c   10.60728055
_cell_angle_alpha   107.89510558
_cell_angle_beta   90.14872651
_cell_angle_gamma   110.00184465
_symmetry_Int_Tables_number   1
_chemical_formula_structural   MnAl2P2(HO)18
_chemical_formula_sum   'Mn2 Al4 P4 H36 O36'
_cell_volume   683.04547069
_cell_formula_units_Z   2
loop_
 _symmetry_equiv_pos_site_id
 _symmetry_equiv_pos_as_xyz
  1  'x, y, z'
loop_
 _atom_site_type_symbol
 _atom_site_label
 _atom_site_symmetry_multiplicity
 _atom_site_fract_x
 _atom_site_fract_y
 _atom_site_fract_z
 _atom_site_occupancy
  Mn  Mn0  1  0.63026200  0.26952800  0.51045700  1
  Mn  Mn1  1  0.36973800  0.73047200  0.48954300  1
  Al  Al0  1  0.00000000  0.00000000  0.00000000  1
  Al  Al1  1  0.50000000  0.50000000  0.00000000  1
  Al  Al2  1  0.25911800  0.74835600  0.99626500  1
  Al  Al3  1  0.74088200  0.25164400  0.00373500  1
  P  P0  1  0.43326900  0.09224500  0.18145600  1
  P  P1  1  0.86542000  0.46109300  0.82770200  1
  P  P2  1  0.13458000  0.53890700  0.17229800  1
  P  P3  1  0.56673100  0.90775500  0.81854400  1
  H  H0  1  0.29539600  0.03579100  0.85514600  1
  H  H1  1  0.10418900  0.05631500  0.78406000  1
  H  H2  1  0.36508800  0.04963700  0.60852800  1
  H  H3  1  0.81298200  0.01015800  0.66490700  1
  H  H4  1  0.55770100  0.14923700  0.71629600  1
  H  H5  1  0.34780500  0.34829900  0.74425200  1
  H  H6  1  0.92655900  0.17845200  0.74202100  1
  H  H7  1  0.22290200  0.44549300  0.82868300  1
  H  H8  1  0.89916100  0.12657500  0.53298300  1
  H  H9  1  0.17239200  0.23090300  0.26008000  1
  H  H10  1  0.29217900  0.32990100  0.47589500  1
  H  H11  1  0.08031700  0.25872200  0.02204400  1
  H  H12  1  0.14638300  0.38509900  0.32992000  1
  H  H13  1  0.93829600  0.18334500  0.40499700  1
  H  H14  1  0.08811700  0.53024700  0.61402900  1
  H  H15  1  0.40200600  0.46666000  0.60032900  1
  H  H16  1  0.41826000  0.27293800  0.04425800  1
  H  H17  1  0.27045300  0.66654500  0.70770500  1
  H  H18  1  0.72954700  0.33345500  0.29229500  1
  H  H19  1  0.58174000  0.72706200  0.95574200  1
  H  H20  1  0.59799400  0.53334000  0.39967100  1
  H  H21  1  0.91188300  0.46975300  0.38597100  1
  H  H22  1  0.06170400  0.81665500  0.59500300  1
  H  H23  1  0.85361700  0.61490100  0.67008000  1
  H  H24  1  0.91968300  0.74127800  0.97795600  1
  H  H25  1  0.70782100  0.67009900  0.52410500  1
  H  H26  1  0.82760800  0.76909700  0.73992000  1
  H  H27  1  0.10083900  0.87342500  0.46701700  1
  H  H28  1  0.77709800  0.55450700  0.17131700  1
  H  H29  1  0.07344100  0.82154800  0.25797900  1
  H  H30  1  0.65219500  0.65170100  0.25574800  1
  H  H31  1  0.44229900  0.85076300  0.28370400  1
  H  H32  1  0.18701800  0.98984200  0.33509300  1
  H  H33  1  0.63491200  0.95036300  0.39147200  1
  H  H34  1  0.89581100  0.94368500  0.21594000  1
  H  H35  1  0.70460400  0.96420900  0.14485400  1
  O  O0  1  0.14763600  0.01549400  0.84819100  1
  O  O1  1  0.56626500  0.06590100  0.88309500  1
  O  O2  1  0.47778500  0.14603300  0.63908100  1
  O  O3  1  0.94564400  0.09263300  0.67559600  1
  O  O4  1  0.42321900  0.12422200  0.33232300  1
  O  O5  1  0.30825100  0.38660900  0.83337700  1
  O  O6  1  0.24965000  0.11400100  0.11893600  1
  O  O7  1  0.13943000  0.29164200  0.34343400  1
  O  O8  1  0.83092000  0.13563800  0.45462600  1
  O  O9  1  0.82528800  0.31006300  0.84768100  1
  O  O10  1  0.09141400  0.56009900  0.87620600  1
  O  O11  1  0.38772500  0.36369000  0.56028700  1
  O  O12  1  0.63456100  0.20083800  0.15808700  1
  O  O13  1  0.72842300  0.53940200  0.90519000  1
  O  O14  1  0.47176600  0.67363600  0.99697900  1
  O  O15  1  0.83281300  0.43947800  0.67650500  1
  O  O16  1  0.22882800  0.59330100  0.61363200  1
  O  O17  1  0.04772200  0.82500100  0.99271200  1
  O  O18  1  0.95227800  0.17499900  0.00728800  1
  O  O19  1  0.77117200  0.40669900  0.38636800  1
  O  O20  1  0.16718700  0.56052200  0.32349500  1
  O  O21  1  0.52823400  0.32636400  0.00302100  1
  O  O22  1  0.27157700  0.46059800  0.09481000  1
  O  O23  1  0.36543900  0.79916200  0.84191300  1
  O  O24  1  0.61227500  0.63631000  0.43971300  1
  O  O25  1  0.90858600  0.43990100  0.12379400  1
  O  O26  1  0.17471200  0.68993700  0.15231900  1
  O  O27  1  0.16908000  0.86436200  0.54537400  1
  O  O28  1  0.86057000  0.70835800  0.65656600  1
  O  O29  1  0.75035000  0.88599900  0.88106400  1
  O  O30  1  0.69174900  0.61339100  0.16662300  1
  O  O31  1  0.57678100  0.87577800  0.66767700  1
  O  O32  1  0.05435600  0.90736700  0.32440400  1
  O  O33  1  0.52221500  0.85396700  0.36091900  1
  O  O34  1  0.43373500  0.93409900  0.11690500  1
  O  O35  1  0.85236400  0.98450600  0.15180900  1
loop_
_geom_bond_atom_site_label_1
_geom_bond_atom_site_label_2
_geom_bond_distance
_geom_bond_site_symmetry_2
Mn0 O15 2.141190 1_555
Mn0 O4 2.167470 1_555
Mn0 O2 2.182592 1_555
Mn0 O19 2.211405 1_555
Mn0 O11 2.231455 1_555
Mn0 O8 2.255752 1_555
Mn1 O20 2.141190 1_555
Mn1 O31 2.167470 1_555
Mn1 O33 2.182592 1_555
Mn1 O16 2.211405 1_555
Mn1 O24 2.231455 1_555
Mn1 O27 2.255752 1_555
Al0 O18 1.915715 1_455
Al0 O17 1.915715 1_544
Al0 O6 1.935575 1_555
Al0 O29 1.935575 1_444
Al0 O0 1.939398 1_554
Al0 O35 1.939398 1_445
Al1 O21 1.868151 1_555
Al1 O14 1.868151 1_554
Al1 O22 1.896526 1_555
Al1 O13 1.896526 1_554
Al1 O30 1.990262 1_555
Al1 O5 1.990262 1_554
Al2 O14 1.908323 1_555
Al2 O10 1.915911 1_555
Al2 O34 1.917231 1_556
Al2 O17 1.917576 1_555
Al2 O23 1.944283 1_555
Al2 O26 1.955838 1_556
Al3 O21 1.908323 1_555
Al3 O25 1.915911 1_555
Al3 O1 1.917231 1_554
Al3 O18 1.917576 1_555
Al3 O12 1.944283 1_555
Al3 O9 1.955838 1_554
H0 O0 0.991207 1_555
H1 O0 0.997183 1_555
H2 O2 0.990157 1_555
H3 O3 1.003164 1_555
H4 O2 0.979696 1_555
H5 O5 0.987258 1_555
H6 O3 0.994943 1_555
H7 O5 0.999659 1_555
H7 O10 1.699006 1_555
H8 O8 1.004260 1_555
H9 O7 0.993004 1_555
H10 O11 1.012021 1_555
H10 O7 1.630594 1_555
H11 O18 0.983182 1_455
H12 O7 0.996870 1_555
H13 O8 0.999752 1_555
H14 O16 0.984989 1_555
H15 O11 0.978191 1_555
H16 O21 0.976790 1_555
H17 O16 1.016450 1_555
H17 O23 1.583584 1_555
H18 O19 1.016450 1_555
H18 O12 1.583584 1_555
H19 O14 0.976790 1_555
H20 O24 0.978191 1_555
H21 O19 0.984989 1_555
H22 O27 0.999752 1_555
H23 O28 0.996870 1_555
H24 O17 0.983182 1_655
H25 O24 1.012021 1_555
H25 O28 1.630594 1_555
H26 O28 0.993004 1_555
H27 O27 1.004260 1_555
H28 O30 0.999659 1_555
H28 O25 1.699006 1_555
H29 O32 0.994943 1_555
H30 O30 0.987258 1_555
H31 O33 0.979696 1_555
H32 O32 1.003164 1_555
H33 O33 0.990157 1_555
H34 O35 0.997183 1_555
H35 O35 0.991207 1_555
O1 P3 1.555744 1_545
O4 P0 1.538684 1_555
O6 P0 1.568822 1_555
O9 P1 1.557446 1_555
O10 P1 1.554138 1_455
O12 P0 1.554244 1_555
O13 P1 1.546094 1_555
O15 P1 1.555346 1_555
O20 P2 1.555346 1_555
O22 P2 1.546094 1_555
O23 P3 1.554244 1_555
O25 P2 1.554138 1_655
O26 P2 1.557446 1_555
O29 P3 1.568822 1_555
O31 P3 1.538684 1_555
O34 P0 1.555744 1_565
