# generated using pymatgen
data_Sr3Li3La5O12
_symmetry_space_group_name_H-M   'P 1'
_cell_length_a   3.59398100
_cell_length_b   6.94523800
_cell_length_c   13.65569236
_cell_angle_alpha   89.80964717
_cell_angle_beta   90.00000000
_cell_angle_gamma   90.00000000
_symmetry_Int_Tables_number   1
_chemical_formula_structural   Sr3Li3La5O12
_chemical_formula_sum   'Sr3 Li3 La5 O12'
_cell_volume   340.85858532
_cell_formula_units_Z   1
loop_
 _symmetry_equiv_pos_site_id
 _symmetry_equiv_pos_as_xyz
  1  'x, y, z'
loop_
 _atom_site_type_symbol
 _atom_site_label
 _atom_site_symmetry_multiplicity
 _atom_site_fract_x
 _atom_site_fract_y
 _atom_site_fract_z
 _atom_site_occupancy
  Sr  Sr0  1  0.00000000  0.90147100  0.21883300  1
  Sr  Sr1  1  0.00000000  0.42111700  0.26827700  1
  Sr  Sr2  1  0.50000000  0.58914200  0.71839700  1
  Li  Li0  1  0.50000000  0.12481900  0.36245000  1
  Li  Li1  1  0.00000000  0.87786300  0.63242700  1
  Li  Li2  1  0.00000000  0.38423200  0.86899400  1
  La  La0  1  0.50000000  0.25357600  0.04421400  1
  La  La1  1  0.50000000  0.74328400  0.45800600  1
  La  La2  1  0.00000000  0.25415200  0.53799700  1
  La  La3  1  0.50000000  0.08659900  0.78573000  1
  La  La4  1  0.00000000  0.74491500  0.97061000  1
  O  O0  1  0.50000000  0.88476800  0.05639600  1
  O  O1  1  0.00000000  0.46484300  0.08369000  1
  O  O2  1  0.50000000  0.17790900  0.22265800  1
  O  O3  1  0.50000000  0.68883200  0.29249200  1
  O  O4  1  0.00000000  0.99213100  0.41016400  1
  O  O5  1  0.50000000  0.36226700  0.43906100  1
  O  O6  1  0.00000000  0.62856700  0.56703600  1
  O  O7  1  0.50000000  0.01433400  0.60745500  1
  O  O8  1  0.00000000  0.30909600  0.72573300  1
  O  O9  1  0.00000000  0.83296100  0.77482000  1
  O  O10  1  0.50000000  0.51072700  0.89784100  1
  O  O11  1  0.00000000  0.13071400  0.92375900  1
loop_
_geom_bond_atom_site_label_1
_geom_bond_atom_site_label_2
_geom_bond_distance
_geom_bond_site_symmetry_2
Li0 O2 1.943037 1_555
Li0 O5 1.955911 1_555
Li0 O4 2.121080 1_545
Li0 O4 2.121080 1_645
Li1 O6 1.950760 1_555
Li1 O9 1.968301 1_555
Li1 O7 2.059535 1_465
Li1 O7 2.059535 1_565
Li2 O11 1.910694 1_555
Li2 O8 2.026405 1_555
Li2 O10 2.039235 1_555
Li2 O10 2.039235 1_455
La0 O1 2.382855 1_555
La0 O1 2.382855 1_655
La0 O2 2.491094 1_555
La0 O0 2.566304 1_545
La0 O11 2.583083 1_554
La0 O11 2.583083 1_654
La0 O10 2.676058 1_554
La1 O3 2.292868 1_555
La1 O6 2.464315 1_655
La1 O6 2.464315 1_555
La1 O4 2.575950 1_555
La1 O4 2.575950 1_655
La1 O5 2.659725 1_555
La1 O7 2.781069 1_565
La2 O5 2.368875 1_555
La2 O5 2.368875 1_455
La2 O4 2.525878 1_545
La2 O8 2.593163 1_555
La2 O7 2.625362 1_555
La2 O7 2.625362 1_455
La2 O6 2.631765 1_555
La3 O7 2.487299 1_555
La3 O8 2.505983 1_655
La3 O8 2.505983 1_555
La3 O9 2.521164 1_645
La3 O9 2.521164 1_545
La3 O11 2.622912 1_555
La3 O11 2.622912 1_655
La4 O0 2.356378 1_556
La4 O0 2.356378 1_456
La4 O1 2.479561 1_556
La4 O10 2.621612 1_455
La4 O10 2.621612 1_555
La4 O9 2.740705 1_555
La4 O11 2.752720 1_565
O0 Sr0 2.857395 1_555
O0 Sr0 2.857395 1_655
O1 Sr1 2.537890 1_555
O2 Sr1 2.545080 1_555
O2 Sr1 2.545080 1_655
O2 Sr0 2.630341 1_645
O2 Sr0 2.630341 1_545
O3 Sr0 2.532211 1_555
O3 Sr0 2.532211 1_655
O3 Sr1 2.607636 1_655
O3 Sr1 2.607636 1_555
O4 Sr0 2.689591 1_555
O5 Sr1 2.971352 1_555
O5 Sr1 2.971352 1_655
O6 Sr2 2.751841 1_555
O6 Sr2 2.751841 1_455
O8 Sr2 2.649696 1_455
O8 Sr2 2.649696 1_555
O9 Sr2 2.588252 1_455
O9 Sr2 2.588252 1_555
O10 Sr2 2.508456 1_555
