# generated using pymatgen
data_LiV4O10
_symmetry_space_group_name_H-M   'P 1'
_cell_length_a   8.09234000
_cell_length_b   10.32761354
_cell_length_c   14.68995855
_cell_angle_alpha   89.95777812
_cell_angle_beta   103.14446130
_cell_angle_gamma   108.41220685
_symmetry_Int_Tables_number   1
_chemical_formula_structural   LiV4O10
_chemical_formula_sum   'Li6 V24 O60'
_cell_volume   1130.97681472
_cell_formula_units_Z   6
loop_
 _symmetry_equiv_pos_site_id
 _symmetry_equiv_pos_as_xyz
  1  'x, y, z'
loop_
 _atom_site_type_symbol
 _atom_site_label
 _atom_site_symmetry_multiplicity
 _atom_site_fract_x
 _atom_site_fract_y
 _atom_site_fract_z
 _atom_site_occupancy
  Li  Li0  1  0.88593000  0.67424000  0.48508200  1
  Li  Li1  1  0.88173600  0.67739300  0.23561000  1
  Li  Li2  1  0.88530400  0.67513900  0.98492100  1
  Li  Li3  1  0.11407000  0.32576000  0.51491800  1
  Li  Li4  1  0.11826400  0.32260700  0.76439000  1
  Li  Li5  1  0.11469600  0.32486100  0.01507900  1
  V  V0  1  0.32929600  0.89770600  0.54078000  1
  V  V1  1  0.32479300  0.89576800  0.79064900  1
  V  V2  1  0.32846800  0.89789000  0.04137600  1
  V  V3  1  0.33190000  0.89814000  0.29148200  1
  V  V4  1  0.76523900  0.88935700  0.09506500  1
  V  V5  1  0.76604700  0.88578600  0.59528800  1
  V  V6  1  0.77096300  0.89262000  0.34695500  1
  V  V7  1  0.77150900  0.89059900  0.84660300  1
  V  V8  1  0.42771600  0.59286900  0.05323300  1
  V  V9  1  0.43176700  0.59344500  0.80343400  1
  V  V10  1  0.43056000  0.59330600  0.55432600  1
  V  V11  1  0.42066900  0.58906500  0.30238700  1
  V  V12  1  0.56944000  0.40669400  0.44567400  1
  V  V13  1  0.57228400  0.40713100  0.94676700  1
  V  V14  1  0.57933100  0.41093500  0.69761300  1
  V  V15  1  0.56823300  0.40655500  0.19656600  1
  V  V16  1  0.22849100  0.10940100  0.15339700  1
  V  V17  1  0.23476100  0.11064300  0.90493500  1
  V  V18  1  0.23395300  0.11421400  0.40471200  1
  V  V19  1  0.22903700  0.10738000  0.65304500  1
  V  V20  1  0.66810000  0.10186000  0.70851800  1
  V  V21  1  0.67520700  0.10423200  0.20935100  1
  V  V22  1  0.67070400  0.10229400  0.45922000  1
  V  V23  1  0.67153200  0.10211000  0.95862400  1
  O  O0  1  0.36837900  0.95008200  0.67446900  1
  O  O1  1  0.37553300  0.95322300  0.91826000  1
  O  O2  1  0.36769300  0.94913300  0.17525500  1
  O  O3  1  0.37863400  0.95322900  0.41836300  1
  O  O4  1  0.12906000  0.78155600  0.51266100  1
  O  O5  1  0.12858800  0.78100700  0.01565800  1
  O  O6  1  0.12767100  0.78338000  0.76764800  1
  O  O7  1  0.13053300  0.78566700  0.26894700  1
  O  O8  1  0.73451700  0.92479400  0.71684300  1
  O  O9  1  0.73551800  0.92682200  0.21747300  1
  O  O10  1  0.73431300  0.92688500  0.46658600  1
  O  O11  1  0.73408900  0.92706800  0.96635700  1
  O  O12  1  0.47781900  0.77464100  0.55994200  1
  O  O13  1  0.47105200  0.77668000  0.80866200  1
  O  O14  1  0.47739000  0.77410300  0.05962500  1
  O  O15  1  0.47155000  0.77638000  0.30889300  1
  O  O16  1  0.78714800  0.73266500  0.58916800  1
  O  O17  1  0.78407800  0.73455600  0.85699100  1
  O  O18  1  0.79192300  0.73402400  0.09928800  1
  O  O19  1  0.79226600  0.73584900  0.34907400  1
  O  O20  1  0.21394700  0.52461700  0.77583600  1
  O  O21  1  0.20951900  0.52702000  0.02493100  1
  O  O22  1  0.21199200  0.52707500  0.52875900  1
  O  O23  1  0.20501900  0.53042300  0.27514800  1
  O  O24  1  0.49382700  0.57499500  0.93610700  1
  O  O25  1  0.48901900  0.57344500  0.43507500  1
  O  O26  1  0.49794600  0.57818900  0.68842100  1
  O  O27  1  0.49049800  0.57524000  0.18669800  1
  O  O28  1  0.51098100  0.42655500  0.56492500  1
  O  O29  1  0.50950200  0.42476000  0.81330200  1
  O  O30  1  0.50617300  0.42500500  0.06389300  1
  O  O31  1  0.50205400  0.42181100  0.31157900  1
  O  O32  1  0.79498100  0.46957700  0.72485200  1
  O  O33  1  0.79048100  0.47298000  0.97506900  1
  O  O34  1  0.78800800  0.47292500  0.47124100  1
  O  O35  1  0.78605300  0.47538300  0.22416400  1
  O  O36  1  0.20773400  0.26415100  0.65092600  1
  O  O37  1  0.20807700  0.26597600  0.90071200  1
  O  O38  1  0.21592200  0.26544400  0.14300900  1
  O  O39  1  0.21285200  0.26733500  0.41083200  1
  O  O40  1  0.52845000  0.22362000  0.69110700  1
  O  O41  1  0.52261000  0.22589700  0.94037500  1
  O  O42  1  0.52218100  0.22535900  0.44005800  1
  O  O43  1  0.52894800  0.22332000  0.19133800  1
  O  O44  1  0.26568700  0.07311500  0.53341400  1
  O  O45  1  0.26591100  0.07293200  0.03364300  1
  O  O46  1  0.26448200  0.07317800  0.78252700  1
  O  O47  1  0.26548300  0.07520600  0.28315700  1
  O  O48  1  0.86946700  0.21433300  0.73105300  1
  O  O49  1  0.87232900  0.21662000  0.23235200  1
  O  O50  1  0.87094000  0.21844400  0.48733900  1
  O  O51  1  0.87141200  0.21899300  0.98434200  1
  O  O52  1  0.00124100  0.99710200  0.87573800  1
  O  O53  1  0.99960300  0.99844000  0.62424200  1
  O  O54  1  0.00039700  0.00156000  0.37575800  1
  O  O55  1  0.99875900  0.00289800  0.12426200  1
  O  O56  1  0.62446700  0.04677700  0.08174000  1
  O  O57  1  0.62136600  0.04677100  0.58163700  1
  O  O58  1  0.63230700  0.05086700  0.82474500  1
  O  O59  1  0.63162100  0.04991800  0.32553100  1
loop_
_geom_bond_atom_site_label_1
_geom_bond_atom_site_label_2
_geom_bond_distance
_geom_bond_site_symmetry_2
Li0 O4 1.877274 1_655
Li0 O34 1.969401 1_555
Li0 O16 2.050107 1_555
Li0 O19 2.141304 1_555
Li1 O7 1.916765 1_655
Li1 O35 1.975153 1_555
Li1 O18 2.117876 1_555
Li1 O19 2.119740 1_555
Li2 O5 1.874007 1_656
Li2 O33 1.976526 1_555
Li2 O17 2.048161 1_555
Li2 O18 2.152360 1_556
Li3 O50 1.877274 1_455
Li3 O22 1.969401 1_555
Li3 O39 2.050107 1_555
Li3 O36 2.141304 1_555
Li4 O48 1.916765 1_455
Li4 O20 1.975153 1_555
Li4 O37 2.117876 1_555
Li4 O36 2.119740 1_555
Li5 O51 1.874007 1_454
Li5 O21 1.976526 1_555
Li5 O38 2.048161 1_555
Li5 O37 2.152360 1_554
O0 V1 1.870615 1_555
O0 V0 1.964808 1_555
O0 V19 2.237091 1_565
O0 V20 2.374396 1_565
O1 V1 1.879485 1_555
O1 V2 1.979095 1_556
O1 V17 2.246603 1_565
O1 V23 2.341417 1_565
O2 V3 1.844883 1_555
O2 V2 1.964724 1_555
O2 V16 2.263671 1_565
O2 V21 2.434251 1_565
O3 V3 1.867029 1_555
O3 V0 1.975478 1_555
O3 V18 2.301650 1_565
O3 V22 2.318225 1_565
O4 V0 1.644271 1_555
O5 V2 1.644842 1_555
O6 V1 1.609910 1_555
O7 V3 1.635157 1_555
O8 V7 1.911563 1_555
O8 V5 1.920706 1_555
O8 V20 2.058763 1_565
O9 V6 1.907837 1_555
O9 V4 1.922882 1_555
O9 V21 2.036554 1_565
O10 V6 1.898901 1_555
O10 V5 1.915054 1_555
O10 V22 2.030232 1_565
O11 V4 1.906356 1_556
O11 V7 1.908816 1_555
O11 V23 2.022088 1_565
O12 V10 1.787101 1_555
O12 V0 1.987392 1_555
O12 V5 2.187751 1_555
O13 V9 1.815804 1_555
O13 V1 1.939110 1_555
O13 V7 2.276867 1_555
O14 V8 1.783683 1_555
O14 V2 1.996088 1_555
O14 V4 2.193557 1_555
O15 V11 1.843971 1_555
O15 V3 1.920828 1_555
O15 V6 2.274175 1_555
O16 V5 1.647955 1_555
O17 V7 1.651319 1_555
O18 V4 1.684216 1_555
O19 V6 1.681035 1_555
O20 V9 1.631125 1_555
O21 V8 1.631289 1_555
O22 V10 1.634417 1_555
O23 V11 1.608553 1_555
O24 V9 1.923982 1_555
O24 V8 1.939635 1_556
O24 V13 2.020593 1_555
O25 V11 1.922712 1_555
O25 V10 1.942520 1_555
O25 V12 2.018674 1_555
O26 V9 1.905619 1_555
O26 V10 1.940830 1_555
O26 V14 2.028179 1_555
O27 V11 1.927689 1_555
O27 V8 1.933926 1_555
O27 V15 2.025369 1_555
O28 V14 1.922712 1_555
O28 V12 1.942520 1_555
O28 V10 2.018674 1_555
O29 V14 1.927689 1_555
O29 V13 1.933926 1_555
O29 V9 2.025369 1_555
O30 V15 1.923982 1_555
O30 V13 1.939635 1_554
O30 V8 2.020593 1_555
O31 V15 1.905619 1_555
O31 V12 1.940830 1_555
O31 V11 2.028179 1_555
O32 V14 1.608553 1_555
O33 V13 1.631289 1_555
O34 V12 1.634417 1_555
O35 V15 1.631125 1_555
O36 V19 1.681035 1_555
O37 V17 1.684216 1_555
O38 V16 1.651319 1_555
O39 V18 1.647955 1_555
O40 V14 1.843971 1_555
O40 V20 1.920828 1_555
O40 V19 2.274175 1_555
O41 V13 1.783683 1_555
O41 V23 1.996088 1_555
O41 V17 2.193557 1_555
O42 V12 1.787101 1_555
O42 V22 1.987392 1_555
O42 V18 2.187751 1_555
O43 V15 1.815804 1_555
O43 V21 1.939110 1_555
O43 V16 2.276867 1_555
O44 V19 1.898901 1_555
O44 V18 1.915054 1_555
O44 V0 2.030232 1_545
O45 V17 1.906356 1_554
O45 V16 1.908816 1_555
O45 V2 2.022088 1_545
O46 V19 1.907837 1_555
O46 V17 1.922882 1_555
O46 V1 2.036554 1_545
O47 V16 1.911563 1_555
O47 V18 1.920706 1_555
O47 V3 2.058763 1_545
O48 V20 1.635157 1_555
O49 V21 1.609910 1_555
O50 V22 1.644271 1_555
O51 V23 1.644842 1_555
O52 V7 1.787801 1_455
O52 V17 1.833668 1_565
O53 V19 1.793286 1_665
O53 V5 1.831041 1_555
O54 V6 1.793286 1_445
O54 V18 1.831041 1_555
O55 V16 1.787801 1_655
O55 V4 1.833668 1_545
O56 V21 1.879485 1_555
O56 V23 1.979095 1_554
O56 V4 2.246603 1_545
O56 V2 2.341417 1_545
O57 V20 1.867029 1_555
O57 V22 1.975478 1_555
O57 V5 2.301650 1_545
O57 V0 2.318225 1_545
O58 V20 1.844883 1_555
O58 V23 1.964724 1_555
O58 V7 2.263671 1_545
O58 V1 2.434251 1_545
O59 V21 1.870615 1_555
O59 V22 1.964808 1_555
O59 V6 2.237091 1_545
O59 V3 2.374396 1_545
