# generated using pymatgen
data_NaTaO3
_symmetry_space_group_name_H-M   'P 1'
_cell_length_a   7.42763000
_cell_length_b   7.43728285
_cell_length_c   12.67246936
_cell_angle_alpha   105.83116924
_cell_angle_beta   90.69964474
_cell_angle_gamma   118.77017246
_symmetry_Int_Tables_number   1
_chemical_formula_structural   NaTaO3
_chemical_formula_sum   'Na8 Ta8 O24'
_cell_volume   581.74322507
_cell_formula_units_Z   8
loop_
 _symmetry_equiv_pos_site_id
 _symmetry_equiv_pos_as_xyz
  1  'x, y, z'
loop_
 _atom_site_type_symbol
 _atom_site_label
 _atom_site_symmetry_multiplicity
 _atom_site_fract_x
 _atom_site_fract_y
 _atom_site_fract_z
 _atom_site_occupancy
  Na  Na0  1  0.43535400  0.96468700  0.52417000  1
  Na  Na1  1  0.19622300  0.44630000  0.77201800  1
  Na  Na2  1  0.22403800  0.00316300  0.76249000  1
  Na  Na3  1  0.77926700  0.02762300  0.74588100  1
  Na  Na4  1  0.81150100  0.57360500  0.22737900  1
  Na  Na5  1  0.53534000  0.53745400  0.48623700  1
  Na  Na6  1  0.24959900  0.99386900  0.24650000  1
  Na  Na7  1  0.95731800  0.44261800  0.02580800  1
  Ta  Ta0  1  0.99397000  0.99297100  0.00165900  1
  Ta  Ta1  1  0.73655200  0.49555300  0.75246900  1
  Ta  Ta2  1  0.51356100  0.50998600  0.99431000  1
  Ta  Ta3  1  0.93363600  0.45944500  0.51210900  1
  Ta  Ta4  1  0.24182100  0.49138800  0.25352700  1
  Ta  Ta5  1  0.70007700  0.99768100  0.30001600  1
  Ta  Ta6  1  0.51304900  0.00676300  0.99634000  1
  Ta  Ta7  1  0.92370200  0.95439500  0.51502600  1
  O  O0  1  0.86570000  0.14452900  0.96119300  1
  O  O1  1  0.98074300  0.83784500  0.61312100  1
  O  O2  1  0.87544600  0.76854100  0.95676200  1
  O  O3  1  0.96835800  0.20254400  0.54766500  1
  O  O4  1  0.77937500  0.67485100  0.82043900  1
  O  O5  1  0.65524000  0.73738600  0.15390400  1
  O  O6  1  0.83571400  0.39745200  0.65322300  1
  O  O7  1  0.51066900  0.78509700  0.94846900  1
  O  O8  1  0.28693800  0.75559400  0.15182200  1
  O  O9  1  0.35099600  0.74210000  0.44511400  1
  O  O10  1  0.78058200  0.29955900  0.82645900  1
  O  O11  1  0.56707700  0.23571800  0.57190500  1
  O  O12  1  0.81831300  0.82460000  0.29039200  1
  O  O13  1  0.55583100  0.26568100  0.02169100  1
  O  O14  1  0.14618200  0.57487700  0.35455600  1
  O  O15  1  0.55297300  0.75251500  0.58719200  1
  O  O16  1  0.36584100  0.28999000  0.81918400  1
  O  O17  1  0.28618400  0.38335600  0.14881200  1
  O  O18  1  0.96026500  0.75047000  0.46691000  1
  O  O19  1  0.19512500  0.23216500  0.35546900  1
  O  O20  1  0.67629200  0.15315200  0.20562000  1
  O  O21  1  0.20253700  0.27707100  0.00758200  1
  O  O22  1  0.18074200  0.88835100  0.01882900  1
  O  O23  1  0.83887000  0.23505700  0.33274800  1
loop_
_geom_bond_atom_site_label_1
_geom_bond_atom_site_label_2
_geom_bond_distance
_geom_bond_site_symmetry_2
Na0 O9 1.489325 1_555
Na0 O11 1.675772 1_565
Na0 O15 2.426657 1_555
Na1 O16 2.250892 1_555
Na1 O7 2.817347 1_555
Na1 O6 2.869712 1_455
Na1 O3 2.889831 1_455
Na1 O10 2.901306 1_455
Na2 O16 1.777262 1_555
Na2 O1 2.206403 1_445
Na3 O10 1.996775 1_555
Na3 O15 2.327585 1_545
Na3 O0 2.595873 1_555
Na4 O12 1.794339 1_555
Na4 O5 2.377207 1_555
Na4 O20 2.713440 1_555
Na4 O13 2.842716 1_555
Na5 O15 1.699995 1_555
Na5 O19 2.570791 1_555
Na6 O8 1.994494 1_555
Na6 O19 2.140138 1_565
Na6 O20 2.911563 1_565
Na7 O0 1.895322 1_554
Na7 O10 2.518976 1_554
Na7 O8 2.520544 1_655
Na7 O13 2.609328 1_555
Na7 O21 2.626881 1_655
O0 Ta0 1.943811 1_546
O0 Ta6 2.409006 1_555
O1 Ta7 1.845197 1_555
O2 Ta0 1.392816 1_556
O2 Ta2 2.589250 1_555
O3 Ta7 1.636482 1_545
O3 Ta3 2.204838 1_555
O4 Ta1 1.256833 1_555
O5 Ta2 2.103955 1_554
O5 Ta5 2.166936 1_555
O6 Ta1 1.641903 1_555
O6 Ta3 2.024422 1_555
O7 Ta6 1.584994 1_565
O7 Ta2 2.283611 1_555
O8 Ta4 2.528447 1_555
O10 Ta1 2.075572 1_555
O12 Ta5 1.856962 1_555
O12 O5 1.860093 1_555
O13 Ta6 1.727210 1_554
O13 Ta2 2.100187 1_554
O14 Ta4 1.594484 1_555
O15 Ta7 2.739360 1_555
O16 Ta2 2.244420 1_555
O16 Ta1 2.709940 1_555
O17 Ta4 1.482855 1_555
O17 O21 1.715287 1_555
O18 Ta7 1.625339 1_555
O18 Ta3 2.306312 1_555
O19 Ta4 2.496439 1_555
O20 O23 1.770217 1_555
O20 Ta5 1.935281 1_545
O20 Ta6 2.600859 1_554
O21 Ta0 1.905206 1_445
O21 Ta2 2.163843 1_554
O22 Ta0 1.923886 1_455
O22 Ta6 2.238479 1_564
O23 Ta5 1.479753 1_545
O23 Ta3 2.281966 1_555
