# generated using pymatgen
data_Li6V3P8O29
_symmetry_space_group_name_H-M   'P 1'
_cell_length_a   9.76836300
_cell_length_b   9.79430999
_cell_length_c   13.98091282
_cell_angle_alpha   89.78916552
_cell_angle_beta   89.77185578
_cell_angle_gamma   60.29548626
_symmetry_Int_Tables_number   1
_chemical_formula_structural   Li6V3P8O29
_chemical_formula_sum   'Li12 V6 P16 O58'
_cell_volume   1161.83096367
_cell_formula_units_Z   2
loop_
 _symmetry_equiv_pos_site_id
 _symmetry_equiv_pos_as_xyz
  1  'x, y, z'
loop_
 _atom_site_type_symbol
 _atom_site_label
 _atom_site_symmetry_multiplicity
 _atom_site_fract_x
 _atom_site_fract_y
 _atom_site_fract_z
 _atom_site_occupancy
  Li  Li0  1  0.23808100  0.66020500  0.05968300  1
  Li  Li1  1  0.09485200  0.66536400  0.56305700  1
  Li  Li2  1  0.66327400  0.23833300  0.55923000  1
  Li  Li3  1  0.66355600  0.09526900  0.06280900  1
  Li  Li4  1  0.09860000  0.23388200  0.05873400  1
  Li  Li5  1  0.23451500  0.09756900  0.55956700  1
  Li  Li6  1  0.33228400  0.90189300  0.93876600  1
  Li  Li7  1  0.33356200  0.76496200  0.43931100  1
  Li  Li8  1  0.90148500  0.33458800  0.43898000  1
  Li  Li9  1  0.76517300  0.33047900  0.93957100  1
  Li  Li10  1  0.98649100  0.96024600  0.99326600  1
  Li  Li11  1  0.96257100  0.98668900  0.49344400  1
  V  V0  1  0.56733000  0.99547600  0.25403600  1
  V  V1  1  0.43853400  0.00128700  0.74940100  1
  V  V2  1  0.99468500  0.56670400  0.75326100  1
  V  V3  1  0.00360800  0.43845600  0.24857400  1
  V  V4  1  0.43784000  0.56425200  0.24902300  1
  V  V5  1  0.56109500  0.43761700  0.74883600  1
  P  P0  1  0.22308900  0.68852000  0.84127600  1
  P  P1  1  0.08745700  0.68886200  0.34627700  1
  P  P2  1  0.68702700  0.22525400  0.34173800  1
  P  P3  1  0.33764300  0.32880800  0.13043100  1
  P  P4  1  0.32932500  0.33801500  0.63039700  1
  P  P5  1  0.68924700  0.08714500  0.84722700  1
  P  P6  1  0.78052500  0.91724600  0.66078000  1
  P  P7  1  0.08806500  0.22510300  0.84044400  1
  P  P8  1  0.91703800  0.78033200  0.16076000  1
  P  P9  1  0.22477800  0.08741300  0.34098600  1
  P  P10  1  0.31328300  0.91349800  0.15645100  1
  P  P11  1  0.66547200  0.66595500  0.36914000  1
  P  P12  1  0.66523400  0.66367100  0.86938600  1
  P  P13  1  0.31430800  0.77601800  0.65789400  1
  P  P14  1  0.91390100  0.31205300  0.65623000  1
  P  P15  1  0.77509900  0.31433100  0.15757100  1
  O  O0  1  0.22559000  0.77627800  0.56922000  1
  O  O1  1  0.25728000  0.66177800  0.33896400  1
  O  O2  1  0.01290200  0.78825000  0.07903800  1
  O  O3  1  0.08232400  0.66301200  0.83841000  1
  O  O4  1  0.37938200  0.53244600  0.83035000  1
  O  O5  1  0.32700400  0.48481000  0.16947300  1
  O  O6  1  0.53132100  0.38084800  0.32928700  1
  O  O7  1  0.77265500  0.22696000  0.06907900  1
  O  O8  1  0.66413900  0.25513100  0.84049400  1
  O  O9  1  0.18491400  0.49033600  0.67165000  1
  O  O10  1  0.08641300  0.53287800  0.33342900  1
  O  O11  1  0.48515500  0.32903000  0.67213100  1
  O  O12  1  0.33604500  0.32676800  0.02377200  1
  O  O13  1  0.33301200  0.34046500  0.52378400  1
  O  O14  1  0.48941400  0.18558700  0.17229700  1
  O  O15  1  0.09523200  0.37690700  0.82874500  1
  O  O16  1  0.18935100  0.32151900  0.17232800  1
  O  O17  1  0.66051500  0.08515200  0.33990000  1
  O  O18  1  0.80209800  0.99121800  0.75905100  1
  O  O19  1  0.78894500  0.01271900  0.57920300  1
  O  O20  1  0.77290800  0.01120000  0.93896400  1
  O  O21  1  0.53269900  0.08759300  0.83188300  1
  O  O22  1  0.32206000  0.19179100  0.67061400  1
  O  O23  1  0.74798600  0.91926100  0.15895900  1
  O  O24  1  0.37731200  0.09449900  0.32879100  1
  O  O25  1  0.07949900  0.25374300  0.34006500  1
  O  O26  1  0.99167600  0.80243100  0.25899500  1
  O  O27  1  0.01436800  0.77241100  0.43845400  1
  O  O28  1  0.00188500  0.22484000  0.56709000  1
  O  O29  1  0.91806700  0.74788500  0.65846400  1
  O  O30  1  0.62034700  0.92062700  0.67011700  1
  O  O31  1  0.25673500  0.07951800  0.83999700  1
  O  O32  1  0.67111200  0.81020100  0.32360900  1
  O  O33  1  0.46898100  0.91338700  0.16868000  1
  O  O34  1  0.22493600  0.00067300  0.06738300  1
  O  O35  1  0.22554600  0.99915100  0.43038600  1
  O  O36  1  0.20342800  0.99954000  0.24908000  1
  O  O37  1  0.33927100  0.92068100  0.65758500  1
  O  O38  1  0.81034800  0.66857100  0.82352200  1
  O  O39  1  0.91790800  0.62220300  0.16984400  1
  O  O40  1  0.51328000  0.81053100  0.83006800  1
  O  O41  1  0.66756300  0.65196700  0.97530900  1
  O  O42  1  0.65988200  0.66507900  0.47532300  1
  O  O43  1  0.50951100  0.67660700  0.32724500  1
  O  O44  1  0.91278600  0.46800400  0.66869400  1
  O  O45  1  0.81156000  0.51401900  0.32754300  1
  O  O46  1  0.33561300  0.74629200  0.15691300  1
  O  O47  1  0.20606300  0.80015700  0.75041200  1
  O  O48  1  0.22109400  0.77713500  0.93082400  1
  O  O49  1  0.47167500  0.62323800  0.66940300  1
  O  O50  1  0.67271000  0.51094600  0.82485900  1
  O  O51  1  0.62016900  0.47154800  0.16952000  1
  O  O52  1  0.91841300  0.33983900  0.15606800  1
  O  O53  1  0.00061300  0.22426000  0.92983700  1
  O  O54  1  0.00192900  0.20176800  0.74867200  1
  O  O55  1  0.74655000  0.33470300  0.65648700  1
  O  O56  1  0.77703500  0.22276700  0.43093700  1
  O  O57  1  0.79757100  0.20693900  0.25005200  1
loop_
_geom_bond_atom_site_label_1
_geom_bond_atom_site_label_2
_geom_bond_distance
_geom_bond_site_symmetry_2
Li0 O2 1.936039 1_555
Li0 O46 2.069143 1_555
Li0 O48 2.093712 1_554
Li0 O5 2.138711 1_555
Li1 O27 1.983102 1_555
Li1 O29 2.005241 1_455
Li1 O0 2.048170 1_555
Li1 O9 2.124752 1_555
Li2 O19 1.943627 1_555
Li2 O55 2.044685 1_555
Li2 O56 2.072092 1_555
Li2 O11 2.182811 1_555
Li3 O20 1.985214 1_554
Li3 O23 2.010408 1_545
Li3 O7 2.042290 1_555
Li3 O14 2.125390 1_555
Li4 O34 1.990068 1_555
Li4 O52 2.051318 1_455
Li4 O53 2.068091 1_554
Li4 O16 2.195491 1_555
Li5 O28 1.980034 1_555
Li5 O37 2.040421 1_545
Li5 O35 2.072800 1_545
Li5 O22 2.190107 1_555
Li6 O48 2.000597 1_555
Li6 O31 2.048437 1_565
Li6 O34 2.064321 1_566
Li6 O40 2.157967 1_555
Li7 O35 1.997608 1_555
Li7 O0 2.072154 1_555
Li7 O1 2.076036 1_555
Li7 O43 2.161533 1_555
Li8 O56 2.002870 1_555
Li8 O25 2.046355 1_655
Li8 O28 2.068899 1_655
Li8 O45 2.179046 1_555
Li9 O53 2.004373 1_655
Li9 O8 2.043928 1_555
Li9 O7 2.055687 1_556
Li9 O50 2.218245 1_555
Li10 O2 1.974655 1_656
Li10 O20 2.038686 1_565
Li10 O48 2.269965 1_655
Li11 O19 1.984100 1_565
Li11 O27 2.051348 1_655
Li11 O56 2.288976 1_565
O0 P13 1.514716 1_555
O1 P1 1.547733 1_555
O1 V4 1.981414 1_555
O2 P8 1.500380 1_455
O3 P0 1.515169 1_555
O3 V2 1.963804 1_455
O4 P0 1.542040 1_555
O4 V5 1.915720 1_555
O5 P3 1.578492 1_555
O5 V4 1.966063 1_555
O6 P2 1.539188 1_555
O6 V4 1.920297 1_555
O7 P15 1.513867 1_555
O8 P5 1.541159 1_555
O8 V5 2.015019 1_555
O9 P4 1.569221 1_555
O9 V2 1.981481 1_455
O10 P1 1.543983 1_555
O10 V3 1.916772 1_555
O11 P4 1.593498 1_555
O11 V5 1.904745 1_555
O12 P3 1.491645 1_555
O13 P4 1.491231 1_555
O14 P3 1.564641 1_555
O14 V0 1.984708 1_545
O15 P7 1.530867 1_555
O15 V2 1.928310 1_455
O16 P3 1.594362 1_555
O16 V3 1.916834 1_555
O17 P2 1.517621 1_555
O17 V0 1.962122 1_545
O18 P5 1.609021 1_565
O18 P6 1.617996 1_555
O19 P6 1.499859 1_545
O20 P5 1.504995 1_555
O21 P5 1.542887 1_555
O21 V1 1.917464 1_555
O22 P4 1.570592 1_555
O22 V1 1.969822 1_555
O23 P8 1.533728 1_555
O23 V0 2.030141 1_555
O24 P9 1.534400 1_555
O24 V0 1.919947 1_545
O25 P9 1.541693 1_555
O25 V3 2.029794 1_555
O26 P1 1.602950 1_655
O26 P8 1.622112 1_555
O27 P1 1.503855 1_555
O28 P14 1.514333 1_455
O29 P6 1.532663 1_555
O29 V2 2.034711 1_555
O30 P6 1.553514 1_555
O30 V1 1.899285 1_565
O31 P7 1.555495 1_555
O31 V1 1.996457 1_555
O32 P11 1.573044 1_555
O32 V0 1.854313 1_555
O33 P10 1.530635 1_555
O33 V0 1.942982 1_555
O34 P10 1.514897 1_545
O35 P9 1.515020 1_565
O36 P9 1.619700 1_565
O36 P10 1.624679 1_555
O37 P13 1.552215 1_555
O37 V1 1.996827 1_565
O38 P12 1.575692 1_555
O38 V2 1.848089 1_555
O39 P8 1.549319 1_555
O39 V3 1.910725 1_655
O40 P12 1.568161 1_555
O40 V1 1.983628 1_565
O41 P12 1.484304 1_555
O42 P11 1.485471 1_555
O43 P11 1.588742 1_555
O43 V4 1.917186 1_555
O44 P14 1.532642 1_555
O44 V2 1.937738 1_555
O45 P11 1.576164 1_555
O45 V3 1.974733 1_655
O46 P10 1.541261 1_555
O46 V4 2.015769 1_555
O47 P13 1.609551 1_555
O47 P0 1.627346 1_555
O48 P0 1.520566 1_555
O49 P13 1.532511 1_555
O49 V5 1.928878 1_555
O50 P12 1.590167 1_555
O50 V5 1.903985 1_555
O51 P15 1.542639 1_555
O51 V4 1.902903 1_555
O52 P15 1.539172 1_555
O52 V3 2.027952 1_655
O53 P7 1.513352 1_555
O54 P7 1.614861 1_555
O54 P14 1.629291 1_455
O55 P14 1.536935 1_555
O55 V5 2.036203 1_555
O56 P2 1.521887 1_555
O57 P15 1.609263 1_555
O57 P2 1.624828 1_555
