# generated using pymatgen
data_LiMn3O6
_symmetry_space_group_name_H-M   'P 1'
_cell_length_a   6.68012205
_cell_length_b   13.47266319
_cell_length_c   5.72022054
_cell_angle_alpha   77.75093396
_cell_angle_beta   64.69259324
_cell_angle_gamma   100.60075734
_symmetry_Int_Tables_number   1
_chemical_formula_structural   LiMn3O6
_chemical_formula_sum   'Li4 Mn12 O24'
_cell_volume   432.27270797
_cell_formula_units_Z   4
loop_
 _symmetry_equiv_pos_site_id
 _symmetry_equiv_pos_as_xyz
  1  'x, y, z'
loop_
 _atom_site_type_symbol
 _atom_site_label
 _atom_site_symmetry_multiplicity
 _atom_site_fract_x
 _atom_site_fract_y
 _atom_site_fract_z
 _atom_site_occupancy
  Li  Li0  1  0.15102300  0.82462600  0.25842900  1
  Li  Li1  1  0.15266100  0.32464000  0.27187700  1
  Li  Li2  1  0.51619000  0.00849200  0.24083400  1
  Li  Li3  1  0.51582700  0.50763400  0.73478300  1
  Mn  Mn0  1  0.98999500  0.50318900  0.00151100  1
  Mn  Mn1  1  0.33217900  0.66793700  0.50164400  1
  Mn  Mn2  1  0.00373100  0.99927700  0.99781800  1
  Mn  Mn3  1  0.33274900  0.16693100  0.50045700  1
  Mn  Mn4  1  0.33401100  0.66537600  0.00210400  1
  Mn  Mn5  1  0.66267200  0.83293500  0.50463700  1
  Mn  Mn6  1  0.33435900  0.16678100  0.99816100  1
  Mn  Mn7  1  0.66364200  0.33415600  0.50048800  1
  Mn  Mn8  1  0.67680900  0.82989200  0.99822700  1
  Mn  Mn9  1  0.67818900  0.32965200  0.99501300  1
  Mn  Mn10  1  0.00384300  0.50082100  0.49695100  1
  Mn  Mn11  1  0.98849700  0.00397800  0.50215400  1
  O  O0  1  0.11421500  0.65707400  0.36433800  1
  O  O1  1  0.22198600  0.50933600  0.12401900  1
  O  O2  1  0.11454200  0.15990800  0.36114700  1
  O  O3  1  0.11400300  0.65564400  0.86717600  1
  O  O4  1  0.22201900  0.01007100  0.14273000  1
  O  O5  1  0.22155600  0.51418300  0.63905200  1
  O  O6  1  0.44464200  0.82405800  0.35810300  1
  O  O7  1  0.11469200  0.15219000  0.86662500  1
  O  O8  1  0.55211800  0.67730100  0.13822400  1
  O  O9  1  0.21970900  0.01337100  0.62299500  1
  O  O10  1  0.44685100  0.32088500  0.35668200  1
  O  O11  1  0.44515500  0.81925500  0.87824100  1
  O  O12  1  0.55256600  0.17373100  0.13743600  1
  O  O13  1  0.55246300  0.67679800  0.63593700  1
  O  O14  1  0.77034000  0.98729500  0.36056200  1
  O  O15  1  0.44504600  0.32328200  0.87505100  1
  O  O16  1  0.89459900  0.84472800  0.14171300  1
  O  O17  1  0.55218700  0.18131100  0.63194400  1
  O  O18  1  0.77208300  0.48853500  0.37737700  1
  O  O19  1  0.77332200  0.98509400  0.87901700  1
  O  O20  1  0.89361400  0.34846500  0.13711700  1
  O  O21  1  0.89406900  0.84904700  0.62231700  1
  O  O22  1  0.77290200  0.48482600  0.86108000  1
  O  O23  1  0.89632200  0.34605400  0.61871200  1
loop_
_geom_bond_atom_site_label_1
_geom_bond_atom_site_label_2
_geom_bond_distance
_geom_bond_site_symmetry_2
Li0 O16 2.127200 1_455
Li0 O0 2.147404 1_555
Li0 O21 2.197962 1_455
Li0 O11 2.249722 1_554
Li0 O6 2.265401 1_555
Li0 O4 2.345034 1_565
Li1 O2 2.109798 1_555
Li1 O23 2.114646 1_455
Li1 O20 2.220719 1_455
Li1 O10 2.222885 1_555
Li1 O15 2.282125 1_554
Li1 O1 2.338760 1_555
Li2 O12 2.117607 1_555
Li2 O14 2.126605 1_545
Li2 O19 2.184037 1_544
Li2 O9 2.261185 1_555
Li2 O4 2.264974 1_555
Li2 O6 2.331178 1_545
Li3 O18 2.137636 1_555
Li3 O13 2.168759 1_555
Li3 O22 2.173959 1_555
Li3 O1 2.261104 1_556
Li3 O5 2.266169 1_555
Li3 O15 2.331124 1_555
Mn0 O3 1.911949 1_654
Mn0 O20 1.937693 1_555
Mn0 O5 1.938270 1_654
Mn0 O22 1.938527 1_554
Mn0 O1 1.950765 1_655
Mn0 O18 1.954224 1_555
Mn1 O3 1.918959 1_555
Mn1 O5 1.924635 1_555
Mn1 O8 1.924935 1_555
Mn1 O0 1.925202 1_555
Mn1 O13 1.926255 1_555
Mn1 O6 1.954771 1_555
Mn2 O7 1.913992 1_565
Mn2 O19 1.925740 1_455
Mn2 O16 1.935387 1_456
Mn2 O14 1.939529 1_456
Mn2 O9 1.948440 1_565
Mn2 O4 1.959879 1_566
Mn3 O17 1.911014 1_555
Mn3 O7 1.912334 1_555
Mn3 O9 1.923296 1_555
Mn3 O10 1.928234 1_555
Mn3 O12 1.933791 1_555
Mn3 O2 1.934698 1_555
Mn4 O8 1.921391 1_555
Mn4 O0 1.924041 1_555
Mn4 O13 1.925557 1_554
Mn4 O11 1.926626 1_554
Mn4 O3 1.927352 1_554
Mn4 O1 1.954176 1_555
Mn5 O21 1.928157 1_555
Mn5 O14 1.933146 1_555
Mn5 O16 1.937788 1_555
Mn5 O11 1.947293 1_555
Mn5 O13 1.954026 1_555
Mn5 O6 1.964784 1_555
Mn6 O7 1.912751 1_555
Mn6 O17 1.912890 1_555
Mn6 O2 1.933329 1_556
Mn6 O12 1.934552 1_556
Mn6 O15 1.959469 1_555
Mn6 O4 1.962205 1_556
Mn7 O17 1.913218 1_555
Mn7 O20 1.925780 1_555
Mn7 O18 1.932524 1_555
Mn7 O23 1.937002 1_555
Mn7 O10 1.947184 1_555
Mn7 O15 1.964094 1_555
Mn8 O8 1.913782 1_556
Mn8 O11 1.937649 1_555
Mn8 O21 1.937863 1_555
Mn8 O19 1.943188 1_555
Mn8 O6 1.950932 1_556
Mn8 O16 1.952888 1_556
Mn9 O20 1.936290 1_556
Mn9 O22 1.943498 1_555
Mn9 O10 1.943695 1_556
Mn9 O15 1.947647 1_555
Mn9 O23 1.950278 1_555
Mn9 O12 1.954858 1_556
Mn10 O22 1.924804 1_455
Mn10 O18 1.936805 1_455
Mn10 O23 1.937466 1_455
Mn10 O5 1.945435 1_555
Mn10 O0 1.955462 1_555
Mn10 O1 1.965797 1_555
Mn11 O9 1.938390 1_655
Mn11 O19 1.939480 1_545
Mn11 O21 1.939947 1_545
Mn11 O14 1.948369 1_545
Mn11 O4 1.951028 1_655
Mn11 O2 1.955100 1_655
