# generated using pymatgen
data_Ba2In2O5
_symmetry_space_group_name_H-M   'P 1'
_cell_length_a   9.66237649
_cell_length_b   9.66237649
_cell_length_c   8.69514300
_cell_angle_alpha   90.00000000
_cell_angle_beta   90.00000000
_cell_angle_gamma   130.01063515
_symmetry_Int_Tables_number   1
_chemical_formula_structural   Ba2In2O5
_chemical_formula_sum   'Ba8 In8 O20'
_cell_volume   621.77169992
_cell_formula_units_Z   4
loop_
 _symmetry_equiv_pos_site_id
 _symmetry_equiv_pos_as_xyz
  1  'x, y, z'
loop_
 _atom_site_type_symbol
 _atom_site_label
 _atom_site_symmetry_multiplicity
 _atom_site_fract_x
 _atom_site_fract_y
 _atom_site_fract_z
 _atom_site_occupancy
  Ba  Ba0  1  0.37232600  0.12767400  0.25268500  1
  Ba  Ba1  1  0.13837400  0.36162600  0.25485800  1
  Ba  Ba2  1  0.86810700  0.63189300  0.25690100  1
  Ba  Ba3  1  0.36810700  0.13189300  0.74309900  1
  Ba  Ba4  1  0.13301900  0.36698100  0.74319000  1
  Ba  Ba5  1  0.63301900  0.86698100  0.25681000  1
  Ba  Ba6  1  0.87232600  0.62767400  0.74731500  1
  Ba  Ba7  1  0.63837400  0.86162600  0.74514200  1
  In  In0  1  0.99543100  0.00456900  0.00000000  1
  In  In1  1  0.75592400  0.24407600  0.00000000  1
  In  In2  1  0.74918300  0.25081700  0.50000000  1
  In  In3  1  0.00244300  0.99755700  0.50000000  1
  In  In4  1  0.25592400  0.74407600  0.00000000  1
  In  In5  1  0.49543100  0.50456900  0.00000000  1
  In  In6  1  0.50244300  0.49755700  0.50000000  1
  In  In7  1  0.24918300  0.75081700  0.50000000  1
  O  O0  1  0.87481300  0.12518700  0.00000000  1
  O  O1  1  0.72799500  0.23766200  0.25519700  1
  O  O2  1  0.50365800  0.49488200  0.24574400  1
  O  O3  1  0.23886100  0.26113900  0.50086800  1
  O  O4  1  0.78130900  0.71869100  0.00002700  1
  O  O5  1  0.96526400  0.53473600  0.01341000  1
  O  O6  1  0.63008500  0.36991500  0.50000000  1
  O  O7  1  0.86711100  0.13288900  0.50000000  1
  O  O8  1  0.37481300  0.62518700  0.00000000  1
  O  O9  1  0.73886100  0.76113900  0.49913200  1
  O  O10  1  0.28130900  0.21869100  0.99997300  1
  O  O11  1  0.00511800  0.99634200  0.24574400  1
  O  O12  1  0.50511800  0.49634200  0.75425600  1
  O  O13  1  0.76233800  0.27200500  0.74480300  1
  O  O14  1  0.26233800  0.77200500  0.25519700  1
  O  O15  1  0.13008500  0.86991500  0.50000000  1
  O  O16  1  0.36711100  0.63288900  0.50000000  1
  O  O17  1  0.22799500  0.73766200  0.74480300  1
  O  O18  1  0.00365800  0.99488200  0.75425600  1
  O  O19  1  0.46526400  0.03473600  0.98659000  1
loop_
_geom_bond_atom_site_label_1
_geom_bond_atom_site_label_2
_geom_bond_distance
_geom_bond_site_symmetry_2
Ba0 O10 2.714730 1_554
Ba0 O19 2.828976 1_554
Ba0 O14 2.871221 1_545
Ba0 O1 2.871221 1_555
Ba0 O2 2.900593 1_555
Ba0 O11 2.900593 1_545
Ba0 O15 2.968153 1_545
Ba0 O6 2.968153 1_555
Ba0 O3 3.181418 1_555
Ba1 O3 2.770090 1_555
Ba1 O2 2.877149 1_555
Ba1 O11 2.877149 1_545
Ba1 O16 2.974770 1_555
Ba1 O7 2.974770 1_455
Ba1 O8 3.022295 1_555
Ba1 O0 3.022295 1_455
Ba1 O14 3.324244 1_555
Ba1 O1 3.324244 1_455
Ba1 O10 3.343548 1_554
Ba2 O4 2.701845 1_555
Ba2 O5 2.716296 1_555
Ba2 O11 2.857980 1_655
Ba2 O2 2.857980 1_555
Ba2 O15 2.946041 1_655
Ba2 O6 2.946041 1_555
Ba2 O9 3.092040 1_555
Ba2 O14 3.116404 1_655
Ba2 O1 3.116404 1_555
Ba3 O10 2.701845 1_555
Ba3 O19 2.716296 1_555
Ba3 O18 2.857980 1_545
Ba3 O12 2.857980 1_555
Ba3 O15 2.946041 1_545
Ba3 O6 2.946041 1_555
Ba3 O3 3.092040 1_555
Ba3 O13 3.116404 1_555
Ba3 O17 3.116404 1_545
Ba4 O3 2.806454 1_555
Ba4 O16 2.952308 1_555
Ba4 O7 2.952308 1_455
Ba4 O18 2.952898 1_545
Ba4 O12 2.952898 1_555
Ba4 O8 3.028865 1_556
Ba4 O0 3.028865 1_456
Ba4 O17 3.073141 1_555
Ba4 O13 3.073141 1_455
Ba5 O9 2.806454 1_555
Ba5 O16 2.952308 1_555
Ba5 O7 2.952308 1_565
Ba5 O11 2.952898 1_655
Ba5 O2 2.952898 1_555
Ba5 O8 3.028865 1_555
Ba5 O0 3.028865 1_565
Ba5 O14 3.073141 1_555
Ba5 O1 3.073141 1_565
Ba6 O4 2.714730 1_556
Ba6 O5 2.828976 1_556
Ba6 O17 2.871221 1_655
Ba6 O13 2.871221 1_555
Ba6 O12 2.900593 1_555
Ba6 O18 2.900593 1_655
Ba6 O15 2.968153 1_655
Ba6 O6 2.968153 1_555
Ba6 O9 3.181418 1_555
Ba7 O9 2.770090 1_555
Ba7 O18 2.877149 1_655
Ba7 O12 2.877149 1_555
Ba7 O7 2.974770 1_565
Ba7 O16 2.974770 1_555
Ba7 O0 3.022295 1_566
Ba7 O8 3.022295 1_556
Ba7 O17 3.324244 1_555
Ba7 O13 3.324244 1_565
Ba7 O4 3.343548 1_556
In0 O0 2.112616 1_555
In0 O4 2.135876 1_545
In0 O10 2.135876 1_654
In0 O18 2.142539 1_644
In0 O11 2.142539 1_645
In1 O0 2.082333 1_555
In1 O5 2.165142 1_555
In1 O19 2.165142 1_554
In1 O1 2.231369 1_555
In1 O13 2.231369 1_554
In2 O7 2.065501 1_555
In2 O6 2.085993 1_555
In2 O13 2.134370 1_555
In2 O1 2.134370 1_555
In3 O3 2.055170 1_565
In3 O9 2.055170 1_455
In3 O11 2.211063 1_555
In3 O18 2.211063 1_555
In3 O15 2.235641 1_555
In3 O7 2.370331 1_465
In4 O8 2.082333 1_555
In4 O5 2.165142 1_455
In4 O19 2.165142 1_564
In4 O17 2.231369 1_554
In4 O14 2.231369 1_555
In5 O8 2.112616 1_555
In5 O4 2.135876 1_555
In5 O10 2.135876 1_554
In5 O12 2.142539 1_554
In5 O2 2.142539 1_555
In6 O3 2.055170 1_555
In6 O9 2.055170 1_555
In6 O12 2.211063 1_555
In6 O2 2.211063 1_555
In6 O6 2.235641 1_555
In6 O16 2.370331 1_555
In7 O16 2.065501 1_555
In7 O15 2.085993 1_555
In7 O17 2.134370 1_555
In7 O14 2.134370 1_555
