# generated using pymatgen
data_P6H26N7ClO19
_symmetry_space_group_name_H-M   'P 1'
_cell_length_a   6.78596200
_cell_length_b   10.23677430
_cell_length_c   19.62185196
_cell_angle_alpha   101.94524326
_cell_angle_beta   90.24288329
_cell_angle_gamma   107.60480723
_symmetry_Int_Tables_number   1
_chemical_formula_structural   P6H26N7ClO19
_chemical_formula_sum   'P12 H52 N14 Cl2 O38'
_cell_volume   1267.81747499
_cell_formula_units_Z   2
loop_
 _symmetry_equiv_pos_site_id
 _symmetry_equiv_pos_as_xyz
  1  'x, y, z'
loop_
 _atom_site_type_symbol
 _atom_site_label
 _atom_site_symmetry_multiplicity
 _atom_site_fract_x
 _atom_site_fract_y
 _atom_site_fract_z
 _atom_site_occupancy
  P  P0  1  0.72096500  0.29177400  0.54344800  1
  P  P1  1  0.27903500  0.70822600  0.45655200  1
  P  P2  1  0.48502000  0.14075600  0.40964700  1
  P  P3  1  0.51498000  0.85924400  0.59035300  1
  P  P4  1  0.49149300  0.14310600  0.64789700  1
  P  P5  1  0.50850700  0.85689400  0.35210300  1
  P  P6  1  0.96816900  0.09854100  0.14901300  1
  P  P7  1  0.03183100  0.90145900  0.85098700  1
  P  P8  1  0.24227500  0.28741000  0.06580000  1
  P  P9  1  0.75772500  0.71259000  0.93420000  1
  P  P10  1  0.00789700  0.17449500  0.92901000  1
  P  P11  1  0.99210300  0.82550500  0.07099000  1
  H  H0  1  0.84466000  0.60001700  0.62106500  1
  H  H1  1  0.15534000  0.39998300  0.37893500  1
  H  H2  1  0.86963300  0.76963100  0.61719600  1
  H  H3  1  0.13036700  0.23036900  0.38280400  1
  H  H4  1  0.94270300  0.73770600  0.69207400  1
  H  H5  1  0.05729700  0.26229400  0.30792600  1
  H  H6  1  0.08290600  0.71682800  0.62191300  1
  H  H7  1  0.91709400  0.28317200  0.37808700  1
  H  H8  1  0.64895800  0.24895100  0.89430100  1
  H  H9  1  0.35104200  0.75104900  0.10569900  1
  H  H10  1  0.57902000  0.24445100  0.80912200  1
  H  H11  1  0.42098000  0.75554900  0.19087800  1
  H  H12  1  0.62606100  0.39529600  0.87384000  1
  H  H13  1  0.37393900  0.60470400  0.12616000  1
  H  H14  1  0.41000400  0.25790100  0.87094100  1
  H  H15  1  0.58999600  0.74209900  0.12905900  1
  H  H16  1  0.07551800  0.19907900  0.77852500  1
  H  H17  1  0.92448200  0.80092100  0.22147500  1
  H  H18  1  0.11028100  0.17315500  0.69029600  1
  H  H19  1  0.88971900  0.82684500  0.30970400  1
  H  H20  1  0.86832500  0.16199500  0.72105100  1
  H  H21  1  0.13167500  0.83800500  0.27894900  1
  H  H22  1  0.97805400  0.03889200  0.72724800  1
  H  H23  1  0.02194600  0.96110800  0.27275200  1
  H  H24  1  0.44136800  0.80103500  0.71906800  1
  H  H25  1  0.55863200  0.19896500  0.28093200  1
  H  H26  1  0.38632000  0.69518000  0.77514600  1
  H  H27  1  0.61368000  0.30482000  0.22485400  1
  H  H28  1  0.62491300  0.81106500  0.77977200  1
  H  H29  1  0.37508700  0.18893500  0.22022800  1
  H  H30  1  0.41811800  0.86710700  0.80641000  1
  H  H31  1  0.58188200  0.13289300  0.19359000  1
  H  H32  1  0.31848600  0.56095800  0.59271400  1
  H  H33  1  0.68151400  0.43904200  0.40728600  1
  H  H34  1  0.23159200  0.44592000  0.64327600  1
  H  H35  1  0.76840800  0.55408000  0.35672400  1
  H  H36  1  0.41296700  0.42444500  0.58620800  1
  H  H37  1  0.58703300  0.57555500  0.41379200  1
  H  H38  1  0.16062300  0.39123900  0.55729600  1
  H  H39  1  0.83937700  0.60876100  0.44270400  1
  H  H40  1  0.31188600  0.61855100  0.93205200  1
  H  H41  1  0.68811400  0.38144900  0.06794800  1
  H  H42  1  0.05176600  0.56445400  0.94401000  1
  H  H43  1  0.94823400  0.43554600  0.05599000  1
  H  H44  1  0.17511200  0.44161500  0.91784000  1
  H  H45  1  0.82488800  0.55838500  0.08216000  1
  H  H46  1  0.13724000  0.53852300  0.86366200  1
  H  H47  1  0.86276000  0.46147700  0.13633800  1
  H  H48  1  0.51485900  0.42728300  0.72641200  1
  H  H49  1  0.48514100  0.57271700  0.27358800  1
  H  H50  1  0.74890500  0.50587200  0.74904600  1
  H  H51  1  0.25109500  0.49412800  0.25095400  1
  N  N0  1  0.93450900  0.70498200  0.63812900  1
  N  N1  1  0.06549100  0.29501800  0.36187100  1
  N  N2  1  0.56665100  0.28631500  0.86156700  1
  N  N3  1  0.43334900  0.71368500  0.13843300  1
  N  N4  1  0.00878200  0.14465100  0.72895800  1
  N  N5  1  0.99121800  0.85534900  0.27104200  1
  N  N6  1  0.46885500  0.79555400  0.77051200  1
  N  N7  1  0.53114500  0.20444600  0.22948800  1
  N  N8  1  0.28104800  0.45495400  0.59406700  1
  N  N9  1  0.71895200  0.54504600  0.40593300  1
  N  N10  1  0.17000000  0.54135000  0.91588000  1
  N  N11  1  0.83000000  0.45865000  0.08412000  1
  N  N12  1  0.50000000  0.00000000  0.00000000  1
  N  N13  1  0.00000000  0.00000000  0.50000000  1
  Cl  Cl0  1  0.07996700  0.49662500  0.74532400  1
  Cl  Cl1  1  0.92003300  0.50337500  0.25467600  1
  O  O0  1  0.48429000  0.80533800  0.50677100  1
  O  O1  1  0.51571000  0.19466200  0.49322900  1
  O  O2  1  0.69300300  0.21611700  0.60874400  1
  O  O3  1  0.30699700  0.78388300  0.39125600  1
  O  O4  1  0.69622200  0.43600500  0.56533400  1
  O  O5  1  0.30377800  0.56399500  0.43466600  1
  O  O6  1  0.91678700  0.27878500  0.51123800  1
  O  O7  1  0.08321300  0.72121500  0.48876200  1
  O  O8  1  0.41247000  0.98536200  0.59984100  1
  O  O9  1  0.58753000  0.01463800  0.40015900  1
  O  O10  1  0.37677500  0.74799300  0.62491000  1
  O  O11  1  0.62322500  0.25200700  0.37509000  1
  O  O12  1  0.74222700  0.90865200  0.61119300  1
  O  O13  1  0.25777300  0.09134800  0.38880700  1
  O  O14  1  0.57281100  0.14087500  0.71910500  1
  O  O15  1  0.42718900  0.85912500  0.28089500  1
  O  O16  1  0.32409300  0.20876800  0.64128500  1
  O  O17  1  0.67590700  0.79123200  0.35871500  1
  O  O18  1  0.92167700  0.00810800  0.89686100  1
  O  O19  1  0.07832300  0.99189200  0.10313900  1
  O  O20  1  0.93525000  0.86609000  0.77721200  1
  O  O21  1  0.06475000  0.13391000  0.22278800  1
  O  O22  1  0.26300300  0.95543500  0.86220700  1
  O  O23  1  0.73699700  0.04456500  0.13779300  1
  O  O24  1  0.76178300  0.56977000  0.94138400  1
  O  O25  1  0.23821700  0.43023000  0.05861600  1
  O  O26  1  0.56330900  0.73307700  0.90893600  1
  O  O27  1  0.43669100  0.26692300  0.09106400  1
  O  O28  1  0.16467400  0.17571100  0.99152000  1
  O  O29  1  0.83532600  0.82428900  0.00848000  1
  O  O30  1  0.13620200  0.24887700  0.87677000  1
  O  O31  1  0.86379800  0.75112300  0.12323000  1
  O  O32  1  0.82997800  0.22317700  0.95494100  1
  O  O33  1  0.17002200  0.77682300  0.04505900  1
  O  O34  1  0.94838500  0.76734700  0.88614700  1
  O  O35  1  0.05161500  0.23265300  0.11385300  1
  O  O36  1  0.60929200  0.51667800  0.75201000  1
  O  O37  1  0.39070800  0.48332200  0.24799000  1
loop_
_geom_bond_atom_site_label_1
_geom_bond_atom_site_label_2
_geom_bond_distance
_geom_bond_site_symmetry_2
H0 N0 1.044731 1_555
H1 N1 1.044731 1_555
H2 N0 1.042945 1_555
H3 N1 1.042945 1_555
H4 N0 1.037875 1_555
H5 N1 1.037875 1_555
H6 N0 1.036751 1_455
H7 N1 1.036751 1_655
H8 N2 1.048183 1_555
H9 N3 1.048183 1_555
H10 N2 1.043847 1_555
H11 N3 1.043847 1_555
H12 N2 1.039722 1_555
H13 N3 1.039722 1_555
H14 N2 1.041720 1_555
H15 N3 1.041720 1_555
H16 N4 1.039607 1_555
H17 N5 1.039607 1_555
H18 N4 1.053346 1_555
H19 N5 1.053346 1_555
H20 N4 1.037582 1_655
H21 N5 1.037582 1_455
H22 N4 1.032010 1_655
H23 N5 1.032010 1_455
H24 N6 1.041663 1_555
H25 N7 1.041663 1_555
H26 N6 1.033790 1_555
H27 N7 1.033790 1_555
H28 N6 1.031710 1_555
H29 N7 1.031710 1_555
H30 N6 1.045105 1_555
H31 N7 1.045105 1_555
H32 N8 1.043071 1_555
H33 N9 1.043071 1_555
H34 N8 1.036557 1_555
H35 N9 1.036557 1_555
H36 N8 1.035882 1_555
H37 N9 1.035882 1_555
H38 N8 1.044792 1_555
H39 N9 1.044792 1_555
H40 N10 1.041931 1_555
H41 N11 1.041931 1_555
H42 N10 1.033845 1_555
H43 N11 1.033845 1_555
H44 N10 1.040537 1_555
H45 N11 1.040537 1_555
H46 N10 1.040190 1_555
H47 N11 1.040190 1_555
H48 O36 0.976035 1_555
H49 O37 0.976035 1_555
H50 O36 0.987117 1_555
H51 O37 0.987117 1_555
O0 P3 1.609518 1_555
O0 P1 1.626215 1_555
O1 P2 1.609518 1_555
O1 P0 1.626215 1_555
O2 P0 1.612856 1_555
O2 P4 1.626986 1_555
O3 P1 1.612856 1_555
O3 P5 1.626986 1_555
O4 P0 1.510181 1_555
O5 P1 1.510181 1_555
O6 P0 1.504048 1_555
O7 P1 1.504048 1_555
O8 P4 1.620451 1_565
O8 P3 1.621790 1_555
O9 P5 1.620451 1_545
O9 P2 1.621790 1_555
O10 P3 1.521615 1_555
O11 P2 1.521615 1_555
O12 P3 1.496099 1_555
O13 P2 1.496099 1_555
O14 P4 1.507177 1_555
O15 P5 1.507177 1_555
O16 P4 1.501931 1_555
O17 P5 1.501931 1_555
O18 P10 1.609552 1_655
O18 P7 1.628941 1_645
O19 P11 1.609552 1_455
O19 P6 1.628941 1_465
O20 P7 1.512494 1_655
O21 P6 1.512494 1_455
O22 P7 1.495682 1_555
O23 P6 1.495682 1_555
O24 P9 1.505906 1_555
O25 P8 1.505906 1_555
O26 P9 1.495037 1_555
O27 P8 1.495037 1_555
O28 P10 1.615878 1_555
O28 P8 1.627413 1_556
O29 P11 1.615878 1_555
O29 P9 1.627413 1_554
O30 P10 1.522565 1_555
O31 P11 1.522565 1_555
O32 P10 1.493030 1_655
O33 P11 1.493030 1_455
O34 P7 1.614478 1_655
O34 P9 1.633286 1_555
O35 P6 1.614478 1_455
O35 P8 1.633286 1_555
