# generated using pymatgen
data_Li2VCrP2(HO5)2
_symmetry_space_group_name_H-M   'P 1'
_cell_length_a   6.94921500
_cell_length_b   7.38147038
_cell_length_c   7.97392461
_cell_angle_alpha   91.02833206
_cell_angle_beta   92.70858686
_cell_angle_gamma   117.22489442
_symmetry_Int_Tables_number   1
_chemical_formula_structural   Li2VCrP2(HO5)2
_chemical_formula_sum   'Li4 V2 Cr2 P4 H4 O20'
_cell_volume   362.94605721
_cell_formula_units_Z   2
loop_
 _symmetry_equiv_pos_site_id
 _symmetry_equiv_pos_as_xyz
  1  'x, y, z'
loop_
 _atom_site_type_symbol
 _atom_site_label
 _atom_site_symmetry_multiplicity
 _atom_site_fract_x
 _atom_site_fract_y
 _atom_site_fract_z
 _atom_site_occupancy
  Li  Li0  1  0.07305900  0.82224600  0.67437100  1
  Li  Li1  1  0.42860100  0.17717900  0.82526200  1
  Li  Li2  1  0.57139900  0.82282100  0.17473800  1
  Li  Li3  1  0.92694100  0.17775400  0.32562900  1
  V  V0  1  0.00000000  0.00000000  0.00000000  1
  V  V1  1  0.50000000  0.50000000  0.50000000  1
  Cr  Cr0  1  0.00000000  0.50000000  0.00000000  1
  Cr  Cr1  1  0.50000000  0.00000000  0.50000000  1
  P  P0  1  0.47911600  0.76701800  0.84170500  1
  P  P1  1  0.01784600  0.23257200  0.65838700  1
  P  P2  1  0.98215400  0.76742800  0.34161300  1
  P  P3  1  0.52088400  0.23298200  0.15829500  1
  H  H0  1  0.79050500  0.65918800  0.84922200  1
  H  H1  1  0.29090400  0.66304700  0.34932600  1
  H  H2  1  0.70909600  0.33695300  0.65067400  1
  H  H3  1  0.20949500  0.34081200  0.15077800  1
  O  O0  1  0.32312300  0.65815800  0.98049700  1
  O  O1  1  0.11329500  0.11973300  0.77322800  1
  O  O2  1  0.38533400  0.87952800  0.72558700  1
  O  O3  1  0.68679100  0.92603900  0.94107200  1
  O  O4  1  0.18908900  0.92793800  0.44103500  1
  O  O5  1  0.53429600  0.61885900  0.73871600  1
  O  O6  1  0.17511400  0.34282200  0.51967100  1
  O  O7  1  0.03439800  0.61871300  0.23812800  1
  O  O8  1  0.94320300  0.72259500  0.89539600  1
  O  O9  1  0.44442500  0.72820300  0.39293100  1
  O  O10  1  0.55557500  0.27179700  0.60706900  1
  O  O11  1  0.05679700  0.27740500  0.10460400  1
  O  O12  1  0.96560200  0.38128700  0.76187200  1
  O  O13  1  0.82488600  0.65717800  0.48032900  1
  O  O14  1  0.46570400  0.38114100  0.26128400  1
  O  O15  1  0.81091100  0.07206200  0.55896500  1
  O  O16  1  0.31320900  0.07396100  0.05892800  1
  O  O17  1  0.61466600  0.12047200  0.27441300  1
  O  O18  1  0.88670500  0.88026700  0.22677200  1
  O  O19  1  0.67687700  0.34184200  0.01950300  1
loop_
_geom_bond_atom_site_label_1
_geom_bond_atom_site_label_2
_geom_bond_distance
_geom_bond_site_symmetry_2
Li0 O8 2.012729 1_455
Li0 O2 2.031073 1_555
Li0 O4 2.083020 1_555
Li0 O13 2.147187 1_455
Li0 O1 2.208338 1_565
Li1 O10 1.979472 1_555
Li1 O1 2.051988 1_555
Li1 O16 2.080460 1_556
Li1 O19 2.148063 1_556
Li1 O2 2.204466 1_545
Li2 O9 1.979472 1_555
Li2 O18 2.051988 1_555
Li2 O3 2.080460 1_554
Li2 O0 2.148063 1_554
Li2 O17 2.204466 1_565
Li3 O11 2.012729 1_655
Li3 O17 2.031073 1_555
Li3 O15 2.083020 1_555
Li3 O6 2.147187 1_655
Li3 O18 2.208338 1_545
Cr0 O19 2.017460 1_455
Cr0 O0 2.017460 1_554
Cr0 O7 2.033771 1_555
Cr0 O12 2.033771 1_454
Cr0 O8 2.040262 1_454
Cr0 O11 2.040262 1_555
Cr1 O15 2.003901 1_555
Cr1 O4 2.003901 1_545
Cr1 O10 2.025231 1_555
Cr1 O9 2.025231 1_545
Cr1 O2 2.050856 1_545
Cr1 O17 2.050856 1_555
H0 O8 0.991510 1_555
H1 O9 0.989872 1_555
H2 O10 0.989872 1_555
H3 O11 0.991510 1_555
O0 P0 1.547235 1_555
O1 P1 1.564527 1_555
O1 V0 2.055734 1_556
O2 P0 1.561265 1_555
O3 P0 1.548216 1_555
O3 V0 2.015724 1_666
O4 P2 1.549139 1_455
O5 P0 1.548777 1_555
O5 V1 2.038562 1_555
O6 P1 1.553370 1_555
O6 V1 2.027618 1_555
O7 P2 1.542144 1_455
O8 V0 2.052441 1_666
O9 V1 2.081153 1_555
O10 V1 2.081153 1_555
O11 V0 2.052441 1_555
O12 P1 1.542144 1_655
O13 P2 1.553370 1_555
O13 V1 2.027618 1_555
O14 P3 1.548777 1_555
O14 V1 2.038562 1_555
O15 P1 1.549139 1_655
O16 P3 1.548216 1_555
O16 V0 2.015724 1_555
O17 P3 1.561265 1_555
O18 P2 1.564527 1_555
O18 V0 2.055734 1_665
O19 P3 1.547235 1_555
