# generated using pymatgen
data_NbGaO4
_symmetry_space_group_name_H-M   'P 1'
_cell_length_a   3.82229066
_cell_length_b   6.55956290
_cell_length_c   6.66166210
_cell_angle_alpha   107.09395313
_cell_angle_beta   90.00000000
_cell_angle_gamma   106.93895270
_symmetry_Int_Tables_number   1
_chemical_formula_structural   NbGaO4
_chemical_formula_sum   'Nb2 Ga2 O8'
_cell_volume   152.04892416
_cell_formula_units_Z   2
loop_
 _symmetry_equiv_pos_site_id
 _symmetry_equiv_pos_as_xyz
  1  'x, y, z'
loop_
 _atom_site_type_symbol
 _atom_site_label
 _atom_site_symmetry_multiplicity
 _atom_site_fract_x
 _atom_site_fract_y
 _atom_site_fract_z
 _atom_site_occupancy
  Nb  Nb0  1  0.10191347  0.20753601  0.23302888  1
  Nb  Nb1  1  0.89437746  0.79246399  0.76697112  1
  Ga  Ga0  1  0.19609870  0.39640040  0.81763024  1
  Ga  Ga1  1  0.79970030  0.60359960  0.18236976  1
  O  O0  1  0.86055547  0.72478104  0.48149374  1
  O  O1  1  0.13577443  0.27521896  0.51850626  1
  O  O2  1  0.94311018  0.88980707  0.13414538  1
  O  O3  1  0.05330311  0.11019293  0.86585462  1
  O  O4  1  0.25733245  0.51860119  0.14464647  1
  O  O5  1  0.73873225  0.48139881  0.85535353  1
  O  O6  1  0.35856249  0.72090180  0.79768298  1
  O  O7  1  0.63765969  0.27909820  0.20231702  1
loop_
_geom_bond_atom_site_label_1
_geom_bond_atom_site_label_2
_geom_bond_distance
_geom_bond_site_symmetry_2
Nb0 O1 1.816779 1_555
Nb0 O2 1.897851 1_445
Nb0 O7 1.987946 1_555
Nb0 O7 1.988203 1_455
Nb0 O4 2.205206 1_555
Nb0 O3 2.331911 1_554
Nb1 O0 1.816779 1_555
Nb1 O3 1.897851 1_665
Nb1 O6 1.987950 1_655
Nb1 O6 1.988199 1_555
Nb1 O5 2.205206 1_555
Nb1 O2 2.331911 1_556
Ga0 O1 1.902039 1_555
Ga0 O3 1.919164 1_555
Ga0 O5 1.978831 1_455
Ga0 O5 1.979823 1_555
Ga0 O4 2.075370 1_556
Ga0 O6 2.080917 1_555
Ga1 O0 1.902039 1_555
Ga1 O2 1.919164 1_555
Ga1 O4 1.978842 1_555
Ga1 O4 1.979812 1_655
Ga1 O5 2.075370 1_554
Ga1 O7 2.080917 1_555
