# generated using pymatgen
data_AgRuO3
_symmetry_space_group_name_H-M   'P 1'
_cell_length_a   7.21461615
_cell_length_b   7.21461615
_cell_length_c   7.21461615
_cell_angle_alpha   60.00000000
_cell_angle_beta   60.00000000
_cell_angle_gamma   60.00000000
_symmetry_Int_Tables_number   1
_chemical_formula_structural   AgRuO3
_chemical_formula_sum   'Ag4 Ru4 O12'
_cell_volume   265.53678346
_cell_formula_units_Z   4
loop_
 _symmetry_equiv_pos_site_id
 _symmetry_equiv_pos_as_xyz
  1  'x, y, z'
loop_
 _atom_site_type_symbol
 _atom_site_label
 _atom_site_symmetry_multiplicity
 _atom_site_fract_x
 _atom_site_fract_y
 _atom_site_fract_z
 _atom_site_occupancy
  Ag  Ag0  1  0.62500000  0.12500000  0.12500000  1
  Ag  Ag1  1  0.12500000  0.12500000  0.12500000  1
  Ag  Ag2  1  0.12500000  0.62500000  0.12500000  1
  Ag  Ag3  1  0.12500000  0.12500000  0.62500000  1
  Ru  Ru0  1  0.62500000  0.62500000  0.12500000  1
  Ru  Ru1  1  0.62500000  0.62500000  0.62500000  1
  Ru  Ru2  1  0.62500000  0.12500000  0.62500000  1
  Ru  Ru3  1  0.12500000  0.62500000  0.62500000  1
  O  O0  1  0.94670000  0.55330000  0.55330000  1
  O  O1  1  0.69670000  0.69670000  0.30330000  1
  O  O2  1  0.69670000  0.30330000  0.30330000  1
  O  O3  1  0.94670000  0.55330000  0.94670000  1
  O  O4  1  0.94670000  0.94670000  0.55330000  1
  O  O5  1  0.55330000  0.94670000  0.55330000  1
  O  O6  1  0.69670000  0.30330000  0.69670000  1
  O  O7  1  0.30330000  0.69670000  0.30330000  1
  O  O8  1  0.30330000  0.30330000  0.69670000  1
  O  O9  1  0.55330000  0.94670000  0.94670000  1
  O  O10  1  0.55330000  0.55330000  0.94670000  1
  O  O11  1  0.30330000  0.69670000  0.69670000  1
loop_
_geom_bond_atom_site_label_1
_geom_bond_atom_site_label_2
_geom_bond_distance
_geom_bond_site_symmetry_2
Ag0 O1 2.561766 1_545
Ag0 O5 2.561766 1_545
Ag0 O6 2.561766 1_554
Ag0 O10 2.561766 1_554
Ag0 O9 2.561766 1_544
Ag0 O2 2.561766 1_555
Ag1 O3 2.561766 1_454
Ag1 O2 2.561766 1_455
Ag1 O9 2.561766 1_544
Ag1 O8 2.561766 1_554
Ag1 O4 2.561766 1_445
Ag1 O7 2.561766 1_545
Ag2 O0 2.561766 1_455
Ag2 O1 2.561766 1_455
Ag2 O10 2.561766 1_554
Ag2 O3 2.561766 1_454
Ag2 O7 2.561766 1_555
Ag2 O11 2.561766 1_554
Ag3 O6 2.561766 1_455
Ag3 O0 2.561766 1_455
Ag3 O11 2.561766 1_545
Ag3 O5 2.561766 1_545
Ag3 O8 2.561766 1_555
Ag3 O4 2.561766 1_445
O0 Ru1 1.946366 1_555
O0 Ru3 1.946366 1_655
O1 Ru1 1.946366 1_555
O1 Ru0 1.946366 1_555
O2 Ru2 1.946366 1_555
O2 Ru0 1.946366 1_555
O3 Ru0 1.946366 1_556
O3 Ru3 1.946366 1_655
O4 Ru2 1.946366 1_565
O4 Ru3 1.946366 1_655
O5 Ru2 1.946366 1_565
O5 Ru1 1.946366 1_555
O6 Ru1 1.946366 1_555
O6 Ru2 1.946366 1_555
O7 Ru0 1.946366 1_555
O7 Ru3 1.946366 1_555
O8 Ru3 1.946366 1_555
O8 Ru2 1.946366 1_555
O9 Ru2 1.946366 1_565
O9 Ru0 1.946366 1_556
O10 Ru0 1.946366 1_556
O10 Ru1 1.946366 1_555
O11 Ru1 1.946366 1_555
O11 Ru3 1.946366 1_555
