# generated using pymatgen
data_LiTi2O4
_symmetry_space_group_name_H-M   'P 1'
_cell_length_a   7.86625600
_cell_length_b   7.88679124
_cell_length_c   10.65016437
_cell_angle_alpha   99.16267123
_cell_angle_beta   87.27113964
_cell_angle_gamma   119.87292103
_symmetry_Int_Tables_number   1
_chemical_formula_structural   LiTi2O4
_chemical_formula_sum   'Li7 Ti14 O28'
_cell_volume   565.24260277
_cell_formula_units_Z   7
loop_
 _symmetry_equiv_pos_site_id
 _symmetry_equiv_pos_as_xyz
  1  'x, y, z'
loop_
 _atom_site_type_symbol
 _atom_site_label
 _atom_site_symmetry_multiplicity
 _atom_site_fract_x
 _atom_site_fract_y
 _atom_site_fract_z
 _atom_site_occupancy
  Li  Li0  1  0.04256300  0.18238800  0.78130400  1
  Li  Li1  1  0.31987900  0.61224300  0.77759900  1
  Li  Li2  1  0.60686900  0.05312300  0.78120300  1
  Li  Li3  1  0.74578000  0.54531300  0.73742900  1
  Li  Li4  1  0.25193200  0.24999900  0.22115200  1
  Li  Li5  1  0.58969900  0.96007100  0.26391600  1
  Li  Li6  1  0.95980700  0.80574300  0.22100100  1
  Ti  Ti0  1  0.22725700  0.08052200  0.50411400  1
  Ti  Ti1  1  0.05532100  0.34957800  0.49630600  1
  Ti  Ti2  1  0.35167900  0.78011700  0.49688300  1
  Ti  Ti3  1  0.64405300  0.21756300  0.50316300  1
  Ti  Ti4  1  0.93012400  0.64369700  0.49574700  1
  Ti  Ti5  1  0.50106200  0.50406600  0.49541700  1
  Ti  Ti6  1  0.78696300  0.92148100  0.50448200  1
  Ti  Ti7  1  0.14678300  0.72021200  0.99534200  1
  Ti  Ti8  1  0.41776000  0.13225100  0.99635800  1
  Ti  Ti9  1  0.70008700  0.56009400  0.00664800  1
  Ti  Ti10  1  0.28876300  0.43672900  0.00778300  1
  Ti  Ti11  1  0.58555700  0.85727000  0.99498400  1
  Ti  Ti12  1  0.86170000  0.29834500  0.01746900  1
  Ti  Ti13  1  0.99051700  0.98975600  0.99154000  1
  O  O0  1  0.22915500  0.16857500  0.89929900  1
  O  O1  1  0.09327600  0.44842700  0.89873300  1
  O  O2  1  0.38189300  0.87554500  0.88861500  1
  O  O3  1  0.66255300  0.30493200  0.90313000  1
  O  O4  1  0.93363600  0.72710800  0.89922000  1
  O  O5  1  0.51602800  0.59133400  0.89448100  1
  O  O6  1  0.80863300  0.03936300  0.89271900  1
  O  O7  1  0.17250900  0.85697400  0.59297200  1
  O  O8  1  0.46192000  0.29384700  0.60168800  1
  O  O9  1  0.74283000  0.70736100  0.60367800  1
  O  O10  1  0.03194000  0.14635600  0.60103400  1
  O  O11  1  0.31638800  0.57208900  0.59755000  1
  O  O12  1  0.60000000  0.99996800  0.60159800  1
  O  O13  1  0.88373000  0.43276900  0.60428900  1
  O  O14  1  0.11710000  0.57173200  0.40282900  1
  O  O15  1  0.40580300  0.00012600  0.39985400  1
  O  O16  1  0.68585000  0.43009900  0.40362500  1
  O  O17  1  0.97186400  0.86092300  0.40049300  1
  O  O18  1  0.25391500  0.28249500  0.40056500  1
  O  O19  1  0.54466500  0.72458100  0.40049400  1
  O  O20  1  0.82104400  0.13582100  0.39937500  1
  O  O21  1  0.18744900  0.97724100  0.10339800  1
  O  O22  1  0.47103700  0.39188600  0.10449300  1
  O  O23  1  0.05713200  0.25822100  0.10177500  1
  O  O24  1  0.34686300  0.69854000  0.09495900  1
  O  O25  1  0.62415600  0.11135900  0.09877100  1
  O  O26  1  0.91690500  0.55997500  0.10364500  1
  O  O27  1  0.77022100  0.83230900  0.10599700  1
loop_
_geom_bond_atom_site_label_1
_geom_bond_atom_site_label_2
_geom_bond_distance
_geom_bond_site_symmetry_2
Li0 O10 1.895162 1_555
Li0 O0 2.030757 1_555
Li0 O6 2.053580 1_455
Li0 O1 2.122181 1_555
Li1 O11 1.892353 1_555
Li1 O2 2.052330 1_555
Li1 O5 2.111681 1_555
Li1 O1 2.128067 1_555
Li2 O12 1.889299 1_545
Li2 O3 2.046566 1_555
Li2 O2 2.061666 1_545
Li2 O6 2.081683 1_555
Li3 O9 2.067734 1_555
Li3 O13 2.094794 1_555
Li3 O4 2.133899 1_555
Li3 O8 2.447858 1_555
Li3 O5 2.523486 1_555
Li3 O3 2.618438 1_555
Li4 O18 1.886768 1_555
Li4 O22 2.020908 1_555
Li4 O23 2.068685 1_555
Li4 O21 2.138240 1_545
Li5 O15 2.097268 1_565
Li5 O20 2.101112 1_565
Li5 O25 2.211647 1_565
Li5 O19 2.417977 1_555
Li5 O24 2.522226 1_555
Li5 O27 2.553177 1_555
Li6 O17 1.887823 1_555
Li6 O26 2.012491 1_555
Li6 O27 2.082079 1_555
Li6 O21 2.125557 1_655
O0 Ti8 2.003856 1_555
O0 Ti13 2.026396 1_445
O0 Ti10 2.076777 1_556
O1 Ti10 2.016816 1_556
O1 Ti7 2.066531 1_555
O1 Ti12 2.104273 1_456
O2 Ti7 2.049278 1_555
O2 Ti8 2.053582 1_565
O2 Ti11 2.079805 1_555
O3 Ti9 2.021128 1_556
O3 Ti8 2.045668 1_555
O3 Ti12 2.054866 1_556
O4 Ti13 1.981867 1_555
O4 Ti7 2.033268 1_655
O4 Ti9 2.070845 1_556
O5 Ti11 2.010447 1_555
O5 Ti9 2.048862 1_556
O5 Ti10 2.056831 1_556
O6 Ti11 2.033147 1_545
O6 Ti13 2.034676 1_545
O6 Ti12 2.109646 1_556
O7 Ti2 1.979200 1_555
O7 Ti0 1.981335 1_565
O7 Ti4 1.993837 1_455
O8 Ti0 1.962157 1_555
O8 Ti3 2.007513 1_555
O8 Ti5 2.044627 1_555
O9 Ti6 2.009388 1_555
O9 Ti5 2.024723 1_555
O9 Ti4 2.033686 1_555
O10 Ti1 2.025561 1_555
O10 Ti6 2.029698 1_445
O10 Ti0 2.041714 1_555
O11 Ti2 1.999115 1_555
O11 Ti5 2.005327 1_555
O11 Ti1 2.116093 1_555
O12 Ti3 2.027358 1_565
O12 Ti6 2.043047 1_555
O12 Ti2 2.069653 1_555
O13 Ti3 2.004692 1_555
O13 Ti1 2.017189 1_655
O13 Ti4 2.050459 1_555
O14 Ti2 1.933939 1_555
O14 Ti1 1.989554 1_555
O14 Ti4 1.994692 1_455
O15 Ti2 2.013249 1_545
O15 Ti3 2.014359 1_555
O15 Ti0 2.030266 1_555
O16 Ti4 1.980227 1_555
O16 Ti5 1.984115 1_555
O16 Ti3 2.006333 1_555
O17 Ti6 1.985027 1_555
O17 Ti4 2.008361 1_555
O17 Ti0 2.095197 1_665
O18 Ti0 2.000564 1_555
O18 Ti5 2.023445 1_555
O18 Ti1 2.063954 1_555
O19 Ti2 1.980152 1_555
O19 Ti6 1.993903 1_555
O19 Ti5 2.024109 1_555
O20 Ti1 1.958579 1_655
O20 Ti3 2.023966 1_555
O20 Ti6 2.074900 1_545
O21 Ti8 2.029098 1_564
O21 Ti7 2.045019 1_554
O21 Ti13 2.047976 1_454
O22 Ti9 1.993139 1_555
O22 Ti10 2.000883 1_555
O22 Ti8 2.033475 1_554
O23 Ti12 1.994041 1_455
O23 Ti10 2.005956 1_555
O23 Ti13 2.073081 1_444
O24 Ti10 1.955572 1_555
O24 Ti7 2.028947 1_554
O24 Ti11 2.029530 1_554
O25 Ti12 1.980836 1_555
O25 Ti11 2.012507 1_544
O25 Ti8 2.084493 1_554
O26 Ti12 1.957252 1_555
O26 Ti9 2.036103 1_555
O26 Ti7 2.046113 1_654
O27 Ti11 2.017230 1_554
O27 Ti13 2.041616 1_554
O27 Ti9 2.045813 1_555
