# generated using pymatgen
data_NaMn(PO3)3
_symmetry_space_group_name_H-M   'P 1'
_cell_length_a   8.79270400
_cell_length_b   8.82746000
_cell_length_c   9.06338400
_cell_angle_alpha   90.00000000
_cell_angle_beta   90.00000000
_cell_angle_gamma   90.00000000
_symmetry_Int_Tables_number   1
_chemical_formula_structural   NaMn(PO3)3
_chemical_formula_sum   'Na4 Mn4 P12 O36'
_cell_volume   703.47487699
_cell_formula_units_Z   4
loop_
 _symmetry_equiv_pos_site_id
 _symmetry_equiv_pos_as_xyz
  1  'x, y, z'
loop_
 _atom_site_type_symbol
 _atom_site_label
 _atom_site_symmetry_multiplicity
 _atom_site_fract_x
 _atom_site_fract_y
 _atom_site_fract_z
 _atom_site_occupancy
  Na  Na0  1  0.15191700  0.13189900  0.39297400  1
  Na  Na1  1  0.34808300  0.86810100  0.89297400  1
  Na  Na2  1  0.65191700  0.36810100  0.60702600  1
  Na  Na3  1  0.84808300  0.63189900  0.10702600  1
  Mn  Mn0  1  0.12660600  0.85612200  0.16267800  1
  Mn  Mn1  1  0.37339400  0.14387800  0.66267800  1
  Mn  Mn2  1  0.62660600  0.64387800  0.83732200  1
  Mn  Mn3  1  0.87339400  0.35612200  0.33732200  1
  P  P0  1  0.03209200  0.32437900  0.68788100  1
  P  P1  1  0.19512900  0.47839100  0.18981000  1
  P  P2  1  0.19654100  0.80699000  0.56177400  1
  P  P3  1  0.30345900  0.19301000  0.06177400  1
  P  P4  1  0.30487100  0.52160900  0.68981000  1
  P  P5  1  0.46790800  0.67562100  0.18788100  1
  P  P6  1  0.53209200  0.17562100  0.31211900  1
  P  P7  1  0.69512900  0.02160900  0.81019000  1
  P  P8  1  0.69654100  0.69301000  0.43822600  1
  P  P9  1  0.80345900  0.30699000  0.93822600  1
  P  P10  1  0.80487100  0.97839100  0.31019000  1
  P  P11  1  0.96790800  0.82437900  0.81211900  1
  O  O0  1  0.04133400  0.78084600  0.65521600  1
  O  O1  1  0.10623200  0.60993600  0.12959600  1
  O  O2  1  0.08826600  0.87517400  0.91851800  1
  O  O3  1  0.12317700  0.38897400  0.31333300  1
  O  O4  1  0.13275300  0.19566200  0.63936900  1
  O  O5  1  0.13777100  0.46610800  0.73983400  1
  O  O6  1  0.15335900  0.85209600  0.40804900  1
  O  O7  1  0.19652600  0.09208600  0.14655500  1
  O  O8  1  0.23606000  0.36378600  0.05525200  1
  O  O9  1  0.26394000  0.63621400  0.55525200  1
  O  O10  1  0.30347400  0.90791400  0.64655500  1
  O  O11  1  0.34664100  0.14790400  0.90804900  1
  O  O12  1  0.36222900  0.53389200  0.23983400  1
  O  O13  1  0.36724700  0.80433800  0.13936900  1
  O  O14  1  0.37682300  0.61102600  0.81333300  1
  O  O15  1  0.41173400  0.12482600  0.41851800  1
  O  O16  1  0.39376800  0.39006400  0.62959600  1
  O  O17  1  0.45866600  0.21915400  0.15521600  1
  O  O18  1  0.54133400  0.71915400  0.34478400  1
  O  O19  1  0.60623200  0.89006400  0.87040400  1
  O  O20  1  0.58826600  0.62482600  0.08148200  1
  O  O21  1  0.62317700  0.11102600  0.68666700  1
  O  O22  1  0.63275300  0.30433800  0.36063100  1
  O  O23  1  0.63777100  0.03389200  0.26016600  1
  O  O24  1  0.65335900  0.64790400  0.59195100  1
  O  O25  1  0.69652600  0.40791400  0.85344500  1
  O  O26  1  0.73606000  0.13621400  0.94474800  1
  O  O27  1  0.76394000  0.86378600  0.44474800  1
  O  O28  1  0.80347400  0.59208600  0.35344500  1
  O  O29  1  0.84664100  0.35209600  0.09195100  1
  O  O30  1  0.86222900  0.96610800  0.76016600  1
  O  O31  1  0.86724700  0.69566200  0.86063100  1
  O  O32  1  0.87682300  0.88897400  0.18666700  1
  O  O33  1  0.91173400  0.37517400  0.58148200  1
  O  O34  1  0.89376800  0.10993600  0.37040400  1
  O  O35  1  0.95866600  0.28084600  0.84478400  1
loop_
_geom_bond_atom_site_label_1
_geom_bond_atom_site_label_2
_geom_bond_distance
_geom_bond_site_symmetry_2
Na0 O34 2.287259 1_455
Na0 O7 2.294645 1_555
Na0 O15 2.297044 1_555
Na0 O4 2.309171 1_555
Na0 O3 2.394721 1_555
Na0 O6 2.473758 1_545
Na1 O19 2.287259 1_555
Na1 O10 2.294645 1_555
Na1 O2 2.297044 1_555
Na1 O13 2.309171 1_556
Na1 O14 2.394721 1_555
Na1 O11 2.473758 1_565
Na2 O16 2.287259 1_555
Na2 O25 2.294645 1_555
Na2 O33 2.297044 1_555
Na2 O22 2.309171 1_555
Na2 O21 2.394721 1_555
Na2 O24 2.473758 1_555
Na3 O1 2.287259 1_655
Na3 O28 2.294645 1_555
Na3 O20 2.297044 1_555
Na3 O31 2.309171 1_554
Na3 O32 2.394721 1_555
Na3 O29 2.473758 1_555
Mn0 O13 2.174985 1_555
Mn0 O7 2.176706 1_565
Mn0 O1 2.201086 1_555
Mn0 O32 2.225975 1_455
Mn0 O6 2.236580 1_555
Mn0 O2 2.244755 1_554
Mn1 O4 2.174985 1_555
Mn1 O10 2.176706 1_545
Mn1 O16 2.201086 1_555
Mn1 O21 2.225975 1_555
Mn1 O11 2.236580 1_555
Mn1 O15 2.244755 1_555
Mn2 O31 2.174985 1_555
Mn2 O25 2.176706 1_555
Mn2 O19 2.201086 1_555
Mn2 O14 2.225975 1_555
Mn2 O24 2.236580 1_555
Mn2 O20 2.244755 1_556
Mn3 O22 2.174985 1_555
Mn3 O28 2.176706 1_555
Mn3 O34 2.201086 1_555
Mn3 O3 2.225975 1_655
Mn3 O29 2.236580 1_555
Mn3 O33 2.244755 1_555
O0 P11 1.608347 1_455
O0 P2 1.622615 1_555
O1 P1 1.502401 1_555
O2 P11 1.500312 1_455
O3 P1 1.508856 1_555
O4 P0 1.505903 1_555
O5 P4 1.613791 1_555
O5 P0 1.628007 1_555
O6 P2 1.497965 1_555
O7 P3 1.506049 1_555
O8 P3 1.620896 1_555
O8 P1 1.624902 1_555
O9 P2 1.620896 1_555
O9 P4 1.624902 1_555
O10 P2 1.506049 1_555
O11 P3 1.497965 1_556
O12 P1 1.613791 1_555
O12 P5 1.628007 1_555
O13 P5 1.505903 1_555
O14 P4 1.508856 1_555
O15 P6 1.500312 1_555
O16 P4 1.502401 1_555
O17 P6 1.608347 1_555
O17 P3 1.622615 1_555
O18 P5 1.608347 1_555
O18 P8 1.622615 1_555
O19 P7 1.502401 1_565
O20 P5 1.500312 1_555
O21 P7 1.508856 1_555
O22 P6 1.505903 1_555
O23 P10 1.613791 1_545
O23 P6 1.628007 1_555
O24 P8 1.497965 1_555
O25 P9 1.506049 1_555
O26 P9 1.620896 1_555
O26 P7 1.624902 1_555
O27 P8 1.620896 1_555
O27 P10 1.624902 1_555
O28 P8 1.506049 1_555
O29 P9 1.497965 1_554
O30 P7 1.613791 1_565
O30 P11 1.628007 1_555
O31 P11 1.505903 1_555
O32 P10 1.508856 1_555
O33 P0 1.500312 1_655
O34 P10 1.502401 1_545
O35 P0 1.608347 1_655
O35 P9 1.622615 1_555
