# generated using pymatgen
data_Li9Fe4(SiO5)4
_symmetry_space_group_name_H-M   'P 1'
_cell_length_a   5.01298200
_cell_length_b   5.61780821
_cell_length_c   16.18383627
_cell_angle_alpha   90.28761119
_cell_angle_beta   90.02178706
_cell_angle_gamma   90.36052528
_symmetry_Int_Tables_number   1
_chemical_formula_structural   Li9Fe4(SiO5)4
_chemical_formula_sum   'Li9 Fe4 Si4 O20'
_cell_volume   455.75393168
_cell_formula_units_Z   1
loop_
 _symmetry_equiv_pos_site_id
 _symmetry_equiv_pos_as_xyz
  1  'x, y, z'
loop_
 _atom_site_type_symbol
 _atom_site_label
 _atom_site_symmetry_multiplicity
 _atom_site_fract_x
 _atom_site_fract_y
 _atom_site_fract_z
 _atom_site_occupancy
  Li  Li0  1  0.99376200  0.33821600  0.40145600  1
  Li  Li1  1  0.99815300  0.83420300  0.09113900  1
  Li  Li2  1  0.00114500  0.82865300  0.69913500  1
  Li  Li3  1  0.99726000  0.34126900  0.99785500  1
  Li  Li4  1  0.49846800  0.66288900  0.59708200  1
  Li  Li5  1  0.50242800  0.16928100  0.90803500  1
  Li  Li6  1  0.51008300  0.17500300  0.30385100  1
  Li  Li7  1  0.49732200  0.66134500  0.00266700  1
  Li  Li8  1  0.50175300  0.16434300  0.49385400  1
  Fe  Fe0  1  0.00058500  0.83143700  0.29760000  1
  Fe  Fe1  1  0.00747700  0.33300300  0.19841600  1
  Fe  Fe2  1  0.50256300  0.66666300  0.80078500  1
  Fe  Fe3  1  0.50403800  0.16385100  0.69928600  1
  Si  Si0  1  0.00490800  0.83218900  0.90369600  1
  Si  Si1  1  0.00850200  0.32888100  0.59984300  1
  Si  Si2  1  0.49968200  0.66205500  0.40135400  1
  Si  Si3  1  0.50760600  0.16957900  0.09659500  1
  O  O0  1  0.05835900  0.66355200  0.19881300  1
  O  O1  1  0.10704700  0.15770600  0.29376300  1
  O  O2  1  0.12122800  0.59478900  0.61947400  1
  O  O3  1  0.11040400  0.10521900  0.91917100  1
  O  O4  1  0.10292900  0.67691100  0.98308700  1
  O  O5  1  0.11618400  0.24656500  0.50899000  1
  O  O6  1  0.13280600  0.73934500  0.81489700  1
  O  O7  1  0.13301600  0.14772800  0.67019000  1
  O  O8  1  0.17413800  0.65576700  0.38096700  1
  O  O9  1  0.17555800  0.18377900  0.10496100  1
  O  O10  1  0.55603200  0.33672400  0.79764300  1
  O  O11  1  0.60805500  0.83878500  0.70525100  1
  O  O12  1  0.60915000  0.39048700  0.39852800  1
  O  O13  1  0.60889000  0.89640900  0.08161400  1
  O  O14  1  0.53105500  0.80651500  0.48955800  1
  O  O15  1  0.60580200  0.32588700  0.01728500  1
  O  O16  1  0.63701400  0.83762400  0.33018400  1
  O  O17  1  0.63461500  0.26367800  0.18586100  1
  O  O18  1  0.67321300  0.81786300  0.89464300  1
  O  O19  1  0.67653100  0.31329600  0.60578100  1
loop_
_geom_bond_atom_site_label_1
_geom_bond_atom_site_label_2
_geom_bond_distance
_geom_bond_site_symmetry_2
Li0 O5 1.919003 1_655
Li0 O12 1.952705 1_555
Li0 O8 2.023828 1_655
Li0 O1 2.092547 1_655
Li1 O13 1.990633 1_555
Li1 O0 2.016621 1_655
Li1 O4 2.026241 1_654
Li1 O9 2.161276 1_665
Li2 O2 1.934962 1_555
Li2 O7 1.965519 1_565
Li2 O11 1.974239 1_455
Li2 O6 2.051805 1_555
Li3 O3 1.922195 1_655
Li3 O4 1.971080 1_655
Li3 O15 1.988934 1_556
Li3 O9 2.147199 1_656
Li4 O14 1.928339 1_555
Li4 O2 1.961312 1_555
Li4 O11 2.077948 1_555
Li4 O19 2.167586 1_555
Li5 O3 2.004013 1_555
Li5 O15 2.036328 1_556
Li5 O10 2.040326 1_555
Li5 O18 2.166686 1_545
Li6 O12 2.008244 1_555
Li6 O1 2.028616 1_555
Li6 O16 2.049844 1_545
Li6 O17 2.071409 1_555
Li7 O13 1.913712 1_555
Li7 O15 1.980014 1_555
Li7 O4 2.004720 1_554
Li7 O18 2.147978 1_554
Li8 O5 2.004927 1_555
Li8 O14 2.017343 1_545
Li8 O12 2.072584 1_555
Li8 O19 2.173343 1_555
Fe0 O0 1.875651 1_555
Fe0 O8 1.890629 1_555
Fe0 O16 1.898002 1_455
Fe0 O1 1.907125 1_565
Fe1 O0 1.872785 1_555
Fe1 O1 1.902866 1_555
Fe1 O17 1.917404 1_455
Fe1 O9 1.922859 1_555
Fe2 O10 1.874923 1_555
Fe2 O11 1.901129 1_555
Fe2 O6 1.914045 1_555
Fe2 O18 1.933273 1_555
Fe3 O10 1.877735 1_555
Fe3 O11 1.905199 1_545
Fe3 O7 1.919909 1_555
Fe3 O19 1.935759 1_555
O2 Si1 1.623651 1_555
O3 Si0 1.637337 1_545
O4 Si0 1.633832 1_555
O5 Si1 1.632203 1_555
O6 Si0 1.657041 1_555
O7 Si1 1.655451 1_555
O8 Si2 1.664964 1_555
O9 Si3 1.672471 1_555
O12 Si2 1.624990 1_555
O13 Si3 1.636395 1_565
O14 Si2 1.645489 1_555
O15 Si3 1.633163 1_555
O16 Si2 1.666398 1_555
O17 Si3 1.661110 1_555
O18 Si0 1.670568 1_655
O19 Si1 1.668747 1_655
