# generated using pymatgen
data_Li5BO4
_symmetry_space_group_name_H-M   'P 1'
_cell_length_a   4.96069400
_cell_length_b   8.64407900
_cell_length_c   15.18050200
_cell_angle_alpha   90.00000000
_cell_angle_beta   90.00000000
_cell_angle_gamma   90.00000000
_symmetry_Int_Tables_number   1
_chemical_formula_structural   Li5BO4
_chemical_formula_sum   'Li40 B8 O32'
_cell_volume   650.94950209
_cell_formula_units_Z   8
loop_
 _symmetry_equiv_pos_site_id
 _symmetry_equiv_pos_as_xyz
  1  'x, y, z'
loop_
 _atom_site_type_symbol
 _atom_site_label
 _atom_site_symmetry_multiplicity
 _atom_site_fract_x
 _atom_site_fract_y
 _atom_site_fract_z
 _atom_site_occupancy
  Li  Li0  1  0.91847500  0.94442500  0.43562800  1
  Li  Li1  1  0.58152500  0.94442500  0.93562800  1
  Li  Li2  1  0.39984600  0.92435400  0.75132300  1
  Li  Li3  1  0.10015400  0.92435400  0.25132300  1
  Li  Li4  1  0.08768200  0.84016000  0.00403700  1
  Li  Li5  1  0.41231800  0.84016000  0.50403700  1
  Li  Li6  1  0.89628600  0.82733300  0.82778300  1
  Li  Li7  1  0.60371400  0.82733300  0.32778300  1
  Li  Li8  1  0.42283800  0.79856400  0.13958000  1
  Li  Li9  1  0.07716200  0.79856400  0.63958000  1
  Li  Li10  1  0.92283800  0.70143600  0.13958000  1
  Li  Li11  1  0.57716200  0.70143600  0.63958000  1
  Li  Li12  1  0.39628600  0.67266700  0.82778300  1
  Li  Li13  1  0.10371400  0.67266700  0.32778300  1
  Li  Li14  1  0.58768200  0.65984000  0.00403700  1
  Li  Li15  1  0.91231800  0.65984000  0.50403700  1
  Li  Li16  1  0.60015400  0.57564600  0.25132300  1
  Li  Li17  1  0.89984600  0.57564600  0.75132300  1
  Li  Li18  1  0.08152500  0.55557500  0.93562800  1
  Li  Li19  1  0.41847500  0.55557500  0.43562800  1
  Li  Li20  1  0.91847500  0.44442500  0.06437200  1
  Li  Li21  1  0.58152500  0.44442500  0.56437200  1
  Li  Li22  1  0.10015400  0.42435400  0.24867700  1
  Li  Li23  1  0.39984600  0.42435400  0.74867700  1
  Li  Li24  1  0.41231800  0.34016000  0.99596300  1
  Li  Li25  1  0.08768200  0.34016000  0.49596300  1
  Li  Li26  1  0.60371400  0.32733300  0.17221700  1
  Li  Li27  1  0.89628600  0.32733300  0.67221700  1
  Li  Li28  1  0.42283800  0.29856400  0.36042000  1
  Li  Li29  1  0.07716200  0.29856400  0.86042000  1
  Li  Li30  1  0.92283800  0.20143600  0.36042000  1
  Li  Li31  1  0.57716200  0.20143600  0.86042000  1
  Li  Li32  1  0.39628600  0.17266700  0.67221700  1
  Li  Li33  1  0.10371400  0.17266700  0.17221700  1
  Li  Li34  1  0.58768200  0.15984000  0.49596300  1
  Li  Li35  1  0.91231800  0.15984000  0.99596300  1
  Li  Li36  1  0.89984600  0.07564600  0.74867700  1
  Li  Li37  1  0.60015400  0.07564600  0.24867700  1
  Li  Li38  1  0.08152500  0.05557500  0.56437200  1
  Li  Li39  1  0.41847500  0.05557500  0.06437200  1
  B  B0  1  0.82475500  0.95986400  0.12503100  1
  B  B1  1  0.67524500  0.95986400  0.62503100  1
  B  B2  1  0.32475500  0.54013600  0.12503100  1
  B  B3  1  0.17524500  0.54013600  0.62503100  1
  B  B4  1  0.82475500  0.45986400  0.37496900  1
  B  B5  1  0.67524500  0.45986400  0.87496900  1
  B  B6  1  0.32475500  0.04013600  0.37496900  1
  B  B7  1  0.17524500  0.04013600  0.87496900  1
  O  O0  1  0.12511000  0.95398500  0.12041400  1
  O  O1  1  0.37489000  0.95398500  0.62041400  1
  O  O2  1  0.73527000  0.87732000  0.20900500  1
  O  O3  1  0.76473000  0.87732000  0.70900500  1
  O  O4  1  0.69946000  0.87598800  0.04823000  1
  O  O5  1  0.80054000  0.87598800  0.54823000  1
  O  O6  1  0.23462400  0.87170000  0.37321500  1
  O  O7  1  0.26537600  0.87170000  0.87321500  1
  O  O8  1  0.73462400  0.62830000  0.37321500  1
  O  O9  1  0.76537600  0.62830000  0.87321500  1
  O  O10  1  0.19946000  0.62401200  0.04823000  1
  O  O11  1  0.30054000  0.62401200  0.54823000  1
  O  O12  1  0.26473000  0.62268000  0.70900500  1
  O  O13  1  0.23527000  0.62268000  0.20900500  1
  O  O14  1  0.62511000  0.54601500  0.12041400  1
  O  O15  1  0.87489000  0.54601500  0.62041400  1
  O  O16  1  0.12511000  0.45398500  0.37958600  1
  O  O17  1  0.37489000  0.45398500  0.87958600  1
  O  O18  1  0.76473000  0.37732000  0.79099500  1
  O  O19  1  0.73527000  0.37732000  0.29099500  1
  O  O20  1  0.80054000  0.37598800  0.95177000  1
  O  O21  1  0.69946000  0.37598800  0.45177000  1
  O  O22  1  0.23462400  0.37170000  0.12678500  1
  O  O23  1  0.26537600  0.37170000  0.62678500  1
  O  O24  1  0.76537600  0.12830000  0.62678500  1
  O  O25  1  0.73462400  0.12830000  0.12678500  1
  O  O26  1  0.19946000  0.12401200  0.45177000  1
  O  O27  1  0.30054000  0.12401200  0.95177000  1
  O  O28  1  0.26473000  0.12268000  0.79099500  1
  O  O29  1  0.23527000  0.12268000  0.29099500  1
  O  O30  1  0.62511000  0.04601500  0.37958600  1
  O  O31  1  0.87489000  0.04601500  0.87958600  1
loop_
_geom_bond_atom_site_label_1
_geom_bond_atom_site_label_2
_geom_bond_distance
_geom_bond_site_symmetry_2
Li0 O30 1.900737 1_565
Li0 O5 1.901085 1_555
Li0 O6 1.937135 1_655
Li0 O26 2.100663 1_665
Li1 O31 1.900737 1_565
Li1 O4 1.901085 1_556
Li1 O7 1.937135 1_555
Li1 O27 2.100663 1_565
Li2 O28 1.936733 1_565
Li2 O3 1.963254 1_555
Li2 O1 2.007523 1_555
Li2 O7 2.018922 1_555
Li3 O29 1.936733 1_565
Li3 O2 1.963254 1_455
Li3 O0 2.007523 1_555
Li3 O6 2.018922 1_555
Li4 O0 2.030677 1_555
Li4 O10 2.061178 1_555
Li4 O4 2.062737 1_455
Li4 O7 2.189822 1_554
Li5 O1 2.030677 1_555
Li5 O11 2.061178 1_555
Li5 O5 2.062737 1_555
Li5 O6 2.189822 1_555
Li6 O9 1.964016 1_555
Li6 O3 1.965657 1_555
Li6 O7 1.993763 1_655
Li6 O31 2.050106 1_565
Li7 O8 1.964016 1_555
Li7 O2 1.965657 1_555
Li7 O6 1.993763 1_555
Li7 O30 2.050106 1_565
Li8 O2 1.994065 1_555
Li8 O0 2.017650 1_555
Li8 O4 2.062520 1_555
Li8 O13 2.070741 1_555
Li8 O10 2.329711 1_555
Li9 O3 1.994065 1_455
Li9 O1 2.017650 1_555
Li9 O5 2.062520 1_455
Li9 O12 2.070741 1_555
Li9 O11 2.329711 1_555
Li10 O13 1.994065 1_655
Li10 O14 2.017650 1_555
Li10 O10 2.062520 1_655
Li10 O2 2.070741 1_555
Li10 O4 2.329711 1_555
Li11 O12 1.994065 1_555
Li11 O15 2.017650 1_555
Li11 O11 2.062520 1_555
Li11 O3 2.070741 1_555
Li11 O5 2.329711 1_555
Li12 O7 1.964016 1_555
Li12 O12 1.965657 1_555
Li12 O9 1.993763 1_555
Li12 O17 2.050106 1_555
Li13 O6 1.964016 1_555
Li13 O13 1.965657 1_555
Li13 O8 1.993763 1_455
Li13 O16 2.050106 1_555
Li14 O14 2.030677 1_555
Li14 O4 2.061178 1_555
Li14 O10 2.062737 1_555
Li14 O9 2.189822 1_554
Li15 O15 2.030677 1_555
Li15 O5 2.061178 1_555
Li15 O11 2.062737 1_655
Li15 O8 2.189822 1_555
Li16 O19 1.936733 1_555
Li16 O13 1.963254 1_555
Li16 O14 2.007523 1_555
Li16 O8 2.018922 1_555
Li17 O18 1.936733 1_555
Li17 O12 1.963254 1_655
Li17 O15 2.007523 1_555
Li17 O9 2.018922 1_555
Li18 O17 1.900737 1_555
Li18 O10 1.901085 1_556
Li18 O9 1.937135 1_455
Li18 O20 2.100663 1_455
Li19 O16 1.900737 1_555
Li19 O11 1.901085 1_555
Li19 O8 1.937135 1_555
Li19 O21 2.100663 1_555
Li20 O14 1.900737 1_555
Li20 O20 1.901085 1_554
Li20 O22 1.937135 1_655
Li20 O10 2.100663 1_655
Li21 O15 1.900737 1_555
Li21 O21 1.901085 1_555
Li21 O23 1.937135 1_555
Li21 O11 2.100663 1_555
Li22 O13 1.936733 1_555
Li22 O19 1.963254 1_455
Li22 O16 2.007523 1_555
Li22 O22 2.018922 1_555
Li23 O12 1.936733 1_555
Li23 O18 1.963254 1_555
Li23 O17 2.007523 1_555
Li23 O23 2.018922 1_555
Li24 O17 2.030677 1_555
Li24 O27 2.061178 1_555
Li24 O20 2.062737 1_555
Li24 O22 2.189822 1_556
Li25 O16 2.030677 1_555
Li25 O26 2.061178 1_555
Li25 O21 2.062737 1_455
Li25 O23 2.189822 1_555
Li26 O25 1.964016 1_555
Li26 O19 1.965657 1_555
Li26 O22 1.993763 1_555
Li26 O14 2.050106 1_555
Li27 O24 1.964016 1_555
Li27 O18 1.965657 1_555
Li27 O23 1.993763 1_655
Li27 O15 2.050106 1_555
Li28 O19 1.994065 1_555
Li28 O16 2.017650 1_555
Li28 O21 2.062520 1_555
Li28 O29 2.070741 1_555
Li28 O26 2.329711 1_555
Li29 O18 1.994065 1_455
Li29 O17 2.017650 1_555
Li29 O20 2.062520 1_455
Li29 O28 2.070741 1_555
Li29 O27 2.329711 1_555
Li30 O29 1.994065 1_655
Li30 O30 2.017650 1_555
Li30 O26 2.062520 1_655
Li30 O19 2.070741 1_555
Li30 O21 2.329711 1_555
Li31 O28 1.994065 1_555
Li31 O31 2.017650 1_555
Li31 O27 2.062520 1_555
Li31 O18 2.070741 1_555
Li31 O20 2.329711 1_555
Li32 O23 1.964016 1_555
Li32 O28 1.965657 1_555
Li32 O24 1.993763 1_555
Li32 O1 2.050106 1_545
Li33 O22 1.964016 1_555
Li33 O29 1.965657 1_555
Li33 O25 1.993763 1_455
Li33 O0 2.050106 1_545
Li34 O30 2.030677 1_555
Li34 O21 2.061178 1_555
Li34 O26 2.062737 1_555
Li34 O24 2.189822 1_555
Li35 O31 2.030677 1_555
Li35 O20 2.061178 1_555
Li35 O27 2.062737 1_655
Li35 O25 2.189822 1_556
Li36 O3 1.936733 1_545
Li36 O28 1.963254 1_655
Li36 O31 2.007523 1_555
Li36 O24 2.018922 1_555
Li37 O2 1.936733 1_545
Li37 O29 1.963254 1_555
Li37 O30 2.007523 1_555
Li37 O25 2.018922 1_555
Li38 O1 1.900737 1_545
Li38 O26 1.901085 1_555
Li38 O24 1.937135 1_455
Li38 O5 2.100663 1_445
Li39 O0 1.900737 1_545
Li39 O27 1.901085 1_554
Li39 O25 1.937135 1_555
Li39 O4 2.100663 1_545
B0 O0 1.492482 1_655
B0 O4 1.507072 1_555
B0 O25 1.523312 1_565
B0 O2 1.526824 1_555
B1 O1 1.492482 1_555
B1 O5 1.507072 1_555
B1 O24 1.523312 1_565
B1 O3 1.526824 1_555
B2 O14 1.492482 1_555
B2 O10 1.507072 1_555
B2 O22 1.523312 1_555
B2 O13 1.526824 1_555
B3 O15 1.492482 1_455
B3 O11 1.507072 1_555
B3 O23 1.523312 1_555
B3 O12 1.526824 1_555
B4 O16 1.492482 1_655
B4 O21 1.507072 1_555
B4 O8 1.523312 1_555
B4 O19 1.526824 1_555
B5 O17 1.492482 1_555
B5 O20 1.507072 1_555
B5 O9 1.523312 1_555
B5 O18 1.526824 1_555
B6 O30 1.492482 1_555
B6 O26 1.507072 1_555
B6 O6 1.523312 1_545
B6 O29 1.526824 1_555
B7 O31 1.492482 1_455
B7 O27 1.507072 1_555
B7 O7 1.523312 1_545
B7 O28 1.526824 1_555
