# generated using pymatgen
data_Ba3GeO5
_symmetry_space_group_name_H-M   'P 1'
_cell_length_a   10.66783945
_cell_length_b   10.66783945
_cell_length_c   10.66783967
_cell_angle_alpha   44.42051374
_cell_angle_beta   44.42051374
_cell_angle_gamma   44.42051447
_symmetry_Int_Tables_number   1
_chemical_formula_structural   Ba3GeO5
_chemical_formula_sum   'Ba9 Ge3 O15'
_cell_volume   540.65732147
_cell_formula_units_Z   3
loop_
 _symmetry_equiv_pos_site_id
 _symmetry_equiv_pos_as_xyz
  1  'x, y, z'
loop_
 _atom_site_type_symbol
 _atom_site_label
 _atom_site_symmetry_multiplicity
 _atom_site_fract_x
 _atom_site_fract_y
 _atom_site_fract_z
 _atom_site_occupancy
  Ba  Ba0  1  0.49689800  0.00052300  0.49689800  1
  Ba  Ba1  1  0.49689800  0.49689800  0.00052300  1
  Ba  Ba2  1  0.00052300  0.49689800  0.49689800  1
  Ba  Ba3  1  0.71046600  0.24100200  0.71046600  1
  Ba  Ba4  1  0.75537200  0.28581900  0.28581900  1
  Ba  Ba5  1  0.71046600  0.71046600  0.24100200  1
  Ba  Ba6  1  0.28581900  0.28581900  0.75537200  1
  Ba  Ba7  1  0.28581900  0.75537200  0.28581900  1
  Ba  Ba8  1  0.24100200  0.71046600  0.71046600  1
  Ge  Ge0  1  0.21587700  0.21587700  0.21587700  1
  Ge  Ge1  1  0.99621200  0.99621200  0.99621200  1
  Ge  Ge2  1  0.77482700  0.77482700  0.77482700  1
  O  O0  1  0.15347100  0.15347100  0.15347100  1
  O  O1  1  0.67363900  0.03722200  0.67363900  1
  O  O2  1  0.99645400  0.35761200  0.35761200  1
  O  O3  1  0.77545700  0.13807000  0.13807000  1
  O  O4  1  0.67363900  0.67363900  0.03722200  1
  O  O5  1  0.35761200  0.35761200  0.99645400  1
  O  O6  1  0.60962500  0.60962500  0.60962500  1
  O  O7  1  0.49755400  0.49755400  0.49755400  1
  O  O8  1  0.13807000  0.13807000  0.77545700  1
  O  O9  1  0.38277900  0.38277900  0.38277900  1
  O  O10  1  0.03722200  0.67363900  0.67363900  1
  O  O11  1  0.13807000  0.77545700  0.13807000  1
  O  O12  1  0.35761200  0.99645400  0.35761200  1
  O  O13  1  0.93374200  0.93374200  0.93374200  1
  O  O14  1  0.71287400  0.71287400  0.71287400  1
loop_
_geom_bond_atom_site_label_1
_geom_bond_atom_site_label_2
_geom_bond_distance
_geom_bond_site_symmetry_2
Ba0 O14 2.723516 1_545
Ba0 O9 2.743599 1_555
Ba0 O3 2.755544 1_555
Ba0 O8 2.755544 1_555
Ba0 O12 2.784890 1_545
Ba0 O6 2.832099 1_545
Ba1 O14 2.723516 1_554
Ba1 O9 2.743599 1_555
Ba1 O3 2.755544 1_555
Ba1 O11 2.755544 1_555
Ba1 O5 2.784890 1_554
Ba1 O6 2.832099 1_554
Ba2 O14 2.723516 1_455
Ba2 O9 2.743599 1_555
Ba2 O11 2.755544 1_555
Ba2 O8 2.755544 1_555
Ba2 O2 2.784890 1_455
Ba2 O6 2.832099 1_455
Ba3 O6 2.710330 1_555
Ba3 O2 2.711560 1_555
Ba3 O5 2.711560 1_555
Ba3 O7 2.723617 1_555
Ba3 O1 2.773964 1_555
Ba3 O13 2.808920 1_545
Ba4 O7 2.703370 1_555
Ba4 O4 2.717957 1_555
Ba4 O1 2.717957 1_555
Ba4 O3 2.756509 1_555
Ba4 O9 2.778710 1_555
Ba4 O0 2.782094 1_655
Ba5 O6 2.710330 1_555
Ba5 O2 2.711560 1_555
Ba5 O12 2.711560 1_555
Ba5 O7 2.723617 1_555
Ba5 O4 2.773964 1_555
Ba5 O13 2.808920 1_554
Ba6 O7 2.703370 1_555
Ba6 O1 2.717957 1_555
Ba6 O10 2.717957 1_555
Ba6 O8 2.756509 1_555
Ba6 O9 2.778710 1_555
Ba6 O0 2.782094 1_556
Ba7 O7 2.703370 1_555
Ba7 O4 2.717957 1_555
Ba7 O10 2.717957 1_555
Ba7 O11 2.756509 1_555
Ba7 O9 2.778710 1_555
Ba7 O0 2.782094 1_565
Ba8 O6 2.710330 1_555
Ba8 O12 2.711560 1_555
Ba8 O5 2.711560 1_555
Ba8 O7 2.723617 1_555
Ba8 O10 2.773964 1_555
Ba8 O13 2.808920 1_455
Ge0 O5 1.790508 1_554
Ge0 O12 1.790508 1_545
Ge0 O2 1.790508 1_455
Ge0 O0 1.796915 1_555
Ge1 O8 1.793333 1_665
Ge1 O11 1.793333 1_656
Ge1 O3 1.793333 1_566
Ge1 O13 1.798758 1_555
Ge2 O14 1.783871 1_555
Ge2 O1 1.788292 1_565
Ge2 O10 1.788292 1_655
Ge2 O4 1.788292 1_556
