# generated using pymatgen
data_Ba2SrI6
_symmetry_space_group_name_H-M   'P 1'
_cell_length_a   9.22808719
_cell_length_b   9.22807958
_cell_length_c   5.03726412
_cell_angle_alpha   89.99998669
_cell_angle_beta   89.99999272
_cell_angle_gamma   119.99990245
_symmetry_Int_Tables_number   1
_chemical_formula_structural   Ba2SrI6
_chemical_formula_sum   'Ba2 Sr1 I6'
_cell_volume   371.49143193
_cell_formula_units_Z   1
loop_
 _symmetry_equiv_pos_site_id
 _symmetry_equiv_pos_as_xyz
  1  'x, y, z'
loop_
 _atom_site_type_symbol
 _atom_site_label
 _atom_site_symmetry_multiplicity
 _atom_site_fract_x
 _atom_site_fract_y
 _atom_site_fract_z
 _atom_site_occupancy
  Ba  Ba0  1  0.33333343  0.66666739  0.50000002  1
  Ba  Ba1  1  0.66666699  0.33333370  0.49999995  1
  Sr  Sr0  1  -0.00000009  0.99999889  1.00000026  1
  I  I0  1  1.00000030  0.59576611  0.99999901  1
  I  I1  1  0.00000129  0.25090064  0.50000080  1
  I  I2  1  0.40423521  0.40423517  -0.00000080  1
  I  I3  1  0.25090065  0.00000064  0.49999909  1
  I  I4  1  0.74909843  0.74909876  0.50000099  1
  I  I5  1  0.59576377  0.99999870  0.00000069  1
loop_
_geom_bond_atom_site_label_1
_geom_bond_atom_site_label_2
_geom_bond_distance
_geom_bond_site_symmetry_2
Ba0 I4 3.518595 1_555
Ba0 I3 3.518595 1_565
Ba0 I1 3.518602 1_555
Ba0 I5 3.771054 1_555
Ba0 I5 3.771060 1_556
Ba0 I0 3.771064 1_455
Ba0 I2 3.771066 1_556
Ba0 I0 3.771071 1_454
Ba0 I2 3.771073 1_555
Ba1 I4 3.518592 1_555
Ba1 I3 3.518604 1_555
Ba1 I1 3.518608 1_655
Ba1 I2 3.771064 1_556
Ba1 I0 3.771069 1_555
Ba1 I2 3.771069 1_555
Ba1 I5 3.771072 1_545
Ba1 I0 3.771074 1_554
Ba1 I5 3.771076 1_546
I0 Sr0 3.730294 1_655
I1 Sr0 3.421150 1_545
I1 Sr0 3.421155 1_544
I2 Sr0 3.730327 1_544
I3 Sr0 3.421142 1_544
I3 Sr0 3.421150 1_545
I4 Sr0 3.421152 1_655
I4 Sr0 3.421156 1_654
I5 Sr0 3.730325 1_654
