# generated using pymatgen
data_V2(OF)3
_symmetry_space_group_name_H-M   'P 1'
_cell_length_a   5.11034464
_cell_length_b   5.13831962
_cell_length_c   12.91372949
_cell_angle_alpha   89.59626090
_cell_angle_beta   89.72688280
_cell_angle_gamma   60.10237431
_symmetry_Int_Tables_number   1
_chemical_formula_structural   V2(OF)3
_chemical_formula_sum   'V6 O9 F9'
_cell_volume   293.96083719
_cell_formula_units_Z   3
loop_
 _symmetry_equiv_pos_site_id
 _symmetry_equiv_pos_as_xyz
  1  'x, y, z'
loop_
 _atom_site_type_symbol
 _atom_site_label
 _atom_site_symmetry_multiplicity
 _atom_site_fract_x
 _atom_site_fract_y
 _atom_site_fract_z
 _atom_site_occupancy
  V  V0  1  0.95849345  0.01631636  0.50916716  1
  V  V1  1  0.02019333  0.97337305  0.99305010  1
  V  V2  1  0.38418008  0.26647664  0.16777855  1
  V  V3  1  0.68696496  0.60590372  0.33199618  1
  V  V4  1  0.27384076  0.37637875  0.66763693  1
  V  V5  1  0.66687945  0.69074680  0.84209303  1
  O  O0  1  0.57041952  0.42447472  0.25462180  1
  O  O1  1  0.66833132  0.23651376  0.58051647  1
  O  O2  1  0.90093233  0.76649298  0.91798784  1
  O  O3  1  0.67808297  0.08801206  0.08878317  1
  O  O4  1  0.99744566  0.43487662  0.75016185  1
  O  O5  1  0.91381032  0.33821279  0.41448512  1
  O  O6  1  0.41940766  0.00314510  0.24886177  1
  O  O7  1  0.09010338  0.66533074  0.58136993  1
  O  O8  1  0.33173379  0.90508931  0.91698743  1
  F  F0  1  0.99039560  0.58450341  0.24542640  1
  F  F1  1  0.76373716  0.91337073  0.40693518  1
  F  F2  1  0.41818411  0.58944955  0.74611901  1
  F  F3  1  0.25601103  0.66802559  0.08798493  1
  F  F4  1  0.57719590  0.01483659  0.74836170  1
  F  F5  1  0.74356299  0.33314887  0.91574590  1
  F  F6  1  0.25343443  0.07979790  0.58518154  1
  F  F7  1  0.08740136  0.26240549  0.08033684  1
  F  F8  1  0.34925843  0.76311347  0.41841317  1
loop_
_geom_bond_atom_site_label_1
_geom_bond_atom_site_label_2
_geom_bond_distance
_geom_bond_site_symmetry_2
O0 V3 1.671674 1_555
O0 V2 1.901551 1_555
O1 V0 1.630037 1_555
O1 V4 2.095672 1_555
O2 V5 1.738770 1_555
O2 V1 1.762690 1_655
O3 V2 1.662210 1_555
O3 V1 1.973553 1_644
O4 V4 1.669753 1_655
O4 V5 1.944335 1_555
O5 V3 1.664959 1_555
O5 V0 1.969902 1_555
O6 V2 1.642749 1_555
O6 V3 2.095059 1_545
O7 V4 1.709971 1_555
O7 V0 1.829571 1_465
O8 V1 1.748061 1_555
O8 V5 1.789002 1_555
F0 V3 1.865897 1_555
F0 V2 2.109747 1_655
F1 V0 1.886927 1_565
F1 V3 2.056574 1_555
F2 V4 1.896785 1_555
F2 V5 2.026275 1_555
F3 V1 1.875899 1_554
F3 V2 2.092172 1_555
F4 V5 1.914247 1_545
F4 V4 2.014501 1_555
F5 V5 1.922381 1_555
F5 V1 1.947997 1_645
F6 V4 1.910340 1_555
F6 V0 1.962279 1_455
F7 V2 1.903685 1_555
F7 V1 2.032231 1_544
F8 V3 1.865705 1_555
F8 V0 2.112611 1_465
