# generated using pymatgen
data_Li2Fe2P2O9
_symmetry_space_group_name_H-M   'P 1'
_cell_length_a   5.69516700
_cell_length_b   8.28923800
_cell_length_c   14.71886200
_cell_angle_alpha   90.00000000
_cell_angle_beta   90.00000000
_cell_angle_gamma   90.00000000
_symmetry_Int_Tables_number   1
_chemical_formula_structural   Li2Fe2P2O9
_chemical_formula_sum   'Li8 Fe8 P8 O36'
_cell_volume   694.85679079
_cell_formula_units_Z   4
loop_
 _symmetry_equiv_pos_site_id
 _symmetry_equiv_pos_as_xyz
  1  'x, y, z'
loop_
 _atom_site_type_symbol
 _atom_site_label
 _atom_site_symmetry_multiplicity
 _atom_site_fract_x
 _atom_site_fract_y
 _atom_site_fract_z
 _atom_site_occupancy
  Li  Li0  1  0.25000000  0.51821400  0.23214600  1
  Li  Li1  1  0.25000000  0.56793000  0.61992300  1
  Li  Li2  1  0.75000000  0.93207000  0.11992300  1
  Li  Li3  1  0.75000000  0.98178600  0.73214600  1
  Li  Li4  1  0.25000000  0.01821400  0.26785400  1
  Li  Li5  1  0.25000000  0.06793000  0.88007700  1
  Li  Li6  1  0.75000000  0.43207000  0.38007700  1
  Li  Li7  1  0.75000000  0.48178600  0.76785400  1
  Fe  Fe0  1  0.00000000  0.50000000  0.00000000  1
  Fe  Fe1  1  0.50000000  0.50000000  0.00000000  1
  Fe  Fe2  1  0.25000000  0.70385000  0.42435500  1
  Fe  Fe3  1  0.75000000  0.79615000  0.92435500  1
  Fe  Fe4  1  0.00000000  0.00000000  0.50000000  1
  Fe  Fe5  1  0.50000000  0.00000000  0.50000000  1
  Fe  Fe6  1  0.25000000  0.20385000  0.07564500  1
  Fe  Fe7  1  0.75000000  0.29615000  0.57564500  1
  P  P0  1  0.75000000  0.67154800  0.57350000  1
  P  P1  1  0.25000000  0.70596900  0.83123400  1
  P  P2  1  0.75000000  0.79403100  0.33123400  1
  P  P3  1  0.25000000  0.82845200  0.07350000  1
  P  P4  1  0.75000000  0.17154800  0.92650000  1
  P  P5  1  0.25000000  0.20596900  0.66876600  1
  P  P6  1  0.75000000  0.29403100  0.16876600  1
  P  P7  1  0.25000000  0.32845200  0.42650000  1
  O  O0  1  0.25000000  0.49183500  0.47955800  1
  O  O1  1  0.25000000  0.56849800  0.90820600  1
  O  O2  1  0.75000000  0.56048000  0.91529200  1
  O  O3  1  0.25000000  0.62228000  0.74161800  1
  O  O4  1  0.75000000  0.64974200  0.67555000  1
  O  O5  1  0.52980800  0.68235900  0.34685700  1
  O  O6  1  0.97019200  0.68235900  0.34685700  1
  O  O7  1  0.01805900  0.73737800  0.04256800  1
  O  O8  1  0.48194100  0.73737800  0.04256800  1
  O  O9  1  0.51805900  0.76262200  0.54256800  1
  O  O10  1  0.98194100  0.76262200  0.54256800  1
  O  O11  1  0.02980800  0.81764100  0.84685700  1
  O  O12  1  0.47019200  0.81764100  0.84685700  1
  O  O13  1  0.25000000  0.85025800  0.17555000  1
  O  O14  1  0.75000000  0.87772000  0.24161800  1
  O  O15  1  0.25000000  0.93952000  0.41529200  1
  O  O16  1  0.75000000  0.93150200  0.40820600  1
  O  O17  1  0.75000000  0.00816500  0.97955800  1
  O  O18  1  0.25000000  0.99183500  0.02044200  1
  O  O19  1  0.25000000  0.06849800  0.59179400  1
  O  O20  1  0.75000000  0.06048000  0.58470800  1
  O  O21  1  0.25000000  0.12228000  0.75838200  1
  O  O22  1  0.75000000  0.14974200  0.82445000  1
  O  O23  1  0.52980800  0.18235900  0.15314300  1
  O  O24  1  0.97019200  0.18235900  0.15314300  1
  O  O25  1  0.01805900  0.23737800  0.45743200  1
  O  O26  1  0.48194100  0.23737800  0.45743200  1
  O  O27  1  0.51805900  0.26262200  0.95743200  1
  O  O28  1  0.98194100  0.26262200  0.95743200  1
  O  O29  1  0.02980800  0.31764100  0.65314300  1
  O  O30  1  0.47019200  0.31764100  0.65314300  1
  O  O31  1  0.25000000  0.35025800  0.32445000  1
  O  O32  1  0.75000000  0.37772000  0.25838200  1
  O  O33  1  0.25000000  0.43952000  0.08470800  1
  O  O34  1  0.75000000  0.43150200  0.09179400  1
  O  O35  1  0.75000000  0.50816500  0.52044200  1
loop_
_geom_bond_atom_site_label_1
_geom_bond_atom_site_label_2
_geom_bond_distance
_geom_bond_site_symmetry_2
Li0 O31 1.945281 1_555
Li0 O33 2.266039 1_555
Li1 O3 1.847000 1_555
Li1 O0 2.160157 1_555
Li1 O29 2.473070 1_555
Li1 O30 2.473070 1_555
Li1 O10 2.496297 1_455
Li1 O9 2.496297 1_555
Li2 O14 1.847000 1_555
Li2 O17 2.160157 1_564
Li2 O24 2.473070 1_565
Li2 O23 2.473070 1_565
Li2 O8 2.496297 1_555
Li2 O7 2.496297 1_655
Li3 O22 1.945281 1_565
Li3 O20 2.266039 1_565
Li4 O13 1.945281 1_545
Li4 O15 2.266039 1_545
Li5 O21 1.847000 1_555
Li5 O18 2.160157 1_546
Li5 O12 2.473070 1_545
Li5 O11 2.473070 1_545
Li5 O28 2.496297 1_455
Li5 O27 2.496297 1_555
Li6 O32 1.847000 1_555
Li6 O35 2.160157 1_555
Li6 O6 2.473070 1_555
Li6 O5 2.473070 1_555
Li6 O25 2.496297 1_655
Li6 O26 2.496297 1_555
Li7 O4 1.945281 1_555
Li7 O2 2.266039 1_555
Fe0 O2 1.957815 1_454
Fe0 O33 1.957815 1_555
Fe0 O34 2.043295 1_455
Fe0 O1 2.043295 1_554
Fe0 O7 2.067588 1_555
Fe0 O28 2.067588 1_454
Fe1 O33 1.957815 1_555
Fe1 O2 1.957815 1_554
Fe1 O34 2.043295 1_555
Fe1 O1 2.043295 1_554
Fe1 O8 2.067588 1_555
Fe1 O27 2.067588 1_554
Fe2 O0 1.936182 1_555
Fe2 O15 1.958074 1_555
Fe2 O5 1.967817 1_555
Fe2 O6 1.967817 1_455
Fe2 O10 2.365467 1_455
Fe2 O9 2.365467 1_555
Fe3 O17 1.936182 1_565
Fe3 O2 1.958074 1_555
Fe3 O11 1.967817 1_655
Fe3 O12 1.967817 1_555
Fe3 O8 2.365467 1_556
Fe3 O7 2.365467 1_656
Fe4 O20 1.957815 1_455
Fe4 O15 1.957815 1_545
Fe4 O16 2.043295 1_445
Fe4 O19 2.043295 1_555
Fe4 O25 2.067588 1_555
Fe4 O10 2.067588 1_445
Fe5 O20 1.957815 1_555
Fe5 O15 1.957815 1_545
Fe5 O16 2.043295 1_545
Fe5 O19 2.043295 1_555
Fe5 O26 2.067588 1_555
Fe5 O9 2.067588 1_545
Fe6 O18 1.936182 1_545
Fe6 O33 1.958074 1_555
Fe6 O24 1.967817 1_455
Fe6 O23 1.967817 1_555
Fe6 O28 2.365467 1_454
Fe6 O27 2.365467 1_554
Fe7 O35 1.936182 1_555
Fe7 O20 1.958074 1_555
Fe7 O30 1.967817 1_555
Fe7 O29 1.967817 1_655
Fe7 O26 2.365467 1_555
Fe7 O25 2.365467 1_655
O0 P7 1.563353 1_555
O1 P1 1.606886 1_555
O3 P1 1.490344 1_555
O4 P0 1.512897 1_555
O5 P2 1.575546 1_555
O6 P2 1.575546 1_555
O7 P3 1.588112 1_555
O8 P3 1.588112 1_555
O9 P0 1.588112 1_555
O10 P0 1.588112 1_555
O11 P1 1.575546 1_555
O12 P1 1.575546 1_555
O13 P3 1.512897 1_555
O14 P2 1.490344 1_555
O16 P2 1.606886 1_555
O17 P4 1.563353 1_555
O18 P3 1.563353 1_555
O19 P5 1.606886 1_555
O21 P5 1.490344 1_555
O22 P4 1.512897 1_555
O23 P6 1.575546 1_555
O24 P6 1.575546 1_555
O25 P7 1.588112 1_555
O26 P7 1.588112 1_555
O27 P4 1.588112 1_555
O28 P4 1.588112 1_555
O29 P5 1.575546 1_555
O30 P5 1.575546 1_555
O31 P7 1.512897 1_555
O32 P6 1.490344 1_555
O34 P6 1.606886 1_555
O35 P0 1.563353 1_555
