# generated using pymatgen
data_Li3MnFe2(BO3)3
_symmetry_space_group_name_H-M   'P 1'
_cell_length_a   3.14540600
_cell_length_b   8.25182500
_cell_length_c   14.31751398
_cell_angle_alpha   89.97877847
_cell_angle_beta   90.00000000
_cell_angle_gamma   90.00000000
_symmetry_Int_Tables_number   1
_chemical_formula_structural   Li3MnFe2(BO3)3
_chemical_formula_sum   'Li6 Mn2 Fe4 B6 O18'
_cell_volume   371.61591595
_cell_formula_units_Z   2
loop_
 _symmetry_equiv_pos_site_id
 _symmetry_equiv_pos_as_xyz
  1  'x, y, z'
loop_
 _atom_site_type_symbol
 _atom_site_label
 _atom_site_symmetry_multiplicity
 _atom_site_fract_x
 _atom_site_fract_y
 _atom_site_fract_z
 _atom_site_occupancy
  Li  Li0  1  0.50000000  0.70708200  0.00895800  1
  Li  Li1  1  0.50000000  0.65861800  0.64278000  1
  Li  Li2  1  0.50000000  0.63295200  0.34803700  1
  Li  Li3  1  0.50000000  0.20587200  0.50690400  1
  Li  Li4  1  0.50000000  0.16017600  0.14208400  1
  Li  Li5  1  0.50000000  0.13448800  0.85008200  1
  Mn  Mn0  1  0.00000000  0.86497000  0.49396900  1
  Mn  Mn1  1  0.00000000  0.32576200  0.68568400  1
  Fe  Fe0  1  0.00000000  0.82410500  0.18352500  1
  Fe  Fe1  1  0.00000000  0.81239000  0.82066100  1
  Fe  Fe2  1  0.00000000  0.36405300  0.99619100  1
  Fe  Fe3  1  0.00000000  0.31327900  0.32049400  1
  B  B0  1  0.50000000  0.00071100  0.33136000  1
  B  B1  1  0.00000000  0.00047700  0.00013000  1
  B  B2  1  0.50000000  0.99877500  0.66809300  1
  B  B3  1  0.50000000  0.50202900  0.83479200  1
  B  B4  1  0.00000000  0.49782000  0.49993200  1
  B  B5  1  0.50000000  0.49988900  0.16640900  1
  O  O0  1  0.50000000  0.98907200  0.57092100  1
  O  O1  1  0.50000000  0.98245500  0.23463500  1
  O  O2  1  0.50000000  0.86264600  0.38822500  1
  O  O3  1  0.50000000  0.85779900  0.72154000  1
  O  O4  1  0.00000000  0.84852500  0.04255900  1
  O  O5  1  0.50000000  0.65628300  0.87431800  1
  O  O6  1  0.50000000  0.65200600  0.20861200  1
  O  O7  1  0.00000000  0.63497400  0.55649900  1
  O  O8  1  0.00000000  0.51442800  0.40247300  1
  O  O9  1  0.50000000  0.48773500  0.06957000  1
  O  O10  1  0.50000000  0.48575100  0.73775100  1
  O  O11  1  0.50000000  0.36470000  0.89140700  1
  O  O12  1  0.50000000  0.36065700  0.22122700  1
  O  O13  1  0.00000000  0.34431800  0.53931700  1
  O  O14  1  0.50000000  0.15383800  0.37155200  1
  O  O15  1  0.50000000  0.14868300  0.71141500  1
  O  O16  1  0.00000000  0.14000300  0.05469200  1
  O  O17  1  0.00000000  0.01267800  0.90320000  1
loop_
_geom_bond_atom_site_label_1
_geom_bond_atom_site_label_2
_geom_bond_distance
_geom_bond_site_symmetry_2
Li0 O5 1.972912 1_554
Li0 O9 2.007009 1_555
Li0 O4 2.016809 1_655
Li0 O4 2.016809 1_555
Li1 O10 1.970353 1_555
Li1 O3 1.993591 1_555
Li1 O7 2.009398 1_655
Li1 O7 2.009398 1_555
Li2 O2 1.981011 1_555
Li2 O6 2.002344 1_555
Li2 O8 2.009188 1_555
Li2 O8 2.009188 1_655
Li3 O14 1.985057 1_555
Li3 O13 1.998575 1_555
Li3 O13 1.998575 1_655
Li3 O0 2.009821 1_545
Li4 O1 1.976143 1_545
Li4 O12 2.005541 1_555
Li4 O16 2.016644 1_655
Li4 O16 2.016644 1_555
Li5 O15 1.988776 1_555
Li5 O11 1.989887 1_555
Li5 O17 2.015329 1_655
Li5 O17 2.015329 1_555
Mn0 O7 2.098149 1_555
Mn0 O0 2.176425 1_455
Mn0 O0 2.176425 1_555
Mn0 O2 2.183106 1_555
Mn0 O2 2.183106 1_455
Mn1 O13 2.101142 1_555
Mn1 O15 2.178049 1_455
Mn1 O15 2.178049 1_555
Mn1 O10 2.184669 1_455
Mn1 O10 2.184669 1_555
Fe0 O4 2.028243 1_555
Fe0 O6 2.149140 1_455
Fe0 O6 2.149140 1_555
Fe0 O1 2.171864 1_555
Fe0 O1 2.171864 1_455
Fe1 O17 2.032128 1_565
Fe1 O3 2.151148 1_555
Fe1 O3 2.151148 1_455
Fe1 O5 2.173067 1_455
Fe1 O5 2.173067 1_555
Fe2 O16 2.029421 1_556
Fe2 O9 2.149323 1_456
Fe2 O9 2.149323 1_556
Fe2 O11 2.173512 1_555
Fe2 O11 2.173512 1_455
Fe3 O8 2.033270 1_555
Fe3 O12 2.155412 1_455
Fe3 O12 2.155412 1_555
Fe3 O14 2.176715 1_455
Fe3 O14 2.176715 1_555
B0 O14 1.388635 1_555
B0 O1 1.393087 1_545
B0 O2 1.400056 1_545
B1 O17 1.391407 1_554
B1 O16 1.391589 1_555
B1 O4 1.393084 1_545
B2 O15 1.384016 1_565
B2 O3 1.392194 1_555
B2 O0 1.393593 1_555
B3 O11 1.393035 1_555
B3 O5 1.393201 1_555
B3 O10 1.395913 1_555
B4 O13 1.386328 1_555
B4 O7 1.391948 1_555
B4 O8 1.402034 1_555
B5 O9 1.390153 1_555
B5 O12 1.391167 1_555
B5 O6 1.393307 1_555
