# generated using pymatgen
data_Li2VO2F
_symmetry_space_group_name_H-M   'P 1'
_cell_length_a   7.97547217
_cell_length_b   7.97547217
_cell_length_c   10.39391316
_cell_angle_alpha   70.39897501
_cell_angle_beta   70.39897501
_cell_angle_gamma   21.85951938
_symmetry_Int_Tables_number   1
_chemical_formula_structural   Li2VO2F
_chemical_formula_sum   'Li8 V4 O8 F4'
_cell_volume   231.34907331
_cell_formula_units_Z   4
loop_
 _symmetry_equiv_pos_site_id
 _symmetry_equiv_pos_as_xyz
  1  'x, y, z'
loop_
 _atom_site_type_symbol
 _atom_site_label
 _atom_site_symmetry_multiplicity
 _atom_site_fract_x
 _atom_site_fract_y
 _atom_site_fract_z
 _atom_site_occupancy
  Li  Li0  1  0.92375700  0.92375700  0.69849700  1
  Li  Li1  1  0.92723600  0.92723600  0.19171000  1
  Li  Li2  1  0.56217400  0.56217400  0.03802400  1
  Li  Li3  1  0.57916700  0.57916700  0.54320800  1
  Li  Li4  1  0.07406700  0.07406700  0.29636000  1
  Li  Li5  1  0.41857100  0.41857100  0.45342900  1
  Li  Li6  1  0.43613200  0.43613200  0.97077800  1
  Li  Li7  1  0.06512200  0.06512200  0.80947800  1
  V  V0  1  0.74874000  0.74874000  0.13188500  1
  V  V1  1  0.74812900  0.74812900  0.62251700  1
  V  V2  1  0.24892800  0.24892800  0.37705300  1
  V  V3  1  0.23794200  0.23794200  0.87078500  1
  O  O0  1  0.67146300  0.67146300  0.82698500  1
  O  O1  1  0.67171700  0.67171700  0.33259000  1
  O  O2  1  0.82490300  0.82490300  0.42222800  1
  O  O3  1  0.18399800  0.18399800  0.07444100  1
  O  O4  1  0.32315200  0.32315200  0.17430900  1
  O  O5  1  0.17289800  0.17289800  0.57930200  1
  O  O6  1  0.32265800  0.32265800  0.67469000  1
  O  O7  1  0.99848500  0.99848500  0.00070700  1
  F  F0  1  0.82526500  0.82526500  0.91111300  1
  F  F1  1  0.50032800  0.50032800  0.25916500  1
  F  F2  1  0.49603500  0.49603500  0.74034500  1
  F  F3  1  0.99762900  0.99762900  0.50039800  1
loop_
_geom_bond_atom_site_label_1
_geom_bond_atom_site_label_2
_geom_bond_distance
_geom_bond_site_symmetry_2
Li0 O6 2.263351 1_565
Li0 O6 2.263351 1_655
Li1 O7 1.916422 1_555
Li1 O4 2.275567 1_655
Li1 O4 2.275567 1_565
Li1 O2 2.384399 1_555
Li2 O7 1.922627 1_545
Li2 O7 1.922627 1_455
Li2 O0 2.275009 1_554
Li2 O3 2.561992 1_565
Li2 O3 2.561992 1_655
Li3 O1 2.173719 1_555
Li3 O5 2.226826 1_655
Li3 O5 2.226826 1_565
Li4 O1 2.271783 1_455
Li4 O1 2.271783 1_545
Li4 O3 2.360290 1_555
Li5 O2 2.206593 1_455
Li5 O2 2.206593 1_545
Li5 O6 2.277005 1_555
Li6 O7 1.882745 1_456
Li6 O7 1.882745 1_546
Li6 O4 2.246851 1_556
Li7 O7 1.903243 1_446
Li7 O0 2.302329 1_545
Li7 O0 2.302329 1_455
Li7 O5 2.411096 1_555
O0 V3 1.975325 1_655
O0 V3 1.975325 1_565
O0 V1 2.052941 1_555
O1 V0 2.021740 1_555
O1 V2 2.084338 1_655
O1 V2 2.084338 1_565
O2 V1 2.017208 1_555
O2 V2 2.074806 1_565
O2 V2 2.074806 1_655
O3 V3 1.993112 1_554
O3 V0 2.021146 1_545
O3 V0 2.021146 1_455
O4 V2 2.029315 1_555
O4 V0 2.047073 1_455
O4 V0 2.047073 1_545
O5 V2 2.031373 1_555
O5 V1 2.058730 1_545
O5 V1 2.058730 1_455
O6 V3 2.016606 1_555
O6 V1 2.091838 1_545
O6 V1 2.091838 1_455
F0 V3 2.173599 1_655
F0 V3 2.173599 1_565
F0 V0 2.196064 1_556
F0 Li0 2.221204 1_555
F0 Li6 2.534178 1_565
F0 Li6 2.534178 1_655
F1 Li5 1.987424 1_555
F1 Li4 2.018664 1_565
F1 Li4 2.018664 1_655
F1 Li1 2.153408 1_455
F1 Li1 2.153408 1_545
F1 Li2 2.167960 1_555
F2 Li3 2.017590 1_555
F2 Li0 2.023308 1_545
F2 Li0 2.023308 1_455
F2 Li7 2.122522 1_565
F2 Li7 2.122522 1_655
F2 Li6 2.254155 1_555
F3 Li0 1.987534 1_555
F3 Li4 2.048382 1_665
F3 Li5 2.114518 1_565
F3 Li5 2.114518 1_655
F3 Li3 2.122210 1_565
F3 Li3 2.122210 1_655
