# generated using pymatgen
data_Li5V2Fe3O10
_symmetry_space_group_name_H-M   'P 1'
_cell_length_a   5.16595000
_cell_length_b   5.21108432
_cell_length_c   7.81858980
_cell_angle_alpha   102.26028986
_cell_angle_beta   109.11835318
_cell_angle_gamma   99.62090903
_symmetry_Int_Tables_number   1
_chemical_formula_structural   Li5V2Fe3O10
_chemical_formula_sum   'Li5 V2 Fe3 O10'
_cell_volume   187.83990306
_cell_formula_units_Z   1
loop_
 _symmetry_equiv_pos_site_id
 _symmetry_equiv_pos_as_xyz
  1  'x, y, z'
loop_
 _atom_site_type_symbol
 _atom_site_label
 _atom_site_symmetry_multiplicity
 _atom_site_fract_x
 _atom_site_fract_y
 _atom_site_fract_z
 _atom_site_occupancy
  Li  Li0  1  0.18579800  0.49677900  0.40666000  1
  Li  Li1  1  0.39207700  0.49331300  0.78531700  1
  Li  Li2  1  0.00000000  0.00000000  0.50000000  1
  Li  Li3  1  0.60792300  0.50668700  0.21468300  1
  Li  Li4  1  0.81420200  0.50322100  0.59334000  1
  V  V0  1  0.59111800  0.98583300  0.68096100  1
  V  V1  1  0.40888200  0.01416700  0.31903900  1
  Fe  Fe0  1  0.00000000  0.50000000  0.00000000  1
  Fe  Fe1  1  0.19872900  0.99613400  0.89106300  1
  Fe  Fe2  1  0.80127100  0.00386600  0.10893700  1
  O  O0  1  0.80495600  0.77304700  0.85178800  1
  O  O1  1  0.59149800  0.22003900  0.93546100  1
  O  O2  1  0.40542600  0.23611000  0.54277000  1
  O  O3  1  0.01416500  0.76440300  0.24354200  1
  O  O4  1  0.21837800  0.76881100  0.65995800  1
  O  O5  1  0.78162200  0.23118900  0.34004200  1
  O  O6  1  0.98583500  0.23559700  0.75645800  1
  O  O7  1  0.59457400  0.76389000  0.45723000  1
  O  O8  1  0.40850200  0.77996100  0.06453900  1
  O  O9  1  0.19504400  0.22695300  0.14821200  1
loop_
_geom_bond_atom_site_label_1
_geom_bond_atom_site_label_2
_geom_bond_distance
_geom_bond_site_symmetry_2
Li0 O4 2.114134 1_555
Li0 O5 2.135854 1_455
Li0 O2 2.145492 1_555
Li0 O3 2.187603 1_555
Li0 O7 2.188607 1_555
Li0 O9 2.222959 1_555
Li1 O4 2.068580 1_555
Li1 O2 2.105822 1_555
Li1 O0 2.203911 1_555
Li1 O1 2.208052 1_555
Li1 O6 2.208571 1_455
Li1 O8 2.335769 1_556
Li2 O5 2.111448 1_455
Li2 O4 2.111448 1_545
Li2 O2 2.125408 1_555
Li2 O7 2.125408 1_445
Li2 O6 2.147988 1_455
Li2 O3 2.147988 1_545
Li3 O5 2.068580 1_555
Li3 O7 2.105822 1_555
Li3 O9 2.203911 1_555
Li3 O8 2.208052 1_555
Li3 O3 2.208571 1_655
Li3 O1 2.335769 1_554
Li4 O5 2.114134 1_555
Li4 O4 2.135854 1_655
Li4 O7 2.145492 1_555
Li4 O6 2.187603 1_555
Li4 O2 2.188607 1_555
Li4 O0 2.222959 1_555
Fe0 O3 2.071313 1_555
Fe0 O6 2.071313 1_454
Fe0 O8 2.190232 1_555
Fe0 O1 2.190232 1_454
Fe0 O0 2.190272 1_454
Fe0 O9 2.190272 1_555
Fe1 O4 1.982369 1_555
Fe1 O6 2.032885 1_465
Fe1 O1 2.043065 1_565
Fe1 O0 2.057311 1_455
Fe1 O8 2.092166 1_556
Fe1 O9 2.120157 1_566
Fe2 O5 1.982369 1_555
Fe2 O3 2.032885 1_645
Fe2 O8 2.043065 1_545
Fe2 O9 2.057311 1_655
Fe2 O1 2.092166 1_554
Fe2 O0 2.120157 1_544
O0 V0 2.075019 1_555
O1 V0 2.101000 1_545
O2 V1 1.888384 1_555
O2 V0 2.031334 1_545
O3 V1 2.049023 1_565
O4 V0 1.999955 1_555
O5 V1 1.999955 1_555
O6 V0 2.049023 1_545
O7 V0 1.888384 1_555
O7 V1 2.031334 1_565
O8 V1 2.101000 1_565
O9 V1 2.075019 1_555
