# generated using pymatgen
data_Li5Fe3Ni2(PO4)6
_symmetry_space_group_name_H-M   'P 1'
_cell_length_a   8.40658400
_cell_length_b   8.49910672
_cell_length_c   8.51548389
_cell_angle_alpha   61.96077838
_cell_angle_beta   62.34155262
_cell_angle_gamma   62.31270819
_symmetry_Int_Tables_number   1
_chemical_formula_structural   Li5Fe3Ni2(PO4)6
_chemical_formula_sum   'Li5 Fe3 Ni2 P6 O24'
_cell_volume   451.39194131
_cell_formula_units_Z   1
loop_
 _symmetry_equiv_pos_site_id
 _symmetry_equiv_pos_as_xyz
  1  'x, y, z'
loop_
 _atom_site_type_symbol
 _atom_site_label
 _atom_site_symmetry_multiplicity
 _atom_site_fract_x
 _atom_site_fract_y
 _atom_site_fract_z
 _atom_site_occupancy
  Li  Li0  1  0.75256600  0.14075100  0.35536500  1
  Li  Li1  1  0.18606500  0.85314500  0.67532200  1
  Li  Li2  1  0.67308200  0.18134700  0.85934000  1
  Li  Li3  1  0.85908100  0.67001100  0.18112000  1
  Li  Li4  1  0.84036300  0.83923200  0.83764600  1
  Fe  Fe0  1  0.14601500  0.14640000  0.14383400  1
  Fe  Fe1  1  0.35399400  0.35724300  0.35408600  1
  Fe  Fe2  1  0.64744700  0.65084300  0.65265900  1
  Ni  Ni0  1  0.00671000  0.99721600  0.99750800  1
  Ni  Ni1  1  0.49266500  0.50146100  0.50290100  1
  P  P0  1  0.75295600  0.45248600  0.05307600  1
  P  P1  1  0.05722600  0.74895800  0.45167500  1
  P  P2  1  0.44570900  0.05392800  0.75837700  1
  P  P3  1  0.25566100  0.54220500  0.95756300  1
  P  P4  1  0.55346600  0.96156000  0.25733400  1
  P  P5  1  0.94671000  0.25216000  0.53746300  1
  O  O0  1  0.10623900  0.33444800  0.45477000  1
  O  O1  1  0.35359200  0.47935400  0.09830300  1
  O  O2  1  0.05466000  0.91192000  0.25893100  1
  O  O3  1  0.53268700  0.10151400  0.33680000  1
  O  O4  1  0.03136000  0.81366900  0.60179100  1
  O  O5  1  0.25326700  0.59180800  0.42494400  1
  O  O6  1  0.24833700  0.06396400  0.91372900  1
  O  O7  1  0.43077300  0.24687900  0.59399100  1
  O  O8  1  0.18354500  0.38839700  0.99664900  1
  O  O9  1  0.60028900  0.42270000  0.25497200  1
  O  O10  1  0.09527800  0.73268400  0.96378500  1
  O  O11  1  0.37719000  0.02079000  0.20691000  1
  O  O12  1  0.59852700  0.02497800  0.82469800  1
  O  O13  1  0.90075200  0.24842600  0.07195900  1
  O  O14  1  0.39459200  0.58120800  0.74886200  1
  O  O15  1  0.81965000  0.60307200  0.02403300  1
  O  O16  1  0.57879800  0.75525800  0.40016600  1
  O  O17  1  0.74002500  0.95546700  0.08867500  1
  O  O18  1  0.74244300  0.39888200  0.58361000  1
  O  O19  1  0.95372600  0.18951500  0.39058700  1
  O  O20  1  0.49047300  0.89170700  0.69352500  1
  O  O21  1  0.96209500  0.09212900  0.72608100  1
  O  O22  1  0.68937300  0.49645300  0.89061300  1
  O  O23  1  0.89261200  0.68283200  0.49934700  1
loop_
_geom_bond_atom_site_label_1
_geom_bond_atom_site_label_2
_geom_bond_distance
_geom_bond_site_symmetry_2
Li0 O9 2.085962 1_555
Li0 O19 2.088182 1_555
Li0 O13 2.098921 1_555
Li0 O3 2.108693 1_555
Li0 O2 2.425233 1_645
Li0 O7 2.571565 1_555
Li1 O4 1.885489 1_555
Li1 O10 2.070223 1_555
Li1 O21 2.091262 1_465
Li1 O14 2.168011 1_555
Li2 O12 1.886892 1_555
Li2 O21 2.074361 1_555
Li2 O17 2.075488 1_546
Li2 O18 2.218276 1_555
Li3 O15 1.877582 1_555
Li3 O17 2.046186 1_555
Li3 O10 2.072657 1_654
Li3 O16 2.271518 1_555
Li4 O15 1.910826 1_556
Li4 O12 1.923396 1_565
Li4 O4 1.936797 1_655
Li4 O21 2.406530 1_565
Li4 O17 2.407055 1_556
Li4 O10 2.446481 1_655
Fe0 O11 1.925350 1_555
Fe0 O8 1.926922 1_554
Fe0 O19 2.045110 1_455
Fe0 O6 2.058178 1_554
Fe0 O13 2.094948 1_455
Fe0 O2 2.099779 1_545
Fe1 O0 1.916123 1_555
Fe1 O1 1.923445 1_555
Fe1 O3 2.015839 1_555
Fe1 O5 2.035518 1_555
Fe1 O9 2.077356 1_555
Fe1 O7 2.080845 1_555
Fe2 O22 1.919747 1_555
Fe2 O23 1.927439 1_555
Fe2 O20 1.945823 1_555
Fe2 O16 2.150744 1_555
Fe2 O14 2.153214 1_555
Fe2 O18 2.174369 1_555
Ni0 O6 2.074072 1_565
Ni0 O10 2.131783 1_555
Ni0 O17 2.149227 1_456
Ni0 O2 2.165189 1_556
Ni0 O13 2.175967 1_466
Ni0 O21 2.214589 1_465
Ni1 O5 2.098943 1_555
Ni1 O7 2.155844 1_555
Ni1 O9 2.171743 1_555
Ni1 O18 2.171814 1_555
Ni1 O14 2.176723 1_555
Ni1 O16 2.243147 1_555
O0 P5 1.521635 1_455
O1 P3 1.518189 1_554
O2 P1 1.574981 1_555
O3 P4 1.535320 1_545
O4 P1 1.508517 1_555
O5 P1 1.563258 1_555
O6 P2 1.564322 1_555
O7 P2 1.574234 1_555
O8 P3 1.525533 1_555
O9 P0 1.584694 1_555
O10 P3 1.558020 1_555
O11 P4 1.525791 1_545
O12 P2 1.509662 1_555
O13 P0 1.580595 1_555
O14 P3 1.584695 1_555
O15 P0 1.501345 1_555
O16 P4 1.577196 1_555
O17 P4 1.558303 1_555
O18 P5 1.581920 1_555
O19 P5 1.542612 1_555
O20 P2 1.545393 1_565
O21 P5 1.556275 1_555
O22 P0 1.534330 1_556
O23 P1 1.543493 1_655
