# generated using pymatgen
data_Li2MnFe(BO3)2
_symmetry_space_group_name_H-M   'P 1'
_cell_length_a   6.32314000
_cell_length_b   8.25563200
_cell_length_c   8.26418694
_cell_angle_alpha   60.13264747
_cell_angle_beta   90.00000000
_cell_angle_gamma   90.00000000
_symmetry_Int_Tables_number   1
_chemical_formula_structural   Li2MnFe(BO3)2
_chemical_formula_sum   'Li6 Mn3 Fe3 B6 O18'
_cell_volume   374.10441570
_cell_formula_units_Z   3
loop_
 _symmetry_equiv_pos_site_id
 _symmetry_equiv_pos_as_xyz
  1  'x, y, z'
loop_
 _atom_site_type_symbol
 _atom_site_label
 _atom_site_symmetry_multiplicity
 _atom_site_fract_x
 _atom_site_fract_y
 _atom_site_fract_z
 _atom_site_occupancy
  Li  Li0  1  0.74944300  0.71683200  0.30164400  1
  Li  Li1  1  0.25055700  0.71683200  0.30164400  1
  Li  Li2  1  0.74956900  0.98316200  0.71545100  1
  Li  Li3  1  0.25043100  0.98316200  0.71545100  1
  Li  Li4  1  0.24964800  0.30126300  0.98405600  1
  Li  Li5  1  0.75035200  0.30126300  0.98405600  1
  Mn  Mn0  1  0.00000000  0.62815400  0.01183800  1
  Mn  Mn1  1  0.50000000  0.62676700  0.01202400  1
  Mn  Mn2  1  0.00000000  0.35936500  0.62826100  1
  Fe  Fe0  1  0.50000000  0.35920700  0.63376700  1
  Fe  Fe1  1  0.00000000  0.00797500  0.35903300  1
  Fe  Fe2  1  0.50000000  0.00813300  0.35961500  1
  B  B0  1  0.00000000  0.00179300  0.00082100  1
  B  B1  1  0.50000000  0.00175800  0.99830200  1
  B  B2  1  0.74815800  0.66789700  0.66406100  1
  B  B3  1  0.25184200  0.66789700  0.66406100  1
  B  B4  1  0.74850900  0.33061900  0.33549700  1
  B  B5  1  0.25149100  0.33061900  0.33549700  1
  O  O0  1  0.50000000  0.89270900  0.19195900  1
  O  O1  1  0.00000000  0.88878200  0.19482800  1
  O  O2  1  0.74984000  0.86188200  0.55626400  1
  O  O3  1  0.25016000  0.86188200  0.55626400  1
  O  O4  1  0.00000000  0.92091600  0.88779400  1
  O  O5  1  0.50000000  0.91900400  0.88766600  1
  O  O6  1  0.74596100  0.55963600  0.57872100  1
  O  O7  1  0.25403900  0.55963600  0.57872100  1
  O  O8  1  0.75010600  0.58207800  0.85747500  1
  O  O9  1  0.24989400  0.58207800  0.85747500  1
  O  O10  1  0.74954300  0.52494000  0.22275500  1
  O  O11  1  0.25045700  0.52494000  0.22275500  1
  O  O12  1  0.00000000  0.19487100  0.92143200  1
  O  O13  1  0.50000000  0.19641500  0.91496400  1
  O  O14  1  0.74979100  0.21763200  0.25455300  1
  O  O15  1  0.25020900  0.21763200  0.25455300  1
  O  O16  1  0.25305700  0.25113600  0.52836900  1
  O  O17  1  0.74694300  0.25113600  0.52836900  1
loop_
_geom_bond_atom_site_label_1
_geom_bond_atom_site_label_2
_geom_bond_distance
_geom_bond_site_symmetry_2
Li0 O10 1.990823 1_555
Li0 O6 1.992038 1_555
Li0 O1 2.014033 1_655
Li0 O0 2.026520 1_555
Li1 O11 1.990823 1_555
Li1 O7 1.992038 1_555
Li1 O1 2.014033 1_555
Li1 O0 2.026520 1_555
Li2 O17 1.969322 1_565
Li2 O2 2.011235 1_555
Li2 O5 2.011358 1_555
Li2 O4 2.017713 1_655
Li3 O16 1.969322 1_565
Li3 O3 2.011235 1_555
Li3 O5 2.011358 1_555
Li3 O4 2.017713 1_555
Li4 O15 1.984105 1_556
Li4 O12 1.995973 1_555
Li4 O9 2.013311 1_555
Li4 O13 2.018279 1_555
Li5 O14 1.984105 1_556
Li5 O12 1.995973 1_655
Li5 O8 2.013311 1_555
Li5 O13 2.018279 1_555
Mn0 O4 2.103506 1_554
Mn0 O9 2.179939 1_554
Mn0 O8 2.179939 1_454
Mn0 O11 2.189304 1_555
Mn0 O10 2.189304 1_455
Mn1 O5 2.099363 1_554
Mn1 O9 2.176633 1_554
Mn1 O8 2.176633 1_554
Mn1 O10 2.184309 1_555
Mn1 O11 2.184309 1_555
Mn2 O12 2.106474 1_555
Mn2 O17 2.185143 1_455
Mn2 O16 2.185143 1_555
Mn2 O7 2.192560 1_555
Mn2 O6 2.192560 1_455
Fe0 O13 2.023839 1_555
Fe0 O6 2.148012 1_555
Fe0 O7 2.148012 1_555
Fe0 O16 2.183312 1_555
Fe0 O17 2.183312 1_555
Fe1 O1 2.034639 1_545
Fe1 O2 2.157661 1_445
Fe1 O3 2.157661 1_545
Fe1 O14 2.180813 1_455
Fe1 O15 2.180813 1_555
Fe2 O0 2.035367 1_545
Fe2 O2 2.154127 1_545
Fe2 O3 2.154127 1_545
Fe2 O15 2.178128 1_555
Fe2 O14 2.178128 1_555
B0 O12 1.389112 1_554
B0 O4 1.392652 1_544
B0 O1 1.396854 1_545
B1 O5 1.387394 1_545
B1 O0 1.391688 1_546
B1 O13 1.398032 1_555
B2 O6 1.387161 1_555
B2 O8 1.388924 1_555
B2 O2 1.391936 1_555
B3 O7 1.387161 1_555
B3 O9 1.388924 1_555
B3 O3 1.391936 1_555
B4 O17 1.389091 1_555
B4 O14 1.392510 1_555
B4 O10 1.397509 1_555
B5 O16 1.389091 1_555
B5 O15 1.392510 1_555
B5 O11 1.397509 1_555
