# generated using pymatgen
data_Cd(GaO2)2
_symmetry_space_group_name_H-M   'P 1'
_cell_length_a   3.00851100
_cell_length_b   9.25103200
_cell_length_c   10.76849400
_cell_angle_alpha   90.00000000
_cell_angle_beta   90.00000000
_cell_angle_gamma   90.00000000
_symmetry_Int_Tables_number   1
_chemical_formula_structural   Cd(GaO2)2
_chemical_formula_sum   'Cd4 Ga8 O16'
_cell_volume   299.70691088
_cell_formula_units_Z   4
loop_
 _symmetry_equiv_pos_site_id
 _symmetry_equiv_pos_as_xyz
  1  'x, y, z'
loop_
 _atom_site_type_symbol
 _atom_site_label
 _atom_site_symmetry_multiplicity
 _atom_site_fract_x
 _atom_site_fract_y
 _atom_site_fract_z
 _atom_site_occupancy
  Cd  Cd0  1  0.75000000  0.24199900  0.34505100  1
  Cd  Cd1  1  0.25000000  0.25800100  0.84505100  1
  Cd  Cd2  1  0.75000000  0.74199900  0.15494900  1
  Cd  Cd3  1  0.25000000  0.75800100  0.65494900  1
  Ga  Ga0  1  0.75000000  0.08337900  0.60467100  1
  Ga  Ga1  1  0.75000000  0.06363600  0.11270900  1
  Ga  Ga2  1  0.25000000  0.43636400  0.61270900  1
  Ga  Ga3  1  0.25000000  0.41662100  0.10467100  1
  Ga  Ga4  1  0.75000000  0.58337900  0.89532900  1
  Ga  Ga5  1  0.75000000  0.56363600  0.38729100  1
  Ga  Ga6  1  0.25000000  0.93636400  0.88729100  1
  Ga  Ga7  1  0.25000000  0.91662100  0.39532900  1
  O  O0  1  0.25000000  0.02980500  0.71584500  1
  O  O1  1  0.75000000  0.08120000  0.92923900  1
  O  O2  1  0.25000000  0.11576900  0.47664100  1
  O  O3  1  0.25000000  0.20363900  0.15864000  1
  O  O4  1  0.75000000  0.29636100  0.65864000  1
  O  O5  1  0.75000000  0.38423100  0.97664100  1
  O  O6  1  0.25000000  0.41880000  0.42923900  1
  O  O7  1  0.75000000  0.47019500  0.21584500  1
  O  O8  1  0.25000000  0.52980500  0.78415500  1
  O  O9  1  0.75000000  0.58120000  0.57076100  1
  O  O10  1  0.25000000  0.61576900  0.02335900  1
  O  O11  1  0.25000000  0.70363900  0.34136000  1
  O  O12  1  0.75000000  0.79636100  0.84136000  1
  O  O13  1  0.75000000  0.88423100  0.52335900  1
  O  O14  1  0.25000000  0.91880000  0.07076100  1
  O  O15  1  0.75000000  0.97019500  0.28415500  1
loop_
_geom_bond_atom_site_label_1
_geom_bond_atom_site_label_2
_geom_bond_distance
_geom_bond_site_symmetry_2
Cd0 O2 2.373690 1_555
Cd0 O2 2.373690 1_655
Cd0 O6 2.399964 1_655
Cd0 O6 2.399964 1_555
Cd0 O7 2.528318 1_555
Cd0 O3 2.533423 1_555
Cd0 O3 2.533423 1_655
Cd0 O15 2.598570 1_545
Cd1 O5 2.373690 1_555
Cd1 O5 2.373690 1_455
Cd1 O1 2.399964 1_455
Cd1 O1 2.399964 1_555
Cd1 O0 2.528318 1_555
Cd1 O4 2.533423 1_555
Cd1 O4 2.533423 1_455
Cd1 O8 2.598570 1_555
Cd2 O10 2.373690 1_655
Cd2 O10 2.373690 1_555
Cd2 O14 2.399964 1_655
Cd2 O14 2.399964 1_555
Cd2 O15 2.528318 1_555
Cd2 O11 2.533423 1_655
Cd2 O11 2.533423 1_555
Cd2 O7 2.598570 1_555
Cd3 O13 2.373690 1_555
Cd3 O13 2.373690 1_455
Cd3 O9 2.399964 1_455
Cd3 O9 2.399964 1_555
Cd3 O8 2.528318 1_555
Cd3 O12 2.533423 1_555
Cd3 O12 2.533423 1_455
Cd3 O0 2.598570 1_565
Ga0 O0 1.985359 1_555
Ga0 O0 1.985359 1_655
Ga0 O13 2.039816 1_545
Ga0 O4 2.054227 1_555
Ga0 O2 2.062367 1_655
Ga0 O2 2.062367 1_555
Ga1 O1 1.982366 1_554
Ga1 O15 2.038564 1_545
Ga1 O3 2.045701 1_555
Ga1 O3 2.045701 1_655
Ga1 O14 2.064490 1_545
Ga1 O14 2.064490 1_645
Ga2 O6 1.982366 1_555
Ga2 O8 2.038564 1_555
Ga2 O4 2.045701 1_455
Ga2 O4 2.045701 1_555
Ga2 O9 2.064490 1_555
Ga2 O9 2.064490 1_455
Ga3 O7 1.985359 1_555
Ga3 O7 1.985359 1_455
Ga3 O10 2.039816 1_555
Ga3 O3 2.054227 1_555
Ga3 O5 2.062367 1_554
Ga3 O5 2.062367 1_454
Ga4 O8 1.985359 1_555
Ga4 O8 1.985359 1_655
Ga4 O5 2.039816 1_555
Ga4 O12 2.054227 1_555
Ga4 O10 2.062367 1_656
Ga4 O10 2.062367 1_556
Ga5 O9 1.982366 1_555
Ga5 O7 2.038564 1_555
Ga5 O11 2.045701 1_655
Ga5 O11 2.045701 1_555
Ga5 O6 2.064490 1_655
Ga5 O6 2.064490 1_555
Ga6 O14 1.982366 1_556
Ga6 O0 2.038564 1_565
Ga6 O12 2.045701 1_455
Ga6 O12 2.045701 1_555
Ga6 O1 2.064490 1_565
Ga6 O1 2.064490 1_465
Ga7 O15 1.985359 1_555
Ga7 O15 1.985359 1_455
Ga7 O2 2.039816 1_565
Ga7 O11 2.054227 1_555
Ga7 O13 2.062367 1_555
Ga7 O13 2.062367 1_455
