# generated using pymatgen
data_Li4MnFe3(BO3)4
_symmetry_space_group_name_H-M   'P 1'
_cell_length_a   5.25326300
_cell_length_b   6.20097919
_cell_length_c   7.89269321
_cell_angle_alpha   78.38759740
_cell_angle_beta   88.46504577
_cell_angle_gamma   88.82893147
_symmetry_Int_Tables_number   1
_chemical_formula_structural   Li4MnFe3(BO3)4
_chemical_formula_sum   'Li4 Mn1 Fe3 B4 O12'
_cell_volume   251.72479430
_cell_formula_units_Z   1
loop_
 _symmetry_equiv_pos_site_id
 _symmetry_equiv_pos_as_xyz
  1  'x, y, z'
loop_
 _atom_site_type_symbol
 _atom_site_label
 _atom_site_symmetry_multiplicity
 _atom_site_fract_x
 _atom_site_fract_y
 _atom_site_fract_z
 _atom_site_occupancy
  Li  Li0  1  0.56602300  0.87137000  0.80403300  1
  Li  Li1  1  0.93135200  0.62873100  0.69672200  1
  Li  Li2  1  0.06561000  0.37103900  0.30342500  1
  Li  Li3  1  0.43300400  0.12726200  0.19733600  1
  Mn  Mn0  1  0.07429400  0.08933900  0.67722600  1
  Fe  Fe0  1  0.43003800  0.41310600  0.82845000  1
  Fe  Fe1  1  0.93179900  0.91225500  0.32476600  1
  Fe  Fe2  1  0.57854000  0.58748800  0.17948200  1
  B  B0  1  0.42690000  0.76054400  0.49664900  1
  B  B1  1  0.92649800  0.26305900  0.99787300  1
  B  B2  1  0.07266600  0.73682100  0.00204600  1
  B  B3  1  0.57489100  0.23960300  0.50035700  1
  O  O0  1  0.33214800  0.70385500  0.97783800  1
  O  O1  1  0.92175900  0.83669600  0.86641100  1
  O  O2  1  0.04180500  0.34458800  0.83624900  1
  O  O3  1  0.16403600  0.79179500  0.52064700  1
  O  O4  1  0.57244400  0.66151600  0.63401300  1
  O  O5  1  0.53998500  0.84053800  0.33401400  1
  O  O6  1  0.46566500  0.16296900  0.66469200  1
  O  O7  1  0.42321400  0.34124000  0.36445700  1
  O  O8  1  0.83360200  0.20407500  0.47241000  1
  O  O9  1  0.95719900  0.65823000  0.16517200  1
  O  O10  1  0.07143800  0.15800000  0.13438200  1
  O  O11  1  0.66508800  0.29587800  0.02134900  1
loop_
_geom_bond_atom_site_label_1
_geom_bond_atom_site_label_2
_geom_bond_distance
_geom_bond_site_symmetry_2
Li0 O1 1.941955 1_555
Li0 O0 1.964310 1_555
Li0 O6 1.987098 1_565
Li0 O4 2.047935 1_555
Li1 O4 1.958314 1_555
Li1 O3 1.960017 1_655
Li1 O2 1.966019 1_655
Li1 O1 2.036750 1_555
Li2 O8 1.935163 1_455
Li2 O7 1.947751 1_555
Li2 O9 1.973838 1_455
Li2 O10 2.057168 1_555
Li3 O5 1.964746 1_545
Li3 O11 1.971230 1_555
Li3 O10 1.971948 1_555
Li3 O7 2.049697 1_555
Mn0 O8 2.080360 1_455
Mn0 O1 2.090811 1_445
Mn0 O6 2.110586 1_555
Mn0 O2 2.210642 1_555
Mn0 O3 2.450506 1_545
Fe0 O11 1.997389 1_556
Fe0 O4 2.078812 1_555
Fe0 O2 2.088539 1_555
Fe0 O6 2.212174 1_555
Fe0 O0 2.385504 1_555
Fe1 O3 2.008845 1_655
Fe1 O10 2.045238 1_665
Fe1 O5 2.110925 1_555
Fe1 O9 2.206110 1_555
Fe1 O8 2.382678 1_565
Fe2 O9 2.041022 1_555
Fe2 O7 2.053912 1_555
Fe2 O0 2.082987 1_554
Fe2 O5 2.176037 1_555
Fe2 O11 2.424636 1_555
B0 O4 1.376333 1_555
B0 O5 1.400546 1_555
B0 O3 1.403611 1_555
B1 O10 1.380614 1_656
B1 O11 1.397034 1_556
B1 O2 1.400457 1_655
B2 O1 1.384388 1_454
B2 O0 1.388089 1_554
B2 O9 1.407390 1_455
B3 O8 1.391238 1_555
B3 O7 1.391302 1_555
B3 O6 1.400187 1_555
