# generated using pymatgen
data_LiTi(PO3)4
_symmetry_space_group_name_H-M   'P 1'
_cell_length_a   13.09652800
_cell_length_b   7.30305300
_cell_length_c   11.57628156
_cell_angle_alpha   54.66650259
_cell_angle_beta   90.00000000
_cell_angle_gamma   90.00000000
_symmetry_Int_Tables_number   1
_chemical_formula_structural   LiTi(PO3)4
_chemical_formula_sum   'Li4 Ti4 P16 O48'
_cell_volume   903.26088451
_cell_formula_units_Z   4
loop_
 _symmetry_equiv_pos_site_id
 _symmetry_equiv_pos_as_xyz
  1  'x, y, z'
loop_
 _atom_site_type_symbol
 _atom_site_label
 _atom_site_symmetry_multiplicity
 _atom_site_fract_x
 _atom_site_fract_y
 _atom_site_fract_z
 _atom_site_occupancy
  Li  Li0  1  0.21845800  0.87853300  0.04064200  1
  Li  Li1  1  0.71845800  0.12146700  0.45935800  1
  Li  Li2  1  0.28154200  0.87853300  0.54064200  1
  Li  Li3  1  0.78154200  0.12146700  0.95935800  1
  Ti  Ti0  1  0.29895900  0.51796500  0.43572200  1
  Ti  Ti1  1  0.79895900  0.48203500  0.06427800  1
  Ti  Ti2  1  0.20104100  0.51796500  0.93572200  1
  Ti  Ti3  1  0.70104100  0.48203500  0.56427800  1
  P  P0  1  0.61119600  0.82950400  0.24589700  1
  P  P1  1  0.13422900  0.41391200  0.69479100  1
  P  P2  1  0.91629600  0.45749700  0.70851800  1
  P  P3  1  0.89372900  0.07099000  0.22964000  1
  P  P4  1  0.39372900  0.92901000  0.27036000  1
  P  P5  1  0.41629600  0.54250300  0.79148200  1
  P  P6  1  0.63422900  0.58608800  0.80520900  1
  P  P7  1  0.11119600  0.17049600  0.25410300  1
  P  P8  1  0.88880400  0.82950400  0.74589700  1
  P  P9  1  0.36577100  0.41391200  0.19479100  1
  P  P10  1  0.58370400  0.45749700  0.20851800  1
  P  P11  1  0.60627100  0.07099000  0.72964000  1
  P  P12  1  0.10627100  0.92901000  0.77036000  1
  P  P13  1  0.08370400  0.54250300  0.29148200  1
  P  P14  1  0.86577100  0.58608800  0.30520900  1
  P  P15  1  0.38880400  0.17049600  0.75410300  1
  O  O0  1  0.86687200  0.82593200  0.27973100  1
  O  O1  1  0.90251600  0.21853000  0.82498000  1
  O  O2  1  0.43022800  0.39750100  0.72931000  1
  O  O3  1  0.31900600  0.84037400  0.21349000  1
  O  O4  1  0.68272300  0.95824600  0.12531800  1
  O  O5  1  0.14077500  0.38183400  0.83489800  1
  O  O6  1  0.64217200  0.75935200  0.39260700  1
  O  O7  1  0.89128200  0.24086100  0.06877700  1
  O  O8  1  0.50515500  0.96971400  0.20452300  1
  O  O9  1  0.02440000  0.51291900  0.62497300  1
  O  O10  1  0.21573300  0.55278400  0.58593000  1
  O  O11  1  0.33770900  0.43050500  0.91035900  1
  O  O12  1  0.83770900  0.56949500  0.58964100  1
  O  O13  1  0.00515500  0.03028600  0.29547700  1
  O  O14  1  0.71573300  0.44721600  0.91407000  1
  O  O15  1  0.39128200  0.75913900  0.43122300  1
  O  O16  1  0.52440000  0.48708100  0.87502700  1
  O  O17  1  0.14217200  0.24064800  0.10739300  1
  O  O18  1  0.64077500  0.61816600  0.66510200  1
  O  O19  1  0.18272300  0.04175400  0.37468200  1
  O  O20  1  0.81900600  0.15962600  0.28651000  1
  O  O21  1  0.93022800  0.60249900  0.77069000  1
  O  O22  1  0.36687200  0.17406800  0.22026900  1
  O  O23  1  0.40251600  0.78147000  0.67502000  1
  O  O24  1  0.59748400  0.21853000  0.32498000  1
  O  O25  1  0.63312800  0.82593200  0.77973100  1
  O  O26  1  0.06977200  0.39750100  0.22931000  1
  O  O27  1  0.18099400  0.84037400  0.71349000  1
  O  O28  1  0.81727700  0.95824600  0.62531800  1
  O  O29  1  0.35922500  0.38183400  0.33489800  1
  O  O30  1  0.85782800  0.75935200  0.89260700  1
  O  O31  1  0.47560000  0.51291900  0.12497300  1
  O  O32  1  0.60871800  0.24086100  0.56877700  1
  O  O33  1  0.28426700  0.55278400  0.08593000  1
  O  O34  1  0.99484500  0.96971400  0.70452300  1
  O  O35  1  0.16229100  0.43050500  0.41035900  1
  O  O36  1  0.66229100  0.56949500  0.08964100  1
  O  O37  1  0.78426700  0.44721600  0.41407000  1
  O  O38  1  0.97560000  0.48708100  0.37502700  1
  O  O39  1  0.49484500  0.03028600  0.79547700  1
  O  O40  1  0.10871800  0.75913900  0.93122300  1
  O  O41  1  0.35782800  0.24064800  0.60739300  1
  O  O42  1  0.85922500  0.61816600  0.16510200  1
  O  O43  1  0.31727700  0.04175400  0.87468200  1
  O  O44  1  0.68099400  0.15962600  0.78651000  1
  O  O45  1  0.56977200  0.60249900  0.27069000  1
  O  O46  1  0.09748400  0.78147000  0.17502000  1
  O  O47  1  0.13312800  0.17406800  0.72026900  1
loop_
_geom_bond_atom_site_label_1
_geom_bond_atom_site_label_2
_geom_bond_distance
_geom_bond_site_symmetry_2
Li0 O43 2.034192 1_564
Li0 O46 2.038882 1_555
Li0 O3 2.273868 1_555
Li0 O33 2.287909 1_555
Li0 O40 2.389099 1_554
Li1 O28 2.034192 1_545
Li1 O24 2.038882 1_555
Li1 O20 2.273868 1_555
Li1 O37 2.287909 1_555
Li1 O32 2.389099 1_555
Li2 O19 2.034192 1_565
Li2 O23 2.038882 1_555
Li2 O27 2.273868 1_555
Li2 O10 2.287909 1_555
Li2 O15 2.389099 1_555
Li3 O4 2.034192 1_546
Li3 O1 2.038882 1_555
Li3 O44 2.273868 1_555
Li3 O14 2.287909 1_555
Li3 O7 2.389099 1_556
O0 P3 1.569244 1_565
O0 P14 1.599288 1_555
O1 P2 1.474588 1_555
O2 P5 1.598199 1_555
O2 P15 1.604597 1_555
O3 P4 1.517574 1_555
O3 Ti0 2.285800 1_555
O4 P0 1.480510 1_555
O5 P1 1.501119 1_555
O5 Ti2 2.077443 1_555
O6 P0 1.518235 1_555
O6 Ti3 1.997525 1_555
O7 P3 1.528298 1_555
O7 Ti1 2.112051 1_555
O8 P4 1.592708 1_555
O8 P0 1.624594 1_555
O9 P1 1.602818 1_555
O9 P2 1.628146 1_455
O10 P1 1.509224 1_555
O10 Ti0 2.188090 1_555
O11 P5 1.523204 1_555
O11 Ti2 1.978573 1_555
O12 P2 1.523204 1_555
O12 Ti3 1.978573 1_555
O13 P3 1.592708 1_455
O13 P7 1.624594 1_555
O14 P6 1.509224 1_555
O14 Ti1 2.188090 1_556
O15 P4 1.528298 1_555
O15 Ti0 2.112051 1_555
O16 P6 1.602818 1_555
O16 P5 1.628146 1_555
O17 P7 1.518235 1_555
O17 Ti2 1.997525 1_554
O18 P6 1.501119 1_555
O18 Ti3 2.077443 1_555
O19 P7 1.480510 1_555
O20 P3 1.517574 1_555
O20 Ti1 2.285800 1_555
O21 P2 1.598199 1_555
O21 P8 1.604597 1_555
O22 P4 1.569244 1_545
O22 P9 1.599288 1_555
O23 P5 1.474588 1_555
O24 P10 1.474588 1_555
O25 P11 1.569244 1_565
O25 P6 1.599288 1_555
O26 P13 1.598199 1_555
O26 P7 1.604597 1_555
O27 P12 1.517574 1_555
O27 Ti2 2.285800 1_555
O28 P8 1.480510 1_555
O29 P9 1.501119 1_555
O29 Ti0 2.077443 1_555
O30 P8 1.518235 1_555
O30 Ti1 1.997525 1_556
O31 P9 1.602818 1_555
O31 P10 1.628146 1_555
O32 P11 1.528298 1_555
O32 Ti3 2.112051 1_555
O33 P9 1.509224 1_555
O33 Ti2 2.188090 1_554
O34 P12 1.592708 1_655
O34 P8 1.624594 1_555
O35 P13 1.523204 1_555
O35 Ti0 1.978573 1_555
O36 P10 1.523204 1_555
O36 Ti1 1.978573 1_555
O37 P14 1.509224 1_555
O37 Ti3 2.188090 1_555
O38 P14 1.602818 1_555
O38 P13 1.628146 1_655
O39 P11 1.592708 1_555
O39 P15 1.624594 1_555
O40 P12 1.528298 1_555
O40 Ti2 2.112051 1_555
O41 P15 1.518235 1_555
O41 Ti0 1.997525 1_555
O42 P14 1.501119 1_555
O42 Ti1 2.077443 1_555
O43 P15 1.480510 1_555
O44 P11 1.517574 1_555
O44 Ti3 2.285800 1_555
O45 P10 1.598199 1_555
O45 P0 1.604597 1_555
O46 P13 1.474588 1_555
O47 P12 1.569244 1_545
O47 P1 1.599288 1_555
