# generated using pymatgen
data_Ti3CrCu2(PO4)6
_symmetry_space_group_name_H-M   'P 1'
_cell_length_a   8.61383634
_cell_length_b   8.61383660
_cell_length_c   8.61383632
_cell_angle_alpha   60.02523090
_cell_angle_beta   60.02523489
_cell_angle_gamma   60.02523551
_symmetry_Int_Tables_number   1
_chemical_formula_structural   Ti3CrCu2(PO4)6
_chemical_formula_sum   'Ti3 Cr1 Cu2 P6 O24'
_cell_volume   452.19235643
_cell_formula_units_Z   1
loop_
 _symmetry_equiv_pos_site_id
 _symmetry_equiv_pos_as_xyz
  1  'x, y, z'
loop_
 _atom_site_type_symbol
 _atom_site_label
 _atom_site_symmetry_multiplicity
 _atom_site_fract_x
 _atom_site_fract_y
 _atom_site_fract_z
 _atom_site_occupancy
  Ti  Ti0  1  0.14244500  0.14244500  0.14244500  1
  Ti  Ti1  1  0.35690300  0.35690300  0.35690300  1
  Ti  Ti2  1  0.64352300  0.64352300  0.64352300  1
  Cr  Cr0  1  0.85826100  0.85826100  0.85826100  1
  Cu  Cu0  1  0.99895700  0.99895700  0.99895700  1
  Cu  Cu1  1  0.49973700  0.49973700  0.49973700  1
  P  P0  1  0.24858400  0.54267500  0.95811800  1
  P  P1  1  0.54267500  0.95811800  0.24858400  1
  P  P2  1  0.95811800  0.24858400  0.54267500  1
  P  P3  1  0.04085600  0.75079600  0.46073700  1
  P  P4  1  0.46073700  0.04085600  0.75079600  1
  P  P5  1  0.75079600  0.46073700  0.04085600  1
  O  O0  1  0.12250300  0.30661300  0.49871400  1
  O  O1  1  0.30661300  0.49871400  0.12250300  1
  O  O2  1  0.05729600  0.91561000  0.26635400  1
  O  O3  1  0.49871400  0.12250300  0.30661300  1
  O  O4  1  0.00834800  0.80316200  0.62062200  1
  O  O5  1  0.23292300  0.58362500  0.43855100  1
  O  O6  1  0.26635400  0.05729600  0.91561000  1
  O  O7  1  0.43855100  0.23292300  0.58362500  1
  O  O8  1  0.19435400  0.37626400  0.99984400  1
  O  O9  1  0.58362500  0.43855100  0.23292300  1
  O  O10  1  0.08459500  0.73391300  0.94456700  1
  O  O11  1  0.37626400  0.99984400  0.19435400  1
  O  O12  1  0.62062200  0.00834800  0.80316200  1
  O  O13  1  0.91561000  0.26635400  0.05729600  1
  O  O14  1  0.41653400  0.55610100  0.76716700  1
  O  O15  1  0.80316200  0.62062200  0.00834800  1
  O  O16  1  0.55610100  0.76716700  0.41653400  1
  O  O17  1  0.73391300  0.94456700  0.08459500  1
  O  O18  1  0.76716700  0.41653400  0.55610100  1
  O  O19  1  0.99984400  0.19435400  0.37626400  1
  O  O20  1  0.49995200  0.87585100  0.69495000  1
  O  O21  1  0.94456700  0.08459500  0.73391300  1
  O  O22  1  0.69495000  0.49995200  0.87585100  1
  O  O23  1  0.87585100  0.69495000  0.49995200  1
loop_
_geom_bond_atom_site_label_1
_geom_bond_atom_site_label_2
_geom_bond_distance
_geom_bond_site_symmetry_2
Cr0 O15 1.949381 1_556
Cr0 O12 1.949381 1_565
Cr0 O4 1.949381 1_655
Cr0 O10 2.016646 1_655
Cr0 O21 2.016646 1_565
Cr0 O17 2.016646 1_556
Cu0 O21 2.239769 1_565
Cu0 O17 2.239770 1_556
Cu0 O10 2.239770 1_655
Cu0 O2 2.284059 1_656
Cu0 O6 2.284059 1_665
Cu0 O13 2.284059 1_566
Cu1 O18 2.275101 1_555
Cu1 O16 2.275101 1_555
Cu1 O14 2.275101 1_555
Cu1 O5 2.291818 1_555
Cu1 O7 2.291818 1_555
Cu1 O9 2.291818 1_555
O0 P2 1.542913 1_455
O0 Ti1 1.907151 1_555
O1 P0 1.542913 1_554
O1 Ti1 1.907151 1_555
O2 P3 1.558136 1_555
O2 Ti0 2.015156 1_565
O3 P1 1.542913 1_545
O3 Ti1 1.907151 1_555
O4 P3 1.512550 1_555
O5 P3 1.557477 1_555
O5 Ti1 1.996758 1_555
O6 P4 1.558137 1_555
O6 Ti0 2.015156 1_556
O7 P4 1.557477 1_555
O7 Ti1 1.996758 1_555
O8 P0 1.545523 1_555
O8 Ti0 1.908989 1_556
O9 P5 1.557477 1_555
O9 Ti1 1.996758 1_555
O10 P0 1.539493 1_555
O11 P1 1.545523 1_555
O11 Ti0 1.908989 1_565
O12 P4 1.512550 1_555
O13 P5 1.558137 1_555
O13 Ti0 2.015156 1_655
O14 P0 1.552772 1_555
O14 Ti2 2.028147 1_555
O15 P5 1.512550 1_555
O16 P1 1.552772 1_555
O16 Ti2 2.028147 1_555
O17 P1 1.539493 1_555
O18 P2 1.552772 1_555
O18 Ti2 2.028147 1_555
O19 P2 1.545523 1_555
O19 Ti0 1.908989 1_655
O20 P4 1.551376 1_565
O20 Ti2 1.896308 1_555
O21 P2 1.539493 1_555
O22 P5 1.551376 1_556
O22 Ti2 1.896308 1_555
O23 P3 1.551376 1_655
O23 Ti2 1.896308 1_555
