# generated using pymatgen
data_TiO2
_symmetry_space_group_name_H-M   'P 1'
_cell_length_a   4.70760676
_cell_length_b   7.24121451
_cell_length_c   2.96826455
_cell_angle_alpha   78.17760968
_cell_angle_beta   90.00253256
_cell_angle_gamma   91.91848805
_symmetry_Int_Tables_number   1
_chemical_formula_structural   TiO2
_chemical_formula_sum   'Ti3 O6'
_cell_volume   98.98024446
_cell_formula_units_Z   3
loop_
 _symmetry_equiv_pos_site_id
 _symmetry_equiv_pos_as_xyz
  1  'x, y, z'
loop_
 _atom_site_type_symbol
 _atom_site_label
 _atom_site_symmetry_multiplicity
 _atom_site_fract_x
 _atom_site_fract_y
 _atom_site_fract_z
 _atom_site_occupancy
  Ti  Ti0  1  0.52047436  0.31550364  0.33829186  1
  Ti  Ti1  1  0.48025965  0.68304013  0.65535979  1
  Ti  Ti2  1  0.00038881  0.99929681  0.99662813  1
  O  O0  1  0.81530006  0.12717282  0.43197433  1
  O  O1  1  0.70300728  0.45048527  0.77059285  1
  O  O2  1  0.69183699  0.80482843  0.09350279  1
  O  O3  1  0.30895342  0.19375678  0.89876376  1
  O  O4  1  0.29772875  0.54812193  0.22207366  1
  O  O5  1  0.18543769  0.87146120  0.55996184  1
loop_
_geom_bond_atom_site_label_1
_geom_bond_atom_site_label_2
_geom_bond_distance
_geom_bond_site_symmetry_2
O0 Ti2 1.957270 1_644
O0 Ti0 1.958255 1_555
O0 Ti2 1.960540 1_645
O1 Ti0 1.948823 1_555
O1 Ti0 1.949937 1_556
O1 Ti1 1.983568 1_555
O2 Ti1 1.967790 1_554
O2 Ti2 1.967921 1_654
O2 Ti1 1.972266 1_555
O3 Ti2 1.967925 1_545
O3 Ti0 1.968960 1_555
O3 Ti0 1.970587 1_556
O4 Ti1 1.947565 1_554
O4 Ti1 1.950760 1_555
O4 Ti0 1.983942 1_555
O5 Ti2 1.957393 1_554
O5 Ti1 1.958696 1_555
O5 Ti2 1.959970 1_555
