# generated using pymatgen
data_LiVF3
_symmetry_space_group_name_H-M   'P 1'
_cell_length_a   6.16642900
_cell_length_b   6.16642900
_cell_length_c   6.16642900
_cell_angle_alpha   90.00000000
_cell_angle_beta   90.00000000
_cell_angle_gamma   90.00000000
_symmetry_Int_Tables_number   1
_chemical_formula_structural   LiVF3
_chemical_formula_sum   'Li4 V4 F12'
_cell_volume   234.47751687
_cell_formula_units_Z   4
loop_
 _symmetry_equiv_pos_site_id
 _symmetry_equiv_pos_as_xyz
  1  'x, y, z'
loop_
 _atom_site_type_symbol
 _atom_site_label
 _atom_site_symmetry_multiplicity
 _atom_site_fract_x
 _atom_site_fract_y
 _atom_site_fract_z
 _atom_site_occupancy
  Li  Li0  1  0.87529000  0.87529000  0.87529000  1
  Li  Li1  1  0.12471000  0.37529000  0.62471000  1
  Li  Li2  1  0.62471000  0.12471000  0.37529000  1
  Li  Li3  1  0.37529000  0.62471000  0.12471000  1
  V  V0  1  0.16308300  0.16308300  0.16308300  1
  V  V1  1  0.33691700  0.83691700  0.66308300  1
  V  V2  1  0.66308300  0.33691700  0.83691700  1
  V  V3  1  0.83691700  0.66308300  0.33691700  1
  F  F0  1  0.01049100  0.72642700  0.62783500  1
  F  F1  1  0.27357300  0.12783500  0.48950900  1
  F  F2  1  0.12783500  0.48950900  0.27357300  1
  F  F3  1  0.37216500  0.51049100  0.77357300  1
  F  F4  1  0.22642700  0.87216500  0.98950900  1
  F  F5  1  0.48950900  0.27357300  0.12783500  1
  F  F6  1  0.51049100  0.77357300  0.37216500  1
  F  F7  1  0.77357300  0.37216500  0.51049100  1
  F  F8  1  0.62783500  0.01049100  0.72642700  1
  F  F9  1  0.87216500  0.98950900  0.22642700  1
  F  F10  1  0.72642700  0.62783500  0.01049100  1
  F  F11  1  0.98950900  0.22642700  0.87216500  1
loop_
_geom_bond_atom_site_label_1
_geom_bond_atom_site_label_2
_geom_bond_distance
_geom_bond_site_symmetry_2
F0 Li0 1.966245 1_455
F0 V3 2.125171 1_455
F0 V1 2.136153 1_555
F0 Li1 2.277015 1_555
F1 Li1 1.966245 1_555
F1 V1 2.125171 1_545
F1 V0 2.136153 1_555
F1 Li2 2.277015 1_555
F2 Li3 1.966245 1_555
F2 V3 2.125171 1_455
F2 V0 2.136153 1_555
F2 Li1 2.277015 1_555
F3 Li1 1.966245 1_555
F3 V2 2.125171 1_555
F3 V1 2.136153 1_555
F3 Li3 2.277015 1_556
F4 Li3 1.966245 1_556
F4 V0 2.125171 1_566
F4 V1 2.136153 1_555
F4 Li0 2.277015 1_455
F5 Li2 1.966245 1_555
F5 V2 2.125171 1_554
F5 V0 2.136153 1_555
F5 Li3 2.277015 1_555
F6 Li3 1.966245 1_555
F6 V1 2.125171 1_555
F6 V3 2.136153 1_555
F6 Li2 2.277015 1_565
F7 Li2 1.966245 1_555
F7 V3 2.125171 1_555
F7 V2 2.136153 1_555
F7 Li1 2.277015 1_655
F8 Li0 1.966245 1_545
F8 V1 2.125171 1_545
F8 V2 2.136153 1_555
F8 Li2 2.277015 1_555
F9 Li2 1.966245 1_565
F9 V0 2.125171 1_665
F9 V3 2.136153 1_555
F9 Li0 2.277015 1_554
F10 Li0 1.966245 1_554
F10 V2 2.125171 1_554
F10 V3 2.136153 1_555
F10 Li3 2.277015 1_555
F11 Li1 1.966245 1_655
F11 V0 2.125171 1_656
F11 V2 2.136153 1_555
F11 Li0 2.277015 1_545
