# generated using pymatgen
data_Tm2(WO4)3
_symmetry_space_group_name_H-M   'P 1'
_cell_length_a   6.87344541
_cell_length_b   6.87344541
_cell_length_c   11.31645890
_cell_angle_alpha   79.27177595
_cell_angle_beta   79.27177595
_cell_angle_gamma   112.11359941
_symmetry_Int_Tables_number   1
_chemical_formula_structural   Tm2(WO4)3
_chemical_formula_sum   'Tm4 W6 O24'
_cell_volume   466.97362271
_cell_formula_units_Z   2
loop_
 _symmetry_equiv_pos_site_id
 _symmetry_equiv_pos_as_xyz
  1  'x, y, z'
loop_
 _atom_site_type_symbol
 _atom_site_label
 _atom_site_symmetry_multiplicity
 _atom_site_fract_x
 _atom_site_fract_y
 _atom_site_fract_z
 _atom_site_occupancy
  Tm  Tm0  1  0.71252500  0.95726900  0.59163500  1
  Tm  Tm1  1  0.95726900  0.71252500  0.09163500  1
  Tm  Tm2  1  0.04273100  0.28747500  0.90836500  1
  Tm  Tm3  1  0.28747500  0.04273100  0.40836500  1
  W  W0  1  0.53939200  0.75545200  0.94934600  1
  W  W1  1  0.75545200  0.53939200  0.44934600  1
  W  W2  1  0.13193700  0.86806300  0.75000000  1
  W  W3  1  0.86806300  0.13193700  0.25000000  1
  W  W4  1  0.24454800  0.46060800  0.55065400  1
  W  W5  1  0.46060800  0.24454800  0.05065400  1
  O  O0  1  0.54678300  0.90588200  0.79560300  1
  O  O1  1  0.86933800  0.78995500  0.71945300  1
  O  O2  1  0.07728600  0.65840600  0.89603200  1
  O  O3  1  0.76972600  0.32924600  0.56169800  1
  O  O4  1  0.82057400  0.92042600  0.96154600  1
  O  O5  1  0.52857100  0.60610100  0.57546100  1
  O  O6  1  0.90588200  0.54678300  0.29560300  1
  O  O7  1  0.39389900  0.47142900  0.92453900  1
  O  O8  1  0.07957400  0.17942600  0.53845400  1
  O  O9  1  0.67075400  0.23027400  0.93830200  1
  O  O10  1  0.34159400  0.92271400  0.60396800  1
  O  O11  1  0.78995500  0.86933800  0.21945300  1
  O  O12  1  0.21004500  0.13066200  0.78054700  1
  O  O13  1  0.65840600  0.07728600  0.39603300  1
  O  O14  1  0.32924600  0.76972600  0.06169800  1
  O  O15  1  0.92042600  0.82057400  0.46154600  1
  O  O16  1  0.60610100  0.52857100  0.07546100  1
  O  O17  1  0.09411800  0.45321700  0.70439700  1
  O  O18  1  0.47142900  0.39389900  0.42453900  1
  O  O19  1  0.17942600  0.07957400  0.03845400  1
  O  O20  1  0.23027400  0.67075400  0.43830200  1
  O  O21  1  0.92271400  0.34159400  0.10396800  1
  O  O22  1  0.13066200  0.21004500  0.28054700  1
  O  O23  1  0.45321700  0.09411800  0.20439700  1
loop_
_geom_bond_atom_site_label_1
_geom_bond_atom_site_label_2
_geom_bond_distance
_geom_bond_site_symmetry_2
O0 W0 1.832069 1_555
O0 Tm0 2.272639 1_555
O1 W2 1.799285 1_655
O1 Tm0 2.338993 1_555
O2 W2 1.850259 1_555
O2 Tm1 2.361434 1_456
O2 Tm2 2.444480 1_555
O3 W1 1.783797 1_555
O3 Tm0 2.382749 1_545
O4 W0 1.883560 1_555
O4 Tm2 2.291506 1_665
O4 Tm1 2.415499 1_556
O5 W4 1.930992 1_555
O5 W1 2.152288 1_555
O5 Tm0 2.326199 1_555
O6 W1 1.832069 1_555
O6 Tm1 2.272639 1_555
O7 W0 1.930992 1_555
O7 W5 2.152288 1_556
O7 Tm2 2.326199 1_555
O8 W4 1.883560 1_555
O8 Tm0 2.291506 1_445
O8 Tm3 2.415499 1_555
O9 W5 1.783797 1_556
O9 Tm2 2.382749 1_655
O10 W2 1.850259 1_555
O10 Tm3 2.361434 1_565
O10 Tm0 2.444480 1_555
O11 W3 1.799285 1_565
O11 Tm1 2.338993 1_555
O12 W2 1.799285 1_545
O12 Tm2 2.338993 1_555
O13 W3 1.850268 1_555
O13 Tm0 2.361424 1_545
O13 Tm3 2.444482 1_555
O14 W0 1.783797 1_554
O14 Tm1 2.382749 1_455
O15 W1 1.883560 1_555
O15 Tm3 2.291506 1_665
O15 Tm0 2.415499 1_555
O16 W5 1.930992 1_555
O16 W0 2.152288 1_554
O16 Tm1 2.326199 1_555
O17 W4 1.832069 1_555
O17 Tm2 2.272639 1_555
O18 W1 1.930992 1_555
O18 W4 2.152288 1_555
O18 Tm3 2.326199 1_555
O19 W5 1.883560 1_555
O19 Tm1 2.291506 1_445
O19 Tm2 2.415499 1_554
O20 W4 1.783797 1_555
O20 Tm3 2.382749 1_565
O21 W3 1.850259 1_555
O21 Tm2 2.361434 1_654
O21 Tm1 2.444480 1_555
O22 W3 1.799285 1_455
O22 Tm3 2.338993 1_555
O23 W5 1.832069 1_555
O23 Tm3 2.272639 1_555
