# generated using pymatgen
data_V3(O2F)2
_symmetry_space_group_name_H-M   'P 1'
_cell_length_a   4.61061214
_cell_length_b   8.87691511
_cell_length_c   4.61513868
_cell_angle_alpha   91.31208227
_cell_angle_beta   89.99802124
_cell_angle_gamma   89.99326586
_symmetry_Int_Tables_number   1
_chemical_formula_structural   V3(O2F)2
_chemical_formula_sum   'V6 O8 F4'
_cell_volume   188.83892664
_cell_formula_units_Z   2
loop_
 _symmetry_equiv_pos_site_id
 _symmetry_equiv_pos_as_xyz
  1  'x, y, z'
loop_
 _atom_site_type_symbol
 _atom_site_label
 _atom_site_symmetry_multiplicity
 _atom_site_fract_x
 _atom_site_fract_y
 _atom_site_fract_z
 _atom_site_occupancy
  V  V0  1  0.99964225  0.00006328  0.00055508  1
  V  V1  1  0.50029604  0.49994418  0.49950801  1
  V  V2  1  0.51244241  0.84626780  0.45890852  1
  V  V3  1  0.98765833  0.34635267  0.95827557  1
  V  V4  1  0.01284128  0.65377820  0.04100710  1
  V  V5  1  0.48728793  0.15363946  0.54160634  1
  O  O0  1  0.80027738  0.49920516  0.20759535  1
  O  O1  1  0.29954056  0.00074076  0.29266517  1
  O  O2  1  0.69991867  0.99914914  0.70819622  1
  O  O3  1  0.20028215  0.50080328  0.79164926  1
  O  O4  1  0.81233210  0.83006656  0.19359558  1
  O  O5  1  0.31267357  0.66989135  0.30637529  1
  O  O6  1  0.68762396  0.33014352  0.69318133  1
  O  O7  1  0.18746347  0.16980062  0.80699576  1
  F  F0  1  0.79000572  0.17144247  0.20191088  1
  F  F1  1  0.29063622  0.32863554  0.29792520  1
  F  F2  1  0.70963428  0.67137612  0.70170143  1
  F  F3  1  0.20944569  0.82870089  0.79834893  1
loop_
_geom_bond_atom_site_label_1
_geom_bond_atom_site_label_2
_geom_bond_distance
_geom_bond_site_symmetry_2
O0 V4 1.866257 1_655
O0 V1 1.930663 1_555
O0 V3 1.959490 1_554
O1 V2 1.865591 1_545
O1 V0 1.931100 1_455
O1 V5 1.959692 1_555
O2 V5 1.865734 1_565
O2 V0 1.931299 1_566
O2 V2 1.959948 1_555
O3 V3 1.865668 1_455
O3 V1 1.931494 1_555
O3 V4 1.960450 1_556
O4 V2 1.850280 1_555
O4 V4 1.936134 1_655
O4 V0 1.969414 1_565
O5 V4 1.850291 1_555
O5 V2 1.935243 1_555
O5 V1 1.969776 1_555
O6 V3 1.850206 1_555
O6 V5 1.935875 1_555
O6 V1 1.969345 1_555
O7 V5 1.850267 1_555
O7 V3 1.934385 1_455
O7 V0 1.969789 1_456
F0 V0 2.011729 1_555
F0 V5 2.107618 1_555
F0 V3 2.141435 1_554
F1 V1 2.011982 1_555
F1 V3 2.108232 1_454
F1 V5 2.140030 1_555
F2 V1 2.013342 1_555
F2 V4 2.107653 1_656
F2 V2 2.138184 1_555
F3 V0 2.013735 1_466
F3 V2 2.107401 1_555
F3 V4 2.137023 1_556
