# generated using pymatgen
data_Li7VO5F
_symmetry_space_group_name_H-M   'P 1'
_cell_length_a   5.37788600
_cell_length_b   5.40291585
_cell_length_c   5.91315231
_cell_angle_alpha   117.08776759
_cell_angle_beta   90.35700406
_cell_angle_gamma   119.26166337
_symmetry_Int_Tables_number   1
_chemical_formula_structural   Li7VO5F
_chemical_formula_sum   'Li7 V1 O5 F1'
_cell_volume   127.52672856
_cell_formula_units_Z   1
loop_
 _symmetry_equiv_pos_site_id
 _symmetry_equiv_pos_as_xyz
  1  'x, y, z'
loop_
 _atom_site_type_symbol
 _atom_site_label
 _atom_site_symmetry_multiplicity
 _atom_site_fract_x
 _atom_site_fract_y
 _atom_site_fract_z
 _atom_site_occupancy
  Li  Li0  1  0.23385100  0.82997500  0.63155300  1
  Li  Li1  1  0.47277800  0.56762400  0.33181100  1
  Li  Li2  1  0.28950900  0.59552100  0.02751300  1
  Li  Li3  1  0.74481700  0.33256200  0.01421200  1
  Li  Li4  1  0.48505200  0.46950200  0.64308000  1
  Li  Li5  1  0.91255500  0.19274200  0.61366000  1
  Li  Li6  1  0.78287600  0.14087800  0.37354400  1
  V  V0  1  0.95823300  0.99339100  0.98292400  1
  O  O0  1  0.07483600  0.38468000  0.23256200  1
  O  O1  1  0.23570500  0.24761900  0.81844900  1
  O  O2  1  0.61320900  0.03794400  0.74087300  1
  O  O3  1  0.77185300  0.69374300  0.21987000  1
  O  O4  1  0.91177900  0.62496900  0.75980700  1
  F  F0  1  0.40854700  0.99084800  0.25764300  1
loop_
_geom_bond_atom_site_label_1
_geom_bond_atom_site_label_2
_geom_bond_distance
_geom_bond_site_symmetry_2
Li0 O2 1.709871 1_565
Li0 O4 1.925594 1_455
Li0 O1 2.004993 1_565
Li0 O0 2.209079 1_555
Li1 O3 1.685823 1_555
Li1 O0 1.813700 1_555
Li2 O1 1.578861 1_554
Li2 O0 2.022446 1_555
Li3 O2 1.479336 1_554
Li3 O3 1.693309 1_555
Li3 O0 2.011970 1_655
Li4 O1 1.971952 1_555
Li4 O4 2.004065 1_555
Li5 Li6 1.419548 1_555
Li5 O2 1.768830 1_555
Li5 O1 1.928093 1_655
Li5 O4 2.090943 1_555
Li5 O3 2.351540 1_545
Li6 O0 1.972275 1_655
Li6 O3 2.127339 1_545
Li6 O4 2.303365 1_555
O0 V0 1.700602 1_444
O1 V0 2.071288 1_445
O4 V0 1.698053 1_555
F0 Li2 1.682002 1_555
F0 Li6 1.749555 1_565
F0 Li4 2.373205 1_565
