# generated using pymatgen
data_MnCrO4
_symmetry_space_group_name_H-M   'P 1'
_cell_length_a   8.30235200
_cell_length_b   5.44909900
_cell_length_c   8.34946237
_cell_angle_alpha   54.77303807
_cell_angle_beta   90.00000000
_cell_angle_gamma   90.00000000
_symmetry_Int_Tables_number   1
_chemical_formula_structural   MnCrO4
_chemical_formula_sum   'Mn4 Cr4 O16'
_cell_volume   308.55968938
_cell_formula_units_Z   4
loop_
 _symmetry_equiv_pos_site_id
 _symmetry_equiv_pos_as_xyz
  1  'x, y, z'
loop_
 _atom_site_type_symbol
 _atom_site_label
 _atom_site_symmetry_multiplicity
 _atom_site_fract_x
 _atom_site_fract_y
 _atom_site_fract_z
 _atom_site_occupancy
  Mn  Mn0  1  0.54521200  0.88194600  0.35248800  1
  Mn  Mn1  1  0.04521200  0.11805400  0.14751200  1
  Mn  Mn2  1  0.95478800  0.88194600  0.85248800  1
  Mn  Mn3  1  0.45478800  0.11805400  0.64751200  1
  Cr  Cr0  1  0.69149300  0.38179100  0.85656700  1
  Cr  Cr1  1  0.19149300  0.61820900  0.64343300  1
  Cr  Cr2  1  0.80850700  0.38179100  0.35656700  1
  Cr  Cr3  1  0.30850700  0.61820900  0.14343300  1
  O  O0  1  0.76483800  0.72002500  0.29969800  1
  O  O1  1  0.60618600  0.41639600  0.66008100  1
  O  O2  1  0.86281800  0.17433300  0.91857100  1
  O  O3  1  0.06554000  0.78875000  0.45665200  1
  O  O4  1  0.56554000  0.21125000  0.04334800  1
  O  O5  1  0.36281800  0.82566700  0.58142900  1
  O  O6  1  0.10618600  0.58360400  0.83991900  1
  O  O7  1  0.73516200  0.72002500  0.79969800  1
  O  O8  1  0.26483800  0.27997500  0.20030200  1
  O  O9  1  0.89381400  0.41639600  0.16008100  1
  O  O10  1  0.63718200  0.17433300  0.41857100  1
  O  O11  1  0.43446000  0.78875000  0.95665200  1
  O  O12  1  0.93446000  0.21125000  0.54334800  1
  O  O13  1  0.13718200  0.82566700  0.08142900  1
  O  O14  1  0.39381400  0.58360400  0.33991900  1
  O  O15  1  0.23516200  0.27997500  0.70030200  1
loop_
_geom_bond_atom_site_label_1
_geom_bond_atom_site_label_2
_geom_bond_distance
_geom_bond_site_symmetry_2
Mn0 O14 2.104914 1_555
Mn0 O10 2.107142 1_565
Mn0 O4 2.137175 1_565
Mn0 O0 2.178590 1_555
Mn0 O5 2.316212 1_555
Mn0 O1 2.402390 1_555
Mn1 O9 2.104914 1_455
Mn1 O13 2.107142 1_545
Mn1 O3 2.137175 1_545
Mn1 O8 2.178590 1_555
Mn1 O2 2.316212 1_454
Mn1 O6 2.402390 1_554
Mn2 O6 2.104914 1_655
Mn2 O2 2.107142 1_565
Mn2 O12 2.137175 1_565
Mn2 O7 2.178590 1_555
Mn2 O13 2.316212 1_656
Mn2 O9 2.402390 1_556
Mn3 O1 2.104914 1_555
Mn3 O5 2.107142 1_545
Mn3 O11 2.137175 1_545
Mn3 O15 2.178590 1_555
Mn3 O10 2.316212 1_555
Mn3 O14 2.402390 1_555
Cr0 O4 1.648419 1_556
Cr0 O7 1.656571 1_555
Cr0 O1 1.694611 1_555
Cr0 O2 1.701183 1_555
Cr1 O3 1.648419 1_555
Cr1 O15 1.656571 1_555
Cr1 O6 1.694611 1_555
Cr1 O5 1.701183 1_555
Cr2 O12 1.648419 1_555
Cr2 O0 1.656571 1_555
Cr2 O9 1.694611 1_555
Cr2 O10 1.701183 1_555
Cr3 O11 1.648419 1_554
Cr3 O8 1.656571 1_555
Cr3 O14 1.694611 1_555
Cr3 O13 1.701183 1_555
