# generated using pymatgen
data_Li6CoNi9O20
_symmetry_space_group_name_H-M   'P 1'
_cell_length_a   11.56472320
_cell_length_b   11.56472320
_cell_length_c   11.71624065
_cell_angle_alpha   65.84184037
_cell_angle_beta   65.84184037
_cell_angle_gamma   14.06072712
_symmetry_Int_Tables_number   1
_chemical_formula_structural   Li6CoNi9O20
_chemical_formula_sum   'Li6 Co1 Ni9 O20'
_cell_volume   346.82065429
_cell_formula_units_Z   1
loop_
 _symmetry_equiv_pos_site_id
 _symmetry_equiv_pos_as_xyz
  1  'x, y, z'
loop_
 _atom_site_type_symbol
 _atom_site_label
 _atom_site_symmetry_multiplicity
 _atom_site_fract_x
 _atom_site_fract_y
 _atom_site_fract_z
 _atom_site_occupancy
  Li  Li0  1  0.29268400  0.29268400  0.16809800  1
  Li  Li1  1  0.90186700  0.90186700  0.44839100  1
  Li  Li2  1  0.70731600  0.70731600  0.83190200  1
  Li  Li3  1  0.90869400  0.90869400  0.93590700  1
  Li  Li4  1  0.09130600  0.09130600  0.06409300  1
  Li  Li5  1  0.09813300  0.09813300  0.55160900  1
  Co  Co0  1  0.50000000  0.50000000  0.50000000  1
  Ni  Ni0  1  0.29783100  0.29783100  0.40004800  1
  Ni  Ni1  1  0.29967500  0.29967500  0.90295500  1
  Ni  Ni2  1  0.50000000  0.50000000  0.00000000  1
  Ni  Ni3  1  0.09923300  0.09923300  0.29963500  1
  Ni  Ni4  1  0.70032500  0.70032500  0.09704500  1
  Ni  Ni5  1  0.90194200  0.90194200  0.20177800  1
  Ni  Ni6  1  0.09805800  0.09805800  0.79822200  1
  Ni  Ni7  1  0.70216900  0.70216900  0.59995200  1
  Ni  Ni8  1  0.90076700  0.90076700  0.70036500  1
  O  O0  1  0.59146100  0.59146100  0.92515300  1
  O  O1  1  0.61317400  0.61317400  0.66842500  1
  O  O2  1  0.20003900  0.20003900  0.20117700  1
  O  O3  1  0.19869200  0.19869200  0.71104900  1
  O  O4  1  0.20581400  0.20581400  0.49054400  1
  O  O5  1  0.41000200  0.41000200  0.57705400  1
  O  O6  1  0.58999800  0.58999800  0.42294600  1
  O  O7  1  0.20602200  0.20602200  0.98213200  1
  O  O8  1  0.38806900  0.38806900  0.82949300  1
  O  O9  1  0.38682600  0.38682600  0.33157500  1
  O  O10  1  0.40853900  0.40853900  0.07484700  1
  O  O11  1  0.61193100  0.61193100  0.17050700  1
  O  O12  1  0.79397800  0.79397800  0.01786800  1
  O  O13  1  0.00127100  0.00127100  0.89302800  1
  O  O14  1  0.79418600  0.79418600  0.50945600  1
  O  O15  1  0.80130800  0.80130800  0.28895100  1
  O  O16  1  0.79996100  0.79996100  0.79882300  1
  O  O17  1  0.00075500  0.00075500  0.39325700  1
  O  O18  1  0.99924500  0.99924500  0.60674300  1
  O  O19  1  0.99872900  0.99872900  0.10697200  1
loop_
_geom_bond_atom_site_label_1
_geom_bond_atom_site_label_2
_geom_bond_distance
_geom_bond_site_symmetry_2
Li0 O2 1.998342 1_555
Li0 O15 2.068529 1_545
Li0 O15 2.068529 1_455
Li0 O12 2.249305 1_545
Li0 O12 2.249305 1_455
Li0 O10 2.422881 1_555
Li1 O17 2.088294 1_665
Li1 O9 2.094201 1_655
Li1 O9 2.094201 1_565
Li1 O5 2.131427 1_655
Li1 O5 2.131427 1_565
Li1 O14 2.272340 1_555
Li2 O16 1.998342 1_555
Li2 O3 2.068529 1_565
Li2 O3 2.068529 1_655
Li2 O7 2.249305 1_655
Li2 O7 2.249305 1_565
Li2 O0 2.422881 1_555
Li3 O13 1.971846 1_665
Li3 O8 2.066150 1_565
Li3 O8 2.066150 1_655
Li3 O10 2.156083 1_566
Li3 O10 2.156083 1_656
Li3 O12 2.402344 1_556
Li4 O19 1.971846 1_445
Li4 O11 2.066150 1_545
Li4 O11 2.066150 1_455
Li4 O0 2.156083 1_544
Li4 O0 2.156083 1_454
Li4 O7 2.402344 1_554
Li5 O18 2.088294 1_445
Li5 O1 2.094201 1_545
Li5 O1 2.094201 1_455
Li5 O6 2.131427 1_545
Li5 O6 2.131427 1_455
Li5 O4 2.272340 1_555
Co0 O5 1.882817 1_555
Co0 O6 1.882817 1_555
Co0 O18 1.884155 1_545
Co0 O18 1.884155 1_455
Co0 O17 1.884155 1_655
Co0 O17 1.884155 1_565
Ni0 O9 1.861587 1_555
Ni0 O14 1.888183 1_545
Ni0 O14 1.888183 1_455
Ni0 O15 1.902236 1_545
Ni0 O15 1.902236 1_455
Ni0 O4 1.933636 1_555
Ni1 O8 1.848740 1_555
Ni1 O16 1.866942 1_545
Ni1 O16 1.866942 1_455
Ni1 O12 1.920442 1_456
Ni1 O12 1.920442 1_546
Ni1 O7 1.958999 1_555
Ni2 O19 1.882825 1_455
Ni2 O19 1.882825 1_545
Ni2 O13 1.882825 1_654
Ni2 O13 1.882825 1_564
Ni2 O10 1.912758 1_555
Ni2 O0 1.912758 1_554
Ni3 O6 1.970578 1_455
Ni3 O6 1.970578 1_545
Ni3 O11 2.003415 1_455
Ni3 O11 2.003415 1_545
Ni3 O17 2.066048 1_555
Ni3 O2 2.117561 1_555
Ni4 O11 1.848740 1_555
Ni4 O2 1.866942 1_565
Ni4 O2 1.866942 1_655
Ni4 O7 1.920442 1_654
Ni4 O7 1.920442 1_564
Ni4 O12 1.958999 1_555
Ni5 O9 2.000348 1_655
Ni5 O9 2.000348 1_565
Ni5 O10 2.013051 1_655
Ni5 O10 2.013051 1_565
Ni5 O19 2.033440 1_555
Ni5 O15 2.105683 1_555
Ni6 O1 2.000348 1_455
Ni6 O1 2.000348 1_545
Ni6 O0 2.013051 1_545
Ni6 O0 2.013051 1_455
Ni6 O13 2.033440 1_555
Ni6 O3 2.105683 1_555
Ni7 O1 1.861587 1_555
Ni7 O4 1.888183 1_655
Ni7 O4 1.888183 1_565
Ni7 O3 1.902236 1_565
Ni7 O3 1.902236 1_655
Ni7 O14 1.933636 1_555
Ni8 O5 1.970578 1_655
Ni8 O5 1.970578 1_565
Ni8 O8 2.003415 1_655
Ni8 O8 2.003415 1_565
Ni8 O18 2.066048 1_555
Ni8 O16 2.117561 1_555
