# generated using pymatgen
data_SrV4O10
_symmetry_space_group_name_H-M   'P 1'
_cell_length_a   6.12995198
_cell_length_b   7.35041460
_cell_length_c   8.95301994
_cell_angle_alpha   89.90183740
_cell_angle_beta   92.12895258
_cell_angle_gamma   107.38725334
_symmetry_Int_Tables_number   1
_chemical_formula_structural   SrV4O10
_chemical_formula_sum   'Sr2 V8 O20'
_cell_volume   384.68528532
_cell_formula_units_Z   2
loop_
 _symmetry_equiv_pos_site_id
 _symmetry_equiv_pos_as_xyz
  1  'x, y, z'
loop_
 _atom_site_type_symbol
 _atom_site_label
 _atom_site_symmetry_multiplicity
 _atom_site_fract_x
 _atom_site_fract_y
 _atom_site_fract_z
 _atom_site_occupancy
  Sr  Sr0  1  0.81915279  0.70677319  0.01779037  1
  Sr  Sr1  1  0.18084721  0.29322681  0.98220963  1
  V  V0  1  0.87716882  0.46545509  0.65999190  1
  V  V1  1  0.53911094  0.88160454  0.33854256  1
  V  V2  1  0.46088906  0.11839546  0.66145744  1
  V  V3  1  0.12283118  0.53454491  0.34000810  1
  V  V4  1  0.87040579  0.97093943  0.65937787  1
  V  V5  1  0.53001591  0.38629392  0.33730670  1
  V  V6  1  0.46998409  0.61370608  0.66269330  1
  V  V7  1  0.12959421  0.02906057  0.34062213  1
  O  O0  1  0.92139028  0.99193947  0.84335856  1
  O  O1  1  0.91473714  0.46539243  0.84502999  1
  O  O2  1  0.83948070  0.46341790  0.39828558  1
  O  O3  1  0.83163802  0.95501176  0.40650738  1
  O  O4  1  0.80173933  0.69700114  0.64313717  1
  O  O5  1  0.79634843  0.20188085  0.62899301  1
  O  O6  1  0.56491731  0.86660775  0.15954044  1
  O  O7  1  0.54978060  0.41450228  0.15391176  1
  O  O8  1  0.53099607  0.38038056  0.60484357  1
  O  O9  1  0.52920013  0.88422014  0.62749330  1
  O  O10  1  0.47079987  0.11577986  0.37250670  1
  O  O11  1  0.46900393  0.61961944  0.39515643  1
  O  O12  1  0.45021940  0.58549772  0.84608824  1
  O  O13  1  0.43508269  0.13339225  0.84045956  1
  O  O14  1  0.20365157  0.79811915  0.37100699  1
  O  O15  1  0.19826067  0.30299886  0.35686283  1
  O  O16  1  0.16836198  0.04498824  0.59349262  1
  O  O17  1  0.16051930  0.53658210  0.60171442  1
  O  O18  1  0.08526286  0.53460757  0.15497001  1
  O  O19  1  0.07860972  0.00806053  0.15664144  1
loop_
_geom_bond_atom_site_label_1
_geom_bond_atom_site_label_2
_geom_bond_distance
_geom_bond_site_symmetry_2
O0 V4 1.663883 1_555
O0 Sr0 2.549830 1_556
O0 Sr1 2.595536 1_665
O1 V0 1.664103 1_555
O1 Sr0 2.565479 1_556
O1 Sr1 2.617326 1_655
O2 V3 1.756743 1_655
O2 V5 1.870680 1_555
O2 V0 2.345500 1_555
O3 V1 1.794067 1_555
O3 V7 1.861437 1_665
O3 V4 2.267152 1_555
O4 V0 1.896706 1_555
O4 V4 1.934594 1_555
O4 V6 1.955290 1_555
O5 V0 1.869195 1_555
O5 V4 1.900383 1_545
O5 V2 1.994805 1_555
O6 V1 1.623390 1_555
O6 Sr0 2.581854 1_555
O7 V5 1.658985 1_555
O7 Sr1 2.610342 1_554
O7 Sr0 2.616770 1_555
O8 V2 1.915242 1_555
O8 V6 1.936563 1_555
O8 V0 2.065900 1_555
O8 V5 2.395400 1_555
O9 V2 1.916421 1_565
O9 V6 1.939010 1_555
O9 V4 2.005477 1_555
O10 V1 1.916421 1_545
O10 V5 1.939010 1_555
O10 V7 2.005477 1_555
O11 V1 1.915242 1_555
O11 V5 1.936563 1_555
O11 V3 2.065900 1_555
O11 V6 2.395400 1_555
O12 V6 1.658985 1_555
O12 Sr0 2.610342 1_556
O12 Sr1 2.616770 1_555
O13 V2 1.623390 1_555
O13 Sr1 2.581854 1_555
O14 V3 1.869195 1_555
O14 V7 1.900383 1_565
O14 V1 1.994805 1_555
O15 V3 1.896706 1_555
O15 V7 1.934594 1_555
O15 V5 1.955290 1_555
O16 V2 1.794067 1_555
O16 V4 1.861437 1_445
O16 V7 2.267152 1_555
O17 V0 1.756743 1_455
O17 V6 1.870680 1_555
O17 V3 2.345500 1_555
O18 V3 1.664103 1_555
O18 Sr1 2.565479 1_554
O18 Sr0 2.617326 1_455
O19 V7 1.663883 1_555
O19 Sr1 2.549830 1_554
O19 Sr0 2.595536 1_445
