# generated using pymatgen
data_Li5Fe5Si7O24
_symmetry_space_group_name_H-M   'P 1'
_cell_length_a   7.85303300
_cell_length_b   7.95467883
_cell_length_c   9.78001688
_cell_angle_alpha   91.08665429
_cell_angle_beta   91.45950460
_cell_angle_gamma   90.53503727
_symmetry_Int_Tables_number   1
_chemical_formula_structural   Li5Fe5Si7O24
_chemical_formula_sum   'Li5 Fe5 Si7 O24'
_cell_volume   610.60404838
_cell_formula_units_Z   1
loop_
 _symmetry_equiv_pos_site_id
 _symmetry_equiv_pos_as_xyz
  1  'x, y, z'
loop_
 _atom_site_type_symbol
 _atom_site_label
 _atom_site_symmetry_multiplicity
 _atom_site_fract_x
 _atom_site_fract_y
 _atom_site_fract_z
 _atom_site_occupancy
  Li  Li0  1  0.43233600  0.30512800  0.74992100  1
  Li  Li1  1  0.49195700  0.81966800  0.20708100  1
  Li  Li2  1  0.82172700  0.47485400  0.28414200  1
  Li  Li3  1  0.72720300  0.99582300  0.99283800  1
  Li  Li4  1  0.01151900  0.33689400  0.02907900  1
  Fe  Fe0  1  0.12149900  0.66844400  0.23190400  1
  Fe  Fe1  1  0.37561400  0.16921600  0.01643700  1
  Fe  Fe2  1  0.66130900  0.11999600  0.28965200  1
  Fe  Fe3  1  0.83341900  0.62306500  0.97420500  1
  Fe  Fe4  1  0.87157200  0.32455900  0.71399600  1
  Si  Si0  1  0.07860500  0.09621700  0.24252300  1
  Si  Si1  1  0.16208200  0.37328700  0.46943300  1
  Si  Si2  1  0.32999500  0.87475900  0.76720600  1
  Si  Si3  1  0.42133300  0.59420900  0.99394500  1
  Si  Si4  1  0.56492300  0.43080800  0.50306700  1
  Si  Si5  1  0.62030700  0.82470600  0.53944500  1
  Si  Si6  1  0.92709500  0.91592400  0.75198300  1
  O  O0  1  0.05297500  0.35718400  0.60425600  1
  O  O1  1  0.09346300  0.53207300  0.38292900  1
  O  O2  1  0.11145800  0.89848100  0.26351100  1
  O  O3  1  0.15357400  0.19766900  0.37813600  1
  O  O4  1  0.12767000  0.87499600  0.71898300  1
  O  O5  1  0.16823600  0.17306400  0.10521800  1
  O  O6  1  0.32191000  0.64766800  0.13311600  1
  O  O7  1  0.36192000  0.39691000  0.52320000  1
  O  O8  1  0.36003700  0.70922200  0.86314300  1
  O  O9  1  0.40282000  0.39438300  0.94675200  1
  O  O10  1  0.38419700  0.05477900  0.84384800  1
  O  O11  1  0.45548200  0.85904900  0.63547000  1
  O  O12  1  0.54040200  0.05284600  0.12399300  1
  O  O13  1  0.60792300  0.93729000  0.40062700  1
  O  O14  1  0.60961400  0.62995600  0.47916100  1
  O  O15  1  0.63980100  0.34009900  0.36492800  1
  O  O16  1  0.61416300  0.64974700  0.04375000  1
  O  O17  1  0.64403900  0.36086400  0.64628900  1
  O  O18  1  0.80342200  0.84925900  0.62188700  1
  O  O19  1  0.87638700  0.13871100  0.21073900  1
  O  O20  1  0.86679200  0.83223200  0.89556500  1
  O  O21  1  0.88891500  0.11081800  0.78694600  1
  O  O22  1  0.90769500  0.44130100  0.87681500  1
  O  O23  1  0.94580900  0.55314000  0.13568400  1
loop_
_geom_bond_atom_site_label_1
_geom_bond_atom_site_label_2
_geom_bond_distance
_geom_bond_site_symmetry_2
Li0 O17 2.019122 1_555
Li0 O9 2.058506 1_555
Li0 O10 2.241791 1_555
Li0 O7 2.400392 1_555
Li1 O6 2.014359 1_555
Li1 O12 2.074918 1_565
Li1 O13 2.262053 1_555
Li1 O16 2.306524 1_555
Li2 O23 1.881597 1_555
Li2 O15 1.968604 1_555
Li2 O1 2.356799 1_655
Li3 O20 1.957781 1_555
Li3 O12 2.022186 1_566
Li4 O22 1.889391 1_454
Li4 O5 1.946168 1_555
Li4 O23 2.070804 1_455
Fe0 O2 1.852749 1_555
Fe0 O1 1.865402 1_555
Fe0 O23 1.872931 1_455
Fe0 O6 1.874558 1_555
Fe1 O5 1.865198 1_555
Fe1 O12 1.904733 1_555
Fe1 O10 1.905506 1_554
Fe1 O9 1.940319 1_554
Fe2 O19 1.880592 1_555
Fe2 O13 1.880858 1_545
Fe2 O15 1.897092 1_555
Fe2 O12 1.921215 1_555
Fe3 O22 1.824777 1_555
Fe3 O20 1.865283 1_555
Fe3 O16 1.879718 1_556
Fe3 O23 1.885192 1_556
Fe4 O0 1.824873 1_655
Fe4 O22 1.842413 1_555
Fe4 O21 1.861120 1_555
Fe4 O17 1.916047 1_555
O0 Si1 1.597213 1_555
O1 Si1 1.622200 1_555
O2 Si0 1.612426 1_565
O3 Si0 1.633311 1_555
O3 Si1 1.643528 1_555
O4 Si2 1.645855 1_555
O4 Si6 1.650047 1_455
O5 Si0 1.656382 1_555
O6 Si3 1.637499 1_554
O7 Si4 1.631838 1_555
O7 Si1 1.650254 1_555
O8 Si2 1.646613 1_555
O8 Si3 1.651197 1_555
O9 Si3 1.650841 1_555
O10 Si2 1.650848 1_545
O11 Si5 1.640364 1_555
O11 Si2 1.645457 1_555
O13 Si5 1.641863 1_555
O14 Si4 1.641718 1_555
O14 Si5 1.647725 1_555
O15 Si4 1.644093 1_555
O16 Si3 1.633190 1_554
O17 Si4 1.627654 1_555
O18 Si5 1.638849 1_555
O18 Si6 1.656851 1_555
O19 Si0 1.649720 1_655
O20 Si6 1.644018 1_555
O21 Si6 1.613724 1_545
