# generated using pymatgen
data_Li8BiS6
_symmetry_space_group_name_H-M   'P 1'
_cell_length_a   7.57147341
_cell_length_b   7.57147341
_cell_length_c   7.57147330
_cell_angle_alpha   54.49572276
_cell_angle_beta   54.49572276
_cell_angle_gamma   54.49572409
_symmetry_Int_Tables_number   1
_chemical_formula_structural   Li8BiS6
_chemical_formula_sum   'Li8 Bi1 S6'
_cell_volume   267.53489182
_cell_formula_units_Z   1
loop_
 _symmetry_equiv_pos_site_id
 _symmetry_equiv_pos_as_xyz
  1  'x, y, z'
loop_
 _atom_site_type_symbol
 _atom_site_label
 _atom_site_symmetry_multiplicity
 _atom_site_fract_x
 _atom_site_fract_y
 _atom_site_fract_z
 _atom_site_occupancy
  Li  Li0  1  0.78432500  0.10349300  0.47658900  1
  Li  Li1  1  0.89650700  0.52341100  0.21567500  1
  Li  Li2  1  0.52341100  0.21567500  0.89650700  1
  Li  Li3  1  0.34572800  0.34572800  0.34572800  1
  Li  Li4  1  0.65427200  0.65427200  0.65427200  1
  Li  Li5  1  0.47658900  0.78432500  0.10349300  1
  Li  Li6  1  0.10349300  0.47658900  0.78432500  1
  Li  Li7  1  0.21567500  0.89650700  0.52341100  1
  Bi  Bi0  1  0.00000000  0.00000000  0.00000000  1
  S  S0  1  0.90208700  0.24852900  0.60075600  1
  S  S1  1  0.75147100  0.39924400  0.09791300  1
  S  S2  1  0.39924400  0.09791300  0.75147100  1
  S  S3  1  0.60075600  0.90208700  0.24852900  1
  S  S4  1  0.24852900  0.60075600  0.90208700  1
  S  S5  1  0.09791300  0.75147100  0.39924400  1
loop_
_geom_bond_atom_site_label_1
_geom_bond_atom_site_label_2
_geom_bond_distance
_geom_bond_site_symmetry_2
Li0 S2 2.413900 1_555
Li0 S5 2.435511 1_645
Li0 S1 2.453720 1_555
Li0 S0 2.488942 1_555
Li1 S0 2.413900 1_555
Li1 S4 2.435511 1_654
Li1 S3 2.453720 1_555
Li1 S1 2.488942 1_555
Li2 S4 2.413900 1_555
Li2 S3 2.435511 1_546
Li2 S0 2.453720 1_555
Li2 S2 2.488942 1_555
Li3 S2 2.643841 1_555
Li3 S1 2.643841 1_555
Li3 S5 2.643841 1_555
Li3 S4 3.039758 1_554
Li3 S0 3.039758 1_455
Li3 S3 3.039759 1_545
Li4 S3 2.643841 1_555
Li4 S4 2.643841 1_555
Li4 S0 2.643841 1_555
Li4 S1 3.039758 1_556
Li4 S5 3.039758 1_655
Li4 S2 3.039759 1_565
Li5 S1 2.413900 1_555
Li5 S2 2.435511 1_564
Li5 S5 2.453720 1_555
Li5 S3 2.488942 1_555
Li6 S5 2.413900 1_555
Li6 S1 2.435511 1_456
Li6 S2 2.453720 1_555
Li6 S4 2.488942 1_555
Li7 S3 2.413900 1_555
Li7 S0 2.435511 1_465
Li7 S4 2.453720 1_555
Li7 S5 2.488942 1_555
Bi0 S5 2.757502 1_545
Bi0 S0 2.757502 1_454
Bi0 S2 2.757502 1_554
Bi0 S3 2.757502 1_445
Bi0 S1 2.757503 1_455
Bi0 S4 2.757503 1_544
