# generated using pymatgen
data_LiFe2(BO3)2
_symmetry_space_group_name_H-M   'P 1'
_cell_length_a   5.27630192
_cell_length_b   9.09859683
_cell_length_c   11.35488539
_cell_angle_alpha   66.33521687
_cell_angle_beta   77.45920262
_cell_angle_gamma   89.55140352
_symmetry_Int_Tables_number   1
_chemical_formula_structural   LiFe2(BO3)2
_chemical_formula_sum   'Li4 Fe8 B8 O24'
_cell_volume   485.44053488
_cell_formula_units_Z   4
loop_
 _symmetry_equiv_pos_site_id
 _symmetry_equiv_pos_as_xyz
  1  'x, y, z'
loop_
 _atom_site_type_symbol
 _atom_site_label
 _atom_site_symmetry_multiplicity
 _atom_site_fract_x
 _atom_site_fract_y
 _atom_site_fract_z
 _atom_site_occupancy
  Li  Li0  1  0.97282900  0.96657100  0.40090200  1
  Li  Li1  1  0.73133100  0.75236900  0.16041800  1
  Li  Li2  1  0.01693000  0.99307000  0.66386500  1
  Li  Li3  1  0.24490500  0.26397500  0.14280100  1
  Fe  Fe0  1  0.98591700  0.64183100  0.38116000  1
  Fe  Fe1  1  0.72810700  0.06965500  0.87583100  1
  Fe  Fe2  1  0.53027400  0.83509700  0.63578200  1
  Fe  Fe3  1  0.75128800  0.44263800  0.12451400  1
  Fe  Fe4  1  0.23119100  0.56166000  0.87682800  1
  Fe  Fe5  1  0.48106900  0.15150600  0.38312200  1
  Fe  Fe6  1  0.02727000  0.34881600  0.63244100  1
  Fe  Fe7  1  0.25379100  0.94201000  0.12275500  1
  B  B0  1  0.97515800  0.31084600  0.37718500  1
  B  B1  1  0.72697900  0.39298100  0.88300000  1
  B  B2  1  0.51653700  0.18032300  0.63069300  1
  B  B3  1  0.75813800  0.10181600  0.13336000  1
  B  B4  1  0.48683200  0.82084000  0.37211100  1
  B  B5  1  0.23789500  0.89749700  0.87494600  1
  B  B6  1  0.03233400  0.69299900  0.62069500  1
  B  B7  1  0.26250100  0.60262500  0.13075400  1
  O  O0  1  0.99050000  0.92837100  0.85752000  1
  O  O1  1  0.85371900  0.28406200  0.83868600  1
  O  O2  1  0.86877000  0.48514600  0.92289000  1
  O  O3  1  0.91720700  0.83584300  0.60341800  1
  O  O4  1  0.94271200  0.58943700  0.57280300  1
  O  O5  1  0.75252500  0.14565800  0.67288100  1
  O  O6  1  0.74129300  0.32155700  0.33890600  1
  O  O7  1  0.46617400  0.40385000  0.89433000  1
  O  O8  1  0.36293400  0.77856000  0.84333000  1
  O  O9  1  0.57111100  0.93075600  0.41623800  1
  O  O10  1  0.65245900  0.71292100  0.35150800  1
  O  O11  1  0.36720700  0.98641100  0.92209400  1
  O  O12  1  0.66208600  0.00053500  0.08313400  1
  O  O13  1  0.38305100  0.30289600  0.63663700  1
  O  O14  1  0.42399100  0.07337900  0.58116800  1
  O  O15  1  0.58820200  0.20054600  0.17607000  1
  O  O16  1  0.51988100  0.61085500  0.12940900  1
  O  O17  1  0.24182500  0.65750100  0.67986000  1
  O  O18  1  0.23952900  0.82921400  0.34417300  1
  O  O19  1  0.05498400  0.42094300  0.41943200  1
  O  O20  1  0.12649300  0.18733300  0.36985600  1
  O  O21  1  0.15417600  0.49644300  0.08957800  1
  O  O22  1  0.09692200  0.70233900  0.17611300  1
  O  O23  1  0.01058700  0.10099400  0.14568200  1
loop_
_geom_bond_atom_site_label_1
_geom_bond_atom_site_label_2
_geom_bond_distance
_geom_bond_site_symmetry_2
Li0 O20 2.036947 1_665
Li0 O18 2.045014 1_655
Li0 O3 2.074967 1_555
Li0 O9 2.105737 1_555
Li1 O16 1.893040 1_555
Li1 O10 1.998769 1_555
Li1 O22 2.007562 1_655
Li1 O12 2.130170 1_565
Li2 O3 1.936817 1_455
Li2 O5 1.976349 1_465
Li2 O0 2.007549 1_455
Li2 O14 2.150941 1_565
Li3 O23 1.923740 1_555
Li3 O15 1.965321 1_555
Li3 O21 2.037600 1_555
Li3 O20 2.321140 1_555
Li3 O7 2.579366 1_554
Fe0 O10 1.921438 1_555
Fe0 O19 1.927954 1_655
Fe0 O4 1.992003 1_555
Fe0 O18 2.022523 1_655
Fe0 O22 2.109715 1_655
Fe1 O1 1.913404 1_555
Fe1 O0 1.916803 1_545
Fe1 O11 1.935055 1_545
Fe1 O5 2.097278 1_555
Fe1 O12 2.125244 1_556
Fe2 O3 1.993872 1_555
Fe2 O17 2.058237 1_555
Fe2 O14 2.109997 1_565
Fe2 O8 2.174497 1_555
Fe2 O9 2.246414 1_555
Fe3 O16 1.961115 1_555
Fe3 O21 2.100015 1_655
Fe3 O2 2.109952 1_554
Fe3 O15 2.170435 1_555
Fe3 O6 2.221475 1_555
Fe4 O7 1.867731 1_555
Fe4 O2 1.925900 1_455
Fe4 O8 1.956163 1_555
Fe4 O17 2.036255 1_555
Fe4 O21 2.186279 1_556
Fe5 O6 1.908262 1_555
Fe5 O20 1.924174 1_555
Fe5 O9 1.964072 1_545
Fe5 O14 2.019663 1_555
Fe5 O15 2.151918 1_555
Fe6 O13 1.926479 1_555
Fe6 O4 2.092002 1_455
Fe6 O1 2.153975 1_455
Fe6 O5 2.191023 1_455
Fe6 O19 2.208126 1_555
Fe7 O23 1.983694 1_565
Fe7 O11 2.094165 1_554
Fe7 O12 2.128771 1_565
Fe7 O22 2.134791 1_555
Fe7 O18 2.286416 1_555
B0 O19 1.375169 1_655
B0 O6 1.384941 1_555
B0 O20 1.392693 1_655
B1 O7 1.360568 1_555
B1 O1 1.387905 1_555
B1 O2 1.389231 1_555
B2 O13 1.331112 1_555
B2 O5 1.418073 1_555
B2 O14 1.437859 1_555
B3 O23 1.368863 1_655
B3 O12 1.409261 1_555
B3 O15 1.412222 1_555
B4 O10 1.365564 1_555
B4 O9 1.398196 1_555
B4 O18 1.402806 1_555
B5 O0 1.372499 1_455
B5 O11 1.386199 1_555
B5 O8 1.390340 1_555
B6 O17 1.385685 1_555
B6 O3 1.389730 1_455
B6 O4 1.391836 1_455
B7 O16 1.357097 1_555
B7 O21 1.402123 1_555
B7 O22 1.420895 1_555
