# generated using pymatgen
data_Li3MnFeCo(PO4)3
_symmetry_space_group_name_H-M   'P 1'
_cell_length_a   10.41749838
_cell_length_b   6.10044500
_cell_length_c   14.31565604
_cell_angle_alpha   90.00000000
_cell_angle_beta   89.76193975
_cell_angle_gamma   90.00000000
_symmetry_Int_Tables_number   1
_chemical_formula_structural   Li3MnFeCo(PO4)3
_chemical_formula_sum   'Li12 Mn4 Fe4 Co4 P12 O48'
_cell_volume   909.77178474
_cell_formula_units_Z   4
loop_
 _symmetry_equiv_pos_site_id
 _symmetry_equiv_pos_as_xyz
  1  'x, y, z'
loop_
 _atom_site_type_symbol
 _atom_site_label
 _atom_site_symmetry_multiplicity
 _atom_site_fract_x
 _atom_site_fract_y
 _atom_site_fract_z
 _atom_site_occupancy
  Li  Li0  1  0.99602300  0.49950100  0.66715700  1
  Li  Li1  1  0.99952200  0.00083800  0.99912100  1
  Li  Li2  1  0.99952200  0.49916200  0.99912100  1
  Li  Li3  1  0.99707800  0.99869700  0.33381800  1
  Li  Li4  1  0.99707800  0.50130300  0.33381800  1
  Li  Li5  1  0.99602300  0.00049900  0.66715700  1
  Li  Li6  1  0.50306600  0.99981200  0.50047200  1
  Li  Li7  1  0.50306600  0.50018800  0.50047200  1
  Li  Li8  1  0.50145800  0.99989400  0.16545400  1
  Li  Li9  1  0.50145800  0.50010600  0.16545400  1
  Li  Li10  1  0.50319200  0.99971200  0.83370500  1
  Li  Li11  1  0.50319200  0.50028800  0.83370500  1
  Mn  Mn0  1  0.21847400  0.75000000  0.15927500  1
  Mn  Mn1  1  0.21920900  0.75000000  0.49402800  1
  Mn  Mn2  1  0.28190300  0.25000000  0.66064800  1
  Mn  Mn3  1  0.28132700  0.25000000  0.32638400  1
  Fe  Fe0  1  0.21733000  0.75000000  0.82665500  1
  Fe  Fe1  1  0.28273500  0.25000000  0.99068100  1
  Fe  Fe2  1  0.71888700  0.75000000  0.00844900  1
  Fe  Fe3  1  0.71932700  0.75000000  0.34202700  1
  Co  Co0  1  0.72277000  0.75000000  0.67127400  1
  Co  Co1  1  0.78086100  0.25000000  0.83942700  1
  Co  Co2  1  0.77699700  0.25000000  0.50482800  1
  Co  Co3  1  0.78097500  0.25000000  0.17233500  1
  P  P0  1  0.09307200  0.25000000  0.80746300  1
  P  P1  1  0.09282900  0.25000000  0.13774700  1
  P  P2  1  0.09002500  0.25000000  0.47291200  1
  P  P3  1  0.40912600  0.75000000  0.30539200  1
  P  P4  1  0.40875700  0.75000000  0.64007900  1
  P  P5  1  0.40545600  0.75000000  0.97171200  1
  P  P6  1  0.59810100  0.25000000  0.36053900  1
  P  P7  1  0.59549000  0.25000000  0.02677200  1
  P  P8  1  0.59924800  0.25000000  0.69479700  1
  P  P9  1  0.90193600  0.75000000  0.86032100  1
  P  P10  1  0.90235000  0.75000000  0.19446000  1
  P  P11  1  0.90178500  0.75000000  0.52815500  1
  O  O0  1  0.04051100  0.75000000  0.23578900  1
  O  O1  1  0.03994000  0.75000000  0.56928300  1
  O  O2  1  0.04082100  0.75000000  0.90072300  1
  O  O3  1  0.09556300  0.25000000  0.58031900  1
  O  O4  1  0.09752400  0.25000000  0.91463200  1
  O  O5  1  0.09716800  0.25000000  0.24531900  1
  O  O6  1  0.16346100  0.04849700  0.09245300  1
  O  O7  1  0.16346100  0.45150300  0.09245300  1
  O  O8  1  0.16022400  0.04801400  0.42748900  1
  O  O9  1  0.16022400  0.45198600  0.42748900  1
  O  O10  1  0.16395600  0.04697700  0.76286800  1
  O  O11  1  0.16395600  0.45302300  0.76286800  1
  O  O12  1  0.33970600  0.54794700  0.59415500  1
  O  O13  1  0.33970600  0.95205300  0.59415500  1
  O  O14  1  0.33915600  0.54762300  0.26086200  1
  O  O15  1  0.33915600  0.95237700  0.26086200  1
  O  O16  1  0.33428800  0.54720400  0.92773100  1
  O  O17  1  0.33428800  0.95279600  0.92773100  1
  O  O18  1  0.40453100  0.75000000  0.41299200  1
  O  O19  1  0.40281300  0.75000000  0.07913500  1
  O  O20  1  0.40182100  0.75000000  0.74737600  1
  O  O21  1  0.46037800  0.25000000  0.40303000  1
  O  O22  1  0.45650000  0.25000000  0.06720700  1
  O  O23  1  0.46028500  0.25000000  0.73526000  1
  O  O24  1  0.54755600  0.75000000  0.26431800  1
  O  O25  1  0.54366400  0.75000000  0.93031900  1
  O  O26  1  0.54888500  0.75000000  0.60024100  1
  O  O27  1  0.60076800  0.25000000  0.25312100  1
  O  O28  1  0.60003300  0.25000000  0.91937200  1
  O  O29  1  0.60237600  0.25000000  0.58651200  1
  O  O30  1  0.66586400  0.04767000  0.07204200  1
  O  O31  1  0.66913900  0.04773500  0.40559800  1
  O  O32  1  0.66830000  0.04680300  0.73997300  1
  O  O33  1  0.66830000  0.45319700  0.73997300  1
  O  O34  1  0.66586400  0.45233000  0.07204200  1
  O  O35  1  0.66913900  0.45226500  0.40559800  1
  O  O36  1  0.83226300  0.54544200  0.90472500  1
  O  O37  1  0.83226300  0.95455800  0.90472500  1
  O  O38  1  0.83251100  0.54527200  0.23892600  1
  O  O39  1  0.83128800  0.54674200  0.57342800  1
  O  O40  1  0.83251100  0.95472800  0.23892600  1
  O  O41  1  0.83128800  0.95325800  0.57342800  1
  O  O42  1  0.89922500  0.75000000  0.75237100  1
  O  O43  1  0.90112600  0.75000000  0.42061700  1
  O  O44  1  0.90027900  0.75000000  0.08686500  1
  O  O45  1  0.95448600  0.25000000  0.76717000  1
  O  O46  1  0.95328600  0.25000000  0.09844100  1
  O  O47  1  0.95050000  0.25000000  0.43327900  1
loop_
_geom_bond_atom_site_label_1
_geom_bond_atom_site_label_2
_geom_bond_distance
_geom_bond_site_symmetry_2
Li0 O1 2.121888 1_655
Li0 O45 2.132766 1_555
Li0 O42 2.197734 1_555
Li0 O39 2.201746 1_555
Li0 O3 2.219609 1_655
Li0 O11 2.244596 1_655
Li1 O2 2.122708 1_645
Li1 O46 2.135020 1_556
Li1 O4 2.192116 1_655
Li1 O6 2.192117 1_656
Li1 O37 2.227426 1_545
Li1 O44 2.231028 1_546
Li2 O2 2.122708 1_655
Li2 O46 2.135020 1_556
Li2 O4 2.192116 1_655
Li2 O7 2.192117 1_656
Li2 O36 2.227426 1_555
Li2 O44 2.231028 1_556
Li3 O0 2.114384 1_655
Li3 O47 2.146468 1_565
Li3 O8 2.190018 1_665
Li3 O43 2.198781 1_555
Li3 O40 2.208110 1_555
Li3 O5 2.243119 1_665
Li4 O0 2.114384 1_655
Li4 O47 2.146468 1_555
Li4 O9 2.190018 1_655
Li4 O43 2.198781 1_555
Li4 O38 2.208110 1_555
Li4 O5 2.243119 1_655
Li5 O1 2.121888 1_645
Li5 O45 2.132766 1_555
Li5 O42 2.197734 1_545
Li5 O41 2.201746 1_545
Li5 O3 2.219609 1_655
Li5 O10 2.244596 1_655
Li6 O21 2.116188 1_565
Li6 O26 2.143802 1_555
Li6 O13 2.181901 1_555
Li6 O31 2.214437 1_565
Li6 O29 2.219798 1_565
Li6 O18 2.226020 1_555
Li7 O21 2.116188 1_555
Li7 O26 2.143802 1_555
Li7 O12 2.181901 1_555
Li7 O35 2.214437 1_555
Li7 O29 2.219798 1_555
Li7 O18 2.226020 1_555
Li8 O22 2.128596 1_565
Li8 O24 2.136197 1_555
Li8 O30 2.188036 1_565
Li8 O15 2.188393 1_555
Li8 O19 2.217558 1_555
Li8 O27 2.232509 1_565
Li9 O22 2.128596 1_555
Li9 O24 2.136197 1_555
Li9 O34 2.188036 1_555
Li9 O14 2.188393 1_555
Li9 O19 2.217558 1_555
Li9 O27 2.232509 1_555
Li10 O25 2.101466 1_555
Li10 O23 2.126616 1_565
Li10 O32 2.195976 1_565
Li10 O28 2.205306 1_565
Li10 O17 2.229374 1_555
Li10 O20 2.230246 1_555
Li11 O25 2.101466 1_555
Li11 O23 2.126616 1_555
Li11 O33 2.195976 1_555
Li11 O28 2.205306 1_555
Li11 O16 2.229374 1_555
Li11 O20 2.230246 1_555
Mn0 O6 2.136351 1_565
Mn0 O7 2.136351 1_555
Mn0 O0 2.149411 1_555
Mn0 O19 2.232854 1_555
Mn0 O14 2.287993 1_555
Mn0 O15 2.287993 1_555
Mn1 O8 2.143592 1_565
Mn1 O9 2.143592 1_555
Mn1 O1 2.152114 1_555
Mn1 O18 2.248192 1_555
Mn1 O13 2.272575 1_555
Mn1 O12 2.272575 1_555
Mn2 O12 2.137203 1_555
Mn2 O13 2.137203 1_545
Mn2 O23 2.147238 1_555
Mn2 O3 2.260356 1_555
Mn2 O10 2.273793 1_555
Mn2 O11 2.273793 1_555
Mn3 O15 2.129455 1_545
Mn3 O14 2.129455 1_555
Mn3 O21 2.167982 1_555
Mn3 O5 2.246288 1_555
Mn3 O9 2.278088 1_555
Mn3 O8 2.278088 1_555
Fe0 O10 2.104627 1_565
Fe0 O11 2.104627 1_555
Fe0 O2 2.118778 1_555
Fe0 O20 2.227953 1_555
Fe0 O17 2.263498 1_555
Fe0 O16 2.263498 1_555
Fe1 O17 2.093743 1_545
Fe1 O16 2.093743 1_555
Fe1 O22 2.119777 1_556
Fe1 O4 2.219330 1_555
Fe1 O7 2.272132 1_556
Fe1 O6 2.272132 1_556
Fe2 O34 2.104110 1_555
Fe2 O30 2.104110 1_565
Fe2 O25 2.144761 1_554
Fe2 O44 2.201950 1_555
Fe2 O36 2.267711 1_554
Fe2 O37 2.267711 1_554
Fe3 O35 2.096811 1_555
Fe3 O31 2.096811 1_565
Fe3 O24 2.110957 1_555
Fe3 O43 2.206877 1_555
Fe3 O40 2.261434 1_555
Fe3 O38 2.261434 1_555
Co0 O26 2.081033 1_555
Co0 O32 2.136106 1_565
Co0 O33 2.136106 1_555
Co0 O42 2.178212 1_555
Co0 O41 2.182749 1_555
Co0 O39 2.182749 1_555
Co1 O45 2.079900 1_555
Co1 O37 2.100739 1_545
Co1 O36 2.100739 1_555
Co1 O28 2.200112 1_555
Co1 O33 2.225427 1_555
Co1 O32 2.225427 1_555
Co2 O47 2.073809 1_555
Co2 O41 2.136810 1_545
Co2 O39 2.136810 1_555
Co2 O29 2.158449 1_555
Co2 O35 2.194591 1_555
Co2 O31 2.194591 1_555
Co3 O46 2.079772 1_555
Co3 O40 2.108532 1_545
Co3 O38 2.108532 1_555
Co3 O27 2.200850 1_555
Co3 O30 2.244376 1_555
Co3 O34 2.244376 1_555
O0 P10 1.558425 1_455
O1 P11 1.557266 1_455
O2 P9 1.560387 1_455
O3 P2 1.538923 1_555
O4 P0 1.535088 1_555
O5 P1 1.540815 1_555
O6 P1 1.571294 1_555
O7 P1 1.571294 1_555
O8 P2 1.572263 1_555
O9 P2 1.572263 1_555
O10 P0 1.575718 1_555
O11 P0 1.575718 1_555
O12 P4 1.572555 1_555
O13 P4 1.572555 1_555
O14 P3 1.570275 1_555
O15 P3 1.570275 1_555
O16 P5 1.574957 1_555
O17 P5 1.574957 1_555
O18 P3 1.540909 1_555
O19 P5 1.537963 1_554
O20 P4 1.537426 1_555
O21 P6 1.556023 1_555
O22 P7 1.557113 1_555
O23 P8 1.557000 1_555
O24 P3 1.555100 1_555
O25 P5 1.554676 1_555
O26 P4 1.565024 1_555
O27 P6 1.537895 1_555
O28 P7 1.538033 1_556
O29 P8 1.550378 1_555
O30 P7 1.576361 1_555
O31 P6 1.578049 1_555
O32 P8 1.573585 1_555
O33 P8 1.573585 1_555
O34 P7 1.576361 1_555
O35 P6 1.578049 1_555
O36 P9 1.576166 1_555
O37 P9 1.576166 1_555
O38 P10 1.578137 1_555
O39 P11 1.578909 1_555
O40 P10 1.578137 1_555
O41 P11 1.578909 1_555
O42 P9 1.545750 1_555
O43 P11 1.539521 1_555
O44 P10 1.540534 1_555
O45 P0 1.556910 1_655
O46 P1 1.560971 1_655
O47 P2 1.562508 1_655
