# generated using pymatgen
data_Li5Nb6NiO18
_symmetry_space_group_name_H-M   'P 1'
_cell_length_a   7.67100200
_cell_length_b   9.04688264
_cell_length_c   11.24015109
_cell_angle_alpha   105.62576375
_cell_angle_beta   95.56237836
_cell_angle_gamma   113.21042405
_symmetry_Int_Tables_number   1
_chemical_formula_structural   Li5Nb6NiO18
_chemical_formula_sum   'Li10 Nb12 Ni2 O36'
_cell_volume   672.00089183
_cell_formula_units_Z   2
loop_
 _symmetry_equiv_pos_site_id
 _symmetry_equiv_pos_as_xyz
  1  'x, y, z'
loop_
 _atom_site_type_symbol
 _atom_site_label
 _atom_site_symmetry_multiplicity
 _atom_site_fract_x
 _atom_site_fract_y
 _atom_site_fract_z
 _atom_site_occupancy
  Li  Li0  1  0.21302200  0.00074100  0.28698200  1
  Li  Li1  1  0.04671500  0.66668600  0.45379100  1
  Li  Li2  1  0.37984100  0.33380500  0.12064500  1
  Li  Li3  1  0.04672000  0.66723800  0.95383900  1
  Li  Li4  1  0.71233300  0.99924300  0.78657600  1
  Li  Li5  1  0.54597400  0.66646400  0.45398200  1
  Li  Li6  1  0.87942100  0.33268600  0.12040300  1
  Li  Li7  1  0.54616100  0.66693700  0.95346600  1
  Li  Li8  1  0.37894100  0.33277800  0.62010600  1
  Li  Li9  1  0.88010100  0.33336600  0.62024900  1
  Nb  Nb0  1  0.32942800  0.66578900  0.16681100  1
  Nb  Nb1  1  0.49723700  0.99959700  0.50289000  1
  Nb  Nb2  1  0.16652800  0.33545700  0.33415400  1
  Nb  Nb3  1  0.49705500  0.00002500  0.00068800  1
  Nb  Nb4  1  0.33078600  0.66386400  0.66654700  1
  Nb  Nb5  1  0.99709100  0.99978300  0.50103500  1
  Nb  Nb6  1  0.83307200  0.66661400  0.16848000  1
  Nb  Nb7  1  0.66589200  0.33484000  0.33489500  1
  Nb  Nb8  1  0.16417100  0.33480200  0.83444700  1
  Nb  Nb9  1  0.83082600  0.66503700  0.66796800  1
  Nb  Nb10  1  0.99771500  0.00073900  0.00285100  1
  Nb  Nb11  1  0.66658700  0.33359700  0.83576800  1
  Ni  Ni0  1  0.71307200  0.00187200  0.29019100  1
  Ni  Ni1  1  0.21159700  0.99821000  0.78931200  1
  O  O0  1  0.01908200  0.87011900  0.10637300  1
  O  O1  1  0.35082100  0.78587400  0.02279900  1
  O  O2  1  0.05357300  0.58102500  0.12362200  1
  O  O3  1  0.01883200  0.86807000  0.60293000  1
  O  O4  1  0.39382700  0.87890100  0.29517600  1
  O  O5  1  0.31533300  0.46231300  0.00442100  1
  O  O6  1  0.64098600  0.75198900  0.16597700  1
  O  O7  1  0.35037900  0.78576500  0.52243000  1
  O  O8  1  0.71960500  0.91247900  0.46235000  1
  O  O9  1  0.05430000  0.58211200  0.62423300  1
  O  O10  1  0.35367900  0.53792600  0.27280500  1
  O  O11  1  0.06487200  0.21450800  0.12965300  1
  O  O12  1  0.40197200  0.87901500  0.79443000  1
  O  O13  1  0.98241500  0.79596000  0.33725000  1
  O  O14  1  0.31639500  0.46336000  0.50486900  1
  O  O15  1  0.64066500  0.75046000  0.66637400  1
  O  O16  1  0.68468900  0.45332900  0.18936700  1
  O  O17  1  0.02223900  0.12080000  0.35470900  1
  O  O18  1  0.39014600  0.24979400  0.29112300  1
  O  O19  1  0.72223900  0.91591500  0.95811200  1
  O  O20  1  0.35231100  0.53625900  0.77356700  1
  O  O21  1  0.06473700  0.21373900  0.62973900  1
  O  O22  1  0.73112600  0.54691000  0.46271600  1
  O  O23  1  0.98456900  0.79572300  0.83828500  1
  O  O24  1  0.65045800  0.13182500  0.16863900  1
  O  O25  1  0.97253000  0.41807700  0.33305800  1
  O  O26  1  0.30621100  0.08412500  0.50001500  1
  O  O27  1  0.01477900  0.12130400  0.85607000  1
  O  O28  1  0.68400700  0.45288500  0.68878900  1
  O  O29  1  0.38893300  0.24763700  0.79008100  1
  O  O30  1  0.68871900  0.20446600  0.44038900  1
  O  O31  1  0.73146300  0.54683800  0.96228600  1
  O  O32  1  0.64902700  0.13005900  0.67139300  1
  O  O33  1  0.30698200  0.08744000  0.00605700  1
  O  O34  1  0.97237900  0.41880900  0.83316200  1
  O  O35  1  0.68663400  0.20402000  0.93947700  1
loop_
_geom_bond_atom_site_label_1
_geom_bond_atom_site_label_2
_geom_bond_distance
_geom_bond_site_symmetry_2
Li0 O4 2.093344 1_545
Li0 O18 2.107884 1_555
Li0 O0 2.113619 1_545
Li0 O17 2.219139 1_555
Li0 O13 2.248390 1_445
Li0 O26 2.254738 1_555
Li1 O7 2.099474 1_555
Li1 O25 2.102677 1_455
Li1 O13 2.117017 1_455
Li1 O3 2.215081 1_555
Li1 O9 2.249936 1_555
Li1 O22 2.254520 1_455
Li2 O33 2.066660 1_555
Li2 O16 2.107413 1_555
Li2 O5 2.109369 1_555
Li2 O10 2.243389 1_555
Li2 O18 2.249061 1_555
Li2 O11 2.250253 1_555
Li3 O23 2.096553 1_455
Li3 O34 2.100929 1_455
Li3 O1 2.102939 1_556
Li3 O0 2.243941 1_556
Li3 O2 2.251167 1_556
Li3 O31 2.251167 1_455
Li4 O27 2.092097 1_665
Li4 O15 2.106162 1_555
Li4 O32 2.114040 1_565
Li4 O12 2.215923 1_555
Li4 O35 2.250113 1_565
Li4 O19 2.256407 1_555
Li5 O8 2.064655 1_555
Li5 O22 2.106597 1_555
Li5 O10 2.113100 1_555
Li5 O14 2.239576 1_555
Li5 O15 2.248518 1_555
Li5 O7 2.249653 1_555
Li6 O11 2.099454 1_655
Li6 O2 2.101119 1_655
Li6 O35 2.112477 1_554
Li6 O24 2.209200 1_555
Li6 O25 2.249383 1_555
Li6 O16 2.253296 1_555
Li7 O19 2.103717 1_555
Li7 O20 2.107449 1_555
Li7 O31 2.111622 1_555
Li7 O1 2.248560 1_556
Li7 O6 2.249162 1_556
Li7 O5 2.252641 1_556
Li8 O26 2.103025 1_555
Li8 O28 2.108702 1_555
Li8 O14 2.110492 1_555
Li8 O21 2.246842 1_555
Li8 O20 2.249450 1_555
Li8 O29 2.249505 1_555
Li9 O30 2.099392 1_555
Li9 O9 2.101351 1_655
Li9 O21 2.104706 1_655
Li9 O32 2.247845 1_555
Li9 O34 2.251582 1_555
Li9 O28 2.254626 1_555
Nb0 O2 1.903363 1_555
Nb0 O4 1.911946 1_555
Nb0 O10 1.913422 1_555
Nb0 O1 2.164659 1_555
Nb0 O5 2.174118 1_555
Nb0 O6 2.204397 1_555
Nb1 O7 1.902304 1_555
Nb1 O26 1.902764 1_565
Nb1 O32 1.902907 1_565
Nb1 O8 2.180692 1_555
Nb1 O30 2.200428 1_565
Nb1 O4 2.203957 1_555
Nb2 O17 1.909656 1_555
Nb2 O25 1.910921 1_455
Nb2 O14 1.915805 1_555
Nb2 O10 2.165948 1_555
Nb2 O11 2.171190 1_555
Nb2 O18 2.187192 1_555
Nb3 O24 1.902905 1_555
Nb3 O33 1.911856 1_555
Nb3 O1 1.916776 1_545
Nb3 O35 2.180988 1_554
Nb3 O12 2.186521 1_544
Nb3 O19 2.189074 1_544
Nb4 O9 1.910513 1_555
Nb4 O12 1.912027 1_555
Nb4 O20 1.914895 1_555
Nb4 O14 2.152333 1_555
Nb4 O7 2.177568 1_555
Nb4 O15 2.190462 1_555
Nb5 O3 1.901121 1_655
Nb5 O8 1.911598 1_555
Nb5 O21 1.913908 1_665
Nb5 O13 2.183918 1_555
Nb5 O26 2.188389 1_665
Nb5 O17 2.192273 1_665
Nb6 O13 1.899094 1_555
Nb6 O16 1.907513 1_555
Nb6 O6 1.915534 1_555
Nb6 O2 2.168456 1_655
Nb6 O0 2.174336 1_655
Nb6 O31 2.187324 1_554
Nb7 O22 1.901176 1_555
Nb7 O18 1.902587 1_555
Nb7 O30 1.924538 1_555
Nb7 O16 2.171191 1_555
Nb7 O25 2.173027 1_555
Nb7 O24 2.194598 1_555
Nb8 O34 1.904070 1_455
Nb8 O5 1.911638 1_556
Nb8 O27 1.914473 1_555
Nb8 O20 2.159374 1_555
Nb8 O21 2.172421 1_555
Nb8 O29 2.206746 1_555
Nb9 O28 1.896369 1_555
Nb9 O15 1.901685 1_555
Nb9 O23 1.922907 1_555
Nb9 O9 2.172923 1_655
Nb9 O22 2.176021 1_555
Nb9 O3 2.197261 1_655
Nb10 O19 1.901366 1_544
Nb10 O11 1.903788 1_655
Nb10 O0 1.906225 1_645
Nb10 O33 2.178582 1_655
Nb10 O27 2.197173 1_654
Nb10 O23 2.200012 1_544
Nb11 O35 1.897425 1_555
Nb11 O31 1.902582 1_555
Nb11 O29 1.916287 1_555
Nb11 O34 2.167424 1_555
Nb11 O32 2.178522 1_555
Nb11 O28 2.191209 1_555
Ni0 O6 2.128468 1_545
Ni0 O17 2.131449 1_655
Ni0 O24 2.159343 1_555
Ni0 O30 2.215515 1_555
Ni0 O4 2.269534 1_545
Ni0 O8 2.292889 1_545
Ni1 O29 2.123727 1_565
Ni1 O12 2.134761 1_555
Ni1 O3 2.158719 1_555
Ni1 O23 2.214983 1_455
Ni1 O27 2.275388 1_565
Ni1 O33 2.291667 1_566
