# generated using pymatgen
data_Ca3Zr2O7
_symmetry_space_group_name_H-M   'P 1'
_cell_length_a   10.43677815
_cell_length_b   10.43677815
_cell_length_c   5.82143400
_cell_angle_alpha   90.00000000
_cell_angle_beta   90.00000000
_cell_angle_gamma   147.70452654
_symmetry_Int_Tables_number   1
_chemical_formula_structural   Ca3Zr2O7
_chemical_formula_sum   'Ca6 Zr4 O14'
_cell_volume   338.79448036
_cell_formula_units_Z   2
loop_
 _symmetry_equiv_pos_site_id
 _symmetry_equiv_pos_as_xyz
  1  'x, y, z'
loop_
 _atom_site_type_symbol
 _atom_site_label
 _atom_site_symmetry_multiplicity
 _atom_site_fract_x
 _atom_site_fract_y
 _atom_site_fract_z
 _atom_site_occupancy
  Ca  Ca0  1  0.93806200  0.55273900  0.75000000  1
  Ca  Ca1  1  0.44726100  0.06193800  0.25000000  1
  Ca  Ca2  1  0.72260000  0.72260000  0.75000000  1
  Ca  Ca3  1  0.27740000  0.27740000  0.25000000  1
  Ca  Ca4  1  0.55273900  0.93806200  0.75000000  1
  Ca  Ca5  1  0.06193800  0.44726100  0.25000000  1
  Zr  Zr0  1  0.85576400  0.65261000  0.25000000  1
  Zr  Zr1  1  0.34739000  0.14423600  0.75000000  1
  Zr  Zr2  1  0.14423600  0.34739000  0.75000000  1
  Zr  Zr3  1  0.65261000  0.85576400  0.25000000  1
  O  O0  1  0.87193100  0.12806900  0.00000000  1
  O  O1  1  0.87193100  0.12806900  0.50000000  1
  O  O2  1  0.84541500  0.44329800  0.25000000  1
  O  O3  1  0.55670200  0.15458500  0.75000000  1
  O  O4  1  0.57591900  0.42408100  0.00000000  1
  O  O5  1  0.57591900  0.42408100  0.50000000  1
  O  O6  1  0.87158900  0.87158900  0.25000000  1
  O  O7  1  0.12841100  0.12841100  0.75000000  1
  O  O8  1  0.42408100  0.57591900  0.50000000  1
  O  O9  1  0.42408100  0.57591900  0.00000000  1
  O  O10  1  0.15458500  0.55670200  0.75000000  1
  O  O11  1  0.44329800  0.84541500  0.25000000  1
  O  O12  1  0.12806900  0.87193100  0.50000000  1
  O  O13  1  0.12806900  0.87193100  0.00000000  1
loop_
_geom_bond_atom_site_label_1
_geom_bond_atom_site_label_2
_geom_bond_distance
_geom_bond_site_symmetry_2
Ca0 O10 2.224950 1_655
Ca0 O3 2.268892 1_555
Ca0 O12 2.445370 1_655
Ca0 O13 2.445370 1_656
Ca1 O11 2.224950 1_545
Ca1 O2 2.268892 1_555
Ca1 O12 2.445370 1_545
Ca1 O13 2.445370 1_545
Ca2 O7 2.355834 1_665
Ca2 O8 2.470831 1_555
Ca2 O9 2.470831 1_556
Ca2 O4 2.470831 1_556
Ca2 O5 2.470831 1_555
Ca3 O6 2.355834 1_445
Ca3 O4 2.470831 1_555
Ca3 O5 2.470831 1_555
Ca3 O8 2.470831 1_555
Ca3 O9 2.470831 1_555
Ca4 O3 2.224950 1_565
Ca4 O10 2.268892 1_555
Ca4 O0 2.445370 1_566
Ca4 O1 2.445370 1_565
Ca5 O2 2.224950 1_455
Ca5 O11 2.268892 1_555
Ca5 O1 2.445370 1_455
Ca5 O0 2.445370 1_455
O0 Zr3 2.106312 1_545
O0 Zr2 2.106312 1_654
O1 Zr3 2.106312 1_545
O1 Zr2 2.106312 1_655
O2 Zr0 2.094037 1_555
O3 Zr1 2.094037 1_555
O4 Zr1 2.135456 1_554
O4 Zr0 2.135456 1_555
O5 Zr1 2.135456 1_555
O5 Zr0 2.135456 1_555
O6 Zr0 2.147637 1_555
O6 Zr3 2.147637 1_555
O7 Zr2 2.147637 1_555
O7 Zr1 2.147637 1_555
O8 Zr3 2.135456 1_555
O8 Zr2 2.135456 1_555
O9 Zr2 2.135456 1_554
O9 Zr3 2.135456 1_555
O10 Zr2 2.094037 1_555
O11 Zr3 2.094037 1_555
O12 Zr1 2.106312 1_565
O12 Zr0 2.106312 1_455
O13 Zr1 2.106312 1_564
O13 Zr0 2.106312 1_455
