# generated using pymatgen
data_Li4Nb3Cu3(TeO8)2
_symmetry_space_group_name_H-M   'P 1'
_cell_length_a   6.24015463
_cell_length_b   6.24015463
_cell_length_c   10.58476399
_cell_angle_alpha   89.33619111
_cell_angle_beta   89.33619111
_cell_angle_gamma   58.47928852
_symmetry_Int_Tables_number   1
_chemical_formula_structural   Li4Nb3Cu3(TeO8)2
_chemical_formula_sum   'Li4 Nb3 Cu3 Te2 O16'
_cell_volume   351.32021738
_cell_formula_units_Z   1
loop_
 _symmetry_equiv_pos_site_id
 _symmetry_equiv_pos_as_xyz
  1  'x, y, z'
loop_
 _atom_site_type_symbol
 _atom_site_label
 _atom_site_symmetry_multiplicity
 _atom_site_fract_x
 _atom_site_fract_y
 _atom_site_fract_z
 _atom_site_occupancy
  Li  Li0  1  0.66591400  0.66591400  0.90490500  1
  Li  Li1  1  0.00062800  0.00062800  0.00052500  1
  Li  Li2  1  0.00766700  0.00766700  0.47799300  1
  Li  Li3  1  0.34205500  0.34205500  0.40087700  1
  Nb  Nb0  1  0.81937700  0.81937700  0.23615200  1
  Nb  Nb1  1  0.65710200  0.15852200  0.71885600  1
  Nb  Nb2  1  0.15852200  0.65710200  0.71885600  1
  Cu  Cu0  1  0.82796900  0.33763500  0.21150200  1
  Cu  Cu1  1  0.33763500  0.82796900  0.21150200  1
  Cu  Cu2  1  0.16708600  0.16708600  0.72033100  1
  Te  Te0  1  0.63868200  0.63868200  0.49243100  1
  Te  Te1  1  0.32551700  0.32551700  0.01689300  1
  O  O0  1  0.81198100  0.31613200  0.58499200  1
  O  O1  1  0.52224300  0.52224300  0.35565600  1
  O  O2  1  0.66947000  0.66947000  0.11969800  1
  O  O3  1  0.99878000  0.99878000  0.28996600  1
  O  O4  1  0.00107100  0.00107100  0.81122300  1
  O  O5  1  0.31613200  0.81198100  0.58499200  1
  O  O6  1  0.99460900  0.53663000  0.34094700  1
  O  O7  1  0.53663000  0.99460900  0.34094700  1
  O  O8  1  0.16361400  0.16361400  0.09508200  1
  O  O9  1  0.86033500  0.86033500  0.60797500  1
  O  O10  1  0.52710600  0.00838100  0.82245500  1
  O  O11  1  0.00838100  0.52710600  0.82245500  1
  O  O12  1  0.34370500  0.34370500  0.61000100  1
  O  O13  1  0.65543400  0.15152800  0.09785200  1
  O  O14  1  0.49115300  0.49115300  0.81495700  1
  O  O15  1  0.15152800  0.65543400  0.09785200  1
loop_
_geom_bond_atom_site_label_1
_geom_bond_atom_site_label_2
_geom_bond_distance
_geom_bond_site_symmetry_2
Li0 O11 2.029203 1_655
Li0 O10 2.029203 1_565
Li0 O14 2.139303 1_555
Li0 O2 2.274377 1_556
Li1 O4 2.003659 1_554
Li1 O8 2.049220 1_555
Li1 O15 2.106690 1_545
Li1 O13 2.106690 1_455
Li2 O3 1.993856 1_445
Li2 O0 2.009900 1_455
Li2 O5 2.009900 1_545
Li2 O9 2.099664 1_445
Li3 O6 1.959290 1_455
Li3 O7 1.959290 1_545
Li3 O1 2.013621 1_555
Li3 O12 2.213840 1_555
Nb0 O6 1.872052 1_555
Nb0 O7 1.872052 1_555
Nb0 O3 2.042310 1_555
Nb0 O2 2.058617 1_555
Nb0 O13 2.287523 1_565
Nb0 O15 2.287523 1_655
Nb1 O10 1.867767 1_555
Nb1 O9 1.999202 1_545
Nb1 O12 2.036139 1_555
Nb1 O14 2.047556 1_555
Nb1 O4 2.085569 1_655
Nb1 O0 2.199746 1_555
Nb2 O11 1.867767 1_555
Nb2 O9 1.999202 1_455
Nb2 O12 2.036139 1_555
Nb2 O14 2.047556 1_555
Nb2 O4 2.085569 1_565
Nb2 O5 2.199746 1_555
Cu0 O3 1.979953 1_545
Cu0 O2 2.011087 1_555
Cu0 O8 2.162773 1_655
Cu0 O1 2.229386 1_555
Cu0 O13 2.307539 1_555
Cu0 O6 2.433754 1_555
Cu1 O3 1.979953 1_455
Cu1 O2 2.011087 1_555
Cu1 O8 2.162773 1_565
Cu1 O1 2.229386 1_555
Cu1 O15 2.307539 1_555
Cu1 O7 2.433754 1_555
Cu2 O4 2.036659 1_555
Cu2 O10 2.213926 1_555
Cu2 O11 2.213926 1_555
Cu2 O12 2.236879 1_555
Cu2 O5 2.390639 1_545
Cu2 O0 2.390639 1_455
O0 Te0 1.970658 1_555
O1 Te0 1.937159 1_555
O5 Te0 1.970658 1_555
O6 Te0 2.524231 1_555
O7 Te0 2.524231 1_555
O8 Te1 1.937748 1_555
O9 Te0 2.720423 1_555
O10 Te1 2.676912 1_556
O11 Te1 2.676912 1_556
O13 Te1 1.957973 1_555
O15 Te1 1.957973 1_555
