# generated using pymatgen
data_LiFePCO7
_symmetry_space_group_name_H-M   'P 1'
_cell_length_a   8.41198163
_cell_length_b   5.14290039
_cell_length_c   12.88410350
_cell_angle_alpha   90.06582813
_cell_angle_beta   89.65884916
_cell_angle_gamma   85.10686061
_symmetry_Int_Tables_number   1
_chemical_formula_structural   LiFePCO7
_chemical_formula_sum   'Li4 Fe4 P4 C4 O28'
_cell_volume   555.34985644
_cell_formula_units_Z   4
loop_
 _symmetry_equiv_pos_site_id
 _symmetry_equiv_pos_as_xyz
  1  'x, y, z'
loop_
 _atom_site_type_symbol
 _atom_site_label
 _atom_site_symmetry_multiplicity
 _atom_site_fract_x
 _atom_site_fract_y
 _atom_site_fract_z
 _atom_site_occupancy
  Li  Li0  1  0.10845100  0.77008900  0.12628200  1
  Li  Li1  1  0.28192100  0.24465600  0.72706200  1
  Li  Li2  1  0.89021900  0.23044900  0.37806600  1
  Li  Li3  1  0.89061100  0.22492000  0.87615300  1
  Fe  Fe0  1  0.33172100  0.80511200  0.37629900  1
  Fe  Fe1  1  0.33679600  0.80183700  0.87886400  1
  Fe  Fe2  1  0.66575700  0.19616800  0.12568600  1
  Fe  Fe3  1  0.66553900  0.20031600  0.62466300  1
  P  P0  1  0.42225500  0.72627600  0.12631600  1
  P  P1  1  0.42342600  0.73267300  0.62622600  1
  P  P2  1  0.57512900  0.27693500  0.37337100  1
  P  P3  1  0.57931300  0.27612600  0.87502200  1
  C  C0  1  0.04568400  0.70368100  0.86937000  1
  C  C1  1  0.04278700  0.70701500  0.37722400  1
  C  C2  1  0.95747100  0.29286300  0.12398800  1
  C  C3  1  0.95702000  0.28622600  0.62862300  1
  O  O0  1  0.07370600  0.94940100  0.37572200  1
  O  O1  1  0.07459200  0.94786900  0.87504600  1
  O  O2  1  0.09304800  0.37851300  0.12384200  1
  O  O3  1  0.09975300  0.33401900  0.63820700  1
  O  O4  1  0.17436300  0.53798900  0.86396500  1
  O  O5  1  0.16783600  0.53849000  0.37764600  1
  O  O6  1  0.32143800  0.79320000  0.52977300  1
  O  O7  1  0.31195800  0.79558000  0.03168000  1
  O  O8  1  0.30745900  0.79522300  0.21867900  1
  O  O9  1  0.31878100  0.83380700  0.72004400  1
  O  O10  1  0.42341000  0.13025900  0.37252100  1
  O  O11  1  0.42169800  0.14000700  0.86837500  1
  O  O12  1  0.47709500  0.43147700  0.12555700  1
  O  O13  1  0.46586500  0.43113300  0.63896700  1
  O  O14  1  0.52047900  0.57153400  0.36954300  1
  O  O15  1  0.52674500  0.57224200  0.87673000  1
  O  O16  1  0.57448500  0.87190600  0.12665300  1
  O  O17  1  0.58083300  0.86700200  0.62308600  1
  O  O18  1  0.69112200  0.20451400  0.28151200  1
  O  O19  1  0.68241100  0.21866400  0.46932200  1
  O  O20  1  0.69178400  0.20860200  0.78169300  1
  O  O21  1  0.68543800  0.19610100  0.96916800  1
  O  O22  1  0.83108800  0.45948300  0.12350300  1
  O  O23  1  0.83985600  0.46717500  0.62383500  1
  O  O24  1  0.90661100  0.62407900  0.37594800  1
  O  O25  1  0.91086300  0.61794400  0.87209700  1
  O  O26  1  0.92815800  0.04969500  0.12442800  1
  O  O27  1  0.90921100  0.05323200  0.62325000  1
loop_
_geom_bond_atom_site_label_1
_geom_bond_atom_site_label_2
_geom_bond_distance
_geom_bond_site_symmetry_2
Li0 O26 1.999244 1_465
Li0 O2 2.029219 1_555
Li0 O8 2.072831 1_555
Li0 O7 2.108841 1_555
Li1 O3 1.942167 1_555
Li1 O9 2.111009 1_545
Li1 O13 2.199320 1_555
Li1 O11 2.215147 1_555
Li1 O4 2.438794 1_555
Li2 O0 2.022674 1_645
Li2 O24 2.040994 1_555
Li2 O18 2.105433 1_555
Li2 O19 2.106087 1_555
Li3 O1 2.012236 1_645
Li3 O25 2.043580 1_555
Li3 O20 2.081709 1_555
Li3 O21 2.111007 1_555
Fe0 O10 1.900859 1_565
Fe0 O14 1.909068 1_555
Fe0 O6 1.979998 1_555
Fe0 O5 2.025662 1_555
Fe0 O8 2.043239 1_555
Fe0 O0 2.233131 1_555
Fe1 O15 1.904117 1_555
Fe1 O11 1.940194 1_565
Fe1 O7 1.979303 1_556
Fe1 O4 2.015931 1_555
Fe1 O9 2.058486 1_555
Fe1 O1 2.269397 1_555
Fe2 O16 1.894478 1_545
Fe2 O12 1.911949 1_555
Fe2 O18 2.021041 1_555
Fe2 O22 2.022323 1_555
Fe2 O21 2.022393 1_554
Fe2 O26 2.270646 1_555
Fe3 O17 1.911827 1_545
Fe3 O13 1.979899 1_555
Fe3 O19 2.008508 1_555
Fe3 O20 2.037298 1_555
Fe3 O23 2.092134 1_555
Fe3 O27 2.123459 1_555
C0 O25 1.251695 1_455
C0 O1 1.301422 1_555
C0 O4 1.320714 1_555
C1 O24 1.256166 1_455
C1 O0 1.295089 1_555
C1 O5 1.304712 1_555
C2 O2 1.257134 1_655
C2 O26 1.295150 1_555
C2 O22 1.307387 1_555
C3 O3 1.252720 1_655
C3 O27 1.297968 1_555
C3 O23 1.298301 1_555
O6 P1 1.531431 1_555
O7 P0 1.559689 1_555
O8 P0 1.549613 1_555
O9 P1 1.553797 1_555
O10 P2 1.536999 1_555
O11 P3 1.553977 1_555
O12 P0 1.546650 1_555
O13 P1 1.570408 1_555
O14 P2 1.546253 1_555
O15 P3 1.549245 1_555
O16 P0 1.537680 1_555
O17 P1 1.545195 1_555
O18 P2 1.553941 1_555
O19 P2 1.549364 1_555
O20 P3 1.546306 1_555
O21 P3 1.545650 1_555
