# generated using pymatgen
data_Na2P2H4N2O5
_symmetry_space_group_name_H-M   'P 1'
_cell_length_a   11.50515565
_cell_length_b   11.50515565
_cell_length_c   15.70977047
_cell_angle_alpha   47.45073463
_cell_angle_beta   47.45073463
_cell_angle_gamma   26.46781836
_symmetry_Int_Tables_number   1
_chemical_formula_structural   Na2P2H4N2O5
_chemical_formula_sum   'Na8 P8 H16 N8 O20'
_cell_volume   666.68223468
_cell_formula_units_Z   4
loop_
 _symmetry_equiv_pos_site_id
 _symmetry_equiv_pos_as_xyz
  1  'x, y, z'
loop_
 _atom_site_type_symbol
 _atom_site_label
 _atom_site_symmetry_multiplicity
 _atom_site_fract_x
 _atom_site_fract_y
 _atom_site_fract_z
 _atom_site_occupancy
  Na  Na0  1  0.56253700  0.24615100  0.10333000  1
  Na  Na1  1  0.17980200  0.31381900  0.40520400  1
  Na  Na2  1  0.68618100  0.82019800  0.09479600  1
  Na  Na3  1  0.75384900  0.43746300  0.39667000  1
  Na  Na4  1  0.24615100  0.56253700  0.60333000  1
  Na  Na5  1  0.31381900  0.17980200  0.90520400  1
  Na  Na6  1  0.82019800  0.68618100  0.59479600  1
  Na  Na7  1  0.43746300  0.75384900  0.89667000  1
  P  P0  1  0.15614100  0.08054400  0.68946400  1
  P  P1  1  0.10628800  0.78527000  0.92249600  1
  P  P2  1  0.21473000  0.89371200  0.57750400  1
  P  P3  1  0.91945600  0.84385900  0.81053600  1
  P  P4  1  0.08054400  0.15614100  0.18946400  1
  P  P5  1  0.78527000  0.10628800  0.42249600  1
  P  P6  1  0.89371200  0.21473000  0.07750400  1
  P  P7  1  0.84385900  0.91945600  0.31053600  1
  H  H0  1  0.78238400  0.24204700  0.84459500  1
  H  H1  1  0.53203600  0.67363500  0.63718500  1
  H  H2  1  0.04567400  0.60906500  0.15618900  1
  H  H3  1  0.63506100  0.86325800  0.28739100  1
  H  H4  1  0.13674200  0.36493900  0.21260900  1
  H  H5  1  0.39093500  0.95432600  0.34381100  1
  H  H6  1  0.32636500  0.46796400  0.86281500  1
  H  H7  1  0.75795300  0.21761600  0.65540500  1
  H  H8  1  0.24204700  0.78238400  0.34459500  1
  H  H9  1  0.67363500  0.53203600  0.13718500  1
  H  H10  1  0.60906500  0.04567400  0.65618900  1
  H  H11  1  0.86325800  0.63506100  0.78739100  1
  H  H12  1  0.36493900  0.13674200  0.71260900  1
  H  H13  1  0.95432600  0.39093500  0.84381100  1
  H  H14  1  0.46796400  0.32636500  0.36281500  1
  H  H15  1  0.21761600  0.75795300  0.15540500  1
  N  N0  1  0.98558800  0.06505900  0.82609900  1
  N  N1  1  0.33655300  0.85876500  0.62925400  1
  N  N2  1  0.14123500  0.66344700  0.87074600  1
  N  N3  1  0.93494100  0.01441200  0.67390100  1
  N  N4  1  0.06505900  0.98558800  0.32609900  1
  N  N5  1  0.85876500  0.33655300  0.12925400  1
  N  N6  1  0.66344700  0.14123500  0.37074600  1
  N  N7  1  0.01441200  0.93494100  0.17390100  1
  O  O0  1  0.64333100  0.01530900  0.29911300  1
  O  O1  1  0.94969600  0.35853100  0.61746500  1
  O  O2  1  0.38339200  0.57266700  0.92832500  1
  O  O3  1  0.89331100  0.87222200  0.03728100  1
  O  O4  1  0.15411200  0.43383400  0.21350000  1
  O  O5  1  0.56616600  0.84588800  0.28650000  1
  O  O6  1  0.12777800  0.10668900  0.46271900  1
  O  O7  1  0.42733300  0.61660800  0.57167500  1
  O  O8  1  0.64146900  0.05030400  0.88253500  1
  O  O9  1  0.98469100  0.35666900  0.20088700  1
  O  O10  1  0.01530900  0.64333100  0.79911300  1
  O  O11  1  0.35853100  0.94969600  0.11746500  1
  O  O12  1  0.57266700  0.38339200  0.42832500  1
  O  O13  1  0.87222200  0.89331100  0.53728100  1
  O  O14  1  0.43383400  0.15411200  0.71350000  1
  O  O15  1  0.84588800  0.56616600  0.78650000  1
  O  O16  1  0.10668900  0.12777800  0.96271900  1
  O  O17  1  0.61660800  0.42733300  0.07167500  1
  O  O18  1  0.05030400  0.64146900  0.38253500  1
  O  O19  1  0.35666900  0.98469100  0.70088700  1
loop_
_geom_bond_atom_site_label_1
_geom_bond_atom_site_label_2
_geom_bond_distance
_geom_bond_site_symmetry_2
Na0 O3 2.334955 1_545
Na0 O17 2.341130 1_555
Na0 O4 2.372285 1_555
Na0 O2 2.398350 1_554
Na0 O0 2.403465 1_555
Na1 O18 2.324546 1_555
Na1 O6 2.400800 1_555
Na1 O4 2.431659 1_555
Na1 O0 2.437687 1_555
Na1 O1 2.516957 1_455
Na2 O11 2.324546 1_555
Na2 O3 2.400800 1_555
Na2 O5 2.431659 1_555
Na2 O9 2.437687 1_555
Na2 O8 2.516957 1_564
Na3 O6 2.334955 1_655
Na3 O12 2.341130 1_555
Na3 O5 2.372285 1_555
Na3 O7 2.398350 1_555
Na3 O9 2.403465 1_555
Na4 O13 2.334955 1_455
Na4 O7 2.341130 1_555
Na4 O14 2.372285 1_555
Na4 O12 2.398350 1_555
Na4 O10 2.403465 1_555
Na5 O8 2.324546 1_555
Na5 O16 2.400800 1_555
Na5 O14 2.431659 1_555
Na5 O10 2.437687 1_555
Na5 O11 2.516957 1_546
Na6 O1 2.324546 1_555
Na6 O13 2.400800 1_555
Na6 O15 2.431659 1_555
Na6 O19 2.437687 1_555
Na6 O18 2.516957 1_655
Na7 O16 2.334955 1_565
Na7 O2 2.341130 1_555
Na7 O15 2.372285 1_555
Na7 O17 2.398350 1_556
Na7 O19 2.403465 1_555
H0 N0 1.027053 1_555
H1 N1 1.026642 1_555
H2 O4 0.996338 1_555
H2 O3 1.733937 1_455
H3 O5 0.985301 1_555
H4 O4 0.985301 1_555
H5 O5 0.996338 1_555
H5 O6 1.733937 1_565
H6 N2 1.026642 1_555
H7 N3 1.027053 1_555
H8 N4 1.027053 1_555
H9 N5 1.026642 1_555
H10 O14 0.996338 1_555
H10 O13 1.733937 1_545
H11 O15 0.985301 1_555
H12 O14 0.985301 1_555
H13 O15 0.996338 1_555
H13 O16 1.733937 1_655
H14 N6 1.026642 1_555
H15 N7 1.027053 1_555
N0 P1 1.682801 1_645
N0 P0 1.703481 1_655
N1 P0 1.685324 1_565
N1 P2 1.696203 1_555
N2 P3 1.685324 1_455
N2 P1 1.696203 1_555
N3 P2 1.682801 1_645
N3 P3 1.703481 1_545
N4 P5 1.682801 1_465
N4 P4 1.703481 1_565
N5 P4 1.685324 1_655
N5 P6 1.696203 1_555
N6 P7 1.685324 1_545
N6 P5 1.696203 1_555
N7 P6 1.682801 1_465
N7 P7 1.703481 1_455
O0 P7 1.519273 1_545
O1 P0 1.513336 1_655
O2 P1 1.511868 1_555
O3 P1 1.527017 1_654
O6 P2 1.527017 1_545
O7 P2 1.511868 1_555
O8 P3 1.513336 1_545
O9 P4 1.519273 1_655
O10 P3 1.519273 1_455
O11 P4 1.513336 1_565
O12 P5 1.511868 1_555
O13 P5 1.527017 1_565
O16 P6 1.527017 1_456
O17 P6 1.511868 1_555
O18 P7 1.513336 1_455
O19 P0 1.519273 1_565
