# generated using pymatgen
data_Mn12O5F19
_symmetry_space_group_name_H-M   'P 1'
_cell_length_a   4.81270800
_cell_length_b   5.83095429
_cell_length_c   16.13350425
_cell_angle_alpha   90.19773443
_cell_angle_beta   90.10221867
_cell_angle_gamma   92.45923588
_symmetry_Int_Tables_number   1
_chemical_formula_structural   Mn12O5F19
_chemical_formula_sum   'Mn12 O5 F19'
_cell_volume   452.32885249
_cell_formula_units_Z   1
loop_
 _symmetry_equiv_pos_site_id
 _symmetry_equiv_pos_as_xyz
  1  'x, y, z'
loop_
 _atom_site_type_symbol
 _atom_site_label
 _atom_site_symmetry_multiplicity
 _atom_site_fract_x
 _atom_site_fract_y
 _atom_site_fract_z
 _atom_site_occupancy
  Mn  Mn0  1  0.00497000  0.16973000  0.58704100  1
  Mn  Mn1  1  0.97549100  0.83381600  0.75992100  1
  Mn  Mn2  1  0.00164000  0.15770500  0.91755800  1
  Mn  Mn3  1  0.99473400  0.17092700  0.26007500  1
  Mn  Mn4  1  0.99127200  0.85301600  0.41655000  1
  Mn  Mn5  1  0.99563100  0.84025400  0.08703100  1
  Mn  Mn6  1  0.50834200  0.32043100  0.40661500  1
  Mn  Mn7  1  0.47187700  0.33467100  0.07421400  1
  Mn  Mn8  1  0.48348800  0.33532900  0.74297500  1
  Mn  Mn9  1  0.50412300  0.65582700  0.91572900  1
  Mn  Mn10  1  0.47589800  0.64516600  0.58341000  1
  Mn  Mn11  1  0.48830900  0.64082400  0.25126000  1
  O  O0  1  0.78691700  0.12120600  0.36138100  1
  O  O1  1  0.77744300  0.88732600  0.87173700  1
  O  O2  1  0.27435200  0.39130400  0.96182500  1
  O  O3  1  0.27470900  0.40184500  0.63260000  1
  O  O4  1  0.28716500  0.36744900  0.30677900  1
  F  F0  1  0.77676200  0.11042300  0.69544600  1
  F  F1  1  0.79013800  0.12381000  0.02745600  1
  F  F2  1  0.75420300  0.87861100  0.53306300  1
  F  F3  1  0.76373600  0.89721600  0.19979600  1
  F  F4  1  0.74600900  0.39098500  0.85338200  1
  F  F5  1  0.72981100  0.61695700  0.68537900  1
  F  F6  1  0.72144800  0.38224900  0.51732200  1
  F  F7  1  0.73991800  0.61313000  0.35752300  1
  F  F8  1  0.73230100  0.38993700  0.18562400  1
  F  F9  1  0.72078700  0.61832200  0.02312100  1
  F  F10  1  0.29219300  0.62614000  0.80711100  1
  F  F11  1  0.27584800  0.61014300  0.46978000  1
  F  F12  1  0.27006200  0.61206200  0.13797400  1
  F  F13  1  0.22300300  0.11496800  0.81114200  1
  F  F14  1  0.24006100  0.10453000  0.47840300  1
  F  F15  1  0.22942700  0.88627500  0.64508000  1
  F  F16  1  0.25155700  0.89924700  0.97901400  1
  F  F17  1  0.21392900  0.12132600  0.14983200  1
  F  F18  1  0.23244800  0.87684500  0.30685400  1
loop_
_geom_bond_atom_site_label_1
_geom_bond_atom_site_label_2
_geom_bond_distance
_geom_bond_site_symmetry_2
Mn0 O3 1.973905 1_555
Mn1 O1 2.070742 1_555
Mn2 O2 1.981040 1_555
Mn2 O1 2.009830 1_445
Mn3 O4 1.927034 1_655
Mn3 O0 1.933890 1_555
Mn4 O0 2.084095 1_565
Mn6 O0 1.952137 1_555
Mn6 O4 1.955654 1_555
Mn7 O2 2.079775 1_554
Mn8 O3 2.088751 1_555
Mn9 O1 1.978314 1_555
Mn9 O2 2.004858 1_555
Mn10 O3 1.863583 1_555
Mn11 O4 2.039829 1_555
F0 Mn0 2.088808 1_655
F0 Mn8 2.110864 1_555
F0 Mn1 2.176829 1_545
F1 Mn2 2.051936 1_654
F1 Mn7 2.141548 1_555
F1 Mn5 2.187129 1_545
F2 Mn10 2.040029 1_555
F2 Mn4 2.208589 1_555
F2 Mn0 2.215100 1_665
F3 Mn11 2.126959 1_555
F3 Mn3 2.135903 1_565
F3 Mn5 2.168084 1_555
F4 Mn2 2.141181 1_655
F4 Mn8 2.197099 1_555
F4 Mn9 2.213485 1_555
F5 Mn10 2.058814 1_555
F5 Mn1 2.073502 1_555
F5 Mn8 2.193835 1_555
F6 Mn6 2.080682 1_555
F6 Mn0 2.193610 1_655
F6 Mn10 2.243292 1_555
F7 Mn4 2.041638 1_555
F7 Mn11 2.107804 1_555
F7 Mn6 2.152104 1_555
F8 Mn11 2.186668 1_555
F8 Mn3 2.193716 1_555
F8 Mn7 2.204267 1_555
F9 Mn9 2.037844 1_554
F9 Mn5 2.080015 1_555
F9 Mn7 2.166333 1_555
F10 Mn9 2.029168 1_555
F10 Mn1 2.128338 1_455
F10 Mn8 2.217871 1_555
F11 Mn10 2.074537 1_555
F11 Mn4 2.188489 1_455
F11 Mn6 2.301875 1_555
F12 Mn5 2.084424 1_455
F12 Mn11 2.108977 1_555
F12 Mn7 2.178211 1_555
F13 Mn2 2.042316 1_555
F13 Mn8 2.075705 1_555
F13 Mn1 2.146856 1_445
F14 Mn4 2.101242 1_445
F14 Mn6 2.114062 1_555
F14 Mn0 2.129799 1_555
F15 Mn10 2.123958 1_555
F15 Mn0 2.221669 1_565
F15 Mn1 2.236040 1_455
F16 Mn5 2.155880 1_456
F16 Mn9 2.162652 1_555
F16 Mn2 2.205126 1_565
F17 Mn3 2.095060 1_455
F17 Mn7 2.111966 1_555
F17 Mn5 2.157168 1_445
F18 Mn11 2.087017 1_555
F18 Mn4 2.119874 1_455
F18 Mn3 2.234526 1_465
