# generated using pymatgen
data_Li3Mn4(BO3)4
_symmetry_space_group_name_H-M   'P 1'
_cell_length_a   5.29649500
_cell_length_b   10.32782969
_cell_length_c   13.95326477
_cell_angle_alpha   91.04399326
_cell_angle_beta   100.25190949
_cell_angle_gamma   91.58883963
_symmetry_Int_Tables_number   1
_chemical_formula_structural   Li3Mn4(BO3)4
_chemical_formula_sum   'Li9 Mn12 B12 O36'
_cell_volume   750.57924615
_cell_formula_units_Z   3
loop_
 _symmetry_equiv_pos_site_id
 _symmetry_equiv_pos_as_xyz
  1  'x, y, z'
loop_
 _atom_site_type_symbol
 _atom_site_label
 _atom_site_symmetry_multiplicity
 _atom_site_fract_x
 _atom_site_fract_y
 _atom_site_fract_z
 _atom_site_occupancy
  Li  Li0  1  0.78399800  0.16738700  0.38119000  1
  Li  Li1  1  0.75541600  0.65749100  0.38933200  1
  Li  Li2  1  0.89746900  0.90450300  0.94599600  1
  Li  Li3  1  0.55519400  0.39683200  0.27843100  1
  Li  Li4  1  0.46126100  0.17595800  0.71511900  1
  Li  Li5  1  0.13426300  0.15998000  0.04885700  1
  Li  Li6  1  0.40854200  0.65496700  0.72340700  1
  Li  Li7  1  0.08043900  0.67265300  0.05836600  1
  Li  Li8  1  0.22321400  0.89589000  0.61145600  1
  Mn  Mn0  1  0.00195100  0.38663600  0.15096200  1
  Mn  Mn1  1  0.90294700  0.13152000  0.60848600  1
  Mn  Mn2  1  0.97555700  0.62419900  0.83622700  1
  Mn  Mn3  1  0.65575200  0.63290500  0.16830900  1
  Mn  Mn4  1  0.65576400  0.37892000  0.50879400  1
  Mn  Mn5  1  0.77741400  0.88152100  0.72824300  1
  Mn  Mn6  1  0.45124800  0.88419300  0.06141500  1
  Mn  Mn7  1  0.57689300  0.13361700  0.94060100  1
  Mn  Mn8  1  0.20758000  0.13164300  0.26897300  1
  Mn  Mn9  1  0.30724600  0.62526600  0.49881400  1
  Mn  Mn10  1  0.33868500  0.38271800  0.84574300  1
  Mn  Mn11  1  0.11823600  0.87682100  0.38711000  1
  B  B0  1  0.98516000  0.88570400  0.16565000  1
  B  B1  1  0.66377600  0.13237500  0.16504100  1
  B  B2  1  0.86990900  0.62340500  0.61596500  1
  B  B3  1  0.79373600  0.37514500  0.71991200  1
  B  B4  1  0.46101400  0.37211500  0.05182500  1
  B  B5  1  0.67160100  0.86812500  0.50646200  1
  B  B6  1  0.33972200  0.13157300  0.49817600  1
  B  B7  1  0.21963100  0.61911300  0.27734400  1
  B  B8  1  0.54100800  0.63011600  0.95054500  1
  B  B9  1  0.11229100  0.36957500  0.38003800  1
  B  B10  1  0.32714800  0.87254500  0.83585500  1
  B  B11  1  0.01314500  0.13014700  0.83531600  1
  O  O0  1  0.91888200  0.16309500  0.15546100  1
  O  O1  1  0.85670100  0.36297600  0.38538800  1
  O  O2  1  0.74504100  0.83779300  0.17410700  1
  O  O3  1  0.98447000  0.42719400  0.79318100  1
  O  O4  1  0.87269000  0.33706400  0.63223900  1
  O  O5  1  0.61616800  0.42001100  0.13734900  1
  O  O6  1  0.77004000  0.83920400  0.42583100  1
  O  O7  1  0.83081200  0.92613500  0.58844200  1
  O  O8  1  0.95458600  0.10286600  0.92478100  1
  O  O9  1  0.58412400  0.14522400  0.25262100  1
  O  O10  1  0.83666800  0.09823000  0.75139000  1
  O  O11  1  0.49460700  0.09216000  0.08087500  1
  O  O12  1  0.70316300  0.57019300  0.53127700  1
  O  O13  1  0.75932500  0.66222500  0.69479700  1
  O  O14  1  0.42700500  0.66892400  0.02859500  1
  O  O15  1  0.58514100  0.18347400  0.48880100  1
  O  O16  1  0.47827300  0.59680600  0.28762100  1
  O  O17  1  0.79777900  0.64307200  0.95374600  1
  O  O18  1  0.54762000  0.36078400  0.73248100  1
  O  O19  1  0.20662900  0.34714200  0.04658900  1
  O  O20  1  0.41320900  0.83731400  0.51027800  1
  O  O21  1  0.57417000  0.34486500  0.96970800  1
  O  O22  1  0.29513600  0.42132200  0.45509200  1
  O  O23  1  0.20311000  0.32517900  0.29520000  1
  O  O24  1  0.50124100  0.92067200  0.91642500  1
  O  O25  1  0.07424800  0.87197500  0.07947300  1
  O  O26  1  0.39927900  0.85911000  0.74623100  1
  O  O27  1  0.28203700  0.11097600  0.58847500  1
  O  O28  1  0.14008300  0.94461000  0.24873000  1
  O  O29  1  0.16229400  0.09898700  0.41348200  1
  O  O30  1  0.37935400  0.57886100  0.86483200  1
  O  O31  1  0.05736300  0.59182700  0.18761800  1
  O  O32  1  0.11186200  0.66542700  0.35483600  1
  O  O33  1  0.25739200  0.18505300  0.82733700  1
  O  O34  1  0.12446500  0.63941200  0.61576900  1
  O  O35  1  0.07635100  0.83526100  0.84531700  1
loop_
_geom_bond_atom_site_label_1
_geom_bond_atom_site_label_2
_geom_bond_distance
_geom_bond_site_symmetry_2
Li0 O9 1.920149 1_555
Li0 O15 1.988730 1_555
Li0 O1 2.043692 1_555
Li0 O29 2.117871 1_655
Li1 O6 1.931435 1_555
Li1 O16 1.933047 1_555
Li1 O32 2.029516 1_655
Li1 O12 2.249130 1_555
Li2 O35 1.963987 1_655
Li2 O25 1.969198 1_656
Li2 O24 2.077513 1_555
Li2 O8 2.096606 1_565
Li3 O1 2.025181 1_555
Li3 O23 2.040832 1_555
Li3 O5 2.067846 1_555
Li3 O16 2.122142 1_555
Li4 O27 1.948974 1_555
Li4 O18 1.951129 1_555
Li4 O33 2.056360 1_555
Li4 O10 2.144572 1_555
Li5 O8 1.896331 1_454
Li5 O19 1.962084 1_555
Li5 O11 2.028504 1_555
Li5 O0 2.029593 1_455
Li6 O34 1.928420 1_555
Li6 O13 1.968305 1_555
Li6 O26 2.129746 1_555
Li6 O30 2.166600 1_555
Li7 O17 1.909481 1_454
Li7 O14 1.954014 1_555
Li7 O31 2.022866 1_555
Li7 O25 2.076195 1_555
Li8 O20 1.969781 1_555
Li8 O26 1.992944 1_555
Li8 O7 2.079025 1_455
Li8 O27 2.271017 1_565
Mn0 O19 2.006833 1_555
Mn0 O5 2.057486 1_455
Mn0 O31 2.170537 1_555
Mn0 O23 2.215701 1_555
Mn0 O0 2.342300 1_455
Mn1 O27 2.091760 1_655
Mn1 O10 2.117743 1_555
Mn1 O7 2.149188 1_545
Mn1 O4 2.157323 1_555
Mn1 O15 2.234345 1_555
Mn2 O17 2.039997 1_555
Mn2 O3 2.115091 1_555
Mn2 O13 2.146841 1_555
Mn2 O30 2.170513 1_655
Mn2 O35 2.225750 1_655
Mn3 O16 2.086717 1_555
Mn3 O14 2.148807 1_555
Mn3 O31 2.151156 1_655
Mn3 O2 2.152326 1_555
Mn3 O5 2.229930 1_555
Mn4 O4 1.955520 1_555
Mn4 O22 1.987583 1_555
Mn4 O12 1.996413 1_555
Mn4 O15 2.047604 1_555
Mn4 O1 2.185511 1_555
Mn5 O26 2.069560 1_555
Mn5 O7 2.078305 1_555
Mn5 O35 2.133875 1_655
Mn5 O10 2.260681 1_565
Mn5 O13 2.300013 1_555
Mn6 O25 2.057379 1_555
Mn6 O2 2.078793 1_555
Mn6 O24 2.125522 1_554
Mn6 O11 2.160768 1_565
Mn6 O14 2.257262 1_555
Mn7 O8 2.083566 1_555
Mn7 O11 2.127920 1_556
Mn7 O33 2.184493 1_555
Mn7 O21 2.212839 1_555
Mn7 O24 2.233176 1_545
Mn8 O28 1.960795 1_545
Mn8 O23 2.027009 1_555
Mn8 O0 2.033831 1_455
Mn8 O9 2.048620 1_555
Mn8 O29 2.104634 1_555
Mn9 O34 2.045281 1_555
Mn9 O32 2.143137 1_555
Mn9 O12 2.159494 1_555
Mn9 O22 2.178197 1_555
Mn9 O20 2.241377 1_555
Mn10 O3 1.959316 1_455
Mn10 O21 1.996028 1_555
Mn10 O30 2.038786 1_555
Mn10 O33 2.076453 1_555
Mn10 O18 2.096876 1_555
Mn11 O6 2.041218 1_455
Mn11 O28 2.087112 1_555
Mn11 O20 2.160110 1_555
Mn11 O32 2.219268 1_555
Mn11 O29 2.315930 1_565
B0 O25 1.374080 1_655
B0 O2 1.377267 1_555
B0 O28 1.412543 1_655
B1 O9 1.367349 1_555
B1 O11 1.393396 1_555
B1 O0 1.409342 1_555
B2 O34 1.354288 1_655
B2 O13 1.392836 1_555
B2 O12 1.433982 1_555
B3 O18 1.350410 1_555
B3 O3 1.391736 1_555
B3 O4 1.414129 1_555
B4 O19 1.353592 1_555
B4 O5 1.396760 1_555
B4 O21 1.411843 1_554
B5 O6 1.353520 1_555
B5 O20 1.406943 1_555
B5 O7 1.407896 1_555
B6 O27 1.367224 1_555
B6 O29 1.401999 1_555
B6 O15 1.420744 1_555
B7 O16 1.378055 1_555
B7 O32 1.392739 1_555
B7 O31 1.405776 1_555
B8 O17 1.355556 1_555
B8 O14 1.393864 1_556
B8 O30 1.425116 1_555
B9 O1 1.368885 1_455
B9 O22 1.382071 1_555
B9 O23 1.427606 1_555
B10 O26 1.376864 1_555
B10 O24 1.395129 1_555
B10 O35 1.402183 1_555
B11 O8 1.371020 1_455
B11 O10 1.390290 1_455
B11 O33 1.421400 1_555
