# generated using pymatgen
data_Li4Fe2Cu3Te3O16
_symmetry_space_group_name_H-M   'P 1'
_cell_length_a   6.28014786
_cell_length_b   6.11330002
_cell_length_c   9.70003023
_cell_angle_alpha   89.38413724
_cell_angle_beta   87.81844308
_cell_angle_gamma   118.81438113
_symmetry_Int_Tables_number   1
_chemical_formula_structural   Li4Fe2Cu3Te3O16
_chemical_formula_sum   'Li4 Fe2 Cu3 Te3 O16'
_cell_volume   325.88174481
_cell_formula_units_Z   1
loop_
 _symmetry_equiv_pos_site_id
 _symmetry_equiv_pos_as_xyz
  1  'x, y, z'
loop_
 _atom_site_type_symbol
 _atom_site_label
 _atom_site_symmetry_multiplicity
 _atom_site_fract_x
 _atom_site_fract_y
 _atom_site_fract_z
 _atom_site_occupancy
  Li  Li0  1  0.34745800  0.68388700  0.90419600  1
  Li  Li1  1  0.00553400  0.99349400  0.01018600  1
  Li  Li2  1  0.05093400  0.02414200  0.48010800  1
  Li  Li3  1  0.69131300  0.34712000  0.38213100  1
  Fe  Fe0  1  0.29877400  0.63225700  0.47386800  1
  Fe  Fe1  1  0.62041600  0.31637100  0.00688300  1
  Cu  Cu0  1  0.16216900  0.82878300  0.21197500  1
  Cu  Cu1  1  0.16169200  0.33420500  0.20949900  1
  Cu  Cu2  1  0.33887700  0.18276000  0.71156500  1
  Te  Te0  1  0.64742500  0.82531900  0.21811500  1
  Te  Te1  1  0.83983800  0.66396300  0.71652600  1
  Te  Te2  1  0.82369200  0.16184100  0.71904700  1
  O  O0  1  0.14764600  0.82239200  0.60266100  1
  O  O1  1  0.05084000  0.52154900  0.33794700  1
  O  O2  1  0.34185800  0.67543900  0.11539100  1
  O  O3  1  0.97561900  0.98697200  0.29537600  1
  O  O4  1  0.97860200  0.96176400  0.82536400  1
  O  O5  1  0.19450800  0.33198300  0.58731600  1
  O  O6  1  0.51610400  0.96733800  0.35570900  1
  O  O7  1  0.51643400  0.54139400  0.34778300  1
  O  O8  1  0.31024700  0.15934000  0.09663600  1
  O  O9  1  0.70478300  0.83047600  0.60150900  1
  O  O10  1  0.53621300  0.49971900  0.83199500  1
  O  O11  1  0.51197400  0.04689800  0.83713000  1
  O  O12  1  0.70694300  0.37617900  0.59602100  1
  O  O13  1  0.77744200  0.65714200  0.09486500  1
  O  O14  1  0.96365600  0.50439100  0.84647200  1
  O  O15  1  0.77900900  0.12318200  0.09156500  1
loop_
_geom_bond_atom_site_label_1
_geom_bond_atom_site_label_2
_geom_bond_distance
_geom_bond_site_symmetry_2
Li0 O11 2.030547 1_565
Li0 O2 2.047229 1_556
Li0 O10 2.098459 1_555
Li0 O14 2.212180 1_455
Li1 O4 1.810863 1_454
Li1 O8 1.913993 1_565
Li1 O13 1.997376 1_455
Li1 O15 2.071395 1_465
Li2 O3 1.859020 1_445
Li2 O5 1.978344 1_555
Li2 O0 2.012157 1_545
Li2 O9 2.192800 1_445
Li3 O7 2.001101 1_555
Li3 O1 2.003606 1_655
Li3 O6 2.058764 1_545
Li3 O12 2.086230 1_555
Fe0 O5 1.937130 1_555
Fe0 O1 1.944332 1_555
Fe0 O7 2.071741 1_555
Fe0 O6 2.123212 1_555
Fe0 O0 2.194761 1_555
Fe0 O9 2.607110 1_555
Fe1 O8 1.877298 1_555
Fe1 O13 2.040264 1_555
Fe1 O15 2.058358 1_555
Fe1 O11 2.225124 1_554
Fe1 O10 2.238878 1_554
Fe1 O14 2.388874 1_554
Cu0 O2 1.997020 1_555
Cu0 O3 1.999751 1_455
Cu0 O1 2.032098 1_555
Cu0 O8 2.064174 1_565
Cu0 O13 2.453555 1_455
Cu0 O6 2.459361 1_555
Cu1 O3 2.015496 1_445
Cu1 O2 2.017522 1_555
Cu1 O1 2.020380 1_555
Cu1 O8 2.029890 1_555
Cu1 O7 2.431204 1_555
Cu1 O15 2.449732 1_455
Cu2 O5 1.990881 1_555
Cu2 O11 2.074716 1_555
Cu2 O10 2.121119 1_555
Cu2 O4 2.234776 1_445
Cu2 O0 2.237821 1_545
Cu2 O12 2.266491 1_555
O0 Te1 1.975972 1_455
O2 Te0 1.996313 1_555
O3 Te0 1.989100 1_555
O4 Te1 1.941760 1_555
O4 Te2 2.168486 1_565
O5 Te2 2.355381 1_455
O6 Te0 1.961271 1_555
O7 Te0 1.941488 1_555
O9 Te1 1.969821 1_555
O9 Te2 2.148812 1_565
O10 Te1 1.966286 1_555
O11 Te2 2.030774 1_555
O12 Te1 1.964983 1_555
O12 Te2 2.153529 1_555
O13 Te0 1.978472 1_555
O14 Te1 1.981030 1_555
O14 Te2 2.247154 1_555
O15 Te0 1.982353 1_545
