# generated using pymatgen
data_LiP4WO13
_symmetry_space_group_name_H-M   'P 1'
_cell_length_a   5.24342200
_cell_length_b   8.09168130
_cell_length_c   14.02169608
_cell_angle_alpha   78.79997911
_cell_angle_beta   85.84363319
_cell_angle_gamma   80.10186515
_symmetry_Int_Tables_number   1
_chemical_formula_structural   LiP4WO13
_chemical_formula_sum   'Li2 P8 W2 O26'
_cell_volume   574.42659594
_cell_formula_units_Z   2
loop_
 _symmetry_equiv_pos_site_id
 _symmetry_equiv_pos_as_xyz
  1  'x, y, z'
loop_
 _atom_site_type_symbol
 _atom_site_label
 _atom_site_symmetry_multiplicity
 _atom_site_fract_x
 _atom_site_fract_y
 _atom_site_fract_z
 _atom_site_occupancy
  Li  Li0  1  0.55580100  0.46093800  0.99759500  1
  Li  Li1  1  0.01019200  0.60941900  0.51404200  1
  P  P0  1  0.12714200  0.79708500  0.12861100  1
  P  P1  1  0.99745300  0.87897000  0.65516900  1
  P  P2  1  0.34805500  0.58117400  0.31292600  1
  P  P3  1  0.30693600  0.65371200  0.80360900  1
  P  P4  1  0.67366200  0.34125400  0.20499200  1
  P  P5  1  0.63697400  0.42748500  0.67917700  1
  P  P6  1  0.98456900  0.10211100  0.35083700  1
  P  P7  1  0.86543800  0.20731400  0.85931400  1
  W  W0  1  0.43201500  0.04901000  0.75380700  1
  W  W1  1  0.55576500  0.94850600  0.24038700  1
  O  O0  1  0.16241300  0.01592000  0.66671600  1
  O  O1  1  0.17163100  0.63793700  0.22031900  1
  O  O2  1  0.27089000  0.01742500  0.32934900  1
  O  O3  1  0.19266300  0.55774400  0.40461500  1
  O  O4  1  0.16429000  0.73960500  0.03475400  1
  O  O5  1  0.05908600  0.79749000  0.56920500  1
  O  O6  1  0.03127600  0.73480500  0.75712300  1
  O  O7  1  0.15883300  0.12909200  0.84387100  1
  O  O8  1  0.29914600  0.92691200  0.14560300  1
  O  O9  1  0.30072100  0.51182200  0.88705700  1
  O  O10  1  0.54147300  0.19775200  0.18095600  1
  O  O11  1  0.50587800  0.40017200  0.29731800  1
  O  O12  1  0.45579200  0.29322500  0.68466300  1
  O  O13  1  0.55022800  0.70252400  0.30437200  1
  O  O14  1  0.46775200  0.59572200  0.70937500  1
  O  O15  1  0.43039600  0.80520800  0.82160400  1
  O  O16  1  0.69271100  0.48213200  0.12136800  1
  O  O17  1  0.70654700  0.07219500  0.84037900  1
  O  O18  1  0.84014100  0.88138600  0.15233000  1
  O  O19  1  0.94310500  0.25448400  0.25185800  1
  O  O20  1  0.93781900  0.16847600  0.44164500  1
  O  O21  1  0.80001900  0.26957000  0.95150500  1
  O  O22  1  0.77383500  0.47840700  0.58565200  1
  O  O23  1  0.70717600  0.96230400  0.66570900  1
  O  O24  1  0.83465500  0.36190900  0.76567600  1
  O  O25  1  0.81358100  0.96974600  0.33495800  1
loop_
_geom_bond_atom_site_label_1
_geom_bond_atom_site_label_2
_geom_bond_distance
_geom_bond_site_symmetry_2
Li0 O16 1.973649 1_556
Li0 O21 2.010554 1_555
Li0 O9 2.055228 1_555
Li1 O3 1.828491 1_555
Li1 O22 1.877694 1_455
Li1 O5 1.897378 1_555
O0 P1 1.556245 1_445
O0 W0 2.017098 1_555
O1 P2 1.596619 1_555
O1 P0 1.631944 1_555
O2 P6 1.573280 1_455
O2 W1 1.952423 1_545
O3 P2 1.469440 1_555
O4 P0 1.468227 1_555
O5 P1 1.473440 1_455
O6 P3 1.609026 1_555
O6 P1 1.659435 1_455
O7 P7 1.576185 1_455
O7 W0 1.950142 1_555
O8 P0 1.558162 1_555
O8 W1 2.009394 1_555
O9 P3 1.474387 1_555
O10 P4 1.550778 1_555
O10 W1 2.017872 1_545
O11 P2 1.599803 1_555
O11 P4 1.614818 1_555
O12 P5 1.549339 1_555
O12 W0 2.045345 1_555
O13 P2 1.547905 1_555
O13 W1 2.022344 1_555
O14 P5 1.604362 1_555
O14 P3 1.618771 1_555
O15 P3 1.549875 1_555
O15 W0 2.017832 1_565
O16 P4 1.478931 1_555
O17 P7 1.554987 1_555
O17 W0 2.003857 1_555
O18 P0 1.582155 1_655
O18 W1 1.938575 1_555
O19 P4 1.592209 1_555
O19 P6 1.667462 1_555
O20 P6 1.464524 1_555
O21 P7 1.473677 1_555
O22 P5 1.469628 1_555
O23 P1 1.564103 1_555
O23 W0 1.957067 1_565
O24 P5 1.603159 1_555
O24 P7 1.624202 1_555
O25 P6 1.565971 1_565
O25 W1 2.010886 1_555
