# generated using pymatgen
data_Li4CrTe(WO6)2
_symmetry_space_group_name_H-M   'P 1'
_cell_length_a   5.19441700
_cell_length_b   5.46808313
_cell_length_c   7.54905927
_cell_angle_alpha   85.80796442
_cell_angle_beta   89.91940399
_cell_angle_gamma   89.87444986
_symmetry_Int_Tables_number   1
_chemical_formula_structural   Li4CrTe(WO6)2
_chemical_formula_sum   'Li4 Cr1 Te1 W2 O12'
_cell_volume   213.84540618
_cell_formula_units_Z   1
loop_
 _symmetry_equiv_pos_site_id
 _symmetry_equiv_pos_as_xyz
  1  'x, y, z'
loop_
 _atom_site_type_symbol
 _atom_site_label
 _atom_site_symmetry_multiplicity
 _atom_site_fract_x
 _atom_site_fract_y
 _atom_site_fract_z
 _atom_site_occupancy
  Li  Li0  1  0.99803800  0.58993800  0.26684300  1
  Li  Li1  1  0.50349100  0.06371100  0.81074100  1
  Li  Li2  1  0.00607700  0.56084900  0.79972800  1
  Li  Li3  1  0.49144200  0.02088900  0.24112700  1
  Cr  Cr0  1  0.99847900  0.00174400  0.99832400  1
  Te  Te0  1  0.50258700  0.50684900  0.50497300  1
  W  W0  1  0.00453700  0.00740900  0.50132800  1
  W  W1  1  0.49735400  0.49929100  0.00309800  1
  O  O0  1  0.68871800  0.81460900  0.42605300  1
  O  O1  1  0.88069300  0.99537600  0.73775400  1
  O  O2  1  0.68463000  0.19431400  0.04805400  1
  O  O3  1  0.82912100  0.31277000  0.42962900  1
  O  O4  1  0.20932900  0.30228300  0.93534200  1
  O  O5  1  0.63421300  0.49203500  0.75073300  1
  O  O6  1  0.36879600  0.48601000  0.24788300  1
  O  O7  1  0.79813500  0.68647000  0.05045600  1
  O  O8  1  0.16852900  0.67519600  0.56015600  1
  O  O9  1  0.30324700  0.79079400  0.93820100  1
  O  O10  1  0.11166700  0.97829500  0.25770300  1
  O  O11  1  0.32091300  0.16356800  0.56307700  1
loop_
_geom_bond_atom_site_label_1
_geom_bond_atom_site_label_2
_geom_bond_distance
_geom_bond_site_symmetry_2
Li0 O7 1.975233 1_555
Li0 O6 2.014631 1_655
Li0 O3 2.075453 1_555
Li0 O10 2.201508 1_655
Li0 O0 2.395241 1_555
Li0 O8 2.462259 1_655
Li1 O9 2.007202 1_545
Li1 O1 2.075112 1_545
Li1 O11 2.132268 1_555
Li1 O2 2.190774 1_556
Li1 O4 2.255653 1_555
Li1 O5 2.450053 1_555
Li2 O4 1.986612 1_555
Li2 O5 2.008749 1_455
Li2 O8 2.050986 1_555
Li2 O9 2.293833 1_555
Li2 O7 2.324254 1_456
Li2 O1 2.473892 1_455
Li3 O2 1.956690 1_555
Li3 O10 1.989610 1_545
Li3 O0 2.009969 1_545
Cr0 O2 1.988976 1_556
Cr0 O4 2.004614 1_655
Cr0 O9 2.027126 1_645
Cr0 O7 2.029133 1_546
Cr0 O10 2.040184 1_646
Cr0 O1 2.063579 1_545
O0 Te0 1.995161 1_555
O0 W0 2.055082 1_665
O1 W0 1.892997 1_665
O2 W1 1.937419 1_555
O3 W0 1.942637 1_655
O3 Te0 2.098647 1_555
O4 W1 1.936559 1_556
O5 Te0 1.974175 1_555
O5 W1 2.035571 1_556
O6 W1 1.960370 1_555
O6 Te0 2.073425 1_555
O7 W1 1.917941 1_555
O8 Te0 2.019653 1_555
O8 W0 2.024628 1_565
O9 W1 1.917687 1_556
O10 W0 1.938294 1_565
O11 W0 1.927082 1_555
O11 Te0 2.119584 1_555
