# generated using pymatgen
data_Hf3SnO8
_symmetry_space_group_name_H-M   'P 1'
_cell_length_a   5.77872000
_cell_length_b   4.90778800
_cell_length_c   5.25148408
_cell_angle_alpha   89.62733092
_cell_angle_beta   90.00000000
_cell_angle_gamma   90.00000000
_symmetry_Int_Tables_number   1
_chemical_formula_structural   Hf3SnO8
_chemical_formula_sum   'Hf3 Sn1 O8'
_cell_volume   148.93278581
_cell_formula_units_Z   1
loop_
 _symmetry_equiv_pos_site_id
 _symmetry_equiv_pos_as_xyz
  1  'x, y, z'
loop_
 _atom_site_type_symbol
 _atom_site_label
 _atom_site_symmetry_multiplicity
 _atom_site_fract_x
 _atom_site_fract_y
 _atom_site_fract_z
 _atom_site_occupancy
  Hf  Hf0  1  0.18025400  0.00000000  0.50000000  1
  Hf  Hf1  1  0.67816500  0.50000000  0.50000000  1
  Hf  Hf2  1  0.32481900  0.50000000  0.00000000  1
  Sn  Sn0  1  0.82877800  0.00000000  0.00000000  1
  O  O0  1  0.89115200  0.77439600  0.67132700  1
  O  O1  1  0.10656900  0.77325100  0.17479800  1
  O  O2  1  0.39138900  0.72141400  0.67050100  1
  O  O3  1  0.60488100  0.72800300  0.17130800  1
  O  O4  1  0.60488100  0.27199700  0.82869200  1
  O  O5  1  0.39138900  0.27858600  0.32949900  1
  O  O6  1  0.89115200  0.22560400  0.32867300  1
  O  O7  1  0.10656900  0.22674900  0.82520200  1
loop_
_geom_bond_atom_site_label_1
_geom_bond_atom_site_label_2
_geom_bond_distance
_geom_bond_site_symmetry_2
Hf0 O5 2.035621 1_555
Hf0 O2 2.035621 1_545
Hf0 O7 2.088299 1_555
Hf0 O1 2.088299 1_545
Hf0 O6 2.193970 1_455
Hf0 O0 2.193970 1_445
Hf1 O0 2.038050 1_555
Hf1 O6 2.038050 1_555
Hf1 O3 2.094242 1_555
Hf1 O4 2.094242 1_555
Hf1 O5 2.177496 1_555
Hf1 O2 2.177496 1_555
Hf2 O1 2.061000 1_555
Hf2 O7 2.061000 1_554
Hf2 O5 2.073278 1_555
Hf2 O2 2.073278 1_554
Hf2 O4 2.166511 1_554
Hf2 O3 2.166511 1_555
O0 Sn0 2.088027 1_566
O1 Sn0 2.155147 1_465
O3 Sn0 2.061475 1_565
O4 Sn0 2.061475 1_556
O6 Sn0 2.088027 1_555
O7 Sn0 2.155147 1_456
