# generated using pymatgen
data_Na3(PO3)4
_symmetry_space_group_name_H-M   'P 1'
_cell_length_a   10.09338400
_cell_length_b   8.84461000
_cell_length_c   14.53217170
_cell_angle_alpha   52.48451104
_cell_angle_beta   90.00000000
_cell_angle_gamma   90.00000000
_symmetry_Int_Tables_number   1
_chemical_formula_structural   Na3(PO3)4
_chemical_formula_sum   'Na12 P16 O48'
_cell_volume   1029.01699176
_cell_formula_units_Z   4
loop_
 _symmetry_equiv_pos_site_id
 _symmetry_equiv_pos_as_xyz
  1  'x, y, z'
loop_
 _atom_site_type_symbol
 _atom_site_label
 _atom_site_symmetry_multiplicity
 _atom_site_fract_x
 _atom_site_fract_y
 _atom_site_fract_z
 _atom_site_occupancy
  Na  Na0  1  0.46752300  0.18467700  0.25258200  1
  Na  Na1  1  0.03247700  0.18467700  0.75258200  1
  Na  Na2  1  0.53247700  0.81532300  0.74741800  1
  Na  Na3  1  0.96752300  0.81532300  0.24741800  1
  Na  Na4  1  0.51357200  0.73271600  0.32103600  1
  Na  Na5  1  0.98642800  0.73271600  0.82103600  1
  Na  Na6  1  0.48642800  0.26728400  0.67896400  1
  Na  Na7  1  0.01357200  0.26728400  0.17896400  1
  Na  Na8  1  0.48272600  0.23653000  0.46031900  1
  Na  Na9  1  0.01727400  0.23653000  0.96031900  1
  Na  Na10  1  0.51727400  0.76347000  0.53968100  1
  Na  Na11  1  0.98272600  0.76347000  0.03968100  1
  P  P0  1  0.22043600  0.45669300  0.47850300  1
  P  P1  1  0.27956400  0.45669300  0.97850300  1
  P  P2  1  0.77956400  0.54330700  0.52149700  1
  P  P3  1  0.72043600  0.54330700  0.02149700  1
  P  P4  1  0.22072900  0.46962800  0.26990000  1
  P  P5  1  0.27927100  0.46962800  0.76990000  1
  P  P6  1  0.77927100  0.53037200  0.73010000  1
  P  P7  1  0.72072900  0.53037200  0.23010000  1
  P  P8  1  0.77786700  0.11953300  0.40913300  1
  P  P9  1  0.72213300  0.11953300  0.90913300  1
  P  P10  1  0.22213300  0.88046700  0.59086700  1
  P  P11  1  0.27786700  0.88046700  0.09086700  1
  P  P12  1  0.21755500  0.86316700  0.39101700  1
  P  P13  1  0.28244500  0.86316700  0.89101700  1
  P  P14  1  0.78244500  0.13683300  0.60898300  1
  P  P15  1  0.71755500  0.13683300  0.10898300  1
  O  O0  1  0.15591600  0.49783400  0.36236200  1
  O  O1  1  0.34408400  0.49783400  0.86236200  1
  O  O2  1  0.84408400  0.50216600  0.63763800  1
  O  O3  1  0.65591600  0.50216600  0.13763800  1
  O  O4  1  0.36859300  0.44464000  0.47649800  1
  O  O5  1  0.13140700  0.44464000  0.97649800  1
  O  O6  1  0.63140700  0.55536000  0.52350200  1
  O  O7  1  0.86859300  0.55536000  0.02350200  1
  O  O8  1  0.85559200  0.70383600  0.41618300  1
  O  O9  1  0.64440800  0.70383600  0.91618300  1
  O  O10  1  0.14440800  0.29616400  0.58381700  1
  O  O11  1  0.35559200  0.29616400  0.08381700  1
  O  O12  1  0.81406500  0.33939100  0.30827900  1
  O  O13  1  0.68593500  0.33939100  0.80827900  1
  O  O14  1  0.18593500  0.66060900  0.69172100  1
  O  O15  1  0.31406500  0.66060900  0.19172100  1
  O  O16  1  0.60853700  0.51159700  0.30350900  1
  O  O17  1  0.89146300  0.51159700  0.80350900  1
  O  O18  1  0.39146300  0.48840300  0.69649100  1
  O  O19  1  0.10853700  0.48840300  0.19649100  1
  O  O20  1  0.31443200  0.30506800  0.32805300  1
  O  O21  1  0.18556800  0.30506800  0.82805300  1
  O  O22  1  0.68556800  0.69493200  0.67194700  1
  O  O23  1  0.81443200  0.69493200  0.17194700  1
  O  O24  1  0.16785800  0.90809200  0.47798500  1
  O  O25  1  0.33214200  0.90809200  0.97798500  1
  O  O26  1  0.83214200  0.09190800  0.52201500  1
  O  O27  1  0.66785800  0.09190800  0.02201500  1
  O  O28  1  0.87498000  0.01466700  0.38499600  1
  O  O29  1  0.62502000  0.01466700  0.88499600  1
  O  O30  1  0.12502000  0.98533300  0.61500400  1
  O  O31  1  0.37498000  0.98533300  0.11500400  1
  O  O32  1  0.63239300  0.07861400  0.41512100  1
  O  O33  1  0.86760700  0.07861400  0.91512100  1
  O  O34  1  0.36760700  0.92138600  0.58487900  1
  O  O35  1  0.13239300  0.92138600  0.08487900  1
  O  O36  1  0.17162000  0.63941300  0.46701800  1
  O  O37  1  0.32838000  0.63941300  0.96701800  1
  O  O38  1  0.82838000  0.36058700  0.53298200  1
  O  O39  1  0.67162000  0.36058700  0.03298200  1
  O  O40  1  0.36644300  0.87457000  0.38209800  1
  O  O41  1  0.13355700  0.87457000  0.88209800  1
  O  O42  1  0.63355700  0.12543000  0.61790200  1
  O  O43  1  0.86644300  0.12543000  0.11790200  1
  O  O44  1  0.13207600  0.97311100  0.28567200  1
  O  O45  1  0.36792400  0.97311100  0.78567200  1
  O  O46  1  0.86792400  0.02688900  0.71432800  1
  O  O47  1  0.63207600  0.02688900  0.21432800  1
loop_
_geom_bond_atom_site_label_1
_geom_bond_atom_site_label_2
_geom_bond_distance
_geom_bond_site_symmetry_2
Na0 O11 2.306107 1_555
Na0 O40 2.412207 1_545
Na0 O47 2.441342 1_555
Na0 O20 2.479261 1_555
Na0 O32 2.555335 1_555
Na0 O3 2.928881 1_555
Na1 O10 2.306107 1_555
Na1 O41 2.412207 1_545
Na1 O46 2.441342 1_455
Na1 O21 2.479261 1_555
Na1 O33 2.555335 1_455
Na1 O2 2.928881 1_455
Na2 O9 2.306107 1_555
Na2 O42 2.412207 1_565
Na2 O45 2.441342 1_555
Na2 O22 2.479261 1_555
Na2 O34 2.555335 1_555
Na2 O1 2.928881 1_555
Na3 O8 2.306107 1_555
Na3 O43 2.412207 1_565
Na3 O44 2.441342 1_655
Na3 O23 2.479261 1_555
Na3 O35 2.555335 1_655
Na3 O0 2.928881 1_655
Na4 O16 2.327045 1_555
Na4 O47 2.385559 1_565
Na4 O40 2.433687 1_555
Na4 O4 2.593524 1_555
Na4 O6 2.628851 1_555
Na4 O31 2.786713 1_555
Na5 O17 2.327045 1_555
Na5 O46 2.385559 1_565
Na5 O41 2.433687 1_655
Na5 O5 2.593524 1_655
Na5 O7 2.628851 1_556
Na5 O30 2.786713 1_655
Na6 O18 2.327045 1_555
Na6 O45 2.385559 1_545
Na6 O42 2.433687 1_555
Na6 O6 2.593524 1_555
Na6 O4 2.628851 1_555
Na6 O29 2.786713 1_555
Na7 O19 2.327045 1_555
Na7 O44 2.385559 1_545
Na7 O43 2.433687 1_455
Na7 O7 2.593524 1_455
Na7 O5 2.628851 1_554
Na7 O28 2.786713 1_455
Na8 O4 2.301618 1_555
Na8 O20 2.351233 1_555
Na8 O32 2.404495 1_555
Na8 O42 2.405568 1_555
Na8 O16 2.443755 1_555
Na8 O34 2.500156 1_545
Na9 O5 2.301618 1_555
Na9 O21 2.351233 1_555
Na9 O33 2.404495 1_455
Na9 O43 2.405568 1_456
Na9 O17 2.443755 1_455
Na9 O35 2.500156 1_546
Na10 O6 2.301618 1_555
Na10 O22 2.351233 1_555
Na10 O34 2.404495 1_555
Na10 O40 2.405568 1_555
Na10 O18 2.443755 1_555
Na10 O32 2.500156 1_565
Na11 O7 2.301618 1_555
Na11 O23 2.351233 1_555
Na11 O35 2.404495 1_655
Na11 O41 2.405568 1_654
Na11 O19 2.443755 1_655
Na11 O33 2.500156 1_564
O0 P0 1.630064 1_555
O0 P4 1.644359 1_555
O1 P1 1.630064 1_555
O1 P5 1.644359 1_555
O2 P2 1.630064 1_555
O2 P6 1.644359 1_555
O3 P3 1.630064 1_555
O3 P7 1.644359 1_555
O4 P0 1.500745 1_555
O5 P1 1.500745 1_555
O6 P2 1.500745 1_555
O7 P3 1.500745 1_555
O8 P2 1.516726 1_555
O9 P3 1.516726 1_556
O10 P0 1.516726 1_555
O11 P1 1.516726 1_554
O12 P8 1.609875 1_555
O12 P7 1.641391 1_555
O13 P9 1.609875 1_555
O13 P6 1.641391 1_555
O14 P10 1.609875 1_555
O14 P5 1.641391 1_555
O15 P11 1.609875 1_555
O15 P4 1.641391 1_555
O16 P7 1.494050 1_555
O17 P6 1.494050 1_555
O18 P5 1.494050 1_555
O19 P4 1.494050 1_555
O20 P4 1.492978 1_555
O21 P5 1.492978 1_555
O22 P6 1.492978 1_555
O23 P7 1.492978 1_555
O24 P10 1.600818 1_555
O24 P12 1.618147 1_555
O25 P11 1.600818 1_556
O25 P13 1.618147 1_555
O26 P8 1.600818 1_555
O26 P14 1.618147 1_555
O27 P9 1.600818 1_554
O27 P15 1.618147 1_555
O28 P8 1.529810 1_555
O29 P9 1.529810 1_555
O30 P10 1.529810 1_555
O31 P11 1.529810 1_555
O32 P8 1.502057 1_555
O33 P9 1.502057 1_555
O34 P10 1.502057 1_555
O35 P11 1.502057 1_555
O36 P0 1.598077 1_555
O36 P12 1.639869 1_555
O37 P1 1.598077 1_555
O37 P13 1.639869 1_555
O38 P2 1.598077 1_555
O38 P14 1.639869 1_555
O39 P3 1.598077 1_555
O39 P15 1.639869 1_555
O40 P12 1.506456 1_555
O41 P13 1.506456 1_555
O42 P14 1.506456 1_555
O43 P15 1.506456 1_555
O44 P12 1.490127 1_555
O45 P13 1.490127 1_555
O46 P14 1.490127 1_555
O47 P15 1.490127 1_555
