# generated using pymatgen
data_Li5Mn6O12
_symmetry_space_group_name_H-M   'P 1'
_cell_length_a   6.14229700
_cell_length_b   6.55207184
_cell_length_c   6.55719327
_cell_angle_alpha   97.80141742
_cell_angle_beta   103.26067132
_cell_angle_gamma   112.38363344
_symmetry_Int_Tables_number   1
_chemical_formula_structural   Li5Mn6O12
_chemical_formula_sum   'Li5 Mn6 O12'
_cell_volume   230.09139216
_cell_formula_units_Z   1
loop_
 _symmetry_equiv_pos_site_id
 _symmetry_equiv_pos_as_xyz
  1  'x, y, z'
loop_
 _atom_site_type_symbol
 _atom_site_label
 _atom_site_symmetry_multiplicity
 _atom_site_fract_x
 _atom_site_fract_y
 _atom_site_fract_z
 _atom_site_occupancy
  Li  Li0  1  0.99704200  0.33007000  0.83146400  1
  Li  Li1  1  0.00295800  0.66993000  0.16853600  1
  Li  Li2  1  0.50125400  0.32552100  0.82609700  1
  Li  Li3  1  0.49874600  0.67447900  0.17390300  1
  Li  Li4  1  0.00000000  0.00000000  0.50000000  1
  Mn  Mn0  1  0.74732600  0.83304800  0.83356900  1
  Mn  Mn1  1  0.25112200  0.83817100  0.82753700  1
  Mn  Mn2  1  0.74757400  0.49280200  0.50315100  1
  Mn  Mn3  1  0.25242600  0.50719800  0.49684900  1
  Mn  Mn4  1  0.74887800  0.16182900  0.17246300  1
  Mn  Mn5  1  0.25267400  0.16695200  0.16643100  1
  O  O0  1  0.84935600  0.58189500  0.81723100  1
  O  O1  1  0.35470200  0.58942900  0.81156400  1
  O  O2  1  0.10257400  0.72644100  0.51190800  1
  O  O3  1  0.89742600  0.27355900  0.48809200  1
  O  O4  1  0.62404200  0.72652700  0.51552600  1
  O  O5  1  0.37595800  0.27347300  0.48447400  1
  O  O6  1  0.15064400  0.41810500  0.18276900  1
  O  O7  1  0.64529800  0.41057100  0.18843600  1
  O  O8  1  0.85856500  0.91757800  0.15392500  1
  O  O9  1  0.35203800  0.91860100  0.13960100  1
  O  O10  1  0.14143500  0.08242200  0.84607500  1
  O  O11  1  0.64796200  0.08139900  0.86039900  1
loop_
_geom_bond_atom_site_label_1
_geom_bond_atom_site_label_2
_geom_bond_distance
_geom_bond_site_symmetry_2
Li0 O10 2.127884 1_655
Li0 O3 2.133095 1_555
Li0 O0 2.167238 1_555
Li0 O6 2.181067 1_656
Li0 O11 2.213123 1_555
Li0 O1 2.253754 1_655
Li1 O8 2.127884 1_455
Li1 O2 2.133095 1_555
Li1 O6 2.167238 1_555
Li1 O0 2.181067 1_454
Li1 O9 2.213123 1_555
Li1 O7 2.253754 1_455
Li2 O11 2.126845 1_555
Li2 O5 2.128005 1_555
Li2 O0 2.178263 1_555
Li2 O10 2.224224 1_555
Li2 O1 2.236104 1_555
Li2 O7 2.244781 1_556
Li3 O9 2.126845 1_555
Li3 O4 2.128005 1_555
Li3 O6 2.178263 1_555
Li3 O8 2.224224 1_555
Li3 O7 2.236104 1_555
Li3 O1 2.244781 1_554
Li4 O3 2.119235 1_455
Li4 O2 2.119235 1_545
Li4 O8 2.145125 1_445
Li4 O10 2.145125 1_555
Li4 O5 2.357881 1_555
Li4 O4 2.357881 1_445
Mn0 O11 1.944013 1_565
Mn0 O0 1.969902 1_555
Mn0 O4 1.971692 1_555
Mn0 O8 1.980846 1_556
Mn0 O1 2.287058 1_555
Mn0 O10 2.323043 1_665
Mn1 O9 1.930209 1_556
Mn1 O10 1.958505 1_565
Mn1 O1 1.961085 1_555
Mn1 O2 1.966082 1_555
Mn1 O11 2.287990 1_565
Mn1 O0 2.377124 1_455
Mn2 O0 1.943727 1_555
Mn2 O7 1.946587 1_555
Mn2 O4 1.951136 1_555
Mn2 O3 1.982591 1_555
Mn2 O2 2.116082 1_655
Mn2 O5 2.148494 1_555
Mn3 O6 1.943727 1_555
Mn3 O1 1.946587 1_555
Mn3 O5 1.951136 1_555
Mn3 O2 1.982591 1_555
Mn3 O3 2.116082 1_455
Mn3 O4 2.148494 1_555
Mn4 O11 1.930209 1_554
Mn4 O8 1.958505 1_545
Mn4 O7 1.961085 1_555
Mn4 O3 1.966082 1_555
Mn4 O9 2.287990 1_545
Mn4 O6 2.377124 1_655
Mn5 O9 1.944013 1_545
Mn5 O6 1.969902 1_555
Mn5 O5 1.971692 1_555
Mn5 O10 1.980846 1_554
Mn5 O7 2.287058 1_555
Mn5 O8 2.323043 1_445
