# generated using pymatgen
data_Gd3Y13O24
_symmetry_space_group_name_H-M   'P 1'
_cell_length_a   9.20803025
_cell_length_b   9.22262505
_cell_length_c   9.22278153
_cell_angle_alpha   109.50681226
_cell_angle_beta   109.43952591
_cell_angle_gamma   109.43584102
_symmetry_Int_Tables_number   1
_chemical_formula_structural   Gd3Y13O24
_chemical_formula_sum   'Gd3 Y13 O24'
_cell_volume   603.15618780
_cell_formula_units_Z   1
loop_
 _symmetry_equiv_pos_site_id
 _symmetry_equiv_pos_as_xyz
  1  'x, y, z'
loop_
 _atom_site_type_symbol
 _atom_site_label
 _atom_site_symmetry_multiplicity
 _atom_site_fract_x
 _atom_site_fract_y
 _atom_site_fract_z
 _atom_site_occupancy
  Gd  Gd0  1  0.24975806  0.96845655  0.21867932  1
  Gd  Gd1  1  0.78222900  0.24946778  0.53209230  1
  Gd  Gd2  1  0.96779587  0.71854579  0.74954371  1
  Y  Y0  1  0.00019637  0.49930426  0.00099740  1
  Y  Y1  1  0.03235620  0.28312382  0.24988254  1
  Y  Y2  1  0.28331152  0.25197897  0.03296722  1
  Y  Y3  1  0.21807285  0.74978113  0.46786166  1
  Y  Y4  1  0.74982661  0.03268579  0.78326507  1
  Y  Y5  1  0.74965080  0.53293070  0.28094435  1
  Y  Y6  1  0.49909854  0.50149652  0.49966540  1
  Y  Y7  1  0.00022386  0.99978300  0.50012384  1
  Y  Y8  1  0.46759069  0.21783699  0.75141051  1
  Y  Y9  1  0.50050575  0.00001584  0.99920726  1
  Y  Y10  1  0.53238009  0.78134368  0.24896423  1
  Y  Y11  1  0.25094936  0.46697185  0.71742794  1
  Y  Y12  1  0.71605449  0.74953271  0.96700583  1
  O  O0  1  0.95773832  0.48905843  0.22848803  1
  O  O1  1  0.54297722  0.27110064  0.03184173  1
  O  O2  1  0.96590665  0.73651796  0.01100683  1
  O  O3  1  0.27113656  0.54275740  0.51133945  1
  O  O4  1  0.77145517  0.76151149  0.22892755  1
  O  O5  1  0.46839317  0.95759944  0.72955876  1
  O  O6  1  0.24003677  0.01145875  0.47203396  1
  O  O7  1  0.26134857  0.23316362  0.27223401  1
  O  O8  1  0.72965786  0.27179754  0.76402977  1
  O  O9  1  0.48948751  0.53204944  0.26041016  1
  O  O10  1  0.01029340  0.77130302  0.53868417  1
  O  O11  1  0.77110218  0.03196561  0.04276617  1
  O  O12  1  0.99223261  0.22762995  0.45759444  1
  O  O13  1  0.51047852  0.46760559  0.73818711  1
  O  O14  1  0.23175051  0.97243667  0.95780828  1
  O  O15  1  0.27103518  0.72608217  0.24008350  1
  O  O16  1  0.76017532  0.98609470  0.53155326  1
  O  O17  1  0.73570759  0.77053021  0.72859118  1
  O  O18  1  0.22826945  0.23927584  0.77111638  1
  O  O19  1  0.53139394  0.03864042  0.26693096  1
  O  O20  1  0.03133055  0.26053131  0.98917327  1
  O  O21  1  0.72553744  0.45778675  0.48583052  1
  O  O22  1  0.45755865  0.72887372  0.96739401  1
  O  O23  1  0.04500178  0.51097392  0.77437490  1
loop_
_geom_bond_atom_site_label_1
_geom_bond_atom_site_label_2
_geom_bond_distance
_geom_bond_site_symmetry_2
Gd0 O6 2.273571 1_565
Gd0 O7 2.280679 1_565
Gd0 O19 2.294477 1_565
Gd0 O2 2.299240 1_455
Gd0 O14 2.369590 1_554
Gd0 O15 2.373700 1_555
Gd1 O19 2.274175 1_555
Gd1 O21 2.283063 1_555
Gd1 O12 2.302832 1_555
Gd1 O8 2.305194 1_555
Gd1 O23 2.362795 1_655
Gd1 O16 2.367332 1_545
Gd2 O14 2.276181 1_655
Gd2 O10 2.276735 1_655
Gd2 O17 2.302856 1_555
Gd2 O23 2.304938 1_655
Gd2 O21 2.363744 1_555
Gd2 O2 2.367619 1_556
O0 Y5 2.251968 1_555
O0 Y1 2.268629 1_655
O0 Y0 2.284204 1_655
O0 Y3 2.344847 1_655
O1 Y5 2.248867 1_555
O1 Y8 2.267589 1_554
O1 Y9 2.294019 1_554
O1 Y2 2.342064 1_555
O2 Y12 2.250983 1_554
O2 Y0 2.288802 1_655
O3 Y3 2.246487 1_555
O3 Y11 2.274135 1_555
O3 Y6 2.284117 1_555
O3 Y1 2.343866 1_555
O4 Y12 2.252068 1_554
O4 Y5 2.274304 1_555
O4 Y7 2.294332 1_655
O4 Y10 2.330232 1_555
O5 Y3 2.253722 1_555
O5 Y4 2.272166 1_565
O5 Y9 2.282327 1_565
O5 Y8 2.343243 1_565
O6 Y8 2.264770 1_555
O6 Y7 2.279484 1_545
O6 Y3 2.339795 1_545
O7 Y1 2.263082 1_555
O7 Y6 2.277712 1_555
O7 Y2 2.338800 1_555
O8 Y8 2.249342 1_555
O8 Y0 2.284674 1_656
O8 Y4 2.332580 1_555
O9 Y10 2.244713 1_555
O9 Y2 2.267929 1_555
O9 Y6 2.293069 1_555
O9 Y5 2.336412 1_555
O10 Y3 2.263735 1_555
O10 Y7 2.276806 1_555
O10 Y5 2.333422 1_455
O11 Y1 2.253739 1_655
O11 Y12 2.280372 1_544
O11 Y9 2.285310 1_554
O11 Y4 2.337907 1_554
O12 Y1 2.251293 1_655
O12 Y7 2.282339 1_645
O12 Y11 2.336273 1_655
O13 Y8 2.256395 1_555
O13 Y12 2.279985 1_555
O13 Y6 2.296846 1_555
O13 Y11 2.330883 1_555
O14 Y2 2.263944 1_566
O14 Y9 2.285161 1_565
O15 Y10 2.254389 1_555
O15 Y3 2.268252 1_555
O15 Y0 2.290087 1_555
O16 Y4 2.256394 1_565
O16 Y10 2.279599 1_555
O16 Y7 2.291489 1_655
O17 Y4 2.247160 1_565
O17 Y6 2.280974 1_555
O17 Y12 2.330470 1_555
O18 Y2 2.249357 1_556
O18 Y11 2.273764 1_555
O18 Y7 2.295181 1_545
O18 Y8 2.336851 1_555
O19 Y9 2.276454 1_554
O19 Y10 2.326195 1_545
O20 Y2 2.252152 1_556
O20 Y4 2.274749 1_455
O20 Y0 2.285597 1_556
O20 Y1 2.339646 1_556
O21 Y5 2.269732 1_555
O21 Y6 2.286559 1_555
O22 Y11 2.252126 1_555
O22 Y10 2.280465 1_556
O22 Y9 2.295723 1_565
O22 Y12 2.325116 1_555
O23 Y11 2.251560 1_555
O23 Y0 2.290179 1_556
