# generated using pymatgen
data_Sr28In11
_symmetry_space_group_name_H-M   'P 1'
_cell_length_a   5.83695670
_cell_length_b   8.22647733
_cell_length_c   34.00023453
_cell_angle_alpha   96.93991768
_cell_angle_beta   94.90638849
_cell_angle_gamma   89.99739116
_symmetry_Int_Tables_number   1
_chemical_formula_structural   Sr28In11
_chemical_formula_sum   'Sr28 In11'
_cell_volume   1614.62211039
_cell_formula_units_Z   1
loop_
 _symmetry_equiv_pos_site_id
 _symmetry_equiv_pos_as_xyz
  1  'x, y, z'
loop_
 _atom_site_type_symbol
 _atom_site_label
 _atom_site_symmetry_multiplicity
 _atom_site_fract_x
 _atom_site_fract_y
 _atom_site_fract_z
 _atom_site_occupancy
  Sr  Sr0  1  0.82377907  0.65455989  0.64758621  1
  Sr  Sr1  1  0.23767601  0.98527294  0.47520223  1
  Sr  Sr2  1  0.22437241  0.43860245  0.44872890  1
  Sr  Sr3  1  0.86318767  0.07333624  0.72617353  1
  Sr  Sr4  1  0.13679494  0.34713865  0.27376390  1
  Sr  Sr5  1  0.59610799  0.25549920  0.19213997  1
  Sr  Sr6  1  0.35323597  0.38419983  0.70655398  1
  Sr  Sr7  1  0.29395482  0.36219311  0.58775563  1
  Sr  Sr8  1  0.76245356  0.51003169  0.52483324  1
  Sr  Sr9  1  0.95623592  0.57768700  0.91253563  1
  Sr  Sr10  1  0.77562482  0.98984947  0.55128190  1
  Sr  Sr11  1  0.58313949  0.71665210  0.16618118  1
  Sr  Sr12  1  0.70615886  0.77442214  0.41222154  1
  Sr  Sr13  1  0.68192379  0.32839025  0.36406011  1
  Sr  Sr14  1  0.94048356  0.01485811  0.88090525  1
  Sr  Sr15  1  0.31801818  0.96432653  0.63590638  1
  Sr  Sr16  1  0.11718748  0.88822548  0.23464684  1
  Sr  Sr17  1  0.05963524  0.13398016  0.11913594  1
  Sr  Sr18  1  0.50001655  0.68760873  0.00005267  1
  Sr  Sr19  1  0.00000263  0.00236193  0.00005595  1
  Sr  Sr20  1  0.04379423  0.66520342  0.08753089  1
  Sr  Sr21  1  0.47007079  0.25824211  0.94015513  1
  Sr  Sr22  1  0.53000378  0.31820549  0.05992994  1
  Sr  Sr23  1  0.17620892  0.00684528  0.35238313  1
  Sr  Sr24  1  0.64665566  0.67754710  0.29338507  1
  Sr  Sr25  1  0.88264457  0.65373871  0.76531898  1
  Sr  Sr26  1  0.40390306  0.06338310  0.80783830  1
  Sr  Sr27  1  0.41678270  0.55052054  0.83382312  1
  In  In0  1  0.09097607  0.49812838  0.18184734  1
  In  In1  1  0.00016064  0.41078146  0.00001686  1
  In  In2  1  0.27311117  0.72551675  0.54684364  1
  In  In3  1  0.36112780  0.79711372  0.72158495  1
  In  In4  1  0.63907052  0.07508393  0.27842990  1
  In  In5  1  0.90914728  0.31621954  0.81816020  1
  In  In6  1  0.72661931  0.17871825  0.45309752  1
  In  In7  1  0.17991952  0.60269519  0.36013904  1
  In  In8  1  0.54312161  0.93387830  0.08613611  1
  In  In9  1  0.45690005  0.84747327  0.91384540  1
  In  In10  1  0.81979336  0.24260457  0.63981248  1
loop_
_geom_bond_atom_site_label_1
_geom_bond_atom_site_label_2
_geom_bond_distance
_geom_bond_site_symmetry_2
Sr0 Sr15 3.925522 1_555
Sr0 Sr15 3.926198 1_655
Sr0 Sr25 3.989099 1_555
Sr0 Sr3 4.090388 1_565
Sr0 Sr7 4.150501 1_655
Sr0 Sr7 4.150791 1_555
Sr0 Sr10 4.520341 1_555
Sr1 Sr10 3.890506 1_455
Sr1 Sr10 3.890910 1_555
Sr1 Sr12 3.895547 1_555
Sr1 Sr12 3.896891 1_455
Sr1 Sr2 3.939939 1_565
Sr1 Sr2 4.477794 1_555
Sr1 Sr7 4.613533 1_565
Sr2 Sr8 3.890512 1_455
Sr2 Sr8 3.892006 1_555
Sr2 Sr23 4.522854 1_555
Sr3 Sr6 3.988228 1_655
Sr3 Sr6 3.989571 1_555
Sr4 Sr5 4.028014 1_555
Sr4 Sr5 4.028249 1_455
Sr6 Sr7 4.006449 1_555
Sr7 Sr8 3.894089 1_555
Sr7 Sr8 3.895347 1_455
Sr10 Sr8 3.940237 1_555
Sr10 Sr15 4.113115 1_555
Sr10 Sr15 4.115034 1_655
Sr10 Sr7 4.301447 1_565
Sr10 Sr7 4.302894 1_665
Sr10 Sr8 4.477141 1_565
Sr11 Sr16 3.885002 1_655
Sr11 Sr16 3.885445 1_555
Sr11 Sr20 3.939059 1_655
Sr11 Sr20 3.940485 1_555
Sr11 Sr5 3.996785 1_555
Sr11 Sr24 4.359836 1_555
Sr11 Sr5 4.413354 1_565
Sr11 Sr22 4.564842 1_555
Sr12 Sr13 3.830589 1_555
Sr12 Sr24 4.007863 1_555
Sr12 Sr23 4.149477 1_665
Sr12 Sr23 4.150491 1_565
Sr12 Sr2 4.302035 1_555
Sr12 Sr2 4.302067 1_655
Sr12 Sr8 4.614724 1_555
Sr13 Sr23 3.926119 1_555
Sr13 Sr23 3.926830 1_655
Sr13 Sr24 3.956032 1_555
Sr13 Sr2 4.114139 1_555
Sr13 Sr2 4.116404 1_655
Sr13 Sr4 4.243514 1_655
Sr13 Sr4 4.244654 1_555
Sr14 Sr9 3.875135 1_545
Sr14 Sr26 3.877771 1_655
Sr14 Sr26 3.879312 1_555
Sr14 Sr21 3.946809 1_555
Sr14 Sr21 3.947539 1_655
Sr14 Sr19 4.050060 1_656
Sr15 Sr7 3.829917 1_565
Sr15 Sr6 3.956426 1_565
Sr15 Sr3 4.242655 1_465
Sr15 Sr3 4.244304 1_565
Sr16 Sr4 3.846431 1_565
Sr16 Sr23 3.989432 1_565
Sr16 Sr24 4.038624 1_455
Sr16 Sr24 4.040237 1_555
Sr17 Sr20 3.875121 1_545
Sr17 Sr5 3.876793 1_455
Sr17 Sr5 3.877759 1_555
Sr17 Sr22 3.945878 1_555
Sr17 Sr22 3.946942 1_455
Sr17 Sr19 4.047896 1_555
Sr18 Sr22 3.852814 1_555
Sr18 Sr21 3.854232 1_554
Sr18 Sr19 3.901514 1_565
Sr18 Sr19 3.901555 1_665
Sr18 Sr20 4.178393 1_555
Sr18 Sr9 4.179482 1_554
Sr18 Sr20 4.179979 1_655
Sr18 Sr9 4.181003 1_454
Sr19 Sr22 4.254143 1_455
Sr19 Sr21 4.254359 1_554
Sr19 Sr21 4.254943 1_454
Sr19 Sr22 4.255682 1_555
Sr19 Sr20 4.297371 1_545
Sr19 Sr9 4.299189 1_444
Sr20 Sr22 4.109850 1_555
Sr20 Sr22 4.110363 1_455
Sr21 Sr22 4.027505 1_556
Sr21 Sr9 4.110145 1_555
Sr21 Sr9 4.110596 1_455
Sr21 Sr27 4.566916 1_555
Sr21 Sr26 4.573634 1_555
Sr22 Sr5 4.570034 1_555
Sr23 Sr4 4.091216 1_555
Sr24 Sr4 3.988177 1_655
Sr24 Sr4 3.989088 1_555
Sr25 Sr3 3.844952 1_565
Sr25 Sr27 3.886082 1_555
Sr25 Sr27 3.886106 1_655
Sr25 Sr6 4.039977 1_655
Sr25 Sr6 4.041234 1_555
Sr26 Sr27 3.997341 1_555
Sr26 Sr3 4.028820 1_555
Sr26 Sr3 4.029068 1_455
Sr26 Sr27 4.413161 1_545
Sr27 Sr9 3.940131 1_455
Sr27 Sr9 3.942209 1_555
Sr27 Sr6 4.362210 1_555
In0 Sr17 3.455936 1_555
In0 Sr16 3.479295 1_555
In0 Sr4 3.489444 1_555
In0 Sr11 3.501657 1_555
In0 Sr11 3.501829 1_455
In0 Sr5 3.576512 1_555
In0 Sr5 3.576621 1_455
In0 Sr20 3.628000 1_555
In1 Sr19 3.360015 1_555
In1 Sr9 3.413850 1_454
In1 Sr20 3.415338 1_555
In1 Sr21 3.684805 1_554
In1 Sr22 3.686633 1_555
In1 Sr22 3.686739 1_455
In1 Sr21 3.687361 1_454
In1 Sr18 3.701093 1_555
In1 Sr18 3.702420 1_455
In2 Sr15 3.394788 1_555
In2 Sr1 3.422556 1_555
In2 Sr7 3.443664 1_555
In2 Sr8 3.447503 1_455
In2 Sr8 3.450408 1_555
In2 Sr10 3.630222 1_455
In2 Sr10 3.633219 1_555
In2 Sr2 3.836051 1_555
In3 Sr15 3.359250 1_555
In3 Sr6 3.373160 1_555
In3 Sr26 3.432671 1_565
In3 Sr25 3.538053 1_555
In3 Sr25 3.540755 1_455
In3 Sr3 3.689503 1_565
In3 Sr3 3.691427 1_465
In3 Sr0 3.930250 1_555
In3 Sr0 3.934510 1_455
In4 Sr13 3.360172 1_555
In4 Sr24 3.369502 1_545
In4 Sr5 3.435071 1_555
In4 Sr16 3.538998 1_645
In4 Sr16 3.539791 1_545
In4 Sr4 3.692548 1_555
In4 Sr4 3.693161 1_655
In4 Sr23 3.929368 1_555
In4 Sr23 3.931886 1_655
In5 Sr14 3.455731 1_555
In5 Sr25 3.481256 1_555
In5 Sr3 3.491753 1_555
In5 Sr27 3.501563 1_655
In5 Sr27 3.503049 1_555
In5 Sr26 3.575691 1_655
In5 Sr26 3.576816 1_555
In5 Sr9 3.630393 1_555
In6 Sr13 3.393262 1_555
In6 Sr8 3.424549 1_555
In6 Sr12 3.444160 1_545
In6 Sr1 3.449441 1_545
In6 Sr1 3.449754 1_645
In6 Sr2 3.631126 1_655
In6 Sr2 3.631630 1_555
In6 Sr10 3.837983 1_545
In7 Sr23 3.366710 1_565
In7 Sr4 3.389600 1_555
In7 Sr2 3.436718 1_555
In7 Sr12 3.607115 1_455
In7 Sr12 3.609974 1_555
In7 Sr13 3.701190 1_455
In7 Sr13 3.701495 1_555
In7 Sr24 3.787871 1_555
In7 Sr24 3.787891 1_455
In8 Sr18 3.342954 1_555
In8 Sr22 3.385991 1_565
In8 Sr11 3.423638 1_555
In8 Sr17 3.468098 1_565
In8 Sr17 3.468942 1_665
In8 Sr20 3.664550 1_655
In8 Sr20 3.664917 1_555
In9 Sr18 3.345048 1_556
In9 Sr21 3.388620 1_565
In9 Sr27 3.421986 1_555
In9 Sr14 3.468612 1_465
In9 Sr14 3.468662 1_565
In9 Sr9 3.663374 1_555
In9 Sr9 3.663643 1_455
In10 Sr0 3.367168 1_555
In10 Sr3 3.389073 1_555
In10 Sr10 3.435867 1_545
In10 Sr7 3.607269 1_555
In10 Sr7 3.608250 1_655
In10 Sr15 3.700946 1_545
In10 Sr15 3.702354 1_645
In10 Sr6 3.786882 1_555
In10 Sr6 3.788691 1_655
