# generated using pymatgen
data_RbLi7(NiO3)2
_symmetry_space_group_name_H-M   'P 1'
_cell_length_a   5.36553408
_cell_length_b   5.36553408
_cell_length_c   10.06262700
_cell_angle_alpha   87.70303726
_cell_angle_beta   87.70303726
_cell_angle_gamma   40.17701306
_symmetry_Int_Tables_number   1
_chemical_formula_structural   RbLi7(NiO3)2
_chemical_formula_sum   'Rb1 Li7 Ni2 O6'
_cell_volume   186.72522042
_cell_formula_units_Z   1
loop_
 _symmetry_equiv_pos_site_id
 _symmetry_equiv_pos_as_xyz
  1  'x, y, z'
loop_
 _atom_site_type_symbol
 _atom_site_label
 _atom_site_symmetry_multiplicity
 _atom_site_fract_x
 _atom_site_fract_y
 _atom_site_fract_z
 _atom_site_occupancy
  Rb  Rb0  1  0.00000000  0.00000000  0.00000000  1
  Li  Li0  1  0.16906900  0.16906900  0.73033200  1
  Li  Li1  1  0.73081300  0.73081300  0.90033500  1
  Li  Li2  1  0.24573800  0.24573800  0.41487300  1
  Li  Li3  1  0.75426200  0.75426200  0.58512700  1
  Li  Li4  1  0.26918700  0.26918700  0.09966500  1
  Li  Li5  1  0.83093100  0.83093100  0.26966800  1
  Li  Li6  1  0.50000000  0.50000000  0.50000000  1
  Ni  Ni0  1  0.57931900  0.57931900  0.25347000  1
  Ni  Ni1  1  0.42068100  0.42068100  0.74653000  1
  O  O0  1  0.60530300  0.60530300  0.74007900  1
  O  O1  1  0.67063100  0.67063100  0.41120800  1
  O  O2  1  0.69731400  0.69731400  0.10725500  1
  O  O3  1  0.30268600  0.30268600  0.89274500  1
  O  O4  1  0.32936900  0.32936900  0.58879200  1
  O  O5  1  0.39469700  0.39469700  0.25992100  1
loop_
_geom_bond_atom_site_label_1
_geom_bond_atom_site_label_2
_geom_bond_distance
_geom_bond_site_symmetry_2
Li0 O0 1.952829 1_545
Li0 O0 1.952829 1_455
Li0 O4 2.107631 1_555
Li0 O3 2.161520 1_555
Li1 O3 1.980430 1_565
Li1 O3 1.980430 1_655
Li1 O0 2.091550 1_555
Li1 O2 2.095082 1_556
Li2 O4 1.974610 1_555
Li2 O1 1.993242 1_545
Li2 O1 1.993242 1_455
Li2 O5 2.117811 1_555
Li3 O1 1.974610 1_555
Li3 O4 1.993242 1_565
Li3 O4 1.993242 1_655
Li3 O0 2.117811 1_555
Li4 O2 1.980430 1_545
Li4 O2 1.980430 1_455
Li4 O5 2.091550 1_555
Li4 O3 2.095082 1_554
Li5 O5 1.952829 1_565
Li5 O5 1.952829 1_655
Li5 O1 2.107631 1_555
Li5 O2 2.161520 1_555
Li6 O1 1.903783 1_555
Li6 O4 1.903783 1_555
Ni0 O2 1.851907 1_555
Ni0 O5 1.859023 1_555
Ni0 O1 1.868407 1_555
Ni1 O3 1.851907 1_555
Ni1 O0 1.859023 1_555
Ni1 O4 1.868407 1_555
O2 Rb0 2.949361 1_565
O2 Rb0 2.949361 1_655
O3 Rb0 2.949361 1_656
O3 Rb0 2.949361 1_566
