# generated using pymatgen
data_Na3Mn2P2(CO7)2
_symmetry_space_group_name_H-M   'P 1'
_cell_length_a   6.58601500
_cell_length_b   8.97367700
_cell_length_c   10.38944162
_cell_angle_alpha   88.49255728
_cell_angle_beta   90.00000000
_cell_angle_gamma   90.00000000
_symmetry_Int_Tables_number   1
_chemical_formula_structural   Na3Mn2P2(CO7)2
_chemical_formula_sum   'Na6 Mn4 P4 C4 O28'
_cell_volume   613.81150949
_cell_formula_units_Z   2
loop_
 _symmetry_equiv_pos_site_id
 _symmetry_equiv_pos_as_xyz
  1  'x, y, z'
loop_
 _atom_site_type_symbol
 _atom_site_label
 _atom_site_symmetry_multiplicity
 _atom_site_fract_x
 _atom_site_fract_y
 _atom_site_fract_z
 _atom_site_occupancy
  Na  Na0  1  0.77570200  0.24365500  0.62315200  1
  Na  Na1  1  0.22429800  0.24365500  0.12315200  1
  Na  Na2  1  0.74083700  0.76081400  0.87659900  1
  Na  Na3  1  0.25956000  0.76001700  0.87915900  1
  Na  Na4  1  0.74044000  0.76001700  0.37915900  1
  Na  Na5  1  0.25916300  0.76081400  0.37659900  1
  Mn  Mn0  1  0.50259900  0.34400500  0.89384500  1
  Mn  Mn1  1  0.49740100  0.34400500  0.39384500  1
  Mn  Mn2  1  0.00270500  0.64979800  0.60893500  1
  Mn  Mn3  1  0.99729500  0.64979800  0.10893500  1
  P  P0  1  0.00031800  0.42400300  0.85626900  1
  P  P1  1  0.99968200  0.42400300  0.35626900  1
  P  P2  1  0.50243900  0.57190700  0.64271700  1
  P  P3  1  0.49756100  0.57190700  0.14271700  1
  C  C0  1  0.49821800  0.07579600  0.86538200  1
  C  C1  1  0.50178200  0.07579600  0.36538200  1
  C  C2  1  0.00289600  0.92274400  0.63427200  1
  C  C3  1  0.99710400  0.92274400  0.13427200  1
  O  O0  1  0.00115600  0.05842200  0.64527500  1
  O  O1  1  0.99884400  0.05842200  0.14527500  1
  O  O2  1  0.48889200  0.13981900  0.97721400  1
  O  O3  1  0.51110800  0.13981900  0.47721400  1
  O  O4  1  0.50754300  0.17430500  0.76984300  1
  O  O5  1  0.49245700  0.17430500  0.26984300  1
  O  O6  1  0.18787400  0.33082500  0.89533100  1
  O  O7  1  0.81222000  0.32761300  0.88595300  1
  O  O8  1  0.18778000  0.32761300  0.38595300  1
  O  O9  1  0.81212600  0.33082500  0.39533100  1
  O  O10  1  0.00043200  0.46488000  0.70865600  1
  O  O11  1  0.50905600  0.42455000  0.57048400  1
  O  O12  1  0.99956800  0.46488000  0.20865600  1
  O  O13  1  0.49094400  0.42455000  0.07048400  1
  O  O14  1  0.99735700  0.57509300  0.92781200  1
  O  O15  1  0.50132500  0.53723400  0.79192000  1
  O  O16  1  0.00264300  0.57509300  0.42781200  1
  O  O17  1  0.49867500  0.53723400  0.29192000  1
  O  O18  1  0.68830700  0.67198800  0.60921500  1
  O  O19  1  0.31547800  0.66869200  0.60653500  1
  O  O20  1  0.68452200  0.66869200  0.10653500  1
  O  O21  1  0.31169300  0.67198800  0.10921500  1
  O  O22  1  0.00414700  0.82403600  0.73217000  1
  O  O23  1  0.99585300  0.82403600  0.23217000  1
  O  O24  1  0.00276000  0.85269600  0.52327200  1
  O  O25  1  0.99724000  0.85269600  0.02327200  1
  O  O26  1  0.49928200  0.93796700  0.85169800  1
  O  O27  1  0.50071800  0.93796700  0.35169800  1
loop_
_geom_bond_atom_site_label_1
_geom_bond_atom_site_label_2
_geom_bond_distance
_geom_bond_site_symmetry_2
Na0 O0 2.236172 1_655
Na0 O4 2.403993 1_555
Na0 O11 2.443721 1_555
Na0 O9 2.484833 1_555
Na0 O3 2.505633 1_555
Na0 O10 2.648316 1_655
Na0 O7 2.861564 1_555
Na1 O1 2.236172 1_455
Na1 O5 2.403993 1_555
Na1 O13 2.443721 1_555
Na1 O6 2.484833 1_554
Na1 O2 2.505633 1_554
Na1 O12 2.648316 1_455
Na1 O8 2.861564 1_555
Na2 O26 2.259070 1_555
Na2 O22 2.352873 1_655
Na2 O14 2.422442 1_555
Na2 O25 2.433039 1_556
Na2 O20 2.534545 1_556
Na2 O15 2.716712 1_555
Na2 O18 2.930644 1_555
Na3 O26 2.258331 1_555
Na3 O22 2.333592 1_555
Na3 O14 2.438695 1_455
Na3 O25 2.446163 1_456
Na3 O21 2.520991 1_556
Na3 O15 2.729264 1_555
Na4 O27 2.258331 1_555
Na4 O23 2.333592 1_555
Na4 O16 2.438695 1_655
Na4 O24 2.446163 1_655
Na4 O18 2.520991 1_555
Na4 O17 2.729264 1_555
Na5 O27 2.259070 1_555
Na5 O23 2.352873 1_455
Na5 O16 2.422442 1_555
Na5 O24 2.433039 1_555
Na5 O19 2.534545 1_555
Na5 O17 2.716712 1_555
Na5 O21 2.930644 1_555
Mn0 O13 1.991478 1_556
Mn0 O15 2.007858 1_555
Mn0 O2 2.008033 1_555
Mn0 O4 2.020656 1_555
Mn0 O7 2.046266 1_555
Mn0 O6 2.076189 1_555
Mn1 O11 1.991478 1_555
Mn1 O17 2.007858 1_555
Mn1 O3 2.008033 1_555
Mn1 O5 2.020656 1_555
Mn1 O8 2.046266 1_555
Mn1 O9 2.076189 1_555
Mn2 O10 1.933068 1_555
Mn2 O24 2.005474 1_555
Mn2 O16 2.014156 1_555
Mn2 O22 2.046802 1_555
Mn2 O19 2.066990 1_555
Mn2 O18 2.080192 1_455
Mn3 O12 1.933068 1_555
Mn3 O25 2.005474 1_555
Mn3 O14 2.014156 1_554
Mn3 O23 2.046802 1_555
Mn3 O20 2.066990 1_555
Mn3 O21 2.080192 1_655
C0 O26 1.248707 1_545
C0 O2 1.311074 1_555
C0 O4 1.313122 1_555
C1 O27 1.248707 1_545
C1 O3 1.311074 1_555
C1 O5 1.313122 1_555
C2 O0 1.225929 1_565
C2 O24 1.327855 1_555
C2 O22 1.331077 1_555
C3 O1 1.225929 1_565
C3 O25 1.327855 1_555
C3 O23 1.331077 1_555
O6 P0 1.540073 1_555
O7 P0 1.537504 1_655
O8 P1 1.537504 1_455
O9 P1 1.540073 1_555
O10 P0 1.567462 1_555
O11 P2 1.538138 1_555
O12 P1 1.567462 1_555
O13 P3 1.538138 1_555
O14 P0 1.563384 1_655
O15 P2 1.573026 1_555
O16 P1 1.563384 1_455
O17 P3 1.573026 1_555
O18 P2 1.552344 1_555
O19 P2 1.547457 1_555
O20 P3 1.547457 1_555
O21 P3 1.552344 1_555
