# generated using pymatgen
data_Li4Fe3Cu3(SbO8)2
_symmetry_space_group_name_H-M   'P 1'
_cell_length_a   5.97985194
_cell_length_b   5.96076888
_cell_length_c   9.73722480
_cell_angle_alpha   89.99738542
_cell_angle_beta   89.60490486
_cell_angle_gamma   119.88977284
_symmetry_Int_Tables_number   1
_chemical_formula_structural   Li4Fe3Cu3(SbO8)2
_chemical_formula_sum   'Li4 Fe3 Cu3 Sb2 O16'
_cell_volume   300.90265820
_cell_formula_units_Z   1
loop_
 _symmetry_equiv_pos_site_id
 _symmetry_equiv_pos_as_xyz
  1  'x, y, z'
loop_
 _atom_site_type_symbol
 _atom_site_label
 _atom_site_symmetry_multiplicity
 _atom_site_fract_x
 _atom_site_fract_y
 _atom_site_fract_z
 _atom_site_occupancy
  Li  Li0  1  0.32115100  0.66049900  0.90599100  1
  Li  Li1  1  0.99925400  0.99941500  0.99048600  1
  Li  Li2  1  0.00944100  0.00485100  0.48746100  1
  Li  Li3  1  0.67199200  0.33603600  0.40384000  1
  Fe  Fe0  1  0.66051600  0.83027400  0.21330700  1
  Fe  Fe1  1  0.83009500  0.66053800  0.71382800  1
  Fe  Fe2  1  0.83019900  0.16973700  0.71378000  1
  Cu  Cu0  1  0.17355700  0.83274700  0.21331900  1
  Cu  Cu1  1  0.17355400  0.34092100  0.21335100  1
  Cu  Cu2  1  0.34193300  0.17095700  0.71216900  1
  Sb  Sb0  1  0.33859000  0.66938800  0.48650900  1
  Sb  Sb1  1  0.66051400  0.33020500  0.98694000  1
  O  O0  1  0.16223500  0.82943400  0.59287700  1
  O  O1  1  0.04215500  0.52134200  0.34465000  1
  O  O2  1  0.32660600  0.66338900  0.11327300  1
  O  O3  1  0.00836800  0.00405900  0.29765600  1
  O  O4  1  0.00750700  0.00375200  0.80139100  1
  O  O5  1  0.16218600  0.33298600  0.59283800  1
  O  O6  1  0.49536800  0.97053900  0.34958900  1
  O  O7  1  0.49478500  0.52439200  0.34937900  1
  O  O8  1  0.32260000  0.16117600  0.09309000  1
  O  O9  1  0.66824900  0.83411700  0.59648700  1
  O  O10  1  0.51557700  0.48439800  0.84669900  1
  O  O11  1  0.51581900  0.03110800  0.84676400  1
  O  O12  1  0.66558800  0.33290400  0.60854200  1
  O  O13  1  0.82073000  0.66338900  0.09311400  1
  O  O14  1  0.96021600  0.48011000  0.84727300  1
  O  O15  1  0.82121300  0.15763700  0.09323600  1
loop_
_geom_bond_atom_site_label_1
_geom_bond_atom_site_label_2
_geom_bond_distance
_geom_bond_site_symmetry_2
Li0 O14 1.961006 1_455
Li0 O10 1.998515 1_555
Li0 O11 1.998868 1_565
Li0 O2 2.018775 1_556
Li1 O4 1.841417 1_665
Li1 O8 1.958342 1_666
Li1 O13 2.001037 1_556
Li1 O15 2.002533 1_566
Li2 O3 1.848227 1_555
Li2 O5 1.986288 1_555
Li2 O0 1.986651 1_545
Li2 O9 2.055730 1_445
Li3 O6 1.963539 1_545
Li3 O7 1.964218 1_555
Li3 O12 1.993241 1_555
Li3 O1 1.999358 1_655
Fe0 O3 1.987596 1_665
Fe0 O2 1.993121 1_555
Fe0 O13 2.052228 1_555
Fe0 O15 2.052676 1_565
Fe0 O6 2.059182 1_555
Fe0 O7 2.059811 1_555
Fe1 O4 1.971626 1_665
Fe1 O12 1.982948 1_555
Fe1 O14 2.073256 1_555
Fe1 O10 2.076483 1_555
Fe1 O0 2.078489 1_655
Fe1 O9 2.079866 1_555
Fe2 O4 1.972001 1_655
Fe2 O12 1.983171 1_555
Fe2 O14 2.073013 1_555
Fe2 O11 2.076493 1_555
Fe2 O5 2.077781 1_655
Fe2 O9 2.080627 1_545
Cu0 O3 1.920187 1_565
Cu0 O2 1.927262 1_555
Cu0 O1 2.056824 1_555
Cu0 O8 2.060056 1_565
Cu0 O6 2.144411 1_555
Cu0 O13 2.179891 1_455
Cu1 O3 1.921804 1_555
Cu1 O2 1.927726 1_555
Cu1 O1 2.058398 1_555
Cu1 O8 2.061802 1_555
Cu1 O7 2.140511 1_555
Cu1 O15 2.177304 1_455
Cu2 O4 1.933091 1_555
Cu2 O12 1.951084 1_555
Cu2 O10 2.090531 1_555
Cu2 O11 2.091970 1_555
Cu2 O0 2.117868 1_545
Cu2 O5 2.118972 1_555
O0 Sb0 2.020573 1_555
O1 Sb0 2.074565 1_555
O5 Sb0 2.020432 1_555
O6 Sb0 2.045481 1_555
O7 Sb0 2.046901 1_555
O8 Sb1 2.026965 1_554
O9 Sb0 2.024109 1_555
O10 Sb1 2.066598 1_555
O11 Sb1 2.066221 1_555
O13 Sb1 2.012084 1_554
O14 Sb1 2.056709 1_555
O15 Sb1 2.012863 1_554
