# generated using pymatgen
data_Ta2CrNO5
_symmetry_space_group_name_H-M   'P 1'
_cell_length_a   4.76017793
_cell_length_b   10.36809800
_cell_length_c   9.52010060
_cell_angle_alpha   63.00934516
_cell_angle_beta   90.05775162
_cell_angle_gamma   90.32518682
_symmetry_Int_Tables_number   1
_chemical_formula_structural   Ta2CrNO5
_chemical_formula_sum   'Ta8 Cr4 N4 O20'
_cell_volume   418.67123063
_cell_formula_units_Z   4
loop_
 _symmetry_equiv_pos_site_id
 _symmetry_equiv_pos_as_xyz
  1  'x, y, z'
loop_
 _atom_site_type_symbol
 _atom_site_label
 _atom_site_symmetry_multiplicity
 _atom_site_fract_x
 _atom_site_fract_y
 _atom_site_fract_z
 _atom_site_occupancy
  Ta  Ta0  1  0.99070800  0.34403400  0.32335100  1
  Ta  Ta1  1  0.99070500  0.34403400  0.82335000  1
  Ta  Ta2  1  0.98553900  0.67401200  0.15575200  1
  Ta  Ta3  1  0.98554400  0.67401700  0.65575300  1
  Ta  Ta4  1  0.49487000  0.16687100  0.16400900  1
  Ta  Ta5  1  0.49487700  0.16686900  0.66401500  1
  Ta  Ta6  1  0.51101100  0.82966400  0.84068600  1
  Ta  Ta7  1  0.51100900  0.82965900  0.34069200  1
  Cr  Cr0  1  0.00313300  0.99993800  0.50159100  1
  Cr  Cr1  1  0.50135500  0.49857500  0.00137000  1
  Cr  Cr2  1  0.00314200  0.99991700  0.00162200  1
  Cr  Cr3  1  0.50136400  0.49856900  0.50137600  1
  N  N0  1  0.80221200  0.83390600  0.98414000  1
  N  N1  1  0.80221900  0.83390900  0.48413500  1
  N  N2  1  0.80400600  0.49833100  0.15282900  1
  N  N3  1  0.80401400  0.49833200  0.65282800  1
  O  O0  1  0.19794000  0.49540200  0.85125800  1
  O  O1  1  0.19793000  0.49540300  0.35126300  1
  O  O2  1  0.19879800  0.83124500  0.68380100  1
  O  O3  1  0.19880500  0.83123600  0.18380600  1
  O  O4  1  0.20356300  0.16666000  0.01846800  1
  O  O5  1  0.20356200  0.16666100  0.51846900  1
  O  O6  1  0.80572300  0.16827400  0.31869800  1
  O  O7  1  0.80572500  0.16827100  0.81870200  1
  O  O8  1  0.30660200  0.32735600  0.18580300  1
  O  O9  1  0.30660000  0.32735500  0.68580100  1
  O  O10  1  0.69895200  0.32733100  0.98961800  1
  O  O11  1  0.69895500  0.32733000  0.48961800  1
  O  O12  1  0.30172400  0.66842800  0.01219100  1
  O  O13  1  0.30171900  0.66842700  0.51219200  1
  O  O14  1  0.69275200  0.66845500  0.81662300  1
  O  O15  1  0.69275200  0.66845400  0.31662400  1
  O  O16  1  0.30770700  0.00077500  0.34630300  1
  O  O17  1  0.30772000  0.00077300  0.84631100  1
  O  O18  1  0.69337200  0.00076300  0.15347400  1
  O  O19  1  0.69338700  0.00076600  0.65347400  1
loop_
_geom_bond_atom_site_label_1
_geom_bond_atom_site_label_2
_geom_bond_distance
_geom_bond_site_symmetry_2
Cr0 N1 2.036217 1_455
Cr0 O5 2.038927 1_565
Cr0 O2 2.048651 1_555
Cr0 O6 2.053726 1_465
Cr0 O16 2.068851 1_565
Cr0 O19 2.068942 1_465
Cr1 N2 2.036462 1_555
Cr1 O0 2.041411 1_554
Cr1 O12 2.049101 1_555
Cr1 O14 2.049123 1_554
Cr1 O10 2.061316 1_554
Cr1 O8 2.061335 1_555
Cr2 N0 2.036203 1_454
Cr2 O4 2.038951 1_565
Cr2 O3 2.048474 1_555
Cr2 O7 2.053948 1_464
Cr2 O18 2.068877 1_465
Cr2 O17 2.068957 1_564
Cr3 N3 2.036434 1_555
Cr3 O1 2.041458 1_555
Cr3 O15 2.049151 1_555
Cr3 O13 2.049157 1_555
Cr3 O11 2.061282 1_555
Cr3 O9 2.061298 1_555
N0 Ta2 1.932392 1_556
N0 Ta6 1.959218 1_555
N1 Ta3 1.932404 1_555
N1 Ta7 1.959203 1_555
N2 Ta0 1.907986 1_555
N2 Ta2 2.023207 1_555
N3 Ta1 1.907966 1_555
N3 Ta3 2.023247 1_555
O0 Ta1 1.966497 1_455
O0 Ta3 2.191969 1_455
O1 Ta0 1.966494 1_455
O1 Ta2 2.191956 1_455
O2 Ta3 2.033460 1_455
O2 Ta6 2.100793 1_555
O3 Ta2 2.033481 1_455
O3 Ta7 2.100782 1_555
O4 Ta4 1.959975 1_555
O4 Ta1 2.185355 1_454
O5 Ta5 1.960025 1_555
O5 Ta0 2.185341 1_455
O6 Ta0 2.037914 1_555
O6 Ta4 2.091241 1_555
O7 Ta1 2.037912 1_555
O7 Ta5 2.091207 1_555
O8 Ta4 1.986332 1_555
O8 Ta0 2.053829 1_455
O9 Ta5 1.986323 1_555
O9 Ta1 2.053843 1_455
O10 Ta4 1.986373 1_556
O10 Ta1 2.053573 1_555
O11 Ta5 1.986395 1_555
O11 Ta0 2.053564 1_555
O12 Ta6 1.989932 1_554
O12 Ta2 2.052690 1_455
O13 Ta7 1.989899 1_555
O13 Ta3 2.052676 1_455
O14 Ta6 1.989712 1_555
O14 Ta3 2.052938 1_555
O15 Ta7 1.989703 1_555
O15 Ta2 2.052949 1_555
O16 Ta4 2.011006 1_555
O16 Ta7 2.047588 1_545
O17 Ta5 2.011002 1_555
O17 Ta6 2.047555 1_545
O18 Ta4 2.011071 1_555
O18 Ta7 2.047693 1_545
O19 Ta5 2.011069 1_555
O19 Ta6 2.047682 1_545
