# generated using pymatgen
data_Na2B3HO6
_symmetry_space_group_name_H-M   'P 1'
_cell_length_a   12.01714900
_cell_length_b   8.77616300
_cell_length_c   9.53377075
_cell_angle_alpha   84.03570863
_cell_angle_beta   90.00000000
_cell_angle_gamma   90.00000000
_symmetry_Int_Tables_number   1
_chemical_formula_structural   Na2B3HO6
_chemical_formula_sum   'Na16 B24 H8 O48'
_cell_volume   1000.03118544
_cell_formula_units_Z   8
loop_
 _symmetry_equiv_pos_site_id
 _symmetry_equiv_pos_as_xyz
  1  'x, y, z'
loop_
 _atom_site_type_symbol
 _atom_site_label
 _atom_site_symmetry_multiplicity
 _atom_site_fract_x
 _atom_site_fract_y
 _atom_site_fract_z
 _atom_site_occupancy
  Na  Na0  1  0.65657500  0.41044900  0.93050900  1
  Na  Na1  1  0.15657500  0.58955100  0.56949100  1
  Na  Na2  1  0.34342500  0.58955100  0.06949100  1
  Na  Na3  1  0.84342500  0.41044900  0.43050900  1
  Na  Na4  1  0.88227800  0.91193600  0.94212100  1
  Na  Na5  1  0.38227800  0.08806400  0.55787900  1
  Na  Na6  1  0.11772200  0.08806400  0.05787900  1
  Na  Na7  1  0.61772200  0.91193600  0.44212100  1
  Na  Na8  1  0.86509400  0.56706000  0.06703900  1
  Na  Na9  1  0.36509400  0.43294000  0.43296100  1
  Na  Na10  1  0.13490600  0.43294000  0.93296100  1
  Na  Na11  1  0.63490600  0.56706000  0.56703900  1
  Na  Na12  1  0.64838400  0.02476600  0.96359900  1
  Na  Na13  1  0.14838400  0.97523400  0.53640100  1
  Na  Na14  1  0.35161600  0.97523400  0.03640100  1
  Na  Na15  1  0.85161600  0.02476600  0.46359900  1
  B  B0  1  0.98631900  0.31299500  0.20666300  1
  B  B1  1  0.48631900  0.68700500  0.29333700  1
  B  B2  1  0.01368100  0.68700500  0.79333700  1
  B  B3  1  0.51368100  0.31299500  0.70666300  1
  B  B4  1  0.81985300  0.14516200  0.18165900  1
  B  B5  1  0.31985300  0.85483800  0.31834100  1
  B  B6  1  0.18014700  0.85483800  0.81834100  1
  B  B7  1  0.68014700  0.14516200  0.68165900  1
  B  B8  1  0.90649500  0.26415300  0.95669600  1
  B  B9  1  0.40649500  0.73584700  0.54330400  1
  B  B10  1  0.09350500  0.73584700  0.04330400  1
  B  B11  1  0.59350500  0.26415300  0.45669600  1
  B  B12  1  0.95690700  0.18338000  0.71948800  1
  B  B13  1  0.45690700  0.81662000  0.78051200  1
  B  B14  1  0.04309300  0.81662000  0.28051200  1
  B  B15  1  0.54309300  0.18338000  0.21948800  1
  B  B16  1  0.90740800  0.45278200  0.73624100  1
  B  B17  1  0.40740800  0.54721800  0.76375900  1
  B  B18  1  0.09259200  0.54721800  0.26375900  1
  B  B19  1  0.59259200  0.45278200  0.23624100  1
  B  B20  1  0.83228700  0.71416000  0.65121700  1
  B  B21  1  0.33228700  0.28584000  0.84878300  1
  B  B22  1  0.16771300  0.28584000  0.34878300  1
  B  B23  1  0.66771300  0.71416000  0.15121700  1
  H  H0  1  0.75323500  0.93511100  0.18470500  1
  H  H1  1  0.25323500  0.06488900  0.31529500  1
  H  H2  1  0.24676500  0.06488900  0.81529500  1
  H  H3  1  0.74676500  0.93511100  0.68470500  1
  H  H4  1  0.97153900  0.96098900  0.68279100  1
  H  H5  1  0.47153900  0.03901100  0.81720900  1
  H  H6  1  0.02846100  0.03901100  0.31720900  1
  H  H7  1  0.52846100  0.96098900  0.18279100  1
  O  O0  1  0.08276100  0.22275900  0.27156700  1
  O  O1  1  0.58276100  0.77724100  0.22843300  1
  O  O2  1  0.91723900  0.77724100  0.72843300  1
  O  O3  1  0.41723900  0.22275900  0.77156700  1
  O  O4  1  0.98542400  0.46704700  0.25019900  1
  O  O5  1  0.48542400  0.53295300  0.24980100  1
  O  O6  1  0.01457600  0.53295300  0.74980100  1
  O  O7  1  0.51457600  0.46704700  0.75019900  1
  O  O8  1  0.88251800  0.23105000  0.26499400  1
  O  O9  1  0.38251800  0.76895000  0.23500600  1
  O  O10  1  0.11748200  0.76895000  0.73500600  1
  O  O11  1  0.61748200  0.23105000  0.76499400  1
  O  O12  1  0.99237900  0.30550600  0.05444100  1
  O  O13  1  0.49237900  0.69449400  0.44555900  1
  O  O14  1  0.00762100  0.69449400  0.94555900  1
  O  O15  1  0.50762100  0.30550600  0.55444100  1
  O  O16  1  0.76107300  0.02215600  0.24913000  1
  O  O17  1  0.26107300  0.97784400  0.25087000  1
  O  O18  1  0.23892700  0.97784400  0.75087000  1
  O  O19  1  0.73892700  0.02215600  0.74913000  1
  O  O20  1  0.81702800  0.16966000  0.03683700  1
  O  O21  1  0.31702800  0.83034000  0.46316300  1
  O  O22  1  0.18297200  0.83034000  0.96316300  1
  O  O23  1  0.68297200  0.16966000  0.53683700  1
  O  O24  1  0.85601000  0.39556700  0.87337300  1
  O  O25  1  0.35601000  0.60443300  0.62662700  1
  O  O26  1  0.14399000  0.60443300  0.12662700  1
  O  O27  1  0.64399000  0.39556700  0.37337300  1
  O  O28  1  0.96132400  0.15532800  0.86375600  1
  O  O29  1  0.46132400  0.84467200  0.63624400  1
  O  O30  1  0.03867600  0.84467200  0.13624400  1
  O  O31  1  0.53867600  0.15532800  0.36375600  1
  O  O32  1  0.98293600  0.06644500  0.63564700  1
  O  O33  1  0.48293600  0.93355500  0.86435300  1
  O  O34  1  0.01706400  0.93355500  0.36435300  1
  O  O35  1  0.51706400  0.06644500  0.13564700  1
  O  O36  1  0.92855100  0.32175100  0.65069600  1
  O  O37  1  0.42855100  0.67824900  0.84930400  1
  O  O38  1  0.07144900  0.67824900  0.34930400  1
  O  O39  1  0.57144900  0.32175100  0.15069600  1
  O  O40  1  0.82642800  0.55500000  0.65159300  1
  O  O41  1  0.32642800  0.44500000  0.84840700  1
  O  O42  1  0.17357200  0.44500000  0.34840700  1
  O  O43  1  0.67357200  0.55500000  0.15159300  1
  O  O44  1  0.75532900  0.80633300  0.58319800  1
  O  O45  1  0.25532900  0.19366700  0.91680200  1
  O  O46  1  0.24467100  0.19366700  0.41680200  1
  O  O47  1  0.74467100  0.80633300  0.08319800  1
loop_
_geom_bond_atom_site_label_1
_geom_bond_atom_site_label_2
_geom_bond_distance
_geom_bond_site_symmetry_2
Na0 O11 2.388698 1_555
Na0 O39 2.391552 1_556
Na0 O7 2.436439 1_555
Na0 O24 2.464234 1_555
Na0 O43 2.578649 1_556
Na1 O10 2.388698 1_555
Na1 O38 2.391552 1_555
Na1 O6 2.436439 1_555
Na1 O25 2.464234 1_555
Na1 O42 2.578649 1_555
Na2 O9 2.388698 1_555
Na2 O37 2.391552 1_554
Na2 O5 2.436439 1_555
Na2 O26 2.464234 1_555
Na2 O41 2.578649 1_554
Na3 O8 2.388698 1_555
Na3 O36 2.391552 1_555
Na3 O4 2.436439 1_555
Na3 O27 2.464234 1_555
Na3 O40 2.578649 1_555
Na4 O47 2.267915 1_556
Na4 O28 2.385698 1_565
Na4 O14 2.428692 1_655
Na4 O2 2.494946 1_555
Na4 O19 2.630353 1_565
Na4 O20 2.640184 1_566
Na4 O30 2.660634 1_656
Na5 O46 2.267915 1_555
Na5 O29 2.385698 1_545
Na5 O15 2.428692 1_555
Na5 O3 2.494946 1_555
Na5 O18 2.630353 1_545
Na5 O21 2.640184 1_545
Na5 O31 2.660634 1_555
Na6 O45 2.267915 1_554
Na6 O30 2.385698 1_545
Na6 O12 2.428692 1_455
Na6 O0 2.494946 1_555
Na6 O17 2.630353 1_545
Na6 O22 2.640184 1_544
Na6 O28 2.660634 1_454
Na7 O44 2.267915 1_555
Na7 O31 2.385698 1_565
Na7 O13 2.428692 1_555
Na7 O1 2.494946 1_555
Na7 O16 2.630353 1_565
Na7 O23 2.640184 1_565
Na7 O29 2.660634 1_555
Na8 O14 2.292709 1_654
Na8 O4 2.364764 1_555
Na8 O43 2.437298 1_555
Na8 O24 2.502731 1_554
Na8 O47 2.568026 1_555
Na8 O12 2.771363 1_555
Na9 O15 2.292709 1_555
Na9 O5 2.364764 1_555
Na9 O42 2.437298 1_555
Na9 O25 2.502731 1_555
Na9 O46 2.568026 1_555
Na9 O13 2.771363 1_555
Na10 O12 2.292709 1_456
Na10 O6 2.364764 1_555
Na10 O41 2.437298 1_555
Na10 O26 2.502731 1_556
Na10 O45 2.568026 1_555
Na10 O14 2.771363 1_555
Na11 O13 2.292709 1_555
Na11 O7 2.364764 1_555
Na11 O40 2.437298 1_555
Na11 O27 2.502731 1_555
Na11 O44 2.568026 1_555
Na11 O15 2.771363 1_555
Na12 O19 2.318392 1_555
Na12 O35 2.332237 1_556
Na12 O33 2.376224 1_545
Na12 O47 2.420670 1_546
Na12 O11 2.507625 1_555
Na12 O20 2.529079 1_556
Na13 O18 2.318392 1_555
Na13 O34 2.332237 1_555
Na13 O32 2.376224 1_465
Na13 O46 2.420670 1_565
Na13 O10 2.507625 1_555
Na13 O21 2.529079 1_555
Na14 O17 2.318392 1_555
Na14 O33 2.332237 1_554
Na14 O35 2.376224 1_565
Na14 O45 2.420670 1_564
Na14 O9 2.507625 1_555
Na14 O22 2.529079 1_554
Na15 O16 2.318392 1_555
Na15 O32 2.332237 1_555
Na15 O34 2.376224 1_645
Na15 O44 2.420670 1_545
Na15 O8 2.507625 1_555
Na15 O23 2.529079 1_555
B0 O4 1.454949 1_555
B0 O12 1.461359 1_555
B0 O0 1.500461 1_655
B0 O8 1.516355 1_555
B1 O5 1.454949 1_555
B1 O13 1.461359 1_555
B1 O1 1.500461 1_555
B1 O9 1.516355 1_555
B2 O6 1.454949 1_555
B2 O14 1.461359 1_555
B2 O2 1.500461 1_455
B2 O10 1.516355 1_555
B3 O7 1.454949 1_555
B3 O15 1.461359 1_555
B3 O3 1.500461 1_555
B3 O11 1.516355 1_555
B4 O8 1.375113 1_555
B4 O20 1.375507 1_555
B4 O16 1.390606 1_555
B5 O9 1.375113 1_555
B5 O21 1.375507 1_555
B5 O17 1.390606 1_555
B6 O10 1.375113 1_555
B6 O22 1.375507 1_555
B6 O18 1.390606 1_555
B7 O11 1.375113 1_555
B7 O23 1.375507 1_555
B7 O19 1.390606 1_555
B8 O12 1.461363 1_556
B8 O24 1.462478 1_555
B8 O20 1.515166 1_556
B8 O28 1.518970 1_555
B9 O13 1.461363 1_555
B9 O25 1.462478 1_555
B9 O21 1.515166 1_555
B9 O29 1.518970 1_555
B10 O14 1.461363 1_554
B10 O26 1.462478 1_555
B10 O22 1.515166 1_554
B10 O30 1.518970 1_555
B11 O15 1.461363 1_555
B11 O27 1.462478 1_555
B11 O23 1.515166 1_555
B11 O31 1.518970 1_555
B12 O36 1.362139 1_555
B12 O28 1.372892 1_555
B12 O32 1.400141 1_555
B13 O37 1.362139 1_555
B13 O29 1.372892 1_555
B13 O33 1.400141 1_555
B14 O38 1.362139 1_555
B14 O30 1.372892 1_555
B14 O34 1.400141 1_555
B15 O39 1.362139 1_555
B15 O31 1.372892 1_555
B15 O35 1.400141 1_555
B16 O6 1.479604 1_655
B16 O24 1.485417 1_555
B16 O36 1.498997 1_555
B16 O40 1.500865 1_555
B17 O7 1.479604 1_555
B17 O25 1.485417 1_555
B17 O37 1.498997 1_555
B17 O41 1.500865 1_555
B18 O4 1.479604 1_455
B18 O26 1.485417 1_555
B18 O38 1.498997 1_555
B18 O42 1.500865 1_555
B19 O5 1.479604 1_555
B19 O27 1.485417 1_555
B19 O39 1.498997 1_555
B19 O43 1.500865 1_555
B20 O44 1.349501 1_555
B20 O40 1.398220 1_555
B20 O2 1.405456 1_555
B21 O45 1.349501 1_555
B21 O41 1.398220 1_555
B21 O3 1.405456 1_555
B22 O46 1.349501 1_555
B22 O42 1.398220 1_555
B22 O0 1.405456 1_555
B23 O47 1.349501 1_555
B23 O43 1.398220 1_555
B23 O1 1.405456 1_555
H0 O16 1.033061 1_565
H0 O47 1.565795 1_555
H1 O17 1.033061 1_545
H1 O46 1.565795 1_555
H2 O18 1.033061 1_545
H2 O45 1.565795 1_555
H3 O19 1.033061 1_565
H3 O44 1.565795 1_555
H4 O32 0.995427 1_565
H5 O33 0.995427 1_545
H6 O34 0.995427 1_545
H7 O35 0.995427 1_565
