# generated using pymatgen
data_Li8Mn9O18
_symmetry_space_group_name_H-M   'P 1'
_cell_length_a   6.54537900
_cell_length_b   6.54711249
_cell_length_c   16.38282520
_cell_angle_alpha   85.49534643
_cell_angle_beta   85.56666760
_cell_angle_gamma   82.53534701
_symmetry_Int_Tables_number   1
_chemical_formula_structural   Li8Mn9O18
_chemical_formula_sum   'Li16 Mn18 O36'
_cell_volume   692.35797852
_cell_formula_units_Z   2
loop_
 _symmetry_equiv_pos_site_id
 _symmetry_equiv_pos_as_xyz
  1  'x, y, z'
loop_
 _atom_site_type_symbol
 _atom_site_label
 _atom_site_symmetry_multiplicity
 _atom_site_fract_x
 _atom_site_fract_y
 _atom_site_fract_z
 _atom_site_occupancy
  Li  Li0  1  0.08782200  0.41595400  0.24786800  1
  Li  Li1  1  0.08438700  0.42430000  0.58067100  1
  Li  Li2  1  0.08053200  0.40895300  0.92215100  1
  Li  Li3  1  0.26523200  0.24660900  0.41375800  1
  Li  Li4  1  0.24782600  0.24773600  0.74736700  1
  Li  Li5  1  0.41841700  0.08155500  0.25313400  1
  Li  Li6  1  0.42797800  0.08754700  0.57468300  1
  Li  Li7  1  0.40787000  0.08044900  0.92346100  1
  Li  Li8  1  0.56793500  0.92904600  0.08637000  1
  Li  Li9  1  0.74567500  0.75217900  0.25146100  1
  Li  Li10  1  0.57654500  0.91058600  0.75767300  1
  Li  Li11  1  0.75699900  0.76273500  0.57155200  1
  Li  Li12  1  0.92800900  0.56808300  0.08638400  1
  Li  Li13  1  0.90895200  0.60287800  0.40839400  1
  Li  Li14  1  0.74591600  0.74566300  0.92404600  1
  Li  Li15  1  0.91067000  0.57977100  0.75584700  1
  Mn  Mn0  1  0.50754800  0.51187300  0.49898200  1
  Mn  Mn1  1  0.83068700  0.16216300  0.83480000  1
  Mn  Mn2  1  0.99892600  0.99991200  0.66544100  1
  Mn  Mn3  1  0.99681800  0.99675900  0.00303200  1
  Mn  Mn4  1  0.99854000  0.99987800  0.33329700  1
  Mn  Mn5  1  0.16926700  0.83650900  0.16775400  1
  Mn  Mn6  1  0.32770500  0.66035000  0.00091900  1
  Mn  Mn7  1  0.18328600  0.84427200  0.49604000  1
  Mn  Mn8  1  0.33804600  0.66879900  0.33327800  1
  Mn  Mn9  1  0.16212500  0.83019200  0.83466800  1
  Mn  Mn10  1  0.50087200  0.49978500  0.16565900  1
  Mn  Mn11  1  0.32769200  0.66639600  0.66766000  1
  Mn  Mn12  1  0.66112100  0.32775400  0.00092500  1
  Mn  Mn13  1  0.66445000  0.32780600  0.33338300  1
  Mn  Mn14  1  0.49648100  0.49607300  0.83393500  1
  Mn  Mn15  1  0.66468800  0.32973200  0.66757900  1
  Mn  Mn16  1  0.83596500  0.16854300  0.16803300  1
  Mn  Mn17  1  0.83959800  0.17815300  0.49638100  1
  O  O0  1  0.10259200  0.10037600  0.22316000  1
  O  O1  1  0.05067800  0.71946900  0.29959700  1
  O  O2  1  0.12069500  0.12272300  0.53439400  1
  O  O3  1  0.21855900  0.55889000  0.13104600  1
  O  O4  1  0.04436200  0.72067900  0.62890100  1
  O  O5  1  0.11247700  0.11182200  0.87022000  1
  O  O6  1  0.28110900  0.93988900  0.03547600  1
  O  O7  1  0.04714200  0.71318800  0.96491100  1
  O  O8  1  0.22507900  0.56117600  0.46362900  1
  O  O9  1  0.27623600  0.95351400  0.36673900  1
  O  O10  1  0.38268800  0.38510000  0.29683800  1
  O  O11  1  0.21579400  0.54698700  0.79896900  1
  O  O12  1  0.27752900  0.94429600  0.70535200  1
  O  O13  1  0.45121200  0.78431800  0.20246000  1
  O  O14  1  0.38300200  0.38430600  0.63349200  1
  O  O15  1  0.55931100  0.21949200  0.12965000  1
  O  O16  1  0.61033000  0.61068000  0.03455400  1
  O  O17  1  0.44939100  0.78017900  0.54674500  1
  O  O18  1  0.39647900  0.39587100  0.94415300  1
  O  O19  1  0.55655000  0.23216800  0.46548100  1
  O  O20  1  0.61929500  0.60674500  0.36753300  1
  O  O21  1  0.44774800  0.77641700  0.86790500  1
  O  O22  1  0.72442200  0.05324700  0.29286500  1
  O  O23  1  0.54806000  0.21595300  0.79821300  1
  O  O24  1  0.78579700  0.45207900  0.20089200  1
  O  O25  1  0.59790600  0.59757200  0.72203000  1
  O  O26  1  0.72096300  0.05196800  0.62584700  1
  O  O27  1  0.94156000  0.28106900  0.03443800  1
  O  O28  1  0.78598600  0.45824900  0.53877000  1
  O  O29  1  0.71322800  0.04732900  0.96467100  1
  O  O30  1  0.88923300  0.88815700  0.13095200  1
  O  O31  1  0.95017600  0.28010700  0.36831100  1
  O  O32  1  0.77735700  0.44762500  0.86752000  1
  O  O33  1  0.91051000  0.90242900  0.44858800  1
  O  O34  1  0.94484500  0.28060500  0.70321300  1
  O  O35  1  0.88037400  0.88178100  0.79794700  1
loop_
_geom_bond_atom_site_label_1
_geom_bond_atom_site_label_2
_geom_bond_distance
_geom_bond_site_symmetry_2
Li0 O0 2.124969 1_555
Li0 O10 2.126499 1_555
Li0 O24 2.154381 1_455
Li0 O1 2.198456 1_555
Li0 O3 2.223618 1_555
Li0 O31 2.270230 1_455
Li1 O28 2.099030 1_455
Li1 O4 2.129546 1_555
Li1 O2 2.148282 1_555
Li1 O14 2.174990 1_555
Li1 O8 2.235921 1_555
Li1 O34 2.322241 1_455
Li2 O18 2.116182 1_555
Li2 O7 2.142060 1_555
Li2 O27 2.147031 1_456
Li2 O5 2.163034 1_555
Li2 O32 2.216169 1_455
Li2 O11 2.306153 1_555
Li3 O9 2.113891 1_545
Li3 O19 2.133817 1_555
Li3 O10 2.182403 1_555
Li3 O31 2.224673 1_455
Li3 O8 2.251366 1_555
Li3 O2 2.262166 1_555
Li4 O12 2.133576 1_545
Li4 O34 2.142147 1_455
Li4 O23 2.172230 1_555
Li4 O11 2.173306 1_555
Li4 O14 2.179702 1_555
Li4 O5 2.296820 1_555
Li5 O22 2.134446 1_555
Li5 O10 2.143302 1_555
Li5 O0 2.147291 1_555
Li5 O13 2.154079 1_545
Li5 O9 2.173160 1_545
Li5 O15 2.323708 1_555
Li6 O17 2.083329 1_545
Li6 O19 2.124520 1_555
Li6 O26 2.129834 1_555
Li6 O2 2.143588 1_555
Li6 O14 2.211653 1_555
Li6 O12 2.455758 1_545
Li7 O18 2.109782 1_555
Li7 O29 2.137890 1_555
Li7 O6 2.144919 1_546
Li7 O5 2.161167 1_555
Li7 O21 2.229709 1_545
Li7 O23 2.339633 1_555
Li8 O15 2.073564 1_565
Li8 O6 2.103066 1_555
Li8 O13 2.186111 1_555
Li8 O30 2.255719 1_555
Li8 O29 2.266040 1_564
Li8 O16 2.287682 1_555
Li9 O22 2.118724 1_565
Li9 O13 2.123859 1_555
Li9 O24 2.168801 1_555
Li9 O1 2.181511 1_655
Li9 O20 2.209975 1_555
Li9 O30 2.286425 1_555
Li10 O21 2.109856 1_555
Li10 O35 2.124052 1_555
Li10 O23 2.136712 1_565
Li10 O25 2.158985 1_555
Li10 O12 2.175173 1_555
Li10 O26 2.451999 1_565
Li11 O17 2.071594 1_555
Li11 O28 2.086298 1_555
Li11 O26 2.132798 1_565
Li11 O4 2.143440 1_655
Li11 O33 2.353872 1_555
Li12 O3 2.081862 1_655
Li12 O27 2.111728 1_555
Li12 O24 2.156952 1_555
Li12 O30 2.249980 1_555
Li12 O7 2.264191 1_654
Li12 O16 2.281991 1_555
Li13 O20 2.055318 1_555
Li13 O1 2.082023 1_655
Li13 O33 2.118747 1_555
Li13 O31 2.238782 1_555
Li13 O8 2.297551 1_655
Li13 O28 2.391894 1_555
Li14 O7 2.110346 1_655
Li14 O29 2.112864 1_565
Li14 O16 2.133152 1_556
Li14 O21 2.200368 1_555
Li14 O32 2.203974 1_555
Li14 O35 2.338808 1_555
Li15 O35 2.125070 1_555
Li15 O32 2.134898 1_555
Li15 O25 2.148158 1_555
Li15 O11 2.148650 1_655
Li15 O34 2.179823 1_555
Li15 O4 2.359902 1_655
Mn0 O19 1.932786 1_555
Mn0 O17 1.959354 1_555
Mn0 O8 1.959354 1_555
Mn0 O28 1.962411 1_555
Mn0 O20 2.285345 1_555
Mn0 O14 2.414182 1_555
Mn1 O5 1.955689 1_655
Mn1 O35 1.956700 1_545
Mn1 O32 1.964970 1_555
Mn1 O23 1.968356 1_555
Mn1 O29 2.308520 1_555
Mn1 O34 2.333647 1_555
Mn2 O4 1.947338 1_655
Mn2 O26 1.957970 1_565
Mn2 O12 1.964663 1_655
Mn2 O34 1.964999 1_565
Mn2 O2 2.349858 1_665
Mn2 O35 2.354688 1_555
Mn3 O27 1.951188 1_565
Mn3 O6 1.955888 1_655
Mn3 O7 1.984144 1_654
Mn3 O29 1.984454 1_564
Mn3 O30 2.249720 1_555
Mn3 O5 2.347535 1_664
Mn4 O9 1.918474 1_655
Mn4 O1 1.938812 1_655
Mn4 O22 1.940235 1_565
Mn4 O31 1.944656 1_565
Mn4 O0 1.972925 1_665
Mn4 O33 2.011110 1_555
Mn5 O3 1.938754 1_555
Mn5 O13 1.952828 1_555
Mn5 O30 1.953270 1_455
Mn5 O0 1.997013 1_565
Mn5 O6 2.311571 1_555
Mn5 O1 2.343175 1_555
Mn6 O6 1.937550 1_555
Mn6 O16 1.950542 1_555
Mn6 O7 1.952015 1_554
Mn6 O18 2.012850 1_554
Mn6 O3 2.271961 1_555
Mn6 O21 2.360892 1_554
Mn7 O8 1.947432 1_555
Mn7 O2 1.957614 1_565
Mn7 O17 1.969486 1_555
Mn7 O33 1.982046 1_455
Mn7 O9 2.246058 1_555
Mn7 O4 2.414104 1_555
Mn8 O20 1.948952 1_555
Mn8 O9 1.967025 1_555
Mn8 O10 1.974320 1_555
Mn8 O1 1.980405 1_555
Mn8 O8 2.293153 1_555
Mn8 O13 2.315031 1_555
Mn9 O5 1.956635 1_565
Mn9 O35 1.963340 1_455
Mn9 O21 1.967681 1_555
Mn9 O11 1.967932 1_555
Mn9 O12 2.295120 1_555
Mn9 O7 2.313200 1_555
Mn10 O15 1.953135 1_555
Mn10 O3 1.956416 1_555
Mn10 O24 1.973701 1_555
Mn10 O13 1.981975 1_555
Mn10 O16 2.303492 1_555
Mn10 O10 2.328340 1_555
Mn11 O12 1.946638 1_555
Mn11 O14 1.952611 1_555
Mn11 O4 1.985961 1_555
Mn11 O25 2.024356 1_555
Mn11 O17 2.189060 1_555
Mn11 O11 2.327306 1_555
Mn12 O27 1.935946 1_555
Mn12 O29 1.953757 1_554
Mn12 O16 1.953774 1_555
Mn12 O18 2.011865 1_554
Mn12 O15 2.250446 1_555
Mn12 O32 2.366439 1_554
Mn13 O20 1.931378 1_555
Mn13 O22 1.946735 1_555
Mn13 O10 1.963684 1_555
Mn13 O31 1.976911 1_555
Mn13 O19 2.289127 1_555
Mn13 O24 2.372387 1_555
Mn14 O32 1.939243 1_555
Mn14 O21 1.939383 1_555
Mn14 O11 1.946320 1_555
Mn14 O23 1.948618 1_555
Mn14 O18 1.965218 1_555
Mn14 O25 1.994611 1_555
Mn15 O34 1.946688 1_555
Mn15 O14 1.948223 1_555
Mn15 O26 1.972957 1_555
Mn15 O25 2.012003 1_555
Mn15 O23 2.315743 1_555
Mn15 O28 2.329624 1_555
Mn16 O15 1.942124 1_555
Mn16 O24 1.953173 1_555
Mn16 O30 1.958724 1_545
Mn16 O0 2.009590 1_655
Mn16 O22 2.226016 1_555
Mn16 O27 2.335779 1_555
Mn17 O19 1.939150 1_555
Mn17 O2 1.967959 1_655
Mn17 O28 1.990845 1_555
Mn17 O33 2.008822 1_545
Mn17 O31 2.245530 1_555
Mn17 O26 2.328309 1_555
