# generated using pymatgen
data_LiFe2F7
_symmetry_space_group_name_H-M   'P 1'
_cell_length_a   5.18460400
_cell_length_b   5.58297900
_cell_length_c   10.10663785
_cell_angle_alpha   81.17674542
_cell_angle_beta   90.00000000
_cell_angle_gamma   90.00000000
_symmetry_Int_Tables_number   1
_chemical_formula_structural   LiFe2F7
_chemical_formula_sum   'Li2 Fe4 F14'
_cell_volume   289.08016053
_cell_formula_units_Z   2
loop_
 _symmetry_equiv_pos_site_id
 _symmetry_equiv_pos_as_xyz
  1  'x, y, z'
loop_
 _atom_site_type_symbol
 _atom_site_label
 _atom_site_symmetry_multiplicity
 _atom_site_fract_x
 _atom_site_fract_y
 _atom_site_fract_z
 _atom_site_occupancy
  Li  Li0  1  0.05655900  0.50000000  0.75000000  1
  Li  Li1  1  0.94344100  0.50000000  0.25000000  1
  Fe  Fe0  1  0.74993400  0.92398900  0.93034200  1
  Fe  Fe1  1  0.25006600  0.92398900  0.43034200  1
  Fe  Fe2  1  0.74993400  0.07601100  0.56965800  1
  Fe  Fe3  1  0.25006600  0.07601100  0.06965800  1
  F  F0  1  0.59731900  0.00000000  0.75000000  1
  F  F1  1  0.40268100  0.00000000  0.25000000  1
  F  F2  1  0.06073500  0.86060800  0.60849600  1
  F  F3  1  0.93926500  0.86060800  0.10849600  1
  F  F4  1  0.56774100  0.78484300  0.51253600  1
  F  F5  1  0.43225900  0.78484300  0.01253600  1
  F  F6  1  0.90028000  0.65254500  0.87666900  1
  F  F7  1  0.09972000  0.65254500  0.37666900  1
  F  F8  1  0.90028000  0.34745500  0.62333100  1
  F  F9  1  0.09972000  0.34745500  0.12333100  1
  F  F10  1  0.56774100  0.21515700  0.98746400  1
  F  F11  1  0.43225900  0.21515700  0.48746400  1
  F  F12  1  0.06073500  0.13939200  0.89150400  1
  F  F13  1  0.93926500  0.13939200  0.39150400  1
loop_
_geom_bond_atom_site_label_1
_geom_bond_atom_site_label_2
_geom_bond_distance
_geom_bond_site_symmetry_2
F0 Fe2 1.972546 1_555
F0 Fe0 1.972546 1_545
F1 Fe3 1.972546 1_555
F1 Fe1 1.972546 1_545
F2 Fe2 2.012966 1_465
F2 Fe1 2.033531 1_555
F2 Li0 2.283793 1_555
F3 Fe3 2.012966 1_665
F3 Fe0 2.033531 1_554
F3 Li1 2.283793 1_555
F4 Fe1 1.951478 1_555
F4 Fe2 2.038622 1_565
F5 Fe0 1.951478 1_554
F5 Fe3 2.038622 1_565
F6 Li0 1.831718 1_655
F6 Fe0 1.857600 1_555
F7 Li1 1.831718 1_455
F7 Fe1 1.857600 1_555
F8 Li0 1.831718 1_655
F8 Fe2 1.857600 1_555
F9 Li1 1.831718 1_455
F9 Fe3 1.857600 1_555
F10 Fe3 1.951478 1_556
F10 Fe0 2.038622 1_545
F11 Fe2 1.951478 1_555
F11 Fe1 2.038622 1_545
F12 Fe0 2.012966 1_445
F12 Fe3 2.033531 1_556
F12 Li0 2.283793 1_555
F13 Fe1 2.012966 1_645
F13 Fe2 2.033531 1_555
F13 Li1 2.283793 1_555
