# generated using pymatgen
data_NbFeO4
_symmetry_space_group_name_H-M   'P 1'
_cell_length_a   6.19038000
_cell_length_b   6.19038000
_cell_length_c   8.55942200
_cell_angle_alpha   90.00000000
_cell_angle_beta   90.00000000
_cell_angle_gamma   90.00000000
_symmetry_Int_Tables_number   1
_chemical_formula_structural   NbFeO4
_chemical_formula_sum   'Nb4 Fe4 O16'
_cell_volume   328.00393748
_cell_formula_units_Z   4
loop_
 _symmetry_equiv_pos_site_id
 _symmetry_equiv_pos_as_xyz
  1  'x, y, z'
loop_
 _atom_site_type_symbol
 _atom_site_label
 _atom_site_symmetry_multiplicity
 _atom_site_fract_x
 _atom_site_fract_y
 _atom_site_fract_z
 _atom_site_occupancy
  Nb  Nb0  1  0.20563200  0.50000000  0.25000000  1
  Nb  Nb1  1  0.50000000  0.20563200  0.00000000  1
  Nb  Nb2  1  0.50000000  0.79436800  0.50000000  1
  Nb  Nb3  1  0.79436800  0.50000000  0.75000000  1
  Fe  Fe0  1  0.26506200  0.26506200  0.62500000  1
  Fe  Fe1  1  0.26506200  0.73493800  0.87500000  1
  Fe  Fe2  1  0.73493800  0.26506200  0.37500000  1
  Fe  Fe3  1  0.73493800  0.73493800  0.12500000  1
  O  O0  1  0.00393100  0.27721100  0.27211000  1
  O  O1  1  0.00393100  0.72278900  0.22789000  1
  O  O2  1  0.27721100  0.00393100  0.97789000  1
  O  O3  1  0.27721100  0.99606900  0.52211000  1
  O  O4  1  0.27793200  0.49510200  0.01930400  1
  O  O5  1  0.27793200  0.50489800  0.48069500  1
  O  O6  1  0.49510200  0.27793200  0.23069500  1
  O  O7  1  0.49510200  0.72206800  0.26930500  1
  O  O8  1  0.50489800  0.27793200  0.76930400  1
  O  O9  1  0.50489800  0.72206800  0.73069600  1
  O  O10  1  0.72206800  0.50489800  0.51930400  1
  O  O11  1  0.72206800  0.49510200  0.98069600  1
  O  O12  1  0.72278900  0.00393100  0.02211000  1
  O  O13  1  0.72278900  0.99606900  0.47789000  1
  O  O14  1  0.99606900  0.27721100  0.72789000  1
  O  O15  1  0.99606900  0.72278900  0.77211000  1
loop_
_geom_bond_atom_site_label_1
_geom_bond_atom_site_label_2
_geom_bond_distance
_geom_bond_site_symmetry_2
Nb0 O1 1.869995 1_555
Nb0 O0 1.869995 1_555
Nb0 O5 2.024930 1_555
Nb0 O4 2.024938 1_555
Nb0 O7 2.264525 1_555
Nb0 O6 2.264525 1_555
Nb1 O12 1.869995 1_555
Nb1 O2 1.869995 1_554
Nb1 O6 2.024930 1_555
Nb1 O8 2.024938 1_554
Nb1 O11 2.264525 1_554
Nb1 O4 2.264525 1_555
Nb2 O13 1.869995 1_555
Nb2 O3 1.869995 1_555
Nb2 O7 2.024930 1_555
Nb2 O9 2.024938 1_555
Nb2 O10 2.264525 1_555
Nb2 O5 2.264525 1_555
Nb3 O14 1.869995 1_555
Nb3 O15 1.869995 1_555
Nb3 O11 2.024938 1_555
Nb3 O10 2.024938 1_555
Nb3 O9 2.264525 1_555
Nb3 O8 2.264525 1_555
Fe0 O3 1.885216 1_545
Fe0 O14 1.885216 1_455
Fe0 O8 1.932932 1_555
Fe0 O5 1.932938 1_555
Fe1 O15 1.885216 1_455
Fe1 O2 1.885216 1_565
Fe1 O4 1.932932 1_556
Fe1 O9 1.932932 1_555
Fe2 O13 1.885216 1_545
Fe2 O0 1.885216 1_655
Fe2 O10 1.932932 1_555
Fe2 O6 1.932938 1_555
Fe3 O1 1.885216 1_655
Fe3 O12 1.885216 1_565
Fe3 O11 1.932932 1_554
Fe3 O7 1.932938 1_555
