# generated using pymatgen
data_Li6NbFe5O12
_symmetry_space_group_name_H-M   'P 1'
_cell_length_a   5.21312583
_cell_length_b   5.21312583
_cell_length_c   10.31009846
_cell_angle_alpha   85.85266842
_cell_angle_beta   85.85266842
_cell_angle_gamma   120.15050611
_symmetry_Int_Tables_number   1
_chemical_formula_structural   Li6NbFe5O12
_chemical_formula_sum   'Li6 Nb1 Fe5 O12'
_cell_volume   239.72689720
_cell_formula_units_Z   1
loop_
 _symmetry_equiv_pos_site_id
 _symmetry_equiv_pos_as_xyz
  1  'x, y, z'
loop_
 _atom_site_type_symbol
 _atom_site_label
 _atom_site_symmetry_multiplicity
 _atom_site_fract_x
 _atom_site_fract_y
 _atom_site_fract_z
 _atom_site_occupancy
  Li  Li0  1  0.29739600  0.94669400  0.24711400  1
  Li  Li1  1  0.04300400  0.70012800  0.75771900  1
  Li  Li2  1  0.38561100  0.38561100  0.74792200  1
  Li  Li3  1  0.61750900  0.61750900  0.24249200  1
  Li  Li4  1  0.94669400  0.29739600  0.24711400  1
  Li  Li5  1  0.70012800  0.04300400  0.75771900  1
  Nb  Nb0  1  0.02182000  0.02182000  0.00099800  1
  Fe  Fe0  1  0.66141500  0.33035700  0.99986000  1
  Fe  Fe1  1  0.50021400  0.50021400  0.49714100  1
  Fe  Fe2  1  0.33035700  0.66141500  0.99986000  1
  Fe  Fe3  1  0.83260700  0.16426600  0.50101300  1
  Fe  Fe4  1  0.16426600  0.83260700  0.50101300  1
  O  O0  1  0.65748300  0.98008100  0.11431700  1
  O  O1  1  0.03020400  0.34398000  0.87749500  1
  O  O2  1  0.53729300  0.20027700  0.38743000  1
  O  O3  1  0.13308900  0.13308900  0.60908600  1
  O  O4  1  0.79671800  0.46414500  0.61269000  1
  O  O5  1  0.28382500  0.28382500  0.12560000  1
  O  O6  1  0.70570500  0.70570500  0.89181800  1
  O  O7  1  0.20027700  0.53729300  0.38743000  1
  O  O8  1  0.86663400  0.86663400  0.38948100  1
  O  O9  1  0.46414500  0.79671800  0.61269000  1
  O  O10  1  0.98008100  0.65748300  0.11431700  1
  O  O11  1  0.34398000  0.03020400  0.87749500  1
loop_
_geom_bond_atom_site_label_1
_geom_bond_atom_site_label_2
_geom_bond_distance
_geom_bond_site_symmetry_2
Li0 O2 2.069301 1_565
Li0 O5 2.117224 1_565
Li0 O0 2.166619 1_555
Li0 O10 2.237164 1_455
Li0 O7 2.294829 1_555
Li0 O8 2.421694 1_455
Li1 O4 2.086806 1_455
Li1 O1 2.123337 1_555
Li1 O6 2.170206 1_455
Li1 O11 2.196179 1_565
Li1 O9 2.369632 1_555
Li1 O3 2.448283 1_565
Li2 O3 2.078260 1_555
Li2 O11 2.112031 1_555
Li2 O1 2.112031 1_555
Li2 O4 2.304014 1_555
Li2 O9 2.304014 1_555
Li2 O6 2.385173 1_555
Li3 O8 2.131906 1_555
Li3 O10 2.136724 1_555
Li3 O0 2.136724 1_555
Li3 O5 2.251917 1_555
Li3 O7 2.380052 1_555
Li3 O2 2.380052 1_555
Li4 O7 2.069301 1_655
Li4 O5 2.117224 1_655
Li4 O10 2.166619 1_555
Li4 O0 2.237164 1_545
Li4 O2 2.294829 1_555
Li4 O8 2.421694 1_545
Li5 O9 2.086806 1_545
Li5 O11 2.123337 1_555
Li5 O6 2.170206 1_545
Li5 O1 2.196179 1_655
Li5 O4 2.369632 1_555
Li5 O3 2.448283 1_655
Nb0 O5 2.003760 1_555
Nb0 O11 2.013146 1_554
Nb0 O1 2.013146 1_554
Nb0 O0 2.060805 1_445
Nb0 O10 2.060805 1_445
Nb0 O6 2.122997 1_444
Fe0 O6 2.077652 1_555
Fe0 O0 2.091551 1_546
Fe0 O5 2.172535 1_556
Fe0 O11 2.182852 1_555
Fe0 O10 2.188436 1_556
Fe0 O1 2.189040 1_655
Fe1 O8 2.061783 1_555
Fe1 O2 2.071113 1_555
Fe1 O7 2.071113 1_555
Fe1 O3 2.083105 1_555
Fe1 O9 2.090394 1_555
Fe1 O4 2.090394 1_555
Fe2 O6 2.077652 1_555
Fe2 O10 2.091551 1_456
Fe2 O5 2.172535 1_556
Fe2 O1 2.182852 1_555
Fe2 O0 2.188436 1_556
Fe2 O11 2.189040 1_565
Fe3 O3 2.050302 1_655
Fe3 O8 2.065488 1_545
Fe3 O2 2.072677 1_555
Fe3 O4 2.080305 1_555
Fe3 O9 2.085780 1_545
Fe3 O7 2.104388 1_655
Fe4 O3 2.050302 1_565
Fe4 O8 2.065488 1_455
Fe4 O7 2.072677 1_555
Fe4 O9 2.080305 1_555
Fe4 O4 2.085780 1_455
Fe4 O2 2.104388 1_565
