# generated using pymatgen
data_Li5Co2Ni3O10
_symmetry_space_group_name_H-M   'P 1'
_cell_length_a   5.06081662
_cell_length_b   9.94475589
_cell_length_c   7.69396646
_cell_angle_alpha   70.93444846
_cell_angle_beta   77.82060777
_cell_angle_gamma   99.02759654
_symmetry_Int_Tables_number   1
_chemical_formula_structural   Li5Co2Ni3O10
_chemical_formula_sum   'Li10 Co4 Ni6 O20'
_cell_volume   346.89584956
_cell_formula_units_Z   2
loop_
 _symmetry_equiv_pos_site_id
 _symmetry_equiv_pos_as_xyz
  1  'x, y, z'
loop_
 _atom_site_type_symbol
 _atom_site_label
 _atom_site_symmetry_multiplicity
 _atom_site_fract_x
 _atom_site_fract_y
 _atom_site_fract_z
 _atom_site_occupancy
  Li  Li0  1  0.99999000  0.99999600  0.50000300  1
  Li  Li1  1  0.50000200  0.50000600  0.99999400  1
  Li  Li2  1  0.59511800  0.09765300  0.30664600  1
  Li  Li3  1  0.09514600  0.59765900  0.80664600  1
  Li  Li4  1  0.40490100  0.90234200  0.69335600  1
  Li  Li5  1  0.90486200  0.40234500  0.19335100  1
  Li  Li6  1  0.70275600  0.19966800  0.58799500  1
  Li  Li7  1  0.20278800  0.69967600  0.08797500  1
  Li  Li8  1  0.29724900  0.80033400  0.41201300  1
  Li  Li9  1  0.79722700  0.30032600  0.91201900  1
  Co  Co0  1  0.79627900  0.79669900  0.89695500  1
  Co  Co1  1  0.20373200  0.20329800  0.10306200  1
  Co  Co2  1  0.29626400  0.29669400  0.39693900  1
  Co  Co3  1  0.70374700  0.70329800  0.60303200  1
  Ni  Ni0  1  0.49998000  0.99999500  0.99999600  1
  Ni  Ni1  1  0.59922400  0.60118000  0.29585100  1
  Ni  Ni2  1  0.40079400  0.39882700  0.70416400  1
  Ni  Ni3  1  0.99995500  0.49999700  0.49999800  1
  Ni  Ni4  1  0.09919900  0.10118100  0.79584600  1
  Ni  Ni5  1  0.90075700  0.89882200  0.20414900  1
  O  O0  1  0.62216400  0.39583200  0.44564300  1
  O  O1  1  0.12217000  0.89582800  0.94564100  1
  O  O2  1  0.37785800  0.60417500  0.55435400  1
  O  O3  1  0.87782700  0.10416800  0.05436000  1
  O  O4  1  0.06287600  0.30335400  0.62971000  1
  O  O5  1  0.56284500  0.80334600  0.12971600  1
  O  O6  1  0.93712400  0.69664300  0.37028900  1
  O  O7  1  0.43715200  0.19664700  0.87028400  1
  O  O8  1  0.99204000  0.20730900  0.33799500  1
  O  O9  1  0.49201000  0.70729100  0.83800800  1
  O  O10  1  0.00796100  0.79269300  0.66200400  1
  O  O11  1  0.50798500  0.29271300  0.16199500  1
  O  O12  1  0.25972900  0.01179700  0.22778000  1
  O  O13  1  0.75975500  0.51179800  0.72780200  1
  O  O14  1  0.74025400  0.98819300  0.77222600  1
  O  O15  1  0.24025800  0.48820800  0.27220300  1
  O  O16  1  0.34512600  0.11714800  0.54118300  1
  O  O17  1  0.84514600  0.61714500  0.04119900  1
  O  O18  1  0.65488400  0.88285800  0.45882800  1
  O  O19  1  0.15486600  0.38285800  0.95879200  1
loop_
_geom_bond_atom_site_label_1
_geom_bond_atom_site_label_2
_geom_bond_distance
_geom_bond_site_symmetry_2
Li0 O10 2.043014 1_655
Li0 O8 2.043078 1_565
Li0 O18 2.084173 1_555
Li0 O16 2.084378 1_665
Li0 O14 2.181225 1_555
Li0 O12 2.181238 1_665
Li1 O9 2.042868 1_555
Li1 O11 2.042952 1_556
Li1 O19 2.084446 1_555
Li1 O17 2.084446 1_556
Li1 O13 2.181103 1_555
Li1 O15 2.181171 1_556
Li2 O16 2.058334 1_555
Li2 O11 2.064245 1_555
Li2 O12 2.072781 1_555
Li2 O3 2.129772 1_555
Li2 O18 2.177964 1_545
Li2 O8 2.229637 1_555
Li3 O17 2.058405 1_456
Li3 O10 2.064144 1_555
Li3 O13 2.072707 1_455
Li3 O2 2.129811 1_555
Li3 O19 2.177850 1_555
Li3 O9 2.229342 1_555
Li4 O18 2.058207 1_555
Li4 O9 2.064118 1_555
Li4 O14 2.072632 1_555
Li4 O1 2.129823 1_555
Li4 O16 2.178055 1_565
Li4 O10 2.229698 1_555
Li5 O19 2.058454 1_654
Li5 O8 2.064148 1_555
Li5 O15 2.072772 1_655
Li5 O0 2.129788 1_555
Li5 O17 2.177845 1_555
Li5 O11 2.229377 1_555
Li6 O16 2.020137 1_555
Li6 O0 2.052776 1_555
Li6 O4 2.088308 1_655
Li6 O8 2.128455 1_555
Li6 O14 2.181596 1_545
Li6 O7 2.288624 1_555
Li7 O17 2.020086 1_455
Li7 O1 2.052703 1_554
Li7 O5 2.088079 1_555
Li7 O9 2.128206 1_554
Li7 O15 2.181481 1_555
Li7 O6 2.288853 1_455
Li8 O18 2.020183 1_555
Li8 O2 2.052753 1_555
Li8 O6 2.088384 1_455
Li8 O10 2.128413 1_555
Li8 O12 2.181552 1_565
Li8 O5 2.288694 1_555
Li9 O19 2.020065 1_655
Li9 O3 2.052724 1_556
Li9 O7 2.088168 1_555
Li9 O11 2.128315 1_556
Li9 O13 2.181486 1_555
Li9 O4 2.288811 1_655
Co0 O17 1.855000 1_556
Co0 O9 1.869723 1_555
Co0 O10 1.913204 1_655
Co0 O14 1.928278 1_555
Co0 O5 1.953538 1_556
Co0 O1 1.955491 1_655
Co1 O19 1.855108 1_554
Co1 O11 1.869626 1_555
Co1 O8 1.913128 1_455
Co1 O12 1.928262 1_555
Co1 O7 1.953630 1_554
Co1 O3 1.955618 1_455
Co2 O16 1.854927 1_555
Co2 O8 1.869430 1_455
Co2 O11 1.913127 1_555
Co2 O15 1.928418 1_555
Co2 O4 1.953558 1_555
Co2 O0 1.955640 1_555
Co3 O18 1.854943 1_555
Co3 O10 1.869555 1_655
Co3 O9 1.913411 1_555
Co3 O13 1.928358 1_555
Co3 O6 1.953341 1_555
Co3 O2 1.955424 1_555
Ni0 O14 1.960484 1_555
Ni0 O12 1.960517 1_566
Ni0 O7 1.993904 1_565
Ni0 O5 1.993971 1_556
Ni0 O1 2.214205 1_555
Ni0 O3 2.214420 1_566
Ni1 O0 2.026160 1_555
Ni1 O17 2.029486 1_555
Ni1 O15 2.056229 1_555
Ni1 O5 2.060683 1_555
Ni1 O2 2.078635 1_555
Ni1 O6 2.100607 1_555
Ni2 O2 2.026188 1_555
Ni2 O19 2.029335 1_555
Ni2 O13 2.056169 1_555
Ni2 O7 2.060716 1_555
Ni2 O0 2.078760 1_555
Ni2 O4 2.100794 1_555
Ni3 O13 1.960519 1_555
Ni3 O15 1.960641 1_655
Ni3 O6 1.993856 1_555
Ni3 O4 1.994026 1_655
Ni3 O0 2.214117 1_555
Ni3 O2 2.214643 1_655
Ni4 O1 2.026260 1_545
Ni4 O16 2.029558 1_555
Ni4 O14 2.056114 1_445
Ni4 O4 2.060635 1_555
Ni4 O3 2.078685 1_456
Ni4 O7 2.100834 1_555
Ni5 O3 2.026121 1_565
Ni5 O18 2.029559 1_555
Ni5 O12 2.056208 1_665
Ni5 O6 2.060775 1_555
Ni5 O1 2.078745 1_654
Ni5 O5 2.100686 1_555
