# generated using pymatgen
data_LiSn3(P3O10)2
_symmetry_space_group_name_H-M   'P 1'
_cell_length_a   8.76783090
_cell_length_b   8.76783090
_cell_length_c   12.51792400
_cell_angle_alpha   90.00000000
_cell_angle_beta   90.00000000
_cell_angle_gamma   105.53889699
_symmetry_Int_Tables_number   1
_chemical_formula_structural   LiSn3(P3O10)2
_chemical_formula_sum   'Li2 Sn6 P12 O40'
_cell_volume   927.13992797
_cell_formula_units_Z   2
loop_
 _symmetry_equiv_pos_site_id
 _symmetry_equiv_pos_as_xyz
  1  'x, y, z'
loop_
 _atom_site_type_symbol
 _atom_site_label
 _atom_site_symmetry_multiplicity
 _atom_site_fract_x
 _atom_site_fract_y
 _atom_site_fract_z
 _atom_site_occupancy
  Li  Li0  1  0.58274100  0.58274100  0.50000000  1
  Li  Li1  1  0.41725900  0.41725900  0.00000000  1
  Sn  Sn0  1  0.12638100  0.12638100  0.00000000  1
  Sn  Sn1  1  0.70289600  0.29710400  0.25000000  1
  Sn  Sn2  1  0.77635500  0.22364500  0.75000000  1
  Sn  Sn3  1  0.29710400  0.70289600  0.75000000  1
  Sn  Sn4  1  0.22364500  0.77635500  0.25000000  1
  Sn  Sn5  1  0.87361900  0.87361900  0.50000000  1
  P  P0  1  0.09267800  0.37797700  0.31799100  1
  P  P1  1  0.37797700  0.09267800  0.68200900  1
  P  P2  1  0.21934300  0.31717400  0.77745000  1
  P  P3  1  0.31717400  0.21934300  0.22255000  1
  P  P4  1  0.71457800  0.14513100  0.01640400  1
  P  P5  1  0.14513100  0.71457800  0.98359600  1
  P  P6  1  0.85486900  0.28542200  0.48359600  1
  P  P7  1  0.28542200  0.85486900  0.51640400  1
  P  P8  1  0.68282600  0.78065700  0.72255000  1
  P  P9  1  0.78065700  0.68282600  0.27745000  1
  P  P10  1  0.90732200  0.62202300  0.81799100  1
  P  P11  1  0.62202300  0.90732200  0.18200900  1
  O  O0  1  0.24300700  0.18335200  0.69131400  1
  O  O1  1  0.18335200  0.24300700  0.30868600  1
  O  O2  1  0.36419800  0.03590200  0.56070800  1
  O  O3  1  0.03590200  0.36419800  0.43929200  1
  O  O4  1  0.31625200  0.32634900  0.12652800  1
  O  O5  1  0.32634900  0.31625200  0.87347200  1
  O  O6  1  0.04946100  0.66586800  0.74288400  1
  O  O7  1  0.66586800  0.04946100  0.25711600  1
  O  O8  1  0.46925500  0.26582000  0.29033700  1
  O  O9  1  0.26582000  0.46925500  0.70966300  1
  O  O10  1  0.95531000  0.73692300  0.30962200  1
  O  O11  1  0.73692300  0.95531000  0.69037800  1
  O  O12  1  0.21111000  0.53692500  0.30478000  1
  O  O13  1  0.53692500  0.21111000  0.69522000  1
  O  O14  1  0.14345100  0.65125800  0.09637700  1
  O  O15  1  0.65125800  0.14345100  0.90362300  1
  O  O16  1  0.10844600  0.82385000  0.52991400  1
  O  O17  1  0.82385000  0.10844600  0.47008600  1
  O  O18  1  0.25509900  0.64623700  0.91054700  1
  O  O19  1  0.64623700  0.25509900  0.08945300  1
  O  O20  1  0.74490100  0.35376300  0.41054700  1
  O  O21  1  0.35376300  0.74490100  0.58945300  1
  O  O22  1  0.89155400  0.17615000  0.02991400  1
  O  O23  1  0.17615000  0.89155400  0.97008600  1
  O  O24  1  0.85654900  0.34874200  0.59637700  1
  O  O25  1  0.34874200  0.85654900  0.40362300  1
  O  O26  1  0.78889000  0.46307500  0.80478000  1
  O  O27  1  0.46307500  0.78889000  0.19522000  1
  O  O28  1  0.04469000  0.26307700  0.80962200  1
  O  O29  1  0.26307700  0.04469000  0.19037800  1
  O  O30  1  0.53074500  0.73418000  0.79033700  1
  O  O31  1  0.73418000  0.53074500  0.20966300  1
  O  O32  1  0.95053900  0.33413200  0.24288400  1
  O  O33  1  0.33413200  0.95053900  0.75711600  1
  O  O34  1  0.68374800  0.67365100  0.62652800  1
  O  O35  1  0.67365100  0.68374800  0.37347200  1
  O  O36  1  0.96409800  0.63580200  0.93929200  1
  O  O37  1  0.63580200  0.96409800  0.06070800  1
  O  O38  1  0.81664800  0.75699300  0.80868600  1
  O  O39  1  0.75699300  0.81664800  0.19131400  1
loop_
_geom_bond_atom_site_label_1
_geom_bond_atom_site_label_2
_geom_bond_distance
_geom_bond_site_symmetry_2
Li0 O34 1.884164 1_555
Li0 O35 1.884164 1_555
Li1 O4 1.884164 1_555
Li1 O5 1.884164 1_554
O0 P1 1.596907 1_555
O0 P2 1.647056 1_555
O1 P0 1.596907 1_555
O1 P3 1.647056 1_555
O2 P1 1.592429 1_555
O2 P7 1.648229 1_545
O3 P0 1.592429 1_555
O3 P6 1.648229 1_455
O4 P3 1.526159 1_555
O4 Sn0 2.605804 1_555
O5 P2 1.526159 1_555
O5 Sn0 2.605804 1_556
O6 P10 1.525837 1_455
O6 Sn3 2.109540 1_555
O7 P11 1.525837 1_545
O7 Sn1 2.109540 1_555
O8 P3 1.540448 1_555
O8 Sn1 2.055625 1_555
O9 P2 1.540448 1_555
O9 Sn3 2.055625 1_555
O10 P9 1.530677 1_555
O10 Sn4 2.403335 1_655
O11 P8 1.530677 1_555
O11 Sn2 2.403335 1_565
O12 P0 1.507467 1_555
O12 Sn4 2.183042 1_555
O13 P1 1.507467 1_555
O13 Sn2 2.183042 1_555
O14 P5 1.515649 1_554
O14 Sn4 2.232108 1_555
O15 P4 1.515649 1_556
O15 Sn2 2.232108 1_555
O16 P7 1.511363 1_555
O16 Sn5 2.247482 1_455
O17 P6 1.511363 1_555
O17 Sn5 2.247482 1_545
O18 P5 1.560256 1_555
O18 Sn3 2.079268 1_555
O19 P4 1.560256 1_555
O19 Sn1 2.079268 1_555
O20 P6 1.560256 1_555
O20 Sn1 2.079268 1_555
O21 P7 1.560256 1_555
O21 Sn3 2.079268 1_555
O22 P4 1.511363 1_555
O22 Sn0 2.247482 1_655
O23 P5 1.511363 1_555
O23 Sn0 2.247482 1_566
O24 P6 1.515649 1_555
O24 Sn2 2.232108 1_555
O25 P7 1.515649 1_555
O25 Sn4 2.232108 1_555
O26 P10 1.507467 1_555
O26 Sn2 2.183042 1_555
O27 P11 1.507467 1_555
O27 Sn4 2.183042 1_555
O28 P2 1.530677 1_555
O28 Sn2 2.403335 1_455
O29 P3 1.530677 1_555
O29 Sn4 2.403335 1_545
O30 P8 1.540448 1_555
O30 Sn3 2.055625 1_555
O31 P9 1.540448 1_555
O31 Sn1 2.055625 1_555
O32 P0 1.525837 1_655
O32 Sn1 2.109540 1_555
O33 P1 1.525837 1_565
O33 Sn3 2.109540 1_555
O34 P8 1.526159 1_555
O34 Sn5 2.605804 1_555
O35 P9 1.526159 1_555
O35 Sn5 2.605804 1_555
O36 P10 1.592429 1_555
O36 P5 1.648229 1_655
O37 P11 1.592429 1_555
O37 P4 1.648229 1_565
O38 P10 1.596907 1_555
O38 P8 1.647056 1_555
O39 P11 1.596907 1_555
O39 P9 1.647056 1_555
