# generated using pymatgen
data_Ba6SrI14
_symmetry_space_group_name_H-M   'P 1'
_cell_length_a   15.86017671
_cell_length_b   15.86017671
_cell_length_c   8.83508900
_cell_angle_alpha   90.00000000
_cell_angle_beta   90.00000000
_cell_angle_gamma   99.03611860
_symmetry_Int_Tables_number   1
_chemical_formula_structural   Ba6SrI14
_chemical_formula_sum   'Ba12 Sr2 I28'
_cell_volume   2194.84294543
_cell_formula_units_Z   2
loop_
 _symmetry_equiv_pos_site_id
 _symmetry_equiv_pos_as_xyz
  1  'x, y, z'
loop_
 _atom_site_type_symbol
 _atom_site_label
 _atom_site_symmetry_multiplicity
 _atom_site_fract_x
 _atom_site_fract_y
 _atom_site_fract_z
 _atom_site_occupancy
  Ba  Ba0  1  0.75147700  0.05171400  0.32848100  1
  Ba  Ba1  1  0.94828600  0.24852300  0.67151900  1
  Ba  Ba2  1  0.55171400  0.25147700  0.17151900  1
  Ba  Ba3  1  0.74852300  0.44828600  0.82848100  1
  Ba  Ba4  1  0.69793400  0.69793400  0.24521500  1
  Ba  Ba5  1  0.19793400  0.19793400  0.25478500  1
  Ba  Ba6  1  0.30206600  0.30206600  0.75478500  1
  Ba  Ba7  1  0.80206600  0.80206600  0.74521500  1
  Ba  Ba8  1  0.44828600  0.74852300  0.82848100  1
  Ba  Ba9  1  0.25147700  0.55171400  0.17151900  1
  Ba  Ba10  1  0.05171400  0.75147700  0.32848100  1
  Ba  Ba11  1  0.24852300  0.94828600  0.67151900  1
  Sr  Sr0  1  0.00000000  0.00000000  0.00000000  1
  Sr  Sr1  1  0.50000000  0.50000000  0.50000000  1
  I  I0  1  0.96652500  0.15566800  0.23253600  1
  I  I1  1  0.84433200  0.03347500  0.76746400  1
  I  I2  1  0.74765700  0.25234300  0.00000000  1
  I  I3  1  0.95369600  0.45369600  0.75000000  1
  I  I4  1  0.54630400  0.04630400  0.25000000  1
  I  I5  1  0.75234300  0.24765700  0.50000000  1
  I  I6  1  0.35794900  0.15716900  0.00963400  1
  I  I7  1  0.34283100  0.14205100  0.50963400  1
  I  I8  1  0.84283100  0.64205100  0.99036600  1
  I  I9  1  0.85794900  0.65716900  0.49036600  1
  I  I10  1  0.65566800  0.46652500  0.26746400  1
  I  I11  1  0.53347500  0.34433200  0.73253600  1
  I  I12  1  0.12188200  0.12188200  0.77312900  1
  I  I13  1  0.37811800  0.37811800  0.27312900  1
  I  I14  1  0.62188200  0.62188200  0.72687100  1
  I  I15  1  0.87811800  0.87811800  0.22687100  1
  I  I16  1  0.34433200  0.53347500  0.73253600  1
  I  I17  1  0.46652500  0.65566800  0.26746400  1
  I  I18  1  0.64205100  0.84283100  0.99036600  1
  I  I19  1  0.14205100  0.34283100  0.50963400  1
  I  I20  1  0.15716900  0.35794900  0.00963400  1
  I  I21  1  0.65716900  0.85794900  0.49036600  1
  I  I22  1  0.24765700  0.75234300  0.50000000  1
  I  I23  1  0.04630400  0.54630400  0.25000000  1
  I  I24  1  0.45369600  0.95369600  0.75000000  1
  I  I25  1  0.25234300  0.74765700  0.00000000  1
  I  I26  1  0.15566800  0.96652500  0.23253600  1
  I  I27  1  0.03347500  0.84433200  0.76746400  1
loop_
_geom_bond_atom_site_label_1
_geom_bond_atom_site_label_2
_geom_bond_distance
_geom_bond_site_symmetry_2
Ba0 I4 3.315038 1_555
Ba0 I5 3.455563 1_555
Ba0 I21 3.504751 1_545
Ba0 I0 3.647380 1_555
Ba0 I15 3.762675 1_545
Ba0 I1 4.174774 1_555
Ba1 I3 3.315038 1_555
Ba1 I5 3.455563 1_555
Ba1 I19 3.504751 1_655
Ba1 I1 3.647380 1_555
Ba1 I12 3.762675 1_655
Ba1 I0 4.174774 1_555
Ba2 I4 3.315038 1_555
Ba2 I2 3.455563 1_555
Ba2 I6 3.504751 1_555
Ba2 I10 3.647380 1_555
Ba2 I13 3.762675 1_555
Ba2 I11 4.174774 1_554
Ba3 I3 3.315038 1_555
Ba3 I2 3.455563 1_556
Ba3 I8 3.504751 1_555
Ba3 I11 3.647380 1_555
Ba3 I14 3.762675 1_555
Ba3 I10 4.174774 1_556
Ba4 I8 3.431667 1_554
Ba4 I18 3.431667 1_554
Ba4 I21 3.473535 1_555
Ba4 I9 3.473535 1_555
Ba4 I17 3.631180 1_555
Ba4 I10 3.631180 1_555
Ba4 I15 3.714088 1_555
Ba5 I19 3.431667 1_555
Ba5 I7 3.431667 1_555
Ba5 I20 3.473535 1_555
Ba5 I6 3.473535 1_555
Ba5 I0 3.631180 1_455
Ba5 I26 3.631180 1_545
Ba5 I13 3.714088 1_555
Ba6 I6 3.431667 1_556
Ba6 I20 3.431667 1_556
Ba6 I19 3.473535 1_555
Ba6 I7 3.473535 1_555
Ba6 I16 3.631180 1_555
Ba6 I11 3.631180 1_555
Ba6 I12 3.714088 1_555
Ba7 I21 3.431667 1_555
Ba7 I9 3.431667 1_555
Ba7 I18 3.473535 1_555
Ba7 I8 3.473535 1_555
Ba7 I27 3.631180 1_655
Ba7 I1 3.631180 1_565
Ba7 I14 3.714088 1_555
Ba8 I24 3.315038 1_555
Ba8 I25 3.455563 1_556
Ba8 I18 3.504751 1_555
Ba8 I16 3.647380 1_555
Ba8 I14 3.762675 1_555
Ba8 I17 4.174774 1_556
Ba9 I23 3.315038 1_555
Ba9 I25 3.455563 1_555
Ba9 I20 3.504751 1_555
Ba9 I17 3.647380 1_555
Ba9 I13 3.762675 1_555
Ba9 I16 4.174774 1_554
Ba10 I23 3.315038 1_555
Ba10 I22 3.455563 1_555
Ba10 I9 3.504751 1_455
Ba10 I26 3.647380 1_555
Ba10 I15 3.762675 1_455
Ba10 I27 4.174774 1_555
Ba11 I24 3.315038 1_555
Ba11 I22 3.455563 1_555
Ba11 I7 3.504751 1_565
Ba11 I27 3.647380 1_555
Ba11 I12 3.762675 1_565
Ba11 I26 4.174774 1_555
I0 Sr0 3.318142 1_655
I1 Sr0 3.318142 1_656
I10 Sr1 3.318142 1_555
I11 Sr1 3.318142 1_555
I12 Sr0 3.212082 1_556
I13 Sr1 3.212082 1_555
I14 Sr1 3.212082 1_555
I15 Sr0 3.212082 1_665
I16 Sr1 3.318142 1_555
I17 Sr1 3.318142 1_555
I26 Sr0 3.318142 1_565
I27 Sr0 3.318142 1_566
