# generated using pymatgen
data_Ta2Zn4O9
_symmetry_space_group_name_H-M   'P 1'
_cell_length_a   5.22271100
_cell_length_b   9.07437800
_cell_length_c   14.51210700
_cell_angle_alpha   90.00000000
_cell_angle_beta   90.00000000
_cell_angle_gamma   90.00000000
_symmetry_Int_Tables_number   1
_chemical_formula_structural   Ta2Zn4O9
_chemical_formula_sum   'Ta8 Zn16 O36'
_cell_volume   687.77016536
_cell_formula_units_Z   4
loop_
 _symmetry_equiv_pos_site_id
 _symmetry_equiv_pos_as_xyz
  1  'x, y, z'
loop_
 _atom_site_type_symbol
 _atom_site_label
 _atom_site_symmetry_multiplicity
 _atom_site_fract_x
 _atom_site_fract_y
 _atom_site_fract_z
 _atom_site_occupancy
  Ta  Ta0  1  0.49624400  0.51803100  0.14302100  1
  Ta  Ta1  1  0.49624400  0.48196900  0.35697900  1
  Ta  Ta2  1  0.00375600  0.98196900  0.64302100  1
  Ta  Ta3  1  0.00375600  0.01803100  0.85697900  1
  Ta  Ta4  1  0.99624400  0.01803100  0.35697900  1
  Ta  Ta5  1  0.99624400  0.98196900  0.14302100  1
  Ta  Ta6  1  0.50375600  0.51803100  0.64302100  1
  Ta  Ta7  1  0.50375600  0.48196900  0.85697900  1
  Zn  Zn0  1  0.49703800  0.83592600  0.30172200  1
  Zn  Zn1  1  0.49703800  0.16407400  0.19827800  1
  Zn  Zn2  1  0.49189700  0.16174500  0.49611800  1
  Zn  Zn3  1  0.49189700  0.83825500  0.00388200  1
  Zn  Zn4  1  0.00810300  0.66174500  0.50388200  1
  Zn  Zn5  1  0.00810300  0.33825500  0.99611800  1
  Zn  Zn6  1  0.00296200  0.33592600  0.69827800  1
  Zn  Zn7  1  0.00296200  0.66407400  0.80172200  1
  Zn  Zn8  1  0.99703800  0.33592600  0.19827800  1
  Zn  Zn9  1  0.99703800  0.66407400  0.30172200  1
  Zn  Zn10  1  0.99189700  0.66174500  0.00388200  1
  Zn  Zn11  1  0.99189700  0.33825500  0.49611800  1
  Zn  Zn12  1  0.50810300  0.83825500  0.50388200  1
  Zn  Zn13  1  0.50810300  0.16174500  0.99611800  1
  Zn  Zn14  1  0.50296200  0.16407400  0.69827800  1
  Zn  Zn15  1  0.50296200  0.83592600  0.80172200  1
  O  O0  1  0.36262900  0.64289000  0.75069300  1
  O  O1  1  0.36262900  0.35711000  0.74930700  1
  O  O2  1  0.33724400  0.66649200  0.07414000  1
  O  O3  1  0.33724400  0.33350800  0.42586000  1
  O  O4  1  0.32334300  0.00635300  0.08580700  1
  O  O5  1  0.32334300  0.99364700  0.41419300  1
  O  O6  1  0.31962200  0.65871700  0.40475200  1
  O  O7  1  0.31962200  0.34128300  0.09524800  1
  O  O8  1  0.28720600  0.00000000  0.75000000  1
  O  O9  1  0.21279400  0.50000000  0.25000000  1
  O  O10  1  0.18037800  0.15871700  0.59524800  1
  O  O11  1  0.18037800  0.84128300  0.90475200  1
  O  O12  1  0.17665700  0.49364700  0.58580700  1
  O  O13  1  0.17665700  0.50635300  0.91419300  1
  O  O14  1  0.16275600  0.83350800  0.57414000  1
  O  O15  1  0.16275600  0.16649200  0.92586000  1
  O  O16  1  0.13737100  0.85711000  0.25069300  1
  O  O17  1  0.13737100  0.14289000  0.24930700  1
  O  O18  1  0.86262900  0.85711000  0.75069300  1
  O  O19  1  0.86262900  0.14289000  0.74930700  1
  O  O20  1  0.83724400  0.83350800  0.07414000  1
  O  O21  1  0.83724400  0.16649200  0.42586000  1
  O  O22  1  0.82334300  0.50635300  0.41419300  1
  O  O23  1  0.82334300  0.49364700  0.08580700  1
  O  O24  1  0.81962200  0.84128300  0.40475200  1
  O  O25  1  0.81962200  0.15871700  0.09524800  1
  O  O26  1  0.78720600  0.50000000  0.75000000  1
  O  O27  1  0.71279400  0.00000000  0.25000000  1
  O  O28  1  0.68037800  0.65871700  0.90475200  1
  O  O29  1  0.68037800  0.34128300  0.59524800  1
  O  O30  1  0.67665700  0.99364700  0.91419300  1
  O  O31  1  0.67665700  0.00635300  0.58580700  1
  O  O32  1  0.66275600  0.66649200  0.57414000  1
  O  O33  1  0.66275600  0.33350800  0.92586000  1
  O  O34  1  0.63737100  0.64289000  0.25069300  1
  O  O35  1  0.63737100  0.35711000  0.24930700  1
loop_
_geom_bond_atom_site_label_1
_geom_bond_atom_site_label_2
_geom_bond_distance
_geom_bond_site_symmetry_2
O0 Zn7 2.028269 1_555
O0 Zn15 2.038125 1_555
O0 Ta6 2.066047 1_555
O0 Ta7 2.248271 1_555
O1 Zn6 2.028269 1_555
O1 Zn14 2.038125 1_555
O1 Ta7 2.066047 1_555
O1 Ta6 2.248271 1_555
O2 Ta0 1.871824 1_555
O2 Zn3 2.030105 1_555
O2 Zn10 2.072334 1_455
O3 Ta1 1.871824 1_555
O3 Zn2 2.030105 1_555
O3 Zn11 2.072334 1_455
O4 Ta5 1.912273 1_445
O4 Zn3 2.124908 1_545
O4 Zn13 2.147922 1_554
O4 Zn1 2.352738 1_555
O5 Ta4 1.912273 1_465
O5 Zn2 2.124908 1_565
O5 Zn12 2.147922 1_555
O5 Zn0 2.352738 1_555
O6 Ta1 1.975849 1_555
O6 Zn4 2.171941 1_555
O6 Zn9 2.253078 1_455
O6 Zn0 2.383276 1_555
O6 Zn12 2.385962 1_555
O7 Ta0 1.975849 1_555
O7 Zn5 2.171941 1_554
O7 Zn8 2.253078 1_455
O7 Zn1 2.383276 1_555
O7 Zn13 2.385962 1_554
O8 Zn15 2.012430 1_545
O8 Zn14 2.012430 1_555
O8 Ta2 2.151399 1_545
O8 Ta3 2.151399 1_555
O9 Zn8 2.012430 1_455
O9 Zn9 2.012430 1_455
O9 Ta1 2.151399 1_555
O9 Ta0 2.151399 1_555
O10 Ta2 1.975849 1_545
O10 Zn2 2.171941 1_555
O10 Zn14 2.253078 1_555
O10 Zn6 2.383276 1_555
O10 Zn11 2.385962 1_455
O11 Ta3 1.975849 1_565
O11 Zn3 2.171941 1_556
O11 Zn15 2.253078 1_555
O11 Zn7 2.383276 1_555
O11 Zn10 2.385962 1_456
O12 Ta6 1.912273 1_555
O12 Zn4 2.124908 1_555
O12 Zn11 2.147922 1_455
O12 Zn6 2.352738 1_555
O13 Ta7 1.912273 1_555
O13 Zn5 2.124908 1_555
O13 Zn10 2.147922 1_456
O13 Zn7 2.352738 1_555
O14 Ta2 1.871824 1_555
O14 Zn4 2.030105 1_555
O14 Zn12 2.072334 1_555
O15 Ta3 1.871824 1_555
O15 Zn5 2.030105 1_555
O15 Zn13 2.072334 1_555
O16 Zn0 2.028269 1_555
O16 Zn9 2.038125 1_455
O16 Ta5 2.066047 1_455
O16 Ta4 2.248271 1_465
O17 Zn1 2.028269 1_555
O17 Zn8 2.038125 1_455
O17 Ta4 2.066047 1_455
O17 Ta5 2.248271 1_445
O18 Zn15 2.028269 1_555
O18 Zn7 2.038125 1_655
O18 Ta2 2.066047 1_655
O18 Ta3 2.248271 1_665
O19 Zn14 2.028269 1_555
O19 Zn6 2.038125 1_655
O19 Ta3 2.066047 1_655
O19 Ta2 2.248271 1_645
O20 Ta5 1.871824 1_555
O20 Zn10 2.030105 1_555
O20 Zn3 2.072334 1_555
O21 Ta4 1.871824 1_555
O21 Zn11 2.030105 1_555
O21 Zn2 2.072334 1_555
O22 Ta1 1.912273 1_555
O22 Zn11 2.124908 1_555
O22 Zn4 2.147922 1_655
O22 Zn9 2.352738 1_555
O23 Ta0 1.912273 1_555
O23 Zn10 2.124908 1_555
O23 Zn5 2.147922 1_654
O23 Zn8 2.352738 1_555
O24 Ta4 1.975849 1_565
O24 Zn12 2.171941 1_555
O24 Zn0 2.253078 1_555
O24 Zn9 2.383276 1_555
O24 Zn4 2.385962 1_655
O25 Ta5 1.975849 1_545
O25 Zn13 2.171941 1_554
O25 Zn1 2.253078 1_555
O25 Zn8 2.383276 1_555
O25 Zn5 2.385962 1_654
O26 Zn6 2.012430 1_655
O26 Zn7 2.012430 1_655
O26 Ta7 2.151399 1_555
O26 Ta6 2.151399 1_555
O27 Zn1 2.012430 1_555
O27 Zn0 2.012430 1_545
O27 Ta5 2.151399 1_545
O27 Ta4 2.151399 1_555
O28 Ta7 1.975849 1_555
O28 Zn10 2.171941 1_556
O28 Zn7 2.253078 1_655
O28 Zn15 2.383276 1_555
O28 Zn3 2.385962 1_556
O29 Ta6 1.975849 1_555
O29 Zn11 2.171941 1_555
O29 Zn6 2.253078 1_655
O29 Zn14 2.383276 1_555
O29 Zn2 2.385962 1_555
O30 Ta3 1.912273 1_665
O30 Zn13 2.124908 1_565
O30 Zn3 2.147922 1_556
O30 Zn15 2.352738 1_555
O31 Ta2 1.912273 1_645
O31 Zn12 2.124908 1_545
O31 Zn2 2.147922 1_555
O31 Zn14 2.352738 1_555
O32 Ta6 1.871824 1_555
O32 Zn12 2.030105 1_555
O32 Zn4 2.072334 1_655
O33 Ta7 1.871824 1_555
O33 Zn13 2.030105 1_555
O33 Zn5 2.072334 1_655
O34 Zn9 2.028269 1_555
O34 Zn0 2.038125 1_555
O34 Ta0 2.066047 1_555
O34 Ta1 2.248271 1_555
O35 Zn8 2.028269 1_555
O35 Zn1 2.038125 1_555
O35 Ta1 2.066047 1_555
O35 Ta0 2.248271 1_555
