# generated using pymatgen
data_CuH12Se(NO)4
_symmetry_space_group_name_H-M   'P 1'
_cell_length_a   11.10546500
_cell_length_b   7.82340600
_cell_length_c   12.13520616
_cell_angle_alpha   64.23749596
_cell_angle_beta   90.00000000
_cell_angle_gamma   90.00000000
_symmetry_Int_Tables_number   1
_chemical_formula_structural   CuH12Se(NO)4
_chemical_formula_sum   'Cu4 H48 Se4 N16 O16'
_cell_volume   949.54020984
_cell_formula_units_Z   4
loop_
 _symmetry_equiv_pos_site_id
 _symmetry_equiv_pos_as_xyz
  1  'x, y, z'
loop_
 _atom_site_type_symbol
 _atom_site_label
 _atom_site_symmetry_multiplicity
 _atom_site_fract_x
 _atom_site_fract_y
 _atom_site_fract_z
 _atom_site_occupancy
  Cu  Cu0  1  0.22814200  0.71896400  0.04279200  1
  Cu  Cu1  1  0.27185800  0.71896400  0.54279200  1
  Cu  Cu2  1  0.77185800  0.28103600  0.95720800  1
  Cu  Cu3  1  0.72814200  0.28103600  0.45720800  1
  H  H0  1  0.85141300  0.81254500  0.88583900  1
  H  H1  1  0.64858700  0.81254500  0.38583900  1
  H  H2  1  0.14858700  0.18745500  0.11416100  1
  H  H3  1  0.35141300  0.18745500  0.61416100  1
  H  H4  1  0.41838700  0.07478400  0.37743000  1
  H  H5  1  0.08161300  0.07478400  0.87743000  1
  H  H6  1  0.58161300  0.92521600  0.62257000  1
  H  H7  1  0.91838700  0.92521600  0.12257000  1
  H  H8  1  0.09338600  0.09932200  0.93032000  1
  H  H9  1  0.40661400  0.09932200  0.43032000  1
  H  H10  1  0.90661400  0.90067800  0.06968000  1
  H  H11  1  0.59338600  0.90067800  0.56968000  1
  H  H12  1  0.96933300  0.57541700  0.05910500  1
  H  H13  1  0.53066700  0.57541700  0.55910500  1
  H  H14  1  0.03066700  0.42458300  0.94089500  1
  H  H15  1  0.46933300  0.42458300  0.44089500  1
  H  H16  1  0.04500700  0.70657500  0.17012900  1
  H  H17  1  0.45499300  0.70657500  0.67012900  1
  H  H18  1  0.95499300  0.29342500  0.82987100  1
  H  H19  1  0.54500700  0.29342500  0.32987100  1
  H  H20  1  0.13116300  0.51881200  0.24691300  1
  H  H21  1  0.36883700  0.51881200  0.74691300  1
  H  H22  1  0.86883700  0.48118800  0.75308700  1
  H  H23  1  0.63116300  0.48118800  0.25308700  1
  H  H24  1  0.32778100  0.01796700  0.88586800  1
  H  H25  1  0.17221900  0.01796700  0.38586800  1
  H  H26  1  0.67221900  0.98203300  0.11413200  1
  H  H27  1  0.82778100  0.98203300  0.61413200  1
  H  H28  1  0.27118100  0.91009700  0.80674600  1
  H  H29  1  0.22881900  0.91009700  0.30674600  1
  H  H30  1  0.72881900  0.08990300  0.19325400  1
  H  H31  1  0.77118100  0.08990300  0.69325400  1
  H  H32  1  0.39390400  0.82767100  0.88865800  1
  H  H33  1  0.10609600  0.82767100  0.38865800  1
  H  H34  1  0.60609600  0.17232900  0.11134200  1
  H  H35  1  0.89390400  0.17232900  0.61134200  1
  H  H36  1  0.38387400  0.49657000  0.18403600  1
  H  H37  1  0.11612600  0.49657000  0.68403600  1
  H  H38  1  0.61612600  0.50343000  0.81596400  1
  H  H39  1  0.88387400  0.50343000  0.31596400  1
  H  H40  1  0.33950700  0.61156700  0.26246000  1
  H  H41  1  0.16049300  0.61156700  0.76246000  1
  H  H42  1  0.66049300  0.38843300  0.73754000  1
  H  H43  1  0.83950700  0.38843300  0.23754000  1
  H  H44  1  0.43792900  0.70740300  0.15113400  1
  H  H45  1  0.06207100  0.70740300  0.65113400  1
  H  H46  1  0.56207100  0.29259700  0.84886600  1
  H  H47  1  0.93792900  0.29259700  0.34886600  1
  Se  Se0  1  0.33087700  0.28527700  0.02258100  1
  Se  Se1  1  0.16912300  0.28527700  0.52258100  1
  Se  Se2  1  0.66912300  0.71472300  0.97741900  1
  Se  Se3  1  0.83087700  0.71472300  0.47741900  1
  N  N0  1  0.03213200  0.48853100  0.12054100  1
  N  N1  1  0.46786800  0.48853100  0.62054100  1
  N  N2  1  0.96786800  0.51146900  0.87945900  1
  N  N3  1  0.53213200  0.51146900  0.37945900  1
  N  N4  1  0.09535600  0.60249800  0.16281900  1
  N  N5  1  0.40464400  0.60249800  0.66281900  1
  N  N6  1  0.90464400  0.39750200  0.83718100  1
  N  N7  1  0.59535600  0.39750200  0.33718100  1
  N  N8  1  0.31106300  0.88694800  0.88796500  1
  N  N9  1  0.18893700  0.88694800  0.38796500  1
  N  N10  1  0.68893700  0.11305200  0.11203500  1
  N  N11  1  0.81106300  0.11305200  0.61203500  1
  N  N12  1  0.36034900  0.62850700  0.17615100  1
  N  N13  1  0.13965100  0.62850700  0.67615100  1
  N  N14  1  0.63965100  0.37149300  0.82384900  1
  N  N15  1  0.86034900  0.37149300  0.32384900  1
  O  O0  1  0.21540600  0.10881300  0.10711900  1
  O  O1  1  0.28459400  0.10881300  0.60711900  1
  O  O2  1  0.78459400  0.89118700  0.89288100  1
  O  O3  1  0.71540600  0.89118700  0.39288100  1
  O  O4  1  0.25129600  0.48392200  0.95820400  1
  O  O5  1  0.24870400  0.48392200  0.45820400  1
  O  O6  1  0.74870400  0.51607800  0.04179600  1
  O  O7  1  0.75129600  0.51607800  0.54179600  1
  O  O8  1  0.42953600  0.27601700  0.12696200  1
  O  O9  1  0.07046400  0.27601700  0.62696200  1
  O  O10  1  0.57046400  0.72398300  0.87303800  1
  O  O11  1  0.92953600  0.72398300  0.37303800  1
  O  O12  1  0.38780000  0.21292700  0.92429700  1
  O  O13  1  0.11220000  0.21292700  0.42429700  1
  O  O14  1  0.61220000  0.78707300  0.07570300  1
  O  O15  1  0.88780000  0.78707300  0.57570300  1
loop_
_geom_bond_atom_site_label_1
_geom_bond_atom_site_label_2
_geom_bond_distance
_geom_bond_site_symmetry_2
Cu0 N8 1.989678 1_554
Cu0 N4 1.993158 1_555
Cu0 N12 2.068802 1_555
Cu0 O4 2.478288 1_554
Cu1 N9 1.989678 1_555
Cu1 N5 1.993158 1_555
Cu1 N13 2.068802 1_555
Cu1 O5 2.478288 1_555
Cu2 N10 1.989678 1_556
Cu2 N6 1.993158 1_555
Cu2 N14 2.068802 1_555
Cu2 O6 2.478288 1_556
Cu3 N11 1.989678 1_555
Cu3 N7 1.993158 1_555
Cu3 N15 2.068802 1_555
Cu3 O7 2.478288 1_555
H0 O2 0.991052 1_555
H1 O3 0.991052 1_555
H2 O0 0.991052 1_555
H3 O1 0.991052 1_555
H4 H9 0.756968 1_555
H5 H8 0.756968 1_555
H10 H7 0.756968 1_555
H11 H6 0.756968 1_555
H12 N0 1.031374 1_655
H13 N1 1.031374 1_555
H14 N2 1.031374 1_455
H15 N3 1.031374 1_555
H16 N4 1.022881 1_555
H17 N5 1.022881 1_555
H18 N6 1.022881 1_555
H19 N7 1.022881 1_555
H20 N4 1.023423 1_555
H21 N5 1.023423 1_555
H22 N6 1.023423 1_555
H23 N7 1.023423 1_555
H24 N8 1.031067 1_545
H25 N9 1.031067 1_545
H26 N10 1.031067 1_565
H27 N11 1.031067 1_565
H28 N8 1.022363 1_555
H29 N9 1.022363 1_555
H30 N10 1.022363 1_555
H31 N11 1.022363 1_555
H32 N8 1.028650 1_555
H33 N9 1.028650 1_555
H34 N10 1.028650 1_555
H35 N11 1.028650 1_555
H36 N12 1.028097 1_555
H37 N13 1.028097 1_555
H38 N14 1.028097 1_555
H39 N15 1.028097 1_555
H40 N12 1.023462 1_555
H41 N13 1.023462 1_555
H42 N14 1.023462 1_555
H43 N15 1.023462 1_555
H44 N12 1.025935 1_555
H45 N13 1.025935 1_555
H46 N14 1.025935 1_555
H47 N15 1.025935 1_555
O0 Se0 1.836205 1_555
O1 Se1 1.836205 1_555
O2 Se2 1.836205 1_555
O3 Se3 1.836205 1_555
O4 Se0 1.658665 1_556
O5 Se1 1.658665 1_555
O6 Se2 1.658665 1_554
O7 Se3 1.658665 1_555
O8 Se0 1.652400 1_555
O9 Se1 1.652400 1_555
O10 Se2 1.652400 1_555
O11 Se3 1.652400 1_555
O12 Se0 1.652083 1_556
O13 Se1 1.652083 1_555
O14 Se2 1.652083 1_554
O15 Se3 1.652083 1_555
