# generated using pymatgen
data_K3Mn3H2C12O13
_symmetry_space_group_name_H-M   'P 1'
_cell_length_a   14.20910300
_cell_length_b   8.87079200
_cell_length_c   15.93311399
_cell_angle_alpha   78.69374111
_cell_angle_beta   90.00000000
_cell_angle_gamma   90.00000000
_symmetry_Int_Tables_number   1
_chemical_formula_structural   K3Mn3H2C12O13
_chemical_formula_sum   'K12 Mn12 H8 C48 O52'
_cell_volume   1969.33056014
_cell_formula_units_Z   4
loop_
 _symmetry_equiv_pos_site_id
 _symmetry_equiv_pos_as_xyz
  1  'x, y, z'
loop_
 _atom_site_type_symbol
 _atom_site_label
 _atom_site_symmetry_multiplicity
 _atom_site_fract_x
 _atom_site_fract_y
 _atom_site_fract_z
 _atom_site_occupancy
  K  K0  1  0.58845300  0.32716600  0.29087600  1
  K  K1  1  0.08845300  0.67283400  0.20912400  1
  K  K2  1  0.41154700  0.67283400  0.70912400  1
  K  K3  1  0.91154700  0.32716600  0.79087600  1
  K  K4  1  0.73642400  0.19407200  0.04868300  1
  K  K5  1  0.23642400  0.80592800  0.45131700  1
  K  K6  1  0.26357600  0.80592800  0.95131700  1
  K  K7  1  0.76357600  0.19407200  0.54868300  1
  K  K8  1  0.53397700  0.81962200  0.14048200  1
  K  K9  1  0.03397700  0.18037800  0.35951800  1
  K  K10  1  0.46602300  0.18037800  0.85951800  1
  K  K11  1  0.96602300  0.81962200  0.64048200  1
  Mn  Mn0  1  0.83344400  0.75331800  0.94487400  1
  Mn  Mn1  1  0.33344400  0.24668200  0.55512600  1
  Mn  Mn2  1  0.16655600  0.24668200  0.05512600  1
  Mn  Mn3  1  0.66655600  0.75331800  0.44487400  1
  Mn  Mn4  1  0.66010900  0.65135000  0.94946500  1
  Mn  Mn5  1  0.16010900  0.34865000  0.55053500  1
  Mn  Mn6  1  0.33989100  0.34865000  0.05053500  1
  Mn  Mn7  1  0.83989100  0.65135000  0.44946500  1
  Mn  Mn8  1  0.71659900  0.86884700  0.80431300  1
  Mn  Mn9  1  0.21659900  0.13115300  0.69568700  1
  Mn  Mn10  1  0.28340100  0.13115300  0.19568700  1
  Mn  Mn11  1  0.78340100  0.86884700  0.30431300  1
  H  H0  1  0.68163600  0.41971300  0.68429800  1
  H  H1  1  0.18163600  0.58028700  0.81570200  1
  H  H2  1  0.31836400  0.58028700  0.31570200  1
  H  H3  1  0.81836400  0.41971300  0.18429800  1
  H  H4  1  0.63780800  0.26322300  0.67552600  1
  H  H5  1  0.13780800  0.73677700  0.82447400  1
  H  H6  1  0.36219200  0.73677700  0.32447400  1
  H  H7  1  0.86219200  0.26322300  0.17552600  1
  C  C0  1  0.91849600  0.72100200  0.86785700  1
  C  C1  1  0.41849600  0.27899800  0.63214300  1
  C  C2  1  0.08150400  0.27899800  0.13214300  1
  C  C3  1  0.58150400  0.72100200  0.36785700  1
  C  C4  1  0.86718600  0.94796700  0.94466000  1
  C  C5  1  0.36718600  0.05203300  0.55534000  1
  C  C6  1  0.13281400  0.05203300  0.05534000  1
  C  C7  1  0.63281400  0.94796700  0.44466000  1
  C  C8  1  0.89804800  0.67451600  0.03809300  1
  C  C9  1  0.39804800  0.32548400  0.46190700  1
  C  C10  1  0.10195200  0.32548400  0.96190700  1
  C  C11  1  0.60195200  0.67451600  0.53809300  1
  C  C12  1  0.72213400  0.80549300  0.00940600  1
  C  C13  1  0.22213400  0.19450700  0.49059400  1
  C  C14  1  0.27786600  0.19450700  0.99059400  1
  C  C15  1  0.77786600  0.80549300  0.50940600  1
  C  C16  1  0.78293500  0.54790500  0.93177300  1
  C  C17  1  0.28293500  0.45209500  0.56822700  1
  C  C18  1  0.21706500  0.45209500  0.06822700  1
  C  C19  1  0.71706500  0.54790500  0.43177300  1
  C  C20  1  0.63295900  0.52293500  0.04557800  1
  C  C21  1  0.13295900  0.47706500  0.45442200  1
  C  C22  1  0.36704100  0.47706500  0.95442200  1
  C  C23  1  0.86704100  0.52293500  0.54557800  1
  C  C24  1  0.61144000  0.53932900  0.87755800  1
  C  C25  1  0.11144000  0.46067100  0.62244200  1
  C  C26  1  0.38856000  0.46067100  0.12244200  1
  C  C27  1  0.88856000  0.53932900  0.37755800  1
  C  C28  1  0.55935200  0.77317600  0.94629500  1
  C  C29  1  0.05935200  0.22682400  0.55370500  1
  C  C30  1  0.44064800  0.22682400  0.05370500  1
  C  C31  1  0.94064800  0.77317600  0.44629500  1
  C  C32  1  0.75409500  0.69912600  0.76490400  1
  C  C33  1  0.25409500  0.30087400  0.73509600  1
  C  C34  1  0.24590500  0.30087400  0.23509600  1
  C  C35  1  0.74590500  0.69912600  0.26490400  1
  C  C36  1  0.80270600  0.98722600  0.74721200  1
  C  C37  1  0.30270600  0.01277400  0.75278800  1
  C  C38  1  0.19729400  0.01277400  0.25278800  1
  C  C39  1  0.69729400  0.98722600  0.24721200  1
  C  C40  1  0.68227500  0.01490700  0.86290700  1
  C  C41  1  0.18227500  0.98509300  0.63709300  1
  C  C42  1  0.31772500  0.98509300  0.13709300  1
  C  C43  1  0.81772500  0.01490700  0.36290700  1
  C  C44  1  0.61953900  0.90426700  0.73354700  1
  C  C45  1  0.11953900  0.09573300  0.76645300  1
  C  C46  1  0.38046100  0.09573300  0.26645300  1
  C  C47  1  0.88046100  0.90426700  0.23354700  1
  O  O0  1  0.97460600  0.69796300  0.81680200  1
  O  O1  1  0.47460600  0.30203700  0.68319800  1
  O  O2  1  0.02539400  0.30203700  0.18319800  1
  O  O3  1  0.52539400  0.69796300  0.31680200  1
  O  O4  1  0.88810500  0.07544200  0.94718800  1
  O  O5  1  0.38810500  0.92455800  0.55281200  1
  O  O6  1  0.11189500  0.92455800  0.05281200  1
  O  O7  1  0.61189500  0.07544200  0.44718800  1
  O  O8  1  0.94217500  0.62529500  0.10012900  1
  O  O9  1  0.44217500  0.37470500  0.39987100  1
  O  O10  1  0.05782500  0.37470500  0.89987100  1
  O  O11  1  0.55782500  0.62529500  0.60012900  1
  O  O12  1  0.70062900  0.88635700  0.05961900  1
  O  O13  1  0.20062900  0.11364300  0.44038100  1
  O  O14  1  0.29937100  0.11364300  0.94038100  1
  O  O15  1  0.79937100  0.88635700  0.55961900  1
  O  O16  1  0.81093000  0.42451800  0.92095800  1
  O  O17  1  0.31093000  0.57548200  0.57904200  1
  O  O18  1  0.18907000  0.57548200  0.07904200  1
  O  O19  1  0.68907000  0.42451800  0.42095800  1
  O  O20  1  0.61329400  0.43482100  0.10921400  1
  O  O21  1  0.11329400  0.56517900  0.39078600  1
  O  O22  1  0.38670600  0.56517900  0.89078600  1
  O  O23  1  0.88670600  0.43482100  0.60921400  1
  O  O24  1  0.57642500  0.46336200  0.83293900  1
  O  O25  1  0.07642500  0.53663800  0.66706100  1
  O  O26  1  0.42357500  0.53663800  0.16706100  1
  O  O27  1  0.92357500  0.46336200  0.33293900  1
  O  O28  1  0.49188100  0.85003600  0.95075900  1
  O  O29  1  0.99188100  0.14996400  0.54924100  1
  O  O30  1  0.50811900  0.14996400  0.04924100  1
  O  O31  1  0.00811900  0.85003600  0.45075900  1
  O  O32  1  0.78139700  0.59829300  0.73272100  1
  O  O33  1  0.28139700  0.40170700  0.76727900  1
  O  O34  1  0.21860300  0.40170700  0.26727900  1
  O  O35  1  0.71860300  0.59829300  0.23272100  1
  O  O36  1  0.86119200  0.06812900  0.70824200  1
  O  O37  1  0.36119200  0.93187100  0.79175800  1
  O  O38  1  0.13880800  0.93187100  0.29175800  1
  O  O39  1  0.63880800  0.06812900  0.20824200  1
  O  O40  1  0.65951400  0.11874500  0.89501300  1
  O  O41  1  0.15951400  0.88125500  0.60498700  1
  O  O42  1  0.34048600  0.88125500  0.10498700  1
  O  O43  1  0.84048600  0.11874500  0.39501300  1
  O  O44  1  0.55693400  0.93305500  0.68423600  1
  O  O45  1  0.05693400  0.06694500  0.81576400  1
  O  O46  1  0.44306600  0.06694500  0.31576400  1
  O  O47  1  0.94306600  0.93305500  0.18423600  1
  O  O48  1  0.69727700  0.31859000  0.67277600  1
  O  O49  1  0.19727700  0.68141000  0.82722400  1
  O  O50  1  0.30272300  0.68141000  0.32722400  1
  O  O51  1  0.80272300  0.31859000  0.17277600  1
loop_
_geom_bond_atom_site_label_1
_geom_bond_atom_site_label_2
_geom_bond_distance
_geom_bond_site_symmetry_2
K0 O19 2.790575 1_555
K0 O9 2.793019 1_555
K0 O20 2.886266 1_555
K0 O39 2.951589 1_555
K0 O7 3.019823 1_555
K0 O35 3.031380 1_555
K0 O46 3.065043 1_555
K1 O18 2.790575 1_555
K1 O8 2.793019 1_455
K1 O21 2.886266 1_555
K1 O38 2.951589 1_555
K1 O6 3.019823 1_555
K1 O34 3.031380 1_555
K1 O47 3.065043 1_455
K2 O17 2.790575 1_555
K2 O11 2.793019 1_555
K2 O22 2.886266 1_555
K2 O37 2.951589 1_555
K2 O5 3.019823 1_555
K2 O33 3.031380 1_555
K2 O44 3.065043 1_555
K3 O16 2.790575 1_555
K3 O10 2.793019 1_655
K3 O23 2.886266 1_555
K3 O36 2.951589 1_555
K3 O4 3.019823 1_555
K3 O32 3.031380 1_555
K3 O45 3.065043 1_655
K4 O51 2.621670 1_555
K4 O12 2.748396 1_545
K4 O16 2.794623 1_554
K4 O40 2.877003 1_554
K4 O39 2.919160 1_555
K4 O4 3.005815 1_554
K4 O20 3.059363 1_555
K4 O30 3.267324 1_555
K5 O50 2.621670 1_555
K5 O13 2.748396 1_565
K5 O17 2.794623 1_555
K5 O41 2.877003 1_555
K5 O38 2.919160 1_555
K5 O5 3.005815 1_555
K5 O21 3.059363 1_555
K5 O31 3.267324 1_555
K6 O49 2.621670 1_555
K6 O14 2.748396 1_565
K6 O18 2.794623 1_556
K6 O42 2.877003 1_556
K6 O37 2.919160 1_555
K6 O6 3.005815 1_556
K6 O22 3.059363 1_555
K6 O28 3.267324 1_555
K7 O48 2.621670 1_555
K7 O15 2.748396 1_545
K7 O19 2.794623 1_555
K7 O43 2.877003 1_555
K7 O36 2.919160 1_555
K7 O7 3.005815 1_555
K7 O23 3.059363 1_555
K7 O29 3.267324 1_555
K8 O12 2.705304 1_555
K8 O3 2.807682 1_555
K8 O42 2.838372 1_555
K8 O26 2.919748 1_555
K8 O30 3.027410 1_565
K8 O39 3.029389 1_565
K8 O28 3.041147 1_554
K9 O13 2.705304 1_555
K9 O2 2.807682 1_555
K9 O43 2.838372 1_455
K9 O27 2.919748 1_455
K9 O31 3.027410 1_545
K9 O38 3.029389 1_545
K9 O29 3.041147 1_455
K10 O14 2.705304 1_555
K10 O1 2.807682 1_555
K10 O40 2.838372 1_555
K10 O24 2.919748 1_555
K10 O28 3.027410 1_545
K10 O37 3.029389 1_545
K10 O30 3.041147 1_556
K11 O15 2.705304 1_555
K11 O0 2.807682 1_555
K11 O41 2.838372 1_655
K11 O25 2.919748 1_655
K11 O29 3.027410 1_565
K11 O36 3.029389 1_565
K11 O31 3.041147 1_655
H0 O48 0.975884 1_555
H1 O49 0.975884 1_555
H2 O50 0.975884 1_555
H3 O51 0.975884 1_555
H4 O48 0.974031 1_555
H4 K7 2.853139 1_555
H5 O49 0.974031 1_555
H5 K6 2.853139 1_555
H6 O50 0.974031 1_555
H6 K5 2.853139 1_555
H7 O51 0.974031 1_555
H7 K4 2.853139 1_555
C0 O0 1.185043 1_555
C0 Mn0 1.785060 1_555
C1 O1 1.185043 1_555
C1 Mn1 1.785060 1_555
C2 O2 1.185043 1_555
C2 Mn2 1.785060 1_555
C3 O3 1.185043 1_555
C3 Mn3 1.785060 1_555
C4 O4 1.177519 1_565
C4 Mn0 1.791377 1_555
C5 O5 1.177519 1_545
C5 Mn1 1.791377 1_555
C6 O6 1.177519 1_545
C6 Mn2 1.791377 1_555
C7 O7 1.177519 1_565
C7 Mn3 1.791377 1_555
C8 O8 1.179637 1_555
C8 Mn0 1.769245 1_554
C9 O9 1.179637 1_555
C9 Mn1 1.769245 1_555
C10 O10 1.179637 1_555
C10 Mn2 1.769245 1_556
C11 O11 1.179637 1_555
C11 Mn3 1.769245 1_555
C12 O12 1.213688 1_555
C12 Mn0 1.989851 1_554
C12 Mn4 2.017571 1_554
C13 O13 1.213688 1_555
C13 Mn1 1.989851 1_555
C13 Mn5 2.017571 1_555
C14 O14 1.213688 1_555
C14 Mn2 1.989851 1_556
C14 Mn6 2.017571 1_556
C15 O15 1.213688 1_555
C15 Mn3 1.989851 1_555
C15 Mn7 2.017571 1_555
C16 O16 1.208262 1_555
C16 Mn0 2.007016 1_555
C16 Mn4 2.017136 1_555
C17 O17 1.208262 1_555
C17 Mn1 2.007016 1_555
C17 Mn5 2.017136 1_555
C18 O18 1.208262 1_555
C18 Mn2 2.007016 1_555
C18 Mn6 2.017136 1_555
C19 O19 1.208262 1_555
C19 Mn3 2.007016 1_555
C19 Mn7 2.017136 1_555
C20 O20 1.185883 1_555
C20 Mn4 1.762833 1_554
C20 K4 3.258478 1_555
C21 O21 1.185883 1_555
C21 Mn5 1.762833 1_555
C21 K5 3.258478 1_555
C22 O22 1.185883 1_555
C22 Mn6 1.762833 1_556
C22 K6 3.258478 1_555
C23 O23 1.185883 1_555
C23 Mn7 1.762833 1_555
C23 K7 3.258478 1_555
C24 O24 1.181067 1_555
C24 Mn4 1.795759 1_555
C25 O25 1.181067 1_555
C25 Mn5 1.795759 1_555
C26 O26 1.181067 1_555
C26 Mn6 1.795759 1_555
C27 O27 1.181067 1_555
C27 Mn7 1.795759 1_555
C28 O28 1.186612 1_555
C28 Mn4 1.788495 1_555
C29 O29 1.186612 1_455
C29 Mn5 1.788495 1_555
C30 O30 1.186612 1_555
C30 Mn6 1.788495 1_555
C31 O31 1.186612 1_655
C31 Mn7 1.788495 1_555
C32 O32 1.180403 1_555
C32 Mn8 1.820856 1_555
C33 O33 1.180403 1_555
C33 Mn9 1.820856 1_555
C34 O34 1.180403 1_555
C34 Mn10 1.820856 1_555
C35 O35 1.180403 1_555
C35 Mn11 1.820856 1_555
C36 O36 1.190159 1_565
C36 Mn8 1.747231 1_555
C37 O37 1.190159 1_545
C37 Mn9 1.747231 1_555
C38 O38 1.190159 1_545
C38 Mn10 1.747231 1_555
C39 O39 1.190159 1_565
C39 Mn11 1.747231 1_555
C40 O40 1.183009 1_555
C40 Mn8 1.806239 1_545
C41 O41 1.183009 1_555
C41 Mn9 1.806239 1_565
C42 O42 1.183009 1_555
C42 Mn10 1.806239 1_565
C43 O43 1.183009 1_555
C43 Mn11 1.806239 1_545
C44 O44 1.181165 1_555
C44 Mn8 1.770066 1_555
C45 O45 1.181165 1_555
C45 Mn9 1.770066 1_555
C46 O46 1.181165 1_555
C46 Mn10 1.770066 1_555
C47 O47 1.181165 1_555
C47 Mn11 1.770066 1_555
