# generated using pymatgen
data_Cr3Co3(TeO8)2
_symmetry_space_group_name_H-M   'P 1'
_cell_length_a   5.81462392
_cell_length_b   5.83842021
_cell_length_c   9.11825627
_cell_angle_alpha   90.00690226
_cell_angle_beta   88.64518971
_cell_angle_gamma   120.13666857
_symmetry_Int_Tables_number   1
_chemical_formula_structural   Cr3Co3(TeO8)2
_chemical_formula_sum   'Cr3 Co3 Te2 O16'
_cell_volume   267.60740484
_cell_formula_units_Z   1
loop_
 _symmetry_equiv_pos_site_id
 _symmetry_equiv_pos_as_xyz
  1  'x, y, z'
loop_
 _atom_site_type_symbol
 _atom_site_label
 _atom_site_symmetry_multiplicity
 _atom_site_fract_x
 _atom_site_fract_y
 _atom_site_fract_z
 _atom_site_occupancy
  Cr  Cr0  1  0.16534900  0.82626800  0.21707700  1
  Cr  Cr1  1  0.16530500  0.33971700  0.21687200  1
  Cr  Cr2  1  0.33634200  0.16788800  0.71893100  1
  Co  Co0  1  0.65336800  0.82700800  0.21228500  1
  Co  Co1  1  0.82512900  0.65551600  0.71266300  1
  Co  Co2  1  0.82507400  0.16900500  0.71275000  1
  Te  Te0  1  0.33912800  0.66940800  0.49387100  1
  Te  Te1  1  0.67150100  0.33588000  0.98964800  1
  O  O0  1  0.16735500  0.83470700  0.59673000  1
  O  O1  1  0.03759100  0.51897200  0.35141600  1
  O  O2  1  0.33765300  0.66932300  0.10824600  1
  O  O3  1  0.98498000  0.99270000  0.29810500  1
  O  O4  1  0.98751200  0.99347000  0.79714800  1
  O  O5  1  0.16743900  0.33231800  0.59669200  1
  O  O6  1  0.48882200  0.96269000  0.34083500  1
  O  O7  1  0.48883700  0.52647900  0.34063000  1
  O  O8  1  0.33744700  0.16892000  0.09602000  1
  O  O9  1  0.67443000  0.83695300  0.59690100  1
  O  O10  1  0.52369200  0.48575000  0.84299100  1
  O  O11  1  0.52361600  0.03761800  0.84313900  1
  O  O12  1  0.67144900  0.33534900  0.61195500  1
  O  O13  1  0.83268600  0.66600000  0.09466600  1
  O  O14  1  0.96272600  0.48115700  0.83136800  1
  O  O15  1  0.83256900  0.16710100  0.09478100  1
loop_
_geom_bond_atom_site_label_1
_geom_bond_atom_site_label_2
_geom_bond_distance
_geom_bond_site_symmetry_2
Cr0 O3 1.891164 1_455
Cr0 O2 1.924252 1_555
Cr0 O1 1.972411 1_555
Cr0 O6 2.010315 1_555
Cr0 O13 2.036510 1_455
Cr0 O8 2.039635 1_565
Cr1 O3 1.892979 1_445
Cr1 O2 1.925001 1_555
Cr1 O1 1.972012 1_555
Cr1 O7 2.010399 1_555
Cr1 O15 2.035167 1_455
Cr1 O8 2.039705 1_555
Cr2 O4 1.875490 1_445
Cr2 O12 1.923934 1_555
Cr2 O11 1.984207 1_555
Cr2 O10 1.984479 1_555
Cr2 O0 2.030526 1_545
Cr2 O5 2.031564 1_555
Co0 O3 1.861261 1_555
Co0 O2 1.871534 1_555
Co0 O6 1.903860 1_555
Co0 O7 1.904072 1_555
Co0 O15 2.011600 1_565
Co0 O13 2.012981 1_555
Co1 O12 1.870039 1_555
Co1 O4 1.881881 1_555
Co1 O10 1.903703 1_555
Co1 O14 1.925356 1_555
Co1 O9 1.995044 1_555
Co1 O0 1.995526 1_655
Co2 O12 1.869756 1_555
Co2 O4 1.881805 1_545
Co2 O11 1.904208 1_555
Co2 O14 1.925518 1_555
Co2 O9 1.994900 1_545
Co2 O5 1.996663 1_655
O0 Te0 1.931842 1_555
O1 Te0 2.023345 1_555
O5 Te0 1.931905 1_555
O6 Te0 2.020737 1_555
O7 Te0 2.019447 1_555
O8 Te1 1.916710 1_554
O9 Te0 1.952426 1_555
O10 Te1 2.025415 1_555
O11 Te1 2.026485 1_555
O13 Te1 1.933466 1_554
O14 Te1 2.027892 1_555
O15 Te1 1.932999 1_554
