# generated using pymatgen
data_USNO6F
_symmetry_space_group_name_H-M   'P 1'
_cell_length_a   7.17389700
_cell_length_b   8.75204500
_cell_length_c   10.95595000
_cell_angle_alpha   90.00000000
_cell_angle_beta   90.00000000
_cell_angle_gamma   90.00000000
_symmetry_Int_Tables_number   1
_chemical_formula_structural   USNO6F
_chemical_formula_sum   'U4 S4 N4 O24 F4'
_cell_volume   687.88322790
_cell_formula_units_Z   4
loop_
 _symmetry_equiv_pos_site_id
 _symmetry_equiv_pos_as_xyz
  1  'x, y, z'
loop_
 _atom_site_type_symbol
 _atom_site_label
 _atom_site_symmetry_multiplicity
 _atom_site_fract_x
 _atom_site_fract_y
 _atom_site_fract_z
 _atom_site_occupancy
  U  U0  1  0.90038600  0.61017500  0.00182300  1
  U  U1  1  0.09961400  0.38982500  0.50182300  1
  U  U2  1  0.90038600  0.88982500  0.50182300  1
  U  U3  1  0.09961400  0.11017500  0.00182300  1
  S  S0  1  0.61067800  0.97546200  0.97633100  1
  S  S1  1  0.38932200  0.02453800  0.47633100  1
  S  S2  1  0.61067800  0.52453800  0.47633100  1
  S  S3  1  0.38932200  0.47546200  0.97633100  1
  N  N0  1  0.67011300  0.15544400  0.78514900  1
  N  N1  1  0.32988700  0.84455600  0.28514900  1
  N  N2  1  0.67011300  0.34455600  0.28514900  1
  N  N3  1  0.32988700  0.65544400  0.78514900  1
  O  O0  1  0.88837500  0.59740500  0.83990000  1
  O  O1  1  0.11162500  0.40259500  0.33990000  1
  O  O2  1  0.88837500  0.90259500  0.33990000  1
  O  O3  1  0.11162500  0.09740500  0.83990000  1
  O  O4  1  0.89965100  0.62157400  0.16428500  1
  O  O5  1  0.10034900  0.37842600  0.66428500  1
  O  O6  1  0.89965100  0.87842600  0.66428500  1
  O  O7  1  0.10034900  0.12157400  0.16428500  1
  O  O8  1  0.65314900  0.81379100  0.97153500  1
  O  O9  1  0.34685100  0.18620900  0.47153500  1
  O  O10  1  0.65314900  0.68620900  0.47153500  1
  O  O11  1  0.34685100  0.31379100  0.97153500  1
  O  O12  1  0.42422900  0.00876500  0.02092000  1
  O  O13  1  0.57577100  0.99123500  0.52092000  1
  O  O14  1  0.42422900  0.49123500  0.52092000  1
  O  O15  1  0.57577100  0.50876500  0.02092000  1
  O  O16  1  0.60334100  0.02391900  0.81769800  1
  O  O17  1  0.39665900  0.97608100  0.31769800  1
  O  O18  1  0.60334100  0.47608100  0.31769800  1
  O  O19  1  0.39665900  0.52391900  0.81769800  1
  O  O20  1  0.75537300  0.07335300  0.02691800  1
  O  O21  1  0.24462700  0.92664700  0.52691800  1
  O  O22  1  0.75537300  0.42664700  0.52691800  1
  O  O23  1  0.24462700  0.57335300  0.02691800  1
  F  F0  1  0.95846000  0.34941600  0.99814100  1
  F  F1  1  0.04154000  0.65058400  0.49814100  1
  F  F2  1  0.95846000  0.15058400  0.49814100  1
  F  F3  1  0.04154000  0.84941600  0.99814100  1
loop_
_geom_bond_atom_site_label_1
_geom_bond_atom_site_label_2
_geom_bond_distance
_geom_bond_site_symmetry_2
N0 O16 1.296797 1_555
N1 O17 1.296797 1_555
N2 O18 1.296797 1_555
N3 O19 1.296797 1_555
O0 U0 1.779625 1_556
O1 U1 1.779625 1_555
O2 U2 1.779625 1_555
O3 U3 1.779625 1_556
O4 U0 1.782727 1_555
O5 U1 1.782727 1_555
O6 U2 1.782727 1_555
O7 U3 1.782727 1_555
O8 S0 1.448337 1_555
O8 U0 2.536076 1_556
O9 S1 1.448337 1_555
O9 U1 2.536076 1_555
O10 S2 1.448337 1_555
O10 U2 2.536076 1_555
O11 S3 1.448337 1_555
O11 U3 2.536076 1_556
O12 S0 1.453507 1_544
O12 U3 2.500922 1_555
O13 S1 1.453507 1_565
O13 U2 2.500922 1_555
O14 S2 1.453507 1_555
O14 U1 2.500922 1_555
O15 S3 1.453507 1_554
O15 U0 2.500922 1_555
O16 S0 1.789745 1_545
O17 S1 1.789745 1_565
O18 S2 1.789745 1_555
O19 S3 1.789745 1_555
O20 S0 1.455570 1_544
O20 U3 2.505618 1_655
O21 S1 1.455570 1_565
O21 U2 2.505618 1_455
O22 S2 1.455570 1_555
O22 U1 2.505618 1_655
O23 S3 1.455570 1_554
O23 U0 2.505618 1_455
F0 U0 2.320241 1_556
F0 U3 2.326206 1_656
F1 U1 2.320241 1_555
F1 U2 2.326206 1_455
F2 U2 2.320241 1_545
F2 U1 2.326206 1_655
F3 U3 2.320241 1_566
F3 U0 2.326206 1_456
