# generated using pymatgen
data_Li2FeP2O7
_symmetry_space_group_name_H-M   'P 1'
_cell_length_a   5.13860374
_cell_length_b   8.81460526
_cell_length_c   13.22749281
_cell_angle_alpha   96.01048066
_cell_angle_beta   100.42838067
_cell_angle_gamma   89.02742935
_symmetry_Int_Tables_number   1
_chemical_formula_structural   Li2FeP2O7
_chemical_formula_sum   'Li8 Fe4 P8 O28'
_cell_volume   585.99919481
_cell_formula_units_Z   4
loop_
 _symmetry_equiv_pos_site_id
 _symmetry_equiv_pos_as_xyz
  1  'x, y, z'
loop_
 _atom_site_type_symbol
 _atom_site_label
 _atom_site_symmetry_multiplicity
 _atom_site_fract_x
 _atom_site_fract_y
 _atom_site_fract_z
 _atom_site_occupancy
  Li  Li0  1  0.67611300  0.60312000  0.41020700  1
  Li  Li1  1  0.17829800  0.10278800  0.40892400  1
  Li  Li2  1  0.50649400  0.21235900  0.08941000  1
  Li  Li3  1  0.00845600  0.71224900  0.09125500  1
  Li  Li4  1  0.49300400  0.78767800  0.90868500  1
  Li  Li5  1  0.99282500  0.28785900  0.91080500  1
  Li  Li6  1  0.32167300  0.39725600  0.59148800  1
  Li  Li7  1  0.82326500  0.89664400  0.58934900  1
  Fe  Fe0  1  0.25003800  0.75015400  0.49979200  1
  Fe  Fe1  1  0.50072300  0.49999900  0.99947900  1
  Fe  Fe2  1  0.74980400  0.24984500  0.50035800  1
  Fe  Fe3  1  0.99946100  0.99986300  0.00017400  1
  P  P0  1  0.83408400  0.57918900  0.63180800  1
  P  P1  1  0.33557800  0.07886400  0.63091900  1
  P  P2  1  0.96375400  0.62265900  0.86883700  1
  P  P3  1  0.46329700  0.12254200  0.86823400  1
  P  P4  1  0.03617900  0.37731000  0.13198100  1
  P  P5  1  0.53723300  0.87764900  0.13089800  1
  P  P6  1  0.16387400  0.42082400  0.36927600  1
  P  P7  1  0.66591200  0.92104100  0.36802600  1
  O  O0  1  0.84880300  0.64877700  0.75032500  1
  O  O1  1  0.35404800  0.14878200  0.74940500  1
  O  O2  1  0.14444700  0.35036400  0.25080100  1
  O  O3  1  0.65239400  0.85208000  0.24950200  1
  O  O4  1  0.26569700  0.60287700  0.88111900  1
  O  O5  1  0.76579500  0.10374800  0.88212000  1
  O  O6  1  0.71248100  0.41833700  0.61908200  1
  O  O7  1  0.21397900  0.91806100  0.61841200  1
  O  O8  1  0.28541700  0.58158200  0.38124000  1
  O  O9  1  0.78752500  0.08191000  0.38143700  1
  O  O10  1  0.73367800  0.39641300  0.11785600  1
  O  O11  1  0.23532600  0.89717700  0.11862900  1
  O  O12  1  0.88805900  0.77150800  0.92746000  1
  O  O13  1  0.38532100  0.27121800  0.92657700  1
  O  O14  1  0.64941000  0.69151900  0.57254700  1
  O  O15  1  0.14996600  0.19140200  0.57244600  1
  O  O16  1  0.34985900  0.30857500  0.42787400  1
  O  O17  1  0.85013900  0.80837700  0.42722400  1
  O  O18  1  0.11399800  0.22875400  0.07344200  1
  O  O19  1  0.61325600  0.72867800  0.07241700  1
  O  O20  1  0.88805000  0.42045300  0.39797100  1
  O  O21  1  0.38844100  0.91957800  0.39503500  1
  O  O22  1  0.17668100  0.51535600  0.10485900  1
  O  O23  1  0.67597500  0.01538400  0.10230200  1
  O  O24  1  0.82478100  0.48497900  0.89737900  1
  O  O25  1  0.32348700  0.98444900  0.89563800  1
  O  O26  1  0.11127600  0.58037500  0.60456400  1
  O  O27  1  0.61164600  0.07939400  0.60243200  1
loop_
_geom_bond_atom_site_label_1
_geom_bond_atom_site_label_2
_geom_bond_distance
_geom_bond_site_symmetry_2
Li0 O20 1.937653 1_555
Li0 O8 1.983096 1_555
Li0 O17 2.005128 1_555
Li0 O14 2.233771 1_555
Li1 O21 1.938627 1_545
Li1 O9 1.983045 1_455
Li1 O16 2.002358 1_555
Li1 O15 2.250808 1_555
Li2 O23 1.938824 1_555
Li2 O10 1.978363 1_555
Li2 O18 1.993888 1_555
Li2 O13 2.243567 1_554
Li3 O22 1.936460 1_555
Li3 O11 1.983784 1_555
Li3 O19 2.005367 1_455
Li3 O12 2.256220 1_454
Li4 O25 1.937495 1_555
Li4 O4 1.984128 1_555
Li4 O12 2.004520 1_555
Li4 O19 2.254623 1_556
Li5 O24 1.937625 1_555
Li5 O5 1.978315 1_555
Li5 O13 1.994215 1_655
Li5 O18 2.241856 1_656
Li6 O26 1.937568 1_555
Li6 O6 1.983371 1_555
Li6 O15 2.003155 1_555
Li6 O16 2.251918 1_555
Li7 O27 1.938459 1_565
Li7 O7 1.983088 1_655
Li7 O14 2.003877 1_555
Li7 O17 2.231024 1_555
Fe0 O7 2.072764 1_555
Fe0 O8 2.075110 1_555
Fe0 O14 2.181295 1_555
Fe0 O17 2.181921 1_455
Fe0 O21 2.341439 1_555
Fe0 O26 2.344565 1_555
Fe1 O10 2.074183 1_556
Fe1 O4 2.075492 1_555
Fe1 O19 2.181432 1_556
Fe1 O13 2.185090 1_555
Fe1 O24 2.320251 1_555
Fe1 O22 2.350964 1_556
Fe2 O9 2.077550 1_555
Fe2 O6 2.078392 1_555
Fe2 O15 2.181739 1_655
Fe2 O16 2.182988 1_555
Fe2 O27 2.322162 1_555
Fe2 O20 2.326257 1_555
Fe3 O5 2.074142 1_564
Fe3 O11 2.077401 1_655
Fe3 O12 2.176869 1_554
Fe3 O18 2.186465 1_665
Fe3 O23 2.318030 1_565
Fe3 O25 2.342919 1_654
O0 P2 1.610927 1_555
O0 P0 1.611480 1_555
O1 P1 1.609668 1_555
O1 P3 1.609823 1_555
O2 P6 1.610351 1_555
O2 P4 1.610371 1_555
O3 P7 1.610800 1_555
O3 P5 1.611104 1_555
O4 P2 1.539367 1_455
O5 P3 1.540022 1_555
O6 P0 1.539839 1_555
O7 P1 1.539613 1_565
O8 P6 1.539598 1_555
O9 P7 1.539474 1_545
O10 P4 1.540158 1_655
O11 P5 1.538957 1_555
O12 P2 1.533902 1_555
O13 P3 1.534894 1_555
O14 P0 1.535167 1_555
O15 P1 1.534097 1_555
O16 P6 1.534101 1_555
O17 P7 1.535625 1_555
O18 P4 1.534975 1_555
O19 P5 1.534452 1_555
O20 P6 1.532361 1_655
O21 P7 1.531907 1_555
O22 P4 1.531546 1_555
O23 P5 1.532491 1_545
O24 P2 1.532417 1_555
O25 P3 1.531523 1_565
O26 P0 1.531650 1_455
O27 P1 1.532499 1_555
