# generated using pymatgen
data_Li3V3P8O29
_symmetry_space_group_name_H-M   'P 1'
_cell_length_a   9.75095500
_cell_length_b   9.75338476
_cell_length_c   14.38388350
_cell_angle_alpha   90.19018440
_cell_angle_beta   90.17885188
_cell_angle_gamma   119.78235140
_symmetry_Int_Tables_number   1
_chemical_formula_structural   Li3V3P8O29
_chemical_formula_sum   'Li6 V6 P16 O58'
_cell_volume   1187.26770784
_cell_formula_units_Z   2
loop_
 _symmetry_equiv_pos_site_id
 _symmetry_equiv_pos_as_xyz
  1  'x, y, z'
loop_
 _atom_site_type_symbol
 _atom_site_label
 _atom_site_symmetry_multiplicity
 _atom_site_fract_x
 _atom_site_fract_y
 _atom_site_fract_z
 _atom_site_occupancy
  Li  Li0  1  0.30327200  0.07976500  0.55668500  1
  Li  Li1  1  0.90868100  0.67713300  0.05312200  1
  Li  Li2  1  0.77296500  0.09319500  0.05219900  1
  Li  Li3  1  0.91472300  0.22584800  0.56336800  1
  Li  Li4  1  0.69817300  0.91309000  0.45208700  1
  Li  Li5  1  0.05792400  0.03812300  0.00040900  1
  V  V0  1  0.99700400  0.56471400  0.25520600  1
  V  V1  1  0.00549900  0.44013800  0.75041300  1
  V  V2  1  0.42933300  0.99683000  0.75562300  1
  V  V3  1  0.56199200  0.00078200  0.24365900  1
  V  V4  1  0.43648900  0.43304800  0.24464800  1
  V  V5  1  0.56335500  0.56389900  0.74996600  1
  P  P0  1  0.30419000  0.22583200  0.84153900  1
  P  P1  1  0.31946600  0.09222700  0.33989200  1
  P  P2  1  0.76931800  0.68650600  0.34153300  1
  P  P3  1  0.67141100  0.33556500  0.13157900  1
  P  P4  1  0.66298600  0.32637400  0.63345800  1
  P  P5  1  0.91245700  0.68874700  0.83948300  1
  P  P6  1  0.08478200  0.77542200  0.65885700  1
  P  P7  1  0.77748500  0.09104300  0.84032000  1
  P  P8  1  0.21490200  0.91206200  0.16156900  1
  P  P9  1  0.90671000  0.22639200  0.34474900  1
  P  P10  1  0.08267200  0.30643200  0.16605100  1
  P  P11  1  0.33858400  0.66833100  0.36313000  1
  P  P12  1  0.33477900  0.66651200  0.86714300  1
  P  P13  1  0.22652700  0.31221600  0.65892800  1
  P  P14  1  0.67931000  0.90766300  0.66371200  1
  P  P15  1  0.69457300  0.77600500  0.15862800  1
  O  O0  1  0.23064800  0.22438100  0.57575600  1
  O  O1  1  0.34219900  0.25937600  0.32652700  1
  O  O2  1  0.19565600  0.99306400  0.08046000  1
  O  O3  1  0.34491500  0.09005600  0.82928300  1
  O  O4  1  0.45900300  0.38576100  0.83154500  1
  O  O5  1  0.52036100  0.32884000  0.17464100  1
  O  O6  1  0.61833400  0.52597400  0.32069800  1
  O  O7  1  0.79642100  0.78784900  0.07891200  1
  O  O8  1  0.74041400  0.65515500  0.82828100  1
  O  O9  1  0.51787300  0.17511600  0.67571700  1
  O  O10  1  0.47990100  0.10012800  0.31368800  1
  O  O11  1  0.65295500  0.46695200  0.68187500  1
  O  O12  1  0.67784000  0.33463100  0.02844000  1
  O  O13  1  0.65621600  0.32330000  0.53036600  1
  O  O14  1  0.81526100  0.48887200  0.17386000  1
  O  O15  1  0.61719300  0.08752000  0.82813200  1
  O  O16  1  0.67780200  0.18600100  0.17123500  1
  O  O17  1  0.91300500  0.65827700  0.33269200  1
  O  O18  1  0.00754000  0.79977100  0.75421900  1
  O  O19  1  0.99969900  0.77259800  0.57403200  1
  O  O20  1  0.98170000  0.76484700  0.93050400  1
  O  O21  1  0.91250600  0.52999200  0.82353700  1
  O  O22  1  0.81836600  0.33391600  0.67141900  1
  O  O23  1  0.08001000  0.73644300  0.16576100  1
  O  O24  1  0.89733700  0.37861300  0.32246300  1
  O  O25  1  0.73974800  0.07735600  0.33296700  1
  O  O26  1  0.19872000  0.98691700  0.25866900  1
  O  O27  1  0.26195600  0.02001300  0.43150500  1
  O  O28  1  0.75730400  0.99626300  0.57660600  1
  O  O29  1  0.25766000  0.91876500  0.66444400  1
  O  O30  1  0.09303400  0.62122200  0.67873700  1
  O  O31  1  0.91619100  0.26164800  0.82671400  1
  O  O32  1  0.18305500  0.65940700  0.32179300  1
  O  O33  1  0.07627700  0.46141000  0.17546600  1
  O  O34  1  0.99275500  0.20102600  0.08674300  1
  O  O35  1  0.97478800  0.23251800  0.43780100  1
  O  O36  1  0.01217800  0.21327600  0.26348300  1
  O  O37  1  0.08321000  0.34157700  0.65935800  1
  O  O38  1  0.32918600  0.81380300  0.82411200  1
  O  O39  1  0.37866800  0.91775800  0.17013600  1
  O  O40  1  0.18683200  0.51752900  0.82133700  1
  O  O41  1  0.33112600  0.66651600  0.96976300  1
  O  O42  1  0.34924500  0.67778700  0.46564600  1
  O  O43  1  0.34325700  0.52624400  0.31667800  1
  O  O44  1  0.52064400  0.90154200  0.68154200  1
  O  O45  1  0.48083400  0.82042300  0.31719600  1
  O  O46  1  0.25774500  0.34621000  0.16653100  1
  O  O47  1  0.19934400  0.20734800  0.75068300  1
  O  O48  1  0.20843400  0.20221900  0.92544200  1
  O  O49  1  0.37922500  0.47237700  0.67689700  1
  O  O50  1  0.48211800  0.67010000  0.82188800  1
  O  O51  1  0.53825200  0.61628100  0.16851700  1
  O  O52  1  0.65747800  0.91501300  0.15889900  1
  O  O53  1  0.79203100  0.02370000  0.92991800  1
  O  O54  1  0.79275000  0.99685600  0.75195700  1
  O  O55  1  0.65497800  0.73889000  0.66634300  1
  O  O56  1  0.76468600  0.76707800  0.42769700  1
  O  O57  1  0.79084000  0.79959200  0.25421800  1
loop_
_geom_bond_atom_site_label_1
_geom_bond_atom_site_label_2
_geom_bond_distance
_geom_bond_site_symmetry_2
Li0 O27 1.870635 1_555
Li0 O0 1.886038 1_555
Li0 O29 2.095894 1_545
Li0 O9 2.491777 1_555
Li1 O7 1.917312 1_555
Li1 O20 1.939667 1_554
Li1 O23 2.183448 1_655
Li1 O14 2.363652 1_555
Li2 O34 1.922724 1_555
Li2 O53 1.925343 1_554
Li2 O52 2.174437 1_545
Li2 O16 2.333678 1_555
Li3 O35 1.891810 1_555
Li3 O28 1.999175 1_545
Li3 O37 2.003212 1_655
Li3 O22 2.321927 1_555
Li4 O56 1.867473 1_555
Li4 O28 1.928133 1_555
Li4 O25 2.245959 1_565
Li5 O48 1.888422 1_554
Li5 O2 1.975527 1_545
Li5 O34 2.337780 1_455
O0 P13 1.481366 1_555
O1 P1 1.545062 1_555
O1 V4 1.890642 1_555
O2 P8 1.473950 1_555
O3 P0 1.569644 1_555
O3 V2 1.835626 1_545
O4 P0 1.547984 1_555
O4 V5 1.922432 1_555
O5 P3 1.570774 1_555
O5 V4 1.881482 1_555
O6 P2 1.553382 1_555
O6 V4 1.883340 1_555
O7 P15 1.486066 1_555
O8 P5 1.549045 1_555
O8 V5 1.869912 1_555
O9 P4 1.576607 1_555
O9 V2 1.902163 1_545
O10 P1 1.574626 1_555
O10 V3 1.833937 1_555
O11 P4 1.581719 1_555
O11 V5 1.853790 1_555
O12 P3 1.485247 1_555
O13 P4 1.483667 1_555
O14 P3 1.574248 1_555
O14 V0 1.932839 1_555
O15 P7 1.555564 1_555
O15 V2 1.896848 1_545
O16 P3 1.597756 1_555
O16 V3 1.901890 1_555
O17 P2 1.561767 1_555
O17 V0 1.867439 1_555
O18 P5 1.598397 1_455
O18 P6 1.639255 1_555
O19 P6 1.465774 1_655
O20 P5 1.486966 1_555
O21 P5 1.564776 1_555
O21 V1 1.867043 1_655
O22 P4 1.575737 1_555
O22 V1 1.948139 1_655
O23 P8 1.559070 1_555
O23 V0 1.946752 1_455
O24 P9 1.566248 1_555
O24 V0 1.854766 1_555
O25 P9 1.561379 1_555
O25 V3 1.976364 1_555
O26 P1 1.608804 1_565
O26 P8 1.617924 1_555
O27 P1 1.471538 1_555
O28 P14 1.501739 1_555
O29 P6 1.568410 1_555
O29 V2 1.953324 1_555
O30 P6 1.572611 1_555
O30 V1 1.852256 1_555
O31 P7 1.550645 1_555
O31 V1 1.872473 1_655
O32 P11 1.588694 1_555
O32 V0 1.838574 1_455
O33 P10 1.548991 1_555
O33 V0 1.923487 1_455
O34 P10 1.489129 1_655
O35 P9 1.479933 1_555
O36 P9 1.605485 1_455
O36 P10 1.629762 1_555
O37 P13 1.559676 1_555
O37 V1 1.983721 1_555
O38 P12 1.591659 1_555
O38 V2 1.843023 1_555
O39 P8 1.574445 1_555
O39 V3 1.874594 1_565
O40 P12 1.591225 1_555
O40 V1 1.842465 1_555
O41 P12 1.476615 1_555
O42 P11 1.477264 1_555
O43 P11 1.557501 1_555
O43 V4 1.883264 1_555
O44 P14 1.540720 1_555
O44 V2 1.900879 1_555
O45 P11 1.590346 1_555
O45 V3 1.863923 1_565
O46 P10 1.551391 1_555
O46 V4 1.879536 1_555
O47 P0 1.610151 1_555
O47 P13 1.612480 1_555
O48 P0 1.475332 1_555
O49 P13 1.551870 1_555
O49 V5 1.874812 1_555
O50 P12 1.563678 1_555
O50 V5 1.893077 1_555
O51 P15 1.553841 1_555
O51 V4 1.906768 1_555
O52 P15 1.567224 1_555
O52 V3 1.956315 1_565
O53 P7 1.486432 1_555
O54 P7 1.615789 1_565
O54 P14 1.618472 1_555
O55 P14 1.542687 1_555
O55 V5 1.914034 1_555
O56 P2 1.478103 1_555
O57 P15 1.612418 1_555
O57 P2 1.618283 1_555
