# generated using pymatgen
data_LiFeF4
_symmetry_space_group_name_H-M   'P 1'
_cell_length_a   6.98886600
_cell_length_b   8.44636199
_cell_length_c   9.76480611
_cell_angle_alpha   96.77227067
_cell_angle_beta   107.23370096
_cell_angle_gamma   101.37478843
_symmetry_Int_Tables_number   1
_chemical_formula_structural   LiFeF4
_chemical_formula_sum   'Li6 Fe6 F24'
_cell_volume   530.06918766
_cell_formula_units_Z   6
loop_
 _symmetry_equiv_pos_site_id
 _symmetry_equiv_pos_as_xyz
  1  'x, y, z'
loop_
 _atom_site_type_symbol
 _atom_site_label
 _atom_site_symmetry_multiplicity
 _atom_site_fract_x
 _atom_site_fract_y
 _atom_site_fract_z
 _atom_site_occupancy
  Li  Li0  1  0.03878900  0.19202400  0.99176200  1
  Li  Li1  1  0.53240800  0.61449800  0.78135400  1
  Li  Li2  1  0.24925100  0.80290600  0.58864300  1
  Li  Li3  1  0.75074900  0.19709400  0.41135700  1
  Li  Li4  1  0.46759200  0.38550200  0.21864600  1
  Li  Li5  1  0.96121100  0.80797600  0.00823800  1
  Fe  Fe0  1  0.47613400  0.20328100  0.87510800  1
  Fe  Fe1  1  0.99411200  0.50389800  0.74153000  1
  Fe  Fe2  1  0.80317900  0.90097200  0.65714900  1
  Fe  Fe3  1  0.19682100  0.09902800  0.34285100  1
  Fe  Fe4  1  0.00588800  0.49610200  0.25847000  1
  Fe  Fe5  1  0.52386600  0.79671900  0.12489200  1
  F  F0  1  0.05241600  0.35080000  0.85649700  1
  F  F1  1  0.74441500  0.19442900  0.96281900  1
  F  F2  1  0.63603000  0.76642500  0.97525100  1
  F  F3  1  0.33606600  0.01330400  0.74154600  1
  F  F4  1  0.48050700  0.38312300  0.78381800  1
  F  F5  1  0.24280500  0.63310400  0.74336500  1
  F  F6  1  0.84996200  0.63554600  0.81942600  1
  F  F7  1  0.95809400  0.97993600  0.85313000  1
  F  F8  1  0.55105400  0.76846500  0.64811400  1
  F  F9  1  0.73950800  0.07298100  0.57051300  1
  F  F10  1  0.05608300  0.21128400  0.43581600  1
  F  F11  1  0.82329400  0.40381100  0.55886800  1
  F  F12  1  0.17670600  0.59618900  0.44113200  1
  F  F13  1  0.94391700  0.78871600  0.56418400  1
  F  F14  1  0.26049200  0.92701900  0.42948700  1
  F  F15  1  0.44894600  0.23153500  0.35188600  1
  F  F16  1  0.04190600  0.02006400  0.14687000  1
  F  F17  1  0.15003800  0.36445400  0.18057400  1
  F  F18  1  0.75719500  0.36689600  0.25663500  1
  F  F19  1  0.51949300  0.61687700  0.21618200  1
  F  F20  1  0.66393400  0.98669600  0.25845400  1
  F  F21  1  0.36397000  0.23357500  0.02474900  1
  F  F22  1  0.25558500  0.80557100  0.03718100  1
  F  F23  1  0.94758400  0.64920000  0.14350300  1
loop_
_geom_bond_atom_site_label_1
_geom_bond_atom_site_label_2
_geom_bond_distance
_geom_bond_site_symmetry_2
F0 Fe1 1.837843 1_455
F0 Li0 1.998524 1_555
F1 Fe0 1.836722 1_555
F1 Li0 1.996558 1_655
F2 Fe5 1.866757 1_556
F2 Li1 2.000979 1_555
F2 Li5 2.148675 1_556
F3 Fe0 1.834217 1_555
F3 Li2 2.041467 1_545
F4 Fe0 1.849368 1_555
F4 Li1 1.920415 1_555
F5 Fe1 1.854984 1_455
F5 Li1 1.988265 1_555
F5 Li2 2.206237 1_555
F6 Fe1 1.877873 1_555
F6 Li5 2.048304 1_556
F6 Li1 2.105988 1_555
F7 Fe2 1.861658 1_555
F7 Li0 1.984139 1_665
F7 Li5 2.217164 1_556
F8 Fe2 1.863323 1_555
F8 Li1 1.957961 1_555
F8 Li2 2.104024 1_555
F9 Fe2 1.829290 1_545
F9 Li3 1.986083 1_555
F10 Fe3 1.839697 1_555
F10 Li3 2.053161 1_455
F11 Fe1 1.818201 1_555
F11 Li3 2.001332 1_555
F12 Fe4 1.818201 1_555
F12 Li2 2.001332 1_555
F13 Fe2 1.839697 1_555
F13 Li2 2.053161 1_655
F14 Fe3 1.829290 1_565
F14 Li2 1.986083 1_555
F15 Fe3 1.863323 1_555
F15 Li4 1.957961 1_555
F15 Li3 2.104024 1_555
F16 Fe3 1.861658 1_555
F16 Li5 1.984139 1_445
F16 Li0 2.217164 1_554
F17 Fe4 1.877873 1_555
F17 Li0 2.048304 1_554
F17 Li4 2.105988 1_555
F18 Fe4 1.854984 1_655
F18 Li4 1.988265 1_555
F18 Li3 2.206237 1_555
F19 Fe5 1.849368 1_555
F19 Li4 1.920415 1_555
F20 Fe5 1.834217 1_555
F20 Li3 2.041467 1_565
F21 Fe0 1.866757 1_554
F21 Li4 2.000979 1_555
F21 Li0 2.148675 1_554
F22 Fe5 1.836722 1_555
F22 Li5 1.996558 1_455
F23 Fe4 1.837843 1_655
F23 Li5 1.998524 1_555
