# generated using pymatgen
data_Na3VO3
_symmetry_space_group_name_H-M   'P 1'
_cell_length_a   6.17217166
_cell_length_b   8.75764764
_cell_length_c   8.75788889
_cell_angle_alpha   103.19867799
_cell_angle_beta   70.00218466
_cell_angle_gamma   109.99888939
_symmetry_Int_Tables_number   1
_chemical_formula_structural   Na3VO3
_chemical_formula_sum   'Na12 V4 O12'
_cell_volume   414.69027722
_cell_formula_units_Z   4
loop_
 _symmetry_equiv_pos_site_id
 _symmetry_equiv_pos_as_xyz
  1  'x, y, z'
loop_
 _atom_site_type_symbol
 _atom_site_label
 _atom_site_symmetry_multiplicity
 _atom_site_fract_x
 _atom_site_fract_y
 _atom_site_fract_z
 _atom_site_occupancy
  Na  Na0  1  0.75002600  0.44022400  0.44020000  1
  Na  Na1  1  0.24997900  0.55977900  0.55979000  1
  Na  Na2  1  0.74996500  0.71967900  0.71969300  1
  Na  Na3  1  0.25002000  0.28031700  0.28030600  1
  Na  Na4  1  0.55104700  0.17420200  0.99541000  1
  Na  Na5  1  0.05104900  0.00458400  0.82583300  1
  Na  Na6  1  0.94896400  0.99541700  0.17416600  1
  Na  Na7  1  0.44895900  0.82579800  0.00459500  1
  Na  Na8  1  0.92401200  0.23202500  0.63525900  1
  Na  Na9  1  0.42400000  0.36474200  0.76794700  1
  Na  Na10  1  0.57599900  0.63524900  0.23205400  1
  Na  Na11  1  0.07597900  0.76797700  0.36474400  1
  V  V0  1  0.40728900  0.08564500  0.42452500  1
  V  V1  1  0.59270700  0.91436000  0.57547300  1
  V  V2  1  0.90725700  0.57545400  0.91436600  1
  V  V3  1  0.09275800  0.42454700  0.08563400  1
  O  O0  1  0.72798800  0.09293800  0.43136400  1
  O  O1  1  0.22796500  0.56862500  0.90702300  1
  O  O2  1  0.77204200  0.43137300  0.09297300  1
  O  O3  1  0.27200500  0.90706300  0.56863800  1
  O  O4  1  0.83778700  0.48201400  0.71112200  1
  O  O5  1  0.33785800  0.28891200  0.51795000  1
  O  O6  1  0.66214000  0.71108900  0.48205000  1
  O  O7  1  0.16221500  0.51798900  0.28888100  1
  O  O8  1  0.81574400  0.77264000  0.99104500  1
  O  O9  1  0.31573400  0.00892900  0.22735800  1
  O  O10  1  0.68425900  0.99107100  0.77264600  1
  O  O11  1  0.18425400  0.22735900  0.00895700  1
loop_
_geom_bond_atom_site_label_1
_geom_bond_atom_site_label_2
_geom_bond_distance
_geom_bond_site_symmetry_2
Na0 O5 2.369141 1_555
Na0 O7 2.369285 1_655
Na0 O6 2.530369 1_555
Na0 O4 2.530613 1_555
Na1 O6 2.369098 1_555
Na1 O4 2.369329 1_455
Na1 O5 2.530378 1_555
Na1 O7 2.530510 1_555
Na2 O6 2.302902 1_555
Na2 O4 2.303075 1_555
Na2 O8 2.460761 1_555
Na2 O10 2.460860 1_555
Na3 O5 2.302942 1_555
Na3 O7 2.303070 1_555
Na3 O11 2.460703 1_555
Na3 O9 2.460850 1_555
Na4 O10 2.330311 1_545
Na4 O2 2.340972 1_556
Na4 O11 2.422402 1_556
Na4 O9 2.493534 1_556
Na5 O11 2.330289 1_556
Na5 O3 2.340963 1_545
Na5 O10 2.422607 1_445
Na5 O8 2.493174 1_445
Na6 O8 2.330311 1_554
Na6 O0 2.341028 1_565
Na6 O9 2.422510 1_665
Na6 O11 2.493137 1_665
Na7 O9 2.330330 1_565
Na7 O1 2.341009 1_554
Na7 O8 2.422349 1_554
Na7 O10 2.493532 1_554
Na8 O5 2.323077 1_655
Na8 O4 2.325647 1_555
Na8 O0 2.369098 1_555
Na8 O10 2.428204 1_545
Na9 O4 2.322740 1_555
Na9 O5 2.325531 1_555
Na9 O1 2.369030 1_555
Na9 O11 2.428599 1_556
Na10 O7 2.322710 1_555
Na10 O6 2.325519 1_555
Na10 O2 2.369017 1_555
Na10 O8 2.428625 1_554
Na11 O6 2.323036 1_455
Na11 O7 2.325670 1_555
Na11 O3 2.369097 1_555
Na11 O9 2.428188 1_565
O0 V0 1.979544 1_555
O0 V1 2.005815 1_545
O1 V2 1.979430 1_455
O1 V3 2.005903 1_556
O2 V3 1.979481 1_655
O2 V2 2.005890 1_554
O3 V1 1.979539 1_555
O3 V0 2.005864 1_565
O4 V2 1.907540 1_555
O5 V0 1.907578 1_555
O6 V1 1.907613 1_555
O7 V3 1.907534 1_555
O8 V2 1.905337 1_555
O9 V0 1.905354 1_555
O10 V1 1.905392 1_555
O11 V3 1.905302 1_555
