# generated using pymatgen
data_Li2MnV(PO4)3
_symmetry_space_group_name_H-M   'P 1'
_cell_length_a   8.98137147
_cell_length_b   8.25838584
_cell_length_c   8.36480831
_cell_angle_alpha   60.13658316
_cell_angle_beta   63.85493628
_cell_angle_gamma   91.21562163
_symmetry_Int_Tables_number   1
_chemical_formula_structural   Li2MnV(PO4)3
_chemical_formula_sum   'Li4 Mn2 V2 P6 O24'
_cell_volume   459.34290303
_cell_formula_units_Z   2
loop_
 _symmetry_equiv_pos_site_id
 _symmetry_equiv_pos_as_xyz
  1  'x, y, z'
loop_
 _atom_site_type_symbol
 _atom_site_label
 _atom_site_symmetry_multiplicity
 _atom_site_fract_x
 _atom_site_fract_y
 _atom_site_fract_z
 _atom_site_occupancy
  Li  Li0  1  0.37520000  0.19171400  0.36755900  1
  Li  Li1  1  0.86590200  0.67920800  0.06149900  1
  Li  Li2  1  0.88468700  0.92838800  0.37519300  1
  Li  Li3  1  0.87863400  0.24879400  0.81139500  1
  Mn  Mn0  1  0.56388700  0.86086900  0.28502500  1
  Mn  Mn1  1  0.43000800  0.13588500  0.72476000  1
  V  V0  1  0.04818000  0.35610400  0.29878700  1
  V  V1  1  0.96367400  0.65171000  0.69062500  1
  P  P0  1  0.24865400  0.04971500  0.20834200  1
  P  P1  1  0.25108000  0.46473400  0.49645000  1
  P  P2  1  0.25381200  0.75111200  0.79235500  1
  P  P3  1  0.75432400  0.24928600  0.20709200  1
  P  P4  1  0.74819600  0.53068800  0.50454400  1
  P  P5  1  0.75289600  0.95762500  0.77737800  1
  O  O0  1  0.10133800  0.84571200  0.37854400  1
  O  O1  1  0.26253100  0.13318300  0.99469600  1
  O  O2  1  0.19374800  0.18547500  0.29284100  1
  O  O3  1  0.18558000  0.49159100  0.34378700  1
  O  O4  1  0.10015100  0.46618200  0.68646200  1
  O  O5  1  0.09901200  0.77473000  0.74306600  1
  O  O6  1  0.41866700  0.03373800  0.21100600  1
  O  O7  1  0.28148100  0.26341700  0.58769700  1
  O  O8  1  0.42193800  0.62771600  0.36828000  1
  O  O9  1  0.18239100  0.53793700  0.99862800  1
  O  O10  1  0.26222400  0.89359800  0.85721800  1
  O  O11  1  0.41812200  0.78616500  0.60319700  1
  O  O12  1  0.57871900  0.20972700  0.39007000  1
  O  O13  1  0.74287700  0.11442600  0.12895200  1
  O  O14  1  0.81860000  0.46687400  0.01238600  1
  O  O15  1  0.57498200  0.37200900  0.64035000  1
  O  O16  1  0.73388400  0.73929200  0.39184100  1
  O  O17  1  0.57800700  0.97291900  0.79920700  1
  O  O18  1  0.89307900  0.20323100  0.27503700  1
  O  O19  1  0.88571200  0.51648600  0.31886300  1
  O  O20  1  0.81733500  0.50754200  0.65649500  1
  O  O21  1  0.81983700  0.83148200  0.68580800  1
  O  O22  1  0.74578400  0.87097200  0.99251700  1
  O  O23  1  0.89379100  0.16887300  0.61665500  1
loop_
_geom_bond_atom_site_label_1
_geom_bond_atom_site_label_2
_geom_bond_distance
_geom_bond_site_symmetry_2
Li0 O12 1.928321 1_555
Li0 O2 1.993820 1_555
Li0 O7 2.047196 1_555
Li0 O6 2.200410 1_555
Li1 O22 1.927658 1_554
Li1 O19 1.984626 1_555
Li1 O14 2.064889 1_555
Li1 O5 2.241265 1_654
Li2 O16 1.954478 1_555
Li2 O18 1.975538 1_565
Li2 O21 2.075169 1_555
Li2 O0 2.082923 1_655
Li3 O13 1.981618 1_556
Li3 O23 1.996688 1_555
Li3 O4 2.102636 1_655
Li3 O20 2.114085 1_555
Mn0 O8 1.896255 1_555
Mn0 O13 1.989613 1_565
Mn0 O6 2.008234 1_565
Mn0 O11 2.106595 1_555
Mn0 O16 2.124018 1_555
Mn0 O22 2.220531 1_554
Mn1 O10 1.922205 1_545
Mn1 O15 1.925440 1_555
Mn1 O17 1.984112 1_545
Mn1 O1 2.077653 1_555
Mn1 O7 2.099563 1_555
Mn1 O12 2.227895 1_555
O0 P0 1.572430 1_565
O0 V1 1.953616 1_455
O1 P0 1.502569 1_556
O2 P0 1.582791 1_555
O2 V0 1.946290 1_555
O3 P1 1.552905 1_555
O3 V0 1.920081 1_555
O4 P1 1.576307 1_555
O4 V1 1.986555 1_455
O5 P2 1.605491 1_555
O5 V1 1.887691 1_455
O6 P0 1.544373 1_555
O7 P1 1.536362 1_555
O8 P1 1.530118 1_555
O9 P2 1.561896 1_555
O9 V0 1.874348 1_556
O10 P2 1.533909 1_555
O11 P2 1.494346 1_555
O12 P3 1.513149 1_555
O13 P3 1.567641 1_555
O14 P3 1.558094 1_555
O14 V1 2.001343 1_554
O15 P4 1.517053 1_555
O16 P4 1.540098 1_555
O17 P5 1.514975 1_555
O18 P3 1.565170 1_555
O18 V0 1.998220 1_655
O19 P4 1.564781 1_555
O19 V0 1.999817 1_655
O20 P4 1.579980 1_555
O20 V1 1.956850 1_555
O21 P5 1.564849 1_555
O21 V1 1.985523 1_555
O22 P5 1.539153 1_555
O23 P5 1.588575 1_545
O23 V0 1.987167 1_655
