# generated using pymatgen
data_Fe6O7F5
_symmetry_space_group_name_H-M   'P 1'
_cell_length_a   5.65010300
_cell_length_b   5.65500889
_cell_length_c   7.59812384
_cell_angle_alpha   69.71683941
_cell_angle_beta   69.82269299
_cell_angle_gamma   70.14977806
_symmetry_Int_Tables_number   1
_chemical_formula_structural   Fe6O7F5
_chemical_formula_sum   'Fe6 O7 F5'
_cell_volume   206.96163597
_cell_formula_units_Z   1
loop_
 _symmetry_equiv_pos_site_id
 _symmetry_equiv_pos_as_xyz
  1  'x, y, z'
loop_
 _atom_site_type_symbol
 _atom_site_label
 _atom_site_symmetry_multiplicity
 _atom_site_fract_x
 _atom_site_fract_y
 _atom_site_fract_z
 _atom_site_occupancy
  Fe  Fe0  1  0.32120300  0.32706700  0.14983400  1
  Fe  Fe1  1  0.65571000  0.66777800  0.34204100  1
  Fe  Fe2  1  0.37061500  0.31761300  0.68298600  1
  Fe  Fe3  1  0.64030200  0.66005500  0.82371600  1
  Fe  Fe4  1  0.00246600  0.02138600  0.49528500  1
  Fe  Fe5  1  0.00036500  0.01258800  0.00262500  1
  O  O0  1  0.36215000  0.98041400  0.32724300  1
  O  O1  1  0.22324500  0.22640600  0.96012700  1
  O  O2  1  0.57248400  0.56545300  0.62290600  1
  O  O3  1  0.65752400  0.01452200  0.66808400  1
  O  O4  1  0.97425400  0.37285000  0.32390800  1
  O  O5  1  0.29012900  0.68960400  0.00668100  1
  O  O6  1  0.68254600  0.30187200  0.00403600  1
  F  F0  1  0.04223000  0.63045100  0.66606200  1
  F  F1  1  0.10874400  0.10384600  0.69960500  1
  F  F2  1  0.76702700  0.77440700  0.04351700  1
  F  F3  1  0.43161300  0.43271800  0.38031100  1
  F  F4  1  0.89739400  0.90097200  0.30103300  1
loop_
_geom_bond_atom_site_label_1
_geom_bond_atom_site_label_2
_geom_bond_distance
_geom_bond_site_symmetry_2
Fe0 O5 1.938621 1_555
Fe0 O4 1.939918 1_455
Fe0 O6 1.940974 1_555
Fe0 O0 1.946406 1_545
Fe0 O1 2.010284 1_554
Fe1 O2 1.935582 1_555
Fe1 O0 1.971998 1_555
Fe1 O4 1.997397 1_555
Fe2 O3 1.923384 1_555
Fe2 O1 1.929407 1_555
Fe2 O2 1.938163 1_555
Fe3 O3 1.958455 1_565
Fe3 O2 1.967101 1_555
Fe3 O5 1.978422 1_556
Fe3 O6 2.002518 1_556
Fe4 O3 1.942825 1_455
Fe4 O4 1.950629 1_455
Fe4 O0 1.977186 1_545
Fe5 O1 1.906563 1_554
Fe5 O6 1.976043 1_455
Fe5 O5 1.995588 1_545
F0 Fe2 2.089618 1_555
F0 Fe4 2.120496 1_565
F0 Fe3 2.150423 1_455
F1 Fe4 2.079252 1_555
F1 Fe5 2.088179 1_556
F1 Fe2 2.155565 1_555
F2 Fe1 2.056492 1_555
F2 Fe5 2.069319 1_665
F2 Fe3 2.368148 1_554
F3 Fe1 2.018846 1_555
F3 Fe2 2.097399 1_555
F3 Fe0 2.354767 1_555
F4 Fe5 2.055452 1_665
F4 Fe1 2.084546 1_555
F4 Fe4 2.137843 1_665
