# generated using pymatgen
data_ZrCrCu2(PO4)3
_symmetry_space_group_name_H-M   'P 1'
_cell_length_a   8.84492300
_cell_length_b   8.86895053
_cell_length_c   8.91911230
_cell_angle_alpha   60.36523220
_cell_angle_beta   60.98696537
_cell_angle_gamma   60.62390475
_symmetry_Int_Tables_number   1
_chemical_formula_structural   ZrCrCu2(PO4)3
_chemical_formula_sum   'Zr2 Cr2 Cu4 P6 O24'
_cell_volume   502.06327889
_cell_formula_units_Z   2
loop_
 _symmetry_equiv_pos_site_id
 _symmetry_equiv_pos_as_xyz
  1  'x, y, z'
loop_
 _atom_site_type_symbol
 _atom_site_label
 _atom_site_symmetry_multiplicity
 _atom_site_fract_x
 _atom_site_fract_y
 _atom_site_fract_z
 _atom_site_occupancy
  Zr  Zr0  1  0.86229500  0.42546600  0.85494700  1
  Zr  Zr1  1  0.14168500  0.57910000  0.14510200  1
  Cr  Cr0  1  0.64303200  0.07432100  0.64357200  1
  Cr  Cr1  1  0.35630900  0.92599300  0.35538400  1
  Cu  Cu0  1  0.21498800  0.10648600  0.72897400  1
  Cu  Cu1  1  0.61075600  0.48006400  0.35220400  1
  Cu  Cu2  1  0.38541300  0.52069900  0.64758100  1
  Cu  Cu3  1  0.85856700  0.97652800  0.11532500  1
  P  P0  1  0.53915200  0.23922300  0.26126900  1
  P  P1  1  0.26053500  0.24136600  0.96493000  1
  P  P2  1  0.96744700  0.23787600  0.53036900  1
  P  P3  1  0.03307700  0.76380500  0.46540700  1
  P  P4  1  0.73734100  0.76159700  0.03711200  1
  P  P5  1  0.45627000  0.75781400  0.74129500  1
  O  O0  1  0.47337800  0.94514500  0.69283400  1
  O  O1  1  0.86793200  0.92970400  0.50128400  1
  O  O2  1  0.72348300  0.23758600  0.09412600  1
  O  O3  1  0.68769100  0.92963900  0.88002600  1
  O  O4  1  0.38474400  0.41725100  0.20575400  1
  O  O5  1  0.56976300  0.25037600  0.41395000  1
  O  O6  1  0.09713900  0.24522400  0.93677100  1
  O  O7  1  0.41863300  0.25482400  0.77538200  1
  O  O8  1  0.00459000  0.58263400  0.62243200  1
  O  O9  1  0.77927400  0.24222400  0.55938000  1
  O  O10  1  0.05194900  0.75910900  0.28326900  1
  O  O11  1  0.79962200  0.57823000  0.00757400  1
  O  O12  1  0.20571600  0.42180200  0.99507300  1
  O  O13  1  0.96141500  0.24125000  0.71011200  1
  O  O14  1  0.21885600  0.75719000  0.44730100  1
  O  O15  1  0.99535600  0.41783300  0.37462200  1
  O  O16  1  0.57971500  0.74588200  0.22491400  1
  O  O17  1  0.90016400  0.76390400  0.06302900  1
  O  O18  1  0.43283700  0.74771300  0.58444900  1
  O  O19  1  0.62527100  0.59464300  0.78591900  1
  O  O20  1  0.30901800  0.06966500  0.12026900  1
  O  O21  1  0.28237600  0.74522500  0.90868700  1
  O  O22  1  0.12873200  0.06885400  0.49688100  1
  O  O23  1  0.50507700  0.06495600  0.31309100  1
loop_
_geom_bond_atom_site_label_1
_geom_bond_atom_site_label_2
_geom_bond_distance
_geom_bond_site_symmetry_2
Cr0 O1 1.967349 1_545
Cr0 O3 1.971002 1_545
Cr0 O9 2.002605 1_555
Cr0 O5 2.045645 1_555
Cr0 O0 2.075229 1_545
Cr0 O7 2.089212 1_555
Cr1 O22 1.965925 1_565
Cr1 O20 1.970158 1_565
Cr1 O14 1.999148 1_555
Cr1 O23 2.010592 1_565
Cr1 O18 2.056474 1_555
Cr1 O16 2.078816 1_555
Cu0 O0 1.976817 1_545
Cu0 O13 2.006077 1_455
Cu0 O6 2.271234 1_555
Cu1 O16 1.985613 1_555
Cu1 O5 2.001495 1_555
Cu1 O9 2.412059 1_555
Cu2 O7 1.983172 1_555
Cu2 O18 2.006236 1_555
Cu2 O14 2.361444 1_555
Cu3 O2 1.973873 1_565
Cu3 O17 1.982848 1_555
Cu3 O10 2.297967 1_655
O0 P5 1.563041 1_555
O1 P3 1.518084 1_655
O2 P0 1.587860 1_555
O2 Zr0 2.187686 1_554
O3 P4 1.505568 1_556
O4 P0 1.539676 1_555
O4 Zr1 2.075460 1_555
O5 P0 1.566738 1_555
O6 P1 1.564609 1_555
O6 Zr0 2.112283 1_455
O7 P1 1.580759 1_555
O8 P3 1.560826 1_555
O8 Zr0 2.039210 1_455
O9 P2 1.538745 1_555
O10 P3 1.570249 1_555
O10 Zr1 2.109755 1_555
O11 P4 1.556163 1_555
O11 Zr0 2.085950 1_554
O12 P1 1.551144 1_555
O12 Zr1 2.096044 1_556
O13 P2 1.592713 1_555
O13 Zr0 2.165648 1_555
O14 P3 1.544997 1_555
O15 P2 1.548953 1_555
O15 Zr1 2.064460 1_655
O16 P4 1.569517 1_555
O17 P4 1.576201 1_555
O17 Zr1 2.163562 1_655
O18 P5 1.559290 1_555
O19 P5 1.540231 1_555
O19 Zr0 2.068302 1_555
O20 P1 1.507173 1_554
O21 P5 1.543798 1_555
O21 Zr1 2.084863 1_556
O22 P2 1.517522 1_455
O23 P0 1.519425 1_555
