# generated using pymatgen
data_Sc16O15
_symmetry_space_group_name_H-M   'P 1'
_cell_length_a   11.00268079
_cell_length_b   11.00268079
_cell_length_c   11.00268065
_cell_angle_alpha   33.48517978
_cell_angle_beta   33.48517978
_cell_angle_gamma   33.48518080
_symmetry_Int_Tables_number   1
_chemical_formula_structural   Sc16O15
_chemical_formula_sum   'Sc16 O15'
_cell_volume   361.09915191
_cell_formula_units_Z   1
loop_
 _symmetry_equiv_pos_site_id
 _symmetry_equiv_pos_as_xyz
  1  'x, y, z'
loop_
 _atom_site_type_symbol
 _atom_site_label
 _atom_site_symmetry_multiplicity
 _atom_site_fract_x
 _atom_site_fract_y
 _atom_site_fract_z
 _atom_site_occupancy
  Sc  Sc0  1  0.87370900  0.37845400  0.87370900  1
  Sc  Sc1  1  0.87370900  0.87370900  0.37845400  1
  Sc  Sc2  1  0.62154600  0.12629100  0.12629100  1
  Sc  Sc3  1  0.62519900  0.62519900  0.62519900  1
  Sc  Sc4  1  0.37480100  0.37480100  0.37480100  1
  Sc  Sc5  1  0.37845400  0.87370900  0.87370900  1
  Sc  Sc6  1  0.37560300  0.37560300  0.87474200  1
  Sc  Sc7  1  0.37560300  0.87474200  0.37560300  1
  Sc  Sc8  1  0.12629100  0.62154600  0.12629100  1
  Sc  Sc9  1  0.12629100  0.12629100  0.62154600  1
  Sc  Sc10  1  0.12463300  0.12463300  0.12463300  1
  Sc  Sc11  1  0.87474200  0.37560300  0.37560300  1
  Sc  Sc12  1  0.12525800  0.62439700  0.62439700  1
  Sc  Sc13  1  0.87536700  0.87536700  0.87536700  1
  Sc  Sc14  1  0.62439700  0.62439700  0.12525800  1
  Sc  Sc15  1  0.62439700  0.12525800  0.62439700  1
  O  O0  1  0.00000000  0.50000000  0.50000000  1
  O  O1  1  0.50000000  0.50000000  0.00000000  1
  O  O2  1  0.74899900  0.74899900  0.25097700  1
  O  O3  1  0.74899900  0.25097700  0.74899900  1
  O  O4  1  0.50000000  0.00000000  0.50000000  1
  O  O5  1  0.50000000  0.00000000  0.00000000  1
  O  O6  1  0.24958000  0.24958000  0.24958000  1
  O  O7  1  0.25097700  0.74899900  0.74899900  1
  O  O8  1  0.50000000  0.50000000  0.50000000  1
  O  O9  1  0.25100100  0.74902300  0.25100100  1
  O  O10  1  0.00000000  0.50000000  0.00000000  1
  O  O11  1  0.25100100  0.25100100  0.74902300  1
  O  O12  1  0.00000000  0.00000000  0.50000000  1
  O  O13  1  0.75042000  0.75042000  0.75042000  1
  O  O14  1  0.74902300  0.25100100  0.25100100  1
loop_
_geom_bond_atom_site_label_1
_geom_bond_atom_site_label_2
_geom_bond_distance
_geom_bond_site_symmetry_2
O0 Sc4 2.239407 1_555
O0 Sc3 2.239407 1_455
O0 Sc0 2.241216 1_455
O0 Sc8 2.241216 1_555
O0 Sc1 2.241216 1_455
O0 Sc9 2.241216 1_555
O1 Sc4 2.239407 1_555
O1 Sc3 2.239407 1_554
O1 Sc5 2.241216 1_554
O1 Sc0 2.241216 1_554
O1 Sc2 2.241216 1_555
O1 Sc8 2.241216 1_555
O2 Sc7 2.226952 1_555
O2 Sc11 2.226952 1_555
O2 Sc13 2.236243 1_554
O2 Sc3 2.246880 1_555
O2 Sc2 2.253963 1_565
O2 Sc8 2.253963 1_655
O3 Sc11 2.226951 1_555
O3 Sc6 2.226952 1_555
O3 Sc13 2.236243 1_545
O3 Sc3 2.246881 1_555
O3 Sc2 2.253963 1_556
O3 Sc9 2.253963 1_655
O4 Sc4 2.239407 1_555
O4 Sc3 2.239407 1_545
O4 Sc5 2.241216 1_545
O4 Sc2 2.241216 1_555
O4 Sc1 2.241216 1_545
O4 Sc9 2.241216 1_555
O5 Sc13 2.249609 1_544
O5 Sc10 2.249609 1_555
O5 Sc7 2.249970 1_545
O5 Sc15 2.249970 1_554
O5 Sc6 2.249970 1_554
O5 Sc14 2.249970 1_545
O6 Sc9 2.231183 1_555
O6 Sc8 2.231183 1_555
O6 Sc2 2.231183 1_555
O6 Sc6 2.232400 1_554
O6 Sc11 2.232400 1_455
O6 Sc7 2.232400 1_545
O7 Sc7 2.226951 1_555
O7 Sc6 2.226952 1_555
O7 Sc13 2.236243 1_455
O7 Sc3 2.246881 1_555
O7 Sc8 2.253963 1_556
O7 Sc9 2.253963 1_565
O8 Sc6 2.246122 1_555
O8 Sc14 2.246122 1_555
O8 Sc11 2.246122 1_555
O8 Sc7 2.246122 1_555
O8 Sc12 2.246122 1_555
O8 Sc15 2.246122 1_555
O9 Sc12 2.226951 1_555
O9 Sc14 2.226952 1_555
O9 Sc10 2.236243 1_565
O9 Sc4 2.246881 1_555
O9 Sc5 2.253963 1_554
O9 Sc1 2.253963 1_455
O10 Sc13 2.249609 1_454
O10 Sc10 2.249609 1_555
O10 Sc11 2.249970 1_455
O10 Sc12 2.249970 1_554
O10 Sc6 2.249970 1_554
O10 Sc14 2.249970 1_455
O11 Sc15 2.226952 1_555
O11 Sc12 2.226952 1_555
O11 Sc10 2.236243 1_556
O11 Sc4 2.246880 1_555
O11 Sc5 2.253963 1_545
O11 Sc0 2.253963 1_455
O12 Sc13 2.249609 1_445
O12 Sc10 2.249609 1_555
O12 Sc7 2.249970 1_545
O12 Sc11 2.249970 1_455
O12 Sc15 2.249970 1_455
O12 Sc12 2.249970 1_545
O13 Sc1 2.231183 1_555
O13 Sc5 2.231183 1_555
O13 Sc0 2.231183 1_555
O13 Sc14 2.232400 1_556
O13 Sc12 2.232400 1_655
O13 Sc15 2.232400 1_565
O14 Sc15 2.226951 1_555
O14 Sc14 2.226952 1_555
O14 Sc10 2.236243 1_655
O14 Sc4 2.246881 1_555
O14 Sc0 2.253963 1_554
O14 Sc1 2.253963 1_545
