# generated using pymatgen
data_LiFe(PO3)4
_symmetry_space_group_name_H-M   'P 1'
_cell_length_a   8.12030900
_cell_length_b   9.51973800
_cell_length_c   13.04088700
_cell_angle_alpha   90.00000000
_cell_angle_beta   90.00000000
_cell_angle_gamma   90.00000000
_symmetry_Int_Tables_number   1
_chemical_formula_structural   LiFe(PO3)4
_chemical_formula_sum   'Li4 Fe4 P16 O48'
_cell_volume   1008.10248058
_cell_formula_units_Z   4
loop_
 _symmetry_equiv_pos_site_id
 _symmetry_equiv_pos_as_xyz
  1  'x, y, z'
loop_
 _atom_site_type_symbol
 _atom_site_label
 _atom_site_symmetry_multiplicity
 _atom_site_fract_x
 _atom_site_fract_y
 _atom_site_fract_z
 _atom_site_occupancy
  Li  Li0  1  0.57897700  0.25000000  0.00000000  1
  Li  Li1  1  0.42102300  0.75000000  0.00000000  1
  Li  Li2  1  0.07897700  0.25000000  0.50000000  1
  Li  Li3  1  0.92102300  0.75000000  0.50000000  1
  Fe  Fe0  1  0.01921600  0.75000000  0.00000000  1
  Fe  Fe1  1  0.98078400  0.25000000  0.00000000  1
  Fe  Fe2  1  0.48078400  0.25000000  0.50000000  1
  Fe  Fe3  1  0.51921600  0.75000000  0.50000000  1
  P  P0  1  0.17040100  0.49601600  0.13703300  1
  P  P1  1  0.82959900  0.99601600  0.13703300  1
  P  P2  1  0.45290000  0.00040200  0.14654100  1
  P  P3  1  0.54710000  0.50040200  0.14654100  1
  P  P4  1  0.04710000  0.50040200  0.35345900  1
  P  P5  1  0.95290000  0.00040200  0.35345900  1
  P  P6  1  0.32959900  0.99601600  0.36296700  1
  P  P7  1  0.67040100  0.49601600  0.36296700  1
  P  P8  1  0.32959900  0.50398400  0.63703300  1
  P  P9  1  0.67040100  0.00398400  0.63703300  1
  P  P10  1  0.04710000  0.99959800  0.64654100  1
  P  P11  1  0.95290000  0.49959800  0.64654100  1
  P  P12  1  0.45290000  0.49959800  0.85345900  1
  P  P13  1  0.54710000  0.99959800  0.85345900  1
  P  P14  1  0.17040100  0.00398400  0.86296700  1
  P  P15  1  0.82959900  0.50398400  0.86296700  1
  O  O0  1  0.16185400  0.61589000  0.05936700  1
  O  O1  1  0.83814600  0.11589000  0.05936700  1
  O  O2  1  0.56000400  0.62362300  0.07794600  1
  O  O3  1  0.43999600  0.12362300  0.07794600  1
  O  O4  1  0.91020500  0.86055900  0.09922500  1
  O  O5  1  0.08979500  0.36055900  0.09922500  1
  O  O6  1  0.63952600  0.36791600  0.13010700  1
  O  O7  1  0.36047400  0.86791600  0.13010700  1
  O  O8  1  0.35061900  0.45990100  0.16629900  1
  O  O9  1  0.64938100  0.95990100  0.16629900  1
  O  O10  1  0.08203000  0.55607700  0.23473300  1
  O  O11  1  0.91797000  0.05607700  0.23473300  1
  O  O12  1  0.41797000  0.05607700  0.26526700  1
  O  O13  1  0.58203000  0.55607700  0.26526700  1
  O  O14  1  0.14938100  0.95990100  0.33370100  1
  O  O15  1  0.85061900  0.45990100  0.33370100  1
  O  O16  1  0.13952600  0.36791600  0.36989300  1
  O  O17  1  0.86047400  0.86791600  0.36989300  1
  O  O18  1  0.58979500  0.36055900  0.40077500  1
  O  O19  1  0.41020500  0.86055900  0.40077500  1
  O  O20  1  0.06000400  0.62362300  0.42205400  1
  O  O21  1  0.93999600  0.12362300  0.42205400  1
  O  O22  1  0.66185400  0.61589000  0.44063300  1
  O  O23  1  0.33814600  0.11589000  0.44063300  1
  O  O24  1  0.33814600  0.38411000  0.55936700  1
  O  O25  1  0.66185400  0.88411000  0.55936700  1
  O  O26  1  0.06000400  0.87637700  0.57794600  1
  O  O27  1  0.93999600  0.37637700  0.57794600  1
  O  O28  1  0.41020500  0.63944100  0.59922500  1
  O  O29  1  0.58979500  0.13944100  0.59922500  1
  O  O30  1  0.13952600  0.13208400  0.63010700  1
  O  O31  1  0.86047400  0.63208400  0.63010700  1
  O  O32  1  0.14938100  0.54009900  0.66629900  1
  O  O33  1  0.85061900  0.04009900  0.66629900  1
  O  O34  1  0.41797000  0.44392300  0.73473300  1
  O  O35  1  0.58203000  0.94392300  0.73473300  1
  O  O36  1  0.08203000  0.94392300  0.76526700  1
  O  O37  1  0.91797000  0.44392300  0.76526700  1
  O  O38  1  0.35061900  0.04009900  0.83370100  1
  O  O39  1  0.64938100  0.54009900  0.83370100  1
  O  O40  1  0.36047400  0.63208400  0.86989300  1
  O  O41  1  0.63952600  0.13208400  0.86989300  1
  O  O42  1  0.08979500  0.13944100  0.90077500  1
  O  O43  1  0.91020500  0.63944100  0.90077500  1
  O  O44  1  0.43999600  0.37637700  0.92205400  1
  O  O45  1  0.56000400  0.87637700  0.92205400  1
  O  O46  1  0.16185400  0.88411000  0.94063300  1
  O  O47  1  0.83814600  0.38411000  0.94063300  1
loop_
_geom_bond_atom_site_label_1
_geom_bond_atom_site_label_2
_geom_bond_distance
_geom_bond_site_symmetry_2
Li0 O44 1.937602 1_554
Li0 O3 1.937602 1_555
Li0 O41 2.092999 1_554
Li0 O6 2.092999 1_555
Li1 O45 1.937602 1_554
Li1 O2 1.937602 1_555
Li1 O40 2.092999 1_554
Li1 O7 2.092999 1_555
Li2 O27 1.937602 1_455
Li2 O21 1.937602 1_455
Li2 O30 2.092999 1_555
Li2 O16 2.092999 1_555
Li3 O26 1.937602 1_655
Li3 O20 1.937602 1_655
Li3 O17 2.092999 1_555
Li3 O31 2.092999 1_555
Fe0 O4 1.888310 1_455
Fe0 O43 1.888310 1_454
Fe0 O46 1.889683 1_554
Fe0 O0 1.889683 1_555
Fe1 O42 1.888310 1_654
Fe1 O5 1.888310 1_655
Fe1 O47 1.889683 1_554
Fe1 O1 1.889683 1_555
Fe2 O29 1.888310 1_555
Fe2 O18 1.888310 1_555
Fe2 O24 1.889683 1_555
Fe2 O23 1.889683 1_555
Fe3 O28 1.888310 1_555
Fe3 O19 1.888310 1_555
Fe3 O25 1.889683 1_555
Fe3 O22 1.889683 1_555
O0 P0 1.527388 1_555
O1 P1 1.527388 1_545
O2 P3 1.478913 1_555
O3 P2 1.478913 1_555
O4 P1 1.527867 1_555
O5 P0 1.527867 1_555
O6 P3 1.483216 1_555
O7 P2 1.483216 1_565
O8 P0 1.550960 1_555
O8 P3 1.661512 1_555
O9 P1 1.550960 1_555
O9 P2 1.661512 1_565
O10 P0 1.570090 1_555
O10 P4 1.660896 1_555
O11 P1 1.570090 1_545
O11 P5 1.660896 1_555
O12 P6 1.570090 1_545
O12 P2 1.660896 1_555
O13 P7 1.570090 1_555
O13 P3 1.660896 1_555
O14 P6 1.550960 1_555
O14 P5 1.661512 1_465
O15 P7 1.550960 1_555
O15 P4 1.661512 1_655
O16 P4 1.483216 1_555
O17 P5 1.483216 1_565
O18 P7 1.527867 1_555
O19 P6 1.527867 1_555
O20 P4 1.478913 1_555
O21 P5 1.478913 1_555
O22 P7 1.527388 1_555
O23 P6 1.527388 1_545
O24 P8 1.527388 1_555
O25 P9 1.527388 1_565
O26 P10 1.478913 1_555
O27 P11 1.478913 1_555
O28 P8 1.527867 1_555
O29 P9 1.527867 1_555
O30 P10 1.483216 1_545
O31 P11 1.483216 1_555
O32 P8 1.550960 1_555
O32 P11 1.661512 1_455
O33 P9 1.550960 1_555
O33 P10 1.661512 1_645
O34 P8 1.570090 1_555
O34 P12 1.660896 1_555
O35 P9 1.570090 1_565
O35 P13 1.660896 1_555
O36 P14 1.570090 1_565
O36 P10 1.660896 1_555
O37 P15 1.570090 1_555
O37 P11 1.660896 1_555
O38 P14 1.550960 1_555
O38 P13 1.661512 1_545
O39 P15 1.550960 1_555
O39 P12 1.661512 1_555
O40 P12 1.483216 1_555
O41 P13 1.483216 1_545
O42 P14 1.527867 1_555
O43 P15 1.527867 1_555
O44 P12 1.478913 1_555
O45 P13 1.478913 1_555
O46 P14 1.527388 1_565
O47 P15 1.527388 1_555
