# generated using pymatgen
data_Er3TaO7
_symmetry_space_group_name_H-M   'P 1'
_cell_length_a   6.41704873
_cell_length_b   6.41704873
_cell_length_c   7.51089200
_cell_angle_alpha   90.00000000
_cell_angle_beta   90.00000000
_cell_angle_gamma   110.14834474
_symmetry_Int_Tables_number   1
_chemical_formula_structural   Er3TaO7
_chemical_formula_sum   'Er6 Ta2 O14'
_cell_volume   290.36020811
_cell_formula_units_Z   2
loop_
 _symmetry_equiv_pos_site_id
 _symmetry_equiv_pos_as_xyz
  1  'x, y, z'
loop_
 _atom_site_type_symbol
 _atom_site_label
 _atom_site_symmetry_multiplicity
 _atom_site_fract_x
 _atom_site_fract_y
 _atom_site_fract_z
 _atom_site_occupancy
  Er  Er0  1  0.51188400  0.04664600  0.25000000  1
  Er  Er1  1  0.00000000  0.00000000  0.00000000  1
  Er  Er2  1  0.00000000  0.00000000  0.50000000  1
  Er  Er3  1  0.95335400  0.48811600  0.75000000  1
  Er  Er4  1  0.04664600  0.51188400  0.25000000  1
  Er  Er5  1  0.48811600  0.95335400  0.75000000  1
  Ta  Ta0  1  0.50000000  0.50000000  0.00000000  1
  Ta  Ta1  1  0.50000000  0.50000000  0.50000000  1
  O  O0  1  0.84987000  0.11628000  0.75000000  1
  O  O1  1  0.88372000  0.15013000  0.25000000  1
  O  O2  1  0.43341400  0.17415600  0.53062300  1
  O  O3  1  0.43341400  0.17415600  0.96937700  1
  O  O4  1  0.82584400  0.56658600  0.03062300  1
  O  O5  1  0.82584400  0.56658600  0.46937700  1
  O  O6  1  0.42906400  0.42906400  0.25000000  1
  O  O7  1  0.57093600  0.57093600  0.75000000  1
  O  O8  1  0.17415600  0.43341400  0.96937700  1
  O  O9  1  0.17415600  0.43341400  0.53062300  1
  O  O10  1  0.56658600  0.82584400  0.03062300  1
  O  O11  1  0.56658600  0.82584400  0.46937700  1
  O  O12  1  0.11628000  0.84987000  0.75000000  1
  O  O13  1  0.15013000  0.88372000  0.25000000  1
loop_
_geom_bond_atom_site_label_1
_geom_bond_atom_site_label_2
_geom_bond_distance
_geom_bond_site_symmetry_2
Er0 O13 2.193161 1_545
Er0 O1 2.245624 1_555
Er0 O11 2.277812 1_545
Er0 O10 2.277812 1_545
Er0 O2 2.376854 1_555
Er0 O3 2.376854 1_554
Er0 O6 2.683842 1_555
Er1 O12 2.346480 1_544
Er1 O0 2.346480 1_454
Er1 O1 2.346480 1_455
Er1 O13 2.346480 1_545
Er1 O3 2.626001 1_554
Er1 O8 2.626001 1_554
Er1 O4 2.626001 1_445
Er1 O10 2.626001 1_445
Er2 O0 2.346480 1_455
Er2 O1 2.346480 1_455
Er2 O12 2.346480 1_545
Er2 O13 2.346480 1_545
Er2 O2 2.626001 1_555
Er2 O9 2.626001 1_555
Er2 O11 2.626001 1_445
Er2 O5 2.626001 1_445
Er3 O12 2.193161 1_655
Er3 O0 2.245624 1_555
Er3 O8 2.277812 1_655
Er3 O9 2.277812 1_655
Er3 O4 2.376854 1_556
Er3 O5 2.376854 1_555
Er3 O7 2.683842 1_555
Er4 O1 2.193161 1_455
Er4 O13 2.245624 1_555
Er4 O5 2.277812 1_455
Er4 O4 2.277812 1_455
Er4 O9 2.376854 1_555
Er4 O8 2.376854 1_554
Er4 O6 2.683842 1_555
Er5 O0 2.193161 1_565
Er5 O12 2.245624 1_555
Er5 O3 2.277812 1_565
Er5 O2 2.277812 1_565
Er5 O10 2.376854 1_556
Er5 O11 2.376854 1_555
Er5 O7 2.683842 1_555
O2 Ta1 1.998020 1_555
O3 Ta0 1.998020 1_556
O4 Ta0 1.998020 1_555
O5 Ta1 1.998020 1_555
O6 Ta1 1.948721 1_555
O6 Ta0 1.948721 1_555
O7 Ta0 1.948721 1_556
O7 Ta1 1.948721 1_555
O8 Ta0 1.998020 1_556
O9 Ta1 1.998020 1_555
O10 Ta0 1.998020 1_555
O11 Ta1 1.998020 1_555
