# generated using pymatgen
data_Li2Mn3F8
_symmetry_space_group_name_H-M   'P 1'
_cell_length_a   6.49734200
_cell_length_b   6.89329406
_cell_length_c   8.79297000
_cell_angle_alpha   90.00000000
_cell_angle_beta   90.00000000
_cell_angle_gamma   118.11741034
_symmetry_Int_Tables_number   1
_chemical_formula_structural   Li2Mn3F8
_chemical_formula_sum   'Li4 Mn6 F16'
_cell_volume   347.34310566
_cell_formula_units_Z   2
loop_
 _symmetry_equiv_pos_site_id
 _symmetry_equiv_pos_as_xyz
  1  'x, y, z'
loop_
 _atom_site_type_symbol
 _atom_site_label
 _atom_site_symmetry_multiplicity
 _atom_site_fract_x
 _atom_site_fract_y
 _atom_site_fract_z
 _atom_site_occupancy
  Li  Li0  1  0.11597200  0.23194400  0.60799200  1
  Li  Li1  1  0.38402800  0.76805600  0.10799200  1
  Li  Li2  1  0.61597200  0.23194400  0.89200800  1
  Li  Li3  1  0.88402800  0.76805600  0.39200800  1
  Mn  Mn0  1  0.10254300  0.70508600  0.75000000  1
  Mn  Mn1  1  0.00000000  0.00000000  0.00000000  1
  Mn  Mn2  1  0.60254300  0.70508600  0.75000000  1
  Mn  Mn3  1  0.39745700  0.29491400  0.25000000  1
  Mn  Mn4  1  0.50000000  0.00000000  0.50000000  1
  Mn  Mn5  1  0.89745700  0.29491400  0.25000000  1
  F  F0  1  0.13389400  0.77051600  0.51360600  1
  F  F1  1  0.13662200  0.77051600  0.98639400  1
  F  F2  1  0.98401000  0.96802000  0.75352000  1
  F  F3  1  0.25574200  0.51148400  0.23239900  1
  F  F4  1  0.51599000  0.03198000  0.25352000  1
  F  F5  1  0.24425800  0.48851600  0.73239900  1
  F  F6  1  0.63389400  0.77051600  0.98639400  1
  F  F7  1  0.36337800  0.22948400  0.48639400  1
  F  F8  1  0.63662200  0.77051600  0.51360600  1
  F  F9  1  0.36610600  0.22948400  0.01360600  1
  F  F10  1  0.01599000  0.03198000  0.24648000  1
  F  F11  1  0.48401000  0.96802000  0.74648000  1
  F  F12  1  0.74425800  0.48851600  0.76760100  1
  F  F13  1  0.75574200  0.51148400  0.26760100  1
  F  F14  1  0.86337800  0.22948400  0.01360600  1
  F  F15  1  0.86610600  0.22948400  0.48639400  1
loop_
_geom_bond_atom_site_label_1
_geom_bond_atom_site_label_2
_geom_bond_distance
_geom_bond_site_symmetry_2
F0 Li3 1.937313 1_455
F0 Mn0 2.116347 1_555
F0 Mn4 2.151339 1_565
F1 Li1 1.937313 1_556
F1 Mn0 2.116347 1_555
F1 Mn1 2.151339 1_566
F2 Li0 2.052357 1_665
F2 Mn1 2.175995 1_666
F2 Mn0 2.279228 1_655
F2 Mn2 2.279228 1_555
F3 Li1 1.905235 1_555
F3 Mn3 2.096690 1_555
F3 Mn5 2.096690 1_455
F4 Li1 2.052357 1_545
F4 Mn4 2.175995 1_555
F4 Mn3 2.279228 1_555
F4 Mn5 2.279228 1_555
F5 Li0 1.905235 1_555
F5 Mn0 2.096690 1_555
F5 Mn2 2.096690 1_555
F6 Li1 1.937313 1_556
F6 Mn2 2.116347 1_555
F6 Mn1 2.151339 1_666
F7 Li0 1.937313 1_555
F7 Mn3 2.116347 1_555
F7 Mn4 2.151339 1_555
F8 Li3 1.937313 1_555
F8 Mn2 2.116347 1_555
F8 Mn4 2.151339 1_565
F9 Li2 1.937313 1_554
F9 Mn3 2.116347 1_555
F9 Mn1 2.151339 1_555
F10 Li3 2.052357 1_445
F10 Mn1 2.175995 1_555
F10 Mn3 2.279228 1_555
F10 Mn5 2.279228 1_455
F11 Li2 2.052357 1_565
F11 Mn4 2.175995 1_565
F11 Mn0 2.279228 1_555
F11 Mn2 2.279228 1_555
F12 Li2 1.905235 1_555
F12 Mn2 2.096690 1_555
F12 Mn0 2.096690 1_655
F13 Li3 1.905235 1_555
F13 Mn5 2.096690 1_555
F13 Mn3 2.096690 1_555
F14 Li2 1.937313 1_554
F14 Mn5 2.116347 1_555
F14 Mn1 2.151339 1_655
F15 Li0 1.937313 1_655
F15 Mn5 2.116347 1_555
F15 Mn4 2.151339 1_555
