# generated using pymatgen
data_Li2Fe3NiO8
_symmetry_space_group_name_H-M   'P 1'
_cell_length_a   5.91104000
_cell_length_b   5.92349216
_cell_length_c   5.97624647
_cell_angle_alpha   119.39633061
_cell_angle_beta   90.11481700
_cell_angle_gamma   119.57716662
_symmetry_Int_Tables_number   1
_chemical_formula_structural   Li2Fe3NiO8
_chemical_formula_sum   'Li2 Fe3 Ni1 O8'
_cell_volume   150.08756634
_cell_formula_units_Z   1
loop_
 _symmetry_equiv_pos_site_id
 _symmetry_equiv_pos_as_xyz
  1  'x, y, z'
loop_
 _atom_site_type_symbol
 _atom_site_label
 _atom_site_symmetry_multiplicity
 _atom_site_fract_x
 _atom_site_fract_y
 _atom_site_fract_z
 _atom_site_occupancy
  Li  Li0  1  0.50000000  0.50000000  0.50000000  1
  Li  Li1  1  0.50000000  0.00000000  0.50000000  1
  Fe  Fe0  1  0.50000000  0.50000000  0.00000000  1
  Fe  Fe1  1  0.00000000  0.50000000  0.00000000  1
  Fe  Fe2  1  0.50000000  0.00000000  0.00000000  1
  Ni  Ni0  1  0.00000000  0.00000000  0.00000000  1
  O  O0  1  0.73621800  0.44043500  0.78942200  1
  O  O1  1  0.27260600  0.94202200  0.78421000  1
  O  O2  1  0.73574300  0.93767200  0.78466200  1
  O  O3  1  0.28939400  0.45900900  0.79535000  1
  O  O4  1  0.71060600  0.54099100  0.20465000  1
  O  O5  1  0.26425700  0.06232800  0.21533800  1
  O  O6  1  0.72739400  0.05797800  0.21579000  1
  O  O7  1  0.26378200  0.55956500  0.21057800  1
loop_
_geom_bond_atom_site_label_1
_geom_bond_atom_site_label_2
_geom_bond_distance
_geom_bond_site_symmetry_2
Li0 O2 1.910910 1_555
Li0 O5 1.910910 1_555
Li0 O3 2.203496 1_555
Li0 O4 2.203496 1_555
Li0 O0 2.478229 1_555
Li0 O7 2.478229 1_555
Li1 O7 1.926661 1_545
Li1 O0 1.926661 1_555
Li1 O1 2.221636 1_545
Li1 O6 2.221636 1_555
Li1 O2 2.467225 1_545
Li1 O5 2.467225 1_555
Fe0 O4 1.583832 1_555
Fe0 O3 1.583832 1_554
Fe0 O7 1.927525 1_555
Fe0 O0 1.927525 1_554
Fe0 O1 2.411841 1_544
Fe0 O6 2.411841 1_565
Fe1 O7 1.775542 1_555
Fe1 O0 1.775542 1_454
Fe1 O3 2.146600 1_554
Fe1 O4 2.146600 1_455
Fe1 O5 2.416332 1_565
Fe1 O2 2.416332 1_444
Fe2 O6 1.640216 1_555
Fe2 O1 1.640216 1_544
Fe2 O5 1.944967 1_555
Fe2 O2 1.944967 1_544
Fe2 O4 2.350078 1_555
Fe2 O3 2.350078 1_544
Ni0 O2 1.785665 1_444
Ni0 O5 1.785665 1_555
Ni0 O6 2.120723 1_455
Ni0 O1 2.120723 1_544
Ni0 O0 2.407609 1_444
Ni0 O7 2.407609 1_555
