# generated using pymatgen
data_Na5Fe2P2(CO7)2
_symmetry_space_group_name_H-M   'P 1'
_cell_length_a   6.61312800
_cell_length_b   10.37815200
_cell_length_c   10.43099647
_cell_angle_alpha   60.61815195
_cell_angle_beta   90.00000000
_cell_angle_gamma   90.00000000
_symmetry_Int_Tables_number   1
_chemical_formula_structural   Na5Fe2P2(CO7)2
_chemical_formula_sum   'Na10 Fe4 P4 C4 O28'
_cell_volume   623.81383846
_cell_formula_units_Z   2
loop_
 _symmetry_equiv_pos_site_id
 _symmetry_equiv_pos_as_xyz
  1  'x, y, z'
loop_
 _atom_site_type_symbol
 _atom_site_label
 _atom_site_symmetry_multiplicity
 _atom_site_fract_x
 _atom_site_fract_y
 _atom_site_fract_z
 _atom_site_occupancy
  Na  Na0  1  0.99866600  0.34063000  0.57217600  1
  Na  Na1  1  0.00133400  0.84063000  0.07217600  1
  Na  Na2  1  0.76641000  0.99230800  0.74120300  1
  Na  Na3  1  0.23359000  0.49230800  0.24120300  1
  Na  Na4  1  0.24887600  0.50444600  0.75629300  1
  Na  Na5  1  0.75117700  0.50411600  0.75645600  1
  Na  Na6  1  0.24882300  0.00411600  0.25645600  1
  Na  Na7  1  0.75112400  0.00444600  0.25629300  1
  Na  Na8  1  0.49126800  0.15786800  0.91616200  1
  Na  Na9  1  0.50873200  0.65786800  0.41616200  1
  Fe  Fe0  1  0.49606400  0.72002200  0.93300800  1
  Fe  Fe1  1  0.50393600  0.22002200  0.43300800  1
  Fe  Fe2  1  0.00056800  0.78789500  0.56568200  1
  Fe  Fe3  1  0.99943200  0.28789500  0.06568200  1
  P  P0  1  0.99838900  0.64152600  0.94025500  1
  P  P1  1  0.00161100  0.14152600  0.44025500  1
  P  P2  1  0.50014200  0.85453900  0.56563900  1
  P  P3  1  0.49985800  0.35453900  0.06563900  1
  C  C0  1  0.49868000  0.33433500  0.60331600  1
  C  C1  1  0.50132000  0.83433500  0.10331600  1
  C  C2  1  0.99556400  0.16773800  0.89523400  1
  C  C3  1  0.00443600  0.66773800  0.39523400  1
  O  O0  1  0.98473500  0.10751200  0.81479900  1
  O  O1  1  0.01526500  0.60751200  0.31479900  1
  O  O2  1  0.51621700  0.91297900  0.96045700  1
  O  O3  1  0.48378300  0.41297900  0.46045700  1
  O  O4  1  0.51214700  0.19234800  0.65735600  1
  O  O5  1  0.48785300  0.69234800  0.15735600  1
  O  O6  1  0.81032500  0.73069700  0.94631700  1
  O  O7  1  0.19128300  0.72054900  0.95752900  1
  O  O8  1  0.80871700  0.22054900  0.45752900  1
  O  O9  1  0.18967500  0.23069700  0.44631700  1
  O  O10  1  0.50655500  0.85073900  0.71613100  1
  O  O11  1  0.49344500  0.35073900  0.21613100  1
  O  O12  1  0.00193500  0.98239400  0.57032800  1
  O  O13  1  0.99806500  0.48239400  0.07032800  1
  O  O14  1  0.50066700  0.52169100  0.93912200  1
  O  O15  1  0.49933300  0.02169100  0.43912200  1
  O  O16  1  0.00080700  0.63854900  0.79386100  1
  O  O17  1  0.99919300  0.13854900  0.29386100  1
  O  O18  1  0.31457500  0.77443400  0.54807700  1
  O  O19  1  0.68400200  0.77438900  0.54475800  1
  O  O20  1  0.68542500  0.27443400  0.04807700  1
  O  O21  1  0.31599800  0.27438900  0.04475800  1
  O  O22  1  0.00176500  0.31229500  0.83711800  1
  O  O23  1  0.99823500  0.81229500  0.33711800  1
  O  O24  1  0.99790800  0.58736200  0.53980000  1
  O  O25  1  0.00209200  0.08736200  0.03980000  1
  O  O26  1  0.50030500  0.39558600  0.68545300  1
  O  O27  1  0.49969500  0.89558600  0.18545300  1
loop_
_geom_bond_atom_site_label_1
_geom_bond_atom_site_label_2
_geom_bond_distance
_geom_bond_site_symmetry_2
Na0 O24 2.412947 1_555
Na0 O8 2.454287 1_555
Na0 O9 2.467898 1_655
Na0 O0 2.501706 1_555
Na0 O22 2.631916 1_655
Na0 O1 2.755828 1_655
Na1 O25 2.412947 1_565
Na1 O7 2.454287 1_554
Na1 O6 2.467898 1_454
Na1 O1 2.501706 1_555
Na1 O23 2.631916 1_455
Na1 O0 2.755828 1_464
Na2 O0 2.236969 1_565
Na2 O10 2.357359 1_555
Na2 O12 2.406960 1_655
Na2 O4 2.473978 1_565
Na2 O6 2.516618 1_555
Na2 O2 2.607357 1_555
Na2 O8 2.750844 1_565
Na3 O1 2.236969 1_555
Na3 O11 2.357359 1_555
Na3 O13 2.406960 1_455
Na3 O5 2.473978 1_555
Na3 O9 2.516618 1_555
Na3 O3 2.607357 1_555
Na3 O7 2.750844 1_554
Na4 O16 2.305851 1_555
Na4 O26 2.325132 1_555
Na4 O22 2.389206 1_555
Na4 O24 2.586088 1_455
Na4 O14 2.603186 1_555
Na4 O18 2.604890 1_555
Na4 O21 2.811047 1_556
Na5 O16 2.314763 1_655
Na5 O26 2.321247 1_555
Na5 O22 2.402838 1_655
Na5 O24 2.569083 1_555
Na5 O14 2.597941 1_555
Na5 O19 2.619815 1_555
Na5 O20 2.830043 1_556
Na6 O17 2.314763 1_455
Na6 O27 2.321247 1_545
Na6 O23 2.402838 1_445
Na6 O25 2.569083 1_555
Na6 O15 2.597941 1_555
Na6 O21 2.619815 1_555
Na6 O18 2.830043 1_545
Na7 O17 2.305851 1_555
Na7 O27 2.325132 1_545
Na7 O23 2.389206 1_545
Na7 O25 2.586088 1_655
Na7 O15 2.603186 1_555
Na7 O20 2.604890 1_555
Na7 O19 2.811047 1_545
Na8 O2 2.355343 1_545
Na8 O26 2.460813 1_555
Na8 O21 2.489341 1_556
Na8 O4 2.546971 1_555
Na8 O20 2.576603 1_556
Na8 O27 2.792852 1_546
Na9 O3 2.355343 1_555
Na9 O27 2.460813 1_555
Na9 O19 2.489341 1_555
Na9 O5 2.546971 1_555
Na9 O18 2.576603 1_555
Na9 O26 2.792852 1_555
Fe0 O10 1.987835 1_555
Fe0 O14 2.028010 1_555
Fe0 O7 2.032066 1_555
Fe0 O6 2.089439 1_555
Fe0 O2 2.161600 1_555
Fe0 O5 2.214122 1_556
Fe1 O11 1.987835 1_555
Fe1 O15 2.028010 1_555
Fe1 O8 2.032066 1_555
Fe1 O9 2.089439 1_555
Fe1 O3 2.161600 1_555
Fe1 O4 2.214122 1_555
Fe2 O12 2.042774 1_555
Fe2 O18 2.095364 1_555
Fe2 O16 2.108895 1_555
Fe2 O19 2.116603 1_455
Fe2 O24 2.226154 1_455
Fe2 O23 2.270709 1_455
Fe3 O13 2.042774 1_555
Fe3 O20 2.095364 1_555
Fe3 O17 2.108895 1_555
Fe3 O21 2.116603 1_655
Fe3 O25 2.226154 1_655
Fe3 O22 2.270709 1_654
C0 O26 1.293316 1_555
C0 O4 1.296920 1_555
C0 O3 1.304988 1_555
C1 O27 1.293316 1_555
C1 O5 1.296920 1_555
C1 O2 1.304988 1_554
C2 O0 1.270563 1_555
C2 O22 1.314331 1_655
C2 O25 1.318083 1_656
C3 O1 1.270563 1_555
C3 O23 1.314331 1_455
C3 O24 1.318083 1_455
O6 P0 1.569907 1_555
O7 P0 1.573942 1_455
O8 P1 1.573942 1_655
O9 P1 1.569907 1_555
O10 P2 1.551393 1_555
O11 P3 1.551393 1_555
O12 P1 1.539348 1_565
O13 P0 1.539348 1_554
O14 P3 1.582564 1_556
O15 P2 1.582564 1_545
O16 P0 1.542511 1_455
O17 P1 1.542511 1_655
O18 P2 1.542755 1_555
O19 P2 1.547745 1_555
O20 P3 1.542755 1_555
O21 P3 1.547745 1_555
