# generated using pymatgen
data_Na3Li4Mn5O9
_symmetry_space_group_name_H-M   'P 1'
_cell_length_a   5.90071000
_cell_length_b   5.96493745
_cell_length_c   8.97702409
_cell_angle_alpha   97.27266559
_cell_angle_beta   95.20578175
_cell_angle_gamma   119.45981699
_symmetry_Int_Tables_number   1
_chemical_formula_structural   Na3Li4Mn5O9
_chemical_formula_sum   'Na3 Li4 Mn5 O9'
_cell_volume   268.58437878
_cell_formula_units_Z   1
loop_
 _symmetry_equiv_pos_site_id
 _symmetry_equiv_pos_as_xyz
  1  'x, y, z'
loop_
 _atom_site_type_symbol
 _atom_site_label
 _atom_site_symmetry_multiplicity
 _atom_site_fract_x
 _atom_site_fract_y
 _atom_site_fract_z
 _atom_site_occupancy
  Na  Na0  1  0.16799900  0.85350800  0.48927500  1
  Na  Na1  1  0.85705700  0.16951600  0.49215200  1
  Na  Na2  1  0.46837900  0.46627600  0.48638300  1
  Li  Li0  1  0.73181200  0.68501300  0.05298200  1
  Li  Li1  1  0.28872700  0.02409900  0.06468500  1
  Li  Li2  1  0.05686300  0.35373000  0.04647400  1
  Li  Li3  1  0.63974800  0.98269100  0.95163900  1
  Mn  Mn0  1  0.43232300  0.75655500  0.24257300  1
  Mn  Mn1  1  0.75782600  0.40440800  0.24448600  1
  Mn  Mn2  1  0.92180900  0.91277200  0.75949600  1
  Mn  Mn3  1  0.58117700  0.27212500  0.77349600  1
  Mn  Mn4  1  0.23098900  0.57535000  0.77319300  1
  O  O0  1  0.35134000  0.69051300  0.00947900  1
  O  O1  1  0.67048800  0.31930700  0.01022700  1
  O  O2  1  0.73535600  0.71957500  0.30903500  1
  O  O3  1  0.12106500  0.48761900  0.31004300  1
  O  O4  1  0.47782900  0.10387800  0.31303400  1
  O  O5  1  0.87977100  0.54553200  0.67078300  1
  O  O6  1  0.54963600  0.89930500  0.70576800  1
  O  O7  1  0.21882800  0.22603700  0.67028600  1
  O  O8  1  0.96806000  0.99704500  0.98736400  1
loop_
_geom_bond_atom_site_label_1
_geom_bond_atom_site_label_2
_geom_bond_distance
_geom_bond_site_symmetry_2
Na0 O3 2.421640 1_555
Na0 O7 2.451526 1_565
Na0 O4 2.552121 1_565
Na0 O2 2.586612 1_455
Na0 O5 2.666420 1_455
Na0 O6 2.718299 1_555
Na1 O7 2.400817 1_655
Na1 O4 2.464151 1_555
Na1 O5 2.524829 1_555
Na1 O3 2.653254 1_655
Na1 O2 2.682177 1_545
Na1 O6 2.846696 1_545
Na2 O7 2.431430 1_555
Na2 O2 2.454005 1_555
Na2 O4 2.525912 1_555
Na2 O3 2.537933 1_555
Na2 O5 2.607746 1_555
Na2 O6 2.846555 1_555
Li0 O8 1.904994 1_554
Li0 O1 2.005793 1_555
Li0 O0 2.260630 1_555
Li0 O2 2.278932 1_555
Li1 O8 1.876452 1_444
Li1 O0 2.201856 1_545
Li1 O1 2.220422 1_555
Li1 O4 2.280259 1_555
Li2 O8 1.910481 1_444
Li2 O0 2.001340 1_555
Li2 O1 2.175757 1_455
Li2 O3 2.332579 1_555
Li3 O8 1.892184 1_555
Li3 O0 1.917099 1_556
Li3 O1 1.923078 1_566
Li3 O6 2.156559 1_555
Mn0 O2 1.956951 1_555
Mn0 O4 1.963310 1_565
Mn0 O3 1.965530 1_555
Mn0 O0 2.046151 1_555
Mn1 O3 1.958937 1_655
Mn1 O2 1.967456 1_555
Mn1 O4 1.967852 1_555
Mn1 O1 2.054605 1_555
Mn2 O8 2.003738 1_555
Mn2 O5 2.117146 1_555
Mn2 O7 2.148711 1_665
Mn2 O6 2.164793 1_555
Mn3 O1 2.091078 1_556
Mn3 O5 2.112670 1_555
Mn3 O7 2.122124 1_555
Mn3 O6 2.140052 1_545
Mn4 O0 2.086470 1_556
Mn4 O5 2.102877 1_455
Mn4 O7 2.133923 1_555
Mn4 O6 2.136479 1_555
