# generated using pymatgen
data_Ba4Ce2O7
_symmetry_space_group_name_H-M   'P 1'
_cell_length_a   7.76800418
_cell_length_b   7.76800418
_cell_length_c   12.26184400
_cell_angle_alpha   90.00000000
_cell_angle_beta   90.00000000
_cell_angle_gamma   132.89288528
_symmetry_Int_Tables_number   1
_chemical_formula_structural   Ba4Ce2O7
_chemical_formula_sum   'Ba8 Ce4 O14'
_cell_volume   542.07310211
_cell_formula_units_Z   2
loop_
 _symmetry_equiv_pos_site_id
 _symmetry_equiv_pos_as_xyz
  1  'x, y, z'
loop_
 _atom_site_type_symbol
 _atom_site_label
 _atom_site_symmetry_multiplicity
 _atom_site_fract_x
 _atom_site_fract_y
 _atom_site_fract_z
 _atom_site_occupancy
  Ba  Ba0  1  0.62870200  0.93735700  0.88029200  1
  Ba  Ba1  1  0.56264300  0.87129800  0.38029200  1
  Ba  Ba2  1  0.93735700  0.62870200  0.88029200  1
  Ba  Ba3  1  0.12870200  0.43735700  0.61970800  1
  Ba  Ba4  1  0.87129800  0.56264300  0.38029200  1
  Ba  Ba5  1  0.06264300  0.37129800  0.11970800  1
  Ba  Ba6  1  0.43735700  0.12870200  0.61970800  1
  Ba  Ba7  1  0.37129800  0.06264300  0.11970800  1
  Ce  Ce0  1  0.76868700  0.76868700  0.63086900  1
  Ce  Ce1  1  0.73131300  0.73131300  0.13086900  1
  Ce  Ce2  1  0.26868700  0.26868700  0.86913100  1
  Ce  Ce3  1  0.23131300  0.23131300  0.36913100  1
  O  O0  1  0.59648700  0.92011700  0.61772800  1
  O  O1  1  0.57988300  0.90351300  0.11772800  1
  O  O2  1  0.00000000  0.00000000  0.00000000  1
  O  O3  1  0.90140000  0.90140000  0.28949800  1
  O  O4  1  0.09648700  0.42011700  0.88227200  1
  O  O5  1  0.92011700  0.59648700  0.61772800  1
  O  O6  1  0.07988300  0.40351300  0.38227200  1
  O  O7  1  0.90351300  0.57988300  0.11772800  1
  O  O8  1  0.59860000  0.59860000  0.78949800  1
  O  O9  1  0.50000000  0.50000000  0.50000000  1
  O  O10  1  0.40140000  0.40140000  0.21050200  1
  O  O11  1  0.42011700  0.09648700  0.88227200  1
  O  O12  1  0.40351300  0.07988300  0.38227200  1
  O  O13  1  0.09860000  0.09860000  0.71050200  1
loop_
_geom_bond_atom_site_label_1
_geom_bond_atom_site_label_2
_geom_bond_distance
_geom_bond_site_symmetry_2
Ba0 O11 2.623044 1_565
Ba0 O8 2.716821 1_555
Ba0 O1 2.924634 1_556
Ba0 O4 2.952653 1_665
Ba0 O2 2.966425 1_666
Ba0 O0 3.224940 1_555
Ba0 O4 3.259493 1_555
Ba1 O12 2.623044 1_565
Ba1 O3 2.716821 1_555
Ba1 O0 2.924634 1_555
Ba1 O6 2.952653 1_555
Ba1 O9 2.966425 1_555
Ba1 O1 3.224940 1_555
Ba1 O6 3.259493 1_665
Ba2 O4 2.623044 1_655
Ba2 O8 2.716821 1_555
Ba2 O7 2.924634 1_556
Ba2 O11 2.952653 1_665
Ba2 O2 2.966425 1_666
Ba2 O5 3.224940 1_555
Ba2 O11 3.259493 1_555
Ba3 O5 2.623044 1_455
Ba3 O13 2.716821 1_555
Ba3 O6 2.924634 1_555
Ba3 O0 2.952653 1_555
Ba3 O9 2.966425 1_555
Ba3 O4 3.224940 1_555
Ba3 O0 3.259493 1_445
Ba4 O6 2.623044 1_655
Ba4 O3 2.716821 1_555
Ba4 O5 2.924634 1_555
Ba4 O12 2.952653 1_555
Ba4 O9 2.966425 1_555
Ba4 O7 3.224940 1_555
Ba4 O12 3.259493 1_665
Ba5 O7 2.623044 1_455
Ba5 O10 2.716821 1_555
Ba5 O4 2.924634 1_554
Ba5 O1 2.952653 1_445
Ba5 O2 2.966425 1_555
Ba5 O6 3.224940 1_555
Ba5 O1 3.259493 1_555
Ba6 O0 2.623044 1_545
Ba6 O13 2.716821 1_555
Ba6 O12 2.924634 1_555
Ba6 O5 2.952653 1_555
Ba6 O9 2.966425 1_555
Ba6 O11 3.224940 1_555
Ba6 O5 3.259493 1_445
Ba7 O1 2.623044 1_545
Ba7 O10 2.716821 1_555
Ba7 O11 2.924634 1_554
Ba7 O7 2.952653 1_445
Ba7 O2 2.966425 1_555
Ba7 O12 3.224940 1_555
Ba7 O7 3.259493 1_555
Ce0 O8 2.213228 1_555
Ce0 O13 2.269041 1_665
Ce0 O5 2.311039 1_555
Ce0 O0 2.311039 1_555
Ce0 O9 2.314639 1_555
Ce1 O3 2.213228 1_555
Ce1 O10 2.269041 1_555
Ce1 O1 2.311039 1_555
Ce1 O7 2.311039 1_555
Ce1 O2 2.314639 1_665
Ce2 O13 2.213228 1_555
Ce2 O8 2.269041 1_555
Ce2 O11 2.311039 1_555
Ce2 O4 2.311039 1_555
Ce2 O2 2.314639 1_556
Ce3 O10 2.213228 1_555
Ce3 O3 2.269041 1_445
Ce3 O12 2.311039 1_555
Ce3 O6 2.311039 1_555
Ce3 O9 2.314639 1_555
