# generated using pymatgen
data_TbTaO4
_symmetry_space_group_name_H-M   'P 1'
_cell_length_a   5.32710254
_cell_length_b   7.52008446
_cell_length_c   7.56095960
_cell_angle_alpha   81.66367411
_cell_angle_beta   90.00000000
_cell_angle_gamma   90.00000000
_symmetry_Int_Tables_number   1
_chemical_formula_structural   TbTaO4
_chemical_formula_sum   'Tb4 Ta4 O16'
_cell_volume   299.69365723
_cell_formula_units_Z   4
loop_
 _symmetry_equiv_pos_site_id
 _symmetry_equiv_pos_as_xyz
  1  'x, y, z'
loop_
 _atom_site_type_symbol
 _atom_site_label
 _atom_site_symmetry_multiplicity
 _atom_site_fract_x
 _atom_site_fract_y
 _atom_site_fract_z
 _atom_site_occupancy
  Tb  Tb0  1  0.27796081  0.64527054  0.60863753  1
  Tb  Tb1  1  0.22203919  0.64527054  0.10863753  1
  Tb  Tb2  1  0.77796081  0.35472946  0.89136247  1
  Tb  Tb3  1  0.72203919  0.35472946  0.39136247  1
  Ta  Ta0  1  0.77093285  0.83577477  0.81317364  1
  Ta  Ta1  1  0.72906715  0.83577477  0.31317364  1
  Ta  Ta2  1  0.27093285  0.16422523  0.68682636  1
  Ta  Ta3  1  0.22906715  0.16422523  0.18682636  1
  O  O0  1  0.09801896  0.93388405  0.69059437  1
  O  O1  1  0.40198104  0.93388405  0.19059437  1
  O  O2  1  0.62872815  0.83159873  0.56307095  1
  O  O3  1  0.87127185  0.83159873  0.06307095  1
  O  O4  1  0.50148556  0.67181860  0.87959790  1
  O  O5  1  0.98933653  0.61163649  0.82999477  1
  O  O6  1  0.99851444  0.67181860  0.37959790  1
  O  O7  1  0.51066347  0.61163649  0.32999477  1
  O  O8  1  0.48933653  0.38836351  0.67000523  1
  O  O9  1  0.00148556  0.32818140  0.62040210  1
  O  O10  1  0.01066347  0.38836351  0.17000523  1
  O  O11  1  0.49851444  0.32818140  0.12040210  1
  O  O12  1  0.12872815  0.16840127  0.93692905  1
  O  O13  1  0.37127185  0.16840127  0.43692905  1
  O  O14  1  0.59801896  0.06611595  0.80940563  1
  O  O15  1  0.90198104  0.06611595  0.30940563  1
loop_
_geom_bond_atom_site_label_1
_geom_bond_atom_site_label_2
_geom_bond_distance
_geom_bond_site_symmetry_2
O0 Ta2 1.958430 1_565
O0 Ta0 2.059388 1_455
O0 Tb0 2.530506 1_555
O1 Ta3 1.958430 1_565
O1 Ta1 2.059388 1_555
O1 Tb1 2.530506 1_555
O2 Ta1 1.959480 1_555
O2 Ta0 2.041572 1_555
O2 Tb0 2.331020 1_555
O3 Ta0 1.959480 1_554
O3 Ta1 2.041572 1_555
O3 Tb1 2.331020 1_655
O4 Ta0 1.911328 1_555
O4 Tb1 2.270384 1_556
O4 Tb0 2.402826 1_555
O4 Tb2 2.793135 1_555
O5 Ta0 2.036834 1_555
O5 Tb2 2.226154 1_555
O5 Tb0 2.259736 1_655
O5 Tb1 2.488737 1_656
O6 Ta1 1.911328 1_555
O6 Tb0 2.270384 1_655
O6 Tb1 2.402826 1_655
O6 Tb3 2.793135 1_555
O7 Ta1 2.036834 1_555
O7 Tb3 2.226154 1_555
O7 Tb1 2.259736 1_555
O7 Tb0 2.488737 1_555
O8 Ta2 2.036834 1_555
O8 Tb0 2.226154 1_555
O8 Tb2 2.259736 1_555
O8 Tb3 2.488737 1_555
O9 Ta2 1.911328 1_555
O9 Tb3 2.270384 1_455
O9 Tb2 2.402826 1_455
O9 Tb0 2.793135 1_555
O10 Ta3 2.036834 1_555
O10 Tb1 2.226154 1_555
O10 Tb3 2.259736 1_455
O10 Tb2 2.488737 1_454
O11 Ta3 1.911328 1_555
O11 Tb2 2.270384 1_554
O11 Tb3 2.402826 1_555
O11 Tb1 2.793135 1_555
O12 Ta3 1.959480 1_556
O12 Ta2 2.041572 1_555
O12 Tb2 2.331020 1_455
O13 Ta2 1.959480 1_555
O13 Ta3 2.041572 1_555
O13 Tb3 2.331020 1_555
O14 Ta0 1.958430 1_545
O14 Ta2 2.059388 1_555
O14 Tb2 2.530506 1_555
O15 Ta1 1.958430 1_545
O15 Ta3 2.059388 1_655
O15 Tb3 2.530506 1_555
