# generated using pymatgen
data_Ti2N2O
_symmetry_space_group_name_H-M   'P 1'
_cell_length_a   5.17154268
_cell_length_b   5.17154268
_cell_length_c   15.72121023
_cell_angle_alpha   76.62115917
_cell_angle_beta   76.62115917
_cell_angle_gamma   33.61200660
_symmetry_Int_Tables_number   1
_chemical_formula_structural   Ti2N2O
_chemical_formula_sum   'Ti8 N8 O4'
_cell_volume   225.85159494
_cell_formula_units_Z   4
loop_
 _symmetry_equiv_pos_site_id
 _symmetry_equiv_pos_as_xyz
  1  'x, y, z'
loop_
 _atom_site_type_symbol
 _atom_site_label
 _atom_site_symmetry_multiplicity
 _atom_site_fract_x
 _atom_site_fract_y
 _atom_site_fract_z
 _atom_site_occupancy
  Ti  Ti0  1  0.76258100  0.76258100  0.91380700  1
  Ti  Ti1  1  0.00064900  0.00064900  0.66831500  1
  Ti  Ti2  1  0.23014300  0.23014300  0.42414300  1
  Ti  Ti3  1  0.99935100  0.99935100  0.33168500  1
  Ti  Ti4  1  0.23741900  0.23741900  0.08619300  1
  Ti  Ti5  1  0.23279500  0.23279500  0.75764100  1
  Ti  Ti6  1  0.76985700  0.76985700  0.57585600  1
  Ti  Ti7  1  0.76720500  0.76720500  0.24235900  1
  N  N0  1  0.85236300  0.85236300  0.78505500  1
  N  N1  1  0.14763700  0.14763700  0.21494500  1
  N  N2  1  0.14818500  0.14818500  0.55106300  1
  N  N3  1  0.37867700  0.37867700  0.29421000  1
  N  N4  1  0.61903300  0.61903300  0.37099300  1
  N  N5  1  0.38096700  0.38096700  0.62900700  1
  N  N6  1  0.85181500  0.85181500  0.44893700  1
  N  N7  1  0.62132300  0.62132300  0.70579000  1
  O  O0  1  0.64747500  0.64747500  0.04398000  1
  O  O1  1  0.35252500  0.35252500  0.95602000  1
  O  O2  1  0.14791300  0.14791300  0.87946300  1
  O  O3  1  0.85208700  0.85208700  0.12053700  1
loop_
_geom_bond_atom_site_label_1
_geom_bond_atom_site_label_2
_geom_bond_distance
_geom_bond_site_symmetry_2
N0 Ti0 2.004375 1_555
N0 Ti5 2.017369 1_565
N0 Ti5 2.017369 1_655
N0 Ti1 2.054592 1_665
N1 Ti4 2.004375 1_555
N1 Ti7 2.017369 1_455
N1 Ti7 2.017369 1_545
N1 Ti3 2.054592 1_445
N2 Ti2 1.963956 1_555
N2 Ti6 2.016448 1_545
N2 Ti6 2.016448 1_455
N2 Ti1 2.056723 1_555
N3 Ti3 2.085863 1_545
N3 Ti3 2.085863 1_455
N3 Ti7 2.133876 1_455
N3 Ti7 2.133876 1_545
N3 Ti2 2.209810 1_555
N4 Ti3 2.091876 1_455
N4 Ti3 2.091876 1_545
N4 Ti2 2.142122 1_655
N4 Ti2 2.142122 1_565
N4 Ti7 2.192655 1_555
N5 Ti1 2.091876 1_565
N5 Ti1 2.091876 1_655
N5 Ti6 2.142130 1_545
N5 Ti6 2.142130 1_455
N5 Ti5 2.192655 1_555
N6 Ti6 1.963942 1_555
N6 Ti2 2.016453 1_565
N6 Ti2 2.016453 1_655
N6 Ti3 2.056723 1_555
N7 Ti1 2.085863 1_565
N7 Ti1 2.085863 1_655
N7 Ti5 2.133876 1_565
N7 Ti5 2.133876 1_655
N7 Ti6 2.209822 1_555
O0 Ti4 1.937791 1_655
O0 Ti4 1.937791 1_565
O0 Ti0 2.087932 1_554
O1 Ti0 1.937791 1_455
O1 Ti0 1.937791 1_545
O1 Ti4 2.087932 1_556
O2 Ti5 1.896357 1_555
O2 Ti0 2.027985 1_455
O2 Ti0 2.027985 1_545
O3 Ti7 1.896357 1_555
O3 Ti4 2.027985 1_655
O3 Ti4 2.027985 1_565
