# generated using pymatgen
data_Li2CoBO4
_symmetry_space_group_name_H-M   'P 1'
_cell_length_a   4.78822800
_cell_length_b   6.03720100
_cell_length_c   10.20043100
_cell_angle_alpha   90.00000000
_cell_angle_beta   90.00000000
_cell_angle_gamma   90.00000000
_symmetry_Int_Tables_number   1
_chemical_formula_structural   Li2CoBO4
_chemical_formula_sum   'Li8 Co4 B4 O16'
_cell_volume   294.86890680
_cell_formula_units_Z   4
loop_
 _symmetry_equiv_pos_site_id
 _symmetry_equiv_pos_as_xyz
  1  'x, y, z'
loop_
 _atom_site_type_symbol
 _atom_site_label
 _atom_site_symmetry_multiplicity
 _atom_site_fract_x
 _atom_site_fract_y
 _atom_site_fract_z
 _atom_site_occupancy
  Li  Li0  1  0.75825500  0.00508000  0.65800100  1
  Li  Li1  1  0.75560800  0.23958900  0.42556900  1
  Li  Li2  1  0.75560800  0.26041100  0.92556900  1
  Li  Li3  1  0.75825500  0.49492000  0.15800100  1
  Li  Li4  1  0.25825500  0.50508000  0.84199900  1
  Li  Li5  1  0.25560800  0.73958900  0.07443100  1
  Li  Li6  1  0.25560800  0.76041100  0.57443100  1
  Li  Li7  1  0.25825500  0.99492000  0.34199900  1
  Co  Co0  1  0.26078800  0.01509500  0.83665700  1
  Co  Co1  1  0.26078800  0.48490500  0.33665700  1
  Co  Co2  1  0.76078800  0.51509500  0.66334300  1
  Co  Co3  1  0.76078800  0.98490500  0.16334300  1
  B  B0  1  0.26395900  0.23911300  0.09191400  1
  B  B1  1  0.26395900  0.26088700  0.59191400  1
  B  B2  1  0.76395900  0.73911300  0.40808600  1
  B  B3  1  0.76395900  0.76088700  0.90808600  1
  O  O0  1  0.14970600  0.03696100  0.15754500  1
  O  O1  1  0.16955800  0.05251100  0.65867500  1
  O  O2  1  0.17186900  0.25312400  0.45180500  1
  O  O3  1  0.57337000  0.23068300  0.09748700  1
  O  O4  1  0.57337000  0.26931700  0.59748700  1
  O  O5  1  0.17186900  0.24687600  0.95180500  1
  O  O6  1  0.16955800  0.44748900  0.15867500  1
  O  O7  1  0.14970600  0.46303900  0.65754500  1
  O  O8  1  0.64970600  0.53696100  0.34245500  1
  O  O9  1  0.66955800  0.55251100  0.84132500  1
  O  O10  1  0.67186900  0.75312400  0.04819500  1
  O  O11  1  0.07337000  0.73068300  0.40251300  1
  O  O12  1  0.07337000  0.76931700  0.90251300  1
  O  O13  1  0.67186900  0.74687600  0.54819500  1
  O  O14  1  0.66955800  0.94748900  0.34132500  1
  O  O15  1  0.64970600  0.96303900  0.84245500  1
loop_
_geom_bond_atom_site_label_1
_geom_bond_atom_site_label_2
_geom_bond_distance
_geom_bond_site_symmetry_2
Li0 O4 1.926021 1_555
Li0 O13 1.963568 1_545
Li0 O15 1.968413 1_545
Li0 O1 1.990133 1_655
Li1 O4 1.966947 1_555
Li1 O14 2.004500 1_545
Li1 O2 2.012698 1_655
Li1 O8 2.049141 1_555
Li2 O3 1.966947 1_556
Li2 O9 2.004500 1_555
Li2 O5 2.012698 1_655
Li2 O15 2.049141 1_545
Li3 O3 1.926021 1_555
Li3 O10 1.963568 1_555
Li3 O8 1.968413 1_555
Li3 O6 1.990133 1_655
Li4 O12 1.926021 1_555
Li4 O5 1.963568 1_555
Li4 O7 1.968413 1_555
Li4 O9 1.990133 1_555
Li5 O12 1.966947 1_554
Li5 O6 2.004500 1_555
Li5 O10 2.012698 1_555
Li5 O0 2.049141 1_565
Li6 O11 1.966947 1_555
Li6 O1 2.004500 1_565
Li6 O13 2.012698 1_555
Li6 O7 2.049141 1_555
Li7 O11 1.926021 1_555
Li7 O2 1.963568 1_565
Li7 O0 1.968413 1_565
Li7 O14 1.990133 1_555
Co0 O12 1.859646 1_545
Co0 O5 1.875881 1_555
Co0 O1 1.880920 1_555
Co0 O15 1.889486 1_545
Co1 O11 1.859646 1_555
Co1 O2 1.875881 1_555
Co1 O6 1.880920 1_555
Co1 O8 1.889486 1_555
Co2 O4 1.859646 1_555
Co2 O13 1.875881 1_555
Co2 O9 1.880920 1_555
Co2 O7 1.889486 1_655
Co3 O3 1.859646 1_565
Co3 O10 1.875881 1_555
Co3 O14 1.880920 1_555
Co3 O0 1.889486 1_665
B0 O3 1.483494 1_555
B0 O0 1.495634 1_555
B0 O5 1.496384 1_554
B0 O6 1.500216 1_555
B1 O4 1.483494 1_555
B1 O7 1.495634 1_555
B1 O2 1.496384 1_555
B1 O1 1.500216 1_555
B2 O11 1.483494 1_655
B2 O8 1.495634 1_555
B2 O13 1.496384 1_555
B2 O14 1.500216 1_555
B3 O12 1.483494 1_655
B3 O15 1.495634 1_555
B3 O10 1.496384 1_556
B3 O9 1.500216 1_555
