# generated using pymatgen
data_Li4Fe3CoO8
_symmetry_space_group_name_H-M   'P 1'
_cell_length_a   10.33037216
_cell_length_b   10.33014920
_cell_length_c   14.63319750
_cell_angle_alpha   19.20576998
_cell_angle_beta   19.20577136
_cell_angle_gamma   33.10322545
_symmetry_Int_Tables_number   1
_chemical_formula_structural   Li4Fe3CoO8
_chemical_formula_sum   'Li4 Fe3 Co1 O8'
_cell_volume   146.35738574
_cell_formula_units_Z   1
loop_
 _symmetry_equiv_pos_site_id
 _symmetry_equiv_pos_as_xyz
  1  'x, y, z'
loop_
 _atom_site_type_symbol
 _atom_site_label
 _atom_site_symmetry_multiplicity
 _atom_site_fract_x
 _atom_site_fract_y
 _atom_site_fract_z
 _atom_site_occupancy
  Li  Li0  1  0.00000000  0.00000000  0.49999900  1
  Li  Li1  1  0.00000000  0.50000000  0.49999900  1
  Li  Li2  1  0.50000100  0.00000000  0.49999900  1
  Li  Li3  1  0.50000100  0.50000000  0.49999900  1
  Fe  Fe0  1  0.99999700  0.49999800  0.00000400  1
  Fe  Fe1  1  0.49999900  0.00000200  0.99999900  1
  Fe  Fe2  1  0.49999500  0.49999800  0.00000500  1
  Co  Co0  1  0.00000000  0.00000000  0.00000000  1
  O  O0  1  0.00010100  0.00008800  0.25637700  1
  O  O1  1  0.00003100  0.51423900  0.24860100  1
  O  O2  1  0.51426300  0.00002000  0.24859400  1
  O  O3  1  0.99990100  0.99991200  0.74362100  1
  O  O4  1  0.48558100  0.48556200  0.27736600  1
  O  O5  1  0.99997200  0.48576300  0.75139500  1
  O  O6  1  0.48573600  0.99998100  0.75140600  1
  O  O7  1  0.51442100  0.51443600  0.72263400  1
loop_
_geom_bond_atom_site_label_1
_geom_bond_atom_site_label_2
_geom_bond_distance
_geom_bond_site_symmetry_2
Li0 O5 2.200886 1_445
Li0 O1 2.200899 1_555
Li0 O6 2.201076 1_445
Li0 O2 2.201089 1_555
Li0 O7 2.201898 1_554
Li0 O4 2.201916 1_446
Li1 O7 2.144168 1_455
Li1 O4 2.144194 1_555
Li1 O6 2.144449 1_554
Li1 O2 2.144467 1_456
Li1 O3 2.148308 1_445
Li1 O0 2.148317 1_565
Li2 O7 2.144019 1_545
Li2 O4 2.144020 1_555
Li2 O1 2.144462 1_546
Li2 O5 2.144466 1_554
Li2 O0 2.148455 1_655
Li2 O3 2.148455 1_445
Li3 O6 2.144203 1_545
Li3 O2 2.144216 1_565
Li3 O5 2.144349 1_455
Li3 O1 2.144349 1_655
Li3 O0 2.148291 1_556
Li3 O3 2.148291 1_554
Fe0 O3 2.037204 1_554
Fe0 O0 2.037220 1_655
Fe0 O4 2.045410 1_555
Fe0 O7 2.045420 1_654
Fe0 O6 2.045549 1_545
Fe0 O2 2.045574 1_664
Fe1 O0 2.037241 1_556
Fe1 O3 2.037258 1_545
Fe1 O7 2.045389 1_555
Fe1 O4 2.045407 1_546
Fe1 O5 2.045546 1_446
Fe1 O1 2.045550 1_655
Fe2 O3 2.037894 1_445
Fe2 O0 2.037927 1_664
Fe2 O6 2.045147 1_554
Fe2 O2 2.045151 1_555
Fe2 O1 2.045173 1_555
Fe2 O5 2.045191 1_554
Co0 O7 1.983641 1_445
Co0 O4 1.983641 1_554
Co0 O6 1.984001 1_544
Co0 O2 1.984005 1_455
Co0 O5 1.984012 1_454
Co0 O1 1.984016 1_545
