# generated using pymatgen
data_NaH2SO4
_symmetry_space_group_name_H-M   'P 1'
_cell_length_a   6.51440800
_cell_length_b   10.81764900
_cell_length_c   10.85899800
_cell_angle_alpha   90.00000000
_cell_angle_beta   90.00000000
_cell_angle_gamma   90.00000000
_symmetry_Int_Tables_number   1
_chemical_formula_structural   NaH2SO4
_chemical_formula_sum   'Na8 H16 S8 O32'
_cell_volume   765.23987845
_cell_formula_units_Z   8
loop_
 _symmetry_equiv_pos_site_id
 _symmetry_equiv_pos_as_xyz
  1  'x, y, z'
loop_
 _atom_site_type_symbol
 _atom_site_label
 _atom_site_symmetry_multiplicity
 _atom_site_fract_x
 _atom_site_fract_y
 _atom_site_fract_z
 _atom_site_occupancy
  Na  Na0  1  0.56861100  0.65135300  0.06350600  1
  Na  Na1  1  0.06861100  0.84864700  0.43649400  1
  Na  Na2  1  0.43138900  0.34864700  0.56350600  1
  Na  Na3  1  0.93138900  0.15135300  0.93649400  1
  Na  Na4  1  0.43138900  0.34864700  0.93649400  1
  Na  Na5  1  0.93138900  0.15135300  0.56350600  1
  Na  Na6  1  0.56861100  0.65135300  0.43649400  1
  Na  Na7  1  0.06861100  0.84864700  0.06350600  1
  H  H0  1  0.82449900  0.38433000  0.05426500  1
  H  H1  1  0.32449900  0.11567000  0.44573500  1
  H  H2  1  0.17550100  0.61567000  0.55426500  1
  H  H3  1  0.67550100  0.88433000  0.94573500  1
  H  H4  1  0.17550100  0.61567000  0.94573500  1
  H  H5  1  0.67550100  0.88433000  0.55426500  1
  H  H6  1  0.82449900  0.38433000  0.44573500  1
  H  H7  1  0.32449900  0.11567000  0.05426500  1
  H  H8  1  0.72693600  0.26890000  0.12050500  1
  H  H9  1  0.22693600  0.23110000  0.37949500  1
  H  H10  1  0.27306400  0.73110000  0.62050500  1
  H  H11  1  0.77306400  0.76890000  0.87949500  1
  H  H12  1  0.27306400  0.73110000  0.87949500  1
  H  H13  1  0.77306400  0.76890000  0.62050500  1
  H  H14  1  0.72693600  0.26890000  0.37949500  1
  H  H15  1  0.22693600  0.23110000  0.12050500  1
  S  S0  1  0.75108900  0.04249100  0.25000000  1
  S  S1  1  0.25108900  0.45750900  0.25000000  1
  S  S2  1  0.24891100  0.95750900  0.75000000  1
  S  S3  1  0.74891100  0.54249100  0.75000000  1
  S  S4  1  0.49639200  0.90885200  0.25000000  1
  S  S5  1  0.99639200  0.59114800  0.25000000  1
  S  S6  1  0.50360800  0.09114800  0.75000000  1
  S  S7  1  0.00360800  0.40885200  0.75000000  1
  O  O0  1  0.86621200  0.01792400  0.13630400  1
  O  O1  1  0.36621200  0.48207600  0.36369600  1
  O  O2  1  0.13378800  0.98207600  0.63630400  1
  O  O3  1  0.63378800  0.51792400  0.86369600  1
  O  O4  1  0.13378800  0.98207600  0.86369600  1
  O  O5  1  0.63378800  0.51792400  0.63630400  1
  O  O6  1  0.86621200  0.01792400  0.36369600  1
  O  O7  1  0.36621200  0.48207600  0.13630400  1
  O  O8  1  0.64688500  0.16367400  0.25000000  1
  O  O9  1  0.14688500  0.33632600  0.25000000  1
  O  O10  1  0.35311500  0.83632600  0.75000000  1
  O  O11  1  0.85311500  0.66367400  0.75000000  1
  O  O12  1  0.38458000  0.93726000  0.13592000  1
  O  O13  1  0.88458000  0.56274000  0.36408000  1
  O  O14  1  0.61542000  0.06274000  0.63592000  1
  O  O15  1  0.11542000  0.43726000  0.86408000  1
  O  O16  1  0.61542000  0.06274000  0.86408000  1
  O  O17  1  0.11542000  0.43726000  0.63592000  1
  O  O18  1  0.38458000  0.93726000  0.36408000  1
  O  O19  1  0.88458000  0.56274000  0.13592000  1
  O  O20  1  0.59325600  0.78605600  0.25000000  1
  O  O21  1  0.09325600  0.71394400  0.25000000  1
  O  O22  1  0.40674400  0.21394400  0.75000000  1
  O  O23  1  0.90674400  0.28605600  0.75000000  1
  O  O24  1  0.74974000  0.30717400  0.03945800  1
  O  O25  1  0.24974000  0.19282600  0.46054200  1
  O  O26  1  0.25026000  0.69282600  0.53945800  1
  O  O27  1  0.75026000  0.80717400  0.96054200  1
  O  O28  1  0.25026000  0.69282600  0.96054200  1
  O  O29  1  0.75026000  0.80717400  0.53945800  1
  O  O30  1  0.74974000  0.30717400  0.46054200  1
  O  O31  1  0.24974000  0.19282600  0.03945800  1
loop_
_geom_bond_atom_site_label_1
_geom_bond_atom_site_label_2
_geom_bond_distance
_geom_bond_site_symmetry_2
Na0 O27 2.343438 1_554
Na0 O7 2.390940 1_555
Na0 O28 2.398400 1_554
Na0 O19 2.402921 1_555
Na0 O20 2.500061 1_555
Na0 O3 2.640341 1_554
Na1 O26 2.343438 1_555
Na1 O6 2.390940 1_465
Na1 O29 2.398400 1_455
Na1 O18 2.402921 1_555
Na1 O21 2.500061 1_555
Na1 O2 2.640341 1_555
Na2 O25 2.343438 1_555
Na2 O5 2.390940 1_555
Na2 O30 2.398400 1_555
Na2 O17 2.402921 1_555
Na2 O22 2.500061 1_555
Na2 O1 2.640341 1_555
Na3 O24 2.343438 1_556
Na3 O4 2.390940 1_645
Na3 O31 2.398400 1_656
Na3 O16 2.402921 1_555
Na3 O23 2.500061 1_555
Na3 O0 2.640341 1_556
Na4 O31 2.343438 1_556
Na4 O3 2.390940 1_555
Na4 O24 2.398400 1_556
Na4 O15 2.402921 1_555
Na4 O22 2.500061 1_555
Na4 O7 2.640341 1_556
Na5 O30 2.343438 1_555
Na5 O2 2.390940 1_645
Na5 O25 2.398400 1_655
Na5 O14 2.402921 1_555
Na5 O23 2.500061 1_555
Na5 O6 2.640341 1_555
Na6 O29 2.343438 1_555
Na6 O1 2.390940 1_555
Na6 O26 2.398400 1_555
Na6 O13 2.402921 1_555
Na6 O20 2.500061 1_555
Na6 O5 2.640341 1_555
Na7 O28 2.343438 1_554
Na7 O0 2.390940 1_465
Na7 O27 2.398400 1_454
Na7 O12 2.402921 1_555
Na7 O21 2.500061 1_555
Na7 O4 2.640341 1_554
H0 O24 0.979626 1_555
H1 O25 0.979626 1_555
H2 O26 0.979626 1_555
H3 O27 0.979626 1_555
H4 O28 0.979626 1_555
H5 O29 0.979626 1_555
H6 O30 0.979626 1_555
H7 O31 0.979626 1_555
H8 O24 0.983895 1_555
H9 O25 0.983895 1_555
H10 O26 0.983895 1_555
H11 O27 0.983895 1_555
H12 O28 0.983895 1_555
H13 O29 0.983895 1_555
H14 O30 0.983895 1_555
H15 O31 0.983895 1_555
O0 S0 1.468796 1_555
O1 S1 1.468796 1_555
O2 S2 1.468796 1_555
O3 S3 1.468796 1_555
O4 S2 1.468796 1_555
O5 S3 1.468796 1_555
O6 S0 1.468796 1_555
O7 S1 1.468796 1_555
O8 S0 1.476247 1_555
O9 S1 1.476247 1_555
O10 S2 1.476247 1_555
O11 S3 1.476247 1_555
O12 S4 1.469558 1_555
O13 S5 1.469558 1_555
O14 S6 1.469558 1_555
O15 S7 1.469558 1_555
O16 S6 1.469558 1_555
O17 S7 1.469558 1_555
O18 S4 1.469558 1_555
O19 S5 1.469558 1_555
O20 S4 1.470621 1_555
O21 S5 1.470621 1_455
O22 S6 1.470621 1_555
O23 S7 1.470621 1_655
