# generated using pymatgen
data_KFe2P2H5O11
_symmetry_space_group_name_H-M   'P 1'
_cell_length_a   9.80068700
_cell_length_b   9.86607300
_cell_length_c   12.30515086
_cell_angle_alpha   51.54527163
_cell_angle_beta   90.00000000
_cell_angle_gamma   90.00000000
_symmetry_Int_Tables_number   1
_chemical_formula_structural   KFe2P2H5O11
_chemical_formula_sum   'K4 Fe8 P8 H20 O44'
_cell_volume   931.76177891
_cell_formula_units_Z   4
loop_
 _symmetry_equiv_pos_site_id
 _symmetry_equiv_pos_as_xyz
  1  'x, y, z'
loop_
 _atom_site_type_symbol
 _atom_site_label
 _atom_site_symmetry_multiplicity
 _atom_site_fract_x
 _atom_site_fract_y
 _atom_site_fract_z
 _atom_site_occupancy
  K  K0  1  0.69602900  0.38129900  0.60170900  1
  K  K1  1  0.80397100  0.38129900  0.10170900  1
  K  K2  1  0.30397100  0.61870100  0.39829100  1
  K  K3  1  0.19602900  0.61870100  0.89829100  1
  Fe  Fe0  1  0.05371300  0.97776400  0.12885400  1
  Fe  Fe1  1  0.44628700  0.97776400  0.62885400  1
  Fe  Fe2  1  0.94628700  0.02223600  0.87114600  1
  Fe  Fe3  1  0.55371300  0.02223600  0.37114600  1
  Fe  Fe4  1  0.72607200  0.70914600  0.19245300  1
  Fe  Fe5  1  0.77392800  0.70914600  0.69245300  1
  Fe  Fe6  1  0.27392800  0.29085400  0.80754700  1
  Fe  Fe7  1  0.22607200  0.29085400  0.30754700  1
  P  P0  1  0.52770200  0.35274700  0.35499300  1
  P  P1  1  0.97229800  0.35274700  0.85499300  1
  P  P2  1  0.47229800  0.64725300  0.64500700  1
  P  P3  1  0.02770200  0.64725300  0.14500700  1
  P  P4  1  0.67717000  0.83945700  0.87124200  1
  P  P5  1  0.82283000  0.83945700  0.37124200  1
  P  P6  1  0.32283000  0.16054300  0.12875800  1
  P  P7  1  0.17717000  0.16054300  0.62875800  1
  H  H0  1  0.79877900  0.04235700  0.03309500  1
  H  H1  1  0.70122100  0.04235700  0.53309500  1
  H  H2  1  0.20122100  0.95764300  0.96690500  1
  H  H3  1  0.29877900  0.95764300  0.46690500  1
  H  H4  1  0.47201600  0.85293500  0.10396300  1
  H  H5  1  0.02798400  0.85293500  0.60396300  1
  H  H6  1  0.52798400  0.14706500  0.89603700  1
  H  H7  1  0.97201600  0.14706500  0.39603700  1
  H  H8  1  0.52141200  0.93275600  0.18017300  1
  H  H9  1  0.97858800  0.93275600  0.68017300  1
  H  H10  1  0.47858800  0.06724400  0.81982700  1
  H  H11  1  0.02141200  0.06724400  0.31982700  1
  H  H12  1  0.58672700  0.19712000  0.04091900  1
  H  H13  1  0.91327300  0.19712000  0.54091900  1
  H  H14  1  0.41327300  0.80288000  0.95908100  1
  H  H15  1  0.08672700  0.80288000  0.45908100  1
  H  H16  1  0.63987100  0.34573300  0.88876300  1
  H  H17  1  0.86012900  0.34573300  0.38876300  1
  H  H18  1  0.36012900  0.65426700  0.11123700  1
  H  H19  1  0.13987100  0.65426700  0.61123700  1
  O  O0  1  0.59274200  0.26260300  0.29958500  1
  O  O1  1  0.90725800  0.26260300  0.79958500  1
  O  O2  1  0.40725800  0.73739700  0.70041500  1
  O  O3  1  0.09274200  0.73739700  0.20041500  1
  O  O4  1  0.62143300  0.49517300  0.32921100  1
  O  O5  1  0.87856700  0.49517300  0.82921100  1
  O  O6  1  0.37856700  0.50482700  0.67078900  1
  O  O7  1  0.12143300  0.50482700  0.17078900  1
  O  O8  1  0.50577700  0.22157300  0.51501600  1
  O  O9  1  0.99422300  0.22157300  0.01501600  1
  O  O10  1  0.49422300  0.77842700  0.48498400  1
  O  O11  1  0.00577700  0.77842700  0.98498400  1
  O  O12  1  0.88773500  0.56492700  0.21841600  1
  O  O13  1  0.61226500  0.56492700  0.71841600  1
  O  O14  1  0.11226500  0.43507300  0.78158400  1
  O  O15  1  0.38773500  0.43507300  0.28158400  1
  O  O16  1  0.72965800  0.71509900  0.84482000  1
  O  O17  1  0.77034200  0.71509900  0.34482000  1
  O  O18  1  0.27034200  0.28490100  0.15518000  1
  O  O19  1  0.22965800  0.28490100  0.65518000  1
  O  O20  1  0.53102200  0.90864200  0.80738400  1
  O  O21  1  0.96897800  0.90864200  0.30738400  1
  O  O22  1  0.46897800  0.09135800  0.19261600  1
  O  O23  1  0.03102200  0.09135800  0.69261600  1
  O  O24  1  0.77066900  0.99952400  0.80550900  1
  O  O25  1  0.72933100  0.99952400  0.30550900  1
  O  O26  1  0.22933100  0.00047600  0.19449100  1
  O  O27  1  0.27066900  0.00047600  0.69449100  1
  O  O28  1  0.66364300  0.73548000  0.02940700  1
  O  O29  1  0.83635700  0.73548000  0.52940700  1
  O  O30  1  0.33635700  0.26452000  0.97059300  1
  O  O31  1  0.16364300  0.26452000  0.47059300  1
  O  O32  1  0.85638700  0.94263900  0.06215200  1
  O  O33  1  0.64361300  0.94263900  0.56215200  1
  O  O34  1  0.14361300  0.05736100  0.93784800  1
  O  O35  1  0.35638700  0.05736100  0.43784800  1
  O  O36  1  0.54460900  0.85089300  0.16087500  1
  O  O37  1  0.95539100  0.85089300  0.66087500  1
  O  O38  1  0.45539100  0.14910700  0.83912500  1
  O  O39  1  0.04460900  0.14910700  0.33912500  1
  O  O40  1  0.65185900  0.22215900  0.96923700  1
  O  O41  1  0.84814100  0.22215900  0.46923700  1
  O  O42  1  0.34814100  0.77784100  0.03076300  1
  O  O43  1  0.15185900  0.77784100  0.53076300  1
loop_
_geom_bond_atom_site_label_1
_geom_bond_atom_site_label_2
_geom_bond_distance
_geom_bond_site_symmetry_2
K0 O1 2.835351 1_555
K0 O4 2.890429 1_555
K0 O17 2.901772 1_555
K0 O8 3.031340 1_555
K0 O13 3.042135 1_555
K0 O24 3.043491 1_545
K1 O0 2.835351 1_555
K1 O5 2.890429 1_554
K1 O16 2.901772 1_554
K1 O9 3.031340 1_555
K1 O12 3.042135 1_555
K1 O25 3.043491 1_545
K2 O3 2.835351 1_555
K2 O6 2.890429 1_555
K2 O19 2.901772 1_555
K2 O10 3.031340 1_555
K2 O15 3.042135 1_555
K2 O26 3.043491 1_565
K3 O2 2.835351 1_555
K3 O7 2.890429 1_556
K3 O18 2.901772 1_556
K3 O11 3.031340 1_555
K3 O14 3.042135 1_555
K3 O27 3.043491 1_565
Fe0 O26 1.972334 1_565
Fe0 O9 1.974160 1_465
Fe0 O3 1.987027 1_555
Fe0 O21 2.029147 1_455
Fe0 O34 2.149757 1_564
Fe0 O32 2.210800 1_455
Fe1 O27 1.972334 1_565
Fe1 O8 1.974160 1_565
Fe1 O2 1.987027 1_555
Fe1 O20 2.029147 1_555
Fe1 O35 2.149757 1_565
Fe1 O33 2.210800 1_555
Fe2 O24 1.972334 1_545
Fe2 O11 1.974160 1_645
Fe2 O1 1.987027 1_555
Fe2 O23 2.029147 1_655
Fe2 O32 2.149757 1_546
Fe2 O34 2.210800 1_655
Fe3 O25 1.972334 1_545
Fe3 O10 1.974160 1_545
Fe3 O0 1.987027 1_555
Fe3 O22 2.029147 1_555
Fe3 O33 2.149757 1_545
Fe3 O35 2.210800 1_555
Fe4 O28 1.954169 1_555
Fe4 O17 1.960589 1_555
Fe4 O4 1.980302 1_555
Fe4 O12 2.017818 1_555
Fe4 O36 2.143312 1_555
Fe4 O32 2.216919 1_555
Fe5 O29 1.954169 1_555
Fe5 O16 1.960589 1_555
Fe5 O5 1.980302 1_555
Fe5 O13 2.017818 1_555
Fe5 O37 2.143312 1_555
Fe5 O33 2.216919 1_555
Fe6 O30 1.954169 1_555
Fe6 O19 1.960589 1_555
Fe6 O6 1.980302 1_555
Fe6 O14 2.017818 1_555
Fe6 O38 2.143312 1_555
Fe6 O34 2.216919 1_555
Fe7 O31 1.954169 1_555
Fe7 O18 1.960589 1_555
Fe7 O7 1.980302 1_555
Fe7 O15 2.017818 1_555
Fe7 O39 2.143312 1_555
Fe7 O35 2.216919 1_555
H0 O32 0.988433 1_545
H1 O33 0.988433 1_545
H2 O34 0.988433 1_565
H3 O35 0.988433 1_565
H4 O36 0.989682 1_555
H5 O37 0.989682 1_455
H6 O38 0.989682 1_555
H7 O39 0.989682 1_655
H8 O36 0.999475 1_555
H9 O37 0.999475 1_555
H10 O38 0.999475 1_555
H11 O39 0.999475 1_555
H12 O40 0.987677 1_554
H13 O41 0.987677 1_555
H14 O42 0.987677 1_556
H15 O43 0.987677 1_555
H16 O40 0.989539 1_555
H17 O41 0.989539 1_555
H18 O42 0.989539 1_555
H19 O43 0.989539 1_555
O0 P0 1.554464 1_555
O1 P1 1.554464 1_555
O2 P2 1.554464 1_555
O3 P3 1.554464 1_555
O4 P0 1.537723 1_555
O5 P1 1.537723 1_555
O6 P2 1.537723 1_555
O7 P3 1.537723 1_555
O8 P0 1.558462 1_555
O9 P1 1.558462 1_554
O10 P2 1.558462 1_555
O11 P3 1.558462 1_556
O12 P3 1.563612 1_655
O13 P2 1.563612 1_555
O14 P1 1.563612 1_455
O15 P0 1.563612 1_555
O16 P4 1.540076 1_555
O17 P5 1.540076 1_555
O18 P6 1.540076 1_555
O19 P7 1.540076 1_555
O20 P4 1.570949 1_555
O21 P5 1.570949 1_555
O22 P6 1.570949 1_555
O23 P7 1.570949 1_555
O24 P4 1.548917 1_555
O25 P5 1.548917 1_555
O26 P6 1.548917 1_555
O27 P7 1.548917 1_555
O28 P4 1.540946 1_554
O29 P5 1.540946 1_555
O30 P6 1.540946 1_556
O31 P7 1.540946 1_555
