# generated using pymatgen
data_S7N
_symmetry_space_group_name_H-M   'P 1'
_cell_length_a   8.19446076
_cell_length_b   7.79243781
_cell_length_c   13.08970784
_cell_angle_alpha   90.00000000
_cell_angle_beta   90.00000000
_cell_angle_gamma   90.00000000
_symmetry_Int_Tables_number   1
_chemical_formula_structural   S7N
_chemical_formula_sum   'S28 N4'
_cell_volume   835.84101467
_cell_formula_units_Z   4
loop_
 _symmetry_equiv_pos_site_id
 _symmetry_equiv_pos_as_xyz
  1  'x, y, z'
loop_
 _atom_site_type_symbol
 _atom_site_label
 _atom_site_symmetry_multiplicity
 _atom_site_fract_x
 _atom_site_fract_y
 _atom_site_fract_z
 _atom_site_occupancy
  S  S0  1  0.24247266  0.66239951  0.13507856  1
  S  S1  1  0.25752734  0.16239951  0.36492144  1
  S  S2  1  0.75752734  0.33760049  0.63507856  1
  S  S3  1  0.74247266  0.83760049  0.86492144  1
  S  S4  1  0.75752734  0.33760049  0.86492144  1
  S  S5  1  0.74247266  0.83760049  0.63507856  1
  S  S6  1  0.24247266  0.66239951  0.36492144  1
  S  S7  1  0.25752734  0.16239951  0.13507856  1
  S  S8  1  0.01176879  0.74194782  0.09251840  1
  S  S9  1  0.48823121  0.24194782  0.40748160  1
  S  S10  1  0.98823121  0.25805218  0.59251840  1
  S  S11  1  0.51176879  0.75805218  0.90748160  1
  S  S12  1  0.98823121  0.25805218  0.90748160  1
  S  S13  1  0.51176879  0.75805218  0.59251840  1
  S  S14  1  0.01176879  0.74194782  0.40748160  1
  S  S15  1  0.48823121  0.24194782  0.09251840  1
  S  S16  1  0.84725955  0.54794321  0.12388223  1
  S  S17  1  0.65274045  0.04794321  0.37611777  1
  S  S18  1  0.15274045  0.45205679  0.62388223  1
  S  S19  1  0.34725955  0.95205679  0.87611777  1
  S  S20  1  0.15274045  0.45205679  0.87611777  1
  S  S21  1  0.34725955  0.95205679  0.62388223  1
  S  S22  1  0.84725955  0.54794321  0.37611777  1
  S  S23  1  0.65274045  0.04794321  0.12388223  1
  S  S24  1  0.72035713  0.62436292  0.25000000  1
  S  S25  1  0.77964287  0.12436292  0.25000000  1
  S  S26  1  0.27964287  0.37563708  0.75000000  1
  S  S27  1  0.22035713  0.87563708  0.75000000  1
  N  N0  1  0.29725829  0.70238506  0.25000000  1
  N  N1  1  0.20274171  0.20238506  0.25000000  1
  N  N2  1  0.70274171  0.29761494  0.75000000  1
  N  N3  1  0.79725829  0.79761494  0.75000000  1
loop_
_geom_bond_atom_site_label_1
_geom_bond_atom_site_label_2
_geom_bond_distance
_geom_bond_site_symmetry_2
S0 S8 2.066052 1_555
S1 S9 2.066052 1_555
S10 S2 2.066052 1_555
S10 S18 2.066705 1_655
S11 S3 2.066052 1_555
S11 S19 2.066705 1_555
S12 S4 2.066052 1_555
S12 S20 2.066705 1_655
S13 S5 2.066052 1_555
S13 S21 2.066705 1_555
S14 S6 2.066052 1_555
S14 S22 2.066705 1_455
S15 S7 2.066052 1_555
S15 S23 2.066705 1_555
S16 S24 2.039924 1_555
S16 S8 2.066705 1_655
S17 S25 2.039924 1_555
S17 S9 2.066705 1_555
S18 S26 2.039924 1_555
S19 S27 2.039924 1_555
S20 S26 2.039924 1_555
S21 S27 2.039924 1_555
S22 S24 2.039924 1_555
S23 S25 2.039924 1_555
N0 S6 1.600473 1_555
N0 S0 1.600473 1_555
N1 S1 1.600473 1_555
N1 S7 1.600473 1_555
N2 S4 1.600473 1_555
N2 S2 1.600473 1_555
N3 S5 1.600473 1_555
N3 S3 1.600473 1_555
