# generated using pymatgen
data_Rb3FeO3
_symmetry_space_group_name_H-M   'P 1'
_cell_length_a   12.20823900
_cell_length_b   7.20855200
_cell_length_c   7.92239515
_cell_angle_alpha   63.25944863
_cell_angle_beta   90.00000000
_cell_angle_gamma   90.00000000
_symmetry_Int_Tables_number   1
_chemical_formula_structural   Rb3FeO3
_chemical_formula_sum   'Rb12 Fe4 O12'
_cell_volume   622.63691949
_cell_formula_units_Z   4
loop_
 _symmetry_equiv_pos_site_id
 _symmetry_equiv_pos_as_xyz
  1  'x, y, z'
loop_
 _atom_site_type_symbol
 _atom_site_label
 _atom_site_symmetry_multiplicity
 _atom_site_fract_x
 _atom_site_fract_y
 _atom_site_fract_z
 _atom_site_occupancy
  Rb  Rb0  1  0.93949600  0.51976000  0.26958400  1
  Rb  Rb1  1  0.65532000  0.43388000  0.48212000  1
  Rb  Rb2  1  0.19290200  0.63288100  0.07300300  1
  Rb  Rb3  1  0.56050400  0.01976000  0.26958400  1
  Rb  Rb4  1  0.84468000  0.93388000  0.48212000  1
  Rb  Rb5  1  0.30709800  0.13288100  0.07300300  1
  Rb  Rb6  1  0.80709800  0.36711900  0.92699700  1
  Rb  Rb7  1  0.34468000  0.56612000  0.51788000  1
  Rb  Rb8  1  0.06050400  0.48024000  0.73041600  1
  Rb  Rb9  1  0.69290200  0.86711900  0.92699700  1
  Rb  Rb10  1  0.15532000  0.06612000  0.51788000  1
  Rb  Rb11  1  0.43949600  0.98024000  0.73041600  1
  Fe  Fe0  1  0.45173800  0.50863700  0.15341600  1
  Fe  Fe1  1  0.04826200  0.00863700  0.15341600  1
  Fe  Fe2  1  0.54826200  0.49136300  0.84658400  1
  Fe  Fe3  1  0.95173800  0.99136300  0.84658400  1
  O  O0  1  0.60415100  0.45493100  0.09851100  1
  O  O1  1  0.88386700  0.22163900  0.64797500  1
  O  O2  1  0.89584900  0.95493100  0.09851100  1
  O  O3  1  0.61613300  0.72163900  0.64797500  1
  O  O4  1  0.56342300  0.24300800  0.82966400  1
  O  O5  1  0.93657700  0.74300800  0.82966400  1
  O  O6  1  0.43657700  0.75699200  0.17033600  1
  O  O7  1  0.06342300  0.25699200  0.17033600  1
  O  O8  1  0.11613300  0.77836100  0.35202500  1
  O  O9  1  0.39584900  0.54506900  0.90148900  1
  O  O10  1  0.38386700  0.27836100  0.35202500  1
  O  O11  1  0.10415100  0.04506900  0.90148900  1
loop_
_geom_bond_atom_site_label_1
_geom_bond_atom_site_label_2
_geom_bond_distance
_geom_bond_site_symmetry_2
Fe0 O6 1.863676 1_555
Fe0 O10 1.888743 1_555
Fe0 O0 1.988168 1_555
Fe0 O9 2.011541 1_554
Fe1 O7 1.863676 1_555
Fe1 O8 1.888743 1_545
Fe1 O2 1.988168 1_445
Fe1 O11 2.011541 1_554
Fe2 O4 1.863676 1_555
Fe2 O3 1.888743 1_555
Fe2 O9 1.988168 1_555
Fe2 O0 2.011541 1_556
Fe3 O5 1.863676 1_555
Fe3 O1 1.888743 1_565
Fe3 O11 1.988168 1_665
Fe3 O2 2.011541 1_556
O0 Rb3 2.852244 1_555
O0 Rb9 2.866278 1_554
O0 Rb6 3.026496 1_554
O0 Rb1 3.038813 1_555
O1 Rb0 2.875534 1_555
O1 Rb4 2.951438 1_545
O1 Rb6 2.991769 1_555
O1 Rb8 3.106030 1_655
O1 Rb1 3.169094 1_555
O2 Rb0 2.852244 1_555
O2 Rb6 2.866278 1_564
O2 Rb9 3.026496 1_554
O2 Rb4 3.038813 1_555
O3 Rb3 2.875534 1_565
O3 Rb1 2.951438 1_555
O3 Rb9 2.991769 1_555
O3 Rb11 3.106030 1_555
O3 Rb4 3.169094 1_555
O4 Rb1 2.706234 1_555
O4 Rb11 2.799175 1_545
O4 Rb9 2.924894 1_545
O4 Rb3 3.112962 1_556
O5 Rb4 2.706234 1_555
O5 Rb8 2.799175 1_655
O5 Rb6 2.924894 1_555
O5 Rb0 3.112962 1_556
O6 Rb7 2.706234 1_555
O6 Rb3 2.799175 1_565
O6 Rb5 2.924894 1_565
O6 Rb11 3.112962 1_554
O7 Rb10 2.706234 1_555
O7 Rb0 2.799175 1_455
O7 Rb2 2.924894 1_555
O7 Rb8 3.112962 1_554
O8 Rb8 2.875534 1_555
O8 Rb10 2.951438 1_565
O8 Rb2 2.991769 1_555
O8 Rb0 3.106030 1_455
O8 Rb7 3.169094 1_555
O9 Rb11 2.852244 1_555
O9 Rb5 2.866278 1_556
O9 Rb2 3.026496 1_556
O9 Rb7 3.038813 1_555
O10 Rb11 2.875534 1_545
O10 Rb7 2.951438 1_555
O10 Rb5 2.991769 1_555
O10 Rb3 3.106030 1_555
O10 Rb10 3.169094 1_555
O11 Rb8 2.852244 1_555
O11 Rb2 2.866278 1_546
O11 Rb5 3.026496 1_556
O11 Rb10 3.038813 1_555
