# generated using pymatgen
data_LiV2OF5
_symmetry_space_group_name_H-M   'P 1'
_cell_length_a   5.06878023
_cell_length_b   5.41398125
_cell_length_c   16.78551923
_cell_angle_alpha   84.82008739
_cell_angle_beta   82.39924515
_cell_angle_gamma   62.36588265
_symmetry_Int_Tables_number   1
_chemical_formula_structural   LiV2OF5
_chemical_formula_sum   'Li4 V8 O4 F20'
_cell_volume   404.28224320
_cell_formula_units_Z   4
loop_
 _symmetry_equiv_pos_site_id
 _symmetry_equiv_pos_as_xyz
  1  'x, y, z'
loop_
 _atom_site_type_symbol
 _atom_site_label
 _atom_site_symmetry_multiplicity
 _atom_site_fract_x
 _atom_site_fract_y
 _atom_site_fract_z
 _atom_site_occupancy
  Li  Li0  1  0.49699129  0.68831764  0.30932621  1
  Li  Li1  1  0.62453115  0.80617325  0.91880852  1
  Li  Li2  1  0.73649295  0.95276235  0.55870864  1
  Li  Li3  1  0.27386881  0.41887386  0.05594304  1
  V  V0  1  0.65937643  0.59757766  0.12741498  1
  V  V1  1  0.73264941  0.76602579  0.74227412  1
  V  V2  1  0.13691590  0.12025520  0.62967687  1
  V  V3  1  0.24521572  0.25230339  0.24299053  1
  V  V4  1  0.89868771  0.86007346  0.37659336  1
  V  V5  1  0.02277278  0.97653997  0.99811139  1
  V  V6  1  0.37311781  0.40215430  0.87460019  1
  V  V7  1  0.48107498  0.51496251  0.49468067  1
  O  O0  1  0.49952674  0.92422501  0.66333997  1
  O  O1  1  0.02872260  0.40354452  0.15962809  1
  O  O2  1  0.26134544  0.66411870  0.41247096  1
  O  O3  1  0.29653815  0.68193864  0.93821511  1
  F  F0  1  0.23742312  0.79154935  0.09460312  1
  F  F1  1  0.15995592  0.81169840  0.56531566  1
  F  F2  1  0.68375696  0.28971592  0.06329701  1
  F  F3  1  0.57024216  0.93359053  0.18426201  1
  F  F4  1  0.52640103  0.53227544  0.77981966  1
  F  F5  1  0.72847852  0.32119347  0.58721268  1
  F  F6  1  0.07397011  0.99189776  0.27845660  1
  F  F7  1  0.78711887  0.75285150  0.02387289  1
  F  F8  1  0.71122549  0.73571674  0.47633770  1
  F  F9  1  0.92229103  0.54694813  0.31427122  1
  F  F10  1  0.05330515  0.45864130  0.68357234  1
  F  F11  1  0.95158099  0.59387549  0.84510574  1
  F  F12  1  0.31102430  0.25480383  0.53139291  1
  F  F13  1  0.48653526  0.05622957  0.33664669  1
  F  F14  1  0.24650302  0.20587654  0.97556716  1
  F  F15  1  0.94790523  0.98874421  0.72184941  1
  F  F16  1  0.48185030  0.46797054  0.22750150  1
  F  F17  1  0.44689223  0.05011534  0.82569664  1
  F  F18  1  0.80336807  0.19486078  0.43532213  1
  F  F19  1  0.77752336  0.15395190  0.90808926  1
loop_
_geom_bond_atom_site_label_1
_geom_bond_atom_site_label_2
_geom_bond_distance
_geom_bond_site_symmetry_2
Li0 O2 1.999631 1_555
Li1 O3 2.043767 1_555
Li2 O0 2.028852 1_555
Li3 O1 2.019264 1_555
Li3 O3 2.351647 1_554
O0 V1 1.776450 1_555
O0 V2 1.783479 1_565
O1 V3 1.788417 1_555
O1 V0 1.800458 1_455
O2 V7 1.779837 1_555
O2 V4 1.798802 1_455
O3 V6 1.795085 1_555
O3 V5 1.829664 1_555
F0 V5 1.993135 1_554
F0 V0 2.025886 1_555
F0 Li3 2.094069 1_555
F1 Li2 1.931264 1_455
F1 V7 2.010901 1_555
F1 V2 2.020625 1_565
F2 Li3 1.877586 1_555
F2 V0 2.012294 1_555
F2 V5 2.039542 1_644
F3 V0 1.964933 1_555
F3 V3 1.975805 1_565
F3 Li0 2.460880 1_555
F4 V6 1.899846 1_555
F4 V1 2.000155 1_555
F5 V7 2.021441 1_555
F5 V2 2.034377 1_655
F5 Li2 2.073965 1_545
F6 V3 1.985552 1_565
F6 V4 2.000255 1_455
F6 Li0 2.106750 1_555
F7 Li1 1.986079 1_554
F7 V0 2.022383 1_555
F7 V5 2.047218 1_654
F7 Li3 2.384040 1_655
F8 Li2 1.946467 1_555
F8 V7 2.004003 1_555
F8 V4 2.031843 1_555
F9 Li0 1.935262 1_555
F9 V3 2.014908 1_655
F9 V4 2.020276 1_555
F10 V1 1.935296 1_455
F10 V2 1.957526 1_555
F11 Li1 1.883190 1_555
F11 V6 2.004390 1_655
F11 V1 2.082372 1_555
F12 V7 1.983817 1_555
F12 V2 2.006325 1_555
F12 Li2 2.095230 1_545
F13 V3 2.024181 1_555
F13 V4 2.031183 1_545
F13 Li0 2.059425 1_545
F14 Li3 1.909987 1_556
F14 V5 2.019575 1_545
F14 V6 2.105494 1_555
F14 Li1 2.303251 1_545
F15 V1 1.951608 1_555
F15 V2 1.964759 1_665
F16 Li0 1.929799 1_555
F16 V3 2.007850 1_555
F16 V0 2.024216 1_555
F17 Li1 1.973365 1_545
F17 V6 1.996595 1_555
F17 V1 2.051866 1_545
F18 V4 1.968442 1_545
F18 V7 1.979845 1_555
F18 Li2 2.420460 1_545
F19 V5 1.969378 1_645
F19 V6 1.984129 1_555
F19 Li1 2.331382 1_545
