# generated using pymatgen
data_MnV3(PO4)6
_symmetry_space_group_name_H-M   'P 1'
_cell_length_a   8.70881541
_cell_length_b   8.70881541
_cell_length_c   8.70881500
_cell_angle_alpha   58.47324128
_cell_angle_beta   58.47324128
_cell_angle_gamma   58.47324506
_symmetry_Int_Tables_number   1
_chemical_formula_structural   MnV3(PO4)6
_chemical_formula_sum   'Mn1 V3 P6 O24'
_cell_volume   450.73423560
_cell_formula_units_Z   1
loop_
 _symmetry_equiv_pos_site_id
 _symmetry_equiv_pos_as_xyz
  1  'x, y, z'
loop_
 _atom_site_type_symbol
 _atom_site_label
 _atom_site_symmetry_multiplicity
 _atom_site_fract_x
 _atom_site_fract_y
 _atom_site_fract_z
 _atom_site_occupancy
  Mn  Mn0  1  0.14360200  0.14360200  0.14360200  1
  V  V0  1  0.85823600  0.85823600  0.85823600  1
  V  V1  1  0.64041000  0.64041000  0.64041000  1
  V  V2  1  0.36072000  0.36072000  0.36072000  1
  P  P0  1  0.53126200  0.96956400  0.24885500  1
  P  P1  1  0.24885500  0.53126200  0.96956400  1
  P  P2  1  0.96956400  0.24885500  0.53126200  1
  P  P3  1  0.03314100  0.75442300  0.46354300  1
  P  P4  1  0.75442300  0.46354300  0.03314100  1
  P  P5  1  0.46354300  0.03314100  0.75442300  1
  O  O0  1  0.49748000  0.86033800  0.71823900  1
  O  O1  1  0.86033800  0.71823900  0.49748000  1
  O  O2  1  0.71433400  0.94254900  0.07575200  1
  O  O3  1  0.71823900  0.49748000  0.86033800  1
  O  O4  1  0.56321700  0.78555400  0.42654700  1
  O  O5  1  0.35638300  0.98597100  0.23119100  1
  O  O6  1  0.07575200  0.71433400  0.94254900  1
  O  O7  1  0.42654700  0.56321700  0.78555400  1
  O  O8  1  0.78555400  0.42654700  0.56321700  1
  O  O9  1  0.01103200  0.77639400  0.63789700  1
  O  O10  1  0.05693900  0.92678200  0.27939600  1
  O  O11  1  0.77639400  0.63789700  0.01103200  1
  O  O12  1  0.23119100  0.35638300  0.98597100  1
  O  O13  1  0.94254900  0.07575200  0.71433400  1
  O  O14  1  0.98597100  0.23119100  0.35638300  1
  O  O15  1  0.21554800  0.57280400  0.43760300  1
  O  O16  1  0.57280400  0.43760300  0.21554800  1
  O  O17  1  0.92678200  0.27939600  0.05693900  1
  O  O18  1  0.63789700  0.01103200  0.77639400  1
  O  O19  1  0.43760300  0.21554800  0.57280400  1
  O  O20  1  0.27990700  0.50104600  0.14333900  1
  O  O21  1  0.27939600  0.05693900  0.92678200  1
  O  O22  1  0.14333900  0.27990700  0.50104600  1
  O  O23  1  0.50104600  0.14333900  0.27990700  1
loop_
_geom_bond_atom_site_label_1
_geom_bond_atom_site_label_2
_geom_bond_distance
_geom_bond_site_symmetry_2
Mn0 O12 1.903430 1_554
Mn0 O14 1.903430 1_455
Mn0 O5 1.903430 1_545
Mn0 O21 1.937859 1_554
Mn0 O10 1.937859 1_545
Mn0 O17 1.937859 1_455
O0 P5 1.544280 1_565
O0 V1 1.912928 1_555
O1 P3 1.544280 1_655
O1 V1 1.912928 1_555
O2 P0 1.528060 1_555
O2 V0 1.925538 1_554
O3 P4 1.544280 1_556
O3 V1 1.912928 1_555
O4 P0 1.559089 1_555
O4 V1 1.864746 1_555
O5 P0 1.535586 1_555
O6 P1 1.528060 1_555
O6 V0 1.925538 1_455
O7 P1 1.559089 1_555
O7 V1 1.864746 1_555
O8 P2 1.559090 1_555
O8 V1 1.864746 1_555
O9 P3 1.529326 1_555
O9 V0 1.931048 1_455
O10 P3 1.525855 1_555
O11 P4 1.529326 1_555
O11 V0 1.931048 1_554
O12 P1 1.535586 1_555
O13 P2 1.528060 1_555
O13 V0 1.925538 1_545
O14 P2 1.535586 1_555
O15 P3 1.564285 1_555
O15 V2 1.850432 1_555
O16 P4 1.564284 1_555
O16 V2 1.850432 1_555
O17 P4 1.525855 1_555
O18 P5 1.529326 1_555
O18 V0 1.931048 1_545
O19 P5 1.564284 1_555
O19 V2 1.850432 1_555
O20 P1 1.539409 1_554
O20 V2 1.909749 1_555
O21 P5 1.525855 1_555
O22 P2 1.539409 1_455
O22 V2 1.909749 1_555
O23 P0 1.539409 1_545
O23 V2 1.909749 1_555
