# generated using pymatgen
data_Tm2WO6
_symmetry_space_group_name_H-M   'P 1'
_cell_length_a   5.14528924
_cell_length_b   8.94552585
_cell_length_c   9.76607228
_cell_angle_alpha   90.00000000
_cell_angle_beta   90.00000000
_cell_angle_gamma   90.00000000
_symmetry_Int_Tables_number   1
_chemical_formula_structural   Tm2WO6
_chemical_formula_sum   'Tm8 W4 O24'
_cell_volume   449.50611349
_cell_formula_units_Z   4
loop_
 _symmetry_equiv_pos_site_id
 _symmetry_equiv_pos_as_xyz
  1  'x, y, z'
loop_
 _atom_site_type_symbol
 _atom_site_label
 _atom_site_symmetry_multiplicity
 _atom_site_fract_x
 _atom_site_fract_y
 _atom_site_fract_z
 _atom_site_occupancy
  Tm  Tm0  1  0.01653352  0.39663282  0.03356908  1
  Tm  Tm1  1  0.03976117  0.28058453  0.62702476  1
  Tm  Tm2  1  0.46023883  0.71941547  0.12702476  1
  Tm  Tm3  1  0.48346648  0.60336718  0.53356908  1
  Tm  Tm4  1  0.51653352  0.10336718  0.96643092  1
  Tm  Tm5  1  0.53976117  0.21941547  0.37297524  1
  Tm  Tm6  1  0.96023883  0.78058453  0.87297524  1
  Tm  Tm7  1  0.98346648  0.89663282  0.46643092  1
  W  W0  1  0.03822070  0.00514973  0.15389821  1
  W  W1  1  0.46177930  0.99485027  0.65389821  1
  W  W2  1  0.53822070  0.49485027  0.84610179  1
  W  W3  1  0.96177930  0.50514973  0.34610179  1
  O  O0  1  0.08842251  0.65807342  0.46918743  1
  O  O1  1  0.17845501  0.54573552  0.19897759  1
  O  O2  1  0.17702120  0.86145622  0.68151362  1
  O  O3  1  0.19659067  0.85829345  0.26548377  1
  O  O4  1  0.23488707  0.38470899  0.43161006  1
  O  O5  1  0.25244178  0.08971831  0.50408888  1
  O  O6  1  0.24755822  0.91028169  0.00408888  1
  O  O7  1  0.26511293  0.61529101  0.93161006  1
  O  O8  1  0.30340933  0.14170655  0.76548377  1
  O  O9  1  0.32297880  0.13854378  0.18151362  1
  O  O10  1  0.32154499  0.45426448  0.69897759  1
  O  O11  1  0.41157749  0.34192658  0.96918743  1
  O  O12  1  0.58842251  0.84192658  0.53081257  1
  O  O13  1  0.67845501  0.95426448  0.80102241  1
  O  O14  1  0.67702120  0.63854378  0.31848638  1
  O  O15  1  0.69659067  0.64170655  0.73451623  1
  O  O16  1  0.73488707  0.11529101  0.56838994  1
  O  O17  1  0.75244178  0.41028169  0.49591112  1
  O  O18  1  0.74755822  0.58971831  0.99591112  1
  O  O19  1  0.76511293  0.88470899  0.06838994  1
  O  O20  1  0.80340933  0.35829345  0.23451623  1
  O  O21  1  0.82297880  0.36145622  0.81848638  1
  O  O22  1  0.82154499  0.04573552  0.30102241  1
  O  O23  1  0.91157749  0.15807342  0.03081257  1
loop_
_geom_bond_atom_site_label_1
_geom_bond_atom_site_label_2
_geom_bond_distance
_geom_bond_site_symmetry_2
O0 W3 1.934150 1_455
O0 Tm3 2.183197 1_555
O0 Tm7 2.201472 1_455
O1 W3 1.854506 1_455
O1 Tm2 2.238242 1_555
O1 Tm0 2.254468 1_555
O2 W1 1.908757 1_555
O2 Tm6 2.294288 1_455
O2 Tm7 2.345844 1_455
O3 W0 1.891397 1_565
O3 Tm7 2.274069 1_455
O3 Tm2 2.282995 1_555
O4 W3 1.957754 1_455
O4 Tm5 2.230468 1_555
O4 Tm1 2.348976 1_555
O4 Tm3 2.540346 1_555
O5 W1 2.005208 1_545
O5 Tm7 2.243654 1_445
O5 Tm5 2.274021 1_555
O5 Tm1 2.356725 1_555
O6 W0 2.005208 1_565
O6 Tm4 2.243654 1_564
O6 Tm6 2.274021 1_454
O6 Tm2 2.356725 1_555
O7 W2 1.957754 1_555
O7 Tm6 2.230468 1_455
O7 Tm2 2.348976 1_556
O7 Tm0 2.540346 1_556
O8 W1 1.891397 1_545
O8 Tm4 2.274069 1_555
O8 Tm1 2.282995 1_555
O9 W0 1.908757 1_555
O9 Tm5 2.294288 1_555
O9 Tm4 2.345844 1_554
O10 W2 1.854506 1_555
O10 Tm1 2.238242 1_555
O10 Tm3 2.254468 1_555
O11 W2 1.934150 1_555
O11 Tm0 2.183197 1_556
O11 Tm4 2.201472 1_555
O12 W1 1.934150 1_555
O12 Tm7 2.183197 1_555
O12 Tm3 2.201472 1_555
O13 W1 1.854506 1_555
O13 Tm6 2.238242 1_555
O13 Tm4 2.254468 1_565
O14 W3 1.908757 1_555
O14 Tm2 2.294288 1_555
O14 Tm3 2.345844 1_555
O15 W2 1.891397 1_555
O15 Tm3 2.274069 1_555
O15 Tm6 2.282995 1_555
O16 W1 1.957754 1_545
O16 Tm1 2.230468 1_655
O16 Tm5 2.348976 1_555
O16 Tm7 2.540346 1_545
O17 W3 2.005208 1_555
O17 Tm3 2.243654 1_555
O17 Tm1 2.274021 1_655
O17 Tm5 2.356725 1_555
O18 W2 2.005208 1_555
O18 Tm0 2.243654 1_656
O18 Tm2 2.274021 1_556
O18 Tm6 2.356725 1_555
O19 W0 1.957754 1_665
O19 Tm2 2.230468 1_555
O19 Tm6 2.348976 1_554
O19 Tm4 2.540346 1_564
O20 W3 1.891397 1_555
O20 Tm0 2.274069 1_655
O20 Tm5 2.282995 1_555
O21 W2 1.908757 1_555
O21 Tm1 2.294288 1_655
O21 Tm0 2.345844 1_656
O22 W0 1.854506 1_655
O22 Tm5 2.238242 1_555
O22 Tm7 2.254468 1_545
O23 W0 1.934150 1_655
O23 Tm4 2.183197 1_554
O23 Tm0 2.201472 1_655
