# generated using pymatgen
data_Na6Mn3(PO4)4
_symmetry_space_group_name_H-M   'P 1'
_cell_length_a   10.63407167
_cell_length_b   10.63407167
_cell_length_c   10.93660540
_cell_angle_alpha   89.63905082
_cell_angle_beta   89.63905082
_cell_angle_gamma   37.06205426
_symmetry_Int_Tables_number   1
_chemical_formula_structural   Na6Mn3(PO4)4
_chemical_formula_sum   'Na12 Mn6 P8 O32'
_cell_volume   745.34722326
_cell_formula_units_Z   2
loop_
 _symmetry_equiv_pos_site_id
 _symmetry_equiv_pos_as_xyz
  1  'x, y, z'
loop_
 _atom_site_type_symbol
 _atom_site_label
 _atom_site_symmetry_multiplicity
 _atom_site_fract_x
 _atom_site_fract_y
 _atom_site_fract_z
 _atom_site_occupancy
  Na  Na0  1  0.01259400  0.81164300  0.55682800  1
  Na  Na1  1  0.17991600  0.72402600  0.31406200  1
  Na  Na2  1  0.00477000  0.48705000  0.49761800  1
  Na  Na3  1  0.05659700  0.08790800  0.34810700  1
  Na  Na4  1  0.08790800  0.05659700  0.84810700  1
  Na  Na5  1  0.24937900  0.88810600  0.07397000  1
  Na  Na6  1  0.48705000  0.00477000  0.99761800  1
  Na  Na7  1  0.72402600  0.17991600  0.81406200  1
  Na  Na8  1  0.81164300  0.01259400  0.05682800  1
  Na  Na9  1  0.39949600  0.60761000  0.73721400  1
  Na  Na10  1  0.60761000  0.39949600  0.23721400  1
  Na  Na11  1  0.88810600  0.24937900  0.57397000  1
  Mn  Mn0  1  0.32596600  0.35864400  0.24305200  1
  Mn  Mn1  1  0.35864400  0.32596600  0.74305200  1
  Mn  Mn2  1  0.50389300  0.99969900  0.49219200  1
  Mn  Mn3  1  0.62447200  0.68534500  0.24675700  1
  Mn  Mn4  1  0.68534500  0.62447200  0.74675700  1
  Mn  Mn5  1  0.99969900  0.50389300  0.99219200  1
  P  P0  1  0.24208300  0.60248900  0.98185400  1
  P  P1  1  0.17249600  0.22723300  0.24692100  1
  P  P2  1  0.22723300  0.17249600  0.74692100  1
  P  P3  1  0.60248900  0.24208300  0.48185400  1
  P  P4  1  0.39154800  0.76693800  0.50192600  1
  P  P5  1  0.77900700  0.81738200  0.23660100  1
  P  P6  1  0.81738200  0.77900700  0.73660100  1
  P  P7  1  0.76693800  0.39154800  0.00192600  1
  O  O0  1  0.04478600  0.67704000  0.98443500  1
  O  O1  1  0.00267000  0.68515500  0.26503500  1
  O  O2  1  0.04760000  0.63686400  0.70485700  1
  O  O3  1  0.00781500  0.29589300  0.71844700  1
  O  O4  1  0.32760900  0.54802700  0.11645900  1
  O  O5  1  0.20344600  0.29605100  0.13698900  1
  O  O6  1  0.41261700  0.40358900  0.89890900  1
  O  O7  1  0.25908100  0.23720600  0.35651300  1
  O  O8  1  0.23720600  0.25908100  0.85651300  1
  O  O9  1  0.40358900  0.41261700  0.39890900  1
  O  O10  1  0.29605100  0.20344600  0.63698900  1
  O  O11  1  0.54802700  0.32760900  0.61645900  1
  O  O12  1  0.29589300  0.00781500  0.21844700  1
  O  O13  1  0.30982300  0.96805100  0.49342200  1
  O  O14  1  0.21211200  0.82633700  0.55668900  1
  O  O15  1  0.18571900  0.78083600  0.92764100  1
  O  O16  1  0.37161100  0.94517600  0.77973000  1
  O  O17  1  0.63686400  0.04760000  0.20485700  1
  O  O18  1  0.68515500  0.00267000  0.76503500  1
  O  O19  1  0.67704000  0.04478600  0.48443500  1
  O  O20  1  0.44023600  0.68233200  0.36713900  1
  O  O21  1  0.70186500  0.79504600  0.34643100  1
  O  O22  1  0.76172200  0.73680200  0.12709900  1
  O  O23  1  0.60018100  0.58900700  0.08601100  1
  O  O24  1  0.58900700  0.60018100  0.58601100  1
  O  O25  1  0.73680200  0.76172200  0.62709900  1
  O  O26  1  0.79504600  0.70186500  0.84643100  1
  O  O27  1  0.68233200  0.44023600  0.86713900  1
  O  O28  1  0.94517600  0.37161100  0.27973000  1
  O  O29  1  0.78083600  0.18571900  0.42764100  1
  O  O30  1  0.82633700  0.21211200  0.05668900  1
  O  O31  1  0.96805100  0.30982300  0.99342200  1
loop_
_geom_bond_atom_site_label_1
_geom_bond_atom_site_label_2
_geom_bond_distance
_geom_bond_site_symmetry_2
Na0 O14 2.248343 1_555
Na0 O2 2.253759 1_555
Na0 O19 2.323384 1_465
Na1 O9 2.214290 1_555
Na1 O1 2.295643 1_555
Na1 O4 2.440661 1_555
Na1 O20 2.500991 1_555
Na2 O7 2.299098 1_555
Na2 O25 2.318306 1_455
Na2 O10 2.471011 1_555
Na2 O21 2.645432 1_455
Na3 O28 2.311421 1_455
Na3 O29 2.355664 1_455
Na3 O12 2.392162 1_555
Na3 O13 2.439732 1_545
Na3 O20 2.684433 1_545
Na4 O16 2.311421 1_545
Na4 O15 2.355664 1_545
Na4 O3 2.392162 1_555
Na4 O31 2.439732 1_455
Na4 O27 2.684433 1_455
Na5 O23 2.261526 1_555
Na5 O12 2.324214 1_565
Na5 O15 2.364257 1_554
Na5 O30 2.722121 1_465
Na6 O8 2.299098 1_555
Na6 O22 2.318306 1_546
Na6 O5 2.471011 1_556
Na6 O26 2.645432 1_545
Na7 O6 2.214290 1_555
Na7 O18 2.295643 1_555
Na7 O11 2.440661 1_555
Na7 O27 2.500991 1_555
Na8 O30 2.248343 1_555
Na8 O17 2.253759 1_555
Na8 O0 2.323384 1_644
Na9 O11 2.371103 1_555
Na9 O27 2.389881 1_555
Na9 O14 2.423512 1_555
Na9 O15 2.490768 1_555
Na9 O24 2.551017 1_555
Na9 O6 2.706543 1_555
Na10 O4 2.371103 1_555
Na10 O20 2.389881 1_555
Na10 O30 2.423512 1_555
Na10 O29 2.490768 1_555
Na10 O23 2.551017 1_555
Na10 O9 2.706543 1_555
Na11 O24 2.261526 1_555
Na11 O3 2.324214 1_655
Na11 O29 2.364257 1_555
Na11 O14 2.722121 1_645
Mn0 O17 2.143085 1_555
Mn0 O9 2.168511 1_555
Mn0 O1 2.209535 1_555
Mn0 O5 2.213351 1_555
Mn0 O7 2.268905 1_555
Mn0 O4 2.448204 1_555
Mn1 O2 2.143085 1_555
Mn1 O6 2.168511 1_555
Mn1 O18 2.209535 1_555
Mn1 O10 2.213351 1_555
Mn1 O8 2.268905 1_555
Mn1 O11 2.448204 1_555
Mn2 O21 2.097347 1_555
Mn2 O10 2.107985 1_565
Mn2 O25 2.170533 1_555
Mn2 O7 2.205889 1_565
Mn2 O19 2.243603 1_565
Mn2 O13 2.341068 1_555
Mn3 O23 2.158154 1_555
Mn3 O28 2.175536 1_555
Mn3 O21 2.187720 1_555
Mn3 O12 2.222938 1_565
Mn3 O22 2.320289 1_555
Mn3 O20 2.374851 1_555
Mn4 O24 2.158154 1_555
Mn4 O16 2.175536 1_555
Mn4 O26 2.187720 1_555
Mn4 O3 2.222938 1_655
Mn4 O25 2.320289 1_555
Mn4 O27 2.374851 1_555
Mn5 O26 2.097347 1_555
Mn5 O5 2.107985 1_656
Mn5 O22 2.170533 1_556
Mn5 O8 2.205889 1_655
Mn5 O0 2.243603 1_655
Mn5 O31 2.341068 1_555
O0 P0 1.541476 1_555
O1 P5 1.548285 1_455
O2 P6 1.577587 1_455
O3 P2 1.542946 1_555
O4 P0 1.579623 1_554
O5 P1 1.567703 1_555
O6 P0 1.570696 1_555
O7 P1 1.570649 1_555
O8 P2 1.570649 1_555
O9 P3 1.570696 1_555
O10 P2 1.567703 1_555
O11 P3 1.579623 1_555
O12 P1 1.542946 1_555
O13 P4 1.539464 1_555
O14 P4 1.570176 1_555
O15 P0 1.576008 1_555
O16 P2 1.549915 1_565
O17 P5 1.577587 1_545
O18 P6 1.548285 1_545
O19 P3 1.541476 1_555
O20 P4 1.585623 1_555
O21 P5 1.570709 1_555
O22 P5 1.571409 1_555
O23 P7 1.568598 1_555
O24 P4 1.568598 1_555
O25 P6 1.571409 1_555
O26 P6 1.570709 1_555
O27 P7 1.585623 1_556
O28 P1 1.549915 1_655
O29 P3 1.576008 1_555
O30 P7 1.570176 1_555
O31 P7 1.539464 1_556
