# generated using pymatgen
data_Ca2HfO4
_symmetry_space_group_name_H-M   'P 1'
_cell_length_a   5.69338700
_cell_length_b   5.76344600
_cell_length_c   12.02541700
_cell_angle_alpha   90.00000000
_cell_angle_beta   90.00000000
_cell_angle_gamma   90.00000000
_symmetry_Int_Tables_number   1
_chemical_formula_structural   Ca2HfO4
_chemical_formula_sum   'Ca8 Hf4 O16'
_cell_volume   394.59636383
_cell_formula_units_Z   4
loop_
 _symmetry_equiv_pos_site_id
 _symmetry_equiv_pos_as_xyz
  1  'x, y, z'
loop_
 _atom_site_type_symbol
 _atom_site_label
 _atom_site_symmetry_multiplicity
 _atom_site_fract_x
 _atom_site_fract_y
 _atom_site_fract_z
 _atom_site_occupancy
  Ca  Ca0  1  0.01801000  0.04834500  0.34587000  1
  Ca  Ca1  1  0.01801000  0.45165500  0.84587000  1
  Ca  Ca2  1  0.48199000  0.54834500  0.34587000  1
  Ca  Ca3  1  0.48199000  0.95165500  0.84587000  1
  Ca  Ca4  1  0.51801000  0.04834500  0.15413000  1
  Ca  Ca5  1  0.51801000  0.45165500  0.65413000  1
  Ca  Ca6  1  0.98199000  0.54834500  0.15413000  1
  Ca  Ca7  1  0.98199000  0.95165500  0.65413000  1
  Hf  Hf0  1  0.00000000  0.00000000  0.00000000  1
  Hf  Hf1  1  0.00000000  0.50000000  0.50000000  1
  Hf  Hf2  1  0.50000000  0.50000000  0.00000000  1
  Hf  Hf3  1  0.50000000  0.00000000  0.50000000  1
  O  O0  1  0.08455600  0.46142200  0.33217900  1
  O  O1  1  0.08455600  0.03857800  0.83217900  1
  O  O2  1  0.19250100  0.30645600  0.02876100  1
  O  O3  1  0.19250100  0.19354400  0.52876100  1
  O  O4  1  0.30749900  0.80645600  0.02876100  1
  O  O5  1  0.30749900  0.69354400  0.52876100  1
  O  O6  1  0.41544400  0.53857800  0.83217900  1
  O  O7  1  0.41544400  0.96142200  0.33217900  1
  O  O8  1  0.58455600  0.03857800  0.66782100  1
  O  O9  1  0.58455600  0.46142200  0.16782100  1
  O  O10  1  0.69250100  0.30645600  0.47123900  1
  O  O11  1  0.69250100  0.19354400  0.97123900  1
  O  O12  1  0.80749900  0.80645600  0.47123900  1
  O  O13  1  0.80749900  0.69354400  0.97123900  1
  O  O14  1  0.91544400  0.96142200  0.16782100  1
  O  O15  1  0.91544400  0.53857800  0.66782100  1
loop_
_geom_bond_atom_site_label_1
_geom_bond_atom_site_label_2
_geom_bond_distance
_geom_bond_site_symmetry_2
Ca0 O14 2.275157 1_445
Ca0 O7 2.323381 1_545
Ca0 O12 2.377584 1_445
Ca0 O0 2.416321 1_555
Ca0 O3 2.554279 1_555
Ca0 O10 2.814323 1_455
Ca1 O15 2.275157 1_455
Ca1 O6 2.323381 1_555
Ca1 O13 2.377584 1_455
Ca1 O1 2.416321 1_555
Ca1 O2 2.554279 1_556
Ca1 O11 2.814323 1_455
Ca2 O9 2.275157 1_555
Ca2 O0 2.323381 1_555
Ca2 O10 2.377584 1_555
Ca2 O7 2.416321 1_555
Ca2 O5 2.554279 1_555
Ca2 O12 2.814323 1_555
Ca3 O8 2.275157 1_565
Ca3 O1 2.323381 1_565
Ca3 O11 2.377584 1_565
Ca3 O6 2.416321 1_555
Ca3 O4 2.554279 1_556
Ca3 O13 2.814323 1_555
Ca4 O7 2.275157 1_545
Ca4 O14 2.323381 1_545
Ca4 O4 2.377584 1_545
Ca4 O9 2.416321 1_555
Ca4 O11 2.554279 1_554
Ca4 O2 2.814323 1_555
Ca5 O6 2.275157 1_555
Ca5 O15 2.323381 1_555
Ca5 O5 2.377584 1_555
Ca5 O8 2.416321 1_555
Ca5 O10 2.554279 1_555
Ca5 O3 2.814323 1_555
Ca6 O0 2.275157 1_655
Ca6 O9 2.323381 1_555
Ca6 O2 2.377584 1_655
Ca6 O14 2.416321 1_555
Ca6 O13 2.554279 1_554
Ca6 O4 2.814323 1_655
Ca7 O1 2.275157 1_665
Ca7 O8 2.323381 1_565
Ca7 O3 2.377584 1_665
Ca7 O15 2.416321 1_555
Ca7 O12 2.554279 1_555
Ca7 O5 2.814323 1_655
Hf0 O1 2.086622 1_554
Hf0 O14 2.086622 1_445
Hf0 O4 2.104497 1_545
Hf0 O11 2.104497 1_454
Hf0 O2 2.107229 1_555
Hf0 O13 2.107229 1_444
Hf1 O15 2.086622 1_455
Hf1 O0 2.086622 1_555
Hf1 O10 2.104497 1_455
Hf1 O5 2.104497 1_555
Hf1 O3 2.107229 1_555
Hf1 O12 2.107229 1_455
Hf2 O9 2.086622 1_555
Hf2 O6 2.086622 1_554
Hf2 O2 2.104497 1_555
Hf2 O13 2.104497 1_554
Hf2 O4 2.107229 1_555
Hf2 O11 2.107229 1_554
Hf3 O8 2.086622 1_555
Hf3 O7 2.086622 1_545
Hf3 O3 2.104497 1_555
Hf3 O12 2.104497 1_545
Hf3 O10 2.107229 1_555
Hf3 O5 2.107229 1_545
