# generated using pymatgen
data_Li13Ni15O28
_symmetry_space_group_name_H-M   'P 1'
_cell_length_a   8.27517646
_cell_length_b   8.64331033
_cell_length_c   7.67450975
_cell_angle_alpha   104.38228632
_cell_angle_beta   74.93982891
_cell_angle_gamma   75.78638329
_symmetry_Int_Tables_number   1
_chemical_formula_structural   Li13Ni15O28
_chemical_formula_sum   'Li13 Ni15 O28'
_cell_volume   484.42065484
_cell_formula_units_Z   1
loop_
 _symmetry_equiv_pos_site_id
 _symmetry_equiv_pos_as_xyz
  1  'x, y, z'
loop_
 _atom_site_type_symbol
 _atom_site_label
 _atom_site_symmetry_multiplicity
 _atom_site_fract_x
 _atom_site_fract_y
 _atom_site_fract_z
 _atom_site_occupancy
  Li  Li0  1  0.92759000  0.42865800  0.85610800  1
  Li  Li1  1  0.78756000  0.28446200  0.56931400  1
  Li  Li2  1  0.64288900  0.64290900  0.78562400  1
  Li  Li3  1  0.21355900  0.21598700  0.92916300  1
  Li  Li4  1  0.07208300  0.06989900  0.64249300  1
  Li  Li5  1  0.49805600  0.00124400  0.00227300  1
  Li  Li6  1  0.49932100  0.50121400  0.50437900  1
  Li  Li7  1  0.93178600  0.92910300  0.35651200  1
  Li  Li8  1  0.35826400  0.85700400  0.71549700  1
  Li  Li9  1  0.35385700  0.35628700  0.21461100  1
  Li  Li10  1  0.78647200  0.78453700  0.06719300  1
  Li  Li11  1  0.21038800  0.71607900  0.43064700  1
  Li  Li12  1  0.07530500  0.56969700  0.14069300  1
  Ni  Ni0  1  0.71270300  0.21413900  0.93041600  1
  Ni  Ni1  1  0.57298000  0.07176800  0.64087700  1
  Ni  Ni2  1  0.85991800  0.35564600  0.21193800  1
  Ni  Ni3  1  0.64285600  0.14289400  0.28570300  1
  Ni  Ni4  1  0.85683700  0.85480400  0.71586500  1
  Ni  Ni5  1  0.42875700  0.43104500  0.85580500  1
  Ni  Ni6  1  0.28489900  0.28559000  0.57356700  1
  Ni  Ni7  1  0.71635900  0.71251200  0.42607800  1
  Ni  Ni8  1  0.14284600  0.14289100  0.28574900  1
  Ni  Ni9  1  0.56936300  0.57310600  0.14526100  1
  Ni  Ni10  1  0.14288300  0.64274900  0.78566400  1
  Ni  Ni11  1  0.00106700  0.00001900  0.99772600  1
  Ni  Ni12  1  0.42582800  0.92988800  0.35944600  1
  Ni  Ni13  1  0.99786900  0.49816900  0.49867400  1
  Ni  Ni14  1  0.28785300  0.78763700  0.07280300  1
  O  O0  1  0.74807700  0.01142300  0.99747400  1
  O  O1  1  0.95436200  0.22514200  0.94751900  1
  O  O2  1  0.81771500  0.06748600  0.66811100  1
  O  O3  1  0.89318900  0.14986000  0.27644700  1
  O  O4  1  0.46722000  0.21907200  0.90433900  1
  O  O5  1  0.88914800  0.65199700  0.78020300  1
  O  O6  1  0.66036900  0.42530200  0.87251900  1
  O  O7  1  0.33144000  0.06060000  0.62375000  1
  O  O8  1  0.95069600  0.69758200  0.42812100  1
  O  O9  1  0.76889100  0.48814200  0.47619300  1
  O  O10  1  0.53699300  0.27538900  0.57380800  1
  O  O11  1  0.19370800  0.43984500  0.85182200  1
  O  O12  1  0.39670100  0.63368300  0.79162400  1
  O  O13  1  0.39255000  0.13576700  0.29494800  1
  O  O14  1  0.61053900  0.34959300  0.19670300  1
  O  O15  1  0.80250500  0.56584600  0.15287100  1
  O  O16  1  0.62591500  0.85929400  0.69853500  1
  O  O17  1  0.03999700  0.29377900  0.55589300  1
  O  O18  1  0.67542600  0.93572200  0.37371400  1
  O  O19  1  0.48321900  0.71997200  0.41902500  1
  O  O20  1  0.22822800  0.51018100  0.51969400  1
  O  O21  1  0.33480100  0.58840200  0.14327800  1
  O  O22  1  0.11022500  0.34297200  0.21879700  1
  O  O23  1  0.09190000  0.84570800  0.71955800  1
  O  O24  1  0.51696200  0.79736400  0.09516800  1
  O  O25  1  0.17532000  0.94275400  0.35268800  1
  O  O26  1  0.05754100  0.77536800  0.05172600  1
  O  O27  1  0.24621300  0.99181600  0.01539500  1
loop_
_geom_bond_atom_site_label_1
_geom_bond_atom_site_label_2
_geom_bond_distance
_geom_bond_site_symmetry_2
Li0 O1 2.034191 1_555
Li0 O15 2.120163 1_556
Li0 O5 2.126104 1_555
Li0 O17 2.133579 1_655
Li0 O6 2.189781 1_555
Li0 O11 2.220023 1_655
Li1 O9 2.045162 1_555
Li1 O3 2.085653 1_555
Li1 O10 2.085837 1_555
Li1 O17 2.087048 1_655
Li1 O6 2.166847 1_555
Li1 O2 2.174664 1_555
Li2 O12 2.047368 1_555
Li2 O5 2.048622 1_555
Li2 O16 2.122539 1_555
Li2 O6 2.131398 1_555
Li2 O9 2.228491 1_555
Li2 O24 2.228560 1_556
Li3 O22 2.053309 1_556
Li3 O4 2.065279 1_555
Li3 O1 2.093036 1_455
Li3 O11 2.141995 1_555
Li3 O27 2.176699 1_546
Li3 O7 2.203135 1_555
Li4 O25 2.054637 1_545
Li4 O2 2.068429 1_455
Li4 O7 2.093453 1_555
Li4 O23 2.143657 1_545
Li4 O17 2.175999 1_555
Li4 O1 2.200450 1_455
Li5 O24 2.045670 1_545
Li5 O27 2.082891 1_545
Li5 O0 2.083537 1_554
Li5 O13 2.084300 1_555
Li5 O16 2.172231 1_544
Li5 O4 2.177497 1_554
Li6 O12 2.046352 1_555
Li6 O10 2.120162 1_555
Li6 O19 2.135152 1_555
Li6 O9 2.156173 1_555
Li6 O20 2.196697 1_555
Li6 O14 2.209330 1_555
Li7 O25 2.040568 1_655
Li7 O18 2.076596 1_555
Li7 O3 2.122608 1_565
Li7 O8 2.183617 1_555
Li7 O26 2.198146 1_655
Li7 O2 2.211758 1_565
Li8 O7 2.036341 1_565
Li8 O19 2.118047 1_555
Li8 O12 2.126876 1_555
Li8 O27 2.131397 1_556
Li8 O16 2.189958 1_555
Li8 O23 2.222732 1_555
Li9 O22 2.039865 1_555
Li9 O14 2.077976 1_555
Li9 O13 2.121853 1_555
Li9 O21 2.187394 1_555
Li9 O20 2.200207 1_555
Li9 O4 2.201482 1_554
Li10 O5 2.044843 1_554
Li10 O0 2.129922 1_564
Li10 O15 2.135998 1_555
Li10 O24 2.156454 1_555
Li10 O26 2.195842 1_655
Li10 O18 2.201283 1_555
Li11 O20 2.045368 1_555
Li11 O21 2.048098 1_555
Li11 O23 2.056587 1_555
Li11 O25 2.161960 1_555
Li11 O8 2.198398 1_455
Li11 O19 2.245119 1_555
Li12 O26 2.043218 1_555
Li12 O8 2.048880 1_455
Li12 O11 2.056601 1_554
Li12 O22 2.162985 1_555
Li12 O21 2.197450 1_555
Li12 O15 2.243838 1_455
Ni0 O14 1.920762 1_556
Ni0 O0 1.922211 1_555
Ni0 O2 1.922672 1_555
Ni0 O6 1.957258 1_555
Ni0 O1 2.061299 1_555
Ni0 O4 2.083624 1_555
Ni1 O18 1.927375 1_545
Ni1 O10 1.929608 1_555
Ni1 O4 1.931207 1_555
Ni1 O16 1.967161 1_545
Ni1 O7 2.060756 1_555
Ni1 O2 2.081729 1_555
Ni2 O1 1.899193 1_554
Ni2 O9 1.902770 1_555
Ni2 O3 1.937106 1_555
Ni2 O15 1.956844 1_555
Ni2 O22 2.062352 1_655
Ni2 O14 2.109609 1_555
Ni3 O18 2.047863 1_545
Ni3 O14 2.048504 1_555
Ni3 O0 2.051083 1_554
Ni3 O10 2.051969 1_555
Ni3 O3 2.070482 1_555
Ni3 O13 2.070671 1_555
Ni4 O5 1.912186 1_555
Ni4 O2 1.929371 1_565
Ni4 O23 1.935303 1_655
Ni4 O16 1.941399 1_555
Ni4 O0 2.061761 1_565
Ni4 O8 2.103820 1_555
Ni5 O12 1.910214 1_555
Ni5 O4 1.926413 1_555
Ni5 O11 1.936343 1_555
Ni5 O6 1.943345 1_555
Ni5 O10 2.061664 1_555
Ni5 O21 2.102466 1_556
Ni6 O13 2.027495 1_555
Ni6 O7 2.039534 1_555
Ni6 O11 2.039947 1_555
Ni6 O17 2.051273 1_555
Ni6 O20 2.052213 1_555
Ni6 O10 2.066747 1_555
Ni7 O8 1.916047 1_555
Ni7 O19 1.929793 1_555
Ni7 O16 1.986072 1_555
Ni7 O15 1.992614 1_555
Ni7 O18 2.033055 1_555
Ni7 O9 2.034995 1_555
Ni8 O22 1.900485 1_555
Ni8 O25 1.900902 1_545
Ni8 O17 1.979451 1_555
Ni8 O27 1.981155 1_545
Ni8 O13 2.072207 1_555
Ni8 O3 2.072333 1_455
Ni9 O21 1.917207 1_555
Ni9 O15 1.931434 1_555
Ni9 O6 1.990094 1_554
Ni9 O19 1.996537 1_555
Ni9 O14 2.032169 1_555
Ni9 O24 2.033966 1_555
Ni10 O20 1.915652 1_555
Ni10 O26 1.916340 1_556
Ni10 O11 1.923920 1_555
Ni10 O23 1.924224 1_555
Ni10 O5 2.093291 1_455
Ni10 O12 2.095411 1_555
Ni11 O3 2.028165 1_456
Ni11 O23 2.039754 1_545
Ni11 O1 2.040724 1_455
Ni11 O26 2.053105 1_546
Ni11 O27 2.053250 1_546
Ni11 O0 2.072071 1_455
Ni12 O7 1.898891 1_565
Ni12 O24 1.902946 1_555
Ni12 O13 1.937822 1_565
Ni12 O19 1.956624 1_555
Ni12 O25 2.063470 1_555
Ni12 O18 2.108702 1_555
Ni13 O17 1.896778 1_655
Ni13 O8 1.912949 1_555
Ni13 O9 1.967428 1_555
Ni13 O20 1.979725 1_655
Ni13 O22 2.048362 1_655
Ni13 O5 2.054439 1_555
Ni14 O27 1.895739 1_555
Ni14 O21 1.911092 1_555
Ni14 O24 1.967548 1_555
Ni14 O26 1.980074 1_555
Ni14 O25 2.048245 1_555
Ni14 O12 2.052663 1_554
