# generated using pymatgen
data_Co3(OF2)2
_symmetry_space_group_name_H-M   'P 1'
_cell_length_a   4.71694800
_cell_length_b   5.63238879
_cell_length_c   7.69168008
_cell_angle_alpha   85.72614838
_cell_angle_beta   86.68934561
_cell_angle_gamma   86.47207582
_symmetry_Int_Tables_number   1
_chemical_formula_structural   Co3(OF2)2
_chemical_formula_sum   'Co6 O4 F8'
_cell_volume   203.10535551
_cell_formula_units_Z   2
loop_
 _symmetry_equiv_pos_site_id
 _symmetry_equiv_pos_as_xyz
  1  'x, y, z'
loop_
 _atom_site_type_symbol
 _atom_site_label
 _atom_site_symmetry_multiplicity
 _atom_site_fract_x
 _atom_site_fract_y
 _atom_site_fract_z
 _atom_site_occupancy
  Co  Co0  1  0.51319200  0.15275000  0.83506000  1
  Co  Co1  1  0.48680800  0.84725000  0.16494000  1
  Co  Co2  1  0.50000000  0.50000000  0.50000000  1
  Co  Co3  1  0.00000000  0.00000000  0.50000000  1
  Co  Co4  1  0.01703400  0.32159100  0.15832600  1
  Co  Co5  1  0.98296600  0.67840900  0.84167400  1
  O  O0  1  0.69908800  0.19024700  0.60893400  1
  O  O1  1  0.67908600  0.87803500  0.94116700  1
  O  O2  1  0.30091200  0.80975300  0.39106600  1
  O  O3  1  0.32091400  0.12196500  0.05883300  1
  F  F0  1  0.80617100  0.03844300  0.26809200  1
  F  F1  1  0.80230700  0.69737900  0.60038900  1
  F  F2  1  0.80155000  0.37231700  0.93386500  1
  F  F3  1  0.69836700  0.54569000  0.25690100  1
  F  F4  1  0.30163300  0.45431000  0.74309900  1
  F  F5  1  0.19845000  0.62768300  0.06613500  1
  F  F6  1  0.19382900  0.96155700  0.73190800  1
  F  F7  1  0.19769300  0.30262100  0.39961100  1
loop_
_geom_bond_atom_site_label_1
_geom_bond_atom_site_label_2
_geom_bond_distance
_geom_bond_site_symmetry_2
Co0 O1 1.846372 1_545
Co0 O3 1.899926 1_556
Co0 O0 1.905389 1_555
Co0 F4 2.018645 1_555
Co0 F2 2.103214 1_555
Co0 F6 2.126851 1_545
Co1 O3 1.846372 1_565
Co1 O1 1.899926 1_554
Co1 O2 1.905389 1_555
Co1 F3 2.018645 1_555
Co1 F5 2.103214 1_555
Co1 F0 2.126851 1_565
Co2 F4 2.047895 1_555
Co2 F3 2.047895 1_555
Co2 O0 2.073428 1_555
Co2 O2 2.073428 1_555
Co2 F1 2.077436 1_555
Co2 F7 2.077436 1_555
Co3 O0 1.916819 1_455
Co3 O2 1.916819 1_545
Co3 F6 2.042311 1_545
Co3 F0 2.042311 1_455
Co3 F7 2.070588 1_555
Co3 F1 2.070588 1_445
Co4 O3 1.925525 1_555
Co4 F5 2.033875 1_555
Co4 F0 2.035444 1_455
Co4 F2 2.046684 1_454
Co4 F3 2.050606 1_455
Co4 F7 2.079377 1_555
Co5 O1 1.925525 1_555
Co5 F2 2.033875 1_555
Co5 F6 2.035444 1_655
Co5 F5 2.046684 1_656
Co5 F4 2.050606 1_655
Co5 F1 2.079377 1_555
