# generated using pymatgen
data_Li13Mn2O12
_symmetry_space_group_name_H-M   'P 1'
_cell_length_a   5.64186247
_cell_length_b   5.68946293
_cell_length_c   9.68090769
_cell_angle_alpha   107.44182374
_cell_angle_beta   89.16678809
_cell_angle_gamma   60.40300249
_symmetry_Int_Tables_number   1
_chemical_formula_structural   Li13Mn2O12
_chemical_formula_sum   'Li13 Mn2 O12'
_cell_volume   252.78000945
_cell_formula_units_Z   1
loop_
 _symmetry_equiv_pos_site_id
 _symmetry_equiv_pos_as_xyz
  1  'x, y, z'
loop_
 _atom_site_type_symbol
 _atom_site_label
 _atom_site_symmetry_multiplicity
 _atom_site_fract_x
 _atom_site_fract_y
 _atom_site_fract_z
 _atom_site_occupancy
  Li  Li0  1  0.00800400  0.35337000  0.87334200  1
  Li  Li1  1  0.99920400  0.69066200  0.74501200  1
  Li  Li2  1  0.01330000  0.73978300  0.46386300  1
  Li  Li3  1  0.48847200  0.97503000  0.11752300  1
  Li  Li4  1  0.45953300  0.37538500  0.03914900  1
  Li  Li5  1  0.53594900  0.32441800  0.75300500  1
  Li  Li6  1  0.55609500  0.30322300  0.36507900  1
  Li  Li7  1  0.45216100  0.66381500  0.62255200  1
  Li  Li8  1  0.46037600  0.69487700  0.26112100  1
  Li  Li9  1  0.50908500  0.92759200  0.86134300  1
  Li  Li10  1  0.97903200  0.26816700  0.54125300  1
  Li  Li11  1  0.00015800  0.32452200  0.25628500  1
  Li  Li12  1  0.97631600  0.67441100  0.13562600  1
  Mn  Mn0  1  0.01154000  0.99879900  0.00047000  1
  Mn  Mn1  1  0.49533700  0.00330700  0.50478100  1
  O  O0  1  0.18766700  0.23999400  0.04105300  1
  O  O1  1  0.23353800  0.25167200  0.68590100  1
  O  O2  1  0.25095000  0.23985000  0.39561200  1
  O  O3  1  0.25045900  0.79161400  0.11394000  1
  O  O4  1  0.28532000  0.75349400  0.82010100  1
  O  O5  1  0.32593300  0.77492500  0.46023600  1
  O  O6  1  0.66649400  0.23029600  0.54414300  1
  O  O7  1  0.71305600  0.25749000  0.17471200  1
  O  O8  1  0.77297200  0.19810100  0.88350800  1
  O  O9  1  0.73846500  0.76327600  0.61064600  1
  O  O10  1  0.75919000  0.76305900  0.31825300  1
  O  O11  1  0.83336200  0.77167600  0.96053400  1
loop_
_geom_bond_atom_site_label_1
_geom_bond_atom_site_label_2
_geom_bond_distance
_geom_bond_site_symmetry_2
Li0 O8 1.937479 1_455
Li0 O11 1.950029 1_455
Li0 O1 1.955204 1_555
Li0 O0 2.027173 1_556
Li1 O4 1.926215 1_655
Li1 O9 1.950437 1_555
Li1 O1 2.042770 1_655
Li1 O11 2.093294 1_555
Li1 O8 2.398258 1_565
Li2 O5 1.871650 1_555
Li2 O10 2.010751 1_455
Li2 O9 2.014627 1_455
Li2 O2 2.324888 1_555
Li2 O6 2.341468 1_465
Li3 O0 1.969558 1_565
Li3 O11 2.017599 1_554
Li3 O3 2.063307 1_555
Li3 O7 2.448062 1_565
Li4 O8 1.914252 1_554
Li4 O3 1.926562 1_555
Li4 O7 1.962834 1_555
Li4 O0 2.030054 1_555
Li5 O8 1.882818 1_555
Li5 O6 1.958469 1_555
Li5 O4 1.998451 1_555
Li5 O1 2.018141 1_555
Li6 O7 1.919830 1_555
Li6 O6 1.942276 1_555
Li6 O2 1.960479 1_555
Li6 O5 2.185863 1_555
Li7 O5 1.886616 1_555
Li7 O4 1.921489 1_555
Li7 O9 1.969580 1_555
Li7 O6 2.006688 1_555
Li8 O5 1.894312 1_555
Li8 O3 1.900275 1_555
Li8 O10 1.960366 1_555
Li8 O7 2.034164 1_555
Li9 O4 1.935752 1_555
Li9 O11 2.003695 1_555
Li9 O0 2.084478 1_566
Li9 O9 2.406738 1_555
Li10 O6 1.879865 1_555
Li10 O2 1.980957 1_655
Li10 O1 2.008890 1_655
Li10 O9 2.300188 1_555
Li10 O5 2.351906 1_645
Li11 O2 1.955793 1_555
Li11 O7 1.964602 1_455
Li11 O10 2.040036 1_455
Li11 O0 2.127116 1_555
Li11 O3 2.509047 1_545
Li12 O10 1.916497 1_555
Li12 O3 1.993535 1_655
Li12 O11 1.997778 1_554
Li12 O0 2.017278 1_655
Mn0 O3 1.913879 1_555
Mn0 O8 1.919877 1_464
Mn0 O4 1.927149 1_554
Mn0 O11 1.955701 1_454
Mn0 O7 1.956596 1_465
Mn0 O0 2.014944 1_565
Mn1 O1 1.905393 1_555
Mn1 O5 1.921092 1_545
Mn1 O6 1.921731 1_555
Mn1 O10 1.943544 1_545
Mn1 O9 1.956126 1_545
Mn1 O2 1.972637 1_555
