# generated using pymatgen
data_Li3Mn(CO3)3
_symmetry_space_group_name_H-M   'P 1'
_cell_length_a   5.97688917
_cell_length_b   5.97688917
_cell_length_c   10.14902400
_cell_angle_alpha   90.00000000
_cell_angle_beta   90.00000000
_cell_angle_gamma   105.17468317
_symmetry_Int_Tables_number   1
_chemical_formula_structural   Li3Mn(CO3)3
_chemical_formula_sum   'Li6 Mn2 C6 O18'
_cell_volume   349.91415716
_cell_formula_units_Z   2
loop_
 _symmetry_equiv_pos_site_id
 _symmetry_equiv_pos_as_xyz
  1  'x, y, z'
loop_
 _atom_site_type_symbol
 _atom_site_label
 _atom_site_symmetry_multiplicity
 _atom_site_fract_x
 _atom_site_fract_y
 _atom_site_fract_z
 _atom_site_occupancy
  Li  Li0  1  0.09060000  0.09060000  0.00000000  1
  Li  Li1  1  0.35475300  0.39210500  0.25000000  1
  Li  Li2  1  0.19391400  0.75349400  0.25000000  1
  Li  Li3  1  0.09060000  0.09060000  0.50000000  1
  Li  Li4  1  0.75349400  0.19391400  0.75000000  1
  Li  Li5  1  0.39210500  0.35475300  0.75000000  1
  Mn  Mn0  1  0.72677700  0.14909100  0.25000000  1
  Mn  Mn1  1  0.14909100  0.72677700  0.75000000  1
  C  C0  1  0.55013100  0.15714000  0.01617500  1
  C  C1  1  0.74217700  0.72537400  0.25000000  1
  C  C2  1  0.55013100  0.15714000  0.48382500  1
  C  C3  1  0.15714000  0.55013100  0.51617500  1
  C  C4  1  0.72537400  0.74217700  0.75000000  1
  C  C5  1  0.15714000  0.55013100  0.98382500  1
  O  O0  1  0.75635900  0.14187900  0.05850200  1
  O  O1  1  0.39892300  0.15372700  0.10776000  1
  O  O2  1  0.17109500  0.51526500  0.10584600  1
  O  O3  1  0.75857500  0.51721500  0.25000000  1
  O  O4  1  0.92988500  0.90419000  0.25000000  1
  O  O5  1  0.54647500  0.77805800  0.25000000  1
  O  O6  1  0.17109500  0.51526500  0.39415400  1
  O  O7  1  0.39892300  0.15372700  0.39224000  1
  O  O8  1  0.75635900  0.14187900  0.44149800  1
  O  O9  1  0.14187900  0.75635900  0.55850200  1
  O  O10  1  0.15372700  0.39892300  0.60776000  1
  O  O11  1  0.51526500  0.17109500  0.60584600  1
  O  O12  1  0.77805900  0.54647500  0.75000000  1
  O  O13  1  0.51721500  0.75857500  0.75000000  1
  O  O14  1  0.90419000  0.92988500  0.75000000  1
  O  O15  1  0.51526500  0.17109500  0.89415400  1
  O  O16  1  0.15372700  0.39892300  0.89224000  1
  O  O17  1  0.14187900  0.75635900  0.94149800  1
loop_
_geom_bond_atom_site_label_1
_geom_bond_atom_site_label_2
_geom_bond_distance
_geom_bond_site_symmetry_2
Li0 O1 2.090550 1_555
Li0 O16 2.090550 1_554
Li0 O17 2.181260 1_544
Li0 O0 2.181260 1_455
Li1 O2 2.076121 1_555
Li1 O6 2.076121 1_555
Li1 O7 2.092970 1_555
Li1 O1 2.092970 1_555
Li1 O5 2.291406 1_555
Li1 O3 2.332328 1_555
Li2 O4 2.011387 1_455
Li2 O2 2.021081 1_555
Li2 O6 2.021081 1_555
Li2 O5 2.073634 1_555
Li3 O10 2.090550 1_555
Li3 O7 2.090550 1_555
Li3 O8 2.181260 1_455
Li3 O9 2.181260 1_545
Li4 O14 2.011387 1_545
Li4 O11 2.021081 1_555
Li4 O15 2.021081 1_555
Li4 O12 2.073633 1_555
Li5 O15 2.076121 1_555
Li5 O11 2.076121 1_555
Li5 O16 2.092970 1_555
Li5 O10 2.092970 1_555
Li5 O12 2.291411 1_555
Li5 O13 2.332328 1_555
Mn0 O0 1.953041 1_555
Mn0 O8 1.953041 1_555
Mn0 O4 2.132252 1_545
Mn0 O3 2.158296 1_555
Mn0 O5 2.197281 1_545
Mn0 O1 2.439875 1_555
Mn0 O7 2.439875 1_555
Mn1 O17 1.953041 1_555
Mn1 O9 1.953041 1_555
Mn1 O14 2.132252 1_455
Mn1 O13 2.158296 1_555
Mn1 O12 2.197276 1_455
Mn1 O16 2.439875 1_555
Mn1 O10 2.439875 1_555
C0 O15 1.262182 1_554
C0 O1 1.292866 1_555
C0 O0 1.330798 1_555
C1 O3 1.273317 1_555
C1 O5 1.288468 1_555
C1 O4 1.331616 1_555
C2 O11 1.262182 1_555
C2 O7 1.292866 1_555
C2 O8 1.330798 1_555
C3 O6 1.262182 1_555
C3 O10 1.292866 1_555
C3 O9 1.330798 1_555
C4 O13 1.273317 1_555
C4 O12 1.288471 1_555
C4 O14 1.331616 1_555
C5 O2 1.262182 1_556
C5 O16 1.292866 1_555
C5 O17 1.330798 1_555
