# generated using pymatgen
data_Li32Ti3Cr13O48
_symmetry_space_group_name_H-M   'P 1'
_cell_length_a   5.05917100
_cell_length_b   8.72229305
_cell_length_c   19.52519587
_cell_angle_alpha   98.10298407
_cell_angle_beta   95.08605748
_cell_angle_gamma   89.73535164
_symmetry_Int_Tables_number   1
_chemical_formula_structural   Li32Ti3Cr13O48
_chemical_formula_sum   'Li32 Ti3 Cr13 O48'
_cell_volume   849.61191182
_cell_formula_units_Z   1
loop_
 _symmetry_equiv_pos_site_id
 _symmetry_equiv_pos_as_xyz
  1  'x, y, z'
loop_
 _atom_site_type_symbol
 _atom_site_label
 _atom_site_symmetry_multiplicity
 _atom_site_fract_x
 _atom_site_fract_y
 _atom_site_fract_z
 _atom_site_occupancy
  Li  Li0  1  0.99372500  0.16935400  0.24952800  1
  Li  Li1  1  0.87700200  0.37507200  0.37439300  1
  Li  Li2  1  0.74844400  0.25112400  0.00075600  1
  Li  Li3  1  0.74336500  0.92058600  0.00027500  1
  Li  Li4  1  0.99350000  0.17022200  0.74997900  1
  Li  Li5  1  0.75735100  0.57894100  0.50057200  1
  Li  Li6  1  0.87654200  0.37492600  0.87461300  1
  Li  Li7  1  0.74351400  0.25024600  0.50074800  1
  Li  Li8  1  0.74492500  0.92139400  0.50062300  1
  Li  Li9  1  0.62460000  0.12652700  0.12500400  1
  Li  Li10  1  0.75556900  0.58008300  0.00039900  1
  Li  Li11  1  0.50633100  0.33098100  0.25029100  1
  Li  Li12  1  0.62444400  0.12555600  0.62501900  1
  Li  Li13  1  0.49511700  0.00147600  0.25034300  1
  Li  Li14  1  0.49499100  0.66961600  0.24944800  1
  Li  Li15  1  0.51022700  0.33370700  0.75088600  1
  Li  Li16  1  0.37575700  0.87575700  0.37506300  1
  Li  Li17  1  0.49984600  0.00008400  0.75008200  1
  Li  Li18  1  0.25604900  0.74828100  0.99961900  1
  Li  Li19  1  0.48965400  0.66631800  0.74939700  1
  Li  Li20  1  0.24216500  0.42110100  0.00027000  1
  Li  Li21  1  0.37566600  0.87440400  0.87510700  1
  Li  Li22  1  0.26221000  0.08082300  0.49954300  1
  Li  Li23  1  0.24836600  0.75069800  0.49929100  1
  Li  Li24  1  0.12470200  0.62347100  0.12489700  1
  Li  Li25  1  0.24213700  0.41790900  0.49951900  1
  Li  Li26  1  0.00749800  0.83022700  0.25014900  1
  Li  Li27  1  0.25469700  0.07971600  0.99995400  1
  Li  Li28  1  0.12360000  0.62515200  0.62536600  1
  Li  Li29  1  0.00159300  0.49844000  0.24957200  1
  Li  Li30  1  0.00675500  0.82988200  0.75018600  1
  Li  Li31  1  0.00037500  0.49998700  0.75012100  1
  Ti  Ti0  1  0.87784300  0.03937700  0.37647500  1
  Ti  Ti1  1  0.87406600  0.71226900  0.87659900  1
  Ti  Ti2  1  0.12608400  0.28781500  0.62356700  1
  Cr  Cr0  1  0.87145100  0.70278000  0.37440900  1
  Cr  Cr1  1  0.87368000  0.04720000  0.87518000  1
  Cr  Cr2  1  0.62884400  0.79739900  0.12581900  1
  Cr  Cr3  1  0.62005000  0.46103700  0.12487200  1
  Cr  Cr4  1  0.62940600  0.79736400  0.62611600  1
  Cr  Cr5  1  0.62030800  0.46110600  0.62504300  1
  Cr  Cr6  1  0.37187700  0.54728600  0.37399000  1
  Cr  Cr7  1  0.37791300  0.21150500  0.37485800  1
  Cr  Cr8  1  0.37977800  0.53886900  0.87512800  1
  Cr  Cr9  1  0.37057900  0.20264700  0.87410000  1
  Cr  Cr10  1  0.12543300  0.95239500  0.12487900  1
  Cr  Cr11  1  0.12618700  0.28823700  0.12449500  1
  Cr  Cr12  1  0.12619000  0.95279500  0.62492400  1
  O  O0  1  0.96516500  0.10470700  0.06936800  1
  O  O1  1  0.93505100  0.78907800  0.06884400  1
  O  O2  1  0.92175700  0.42769200  0.06759900  1
  O  O3  1  0.96394800  0.10313200  0.56835600  1
  O  O4  1  0.81597200  0.96221200  0.18149700  1
  O  O5  1  0.82809600  0.32387700  0.18178600  1
  O  O6  1  0.93588500  0.78777700  0.56900600  1
  O  O7  1  0.92372900  0.42926300  0.56755100  1
  O  O8  1  0.78573500  0.64636600  0.18086800  1
  O  O9  1  0.71459600  0.85382100  0.31859700  1
  O  O10  1  0.81624500  0.96216600  0.68127300  1
  O  O11  1  0.82082400  0.32452100  0.68233000  1
  O  O12  1  0.68485600  0.53792400  0.31879200  1
  O  O13  1  0.66910300  0.17869000  0.31721300  1
  O  O14  1  0.78697300  0.64757100  0.68141000  1
  O  O15  1  0.71439500  0.85967100  0.81870500  1
  O  O16  1  0.46702100  0.60707600  0.06967400  1
  O  O17  1  0.56587300  0.70926500  0.43140500  1
  O  O18  1  0.57581400  0.07092700  0.43343300  1
  O  O19  1  0.67093900  0.53335600  0.81886000  1
  O  O20  1  0.68317200  0.17509200  0.81766700  1
  O  O21  1  0.43353900  0.92358300  0.06776700  1
  O  O22  1  0.41855600  0.28568400  0.06860500  1
  O  O23  1  0.53261300  0.39142700  0.42958200  1
  O  O24  1  0.46714500  0.60562300  0.56976100  1
  O  O25  1  0.57470600  0.71678200  0.93264200  1
  O  O26  1  0.56679100  0.07772600  0.93265200  1
  O  O27  1  0.31771400  0.82552500  0.18267700  1
  O  O28  1  0.33075700  0.46383900  0.18084900  1
  O  O29  1  0.43324800  0.92226500  0.56758900  1
  O  O30  1  0.42585100  0.28342400  0.56765300  1
  O  O31  1  0.53230500  0.39422400  0.93015900  1
  O  O32  1  0.28288900  0.14159000  0.18033800  1
  O  O33  1  0.21287600  0.36179200  0.31858200  1
  O  O34  1  0.31644300  0.82490600  0.68237900  1
  O  O35  1  0.32915000  0.46669300  0.68122800  1
  O  O36  1  0.18216000  0.67506200  0.31719000  1
  O  O37  1  0.18059900  0.03705900  0.31855100  1
  O  O38  1  0.28569400  0.14016400  0.68135500  1
  O  O39  1  0.21302200  0.35250000  0.81857800  1
  O  O40  1  0.06582900  0.57506900  0.43220700  1
  O  O41  1  0.07537400  0.21647400  0.43085100  1
  O  O42  1  0.17952400  0.67553100  0.81777600  1
  O  O43  1  0.18362700  0.03775500  0.81873700  1
  O  O44  1  0.03752300  0.88961500  0.43152500  1
  O  O45  1  0.07607700  0.57061300  0.93244000  1
  O  O46  1  0.06362400  0.21195000  0.93092900  1
  O  O47  1  0.03680800  0.89680400  0.93170300  1
loop_
_geom_bond_atom_site_label_1
_geom_bond_atom_site_label_2
_geom_bond_distance
_geom_bond_site_symmetry_2
Li0 O37 2.060103 1_655
Li0 O32 2.068522 1_655
Li0 O5 2.136301 1_555
Li0 O13 2.191716 1_555
Li0 O4 2.228038 1_545
Li0 O33 2.231296 1_655
Li1 O41 2.087324 1_655
Li1 O12 2.091902 1_555
Li1 O33 2.092666 1_655
Li1 O40 2.121082 1_655
Li1 O23 2.122372 1_555
Li1 O13 2.134502 1_555
Li2 O2 2.021620 1_555
Li2 O26 2.032107 1_554
Li2 O46 2.183405 1_654
Li2 O0 2.199262 1_555
Li2 O31 2.204272 1_554
Li2 O22 2.214969 1_555
Li3 O1 2.059387 1_555
Li3 O47 2.076268 1_654
Li3 O21 2.133156 1_555
Li3 O26 2.170179 1_564
Li3 O25 2.187324 1_554
Li3 O0 2.189908 1_565
Li4 O43 2.064123 1_655
Li4 O38 2.073135 1_655
Li4 O20 2.136551 1_555
Li4 O11 2.145883 1_555
Li4 O39 2.169658 1_655
Li4 O10 2.238857 1_545
Li5 O17 2.060350 1_555
Li5 O24 2.072359 1_555
Li5 O7 2.097429 1_555
Li5 O40 2.138857 1_655
Li5 O23 2.233314 1_555
Li5 O6 2.243719 1_555
Li6 O46 2.090292 1_655
Li6 O19 2.094420 1_555
Li6 O39 2.097613 1_655
Li6 O45 2.116066 1_655
Li6 O20 2.123199 1_555
Li6 O31 2.125630 1_555
Li7 O18 2.031910 1_555
Li7 O7 2.049102 1_555
Li7 O30 2.152772 1_555
Li7 O23 2.189294 1_555
Li7 O3 2.199104 1_555
Li7 O41 2.248669 1_655
Li8 O6 2.067344 1_555
Li8 O44 2.081641 1_655
Li8 O18 2.104098 1_565
Li8 O29 2.135112 1_555
Li8 O3 2.157550 1_565
Li8 O17 2.272449 1_555
Li9 O22 2.107240 1_555
Li9 O4 2.109889 1_545
Li9 O0 2.110798 1_555
Li9 O32 2.112404 1_555
Li9 O5 2.127936 1_555
Li9 O21 2.140856 1_545
Li10 O25 2.056482 1_554
Li10 O16 2.067168 1_555
Li10 O2 2.116835 1_555
Li10 O45 2.178566 1_654
Li10 O31 2.213647 1_554
Li10 O1 2.246526 1_555
Li11 O28 2.046986 1_555
Li11 O33 2.073790 1_555
Li11 O13 2.106744 1_555
Li11 O5 2.191951 1_555
Li11 O32 2.231524 1_555
Li11 O12 2.232270 1_555
Li12 O30 2.093458 1_555
Li12 O10 2.102033 1_545
Li12 O38 2.110918 1_555
Li12 O3 2.117848 1_555
Li12 O11 2.126580 1_555
Li12 O29 2.144800 1_545
Li13 O13 2.026972 1_555
Li13 O27 2.034023 1_545
Li13 O37 2.157895 1_555
Li13 O32 2.171010 1_555
Li13 O4 2.193442 1_545
Li13 O9 2.208142 1_545
Li14 O8 2.065836 1_555
Li14 O12 2.067105 1_555
Li14 O36 2.146931 1_555
Li14 O27 2.152802 1_555
Li14 O9 2.185798 1_555
Li14 O28 2.201048 1_555
Li15 O35 2.061201 1_555
Li15 O39 2.079330 1_555
Li15 O11 2.146837 1_555
Li15 O19 2.150635 1_555
Li15 O20 2.162141 1_555
Li15 O38 2.254217 1_555
Li16 O37 2.098432 1_565
Li16 O44 2.110241 1_555
Li16 O9 2.112669 1_555
Li16 O18 2.117940 1_565
Li16 O17 2.119910 1_555
Li16 O36 2.135993 1_555
Li17 O20 2.039588 1_555
Li17 O34 2.041877 1_545
Li17 O38 2.158606 1_555
Li17 O15 2.160059 1_545
Li17 O43 2.171520 1_555
Li17 O10 2.174361 1_545
Li18 O21 2.035206 1_556
Li18 O45 2.044329 1_555
Li18 O25 2.157101 1_555
Li18 O16 2.175095 1_556
Li18 O1 2.199799 1_456
Li18 O47 2.208434 1_555
Li19 O19 2.058805 1_555
Li19 O14 2.083755 1_555
Li19 O42 2.142604 1_555
Li19 O35 2.151930 1_555
Li19 O34 2.165484 1_555
Li19 O15 2.251626 1_555
Li20 O22 2.048201 1_555
Li20 O31 2.084753 1_554
Li20 O45 2.107170 1_554
Li20 O2 2.171362 1_455
Li20 O16 2.210386 1_555
Li20 O46 2.253671 1_554
Li21 O25 2.094795 1_555
Li21 O43 2.103582 1_565
Li21 O15 2.111562 1_555
Li21 O47 2.114284 1_555
Li21 O42 2.125617 1_555
Li21 O26 2.145681 1_565
Li22 O41 2.074738 1_555
Li22 O3 2.098357 1_455
Li22 O18 2.126336 1_555
Li22 O29 2.174793 1_545
Li22 O30 2.175441 1_555
Li22 O44 2.227740 1_545
Li23 O29 2.030218 1_555
Li23 O40 2.036691 1_555
Li23 O44 2.132245 1_555
Li23 O17 2.169078 1_555
Li23 O6 2.170116 1_455
Li23 O24 2.219769 1_555
Li24 O28 2.105320 1_555
Li24 O8 2.107758 1_455
Li24 O1 2.109878 1_455
Li24 O16 2.113691 1_555
Li24 O2 2.120332 1_455
Li24 O27 2.142968 1_555
Li25 O30 2.054317 1_555
Li25 O23 2.083606 1_555
Li25 O40 2.165817 1_555
Li25 O7 2.170268 1_455
Li25 O41 2.178404 1_555
Li25 O24 2.228216 1_555
Li26 O4 2.062860 1_455
Li26 O9 2.072466 1_455
Li26 O27 2.133337 1_555
Li26 O36 2.146915 1_555
Li26 O8 2.190070 1_455
Li26 O37 2.221091 1_565
Li27 O46 2.068339 1_555
Li27 O0 2.072629 1_456
Li27 O26 2.140411 1_555
Li27 O47 2.166284 1_545
Li27 O21 2.170465 1_546
Li27 O22 2.202114 1_556
Li28 O6 2.089784 1_455
Li28 O35 2.095696 1_555
Li28 O14 2.098352 1_455
Li28 O7 2.118007 1_455
Li28 O34 2.122044 1_555
Li28 O24 2.123273 1_555
Li29 O5 2.019589 1_455
Li29 O36 2.043689 1_555
Li29 O33 2.136433 1_555
Li29 O12 2.181903 1_455
Li29 O8 2.207269 1_455
Li29 O28 2.223105 1_555
Li30 O10 2.065958 1_455
Li30 O15 2.072290 1_455
Li30 O34 2.135514 1_555
Li30 O42 2.145602 1_555
Li30 O14 2.172072 1_455
Li30 O43 2.235655 1_565
Li31 O42 2.034996 1_555
Li31 O11 2.036680 1_455
Li31 O39 2.194506 1_555
Li31 O14 2.199945 1_455
Li31 O35 2.223183 1_555
Li31 O19 2.223931 1_455
Cr0 O12 1.878463 1_555
Cr0 O40 1.904981 1_655
Cr0 O9 1.947974 1_555
Cr0 O17 1.979436 1_555
Cr0 O44 1.984811 1_655
Cr0 O36 2.002324 1_655
Cr1 O46 1.886690 1_655
Cr1 O20 1.893575 1_555
Cr1 O47 1.963807 1_645
Cr1 O15 1.971531 1_545
Cr1 O43 1.989924 1_655
Cr1 O26 1.990367 1_555
Cr2 O4 1.879941 1_555
Cr2 O21 1.901443 1_555
Cr2 O8 1.938806 1_555
Cr2 O1 1.981021 1_555
Cr2 O16 1.992031 1_555
Cr2 O27 1.999950 1_555
Cr3 O28 1.900789 1_555
Cr3 O16 1.900907 1_555
Cr3 O8 1.965414 1_555
Cr3 O2 1.967694 1_555
Cr3 O22 1.981815 1_555
Cr3 O5 1.982360 1_555
Cr4 O10 1.874897 1_555
Cr4 O29 1.901964 1_555
Cr4 O14 1.934820 1_555
Cr4 O6 1.983335 1_555
Cr4 O34 2.000486 1_555
Cr4 O24 2.003843 1_555
Cr5 O24 1.892266 1_555
Cr5 O35 1.909554 1_555
Cr5 O11 1.965404 1_555
Cr5 O7 1.976700 1_555
Cr5 O14 1.977611 1_555
Cr5 O30 1.988569 1_555
Cr6 O36 1.882318 1_555
Cr6 O17 1.894020 1_555
Cr6 O33 1.949225 1_555
Cr6 O23 1.984146 1_555
Cr6 O12 1.987961 1_555
Cr6 O40 1.994775 1_555
Cr7 O23 1.899317 1_555
Cr7 O13 1.928284 1_555
Cr7 O41 1.955141 1_555
Cr7 O33 1.963693 1_555
Cr7 O37 1.966780 1_555
Cr7 O18 1.998722 1_555
Cr8 O31 1.888880 1_555
Cr8 O19 1.910641 1_555
Cr8 O42 1.966023 1_555
Cr8 O45 1.975656 1_555
Cr8 O39 1.978604 1_555
Cr8 O25 1.992044 1_555
Cr9 O43 1.877397 1_555
Cr9 O26 1.902516 1_555
Cr9 O39 1.937944 1_555
Cr9 O46 1.982014 1_555
Cr9 O31 1.999491 1_555
Cr9 O20 2.000922 1_555
Cr10 O1 1.881599 1_455
Cr10 O27 1.895224 1_555
Cr10 O0 1.958899 1_465
Cr10 O32 1.971241 1_565
Cr10 O4 1.989852 1_455
Cr10 O21 1.990468 1_555
Cr11 O22 1.912657 1_555
Cr11 O32 1.919370 1_555
Cr11 O0 1.937939 1_455
Cr11 O5 1.954235 1_455
Cr11 O2 1.987189 1_455
Cr11 O28 1.991340 1_555
Cr12 O6 1.890531 1_455
Cr12 O34 1.892258 1_555
Cr12 O3 1.962325 1_465
Cr12 O38 1.970535 1_565
Cr12 O10 1.988808 1_455
Cr12 O29 1.989436 1_555
O3 Ti2 1.948256 1_655
O7 Ti2 1.984096 1_655
O9 Ti0 1.977346 1_565
O11 Ti2 2.002508 1_655
O13 Ti0 2.024481 1_555
O15 Ti1 1.954870 1_555
O18 Ti0 1.964307 1_555
O19 Ti1 2.018844 1_555
O25 Ti1 1.942635 1_555
O30 Ti2 1.942826 1_555
O35 Ti2 2.017873 1_555
O37 Ti0 1.981419 1_455
O38 Ti2 1.955050 1_555
O41 Ti0 1.968701 1_455
O42 Ti1 2.004077 1_455
O44 Ti0 1.935559 1_465
O45 Ti1 1.982529 1_455
O47 Ti1 1.947609 1_455
