# generated using pymatgen
data_Li3Cr5O10
_symmetry_space_group_name_H-M   'P 1'
_cell_length_a   5.13014900
_cell_length_b   5.96981432
_cell_length_c   6.64090518
_cell_angle_alpha   103.58930038
_cell_angle_beta   97.60112156
_cell_angle_gamma   106.68063246
_symmetry_Int_Tables_number   1
_chemical_formula_structural   Li3Cr5O10
_chemical_formula_sum   'Li3 Cr5 O10'
_cell_volume   184.96424751
_cell_formula_units_Z   1
loop_
 _symmetry_equiv_pos_site_id
 _symmetry_equiv_pos_as_xyz
  1  'x, y, z'
loop_
 _atom_site_type_symbol
 _atom_site_label
 _atom_site_symmetry_multiplicity
 _atom_site_fract_x
 _atom_site_fract_y
 _atom_site_fract_z
 _atom_site_occupancy
  Li  Li0  1  0.20322000  0.90148800  0.90180100  1
  Li  Li1  1  0.79678000  0.09851200  0.09819900  1
  Li  Li2  1  0.00000000  0.50000000  0.50000000  1
  Cr  Cr0  1  0.39876500  0.79635300  0.30609400  1
  Cr  Cr1  1  0.00000000  0.00000000  0.50000000  1
  Cr  Cr2  1  0.20274100  0.40116300  0.90386400  1
  Cr  Cr3  1  0.60123500  0.20364700  0.69390600  1
  Cr  Cr4  1  0.79725900  0.59883700  0.09613600  1
  O  O0  1  0.29030900  0.87278900  0.58759900  1
  O  O1  1  0.49168200  0.72980000  0.02134800  1
  O  O2  1  0.08881000  0.92344600  0.21139000  1
  O  O3  1  0.27874700  0.31707100  0.61649200  1
  O  O4  1  0.70969100  0.12721100  0.41240100  1
  O  O5  1  0.50831800  0.27020000  0.97865200  1
  O  O6  1  0.91119000  0.07655400  0.78861000  1
  O  O7  1  0.09487400  0.47120800  0.18553200  1
  O  O8  1  0.72125300  0.68292900  0.38350800  1
  O  O9  1  0.90512600  0.52879200  0.81446800  1
loop_
_geom_bond_atom_site_label_1
_geom_bond_atom_site_label_2
_geom_bond_distance
_geom_bond_site_symmetry_2
Li0 O0 2.169189 1_555
Li0 O1 2.193869 1_556
Li0 O2 2.196675 1_556
Li0 O9 2.197956 1_455
Li0 O5 2.199614 1_565
Li0 O6 2.207231 1_465
Li1 O4 2.169189 1_555
Li1 O5 2.193869 1_554
Li1 O6 2.196675 1_554
Li1 O7 2.197956 1_655
Li1 O1 2.199614 1_545
Li1 O2 2.207231 1_645
Li2 O0 2.183791 1_555
Li2 O4 2.183791 1_455
Li2 O7 2.185383 1_555
Li2 O9 2.185383 1_455
Li2 O8 2.199279 1_455
Li2 O3 2.199279 1_555
Cr0 O1 1.988714 1_555
Cr0 O0 2.008156 1_555
Cr0 O7 2.010347 1_555
Cr0 O8 2.010358 1_555
Cr0 O2 2.037628 1_555
Cr0 O4 2.045033 1_565
Cr1 O3 1.921359 1_555
Cr1 O8 1.921359 1_445
Cr1 O0 1.939314 1_545
Cr1 O4 1.939314 1_455
Cr1 O6 2.007199 1_455
Cr1 O2 2.007199 1_545
Cr2 O9 1.976032 1_455
Cr2 O3 1.976136 1_555
Cr2 O6 1.978497 1_455
Cr2 O1 1.990044 1_556
Cr2 O5 1.998890 1_555
Cr2 O7 2.004764 1_556
Cr3 O5 1.988714 1_555
Cr3 O4 2.008156 1_555
Cr3 O9 2.010347 1_555
Cr3 O3 2.010358 1_555
Cr3 O6 2.037628 1_555
Cr3 O0 2.045033 1_545
Cr4 O7 1.976032 1_655
Cr4 O8 1.976136 1_555
Cr4 O2 1.978497 1_655
Cr4 O5 1.990044 1_554
Cr4 O1 1.998890 1_555
Cr4 O9 2.004764 1_554
