# generated using pymatgen
data_Li32Ti5Cr11O48
_symmetry_space_group_name_H-M   'P 1'
_cell_length_a   5.06201127
_cell_length_b   5.06336664
_cell_length_c   38.58455325
_cell_angle_alpha   88.80707589
_cell_angle_beta   91.07226998
_cell_angle_gamma   60.05708826
_symmetry_Int_Tables_number   1
_chemical_formula_structural   Li32Ti5Cr11O48
_chemical_formula_sum   'Li32 Ti5 Cr11 O48'
_cell_volume   856.28191909
_cell_formula_units_Z   1
loop_
 _symmetry_equiv_pos_site_id
 _symmetry_equiv_pos_as_xyz
  1  'x, y, z'
loop_
 _atom_site_type_symbol
 _atom_site_label
 _atom_site_symmetry_multiplicity
 _atom_site_fract_x
 _atom_site_fract_y
 _atom_site_fract_z
 _atom_site_occupancy
  Li  Li0  1  0.08762292  0.08896320  0.25002828  1
  Li  Li1  1  0.99490086  0.49922505  0.99991643  1
  Li  Li2  1  0.06068985  0.43806541  0.18746047  1
  Li  Li3  1  0.12518057  0.37995778  0.37522218  1
  Li  Li4  1  0.18657445  0.31463807  0.56241317  1
  Li  Li5  1  0.24890980  0.24983739  0.74989600  1
  Li  Li6  1  0.31241566  0.18779512  0.93744761  1
  Li  Li7  1  0.03022820  0.79104596  0.12484205  1
  Li  Li8  1  0.37541823  0.12228160  0.12500908  1
  Li  Li9  1  0.16559177  0.65640213  0.49982981  1
  Li  Li10  1  0.27921802  0.53985521  0.87503548  1
  Li  Li11  1  0.43907116  0.05916458  0.31266797  1
  Li  Li12  1  0.49947774  0.99557950  0.49979281  1
  Li  Li13  1  0.41195201  0.40915531  0.25010911  1
  Li  Li14  1  0.53049319  0.29268154  0.62495570  1
  Li  Li15  1  0.21960398  0.95865427  0.62524512  1
  Li  Li16  1  0.34003589  0.84337573  0.99969640  1
  Li  Li17  1  0.66398732  0.15700616  0.99994411  1
  Li  Li18  1  0.78891706  0.02881015  0.37514915  1
  Li  Li19  1  0.46064278  0.71728295  0.37529879  1
  Li  Li20  1  0.58590701  0.59218481  0.74966743  1
  Li  Li21  1  0.56226638  0.93794324  0.68754975  1
  Li  Li22  1  0.72047506  0.46005063  0.12518573  1
  Li  Li23  1  0.83448060  0.34659903  0.49969056  1
  Li  Li24  1  0.62487338  0.87220037  0.87510629  1
  Li  Li25  1  0.96951992  0.21383905  0.87533990  1
  Li  Li26  1  0.68618348  0.81171530  0.06247955  1
  Li  Li27  1  0.75249044  0.75388794  0.25006699  1
  Li  Li28  1  0.81247529  0.68743244  0.43750040  1
  Li  Li29  1  0.87297865  0.62145766  0.62505443  1
  Li  Li30  1  0.93915511  0.56262901  0.81251358  1
  Li  Li31  1  0.91492776  0.90807011  0.75008804  1
  Ti  Ti0  1  0.35713690  0.48467904  0.06232829  1
  Ti  Ti1  1  0.59936644  0.23094288  0.81243857  1
  Ti  Ti2  1  0.40065503  0.76486007  0.18764254  1
  Ti  Ti3  1  0.76740098  0.40119528  0.31249779  1
  Ti  Ti4  1  0.85563300  0.97592200  0.56255585  1
  Cr  Cr0  1  0.01940863  0.14491422  0.06265330  1
  Cr  Cr1  1  0.14105384  0.02795039  0.43728581  1
  Cr  Cr2  1  0.10585701  0.72833817  0.31261451  1
  Cr  Cr3  1  0.22125175  0.60858636  0.68726860  1
  Cr  Cr4  1  0.48366655  0.34694789  0.43755457  1
  Cr  Cr5  1  0.27163201  0.89429191  0.81276639  1
  Cr  Cr6  1  0.72799083  0.10436861  0.18755082  1
  Cr  Cr7  1  0.51913439  0.64493532  0.56223948  1
  Cr  Cr8  1  0.64087663  0.51641879  0.93754531  1
  Cr  Cr9  1  0.90241529  0.26638474  0.68749456  1
  Cr  Cr10  1  0.98298756  0.85873749  0.93754700  1
  O  O0  1  0.09212538  0.04749574  0.34053449  1
  O  O1  1  0.04787142  0.09277589  0.15966160  1
  O  O2  1  0.07588672  0.43438857  0.28391741  1
  O  O3  1  0.18844821  0.29791679  0.65862085  1
  O  O4  1  0.05270718  0.44203545  0.09098729  1
  O  O5  1  0.17529859  0.31232445  0.46605918  1
  O  O6  1  0.30297794  0.20017641  0.84184997  1
  O  O7  1  0.31870925  0.17640602  0.03403429  1
  O  O8  1  0.44968742  0.06198595  0.40878667  1
  O  O9  1  0.06600872  0.78849669  0.21556218  1
  O  O10  1  0.43330210  0.07575709  0.21612432  1
  O  O11  1  0.19545781  0.65852226  0.59097933  1
  O  O12  1  0.33357836  0.53147525  0.96579545  1
  O  O13  1  0.03175645  0.83125247  0.03425963  1
  O  O14  1  0.16186332  0.69641294  0.40985013  1
  O  O15  1  0.28540044  0.56970205  0.78393749  1
  O  O16  1  0.20637173  0.94208199  0.71556634  1
  O  O17  1  0.18696139  0.96043172  0.53431322  1
  O  O18  1  0.29082416  0.84335911  0.90934845  1
  O  O19  1  0.43575934  0.41628388  0.34068123  1
  O  O20  1  0.57157203  0.28846476  0.71498419  1
  O  O21  1  0.41624308  0.43623225  0.15926603  1
  O  O22  1  0.53378735  0.32633948  0.53427330  1
  O  O23  1  0.65662867  0.20944459  0.90923247  1
  O  O24  1  0.34435322  0.79919647  0.09136795  1
  O  O25  1  0.46271395  0.67813489  0.46502958  1
  O  O26  1  0.58381521  0.56539578  0.84058675  1
  O  O27  1  0.43282816  0.71561527  0.28376904  1
  O  O28  1  0.55307767  0.58722169  0.65993931  1
  O  O29  1  0.70740003  0.15490561  0.09056676  1
  O  O30  1  0.80890649  0.04380879  0.46559543  1
  O  O31  1  0.78834123  0.06582033  0.28465400  1
  O  O32  1  0.71610549  0.43096129  0.21632408  1
  O  O33  1  0.83690025  0.30820172  0.59042986  1
  O  O34  1  0.96893841  0.16628349  0.96567537  1
  O  O35  1  0.67540309  0.46901172  0.03380320  1
  O  O36  1  0.81570667  0.33101305  0.40924291  1
  O  O37  1  0.56738074  0.92599365  0.78373509  1
  O  O38  1  0.93539490  0.21155209  0.78470467  1
  O  O39  1  0.55076434  0.94139421  0.59114085  1
  O  O40  1  0.68003632  0.82033877  0.96556850  1
  O  O41  1  0.69642331  0.80041067  0.15846964  1
  O  O42  1  0.82387423  0.67762325  0.53315530  1
  O  O43  1  0.94415984  0.55571898  0.90948172  1
  O  O44  1  0.79953548  0.69622768  0.34190074  1
  O  O45  1  0.93682978  0.57600496  0.71616191  1
  O  O46  1  0.95058216  0.90945906  0.84076591  1
  O  O47  1  0.91817060  0.93268588  0.65911415  1
loop_
_geom_bond_atom_site_label_1
_geom_bond_atom_site_label_2
_geom_bond_distance
_geom_bond_site_symmetry_2
Li0 O9 2.083275 1_545
Li0 O31 2.083328 1_455
Li0 O10 2.179495 1_555
Li0 O2 2.183300 1_555
Li0 O32 2.188679 1_455
Li0 O27 2.199258 1_545
Li1 O40 2.045630 1_555
Li1 O7 2.060701 1_656
Li1 O35 2.160195 1_556
Li1 O34 2.216332 1_555
Li1 O13 2.239131 1_656
Li1 O12 2.248126 1_655
Li2 O1 2.097634 1_555
Li2 O32 2.101861 1_455
Li2 O9 2.109853 1_555
Li2 O41 2.116024 1_455
Li2 O21 2.116578 1_555
Li2 O10 2.128252 1_555
Li3 O44 2.033344 1_455
Li3 O8 2.039876 1_555
Li3 O19 2.153740 1_555
Li3 O36 2.165554 1_455
Li3 O14 2.182656 1_555
Li3 O0 2.240471 1_555
Li4 O11 2.098793 1_555
Li4 O33 2.104869 1_455
Li4 O22 2.108136 1_555
Li4 O17 2.114153 1_545
Li4 O42 2.119128 1_455
Li4 O39 2.134747 1_545
Li5 O45 2.036261 1_455
Li5 O37 2.045873 1_545
Li5 O16 2.153922 1_545
Li5 O38 2.176259 1_455
Li5 O15 2.181871 1_555
Li5 O20 2.216038 1_555
Li6 O34 2.115689 1_455
Li6 O43 2.117566 1_455
Li6 O40 2.118011 1_545
Li6 O23 2.118940 1_555
Li6 O18 2.119801 1_545
Li6 O12 2.120621 1_555
Li7 O24 2.082901 1_555
Li7 O1 2.089072 1_565
Li7 O41 2.132035 1_455
Li7 O29 2.150792 1_465
Li7 O4 2.177870 1_555
Li7 O21 2.260320 1_555
Li8 O41 2.038023 1_545
Li8 O4 2.050376 1_555
Li8 O21 2.173021 1_555
Li8 O24 2.173326 1_545
Li8 O1 2.209316 1_555
Li8 O29 2.229125 1_555
Li9 O25 2.076504 1_555
Li9 O17 2.097124 1_555
Li9 O42 2.135542 1_455
Li9 O22 2.176772 1_555
Li9 O5 2.178757 1_555
Li9 O30 2.262711 1_465
Li10 O18 2.071192 1_555
Li10 O26 2.104624 1_555
Li10 O6 2.122049 1_555
Li10 O43 2.145321 1_455
Li10 O46 2.173681 1_455
Li10 O23 2.193818 1_555
Li11 O27 2.098709 1_545
Li11 O0 2.101331 1_555
Li11 O31 2.103530 1_555
Li11 O44 2.113771 1_545
Li11 O19 2.118976 1_555
Li11 O2 2.137564 1_555
Li12 O42 2.034929 1_555
Li12 O5 2.040845 1_565
Li12 O17 2.158337 1_555
Li12 O30 2.167917 1_565
Li12 O25 2.190058 1_555
Li12 O22 2.231473 1_565
Li13 O32 2.078651 1_555
Li13 O27 2.085241 1_555
Li13 O2 2.117776 1_555
Li13 O10 2.120435 1_555
Li13 O31 2.220554 1_555
Li13 O9 2.231809 1_555
Li14 O28 2.075456 1_555
Li14 O33 2.093132 1_555
Li14 O11 2.169274 1_555
Li14 O3 2.173855 1_555
Li14 O39 2.189989 1_545
Li14 O47 2.267824 1_545
Li15 O47 2.078720 1_455
Li15 O11 2.082169 1_555
Li15 O3 2.112677 1_565
Li15 O39 2.119064 1_555
Li15 O28 2.195430 1_555
Li15 O33 2.251841 1_465
Li16 O12 2.083771 1_555
Li16 O13 2.094657 1_556
Li16 O7 2.127711 1_566
Li16 O40 2.144887 1_555
Li16 O34 2.162737 1_465
Li16 O35 2.192492 1_556
Li17 O34 2.068728 1_555
Li17 O35 2.092875 1_556
Li17 O40 2.152134 1_545
Li17 O13 2.165847 1_646
Li17 O7 2.171325 1_556
Li17 O12 2.185472 1_555
Li18 O0 2.089241 1_655
Li18 O36 2.091553 1_555
Li18 O8 2.113289 1_555
Li18 O44 2.118170 1_545
Li18 O14 2.197514 1_645
Li18 O19 2.261593 1_555
Li19 O14 2.074855 1_555
Li19 O19 2.095915 1_555
Li19 O44 2.126202 1_555
Li19 O8 2.172296 1_565
Li19 O0 2.184954 1_565
Li19 O36 2.251015 1_555
Li20 O15 2.077801 1_555
Li20 O20 2.086761 1_555
Li20 O37 2.128925 1_555
Li20 O45 2.186006 1_555
Li20 O16 2.229700 1_555
Li20 O38 2.251690 1_555
Li21 O20 2.105360 1_565
Li21 O28 2.109516 1_555
Li21 O16 2.109672 1_555
Li21 O47 2.116023 1_555
Li21 O45 2.130954 1_555
Li21 O3 2.131187 1_565
Li22 O29 2.088193 1_555
Li22 O21 2.090449 1_555
Li22 O4 2.124320 1_655
Li22 O41 2.126653 1_555
Li22 O1 2.170771 1_655
Li22 O24 2.196888 1_555
Li23 O22 2.081839 1_555
Li23 O30 2.091332 1_555
Li23 O42 2.117147 1_555
Li23 O5 2.117710 1_655
Li23 O25 2.192430 1_555
Li23 O17 2.260689 1_645
Li24 O43 2.045754 1_555
Li24 O6 2.047233 1_565
Li24 O26 2.151409 1_555
Li24 O46 2.211661 1_555
Li24 O18 2.224497 1_555
Li24 O23 2.243933 1_565
Li25 O23 2.081046 1_555
Li25 O46 2.095799 1_545
Li25 O6 2.119570 1_655
Li25 O43 2.151257 1_555
Li25 O18 2.158241 1_645
Li25 O26 2.260953 1_555
Li26 O35 2.100117 1_555
Li26 O24 2.102213 1_555
Li26 O29 2.113283 1_565
Li26 O7 2.117741 1_565
Li26 O13 2.120134 1_655
Li26 O4 2.127663 1_655
Li27 O10 2.045756 1_565
Li27 O2 2.047230 1_655
Li27 O9 2.160758 1_655
Li27 O31 2.161786 1_565
Li27 O27 2.174441 1_555
Li27 O32 2.186972 1_555
Li28 O25 2.101583 1_555
Li28 O14 2.101699 1_655
Li28 O30 2.116881 1_565
Li28 O36 2.121092 1_555
Li28 O5 2.132981 1_655
Li28 O8 2.134536 1_565
Li29 O3 2.033209 1_655
Li29 O39 2.047206 1_555
Li29 O47 2.167394 1_555
Li29 O33 2.168469 1_555
Li29 O11 2.191902 1_655
Li29 O28 2.194578 1_555
Li30 O15 2.102925 1_655
Li30 O38 2.103351 1_555
Li30 O46 2.110548 1_555
Li30 O26 2.111242 1_555
Li30 O6 2.121915 1_655
Li30 O37 2.130711 1_555
Li31 O16 2.073163 1_655
Li31 O38 2.096476 1_565
Li31 O45 2.112776 1_555
Li31 O37 2.172510 1_555
Li31 O15 2.183061 1_655
Li31 O20 2.242014 1_565
Cr0 O29 1.908716 1_455
Cr0 O13 1.924161 1_545
Cr0 O4 1.949787 1_555
Cr0 O7 1.958741 1_555
Cr0 O35 1.990765 1_455
Cr0 O24 1.993500 1_545
Cr1 O36 1.891865 1_455
Cr1 O5 1.909037 1_555
Cr1 O14 1.962492 1_545
Cr1 O25 1.977674 1_545
Cr1 O30 1.991004 1_455
Cr1 O8 2.001215 1_555
Cr2 O19 1.919661 1_555
Cr2 O0 1.933911 1_565
Cr2 O2 1.937022 1_555
Cr2 O31 1.945196 1_465
Cr2 O27 1.986919 1_555
Cr2 O44 2.004320 1_455
Cr3 O47 1.891279 1_455
Cr3 O45 1.905904 1_455
Cr3 O28 1.958242 1_555
Cr3 O20 1.975606 1_555
Cr3 O16 2.000526 1_555
Cr3 O3 2.012490 1_555
Cr4 O30 1.891717 1_555
Cr4 O8 1.910715 1_555
Cr4 O25 1.961588 1_555
Cr4 O14 1.976331 1_555
Cr4 O36 1.990452 1_555
Cr4 O5 2.001596 1_555
Cr5 O26 1.912534 1_555
Cr5 O46 1.938754 1_455
Cr5 O38 1.943958 1_465
Cr5 O37 1.953702 1_555
Cr5 O15 1.976867 1_555
Cr5 O6 1.998572 1_565
Cr6 O21 1.927949 1_555
Cr6 O10 1.931927 1_555
Cr6 O1 1.938123 1_655
Cr6 O9 1.944417 1_645
Cr6 O32 1.987557 1_555
Cr6 O41 1.990977 1_545
Cr7 O17 1.928563 1_555
Cr7 O22 1.930859 1_555
Cr7 O33 1.948594 1_555
Cr7 O39 1.955855 1_555
Cr7 O11 1.969165 1_555
Cr7 O42 1.994558 1_555
Cr8 O12 1.887384 1_555
Cr8 O23 1.888369 1_555
Cr8 O43 1.981722 1_555
Cr8 O40 1.985518 1_555
Cr8 O18 1.997128 1_555
Cr8 O34 1.998065 1_555
Cr9 O16 1.891652 1_645
Cr9 O3 1.909665 1_655
Cr9 O20 1.956213 1_555
Cr9 O28 1.971417 1_555
Cr9 O47 2.001538 1_545
Cr9 O45 2.012267 1_555
Cr10 O18 1.887839 1_655
Cr10 O34 1.889607 1_565
Cr10 O40 1.977244 1_555
Cr10 O43 1.981813 1_555
Cr10 O23 1.999805 1_565
Cr10 O12 2.000018 1_655
O0 Ti3 1.998398 1_455
O1 Ti2 2.001179 1_545
O2 Ti3 2.000381 1_455
O4 Ti0 2.007528 1_555
O6 Ti1 1.962841 1_555
O7 Ti0 2.008031 1_555
O9 Ti2 1.978810 1_555
O10 Ti2 2.009481 1_545
O11 Ti4 1.959816 1_455
O13 Ti0 1.983424 1_555
O15 Ti1 1.952441 1_555
O17 Ti4 1.986773 1_455
O19 Ti3 1.987563 1_555
O21 Ti2 1.980357 1_555
O22 Ti4 1.990077 1_545
O24 Ti0 1.941627 1_555
O26 Ti1 2.000070 1_555
O27 Ti3 1.948395 1_555
O29 Ti0 2.003854 1_555
O31 Ti3 1.987363 1_555
O32 Ti2 1.947764 1_555
O33 Ti4 1.978953 1_545
O35 Ti0 1.937944 1_555
O37 Ti1 1.987715 1_565
O38 Ti1 1.988434 1_555
O39 Ti4 1.988383 1_555
O41 Ti2 1.965874 1_555
O42 Ti4 1.975078 1_555
O44 Ti3 1.962498 1_555
O46 Ti1 1.992318 1_565
