# generated using pymatgen
data_Na3Fe2(PO4)3
_symmetry_space_group_name_H-M   'P 1'
_cell_length_a   8.98167900
_cell_length_b   8.80610100
_cell_length_c   15.52537730
_cell_angle_alpha   55.72231374
_cell_angle_beta   90.00000000
_cell_angle_gamma   90.00000000
_symmetry_Int_Tables_number   1
_chemical_formula_structural   Na3Fe2(PO4)3
_chemical_formula_sum   'Na12 Fe8 P12 O48'
_cell_volume   1014.68305670
_cell_formula_units_Z   4
loop_
 _symmetry_equiv_pos_site_id
 _symmetry_equiv_pos_as_xyz
  1  'x, y, z'
loop_
 _atom_site_type_symbol
 _atom_site_label
 _atom_site_symmetry_multiplicity
 _atom_site_fract_x
 _atom_site_fract_y
 _atom_site_fract_z
 _atom_site_occupancy
  Na  Na0  1  0.93372800  0.38228000  0.69320000  1
  Na  Na1  1  0.29702100  0.33610700  0.76191600  1
  Na  Na2  1  0.21273700  0.03693500  0.17264500  1
  Na  Na3  1  0.71273700  0.96306500  0.32735500  1
  Na  Na4  1  0.79702100  0.66389300  0.73808400  1
  Na  Na5  1  0.43372800  0.61772000  0.80680000  1
  Na  Na6  1  0.56627200  0.38228000  0.19320000  1
  Na  Na7  1  0.20297900  0.33610700  0.26191600  1
  Na  Na8  1  0.28726300  0.03693500  0.67264500  1
  Na  Na9  1  0.78726300  0.96306500  0.82735500  1
  Na  Na10  1  0.70297900  0.66389300  0.23808400  1
  Na  Na11  1  0.06627200  0.61772000  0.30680000  1
  Fe  Fe0  1  0.47402900  0.65356600  0.59526300  1
  Fe  Fe1  1  0.97402900  0.34643400  0.90473700  1
  Fe  Fe2  1  0.53908100  0.13996100  0.10052000  1
  Fe  Fe3  1  0.03908100  0.86003900  0.39948000  1
  Fe  Fe4  1  0.96091900  0.13996100  0.60052000  1
  Fe  Fe5  1  0.46091900  0.86003900  0.89948000  1
  Fe  Fe6  1  0.02597100  0.65356600  0.09526300  1
  Fe  Fe7  1  0.52597100  0.34643400  0.40473700  1
  P  P0  1  0.75050200  0.53204500  0.49631500  1
  P  P1  1  0.61786300  0.25231800  0.85406400  1
  P  P2  1  0.89620800  0.96436900  0.14702500  1
  P  P3  1  0.11786300  0.74768200  0.64593600  1
  P  P4  1  0.39620800  0.03563100  0.35297500  1
  P  P5  1  0.25050200  0.46795500  0.00368500  1
  P  P6  1  0.74949800  0.53204500  0.99631500  1
  P  P7  1  0.60379200  0.96436900  0.64702500  1
  P  P8  1  0.88213700  0.25231800  0.35406400  1
  P  P9  1  0.10379200  0.03563100  0.85297500  1
  P  P10  1  0.38213700  0.74768200  0.14593600  1
  P  P11  1  0.24949800  0.46795500  0.50368500  1
  O  O0  1  0.14906100  0.63698900  0.43353500  1
  O  O1  1  0.09468700  0.20313600  0.86246400  1
  O  O2  1  0.33178200  0.48432400  0.58629700  1
  O  O3  1  0.41740600  0.90860600  0.15717000  1
  O  O4  1  0.64344300  0.54324300  0.57033000  1
  O  O5  1  0.78783000  0.30115300  0.83406900  1
  O  O6  1  0.57528500  0.19261400  0.96444000  1
  O  O7  1  0.99219200  0.91571500  0.24296400  1
  O  O8  1  0.73019600  0.98271200  0.16930100  1
  O  O9  1  0.84565700  0.71008200  0.43733900  1
  O  O10  1  0.95763500  0.13829000  0.04917100  1
  O  O11  1  0.52430000  0.42338300  0.77249100  1
  O  O12  1  0.02430000  0.57661700  0.72750900  1
  O  O13  1  0.45763500  0.86171000  0.45082900  1
  O  O14  1  0.34565700  0.28991800  0.06266100  1
  O  O15  1  0.23019600  0.01728800  0.33069900  1
  O  O16  1  0.07528500  0.80738600  0.53556000  1
  O  O17  1  0.49219200  0.08428500  0.25703600  1
  O  O18  1  0.28783000  0.69884700  0.66593100  1
  O  O19  1  0.14344300  0.45675700  0.92967000  1
  O  O20  1  0.83178200  0.51567600  0.91370300  1
  O  O21  1  0.59468700  0.79686400  0.63753600  1
  O  O22  1  0.91740600  0.09139400  0.34283000  1
  O  O23  1  0.64906100  0.36301100  0.06646500  1
  O  O24  1  0.35093900  0.63698900  0.93353500  1
  O  O25  1  0.08259400  0.90860600  0.65717000  1
  O  O26  1  0.40531300  0.20313600  0.36246400  1
  O  O27  1  0.16821800  0.48432400  0.08629700  1
  O  O28  1  0.85655700  0.54324300  0.07033000  1
  O  O29  1  0.71217000  0.30115300  0.33406900  1
  O  O30  1  0.50780800  0.91571500  0.74296400  1
  O  O31  1  0.92471500  0.19261400  0.46444000  1
  O  O32  1  0.76980400  0.98271200  0.66930100  1
  O  O33  1  0.65434300  0.71008200  0.93733900  1
  O  O34  1  0.54236500  0.13829000  0.54917100  1
  O  O35  1  0.97570000  0.42338300  0.27249100  1
  O  O36  1  0.47570000  0.57661700  0.22750900  1
  O  O37  1  0.04236500  0.86171000  0.95082900  1
  O  O38  1  0.15434300  0.28991800  0.56266100  1
  O  O39  1  0.26980400  0.01728800  0.83069900  1
  O  O40  1  0.00780800  0.08428500  0.75703600  1
  O  O41  1  0.42471500  0.80738600  0.03556000  1
  O  O42  1  0.21217000  0.69884700  0.16593100  1
  O  O43  1  0.35655700  0.45675700  0.42967000  1
  O  O44  1  0.58259400  0.09139400  0.84283000  1
  O  O45  1  0.66821800  0.51567600  0.41370300  1
  O  O46  1  0.90531300  0.79686400  0.13753600  1
  O  O47  1  0.85093900  0.36301100  0.56646500  1
loop_
_geom_bond_atom_site_label_1
_geom_bond_atom_site_label_2
_geom_bond_distance
_geom_bond_site_symmetry_2
Na0 O47 2.197560 1_555
Na0 O12 2.213823 1_655
Na0 O5 2.291454 1_555
Na0 O40 2.319852 1_655
Na0 O1 2.610515 1_655
Na1 O11 2.219656 1_555
Na1 O1 2.247576 1_555
Na1 O2 2.286166 1_555
Na1 O39 2.388589 1_555
Na1 O18 2.658817 1_555
Na2 O7 2.223171 1_445
Na2 O14 2.240338 1_555
Na2 O3 2.240506 1_545
Na2 O15 2.365941 1_555
Na2 O10 2.791769 1_455
Na3 O17 2.223171 1_565
Na3 O9 2.240338 1_555
Na3 O22 2.240506 1_565
Na3 O8 2.365941 1_555
Na3 O13 2.791769 1_555
Na4 O12 2.219656 1_655
Na4 O21 2.247576 1_555
Na4 O20 2.286166 1_555
Na4 O32 2.388589 1_555
Na4 O5 2.658817 1_555
Na5 O24 2.197560 1_555
Na5 O11 2.213823 1_555
Na5 O18 2.291454 1_555
Na5 O30 2.319852 1_555
Na5 O21 2.610515 1_555
Na6 O23 2.197560 1_555
Na6 O36 2.213823 1_555
Na6 O29 2.291454 1_555
Na6 O17 2.319852 1_555
Na6 O26 2.610515 1_555
Na7 O35 2.219656 1_455
Na7 O26 2.247576 1_555
Na7 O27 2.286166 1_555
Na7 O15 2.388589 1_555
Na7 O42 2.658817 1_555
Na8 O30 2.223171 1_545
Na8 O38 2.240338 1_555
Na8 O25 2.240506 1_545
Na8 O39 2.365941 1_555
Na8 O34 2.791769 1_555
Na9 O40 2.223171 1_665
Na9 O33 2.240338 1_555
Na9 O44 2.240506 1_565
Na9 O32 2.365941 1_555
Na9 O37 2.791769 1_655
Na10 O36 2.219656 1_555
Na10 O46 2.247576 1_555
Na10 O45 2.286166 1_555
Na10 O8 2.388589 1_555
Na10 O29 2.658817 1_555
Na11 O0 2.197560 1_555
Na11 O35 2.213823 1_455
Na11 O42 2.291454 1_555
Na11 O7 2.319852 1_455
Na11 O46 2.610515 1_455
Fe0 O13 1.944207 1_555
Fe0 O4 1.957709 1_555
Fe0 O2 2.026461 1_555
Fe0 O21 2.032345 1_555
Fe0 O18 2.156937 1_555
Fe0 O11 2.366677 1_555
Fe1 O10 1.944207 1_556
Fe1 O19 1.957709 1_655
Fe1 O20 2.026461 1_555
Fe1 O1 2.032345 1_655
Fe1 O5 2.156937 1_555
Fe1 O12 2.366677 1_655
Fe2 O6 1.918537 1_554
Fe2 O23 1.985851 1_555
Fe2 O3 2.024900 1_545
Fe2 O14 2.057454 1_555
Fe2 O8 2.082954 1_545
Fe2 O17 2.231706 1_555
Fe3 O16 1.918537 1_555
Fe3 O0 1.985851 1_555
Fe3 O22 2.024900 1_465
Fe3 O9 2.057454 1_455
Fe3 O15 2.082954 1_565
Fe3 O7 2.231706 1_455
Fe4 O31 1.918537 1_555
Fe4 O47 1.985851 1_555
Fe4 O25 2.024900 1_645
Fe4 O38 2.057454 1_655
Fe4 O32 2.082954 1_545
Fe4 O40 2.231706 1_655
Fe5 O41 1.918537 1_556
Fe5 O24 1.985851 1_555
Fe5 O44 2.024900 1_565
Fe5 O33 2.057454 1_555
Fe5 O39 2.082954 1_565
Fe5 O30 2.231706 1_555
Fe6 O37 1.944207 1_554
Fe6 O28 1.957709 1_455
Fe6 O27 2.026461 1_555
Fe6 O46 2.032345 1_455
Fe6 O42 2.156937 1_555
Fe6 O35 2.366677 1_455
Fe7 O34 1.944207 1_555
Fe7 O43 1.957709 1_555
Fe7 O45 2.026461 1_555
Fe7 O26 2.032345 1_555
Fe7 O29 2.156937 1_555
Fe7 O36 2.366677 1_555
O0 P11 1.545817 1_555
O1 P9 1.564924 1_555
O2 P11 1.555712 1_555
O3 P10 1.554793 1_555
O4 P0 1.543514 1_555
O5 P1 1.568887 1_555
O6 P1 1.531127 1_555
O7 P2 1.557728 1_555
O8 P2 1.559457 1_555
O9 P0 1.552367 1_555
O10 P2 1.528792 1_545
O11 P1 1.558979 1_555
O12 P3 1.558979 1_555
O13 P4 1.528792 1_565
O14 P5 1.552367 1_555
O15 P4 1.559457 1_555
O16 P3 1.531127 1_555
O17 P4 1.557728 1_555
O18 P3 1.568887 1_555
O19 P5 1.543514 1_556
O20 P6 1.555712 1_555
O21 P7 1.564924 1_555
O22 P8 1.554793 1_555
O23 P6 1.545817 1_554
O24 P5 1.545817 1_556
O25 P3 1.554793 1_555
O26 P4 1.564924 1_555
O27 P5 1.555712 1_555
O28 P6 1.543514 1_554
O29 P8 1.568887 1_555
O30 P7 1.557728 1_555
O31 P8 1.531127 1_555
O32 P7 1.559457 1_555
O33 P6 1.552367 1_555
O34 P7 1.528792 1_545
O35 P8 1.558979 1_555
O36 P10 1.558979 1_555
O37 P9 1.528792 1_565
O38 P11 1.552367 1_555
O39 P9 1.559457 1_555
O40 P9 1.557728 1_555
O41 P10 1.531127 1_555
O42 P10 1.568887 1_555
O43 P11 1.543514 1_555
O44 P1 1.554793 1_555
O45 P0 1.555712 1_555
O46 P2 1.564924 1_555
O47 P0 1.545817 1_555
