# generated using pymatgen
data_La2WO6
_symmetry_space_group_name_H-M   'P 1'
_cell_length_a   5.65217700
_cell_length_b   8.02409000
_cell_length_c   11.99763521
_cell_angle_alpha   76.55032224
_cell_angle_beta   90.00000000
_cell_angle_gamma   90.00000000
_symmetry_Int_Tables_number   1
_chemical_formula_structural   La2WO6
_chemical_formula_sum   'La8 W4 O24'
_cell_volume   529.21252116
_cell_formula_units_Z   4
loop_
 _symmetry_equiv_pos_site_id
 _symmetry_equiv_pos_as_xyz
  1  'x, y, z'
loop_
 _atom_site_type_symbol
 _atom_site_label
 _atom_site_symmetry_multiplicity
 _atom_site_fract_x
 _atom_site_fract_y
 _atom_site_fract_z
 _atom_site_occupancy
  La  La0  1  0.73804900  0.00000000  0.75000000  1
  La  La1  1  0.26195100  0.00000000  0.25000000  1
  La  La2  1  0.19593600  0.79697000  0.57646900  1
  La  La3  1  0.80406400  0.79697000  0.07646900  1
  La  La4  1  0.68456000  0.50000000  0.75000000  1
  La  La5  1  0.31544000  0.50000000  0.25000000  1
  La  La6  1  0.19593600  0.20303000  0.92353100  1
  La  La7  1  0.80406400  0.20303000  0.42353100  1
  W  W0  1  0.25217900  0.72210700  0.88629800  1
  W  W1  1  0.74782100  0.72210700  0.38629800  1
  W  W2  1  0.25217900  0.27789300  0.61370200  1
  W  W3  1  0.74782100  0.27789300  0.11370200  1
  O  O0  1  0.04393700  0.93136400  0.89678100  1
  O  O1  1  0.50896400  0.85091900  0.92971200  1
  O  O2  1  0.95606300  0.93136400  0.39678100  1
  O  O3  1  0.45770500  0.78060000  0.73475700  1
  O  O4  1  0.49103600  0.85091900  0.42971200  1
  O  O5  1  0.99672900  0.70791600  0.77615300  1
  O  O6  1  0.54229500  0.78060000  0.23475700  1
  O  O7  1  0.84893700  0.63773400  0.54041200  1
  O  O8  1  0.36323000  0.49885000  0.88865100  1
  O  O9  1  0.00327100  0.70791600  0.27615300  1
  O  O10  1  0.36323000  0.50115000  0.61134900  1
  O  O11  1  0.84893700  0.36226600  0.95958800  1
  O  O12  1  0.15106300  0.63773400  0.04041200  1
  O  O13  1  0.63677000  0.49885000  0.38865100  1
  O  O14  1  0.99672900  0.29208400  0.72384700  1
  O  O15  1  0.63677000  0.50115000  0.11134900  1
  O  O16  1  0.15106300  0.36226600  0.45958800  1
  O  O17  1  0.45770500  0.21940000  0.76524300  1
  O  O18  1  0.00327100  0.29208400  0.22384700  1
  O  O19  1  0.50896400  0.14908100  0.57028800  1
  O  O20  1  0.54229500  0.21940000  0.26524300  1
  O  O21  1  0.04393700  0.06863600  0.60321900  1
  O  O22  1  0.49103600  0.14908100  0.07028800  1
  O  O23  1  0.95606300  0.06863600  0.10321900  1
loop_
_geom_bond_atom_site_label_1
_geom_bond_atom_site_label_2
_geom_bond_distance
_geom_bond_site_symmetry_2
La0 O3 2.406935 1_545
La0 O17 2.406935 1_555
La0 O0 2.437738 1_645
La0 O21 2.437738 1_655
La0 O19 2.560587 1_555
La0 O1 2.560587 1_545
La0 O14 2.717919 1_555
La0 O5 2.717919 1_545
La1 O6 2.406935 1_545
La1 O20 2.406935 1_555
La1 O2 2.437738 1_445
La1 O23 2.437738 1_455
La1 O22 2.560587 1_555
La1 O4 2.560587 1_545
La1 O18 2.717919 1_555
La1 O9 2.717919 1_545
La2 O3 2.386805 1_555
La2 O4 2.390629 1_555
La2 O21 2.432773 1_565
La2 O7 2.433833 1_455
La2 O10 2.498308 1_555
La2 O2 2.562668 1_455
La2 O5 2.592601 1_455
La3 O6 2.386805 1_555
La3 O1 2.390629 1_554
La3 O23 2.432773 1_565
La3 O12 2.433833 1_655
La3 O15 2.498308 1_555
La3 O0 2.562668 1_654
La3 O9 2.592601 1_655
La4 O8 2.461454 1_555
La4 O10 2.461454 1_555
La4 O5 2.497708 1_555
La4 O14 2.497708 1_555
La4 O3 2.560375 1_555
La4 O17 2.560375 1_555
La4 O11 2.667375 1_555
La4 O7 2.667375 1_555
La5 O15 2.461454 1_555
La5 O13 2.461454 1_555
La5 O9 2.497708 1_555
La5 O18 2.497708 1_555
La5 O20 2.560375 1_555
La5 O6 2.560375 1_555
La5 O12 2.667375 1_555
La5 O16 2.667375 1_555
La6 O17 2.386805 1_555
La6 O22 2.390629 1_556
La6 O0 2.432773 1_545
La6 O11 2.433833 1_455
La6 O8 2.498308 1_555
La6 O23 2.562668 1_456
La6 O14 2.592601 1_455
La7 O20 2.386805 1_555
La7 O19 2.390629 1_555
La7 O2 2.432773 1_545
La7 O16 2.433833 1_655
La7 O13 2.498308 1_555
La7 O21 2.562668 1_655
La7 O18 2.592601 1_655
O0 W0 2.078172 1_555
O1 W0 1.922657 1_555
O2 W1 2.078172 1_555
O3 W0 2.116227 1_555
O4 W1 1.922657 1_555
O5 W0 1.978376 1_655
O6 W1 2.116227 1_555
O7 W1 1.903021 1_555
O8 W0 1.892218 1_555
O9 W1 1.978376 1_455
O10 W2 1.892218 1_555
O11 W3 1.903021 1_556
O12 W0 1.903021 1_554
O13 W1 1.892218 1_555
O14 W2 1.978376 1_655
O15 W3 1.892218 1_555
O16 W2 1.903021 1_555
O17 W2 2.116227 1_555
O18 W3 1.978376 1_455
O19 W2 1.922657 1_555
O20 W3 2.116227 1_555
O21 W2 2.078172 1_555
O22 W3 1.922657 1_555
O23 W3 2.078172 1_555
