# generated using pymatgen
data_Li3Fe(PO4)2
_symmetry_space_group_name_H-M   'P 1'
_cell_length_a   10.36715100
_cell_length_b   8.21786600
_cell_length_c   8.31371751
_cell_angle_alpha   74.95900952
_cell_angle_beta   90.00000000
_cell_angle_gamma   90.00000000
_symmetry_Int_Tables_number   1
_chemical_formula_structural   Li3Fe(PO4)2
_chemical_formula_sum   'Li12 Fe4 P8 O32'
_cell_volume   684.02842568
_cell_formula_units_Z   4
loop_
 _symmetry_equiv_pos_site_id
 _symmetry_equiv_pos_as_xyz
  1  'x, y, z'
loop_
 _atom_site_type_symbol
 _atom_site_label
 _atom_site_symmetry_multiplicity
 _atom_site_fract_x
 _atom_site_fract_y
 _atom_site_fract_z
 _atom_site_occupancy
  Li  Li0  1  0.91328200  0.39052900  0.10221800  1
  Li  Li1  1  0.40837900  0.35599400  0.15581900  1
  Li  Li2  1  0.60297600  0.82982300  0.15812200  1
  Li  Li3  1  0.16906000  0.45624500  0.28242100  1
  Li  Li4  1  0.90526200  0.64161800  0.34228300  1
  Li  Li5  1  0.41406100  0.59625900  0.41431400  1
  Li  Li6  1  0.08671800  0.39052900  0.60221800  1
  Li  Li7  1  0.59162100  0.35599400  0.65581900  1
  Li  Li8  1  0.39702400  0.82982300  0.65812200  1
  Li  Li9  1  0.83094000  0.45624500  0.78242100  1
  Li  Li10  1  0.09473800  0.64161800  0.84228300  1
  Li  Li11  1  0.58593900  0.59625900  0.91431400  1
  Fe  Fe0  1  0.08530900  0.91118500  0.09111600  1
  Fe  Fe1  1  0.59449600  0.10076100  0.40530900  1
  Fe  Fe2  1  0.91469100  0.91118500  0.59111600  1
  Fe  Fe3  1  0.40550400  0.10076100  0.90530900  1
  P  P0  1  0.65469700  0.23246700  0.03674500  1
  P  P1  1  0.34045100  0.71821200  0.02943900  1
  P  P2  1  0.84088700  0.29382400  0.47026800  1
  P  P3  1  0.34530300  0.23246700  0.53674500  1
  P  P4  1  0.15860200  0.76612000  0.45694500  1
  P  P5  1  0.65954900  0.71821200  0.52943900  1
  P  P6  1  0.15911300  0.29382400  0.97026800  1
  P  P7  1  0.84139800  0.76612000  0.95694500  1
  O  O0  1  0.30804800  0.24514400  0.00573400  1
  O  O1  1  0.58090300  0.37526500  0.08191000  1
  O  O2  1  0.64484100  0.07026700  0.19266100  1
  O  O3  1  0.70037100  0.74234800  0.00431600  1
  O  O4  1  0.10426500  0.35123000  0.11640600  1
  O  O5  1  0.41151000  0.87976400  0.05966500  1
  O  O6  1  0.91956300  0.80671200  0.10665600  1
  O  O7  1  0.34748800  0.57333300  0.18978900  1
  O  O8  1  0.85622800  0.42820400  0.30659000  1
  O  O9  1  0.42109200  0.18058900  0.39027300  1
  O  O10  1  0.90496600  0.12711200  0.44944100  1
  O  O11  1  0.59805100  0.67578800  0.37932800  1
  O  O12  1  0.20727400  0.27470900  0.48352600  1
  O  O13  1  0.14029600  0.92238200  0.30260400  1
  O  O14  1  0.09353400  0.61307400  0.41364000  1
  O  O15  1  0.69195200  0.24514400  0.50573400  1
  O  O16  1  0.80657900  0.76795300  0.49272500  1
  O  O17  1  0.41909700  0.37526500  0.58191000  1
  O  O18  1  0.35515900  0.07026700  0.69266100  1
  O  O19  1  0.29962900  0.74234800  0.50431600  1
  O  O20  1  0.89573500  0.35123000  0.61640600  1
  O  O21  1  0.58849000  0.87976400  0.55966500  1
  O  O22  1  0.08043700  0.80671200  0.60665600  1
  O  O23  1  0.65251200  0.57333300  0.68978900  1
  O  O24  1  0.14377200  0.42820400  0.80659000  1
  O  O25  1  0.57890800  0.18058900  0.89027300  1
  O  O26  1  0.09503400  0.12711200  0.94944100  1
  O  O27  1  0.40194900  0.67578800  0.87932800  1
  O  O28  1  0.79272600  0.27470900  0.98352600  1
  O  O29  1  0.85970400  0.92238200  0.80260400  1
  O  O30  1  0.90646600  0.61307400  0.91364000  1
  O  O31  1  0.19342100  0.76795300  0.99272500  1
loop_
_geom_bond_atom_site_label_1
_geom_bond_atom_site_label_2
_geom_bond_distance
_geom_bond_site_symmetry_2
Li0 O8 1.898857 1_555
Li0 O28 1.982208 1_554
Li0 O4 2.004655 1_655
Li0 O30 2.078332 1_554
Li1 O1 1.884452 1_555
Li1 O7 1.982442 1_555
Li1 O0 2.014596 1_555
Li1 O9 2.106232 1_555
Li2 O3 1.910085 1_555
Li2 O11 1.943912 1_555
Li2 O2 2.114152 1_565
Li2 O5 2.145727 1_555
Li3 O4 1.928515 1_555
Li3 O12 1.970614 1_555
Li3 O14 2.047903 1_555
Li3 O7 2.134492 1_555
Li4 O8 1.921567 1_555
Li4 O14 2.035787 1_655
Li4 O6 2.078627 1_555
Li4 O16 2.088734 1_555
Li5 O19 1.968452 1_555
Li5 O17 1.982170 1_555
Li5 O11 2.012821 1_555
Li5 O7 2.044186 1_555
Li6 O24 1.898857 1_555
Li6 O12 1.982208 1_555
Li6 O20 2.004655 1_455
Li6 O14 2.078332 1_555
Li7 O17 1.884452 1_555
Li7 O23 1.982442 1_555
Li7 O15 2.014596 1_555
Li7 O25 2.106232 1_555
Li8 O19 1.910085 1_555
Li8 O27 1.943912 1_555
Li8 O18 2.114152 1_565
Li8 O21 2.145727 1_555
Li9 O20 1.928515 1_555
Li9 O28 1.970614 1_555
Li9 O30 2.047903 1_555
Li9 O23 2.134492 1_555
Li10 O24 1.921567 1_555
Li10 O30 2.035787 1_455
Li10 O22 2.078627 1_555
Li10 O31 2.088734 1_555
Li11 O3 1.968452 1_556
Li11 O1 1.982170 1_556
Li11 O27 2.012821 1_555
Li11 O23 2.044186 1_555
Fe0 O26 1.860489 1_564
Fe0 O13 1.873193 1_555
Fe0 O6 1.910189 1_455
Fe0 O31 1.952061 1_554
Fe1 O9 1.906611 1_555
Fe1 O15 1.907837 1_555
Fe1 O2 1.921095 1_555
Fe1 O21 1.933740 1_545
Fe2 O10 1.860489 1_565
Fe2 O29 1.873193 1_555
Fe2 O22 1.910189 1_655
Fe2 O16 1.952061 1_555
Fe3 O25 1.906611 1_555
Fe3 O0 1.907837 1_556
Fe3 O18 1.921095 1_555
Fe3 O5 1.933740 1_546
O0 P6 1.603056 1_554
O1 P0 1.527107 1_555
O2 P0 1.603321 1_555
O3 P7 1.513578 1_554
O4 P6 1.522978 1_554
O5 P1 1.594225 1_555
O6 P7 1.591414 1_554
O7 P1 1.541501 1_555
O8 P2 1.522028 1_555
O9 P3 1.597314 1_555
O10 P2 1.572057 1_555
O11 P5 1.520297 1_555
O12 P3 1.511363 1_555
O13 P4 1.573623 1_555
O14 P4 1.549683 1_555
O15 P2 1.603056 1_555
O16 P5 1.587115 1_555
O17 P3 1.527107 1_555
O18 P3 1.603321 1_555
O19 P4 1.513578 1_555
O20 P2 1.522978 1_555
O21 P5 1.594225 1_555
O22 P4 1.591414 1_555
O23 P5 1.541501 1_555
O24 P6 1.522028 1_555
O25 P0 1.597314 1_556
O26 P6 1.572057 1_555
O27 P1 1.520297 1_556
O28 P0 1.511363 1_556
O29 P7 1.573623 1_555
O30 P7 1.549683 1_555
O31 P1 1.587115 1_556
