# generated using pymatgen
data_Na2Sb4O11
_symmetry_space_group_name_H-M   'P 1'
_cell_length_a   12.56519802
_cell_length_b   12.56519802
_cell_length_c   12.56519826
_cell_angle_alpha   29.13680710
_cell_angle_beta   29.13680710
_cell_angle_gamma   29.13681239
_symmetry_Int_Tables_number   1
_chemical_formula_structural   Na2Sb4O11
_chemical_formula_sum   'Na4 Sb8 O22'
_cell_volume   416.06401315
_cell_formula_units_Z   2
loop_
 _symmetry_equiv_pos_site_id
 _symmetry_equiv_pos_as_xyz
  1  'x, y, z'
loop_
 _atom_site_type_symbol
 _atom_site_label
 _atom_site_symmetry_multiplicity
 _atom_site_fract_x
 _atom_site_fract_y
 _atom_site_fract_z
 _atom_site_occupancy
  Na  Na0  1  0.83197400  0.83197400  0.83197400  1
  Na  Na1  1  0.33197400  0.33197400  0.33197400  1
  Na  Na2  1  0.66802600  0.66802600  0.66802600  1
  Na  Na3  1  0.16802600  0.16802600  0.16802600  1
  Sb  Sb0  1  0.39018100  0.10981900  0.75000000  1
  Sb  Sb1  1  0.10981900  0.75000000  0.39018100  1
  Sb  Sb2  1  0.00000000  0.00000000  0.00000000  1
  Sb  Sb3  1  0.89018100  0.25000000  0.60981900  1
  Sb  Sb4  1  0.60981900  0.89018100  0.25000000  1
  Sb  Sb5  1  0.50000000  0.50000000  0.50000000  1
  Sb  Sb6  1  0.75000000  0.39018100  0.10981900  1
  Sb  Sb7  1  0.25000000  0.60981900  0.89018100  1
  O  O0  1  0.75736600  0.45008900  0.20500400  1
  O  O1  1  0.49279500  0.75000000  0.00720500  1
  O  O2  1  0.40572300  0.40572300  0.40572300  1
  O  O3  1  0.45008900  0.20500400  0.75736600  1
  O  O4  1  0.25736600  0.70500400  0.95008900  1
  O  O5  1  0.29499600  0.04991100  0.74263400  1
  O  O6  1  0.99279500  0.50720500  0.25000000  1
  O  O7  1  0.20500400  0.75736600  0.45008900  1
  O  O8  1  0.04991100  0.74263400  0.29499600  1
  O  O9  1  0.09427700  0.09427700  0.09427700  1
  O  O10  1  0.90572300  0.90572300  0.90572300  1
  O  O11  1  0.95008900  0.25736600  0.70500400  1
  O  O12  1  0.79499600  0.24263400  0.54991100  1
  O  O13  1  0.00720500  0.49279500  0.75000000  1
  O  O14  1  0.70500400  0.95008900  0.25736600  1
  O  O15  1  0.74263400  0.29499600  0.04991100  1
  O  O16  1  0.54991100  0.79499600  0.24263400  1
  O  O17  1  0.59427700  0.59427700  0.59427700  1
  O  O18  1  0.75000000  0.00720500  0.49279500  1
  O  O19  1  0.50720500  0.25000000  0.99279500  1
  O  O20  1  0.24263400  0.54991100  0.79499600  1
  O  O21  1  0.25000000  0.99279500  0.50720500  1
loop_
_geom_bond_atom_site_label_1
_geom_bond_atom_site_label_2
_geom_bond_distance
_geom_bond_site_symmetry_2
Na0 O12 2.478638 1_565
Na0 O16 2.478638 1_556
Na0 O20 2.478638 1_655
Na0 O0 2.601068 1_556
Na0 O7 2.601068 1_655
Na0 O3 2.601069 1_565
Na0 O10 2.660168 1_555
Na1 O15 2.478638 1_555
Na1 O5 2.478638 1_555
Na1 O8 2.478638 1_555
Na1 O11 2.601068 1_455
Na1 O4 2.601068 1_554
Na1 O14 2.601069 1_545
Na1 O2 2.660168 1_555
Na2 O4 2.478638 1_555
Na2 O14 2.478638 1_555
Na2 O11 2.478638 1_555
Na2 O8 2.601068 1_655
Na2 O15 2.601068 1_556
Na2 O5 2.601069 1_565
Na2 O17 2.660168 1_555
Na3 O7 2.478638 1_545
Na3 O3 2.478638 1_554
Na3 O0 2.478638 1_455
Na3 O20 2.601068 1_554
Na3 O12 2.601068 1_455
Na3 O16 2.601069 1_545
Na3 O9 2.660168 1_555
O0 Sb6 1.973202 1_555
O0 Sb5 2.041699 1_555
O1 Sb0 2.029456 1_564
O1 Sb6 2.029456 1_555
O1 Sb1 2.420864 1_555
O2 Sb0 2.066592 1_555
O2 Sb6 2.066592 1_555
O2 Sb1 2.066593 1_555
O3 Sb0 1.973202 1_555
O3 Sb5 2.041699 1_555
O4 Sb7 1.973202 1_555
O4 Sb2 2.041699 1_566
O5 Sb0 1.973202 1_555
O5 Sb2 2.041699 1_556
O6 Sb3 2.029455 1_555
O6 Sb7 2.029455 1_654
O6 Sb4 2.420865 1_555
O7 Sb1 1.973202 1_555
O7 Sb5 2.041699 1_555
O8 Sb1 1.973202 1_555
O8 Sb2 2.041699 1_565
O9 Sb0 2.066592 1_554
O9 Sb1 2.066592 1_545
O9 Sb6 2.066593 1_455
O10 Sb4 2.066592 1_556
O10 Sb3 2.066592 1_565
O10 Sb7 2.066593 1_655
O11 Sb3 1.973202 1_555
O11 Sb2 2.041699 1_656
O12 Sb3 1.973202 1_555
O12 Sb5 2.041699 1_555
O13 Sb6 2.029455 1_456
O13 Sb1 2.029455 1_555
O13 Sb0 2.420865 1_555
O14 Sb4 1.973202 1_555
O14 Sb2 2.041699 1_665
O15 Sb6 1.973202 1_555
O15 Sb2 2.041699 1_655
O16 Sb4 1.973202 1_555
O16 Sb5 2.041699 1_555
O17 Sb4 2.066592 1_555
O17 Sb7 2.066592 1_555
O17 Sb3 2.066593 1_555
O18 Sb0 2.029456 1_555
O18 Sb1 2.029456 1_645
O18 Sb6 2.420864 1_555
O19 Sb4 2.029456 1_546
O19 Sb7 2.029456 1_555
O19 Sb3 2.420864 1_555
O20 Sb7 1.973202 1_555
O20 Sb5 2.041699 1_555
O21 Sb4 2.029456 1_555
O21 Sb3 2.029456 1_465
O21 Sb7 2.420864 1_555
