# generated using pymatgen
data_LiNi2OF3
_symmetry_space_group_name_H-M   'P 1'
_cell_length_a   7.98563425
_cell_length_b   7.98563425
_cell_length_c   7.98563425
_cell_angle_alpha   136.83870518
_cell_angle_beta   115.40384382
_cell_angle_gamma   80.88441601
_symmetry_Int_Tables_number   1
_chemical_formula_structural   LiNi2OF3
_chemical_formula_sum   'Li4 Ni8 O4 F12'
_cell_volume   304.67462658
_cell_formula_units_Z   4
loop_
 _symmetry_equiv_pos_site_id
 _symmetry_equiv_pos_as_xyz
  1  'x, y, z'
loop_
 _atom_site_type_symbol
 _atom_site_label
 _atom_site_symmetry_multiplicity
 _atom_site_fract_x
 _atom_site_fract_y
 _atom_site_fract_z
 _atom_site_occupancy
  Li  Li0  1  0.51083800  0.86476700  0.64607100  1
  Li  Li1  1  0.78130500  0.13523300  0.64607100  1
  Li  Li2  1  0.73391200  0.37080000  0.36311200  1
  Li  Li3  1  0.99231200  0.62920000  0.36311200  1
  Ni  Ni0  1  0.73596700  0.74877500  0.98719200  1
  Ni  Ni1  1  0.13099700  0.13962300  0.50676400  1
  Ni  Ni2  1  0.36714000  0.86037700  0.99137400  1
  Ni  Ni3  1  0.98383100  0.00000000  0.98383100  1
  Ni  Ni4  1  0.23841700  0.25122500  0.98719200  1
  Ni  Ni5  1  0.51928900  0.50000000  0.01928900  1
  Ni  Ni6  1  0.13099700  0.62423300  0.99137400  1
  Ni  Ni7  1  0.36714000  0.37576700  0.50676400  1
  O  O0  1  0.49197300  0.72906200  0.76291100  1
  O  O1  1  0.03384900  0.27093800  0.76291100  1
  O  O2  1  0.28446100  0.50000000  0.78446100  1
  O  O3  1  0.21896100  0.00000000  0.21896100  1
  F  F0  1  0.62917500  0.86641400  0.24545500  1
  F  F1  1  0.75552000  0.00000000  0.75552000  1
  F  F2  1  0.37904200  0.13358600  0.76276200  1
  F  F3  1  0.12428000  0.88702300  0.75903600  1
  F  F4  1  0.62917500  0.38372000  0.76276200  1
  F  F5  1  0.47047900  0.23791600  0.23256300  1
  F  F6  1  0.87201300  0.11297700  0.23725700  1
  F  F7  1  0.12428000  0.36524400  0.23725700  1
  F  F8  1  0.37904200  0.61628000  0.24545500  1
  F  F9  1  0.74895100  0.50000000  0.24895100  1
  F  F10  1  0.99464700  0.76208400  0.23256300  1
  F  F11  1  0.87201300  0.63475600  0.75903600  1
loop_
_geom_bond_atom_site_label_1
_geom_bond_atom_site_label_2
_geom_bond_distance
_geom_bond_site_symmetry_2
Li0 O0 1.927452 1_555
Li1 O1 1.927445 1_655
Ni0 O0 1.928917 1_555
Ni1 O1 1.964706 1_555
Ni1 O2 2.043774 1_555
Ni1 O3 2.101750 1_555
Ni2 O0 1.964712 1_555
Ni2 O2 2.043773 1_555
Ni2 O3 2.101743 1_566
Ni3 O3 2.006560 1_656
Ni4 O1 1.928917 1_555
Ni5 O2 2.003983 1_554
Ni6 O1 1.964706 1_555
Ni6 O2 2.043774 1_555
Ni6 O3 2.101750 1_566
Ni7 O0 1.964708 1_555
Ni7 O2 2.043769 1_555
Ni7 O3 2.101747 1_555
F0 Li1 1.947215 1_565
F0 Ni0 2.071708 1_554
F0 Ni5 2.082755 1_555
F0 Ni2 2.178132 1_554
F1 Li0 1.890602 1_545
F1 Li1 1.890605 1_555
F1 Ni3 1.948368 1_555
F2 Li0 1.947209 1_545
F2 Ni4 2.071708 1_555
F2 Ni5 2.082754 1_556
F2 Ni1 2.178136 1_555
F3 Li3 1.917836 1_455
F3 Ni4 2.072112 1_565
F3 Ni3 2.082909 1_465
F3 Ni2 2.146345 1_555
F4 Li1 1.947220 1_555
F4 Ni0 2.071710 1_555
F4 Ni5 2.082748 1_556
F4 Ni7 2.178136 1_555
F5 Li2 1.962171 1_555
F5 Ni4 2.100195 1_554
F5 Ni2 2.105581 1_544
F5 Ni7 2.105585 1_555
F6 Li2 1.917836 1_555
F6 Ni0 2.072112 1_544
F6 Ni3 2.082909 1_554
F6 Ni1 2.146350 1_655
F7 Li3 1.917836 1_455
F7 Ni4 2.072112 1_554
F7 Ni3 2.082909 1_454
F7 Ni7 2.146346 1_555
F8 Li0 1.947215 1_555
F8 Ni4 2.071710 1_554
F8 Ni5 2.082748 1_555
F8 Ni6 2.178131 1_554
F9 Li3 1.848082 1_555
F9 Li2 1.848082 1_555
F9 Ni5 1.959897 1_555
F10 Li3 1.962171 1_555
F10 Ni0 2.100195 1_554
F10 Ni6 2.105579 1_654
F10 Ni1 2.105579 1_665
F11 Li2 1.917836 1_555
F11 Ni0 2.072112 1_555
F11 Ni3 2.082909 1_565
F11 Ni6 2.146350 1_655
