# generated using pymatgen
data_LiCuPO4
_symmetry_space_group_name_H-M   'P 1'
_cell_length_a   5.95055300
_cell_length_b   6.31360714
_cell_length_c   9.43221429
_cell_angle_alpha   73.24257196
_cell_angle_beta   83.38109715
_cell_angle_gamma   80.38523071
_symmetry_Int_Tables_number   1
_chemical_formula_structural   LiCuPO4
_chemical_formula_sum   'Li4 Cu4 P4 O16'
_cell_volume   333.70211832
_cell_formula_units_Z   4
loop_
 _symmetry_equiv_pos_site_id
 _symmetry_equiv_pos_as_xyz
  1  'x, y, z'
loop_
 _atom_site_type_symbol
 _atom_site_label
 _atom_site_symmetry_multiplicity
 _atom_site_fract_x
 _atom_site_fract_y
 _atom_site_fract_z
 _atom_site_occupancy
  Li  Li0  1  0.56891900  0.82001600  0.70802700  1
  Li  Li1  1  0.43137600  0.65605100  0.32613000  1
  Li  Li2  1  0.56862400  0.34394900  0.67387000  1
  Li  Li3  1  0.43108100  0.17998400  0.29197300  1
  Cu  Cu0  1  0.97925200  0.89298300  0.28004200  1
  Cu  Cu1  1  0.80072900  0.65621800  0.05373000  1
  Cu  Cu2  1  0.19927100  0.34378200  0.94627000  1
  Cu  Cu3  1  0.02074800  0.10701700  0.71995800  1
  P  P0  1  0.12787800  0.70738800  0.61599800  1
  P  P1  1  0.28607800  0.81343100  0.99581100  1
  P  P2  1  0.71392200  0.18656900  0.00418900  1
  P  P3  1  0.87212200  0.29261200  0.38400200  1
  O  O0  1  0.52985400  0.74657600  0.93571100  1
  O  O1  1  0.25070000  0.89730800  0.64129200  1
  O  O2  1  0.87827600  0.73445300  0.66956200  1
  O  O3  1  0.80343100  0.94539000  0.10202900  1
  O  O4  1  0.13135000  0.64981500  0.97502000  1
  O  O5  1  0.16437600  0.72369000  0.44607000  1
  O  O6  1  0.27121700  0.81452400  0.15918900  1
  O  O7  1  0.73409600  0.52040800  0.30416700  1
  O  O8  1  0.26590400  0.47959200  0.69583300  1
  O  O9  1  0.72878300  0.18547600  0.84081100  1
  O  O10  1  0.83562400  0.27631000  0.55393000  1
  O  O11  1  0.86865000  0.35018500  0.02498000  1
  O  O12  1  0.19656900  0.05461000  0.89797100  1
  O  O13  1  0.12172400  0.26554700  0.33043800  1
  O  O14  1  0.74930000  0.10269200  0.35870800  1
  O  O15  1  0.47014600  0.25342400  0.06428900  1
loop_
_geom_bond_atom_site_label_1
_geom_bond_atom_site_label_2
_geom_bond_distance
_geom_bond_site_symmetry_2
Li0 O2 1.854463 1_555
Li0 O1 2.002241 1_555
Li0 O0 2.056157 1_555
Li1 O6 1.872893 1_555
Li1 O7 1.876739 1_555
Li1 O5 1.903699 1_555
Li2 O9 1.872893 1_555
Li2 O8 1.876739 1_555
Li2 O10 1.903699 1_555
Li3 O13 1.854463 1_555
Li3 O14 2.002241 1_555
Li3 O15 2.056157 1_555
Cu0 O5 1.961506 1_655
Cu0 O14 1.975650 1_565
Cu0 O3 1.998070 1_555
Cu0 O6 2.035866 1_655
Cu1 O0 1.975595 1_554
Cu1 O11 1.996543 1_555
Cu1 O3 2.008023 1_555
Cu1 O4 2.019259 1_654
Cu1 O7 2.280791 1_555
Cu2 O15 1.975595 1_556
Cu2 O4 1.996543 1_555
Cu2 O12 2.008023 1_555
Cu2 O11 2.019259 1_456
Cu2 O8 2.280791 1_555
Cu3 O10 1.961506 1_455
Cu3 O1 1.975650 1_545
Cu3 O12 1.998070 1_555
Cu3 O9 2.035866 1_455
O0 P1 1.532199 1_555
O1 P0 1.589582 1_555
O2 P0 1.510792 1_655
O3 P2 1.576725 1_565
O4 P1 1.558664 1_555
O5 P0 1.568061 1_555
O6 P1 1.535289 1_554
O7 P3 1.559989 1_555
O8 P0 1.559989 1_555
O9 P2 1.535289 1_556
O10 P3 1.568061 1_555
O11 P2 1.558664 1_555
O12 P1 1.576725 1_545
O13 P3 1.510792 1_455
O14 P3 1.589582 1_555
O15 P2 1.532199 1_555
