# generated using pymatgen
data_LiV2P4(HO8)2
_symmetry_space_group_name_H-M   'P 1'
_cell_length_a   7.90623300
_cell_length_b   7.35948400
_cell_length_c   9.76170552
_cell_angle_alpha   75.56311956
_cell_angle_beta   90.00000000
_cell_angle_gamma   90.00000000
_symmetry_Int_Tables_number   1
_chemical_formula_structural   LiV2P4(HO8)2
_chemical_formula_sum   'Li2 V4 P8 H4 O32'
_cell_volume   550.05702991
_cell_formula_units_Z   2
loop_
 _symmetry_equiv_pos_site_id
 _symmetry_equiv_pos_as_xyz
  1  'x, y, z'
loop_
 _atom_site_type_symbol
 _atom_site_label
 _atom_site_symmetry_multiplicity
 _atom_site_fract_x
 _atom_site_fract_y
 _atom_site_fract_z
 _atom_site_occupancy
  Li  Li0  1  0.37017100  0.89941900  0.82462800  1
  Li  Li1  1  0.87017100  0.10058100  0.17537200  1
  V  V0  1  0.50611700  0.26057400  0.62073300  1
  V  V1  1  0.00611700  0.73942600  0.37926700  1
  V  V2  1  0.49516600  0.25717600  0.12484200  1
  V  V3  1  0.99516600  0.74282400  0.87515800  1
  P  P0  1  0.34900900  0.51642300  0.81226800  1
  P  P1  1  0.85569400  0.47602500  0.69254200  1
  P  P2  1  0.14986700  0.01779200  0.56436400  1
  P  P3  1  0.64986700  0.98220800  0.43563600  1
  P  P4  1  0.35569400  0.52397500  0.30745800  1
  P  P5  1  0.84900900  0.48357700  0.18773200  1
  P  P6  1  0.15647300  0.01160500  0.06202900  1
  P  P7  1  0.65647300  0.98839500  0.93797100  1
  H  H0  1  0.50996200  0.75940200  0.60798600  1
  H  H1  1  0.00996200  0.24059800  0.39201400  1
  H  H2  1  0.50790300  0.76503500  0.10649100  1
  H  H3  1  0.00790300  0.23496500  0.89350900  1
  O  O0  1  0.55481400  0.09665600  0.80472600  1
  O  O1  1  0.16957300  0.55886300  0.85356700  1
  O  O2  1  0.82619400  0.61175000  0.78708900  1
  O  O3  1  0.44328100  0.69542100  0.74525600  1
  O  O4  1  0.05676200  0.90293100  0.69669800  1
  O  O5  1  0.32818200  0.06463700  0.61397200  1
  O  O6  1  0.95241500  0.30107200  0.75561800  1
  O  O7  1  0.34337800  0.38301900  0.70857200  1
  O  O8  1  0.66088000  0.11150300  0.54061400  1
  O  O9  1  0.05790300  0.20110100  0.49676600  1
  O  O10  1  0.67513900  0.42155900  0.64279000  1
  O  O11  1  0.94101700  0.59735200  0.55288500  1
  O  O12  1  0.55790300  0.79889900  0.50323400  1
  O  O13  1  0.16088000  0.88849700  0.45938600  1
  O  O14  1  0.82818200  0.93536300  0.38602800  1
  O  O15  1  0.55676200  0.09706900  0.30330200  1
  O  O16  1  0.44101700  0.40264800  0.44711500  1
  O  O17  1  0.17513900  0.57844100  0.35721000  1
  O  O18  1  0.84337800  0.61698100  0.29142800  1
  O  O19  1  0.45241500  0.69892800  0.24438200  1
  O  O20  1  0.05481400  0.90334400  0.19527400  1
  O  O21  1  0.32917700  0.06860300  0.10433400  1
  O  O22  1  0.94328100  0.30457900  0.25474400  1
  O  O23  1  0.32619400  0.38825000  0.21291100  1
  O  O24  1  0.67577300  0.11271400  0.04354100  1
  O  O25  1  0.04402000  0.18639100  0.00260100  1
  O  O26  1  0.66957300  0.44113700  0.14643300  1
  O  O27  1  0.94386700  0.59780300  0.05366500  1
  O  O28  1  0.54402000  0.81360900  0.99739900  1
  O  O29  1  0.17577300  0.88728600  0.95645900  1
  O  O30  1  0.82917700  0.93139700  0.89566600  1
  O  O31  1  0.44386700  0.40219700  0.94633500  1
loop_
_geom_bond_atom_site_label_1
_geom_bond_atom_site_label_2
_geom_bond_distance
_geom_bond_site_symmetry_2
Li0 O3 1.941241 1_555
Li0 O29 1.992237 1_555
Li0 O0 2.033536 1_565
Li0 O5 2.137882 1_565
Li0 O28 2.145082 1_555
Li1 O22 1.941241 1_555
Li1 O24 1.992237 1_555
Li1 O20 2.033536 1_645
Li1 O14 2.137882 1_545
Li1 O25 2.145082 1_655
H0 O12 1.060931 1_555
H0 O3 1.407342 1_555
H1 O9 1.060931 1_555
H1 O22 1.407342 1_455
H2 O28 1.074045 1_554
H2 O19 1.383644 1_555
H3 O25 1.074045 1_556
H3 O6 1.383644 1_455
O0 P7 1.567124 1_545
O0 V0 1.936249 1_555
O1 P0 1.528226 1_555
O1 V3 1.980153 1_455
O2 P1 1.537410 1_555
O2 V3 1.966683 1_555
O3 P0 1.512985 1_555
O4 P2 1.542948 1_565
O4 V3 1.907055 1_455
O5 P2 1.556966 1_555
O5 V0 2.027371 1_555
O6 P1 1.492113 1_555
O7 P0 1.576729 1_555
O7 V0 1.894209 1_555
O8 P3 1.565048 1_545
O8 V0 1.933983 1_555
O9 P2 1.529762 1_555
O10 P1 1.591037 1_555
O10 V0 1.833849 1_555
O11 P1 1.582381 1_555
O11 V1 1.829465 1_655
O12 P3 1.529762 1_555
O13 P2 1.565048 1_565
O13 V1 1.933983 1_555
O14 P3 1.556966 1_555
O14 V1 2.027371 1_655
O15 P3 1.542948 1_545
O15 V2 1.907055 1_555
O16 P4 1.582381 1_555
O16 V0 1.829465 1_555
O17 P4 1.591037 1_555
O17 V1 1.833849 1_555
O18 P5 1.576729 1_555
O18 V1 1.894209 1_655
O19 P4 1.492113 1_555
O20 P6 1.567124 1_565
O20 V1 1.936249 1_555
O21 P6 1.515685 1_555
O21 V2 1.956235 1_555
O22 P5 1.512985 1_555
O23 P4 1.537410 1_555
O23 V2 1.966683 1_555
O24 P7 1.546780 1_544
O24 V2 2.054231 1_555
O25 P6 1.552279 1_555
O26 P5 1.528226 1_555
O26 V2 1.980153 1_555
O27 P5 1.559910 1_555
O27 V3 1.847342 1_554
O28 P7 1.552279 1_555
O29 P6 1.546780 1_566
O29 V3 2.054231 1_455
O30 P7 1.515685 1_555
O30 V3 1.956235 1_555
O31 P0 1.559910 1_555
O31 V2 1.847342 1_556
