# generated using pymatgen
data_Li5V3P8O29
_symmetry_space_group_name_H-M   'P 1'
_cell_length_a   9.79589300
_cell_length_b   9.79916388
_cell_length_c   14.01313396
_cell_angle_alpha   90.29499134
_cell_angle_beta   90.21185341
_cell_angle_gamma   119.98467559
_symmetry_Int_Tables_number   1
_chemical_formula_structural   Li5V3P8O29
_chemical_formula_sum   'Li10 V6 P16 O58'
_cell_volume   1165.06153418
_cell_formula_units_Z   2
loop_
 _symmetry_equiv_pos_site_id
 _symmetry_equiv_pos_as_xyz
  1  'x, y, z'
loop_
 _atom_site_type_symbol
 _atom_site_label
 _atom_site_symmetry_multiplicity
 _atom_site_fract_x
 _atom_site_fract_y
 _atom_site_fract_z
 _atom_site_occupancy
  Li  Li0  1  0.09437800  0.32159700  0.44416800  1
  Li  Li1  1  0.67458600  0.76776900  0.44050800  1
  Li  Li2  1  0.32753500  0.65579400  0.11059700  1
  Li  Li3  1  0.67240700  0.90936600  0.93754400  1
  Li  Li4  1  0.08800100  0.76882200  0.93743100  1
  Li  Li5  1  0.77633200  0.09321400  0.56223600  1
  Li  Li6  1  0.22661400  0.91542500  0.44178500  1
  Li  Li7  1  0.33650900  0.10456400  0.05536000  1
  Li  Li8  1  0.90932000  0.68114400  0.56095700  1
  Li  Li9  1  0.99417200  0.03678700  0.00023800  1
  V  V0  1  0.56673100  0.00028100  0.74782700  1
  V  V1  1  0.43170600  0.00154000  0.25416500  1
  V  V2  1  0.99797700  0.43116100  0.24463200  1
  V  V3  1  0.99928500  0.56216300  0.75490400  1
  V  V4  1  0.43063600  0.43152100  0.75289400  1
  V  V5  1  0.56874200  0.56173100  0.24693000  1
  P  P0  1  0.22254300  0.30623600  0.15656200  1
  P  P1  1  0.08965000  0.31883900  0.66047800  1
  P  P2  1  0.67913200  0.76437100  0.65597800  1
  P  P3  1  0.33689200  0.66837600  0.87243600  1
  P  P4  1  0.33336700  0.66547900  0.37041200  1
  P  P5  1  0.68063800  0.90609000  0.15767200  1
  P  P6  1  0.77119700  0.08726500  0.34113500  1
  P  P7  1  0.09141100  0.77484800  0.15648500  1
  P  P8  1  0.91516400  0.22203200  0.84322800  1
  P  P9  1  0.22771700  0.90793000  0.65831100  1
  P  P10  1  0.31523400  0.08828900  0.83980200  1
  P  P11  1  0.66712800  0.33626900  0.63025000  1
  P  P12  1  0.66385200  0.33047200  0.12700500  1
  P  P13  1  0.31386400  0.23245600  0.34454500  1
  P  P14  1  0.91347300  0.68072100  0.34003600  1
  P  P15  1  0.77387000  0.69244900  0.84172000  1
  O  O0  1  0.23624300  0.24697400  0.43117300  1
  O  O1  1  0.25601400  0.33903800  0.66667100  1
  O  O2  1  0.99395200  0.19966200  0.92672100  1
  O  O3  1  0.08714300  0.34138500  0.15783400  1
  O  O4  1  0.37909200  0.47041300  0.16822200  1
  O  O5  1  0.33086200  0.51824000  0.82664200  1
  O  O6  1  0.52008700  0.61648000  0.67668000  1
  O  O7  1  0.78451300  0.79726100  0.92259800  1
  O  O8  1  0.65580500  0.73663300  0.16770500  1
  O  O9  1  0.18332700  0.51619600  0.32735900  1
  O  O10  1  0.10179200  0.47983000  0.68041400  1
  O  O11  1  0.48274900  0.66722400  0.32553000  1
  O  O12  1  0.33967800  0.66553000  0.97965400  1
  O  O13  1  0.33987400  0.66533900  0.47651300  1
  O  O14  1  0.48999000  0.81451900  0.83570800  1
  O  O15  1  0.11124000  0.62783900  0.16962400  1
  O  O16  1  0.18911900  0.67640200  0.83699000  1
  O  O17  1  0.66340200  0.91407400  0.65655300  1
  O  O18  1  0.78992000  0.99822800  0.24915400  1
  O  O19  1  0.75257900  0.99606300  0.43053300  1
  O  O20  1  0.76604000  0.98101400  0.06796600  1
  O  O21  1  0.51754700  0.89240700  0.17022100  1
  O  O22  1  0.32754000  0.81479900  0.33296100  1
  O  O23  1  0.74056500  0.08405800  0.83519000  1
  O  O24  1  0.37908900  0.89895500  0.68038600  1
  O  O25  1  0.08120800  0.74068200  0.66317800  1
  O  O26  1  0.99233600  0.20182600  0.74528800  1
  O  O27  1  0.00333600  0.24552700  0.56864200  1
  O  O28  1  0.99996300  0.76255900  0.43000100  1
  O  O29  1  0.91792300  0.25159900  0.34179100  1
  O  O30  1  0.62045800  0.09741800  0.32014300  1
  O  O31  1  0.26015200  0.92337300  0.16397700  1
  O  O32  1  0.67073200  0.18527100  0.66548600  1
  O  O33  1  0.47209500  0.09227100  0.82832500  1
  O  O34  1  0.22677400  0.00514800  0.92888700  1
  O  O35  1  0.23936400  0.98943800  0.56752500  1
  O  O36  1  0.20587200  0.99901800  0.74835300  1
  O  O37  1  0.33667700  0.08642800  0.34365100  1
  O  O38  1  0.81458400  0.33459100  0.17075900  1
  O  O39  1  0.91841900  0.38027900  0.83483300  1
  O  O40  1  0.51374200  0.18449100  0.16617500  1
  O  O41  1  0.66111200  0.34092800  0.02198900  1
  O  O42  1  0.66367300  0.34374700  0.52440700  1
  O  O43  1  0.52402600  0.33904900  0.68092300  1
  O  O44  1  0.90315100  0.52153600  0.32395400  1
  O  O45  1  0.81737800  0.48528600  0.67265400  1
  O  O46  1  0.34109400  0.25747800  0.83516400  1
  O  O47  1  0.20567500  0.20713700  0.25169900  1
  O  O48  1  0.21834700  0.20909000  0.07315800  1
  O  O49  1  0.47398500  0.38243000  0.32159100  1
  O  O50  1  0.66616800  0.47986400  0.17695500  1
  O  O51  1  0.61628500  0.53637600  0.83079400  1
  O  O52  1  0.91436700  0.66098600  0.84255800  1
  O  O53  1  0.01472300  0.77915600  0.06592300  1
  O  O54  1  0.00132100  0.79038800  0.24855800  1
  O  O55  1  0.74600800  0.66323700  0.33820900  1
  O  O56  1  0.75298500  0.75050700  0.56501000  1
  O  O57  1  0.79647100  0.78689200  0.74258200  1
loop_
_geom_bond_atom_site_label_1
_geom_bond_atom_site_label_2
_geom_bond_distance
_geom_bond_site_symmetry_2
Li0 O0 1.874930 1_555
Li0 O27 1.937502 1_555
Li0 O29 2.074343 1_455
Li0 O9 2.335965 1_555
Li1 O56 1.945571 1_555
Li1 O19 1.975719 1_555
Li1 O55 2.074217 1_555
Li1 O11 2.282271 1_555
Li2 O12 1.839093 1_554
Li2 O15 2.164185 1_555
Li2 O4 2.266323 1_555
Li2 O21 2.278915 1_555
Li3 O7 1.913583 1_555
Li3 O20 2.001284 1_556
Li3 O23 2.079263 1_565
Li3 O14 2.097821 1_555
Li4 O53 1.961615 1_556
Li4 O52 1.987326 1_455
Li4 O34 2.020555 1_565
Li4 O16 2.162460 1_555
Li5 O27 1.964769 1_655
Li5 O19 2.030739 1_545
Li5 O17 2.036122 1_545
Li5 O32 2.215305 1_555
Li6 O35 1.881745 1_555
Li6 O28 1.967510 1_455
Li6 O37 2.022451 1_565
Li6 O22 2.290272 1_555
Li7 O48 1.906747 1_555
Li7 O34 2.041316 1_554
Li7 O40 2.155792 1_555
Li7 O31 2.176565 1_545
Li8 O56 1.962450 1_555
Li8 O28 2.027701 1_555
Li8 O25 2.054039 1_655
Li8 O45 2.293074 1_555
Li9 O2 1.904998 1_554
Li9 O48 2.230899 1_655
Li9 O20 2.234686 1_545
Li9 O7 2.459624 1_544
O0 P13 1.478240 1_555
O1 P1 1.542380 1_555
O1 V4 1.905569 1_555
O2 P8 1.475700 1_555
O3 P0 1.528048 1_555
O3 V2 1.944522 1_455
O4 P0 1.579904 1_555
O4 V5 1.944645 1_555
O5 P3 1.575715 1_555
O5 V4 1.890494 1_555
O6 P2 1.537061 1_555
O6 V4 1.905995 1_555
O7 P15 1.493434 1_555
O8 P5 1.560521 1_555
O8 V5 1.860883 1_555
O9 P4 1.580961 1_555
O9 V2 1.948623 1_455
O10 P1 1.545511 1_555
O10 V3 1.886180 1_455
O11 P4 1.587166 1_555
O11 V5 1.963903 1_555
O12 P3 1.503263 1_555
O13 P4 1.487975 1_555
O14 P3 1.559325 1_555
O14 V0 2.014292 1_565
O15 P7 1.558530 1_555
O15 V2 1.985539 1_455
O16 P3 1.567559 1_555
O16 V3 1.981052 1_455
O17 P2 1.549716 1_555
O17 V0 2.010905 1_565
O18 P6 1.614423 1_565
O18 P5 1.617535 1_555
O19 P6 1.500547 1_565
O20 P5 1.490796 1_555
O21 P5 1.545802 1_555
O21 V1 2.031665 1_565
O22 P4 1.584561 1_555
O22 V1 1.942099 1_565
O23 P8 1.565762 1_555
O23 V0 1.910326 1_555
O24 P9 1.558663 1_555
O24 V0 1.846874 1_565
O25 P9 1.549589 1_555
O25 V3 1.995983 1_455
O26 P1 1.601805 1_655
O26 P8 1.627511 1_555
O27 P1 1.504139 1_555
O28 P14 1.500948 1_555
O29 P6 1.531470 1_555
O29 V2 2.053791 1_555
O30 P6 1.555885 1_555
O30 V1 1.843458 1_555
O31 P7 1.566547 1_555
O31 V1 1.922445 1_565
O32 P11 1.579252 1_555
O32 V0 1.959501 1_555
O33 P10 1.526588 1_555
O33 V0 1.943441 1_555
O34 P10 1.511911 1_555
O35 P9 1.479828 1_555
O36 P10 1.611434 1_565
O36 P9 1.617370 1_555
O37 P13 1.554732 1_555
O37 V1 1.975563 1_555
O38 P12 1.578370 1_555
O38 V2 1.863179 1_555
O39 P8 1.540122 1_555
O39 V3 1.916917 1_555
O40 P12 1.556083 1_555
O40 V1 1.992536 1_555
O41 P12 1.476768 1_555
O42 P11 1.486473 1_555
O43 P11 1.585993 1_555
O43 V4 1.871148 1_555
O44 P14 1.527349 1_555
O44 V2 1.924175 1_555
O45 P11 1.577355 1_555
O45 V3 1.924933 1_555
O46 P10 1.548711 1_555
O46 V4 1.881379 1_555
O47 P13 1.612815 1_555
O47 P0 1.613141 1_555
O48 P0 1.490958 1_555
O49 P13 1.558221 1_555
O49 V5 1.854517 1_555
O50 P12 1.609236 1_555
O50 V5 1.811079 1_555
O51 P15 1.543202 1_555
O51 V4 1.913301 1_555
O52 P15 1.553520 1_555
O52 V3 1.984680 1_555
O53 P7 1.483857 1_555
O54 P7 1.614756 1_555
O54 P14 1.623775 1_455
O55 P14 1.562006 1_555
O55 V5 1.971012 1_555
O56 P2 1.506686 1_555
O57 P2 1.605024 1_555
O57 P15 1.626709 1_555
