# generated using pymatgen
data_TeH14C2(NO2)4
_symmetry_space_group_name_H-M   'P 1'
_cell_length_a   8.75772690
_cell_length_b   8.75772690
_cell_length_c   9.99927131
_cell_angle_alpha   57.18883815
_cell_angle_beta   57.18883815
_cell_angle_gamma   62.02697813
_symmetry_Int_Tables_number   1
_chemical_formula_structural   TeH14C2(NO2)4
_chemical_formula_sum   'Te2 H28 C4 N8 O16'
_cell_volume   524.76149977
_cell_formula_units_Z   2
loop_
 _symmetry_equiv_pos_site_id
 _symmetry_equiv_pos_as_xyz
  1  'x, y, z'
loop_
 _atom_site_type_symbol
 _atom_site_label
 _atom_site_symmetry_multiplicity
 _atom_site_fract_x
 _atom_site_fract_y
 _atom_site_fract_z
 _atom_site_occupancy
  Te  Te0  1  0.56622500  0.43377500  0.25000000  1
  Te  Te1  1  0.43377500  0.56622500  0.75000000  1
  H  H0  1  0.33172800  0.97138900  0.41087100  1
  H  H1  1  0.53446000  0.66921100  0.33710700  1
  H  H2  1  0.09057200  0.68396500  0.80217600  1
  H  H3  1  0.34966400  0.88807500  0.10238900  1
  H  H4  1  0.83594000  0.89719400  0.68133900  1
  H  H5  1  0.10764500  0.68982600  0.55335400  1
  H  H6  1  0.73853600  0.65240600  0.96639600  1
  H  H7  1  0.11192500  0.65033600  0.39761100  1
  H  H8  1  0.34759400  0.26146400  0.53360400  1
  H  H9  1  0.97138900  0.33172800  0.91087100  1
  H  H10  1  0.68396500  0.09057200  0.30217600  1
  H  H11  1  0.31017400  0.89235500  0.94664600  1
  H  H12  1  0.10280600  0.16406000  0.81866100  1
  H  H13  1  0.33078900  0.46554000  0.16289300  1
  H  H14  1  0.66921100  0.53446000  0.83710700  1
  H  H15  1  0.89719400  0.83594000  0.18133900  1
  H  H16  1  0.68982600  0.10764500  0.05335400  1
  H  H17  1  0.31603500  0.90942800  0.69782400  1
  H  H18  1  0.02861100  0.66827200  0.08912900  1
  H  H19  1  0.65240600  0.73853600  0.46639600  1
  H  H20  1  0.88807500  0.34966400  0.60238900  1
  H  H21  1  0.26146400  0.34759400  0.03360400  1
  H  H22  1  0.89235500  0.31017400  0.44664600  1
  H  H23  1  0.16406000  0.10280600  0.31866100  1
  H  H24  1  0.65033600  0.11192500  0.89761100  1
  H  H25  1  0.90942800  0.31603500  0.19782400  1
  H  H26  1  0.46554000  0.33078900  0.66289300  1
  H  H27  1  0.66827200  0.02861100  0.58912900  1
  C  C0  1  0.83764700  0.87633100  0.98683300  1
  C  C1  1  0.87633100  0.83764700  0.48683300  1
  C  C2  1  0.12366900  0.16235300  0.51316700  1
  C  C3  1  0.16235300  0.12366900  0.01316700  1
  N  N0  1  0.29101600  0.96065100  0.01323300  1
  N  N1  1  0.78910900  0.92855400  0.59293200  1
  N  N2  1  0.03934900  0.70898400  0.48676700  1
  N  N3  1  0.07144600  0.21089100  0.90706800  1
  N  N4  1  0.92855400  0.78910900  0.09293200  1
  N  N5  1  0.96065100  0.29101600  0.51323300  1
  N  N6  1  0.21089100  0.07144600  0.40706800  1
  N  N7  1  0.70898400  0.03934900  0.98676700  1
  O  O0  1  0.20771100  0.62866900  0.71901900  1
  O  O1  1  0.87337800  0.80298100  0.88747000  1
  O  O2  1  0.48859900  0.67494300  0.26206900  1
  O  O3  1  0.69102200  0.54921900  0.99611000  1
  O  O4  1  0.45078100  0.30897800  0.50389000  1
  O  O5  1  0.32505700  0.51140100  0.23793100  1
  O  O6  1  0.62866900  0.20771100  0.21901900  1
  O  O7  1  0.80298100  0.87337800  0.38747000  1
  O  O8  1  0.19701900  0.12662200  0.61253000  1
  O  O9  1  0.37133100  0.79228900  0.78098100  1
  O  O10  1  0.67494300  0.48859900  0.76206900  1
  O  O11  1  0.54921900  0.69102200  0.49611000  1
  O  O12  1  0.30897800  0.45078100  0.00389000  1
  O  O13  1  0.51140100  0.32505700  0.73793100  1
  O  O14  1  0.12662200  0.19701900  0.11253000  1
  O  O15  1  0.79228900  0.37133100  0.28098100  1
loop_
_geom_bond_atom_site_label_1
_geom_bond_atom_site_label_2
_geom_bond_distance
_geom_bond_site_symmetry_2
H0 N6 1.013300 1_565
H1 O2 0.996837 1_555
H2 O0 1.012038 1_555
H3 N0 1.019047 1_555
H4 N1 1.024324 1_555
H5 N2 1.022543 1_555
H6 O3 1.002927 1_555
H7 N2 1.019047 1_555
H8 O4 1.002927 1_555
H9 N3 1.013300 1_655
H10 O6 1.012038 1_555
H11 N0 1.022543 1_556
H12 N3 1.024324 1_555
H13 O5 0.996837 1_555
H14 O10 0.996837 1_555
H15 N4 1.024324 1_555
H16 N7 1.022543 1_554
H17 O9 1.012038 1_555
H18 N4 1.013300 1_455
H19 O11 1.002927 1_555
H20 N5 1.019047 1_555
H21 O12 1.002927 1_555
H22 N5 1.022543 1_555
H23 N6 1.024324 1_555
H24 N7 1.019047 1_555
H25 O15 1.012038 1_555
H26 O13 0.996837 1_555
H27 N1 1.013300 1_545
C0 O1 1.289923 1_555
C0 N7 1.341103 1_565
C0 N4 1.345163 1_556
C1 O7 1.289923 1_555
C1 N2 1.341103 1_655
C1 N1 1.345163 1_555
C2 O8 1.289923 1_555
C2 N5 1.341103 1_455
C2 N6 1.345163 1_555
C3 O14 1.289923 1_555
C3 N0 1.341103 1_545
C3 N3 1.345163 1_554
O0 Te1 1.944238 1_555
O2 Te0 1.943697 1_555
O3 Te0 1.977294 1_556
O4 Te0 1.977294 1_555
O5 Te0 1.943697 1_555
O6 Te0 1.944238 1_555
O9 Te1 1.944238 1_555
O10 Te1 1.943697 1_555
O11 Te1 1.977294 1_555
O12 Te1 1.977294 1_554
O13 Te1 1.943697 1_555
O15 Te0 1.944238 1_555
