# generated using pymatgen
data_Rb7U8V2ClO32
_symmetry_space_group_name_H-M   'P 1'
_cell_length_a   11.91407000
_cell_length_b   14.44647800
_cell_length_c   21.60299300
_cell_angle_alpha   90.00000000
_cell_angle_beta   90.00000000
_cell_angle_gamma   90.00000000
_symmetry_Int_Tables_number   1
_chemical_formula_structural   Rb7U8V2ClO32
_chemical_formula_sum   'Rb28 U32 V8 Cl4 O128'
_cell_volume   3718.22830738
_cell_formula_units_Z   4
loop_
 _symmetry_equiv_pos_site_id
 _symmetry_equiv_pos_as_xyz
  1  'x, y, z'
loop_
 _atom_site_type_symbol
 _atom_site_label
 _atom_site_symmetry_multiplicity
 _atom_site_fract_x
 _atom_site_fract_y
 _atom_site_fract_z
 _atom_site_occupancy
  Rb  Rb0  1  0.92167400  0.52333700  0.35339900  1
  Rb  Rb1  1  0.75590500  0.98046300  0.97606500  1
  Rb  Rb2  1  0.57832600  0.02333700  0.35339900  1
  Rb  Rb3  1  0.04543200  0.97188400  0.84654000  1
  Rb  Rb4  1  0.04543200  0.97188400  0.65346000  1
  Rb  Rb5  1  0.24409500  0.01953700  0.47606500  1
  Rb  Rb6  1  0.75590500  0.98046300  0.52393500  1
  Rb  Rb7  1  0.95456800  0.02811600  0.34654000  1
  Rb  Rb8  1  0.74409500  0.48046300  0.52393500  1
  Rb  Rb9  1  0.95456800  0.02811600  0.15346000  1
  Rb  Rb10  1  0.57832600  0.02333700  0.14660100  1
  Rb  Rb11  1  0.45456800  0.47188400  0.84654000  1
  Rb  Rb12  1  0.25590500  0.51953700  0.47606500  1
  Rb  Rb13  1  0.42167400  0.97666300  0.85339900  1
  Rb  Rb14  1  0.07832600  0.47666300  0.64660100  1
  Rb  Rb15  1  0.76447500  0.36880300  0.75000000  1
  Rb  Rb16  1  0.54543200  0.52811600  0.34654000  1
  Rb  Rb17  1  0.23552500  0.63119700  0.25000000  1
  Rb  Rb18  1  0.92167400  0.52333700  0.14660100  1
  Rb  Rb19  1  0.73552500  0.86880300  0.75000000  1
  Rb  Rb20  1  0.24409500  0.01953700  0.02393500  1
  Rb  Rb21  1  0.07832600  0.47666300  0.85339900  1
  Rb  Rb22  1  0.42167400  0.97666300  0.64660100  1
  Rb  Rb23  1  0.26447500  0.13119700  0.25000000  1
  Rb  Rb24  1  0.45456800  0.47188400  0.65346000  1
  Rb  Rb25  1  0.25590500  0.51953700  0.02393500  1
  Rb  Rb26  1  0.54543200  0.52811600  0.15346000  1
  Rb  Rb27  1  0.74409500  0.48046300  0.97606500  1
  U  U0  1  0.48110700  0.22242900  0.75000000  1
  U  U1  1  0.54257400  0.72862000  0.57579900  1
  U  U2  1  0.45166000  0.73031900  0.75000000  1
  U  U3  1  0.93019700  0.72113300  0.57647100  1
  U  U4  1  0.45742600  0.27138000  0.42420100  1
  U  U5  1  0.54834000  0.26968100  0.25000000  1
  U  U6  1  0.04257400  0.77138000  0.42420100  1
  U  U7  1  0.95742600  0.22862000  0.92420100  1
  U  U8  1  0.95742600  0.22862000  0.57579900  1
  U  U9  1  0.01889300  0.72242900  0.75000000  1
  U  U10  1  0.73604400  0.74892500  0.40587400  1
  U  U11  1  0.93019700  0.72113300  0.92352900  1
  U  U12  1  0.73604400  0.74892500  0.09412600  1
  U  U13  1  0.76395600  0.24892500  0.09412600  1
  U  U14  1  0.76395600  0.24892500  0.40587400  1
  U  U15  1  0.98110700  0.27757100  0.25000000  1
  U  U16  1  0.54257400  0.72862000  0.92420100  1
  U  U17  1  0.51889300  0.77757100  0.25000000  1
  U  U18  1  0.43019700  0.77886700  0.42352900  1
  U  U19  1  0.04257400  0.77138000  0.07579900  1
  U  U20  1  0.26395600  0.25107500  0.59412600  1
  U  U21  1  0.95166000  0.76968100  0.25000000  1
  U  U22  1  0.56980300  0.22113300  0.57647100  1
  U  U23  1  0.23604400  0.75107500  0.90587400  1
  U  U24  1  0.04834000  0.23031900  0.75000000  1
  U  U25  1  0.06980300  0.27886700  0.07647100  1
  U  U26  1  0.43019700  0.77886700  0.07647100  1
  U  U27  1  0.23604400  0.75107500  0.59412600  1
  U  U28  1  0.56980300  0.22113300  0.92352900  1
  U  U29  1  0.06980300  0.27886700  0.42352900  1
  U  U30  1  0.26395600  0.25107500  0.90587400  1
  U  U31  1  0.45742600  0.27138000  0.07579900  1
  V  V0  1  0.76683200  0.13307000  0.66205900  1
  V  V1  1  0.23316800  0.86693000  0.33794100  1
  V  V2  1  0.76683200  0.13307000  0.83794100  1
  V  V3  1  0.23316800  0.86693000  0.16205900  1
  V  V4  1  0.73316800  0.63307000  0.83794100  1
  V  V5  1  0.26683200  0.36693000  0.33794100  1
  V  V6  1  0.73316800  0.63307000  0.66205900  1
  V  V7  1  0.26683200  0.36693000  0.16205900  1
  Cl  Cl0  1  0.73383200  0.68026000  0.25000000  1
  Cl  Cl1  1  0.23383200  0.81974000  0.75000000  1
  Cl  Cl2  1  0.76616800  0.18026000  0.25000000  1
  Cl  Cl3  1  0.26616800  0.31974000  0.75000000  1
  O  O0  1  0.39136700  0.30999400  0.18555100  1
  O  O1  1  0.41392600  0.15043600  0.08972900  1
  O  O2  1  0.76057700  0.37705200  0.40847300  1
  O  O3  1  0.76476700  0.16715300  0.91660400  1
  O  O4  1  0.26057700  0.12294800  0.90847300  1
  O  O5  1  0.22514100  0.98141000  0.33089000  1
  O  O6  1  0.10863300  0.80999400  0.31444900  1
  O  O7  1  0.38058800  0.76218700  0.52498300  1
  O  O8  1  0.22514100  0.98141000  0.16911000  1
  O  O9  1  0.60898100  0.34307500  0.59031700  1
  O  O10  1  0.86238800  0.68233900  0.68576100  1
  O  O11  1  0.26476700  0.33284700  0.41660400  1
  O  O12  1  0.11941200  0.26218700  0.97501700  1
  O  O13  1  0.09164100  0.75483100  0.52530500  1
  O  O14  1  0.92833400  0.26259600  0.14992500  1
  O  O15  1  0.10898100  0.15692500  0.40968300  1
  O  O16  1  0.09164100  0.75483100  0.97469500  1
  O  O17  1  0.77485900  0.01859000  0.66911000  1
  O  O18  1  0.00025100  0.64782200  0.25000000  1
  O  O19  1  0.46897100  0.65608800  0.25000000  1
  O  O20  1  0.51115500  0.60451800  0.93530800  1
  O  O21  1  0.54137300  0.09640300  0.93385800  1
  O  O22  1  0.36238800  0.81766100  0.18576100  1
  O  O23  1  0.39101900  0.65692500  0.40968300  1
  O  O24  1  0.57166600  0.76259600  0.14992500  1
  O  O25  1  0.92769700  0.39738300  0.25000000  1
  O  O26  1  0.07166600  0.73740400  0.85007500  1
  O  O27  1  0.90835900  0.24516900  0.47469500  1
  O  O28  1  0.91392600  0.34956400  0.91027100  1
  O  O29  1  0.01115500  0.89548200  0.06469200  1
  O  O30  1  0.58607400  0.84956400  0.91027100  1
  O  O31  1  0.40083200  0.74603500  0.85043000  1
  O  O32  1  0.27485900  0.48141000  0.33089000  1
  O  O33  1  0.48884500  0.39548200  0.06469200  1
  O  O34  1  0.88058800  0.73781300  0.02498300  1
  O  O35  1  0.27485900  0.48141000  0.16911000  1
  O  O36  1  0.91392600  0.34956400  0.58972900  1
  O  O37  1  0.07166600  0.73740400  0.64992500  1
  O  O38  1  0.36238800  0.81766100  0.31423900  1
  O  O39  1  0.49974900  0.14782200  0.25000000  1
  O  O40  1  0.54137300  0.09640300  0.56614200  1
  O  O41  1  0.39101900  0.65692500  0.09031700  1
  O  O42  1  0.48884500  0.39548200  0.43530800  1
  O  O43  1  0.76857800  0.12004700  0.40332400  1
  O  O44  1  0.51115500  0.60451800  0.56469200  1
  O  O45  1  0.08607400  0.65043600  0.08972900  1
  O  O46  1  0.77485900  0.01859000  0.83089000  1
  O  O47  1  0.95862700  0.59640300  0.93385800  1
  O  O48  1  0.23142200  0.87995300  0.59667600  1
  O  O49  1  0.04137300  0.40359700  0.06614200  1
  O  O50  1  0.92833400  0.26259600  0.35007500  1
  O  O51  1  0.11941200  0.26218700  0.52498300  1
  O  O52  1  0.01115500  0.89548200  0.43530800  1
  O  O53  1  0.90835900  0.24516900  0.02530500  1
  O  O54  1  0.86238800  0.68233900  0.81423900  1
  O  O55  1  0.26476700  0.33284700  0.08339600  1
  O  O56  1  0.09764800  0.10920500  0.75000000  1
  O  O57  1  0.60898100  0.34307500  0.90968300  1
  O  O58  1  0.73142200  0.62004700  0.40332400  1
  O  O59  1  0.73142200  0.62004700  0.09667600  1
  O  O60  1  0.96897100  0.84391200  0.75000000  1
  O  O61  1  0.26057700  0.12294800  0.59152700  1
  O  O62  1  0.40235200  0.60920500  0.75000000  1
  O  O63  1  0.76476700  0.16715300  0.58339600  1
  O  O64  1  0.90235200  0.89079500  0.25000000  1
  O  O65  1  0.10898100  0.15692500  0.09031700  1
  O  O66  1  0.89101900  0.84307500  0.90968300  1
  O  O67  1  0.61941200  0.23781300  0.47501700  1
  O  O68  1  0.76057700  0.37705200  0.09152700  1
  O  O69  1  0.73942300  0.87705200  0.09152700  1
  O  O70  1  0.57166600  0.76259600  0.35007500  1
  O  O71  1  0.98884500  0.10451800  0.56469200  1
  O  O72  1  0.23942300  0.62294800  0.59152700  1
  O  O73  1  0.63761200  0.18233900  0.68576100  1
  O  O74  1  0.26857800  0.37995300  0.90332400  1
  O  O75  1  0.60863300  0.69000600  0.81444900  1
  O  O76  1  0.98884500  0.10451800  0.93530800  1
  O  O77  1  0.58607400  0.84956400  0.58972900  1
  O  O78  1  0.23523300  0.83284700  0.41660400  1
  O  O79  1  0.23142200  0.87995300  0.90332400  1
  O  O80  1  0.45862700  0.90359700  0.43385800  1
  O  O81  1  0.45862700  0.90359700  0.06614200  1
  O  O82  1  0.07230300  0.60261700  0.75000000  1
  O  O83  1  0.08607400  0.65043600  0.41027100  1
  O  O84  1  0.42833400  0.23740400  0.85007500  1
  O  O85  1  0.60863300  0.69000600  0.68555100  1
  O  O86  1  0.61941200  0.23781300  0.02498300  1
  O  O87  1  0.59916800  0.25396500  0.14957000  1
  O  O88  1  0.42769700  0.10261700  0.75000000  1
  O  O89  1  0.89136700  0.19000600  0.68555100  1
  O  O90  1  0.13761200  0.31766100  0.18576100  1
  O  O91  1  0.88058800  0.73781300  0.47501700  1
  O  O92  1  0.41392600  0.15043600  0.41027100  1
  O  O93  1  0.09916800  0.24603500  0.64957000  1
  O  O94  1  0.59164100  0.74516900  0.47469500  1
  O  O95  1  0.39136700  0.30999400  0.31444900  1
  O  O96  1  0.23523300  0.83284700  0.08339600  1
  O  O97  1  0.76857800  0.12004700  0.09667600  1
  O  O98  1  0.72514100  0.51859000  0.66911000  1
  O  O99  1  0.72514100  0.51859000  0.83089000  1
  O  O100  1  0.59164100  0.74516900  0.02530500  1
  O  O101  1  0.40083200  0.74603500  0.64957000  1
  O  O102  1  0.59764800  0.39079500  0.25000000  1
  O  O103  1  0.09916800  0.24603500  0.85043000  1
  O  O104  1  0.13761200  0.31766100  0.31423900  1
  O  O105  1  0.40835900  0.25483100  0.52530500  1
  O  O106  1  0.03102900  0.15608800  0.25000000  1
  O  O107  1  0.50025100  0.85217800  0.75000000  1
  O  O108  1  0.89136700  0.19000600  0.81444900  1
  O  O109  1  0.10863300  0.80999400  0.18555100  1
  O  O110  1  0.42833400  0.23740400  0.64992500  1
  O  O111  1  0.90083200  0.75396500  0.35043000  1
  O  O112  1  0.59916800  0.25396500  0.35043000  1
  O  O113  1  0.04137300  0.40359700  0.43385800  1
  O  O114  1  0.90083200  0.75396500  0.14957000  1
  O  O115  1  0.40835900  0.25483100  0.97469500  1
  O  O116  1  0.73942300  0.87705200  0.40847300  1
  O  O117  1  0.57230300  0.89738300  0.25000000  1
  O  O118  1  0.53102900  0.34391200  0.75000000  1
  O  O119  1  0.63761200  0.18233900  0.81423900  1
  O  O120  1  0.95862700  0.59640300  0.56614200  1
  O  O121  1  0.23942300  0.62294800  0.90847300  1
  O  O122  1  0.26857800  0.37995300  0.59667600  1
  O  O123  1  0.99974900  0.35217800  0.75000000  1
  O  O124  1  0.73523300  0.66715300  0.91660400  1
  O  O125  1  0.38058800  0.76218700  0.97501700  1
  O  O126  1  0.89101900  0.84307500  0.59031700  1
  O  O127  1  0.73523300  0.66715300  0.58339600  1
loop_
_geom_bond_atom_site_label_1
_geom_bond_atom_site_label_2
_geom_bond_distance
_geom_bond_site_symmetry_2
Cl0 U21 2.898957 1_555
Cl0 U17 2.921295 1_555
Cl1 U2 2.898957 1_555
Cl1 U9 2.921295 1_555
Cl2 U5 2.898957 1_555
Cl2 U15 2.921295 1_555
Cl3 U24 2.898957 1_555
Cl3 U0 2.921295 1_555
O0 V7 1.770740 1_555
O0 U5 2.403174 1_555
O0 U31 2.559708 1_555
O0 Rb23 3.300884 1_555
O1 U31 1.847137 1_555
O1 Rb10 2.952500 1_555
O1 Rb20 3.112922 1_555
O2 U14 1.852273 1_555
O2 Rb8 2.914108 1_555
O2 Rb0 3.092795 1_555
O3 V2 1.769422 1_555
O3 U28 2.454785 1_555
O3 U7 2.466595 1_555
O3 Rb1 2.989157 1_545
O4 U30 1.852273 1_555
O4 Rb20 2.914108 1_556
O4 Rb13 3.092795 1_545
O5 V1 1.663584 1_555
O5 Rb23 2.820583 1_565
O5 Rb5 3.192212 1_565
O6 V1 1.770740 1_555
O6 U21 2.403174 1_455
O6 U6 2.559708 1_555
O6 Rb17 3.300884 1_555
O7 U1 2.272626 1_555
O7 U18 2.282760 1_555
O7 U27 2.285290 1_555
O8 V3 1.663584 1_555
O8 Rb23 2.820583 1_565
O8 Rb20 3.192212 1_565
O9 U22 1.846806 1_555
O9 Rb8 2.930382 1_555
O9 Rb24 2.950910 1_555
O10 V6 1.771710 1_555
O10 U9 2.395426 1_655
O10 U3 2.557546 1_555
O10 Rb19 3.386242 1_555
O11 V5 1.769422 1_555
O11 U29 2.454785 1_555
O11 U4 2.466595 1_555
O11 Rb12 2.989157 1_555
O12 U7 2.272626 1_455
O12 U25 2.282760 1_556
O12 U30 2.285290 1_555
O13 U3 2.271221 1_455
O13 U6 2.273633 1_555
O13 U27 2.274469 1_555
O14 U15 2.261860 1_555
O14 U13 2.308122 1_555
O14 U25 2.326819 1_655
O15 U29 1.846806 1_555
O15 Rb5 2.930382 1_555
O15 Rb7 2.950910 1_455
O16 U11 2.271221 1_455
O16 U19 2.273633 1_556
O16 U23 2.274469 1_555
O17 V0 1.663584 1_555
O17 Rb19 2.820583 1_545
O17 Rb6 3.192212 1_545
O18 U21 1.853178 1_455
O18 Rb17 2.813341 1_555
O18 Rb18 3.016636 1_455
O18 Rb0 3.016636 1_455
O19 U17 1.853048 1_555
O19 Rb17 2.804441 1_555
O19 Rb26 2.932105 1_555
O19 Rb16 2.932105 1_555
O20 U16 1.847149 1_555
O20 Rb11 2.793445 1_555
O20 Rb27 3.418940 1_555
O21 U28 1.846997 1_555
O21 Rb13 2.836765 1_545
O21 Rb1 3.188985 1_545
O22 V3 1.771710 1_555
O22 U17 2.395426 1_555
O22 U26 2.557546 1_555
O22 Rb17 3.386242 1_555
O23 U18 1.846806 1_555
O23 Rb12 2.930382 1_555
O23 Rb16 2.950910 1_555
O24 U17 2.261860 1_555
O24 U12 2.308122 1_555
O24 U26 2.326819 1_555
O25 U15 1.844125 1_555
O25 Rb18 2.881944 1_555
O25 Rb0 2.881944 1_555
O26 U9 2.261860 1_555
O26 U23 2.308122 1_555
O26 U11 2.326819 1_455
O27 U29 2.271221 1_655
O27 U8 2.273633 1_555
O27 U14 2.274469 1_555
O28 U7 1.847137 1_555
O28 Rb21 2.952500 1_655
O28 Rb27 3.112922 1_555
O29 U19 1.847149 1_555
O29 Rb9 2.793445 1_465
O29 Rb20 3.418940 1_565
O30 U16 1.847137 1_555
O30 Rb13 2.952500 1_555
O30 Rb1 3.112922 1_555
O31 U2 2.263929 1_555
O31 U23 2.300968 1_555
O31 U16 2.335569 1_555
O32 V5 1.663584 1_555
O32 Rb17 2.820583 1_555
O32 Rb12 3.192212 1_555
O33 U31 1.847149 1_555
O33 Rb26 2.793445 1_555
O33 Rb25 3.418940 1_555
O34 U19 2.272626 1_655
O34 U11 2.282760 1_554
O34 U12 2.285290 1_555
O35 V7 1.663584 1_555
O35 Rb17 2.820583 1_555
O35 Rb25 3.192212 1_555
O36 U8 1.847137 1_555
O36 Rb14 2.952500 1_655
O36 Rb8 3.112922 1_555
O37 U9 2.261860 1_555
O37 U27 2.308122 1_555
O37 U3 2.326819 1_455
O38 V1 1.771710 1_555
O38 U17 2.395426 1_555
O38 U18 2.557546 1_555
O38 Rb17 3.386242 1_555
O39 U5 1.853178 1_555
O39 Rb23 2.813341 1_555
O39 Rb2 3.016636 1_555
O39 Rb10 3.016636 1_555
O40 U22 1.846997 1_555
O40 Rb22 2.836765 1_545
O40 Rb6 3.188985 1_545
O41 U26 1.846806 1_555
O41 Rb25 2.930382 1_555
O41 Rb26 2.950910 1_555
O42 U4 1.847149 1_555
O42 Rb16 2.793445 1_555
O42 Rb12 3.418940 1_555
O43 U14 1.863462 1_555
O43 Rb7 2.859860 1_555
O43 Rb2 2.872801 1_555
O43 Rb6 3.298180 1_545
O44 U1 1.847149 1_555
O44 Rb24 2.793445 1_555
O44 Rb8 3.418940 1_555
O45 U19 1.847137 1_555
O45 Rb18 2.952500 1_455
O45 Rb25 3.112922 1_555
O46 V2 1.663584 1_555
O46 Rb19 2.820583 1_545
O46 Rb1 3.192212 1_545
O47 U11 1.846997 1_555
O47 Rb21 2.836765 1_655
O47 Rb27 3.188985 1_555
O48 U27 1.863462 1_555
O48 Rb4 2.859860 1_555
O48 Rb22 2.872801 1_555
O48 Rb5 3.298180 1_565
O49 U25 1.846997 1_555
O49 Rb18 2.836765 1_455
O49 Rb25 3.188985 1_555
O50 U15 2.261860 1_555
O50 U14 2.308122 1_555
O50 U29 2.326819 1_655
O51 U8 2.272626 1_455
O51 U29 2.282760 1_555
O51 U20 2.285290 1_555
O52 U6 1.847149 1_555
O52 Rb7 2.793445 1_465
O52 Rb5 3.418940 1_565
O53 U25 2.271221 1_655
O53 U7 2.273633 1_554
O53 U13 2.274469 1_555
O54 V4 1.771710 1_555
O54 U9 2.395426 1_655
O54 U11 2.557546 1_555
O54 Rb19 3.386242 1_555
O55 V7 1.769422 1_555
O55 U25 2.454785 1_555
O55 U31 2.466595 1_555
O55 Rb25 2.989157 1_555
O56 U24 1.845659 1_555
O56 Rb4 2.944831 1_545
O56 Rb3 2.944831 1_545
O57 U28 1.846806 1_555
O57 Rb27 2.930382 1_555
O57 Rb11 2.950910 1_555
O58 U10 1.863462 1_555
O58 Rb16 2.859860 1_555
O58 Rb0 2.872801 1_555
O58 Rb8 3.298180 1_555
O59 U12 1.863462 1_555
O59 Rb26 2.859860 1_555
O59 Rb18 2.872801 1_555
O59 Rb27 3.298180 1_554
O60 U9 1.853048 1_655
O60 Rb19 2.804441 1_555
O60 Rb3 2.932105 1_655
O60 Rb4 2.932105 1_655
O61 U20 1.852273 1_555
O61 Rb5 2.914108 1_555
O61 Rb22 3.092795 1_545
O62 U2 1.845659 1_555
O62 Rb11 2.944831 1_555
O62 Rb24 2.944831 1_555
O63 V0 1.769422 1_555
O63 U22 2.454785 1_555
O63 U8 2.466595 1_555
O63 Rb6 2.989157 1_545
O64 U21 1.845659 1_555
O64 Rb7 2.944831 1_565
O64 Rb9 2.944831 1_565
O65 U25 1.846806 1_555
O65 Rb20 2.930382 1_555
O65 Rb9 2.950910 1_455
O66 U11 1.846806 1_555
O66 Rb1 2.930382 1_555
O66 Rb3 2.950910 1_655
O67 U4 2.272626 1_555
O67 U22 2.282760 1_555
O67 U14 2.285290 1_555
O68 U13 1.852273 1_555
O68 Rb27 2.914108 1_554
O68 Rb18 3.092795 1_555
O69 U12 1.852273 1_555
O69 Rb1 2.914108 1_554
O69 Rb10 3.092795 1_565
O70 U17 2.261860 1_555
O70 U10 2.308122 1_555
O70 U18 2.326819 1_555
O71 U8 1.847149 1_555
O71 Rb4 2.793445 1_645
O71 Rb6 3.418940 1_545
O72 U27 1.852273 1_555
O72 Rb12 2.914108 1_555
O72 Rb14 3.092795 1_555
O73 V0 1.771710 1_555
O73 U0 2.395426 1_555
O73 U22 2.557546 1_555
O73 Rb15 3.386242 1_555
O74 U30 1.863462 1_555
O74 Rb11 2.859860 1_555
O74 Rb21 2.872801 1_555
O74 Rb25 3.298180 1_556
O75 V4 1.770740 1_555
O75 U2 2.403174 1_555
O75 U16 2.559708 1_555
O75 Rb19 3.300884 1_555
O76 U7 1.847149 1_555
O76 Rb3 2.793445 1_645
O76 Rb1 3.418940 1_545
O77 U1 1.847137 1_555
O77 Rb22 2.952500 1_555
O77 Rb6 3.112922 1_555
O78 V1 1.769422 1_555
O78 U18 2.454785 1_555
O78 U6 2.466595 1_555
O78 Rb5 2.989157 1_565
O79 U23 1.863462 1_555
O79 Rb3 2.859860 1_555
O79 Rb13 2.872801 1_555
O79 Rb20 3.298180 1_566
O80 U18 1.846997 1_555
O80 Rb2 2.836765 1_565
O80 Rb5 3.188985 1_565
O81 U26 1.846997 1_555
O81 Rb10 2.836765 1_565
O81 Rb20 3.188985 1_565
O82 U9 1.844125 1_555
O82 Rb14 2.881944 1_555
O82 Rb21 2.881944 1_555
O83 U6 1.847137 1_555
O83 Rb0 2.952500 1_455
O83 Rb12 3.112922 1_555
O84 U0 2.261860 1_555
O84 U30 2.308122 1_555
O84 U28 2.326819 1_555
O85 V6 1.770740 1_555
O85 U2 2.403174 1_555
O85 U1 2.559708 1_555
O85 Rb19 3.300884 1_555
O86 U31 2.272626 1_555
O86 U28 2.282760 1_554
O86 U13 2.285290 1_555
O87 U5 2.263929 1_555
O87 U13 2.300968 1_555
O87 U31 2.335569 1_555
O88 U0 1.844125 1_555
O88 Rb22 2.881944 1_545
O88 Rb13 2.881944 1_545
O89 V0 1.770740 1_555
O89 U24 2.403174 1_655
O89 U8 2.559708 1_555
O89 Rb15 3.300884 1_555
O90 V7 1.771710 1_555
O90 U15 2.395426 1_455
O90 U25 2.557546 1_555
O90 Rb23 3.386242 1_555
O91 U6 2.272626 1_655
O91 U3 2.282760 1_555
O91 U10 2.285290 1_555
O92 U4 1.847137 1_555
O92 Rb2 2.952500 1_555
O92 Rb5 3.112922 1_555
O93 U24 2.263929 1_555
O93 U20 2.300968 1_555
O93 U8 2.335569 1_455
O94 U18 2.271221 1_555
O94 U1 2.273633 1_555
O94 U10 2.274469 1_555
O95 V5 1.770740 1_555
O95 U5 2.403174 1_555
O95 U4 2.559708 1_555
O95 Rb23 3.300884 1_555
O96 V3 1.769422 1_555
O96 U26 2.454785 1_555
O96 U19 2.466595 1_555
O96 Rb20 2.989157 1_565
O97 U13 1.863462 1_555
O97 Rb9 2.859860 1_555
O97 Rb10 2.872801 1_555
O97 Rb1 3.298180 1_544
O98 V6 1.663584 1_555
O98 Rb15 2.820583 1_555
O98 Rb8 3.192212 1_555
O99 V4 1.663584 1_555
O99 Rb15 2.820583 1_555
O99 Rb27 3.192212 1_555
O100 U26 2.271221 1_555
O100 U16 2.273633 1_554
O100 U12 2.274469 1_555
O101 U2 2.263929 1_555
O101 U27 2.300968 1_555
O101 U1 2.335569 1_555
O102 U5 1.845659 1_555
O102 Rb26 2.944831 1_555
O102 Rb16 2.944831 1_555
O103 U24 2.263929 1_555
O103 U30 2.300968 1_555
O103 U7 2.335569 1_455
O104 V5 1.771710 1_555
O104 U15 2.395426 1_455
O104 U29 2.557546 1_555
O104 Rb23 3.386242 1_555
O105 U22 2.271221 1_555
O105 U4 2.273633 1_555
O105 U20 2.274469 1_555
O106 U15 1.853048 1_455
O106 Rb23 2.804441 1_555
O106 Rb7 2.932105 1_455
O106 Rb9 2.932105 1_455
O107 U2 1.853178 1_555
O107 Rb19 2.813341 1_555
O107 Rb13 3.016636 1_555
O107 Rb22 3.016636 1_555
O108 V2 1.770740 1_555
O108 U24 2.403174 1_655
O108 U7 2.559708 1_555
O108 Rb15 3.300884 1_555
O109 V3 1.770740 1_555
O109 U21 2.403174 1_455
O109 U19 2.559708 1_555
O109 Rb17 3.300884 1_555
O110 U0 2.261860 1_555
O110 U20 2.308122 1_555
O110 U22 2.326819 1_555
O111 U21 2.263929 1_555
O111 U10 2.300968 1_555
O111 U6 2.335569 1_655
O112 U5 2.263929 1_555
O112 U14 2.300968 1_555
O112 U4 2.335569 1_555
O113 U29 1.846997 1_555
O113 Rb0 2.836765 1_455
O113 Rb12 3.188985 1_555
O114 U21 2.263929 1_555
O114 U12 2.300968 1_555
O114 U19 2.335569 1_655
O115 U28 2.271221 1_555
O115 U31 2.273633 1_556
O115 U30 2.274469 1_555
O116 U10 1.852273 1_555
O116 Rb6 2.914108 1_555
O116 Rb2 3.092795 1_565
O117 U17 1.844125 1_555
O117 Rb2 2.881944 1_565
O117 Rb10 2.881944 1_565
O118 U0 1.853048 1_555
O118 Rb15 2.804441 1_555
O118 Rb24 2.932105 1_555
O118 Rb11 2.932105 1_555
O119 V2 1.771710 1_555
O119 U0 2.395426 1_555
O119 U28 2.557546 1_555
O119 Rb15 3.386242 1_555
O120 U3 1.846997 1_555
O120 Rb14 2.836765 1_655
O120 Rb8 3.188985 1_555
O121 U23 1.852273 1_555
O121 Rb25 2.914108 1_556
O121 Rb21 3.092795 1_555
O122 U20 1.863462 1_555
O122 Rb24 2.859860 1_555
O122 Rb14 2.872801 1_555
O122 Rb12 3.298180 1_555
O123 U24 1.853178 1_655
O123 Rb15 2.813341 1_555
O123 Rb21 3.016636 1_655
O123 Rb14 3.016636 1_655
O124 V4 1.769422 1_555
O124 U11 2.454785 1_555
O124 U16 2.466595 1_555
O124 Rb27 2.989157 1_555
O125 U16 2.272626 1_555
O125 U26 2.282760 1_556
O125 U23 2.285290 1_555
O126 U3 1.846806 1_555
O126 Rb6 2.930382 1_555
O126 Rb4 2.950910 1_655
O127 V6 1.769422 1_555
O127 U3 2.454785 1_555
O127 U1 2.466595 1_555
O127 Rb8 2.989157 1_555
