# generated using pymatgen
data_V3(PO4)2
_symmetry_space_group_name_H-M   'P 1'
_cell_length_a   9.74217200
_cell_length_b   8.31538500
_cell_length_c   8.69434879
_cell_angle_alpha   70.04744530
_cell_angle_beta   90.00000000
_cell_angle_gamma   90.00000000
_symmetry_Int_Tables_number   1
_chemical_formula_structural   V3(PO4)2
_chemical_formula_sum   'V12 P8 O32'
_cell_volume   662.05147172
_cell_formula_units_Z   4
loop_
 _symmetry_equiv_pos_site_id
 _symmetry_equiv_pos_as_xyz
  1  'x, y, z'
loop_
 _atom_site_type_symbol
 _atom_site_label
 _atom_site_symmetry_multiplicity
 _atom_site_fract_x
 _atom_site_fract_y
 _atom_site_fract_z
 _atom_site_occupancy
  V  V0  1  0.60724700  0.30444200  0.91592200  1
  V  V1  1  0.62716500  0.99974100  0.62782200  1
  V  V2  1  0.24063200  0.40884900  0.98335700  1
  V  V3  1  0.89275300  0.30444200  0.41592200  1
  V  V4  1  0.87283500  0.99974100  0.12782200  1
  V  V5  1  0.25936800  0.40884900  0.48335700  1
  V  V6  1  0.74063200  0.59115100  0.51664300  1
  V  V7  1  0.12716500  0.00025900  0.87217800  1
  V  V8  1  0.10724700  0.69555800  0.58407800  1
  V  V9  1  0.75936800  0.59115100  0.01664300  1
  V  V10  1  0.37283500  0.00025900  0.37217800  1
  V  V11  1  0.39275300  0.69555800  0.08407800  1
  P  P0  1  0.38950200  0.12858600  0.82584200  1
  P  P1  1  0.93568800  0.35231800  0.80857000  1
  P  P2  1  0.11049800  0.12858600  0.32584200  1
  P  P3  1  0.43568800  0.64768200  0.69143000  1
  P  P4  1  0.56431200  0.35231800  0.30857000  1
  P  P5  1  0.88950200  0.87141400  0.67415800  1
  P  P6  1  0.06431200  0.64768200  0.19143000  1
  P  P7  1  0.61049800  0.87141400  0.17415800  1
  O  O0  1  0.96387000  0.15824300  0.89893100  1
  O  O1  1  0.39129700  0.24818200  0.92989700  1
  O  O2  1  0.53728700  0.14199800  0.75880900  1
  O  O3  1  0.82122400  0.40594000  0.90553000  1
  O  O4  1  0.84049600  0.05543300  0.57447200  1
  O  O5  1  0.27479300  0.18771700  0.69394900  1
  O  O6  1  0.07194600  0.45518500  0.79826900  1
  O  O7  1  0.38066700  0.61667300  0.86690800  1
  O  O8  1  0.88066700  0.38332700  0.63309200  1
  O  O9  1  0.53613000  0.15824300  0.39893100  1
  O  O10  1  0.57194600  0.54481500  0.70173100  1
  O  O11  1  0.10870300  0.24818200  0.42989700  1
  O  O12  1  0.77479300  0.81228300  0.80605100  1
  O  O13  1  0.96271300  0.14199800  0.25880900  1
  O  O14  1  0.34049600  0.94456700  0.92552800  1
  O  O15  1  0.67877600  0.40594000  0.40553000  1
  O  O16  1  0.32122400  0.59406000  0.59447000  1
  O  O17  1  0.65950400  0.05543300  0.07447200  1
  O  O18  1  0.03728700  0.85800200  0.74119100  1
  O  O19  1  0.22520700  0.18771700  0.19394900  1
  O  O20  1  0.89129700  0.75181800  0.57010300  1
  O  O21  1  0.42805400  0.45518500  0.29826900  1
  O  O22  1  0.46387000  0.84175700  0.60106900  1
  O  O23  1  0.11933300  0.61667300  0.36690800  1
  O  O24  1  0.61933300  0.38332700  0.13309200  1
  O  O25  1  0.92805400  0.54481500  0.20173100  1
  O  O26  1  0.72520700  0.81228300  0.30605100  1
  O  O27  1  0.15950400  0.94456700  0.42552800  1
  O  O28  1  0.17877600  0.59406000  0.09447000  1
  O  O29  1  0.46271300  0.85800200  0.24119100  1
  O  O30  1  0.60870300  0.75181800  0.07010300  1
  O  O31  1  0.03613000  0.84175700  0.10106900  1
loop_
_geom_bond_atom_site_label_1
_geom_bond_atom_site_label_2
_geom_bond_distance
_geom_bond_site_symmetry_2
O0 P1 1.559385 1_555
O0 V7 2.125852 1_655
O0 V4 2.166548 1_546
O1 P0 1.556216 1_555
O1 V2 2.139909 1_555
O1 V0 2.149627 1_555
O2 P0 1.542924 1_555
O2 V1 2.093414 1_545
O2 V0 2.326883 1_555
O3 P1 1.552262 1_555
O3 V9 2.164192 1_556
O3 V0 2.239198 1_555
O4 P5 1.554177 1_545
O4 V3 2.121038 1_555
O4 V1 2.145314 1_545
O5 P0 1.555882 1_555
O5 V5 2.111495 1_555
O5 V7 2.291501 1_555
O6 P1 1.565098 1_455
O6 V2 2.239540 1_555
O6 V8 2.245228 1_555
O7 P3 1.553378 1_555
O7 V2 2.162999 1_555
O7 V11 2.203305 1_556
O8 P1 1.553378 1_555
O8 V6 2.162999 1_555
O8 V3 2.203305 1_555
O9 P4 1.559385 1_555
O9 V10 2.125852 1_555
O9 V1 2.166548 1_545
O10 P3 1.565098 1_555
O10 V6 2.239540 1_555
O10 V0 2.245228 1_555
O11 P2 1.556216 1_555
O11 V5 2.139909 1_555
O11 V3 2.149627 1_455
O12 P5 1.555882 1_555
O12 V9 2.111495 1_556
O12 V1 2.291501 1_555
O13 P2 1.542924 1_655
O13 V4 2.093414 1_545
O13 V3 2.326883 1_555
O14 P0 1.554177 1_565
O14 V11 2.121038 1_556
O14 V7 2.145314 1_565
O15 P4 1.552262 1_555
O15 V6 2.164192 1_555
O15 V3 2.239198 1_555
O16 P3 1.552262 1_555
O16 V5 2.164192 1_555
O16 V8 2.239198 1_555
O17 P7 1.554177 1_545
O17 V0 2.121038 1_554
O17 V4 2.145314 1_545
O18 P5 1.542924 1_455
O18 V7 2.093414 1_565
O18 V8 2.326883 1_555
O19 P2 1.555882 1_555
O19 V2 2.111495 1_554
O19 V10 2.291501 1_555
O20 P5 1.556216 1_555
O20 V6 2.139909 1_555
O20 V8 2.149627 1_655
O21 P4 1.565098 1_555
O21 V5 2.239540 1_555
O21 V11 2.245228 1_555
O22 P3 1.559385 1_555
O22 V1 2.125852 1_555
O22 V10 2.166548 1_565
O23 P6 1.553378 1_555
O23 V5 2.162999 1_555
O23 V8 2.203305 1_555
O24 P4 1.553378 1_555
O24 V9 2.162999 1_555
O24 V0 2.203305 1_554
O25 P6 1.565098 1_655
O25 V9 2.239540 1_555
O25 V3 2.245228 1_555
O26 P7 1.555882 1_555
O26 V6 2.111495 1_555
O26 V4 2.291501 1_555
O27 P2 1.554177 1_565
O27 V8 2.121038 1_555
O27 V10 2.145314 1_565
O28 P6 1.552262 1_555
O28 V2 2.164192 1_554
O28 V11 2.239198 1_555
O29 P7 1.542924 1_555
O29 V10 2.093414 1_565
O29 V11 2.326883 1_555
O30 P7 1.556216 1_555
O30 V9 2.139909 1_555
O30 V11 2.149627 1_555
O31 P6 1.559385 1_555
O31 V4 2.125852 1_455
O31 V7 2.166548 1_564
