# generated using pymatgen
data_Li5(FeO2)4
_symmetry_space_group_name_H-M   'P 1'
_cell_length_a   5.99623574
_cell_length_b   5.99623574
_cell_length_c   5.99623596
_cell_angle_alpha   59.25774907
_cell_angle_beta   59.25774907
_cell_angle_gamma   59.25775132
_symmetry_Int_Tables_number   1
_chemical_formula_structural   Li5(FeO2)4
_chemical_formula_sum   'Li5 Fe4 O8'
_cell_volume   149.87059852
_cell_formula_units_Z   1
loop_
 _symmetry_equiv_pos_site_id
 _symmetry_equiv_pos_as_xyz
  1  'x, y, z'
loop_
 _atom_site_type_symbol
 _atom_site_label
 _atom_site_symmetry_multiplicity
 _atom_site_fract_x
 _atom_site_fract_y
 _atom_site_fract_z
 _atom_site_occupancy
  Li  Li0  1  0.96368030  0.54919187  0.96368030  1
  Li  Li1  1  0.54919187  0.96368030  0.96368030  1
  Li  Li2  1  0.12852358  0.12852358  0.12852358  1
  Li  Li3  1  0.96368030  0.96368030  0.54919187  1
  Li  Li4  1  0.49150120  0.49150120  0.49150120  1
  Fe  Fe0  1  0.97805596  0.97805596  0.97805596  1
  Fe  Fe1  1  0.49048442  0.49048442  0.99235646  1
  Fe  Fe2  1  0.49048442  0.99235646  0.49048442  1
  Fe  Fe3  1  0.99235646  0.49048442  0.49048442  1
  O  O0  1  0.24878059  0.24878059  0.24878059  1
  O  O1  1  0.74326355  0.22974417  0.22974417  1
  O  O2  1  0.22974417  0.74326355  0.22974417  1
  O  O3  1  0.22974417  0.22974417  0.74326355  1
  O  O4  1  0.74222305  0.74222305  0.24438024  1
  O  O5  1  0.74222305  0.24438024  0.74222305  1
  O  O6  1  0.24438024  0.74222305  0.74222305  1
  O  O7  1  0.73537466  0.73537466  0.73537466  1
loop_
_geom_bond_atom_site_label_1
_geom_bond_atom_site_label_2
_geom_bond_distance
_geom_bond_site_symmetry_2
Li0 O7 1.945647 1_555
Li0 O6 2.017762 1_655
Li0 O4 2.017762 1_556
Li0 O1 2.295522 1_556
Li0 O3 2.295522 1_655
Li0 O0 2.404383 1_656
Li1 O7 1.945647 1_555
Li1 O5 2.017762 1_565
Li1 O4 2.017762 1_556
Li1 O2 2.295522 1_556
Li1 O3 2.295522 1_565
Li1 O0 2.404383 1_566
Li2 O0 1.776144 1_555
Li2 O2 1.892905 1_545
Li2 O1 1.892905 1_455
Li2 O3 1.892905 1_554
Li3 O7 1.945647 1_555
Li3 O5 2.017762 1_565
Li3 O6 2.017762 1_655
Li3 O2 2.295522 1_655
Li3 O1 2.295522 1_565
Li3 O0 2.404383 1_665
Li4 O4 2.114649 1_555
Li4 O5 2.114649 1_555
Li4 O6 2.114649 1_555
Li4 O3 2.209015 1_555
Li4 O2 2.209015 1_555
Li4 O1 2.209015 1_555
Fe0 O4 1.994137 1_556
Fe0 O5 1.994137 1_565
Fe0 O6 1.994137 1_655
Fe0 O3 2.126369 1_665
Fe0 O2 2.126369 1_656
Fe0 O1 2.126369 1_566
Fe1 O0 2.038660 1_556
Fe1 O7 2.065141 1_555
Fe1 O1 2.067794 1_556
Fe1 O2 2.067794 1_556
Fe1 O5 2.092047 1_555
Fe1 O6 2.092047 1_555
Fe2 O0 2.038660 1_565
Fe2 O7 2.065141 1_555
Fe2 O1 2.067793 1_565
Fe2 O3 2.067794 1_565
Fe2 O6 2.092047 1_555
Fe2 O4 2.092047 1_555
Fe3 O0 2.038660 1_655
Fe3 O7 2.065141 1_555
Fe3 O2 2.067793 1_655
Fe3 O3 2.067794 1_655
Fe3 O5 2.092047 1_555
Fe3 O4 2.092047 1_555
