# generated using pymatgen
data_Ba4Br6O
_symmetry_space_group_name_H-M   'P 1'
_cell_length_a   10.21923200
_cell_length_b   10.21923200
_cell_length_c   7.72419800
_cell_angle_alpha   90.00000000
_cell_angle_beta   90.00000000
_cell_angle_gamma   90.00000000
_symmetry_Int_Tables_number   1
_chemical_formula_structural   Ba4Br6O
_chemical_formula_sum   'Ba8 Br12 O2'
_cell_volume   806.65887310
_cell_formula_units_Z   2
loop_
 _symmetry_equiv_pos_site_id
 _symmetry_equiv_pos_as_xyz
  1  'x, y, z'
loop_
 _atom_site_type_symbol
 _atom_site_label
 _atom_site_symmetry_multiplicity
 _atom_site_fract_x
 _atom_site_fract_y
 _atom_site_fract_z
 _atom_site_occupancy
  Ba  Ba0  1  0.00000000  0.23213600  0.33639200  1
  Ba  Ba1  1  0.73213600  0.50000000  0.83639200  1
  Ba  Ba2  1  0.26786400  0.50000000  0.83639200  1
  Ba  Ba3  1  0.00000000  0.76786400  0.33639200  1
  Ba  Ba4  1  0.50000000  0.73213600  0.16360800  1
  Ba  Ba5  1  0.23213600  0.00000000  0.66360800  1
  Ba  Ba6  1  0.76786400  0.00000000  0.66360800  1
  Ba  Ba7  1  0.50000000  0.26786400  0.16360800  1
  Br  Br0  1  0.70531300  0.29468700  0.50000000  1
  Br  Br1  1  0.29468700  0.29468700  0.50000000  1
  Br  Br2  1  0.00000000  0.50000000  0.08929100  1
  Br  Br3  1  0.00000000  0.50000000  0.58929100  1
  Br  Br4  1  0.29468700  0.70531300  0.50000000  1
  Br  Br5  1  0.70531300  0.70531300  0.50000000  1
  Br  Br6  1  0.79468700  0.79468700  0.00000000  1
  Br  Br7  1  0.20531300  0.79468700  0.00000000  1
  Br  Br8  1  0.50000000  0.00000000  0.91070900  1
  Br  Br9  1  0.50000000  0.00000000  0.41070900  1
  Br  Br10  1  0.79468700  0.20531300  0.00000000  1
  Br  Br11  1  0.20531300  0.20531300  0.00000000  1
  O  O0  1  0.50000000  0.50000000  0.00000000  1
  O  O1  1  0.00000000  0.00000000  0.50000000  1
loop_
_geom_bond_atom_site_label_1
_geom_bond_atom_site_label_2
_geom_bond_distance
_geom_bond_site_symmetry_2
Ba0 O1 2.687865 1_555
Ba0 Br1 3.327856 1_555
Ba0 Br0 3.327856 1_455
Ba0 Br2 3.337085 1_555
Ba0 Br11 3.350940 1_555
Ba0 Br10 3.350940 1_455
Ba0 Br3 3.362900 1_555
Ba1 O0 2.687865 1_556
Ba1 Br6 3.327856 1_556
Ba1 Br10 3.327856 1_556
Ba1 Br3 3.337085 1_655
Ba1 Br5 3.350940 1_555
Ba1 Br0 3.350940 1_555
Ba1 Br2 3.362900 1_656
Ba2 O0 2.687865 1_556
Ba2 Br7 3.327856 1_556
Ba2 Br11 3.327856 1_556
Ba2 Br3 3.337085 1_555
Ba2 Br4 3.350940 1_555
Ba2 Br1 3.350940 1_555
Ba2 Br2 3.362900 1_556
Ba3 O1 2.687865 1_565
Ba3 Br4 3.327856 1_555
Ba3 Br5 3.327856 1_455
Ba3 Br2 3.337085 1_555
Ba3 Br7 3.350940 1_555
Ba3 Br6 3.350940 1_455
Ba3 Br3 3.362900 1_555
Ba4 O0 2.687865 1_555
Ba4 Br6 3.327856 1_555
Ba4 Br7 3.327856 1_555
Ba4 Br9 3.337085 1_565
Ba4 Br5 3.350940 1_555
Ba4 Br4 3.350940 1_555
Ba4 Br8 3.362900 1_564
Ba5 O1 2.687865 1_555
Ba5 Br1 3.327856 1_555
Ba5 Br4 3.327856 1_545
Ba5 Br8 3.337085 1_555
Ba5 Br11 3.350940 1_556
Ba5 Br7 3.350940 1_546
Ba5 Br9 3.362900 1_555
Ba6 O1 2.687865 1_655
Ba6 Br0 3.327856 1_555
Ba6 Br5 3.327856 1_545
Ba6 Br8 3.337085 1_555
Ba6 Br10 3.350940 1_556
Ba6 Br6 3.350940 1_546
Ba6 Br9 3.362900 1_555
Ba7 O0 2.687865 1_555
Ba7 Br10 3.327856 1_555
Ba7 Br11 3.327856 1_555
Ba7 Br9 3.337085 1_555
Ba7 Br0 3.350940 1_555
Ba7 Br1 3.350940 1_555
Ba7 Br8 3.362900 1_554
