# generated using pymatgen
data_Li5V3P8O29
_symmetry_space_group_name_H-M   'P 1'
_cell_length_a   9.73095000
_cell_length_b   9.76547344
_cell_length_c   14.13227812
_cell_angle_alpha   90.76021393
_cell_angle_beta   89.89482460
_cell_angle_gamma   119.60522173
_symmetry_Int_Tables_number   1
_chemical_formula_structural   Li5V3P8O29
_chemical_formula_sum   'Li10 V6 P16 O58'
_cell_volume   1167.51013589
_cell_formula_units_Z   2
loop_
 _symmetry_equiv_pos_site_id
 _symmetry_equiv_pos_as_xyz
  1  'x, y, z'
loop_
 _atom_site_type_symbol
 _atom_site_label
 _atom_site_symmetry_multiplicity
 _atom_site_fract_x
 _atom_site_fract_y
 _atom_site_fract_z
 _atom_site_occupancy
  Li  Li0  1  0.09834800  0.33523400  0.06278600  1
  Li  Li1  1  0.24402600  0.34401600  0.56063700  1
  Li  Li2  1  0.09962300  0.76988400  0.55746600  1
  Li  Li3  1  0.23886200  0.90199100  0.05853800  1
  Li  Li4  1  0.66234100  0.76354900  0.05689300  1
  Li  Li5  1  0.66699900  0.90804000  0.56123700  1
  Li  Li6  1  0.76646500  0.67257200  0.43867800  1
  Li  Li7  1  0.90400600  0.66839900  0.93892100  1
  Li  Li8  1  0.02458800  0.04685000  0.99520300  1
  Li  Li9  1  0.03827500  0.04845400  0.49689700  1
  V  V0  1  0.43570100  0.00094400  0.25324000  1
  V  V1  1  0.56202500  0.00291700  0.75318900  1
  V  V2  1  0.43506600  0.43177300  0.75230800  1
  V  V3  1  0.56186900  0.56297900  0.24825600  1
  V  V4  1  0.99837900  0.43070900  0.24951600  1
  V  V5  1  0.00194400  0.56309200  0.74492000  1
  P  P0  1  0.08781000  0.31355800  0.84468900  1
  P  P1  1  0.22796500  0.31437300  0.34388400  1
  P  P2  1  0.08718500  0.77614000  0.33970600  1
  P  P3  1  0.33239200  0.66822500  0.13042000  1
  P  P4  1  0.33883900  0.66747200  0.63118800  1
  P  P5  1  0.22216300  0.91259900  0.84385000  1
  P  P6  1  0.30104500  0.08204700  0.66138700  1
  P  P7  1  0.68785900  0.77625000  0.84000500  1
  P  P8  1  0.30444500  0.21729100  0.16152700  1
  P  P9  1  0.69005100  0.91471000  0.34573000  1
  P  P10  1  0.77789900  0.07999200  0.16112800  1
  P  P11  1  0.66950800  0.33571500  0.36675800  1
  P  P12  1  0.66968600  0.33839500  0.86814000  1
  P  P13  1  0.91592300  0.21663900  0.66155500  1
  P  P14  1  0.77131000  0.68343400  0.65647500  1
  P  P15  1  0.91149000  0.68367800  0.15773200  1
  O  O0  1  0.01532700  0.21042900  0.58245300  1
  O  O1  1  0.08922400  0.34575500  0.32872700  1
  O  O2  1  0.19389300  0.20059200  0.08306300  1
  O  O3  1  0.25933900  0.34247800  0.82900800  1
  O  O4  1  0.08592300  0.46745200  0.83180700  1
  O  O5  1  0.18737000  0.51258500  0.16507700  1
  O  O6  1  0.08741800  0.62131900  0.32918900  1
  O  O7  1  0.99792600  0.76777200  0.06939900  1
  O  O8  1  0.07839600  0.74236200  0.83071400  1
  O  O9  1  0.32957800  0.51428800  0.67416200  1
  O  O10  1  0.38496800  0.46923200  0.32978200  1
  O  O11  1  0.19084800  0.67718900  0.66739700  1
  O  O12  1  0.33663200  0.68333400  0.02505500  1
  O  O13  1  0.34090600  0.65844900  0.52557300  1
  O  O14  1  0.32297600  0.81173500  0.17767900  1
  O  O15  1  0.53075500  0.61687200  0.82545800  1
  O  O16  1  0.48733300  0.67645800  0.16968400  1
  O  O17  1  0.25704100  0.91943100  0.33420200  1
  O  O18  1  0.20652200  0.01426500  0.76003700  1
  O  O19  1  0.19040300  0.99305500  0.58110100  1
  O  O20  1  0.20643300  0.97894900  0.93688000  1
  O  O21  1  0.37604700  0.90717600  0.83015800  1
  O  O22  1  0.49058000  0.81366900  0.67247700  1
  O  O23  1  0.33923500  0.07743400  0.15945700  1
  O  O24  1  0.53094100  0.91371800  0.32863600  1
  O  O25  1  0.66347900  0.74494700  0.33661000  1
  O  O26  1  0.21205200  0.19395400  0.26090200  1
  O  O27  1  0.21527500  0.23714600  0.43681200  1
  O  O28  1  0.76533600  0.76697600  0.56898100  1
  O  O29  1  0.34000100  0.25759900  0.66025700  1
  O  O30  1  0.45335300  0.07272200  0.66703500  1
  O  O31  1  0.65714200  0.91353800  0.83865500  1
  O  O32  1  0.51853900  0.18752400  0.31798400  1
  O  O33  1  0.61607100  0.07390400  0.17209300  1
  O  O34  1  0.78990700  0.98610000  0.08021500  1
  O  O35  1  0.76863300  0.98724600  0.43804600  1
  O  O36  1  0.80316100  0.01079100  0.25975300  1
  O  O37  1  0.74460300  0.08272700  0.65840400  1
  O  O38  1  0.51880400  0.33309200  0.81917200  1
  O  O39  1  0.45804500  0.37518900  0.16863100  1
  O  O40  1  0.66804600  0.18995300  0.82215000  1
  O  O41  1  0.66003600  0.34114600  0.97261700  1
  O  O42  1  0.66025100  0.33218300  0.47160500  1
  O  O43  1  0.80980700  0.32675700  0.32253400  1
  O  O44  1  0.61692000  0.52693300  0.67236800  1
  O  O45  1  0.67429000  0.48779400  0.32656500  1
  O  O46  1  0.91516500  0.25190100  0.15824900  1
  O  O47  1  0.98584600  0.19428800  0.76068600  1
  O  O48  1  0.02689000  0.23312700  0.93682200  1
  O  O49  1  0.92136000  0.37889000  0.67140700  1
  O  O50  1  0.81439600  0.48823600  0.82838200  1
  O  O51  1  0.91177400  0.52834800  0.17221500  1
  O  O52  1  0.74052100  0.65633900  0.15776600  1
  O  O53  1  0.77299000  0.77180500  0.92828900  1
  O  O54  1  0.79637800  0.79276000  0.74879400  1
  O  O55  1  0.91603000  0.65803500  0.65404700  1
  O  O56  1  0.00501700  0.78728000  0.42843500  1
  O  O57  1  0.99618700  0.79543100  0.24906700  1
loop_
_geom_bond_atom_site_label_1
_geom_bond_atom_site_label_2
_geom_bond_distance
_geom_bond_site_symmetry_2
Li0 O2 1.973367 1_555
Li0 O48 1.979676 1_554
Li0 O46 2.060789 1_455
Li0 O5 2.072565 1_555
Li1 O0 1.972109 1_555
Li1 O27 1.973461 1_555
Li1 O29 2.093211 1_555
Li1 O9 2.144366 1_555
Li2 O19 1.929031 1_555
Li2 O55 2.085736 1_455
Li2 O56 2.090560 1_555
Li2 O11 2.203941 1_555
Li3 O20 1.972559 1_554
Li3 O7 2.050885 1_455
Li3 O23 2.051902 1_565
Li3 O14 2.244774 1_555
Li4 O34 1.920882 1_555
Li4 O53 2.092832 1_554
Li4 O52 2.130181 1_555
Li4 O16 2.181579 1_555
Li5 O35 1.970013 1_555
Li5 O37 2.008692 1_565
Li5 O28 2.032768 1_555
Li5 O22 2.175598 1_555
Li6 O56 2.024404 1_655
Li6 O28 2.050840 1_555
Li6 O25 2.077667 1_555
Li6 O45 2.213845 1_555
Li7 O53 1.986060 1_555
Li7 O7 2.063870 1_556
Li7 O8 2.132759 1_655
Li7 O50 2.170806 1_555
Li8 O48 1.997443 1_555
Li8 O2 2.006039 1_556
Li8 O20 2.321578 1_545
Li8 O34 2.383429 1_446
Li9 O27 1.995839 1_555
Li9 O0 2.076299 1_555
Li9 O19 2.171414 1_545
Li9 O35 2.525654 1_445
Li9 O56 2.581850 1_545
O0 P13 1.497067 1_455
O1 P1 1.540819 1_555
O1 V4 1.864338 1_455
O2 P8 1.496576 1_555
O3 P0 1.565070 1_555
O3 V2 1.845098 1_555
O4 P0 1.525310 1_555
O4 V5 1.958596 1_555
O5 P3 1.561874 1_555
O5 V4 2.002461 1_455
O6 P2 1.518342 1_555
O6 V4 1.959022 1_455
O7 P15 1.510332 1_555
O8 P5 1.565308 1_555
O8 V5 1.936102 1_555
O9 P4 1.582855 1_555
O9 V2 1.941057 1_555
O10 P1 1.544311 1_555
O10 V3 1.895376 1_555
O11 P4 1.573451 1_555
O11 V5 1.955024 1_555
O12 P3 1.496771 1_555
O13 P4 1.494696 1_555
O14 P3 1.587549 1_555
O14 V0 1.925350 1_565
O15 P7 1.563178 1_555
O15 V2 1.869231 1_555
O16 P3 1.571532 1_555
O16 V3 1.953684 1_555
O17 P2 1.553470 1_555
O17 V0 1.901260 1_565
O18 P5 1.610275 1_545
O18 P6 1.626668 1_555
O19 P6 1.501879 1_565
O20 P5 1.498802 1_555
O21 P5 1.536093 1_555
O21 V1 1.918455 1_565
O22 P4 1.567556 1_555
O22 V1 1.969102 1_565
O23 P8 1.560940 1_555
O23 V0 1.979734 1_555
O24 P9 1.562738 1_555
O24 V0 1.878166 1_565
O25 P9 1.550077 1_555
O25 V3 1.975888 1_555
O26 P1 1.601959 1_555
O26 P8 1.622962 1_555
O27 P1 1.497462 1_555
O28 P14 1.507233 1_555
O29 P6 1.562545 1_555
O29 V2 1.957595 1_555
O30 P6 1.531426 1_555
O30 V1 1.950482 1_555
O31 P7 1.511219 1_555
O31 V1 1.976782 1_565
O32 P11 1.613767 1_555
O32 V0 1.820469 1_555
O33 P10 1.553770 1_555
O33 V0 1.918881 1_555
O34 P10 1.496483 1_565
O35 P9 1.494162 1_555
O36 P9 1.604101 1_545
O36 P10 1.627932 1_555
O37 P13 1.528411 1_555
O37 V1 2.051612 1_555
O38 P12 1.601539 1_555
O38 V2 1.813392 1_555
O39 P8 1.530042 1_555
O39 V3 1.941347 1_555
O40 P12 1.573601 1_555
O40 V1 1.856038 1_555
O41 P12 1.480040 1_555
O42 P11 1.484121 1_555
O43 P11 1.541287 1_555
O43 V4 1.908631 1_555
O44 P14 1.543540 1_555
O44 V2 1.914969 1_555
O45 P11 1.576201 1_555
O45 V3 1.944271 1_555
O46 P10 1.546010 1_555
O46 V4 1.978728 1_555
O47 P0 1.605055 1_655
O47 P13 1.622224 1_555
O48 P0 1.492626 1_555
O49 P13 1.563342 1_555
O49 V5 1.868072 1_655
O50 P12 1.556538 1_555
O50 V5 1.988250 1_655
O51 P15 1.534660 1_555
O51 V4 1.907291 1_555
O52 P15 1.549286 1_555
O52 V3 1.986355 1_555
O53 P7 1.511801 1_555
O54 P14 1.615052 1_555
O54 P7 1.623263 1_555
O55 P14 1.546163 1_555
O55 V5 2.002311 1_655
O56 P2 1.517289 1_555
O57 P15 1.616844 1_555
O57 P2 1.623508 1_655
