# generated using pymatgen
data_Li2VFe(P2O7)2
_symmetry_space_group_name_H-M   'P 1'
_cell_length_a   8.23739200
_cell_length_b   7.17516900
_cell_length_c   9.77890733
_cell_angle_alpha   68.55108438
_cell_angle_beta   90.00000000
_cell_angle_gamma   90.00000000
_symmetry_Int_Tables_number   1
_chemical_formula_structural   Li2VFe(P2O7)2
_chemical_formula_sum   'Li4 V2 Fe2 P8 O28'
_cell_volume   537.95064011
_cell_formula_units_Z   2
loop_
 _symmetry_equiv_pos_site_id
 _symmetry_equiv_pos_as_xyz
  1  'x, y, z'
loop_
 _atom_site_type_symbol
 _atom_site_label
 _atom_site_symmetry_multiplicity
 _atom_site_fract_x
 _atom_site_fract_y
 _atom_site_fract_z
 _atom_site_occupancy
  Li  Li0  1  0.36272700  0.57574000  0.75079100  1
  Li  Li1  1  0.86115000  0.92651000  0.74898100  1
  Li  Li2  1  0.36115000  0.07349000  0.25101900  1
  Li  Li3  1  0.86272700  0.42426000  0.24920900  1
  V  V0  1  0.99966500  0.52782900  0.74283200  1
  V  V1  1  0.49966500  0.47217100  0.25716800  1
  Fe  Fe0  1  0.49981200  0.97372600  0.75839100  1
  Fe  Fe1  1  0.99981200  0.02627400  0.24160900  1
  P  P0  1  0.78247400  0.14943000  0.93702400  1
  P  P1  1  0.67987200  0.53962900  0.93858300  1
  P  P2  1  0.18080100  0.96174600  0.56089100  1
  P  P3  1  0.78465800  0.65179500  0.43532900  1
  P  P4  1  0.28465800  0.34820500  0.56467100  1
  P  P5  1  0.68080100  0.03825400  0.43910900  1
  P  P6  1  0.17987200  0.46037100  0.06141700  1
  P  P7  1  0.28247400  0.85057000  0.06297600  1
  O  O0  1  0.65165700  0.32605600  0.92124700  1
  O  O1  1  0.93260500  0.23936100  0.84251900  1
  O  O2  1  0.17817800  0.49757800  0.89651300  1
  O  O3  1  0.84396800  0.62312900  0.87047600  1
  O  O4  1  0.53778200  0.66604200  0.85237400  1
  O  O5  1  0.32319300  0.95296200  0.90096300  1
  O  O6  1  0.69307500  0.00874100  0.87618600  1
  O  O7  1  0.19819500  0.49048100  0.62467700  1
  O  O8  1  0.82530400  0.55093200  0.59786300  1
  O  O9  1  0.03873600  0.83452900  0.64835600  1
  O  O10  1  0.34612800  0.87904600  0.62957500  1
  O  O11  1  0.67904700  0.00291900  0.60349900  1
  O  O12  1  0.43419200  0.25582400  0.65851000  1
  O  O13  1  0.15236100  0.17439700  0.57901700  1
  O  O14  1  0.65236100  0.82560300  0.42098300  1
  O  O15  1  0.93419200  0.74417600  0.34149000  1
  O  O16  1  0.17904700  0.99708100  0.39650100  1
  O  O17  1  0.84612800  0.12095400  0.37042500  1
  O  O18  1  0.53873600  0.16547100  0.35164400  1
  O  O19  1  0.32530400  0.44906800  0.40213700  1
  O  O20  1  0.69819500  0.50951900  0.37532300  1
  O  O21  1  0.19307500  0.99125900  0.12381400  1
  O  O22  1  0.82319300  0.04703800  0.09903700  1
  O  O23  1  0.03778200  0.33395800  0.14762600  1
  O  O24  1  0.34396800  0.37687100  0.12952400  1
  O  O25  1  0.67817800  0.50242200  0.10348700  1
  O  O26  1  0.43260500  0.76063900  0.15748100  1
  O  O27  1  0.15165700  0.67394400  0.07875300  1
loop_
_geom_bond_atom_site_label_1
_geom_bond_atom_site_label_2
_geom_bond_distance
_geom_bond_site_symmetry_2
Li0 O4 1.989139 1_555
Li0 O2 2.017845 1_555
Li0 O10 2.067199 1_555
Li0 O7 2.069732 1_555
Li1 O11 2.001065 1_565
Li1 O9 2.004670 1_655
Li1 O3 2.068491 1_555
Li1 O6 2.085445 1_565
Li2 O16 2.001065 1_545
Li2 O18 2.004670 1_555
Li2 O24 2.068491 1_555
Li2 O21 2.085445 1_545
Li3 O23 1.989139 1_655
Li3 O25 2.017845 1_555
Li3 O17 2.067199 1_555
Li3 O20 2.069732 1_555
Fe0 O12 1.974158 1_565
Fe0 O5 1.982612 1_555
Fe0 O6 2.033734 1_565
Fe0 O10 2.068042 1_555
Fe0 O11 2.070247 1_565
Fe0 O4 2.081460 1_555
Fe1 O15 1.974158 1_545
Fe1 O22 1.982612 1_555
Fe1 O21 2.033734 1_645
Fe1 O17 2.068042 1_555
Fe1 O16 2.070247 1_645
Fe1 O23 2.081460 1_655
O0 P1 1.618972 1_555
O0 P0 1.627302 1_555
O1 P0 1.537437 1_555
O1 V0 2.015912 1_555
O2 P6 1.535264 1_556
O2 V0 2.056543 1_455
O3 P1 1.529005 1_555
O3 V0 2.072377 1_555
O4 P1 1.531058 1_555
O5 P7 1.520212 1_556
O6 P0 1.534434 1_555
O7 P4 1.527036 1_555
O7 V0 2.075500 1_455
O8 P3 1.523426 1_555
O8 V0 1.981972 1_555
O9 P2 1.537290 1_555
O9 V0 2.076772 1_455
O10 P2 1.538318 1_555
O11 P5 1.533182 1_555
O12 P4 1.534226 1_555
O13 P2 1.616225 1_545
O13 P4 1.623151 1_555
O14 P5 1.616225 1_565
O14 P3 1.623151 1_555
O15 P3 1.534226 1_555
O16 P2 1.533182 1_555
O17 P5 1.538318 1_555
O18 P5 1.537290 1_555
O18 V1 2.076772 1_555
O19 P4 1.523426 1_555
O19 V1 1.981972 1_555
O20 P3 1.527036 1_555
O20 V1 2.075500 1_555
O21 P7 1.534434 1_555
O22 P0 1.520212 1_554
O23 P6 1.531058 1_555
O24 P6 1.529005 1_555
O24 V1 2.072377 1_555
O25 P1 1.535264 1_554
O25 V1 2.056543 1_555
O26 P7 1.537437 1_555
O26 V1 2.015912 1_555
O27 P6 1.618972 1_555
O27 P7 1.627302 1_555
