# generated using pymatgen
data_Li2VO3F
_symmetry_space_group_name_H-M   'P 1'
_cell_length_a   5.77485667
_cell_length_b   5.77485667
_cell_length_c   9.29788523
_cell_angle_alpha   73.34355047
_cell_angle_beta   73.34355047
_cell_angle_gamma   91.85896985
_symmetry_Int_Tables_number   1
_chemical_formula_structural   Li2VO3F
_chemical_formula_sum   'Li8 V4 O12 F4'
_cell_volume   282.37270790
_cell_formula_units_Z   4
loop_
 _symmetry_equiv_pos_site_id
 _symmetry_equiv_pos_as_xyz
  1  'x, y, z'
loop_
 _atom_site_type_symbol
 _atom_site_label
 _atom_site_symmetry_multiplicity
 _atom_site_fract_x
 _atom_site_fract_y
 _atom_site_fract_z
 _atom_site_occupancy
  Li  Li0  1  0.31320600  0.54452800  0.63427700  1
  Li  Li1  1  0.57265700  0.80173200  0.13393200  1
  Li  Li2  1  0.30915900  0.05097100  0.64015900  1
  Li  Li3  1  0.54452800  0.31320600  0.13427700  1
  Li  Li4  1  0.80173200  0.57265700  0.63393200  1
  Li  Li5  1  0.05097100  0.30915900  0.14015900  1
  Li  Li6  1  0.44616500  0.66490300  0.87503000  1
  Li  Li7  1  0.66490300  0.44616500  0.37503000  1
  V  V0  1  0.19295900  0.88114700  0.38668300  1
  V  V1  1  0.88114700  0.19295900  0.88668300  1
  V  V2  1  0.11467100  0.82788500  0.09867400  1
  V  V3  1  0.82788500  0.11467100  0.59867400  1
  O  O0  1  0.83656800  0.06561000  0.09622900  1
  O  O1  1  0.41482400  0.69658200  0.38297700  1
  O  O2  1  0.06561000  0.83656800  0.59622900  1
  O  O3  1  0.04385400  0.28997700  0.64791500  1
  O  O4  1  0.29911300  0.59605500  0.10775900  1
  O  O5  1  0.28997700  0.04385400  0.14791500  1
  O  O6  1  0.71914700  0.96337700  0.85217700  1
  O  O7  1  0.69658200  0.41482400  0.88297700  1
  O  O8  1  0.96337700  0.71914700  0.35217700  1
  O  O9  1  0.93987200  0.17571200  0.39790700  1
  O  O10  1  0.59605500  0.29911300  0.60775900  1
  O  O11  1  0.17571200  0.93987200  0.89790700  1
  F  F0  1  0.81574000  0.56900800  0.14487900  1
  F  F1  1  0.42267700  0.17710400  0.36421300  1
  F  F2  1  0.56900800  0.81574000  0.64487900  1
  F  F3  1  0.17710400  0.42267700  0.86421300  1
loop_
_geom_bond_atom_site_label_1
_geom_bond_atom_site_label_2
_geom_bond_distance
_geom_bond_site_symmetry_2
Li0 O3 2.056252 1_555
Li0 O1 2.139924 1_555
Li0 O10 2.203865 1_555
Li0 O2 2.262347 1_555
Li1 O0 2.001141 1_565
Li1 O4 2.056625 1_555
Li1 O1 2.123574 1_555
Li1 O5 2.183438 1_565
Li1 O6 2.392991 1_554
Li2 O2 2.045541 1_545
Li2 O10 2.049757 1_555
Li2 O3 2.094866 1_555
Li2 O11 2.185530 1_545
Li3 O5 2.056252 1_555
Li3 O7 2.139924 1_554
Li3 O4 2.203865 1_555
Li3 O0 2.262347 1_555
Li4 O2 2.001141 1_655
Li4 O10 2.056625 1_555
Li4 O7 2.123574 1_555
Li4 O3 2.183438 1_655
Li4 O8 2.392991 1_555
Li5 O0 2.045541 1_455
Li5 O4 2.049757 1_555
Li5 O5 2.094866 1_555
Li5 O9 2.185530 1_455
Li6 O4 1.998276 1_556
Li6 O7 2.077964 1_555
Li6 O6 2.218776 1_555
Li6 O11 2.273781 1_555
Li7 O10 1.998276 1_555
Li7 O1 2.077964 1_555
Li7 O8 2.218776 1_555
Li7 O9 2.273781 1_555
O0 V1 1.811604 1_554
O0 V2 2.147209 1_645
O1 V0 1.692073 1_555
O2 V0 1.811604 1_555
O2 V3 2.147209 1_465
O3 V3 1.816897 1_455
O3 V1 2.045075 1_455
O4 V2 1.735868 1_555
O5 V2 1.816897 1_545
O5 V0 2.045075 1_545
O6 V1 1.752523 1_565
O6 V3 2.156080 1_565
O7 V1 1.692073 1_555
O8 V0 1.752523 1_655
O8 V2 2.156080 1_655
O9 V3 1.715525 1_555
O9 V0 2.283915 1_645
O10 V3 1.735868 1_555
O11 V2 1.715525 1_556
O11 V1 2.283915 1_465
F0 Li7 1.965283 1_555
F0 Li1 1.978134 1_555
F0 Li5 2.057874 1_655
F0 V2 2.106848 1_655
F0 Li3 2.160275 1_555
F1 Li3 1.954999 1_555
F1 V0 2.052769 1_545
F1 Li7 2.100071 1_555
F1 Li2 2.340227 1_555
F2 Li6 1.965283 1_555
F2 Li4 1.978134 1_555
F2 Li2 2.057874 1_565
F2 V3 2.106848 1_565
F2 Li0 2.160275 1_555
F3 Li0 1.954999 1_555
F3 V1 2.052769 1_455
F3 Li6 2.100071 1_555
F3 Li5 2.340227 1_556
