# generated using pymatgen
data_V3O5F3
_symmetry_space_group_name_H-M   'P 1'
_cell_length_a   7.31190074
_cell_length_b   7.31190074
_cell_length_c   5.00073584
_cell_angle_alpha   89.73599262
_cell_angle_beta   89.73599262
_cell_angle_gamma   102.61402079
_symmetry_Int_Tables_number   1
_chemical_formula_structural   V3O5F3
_chemical_formula_sum   'V6 O10 F6'
_cell_volume   260.89857024
_cell_formula_units_Z   2
loop_
 _symmetry_equiv_pos_site_id
 _symmetry_equiv_pos_as_xyz
  1  'x, y, z'
loop_
 _atom_site_type_symbol
 _atom_site_label
 _atom_site_symmetry_multiplicity
 _atom_site_fract_x
 _atom_site_fract_y
 _atom_site_fract_z
 _atom_site_occupancy
  V  V0  1  0.31304000  0.17573100  0.24012700  1
  V  V1  1  0.66781500  0.33001200  0.73758500  1
  V  V2  1  0.17573100  0.31304000  0.74012700  1
  V  V3  1  0.83934300  0.65145900  0.22663000  1
  V  V4  1  0.33001200  0.66781500  0.23758500  1
  V  V5  1  0.65145900  0.83934300  0.72663000  1
  O  O0  1  0.67846100  0.06799200  0.63686100  1
  O  O1  1  0.19137500  0.09695300  0.95892500  1
  O  O2  1  0.09695300  0.19137500  0.45892500  1
  O  O3  1  0.43718100  0.30568700  0.59523600  1
  O  O4  1  0.79326800  0.45198700  0.42238700  1
  O  O5  1  0.30568700  0.43718100  0.09523600  1
  O  O6  1  0.70926500  0.56376100  0.91840900  1
  O  O7  1  0.56376100  0.70926500  0.41840900  1
  O  O8  1  0.06799200  0.67846100  0.13686100  1
  O  O9  1  0.45198700  0.79326800  0.92238700  1
  F  F0  1  0.56667000  0.20778900  0.08297600  1
  F  F1  1  0.92913600  0.32336900  0.88032200  1
  F  F2  1  0.20778900  0.56667000  0.58297600  1
  F  F3  1  0.89395000  0.81137600  0.54308000  1
  F  F4  1  0.81137600  0.89395000  0.04308000  1
  F  F5  1  0.32336900  0.92913600  0.38032200  1
loop_
_geom_bond_atom_site_label_1
_geom_bond_atom_site_label_2
_geom_bond_distance
_geom_bond_site_symmetry_2
O0 V5 1.698149 1_545
O0 V1 2.000993 1_555
O1 V0 1.701710 1_556
O1 V2 1.941863 1_555
O2 V2 1.701710 1_555
O2 V0 1.941863 1_555
O3 V1 1.806501 1_555
O3 V2 2.053034 1_555
O3 V0 2.129327 1_555
O4 V3 1.722867 1_555
O4 V1 1.933325 1_555
O5 V4 1.806501 1_555
O5 V0 2.053034 1_555
O5 V2 2.129327 1_554
O6 V3 1.856813 1_556
O6 V1 1.902957 1_555
O6 V5 2.348757 1_555
O7 V5 1.856813 1_555
O7 V4 1.902957 1_555
O7 V3 2.348757 1_555
O8 V3 1.698149 1_455
O8 V4 2.000993 1_555
O9 V5 1.722867 1_555
O9 V4 1.933325 1_556
F0 V0 1.976558 1_555
F0 V1 2.003548 1_554
F1 V2 1.948492 1_655
F1 V1 2.053197 1_555
F2 V2 1.976558 1_555
F2 V4 2.003548 1_555
F3 V3 1.962114 1_555
F3 V5 2.042841 1_555
F4 V5 1.962114 1_554
F4 V3 2.042841 1_555
F5 V0 1.948492 1_565
F5 V4 2.053197 1_555
