# generated using pymatgen
data_LaBiO3
_symmetry_space_group_name_H-M   'P 1'
_cell_length_a   6.29805872
_cell_length_b   6.29805872
_cell_length_c   6.29805833
_cell_angle_alpha   60.02589617
_cell_angle_beta   60.02589617
_cell_angle_gamma   60.02589877
_symmetry_Int_Tables_number   1
_chemical_formula_structural   LaBiO3
_chemical_formula_sum   'La2 Bi2 O6'
_cell_volume   176.75022354
_cell_formula_units_Z   2
loop_
 _symmetry_equiv_pos_site_id
 _symmetry_equiv_pos_as_xyz
  1  'x, y, z'
loop_
 _atom_site_type_symbol
 _atom_site_label
 _atom_site_symmetry_multiplicity
 _atom_site_fract_x
 _atom_site_fract_y
 _atom_site_fract_z
 _atom_site_occupancy
  La  La0  1  0.86657800  0.86657800  0.86657800  1
  La  La1  1  0.13342200  0.13342200  0.13342200  1
  Bi  Bi0  1  0.64859900  0.64859900  0.64859900  1
  Bi  Bi1  1  0.35140100  0.35140100  0.35140100  1
  O  O0  1  0.99490800  0.23227200  0.53496200  1
  O  O1  1  0.46503800  0.00509200  0.76772800  1
  O  O2  1  0.76772800  0.46503800  0.00509200  1
  O  O3  1  0.23227200  0.53496200  0.99490800  1
  O  O4  1  0.53496200  0.99490800  0.23227200  1
  O  O5  1  0.00509200  0.76772800  0.46503800  1
loop_
_geom_bond_atom_site_label_1
_geom_bond_atom_site_label_2
_geom_bond_distance
_geom_bond_site_symmetry_2
La0 O4 2.384667 1_556
La0 O0 2.384667 1_565
La0 O3 2.384667 1_655
La0 O5 2.523913 1_655
La0 O2 2.523913 1_556
La0 O1 2.523913 1_565
La1 O1 2.384667 1_554
La1 O5 2.384667 1_545
La1 O2 2.384667 1_455
La1 O0 2.523913 1_455
La1 O3 2.523913 1_554
La1 O4 2.523913 1_545
Bi0 O2 2.272297 1_556
Bi0 O5 2.272297 1_655
Bi0 O1 2.272297 1_565
Bi0 O4 2.597191 1_555
Bi0 O3 2.597191 1_555
Bi0 O0 2.597191 1_555
Bi1 O3 2.272297 1_554
Bi1 O0 2.272297 1_455
Bi1 O4 2.272297 1_545
Bi1 O1 2.597191 1_555
Bi1 O2 2.597191 1_555
Bi1 O5 2.597191 1_555
