# generated using pymatgen
data_Ba2Na7Ti16Bi7O48
_symmetry_space_group_name_H-M   'P 1'
_cell_length_a   5.65480619
_cell_length_b   5.65447341
_cell_length_c   45.04229007
_cell_angle_alpha   59.00811594
_cell_angle_beta   59.00669662
_cell_angle_gamma   58.70215108
_symmetry_Int_Tables_number   1
_chemical_formula_structural   Ba2Na7Ti16Bi7O48
_chemical_formula_sum   'Ba2 Na7 Ti16 Bi7 O48'
_cell_volume   992.93787351
_cell_formula_units_Z   1
loop_
 _symmetry_equiv_pos_site_id
 _symmetry_equiv_pos_as_xyz
  1  'x, y, z'
loop_
 _atom_site_type_symbol
 _atom_site_label
 _atom_site_symmetry_multiplicity
 _atom_site_fract_x
 _atom_site_fract_y
 _atom_site_fract_z
 _atom_site_occupancy
  Ba  Ba0  1  0.76455000  0.76453400  0.84324500  1
  Ba  Ba1  1  0.75800300  0.75818800  0.97153800  1
  Na  Na0  1  0.26665200  0.26447000  0.03819400  1
  Na  Na1  1  0.27866300  0.27691300  0.15993800  1
  Na  Na2  1  0.27852400  0.27832200  0.28465900  1
  Na  Na3  1  0.27906600  0.27876600  0.40952700  1
  Na  Na4  1  0.27947000  0.27908200  0.53444300  1
  Na  Na5  1  0.28321500  0.28029300  0.65835500  1
  Na  Na6  1  0.28813500  0.28850100  0.78031600  1
  Ti  Ti0  1  0.99705900  0.99110700  0.00737800  1
  Ti  Ti1  1  0.02288500  0.01590000  0.12841000  1
  Ti  Ti2  1  0.51473300  0.51685000  0.06553100  1
  Ti  Ti3  1  0.01990500  0.01937400  0.25252400  1
  Ti  Ti4  1  0.51137000  0.51089200  0.18998000  1
  Ti  Ti5  1  0.02099600  0.02099300  0.37723100  1
  Ti  Ti6  1  0.51568100  0.51425100  0.31403800  1
  Ti  Ti7  1  0.02204600  0.02088700  0.50199600  1
  Ti  Ti8  1  0.51636400  0.51477300  0.43882900  1
  Ti  Ti9  1  0.02393800  0.02240500  0.62666000  1
  Ti  Ti10  1  0.51641800  0.51548300  0.56372000  1
  Ti  Ti11  1  0.02327200  0.04077100  0.74958100  1
  Ti  Ti12  1  0.52288300  0.51773900  0.68729000  1
  Ti  Ti13  1  0.02492300  0.02165700  0.87205700  1
  Ti  Ti14  1  0.52172200  0.51860200  0.81209100  1
  Ti  Ti15  1  0.51831900  0.51162900  0.94110400  1
  Bi  Bi0  1  0.79487200  0.78357500  0.10018500  1
  Bi  Bi1  1  0.78912900  0.79060500  0.22376500  1
  Bi  Bi2  1  0.79093500  0.79207300  0.34836400  1
  Bi  Bi3  1  0.79140600  0.79209700  0.47329800  1
  Bi  Bi4  1  0.79383700  0.79477000  0.59738100  1
  Bi  Bi5  1  0.79615800  0.79161200  0.72344600  1
  Bi  Bi6  1  0.27992500  0.28237000  0.91337900  1
  O  O0  1  0.18765600  0.30341300  0.09640700  1
  O  O1  1  0.26726200  0.74335400  0.03082200  1
  O  O2  1  0.74655200  0.22354500  0.03712400  1
  O  O3  1  0.22675900  0.80201500  0.08935600  1
  O  O4  1  0.69396900  0.22971400  0.10164300  1
  O  O5  1  0.18531100  0.30925800  0.21957000  1
  O  O6  1  0.77876800  0.71594800  0.03410000  1
  O  O7  1  0.31066800  0.74223200  0.14996200  1
  O  O8  1  0.74617900  0.18213500  0.16525100  1
  O  O9  1  0.23129400  0.80388800  0.21210000  1
  O  O10  1  0.68959400  0.23173100  0.22643100  1
  O  O11  1  0.18617600  0.31010500  0.34416900  1
  O  O12  1  0.80270400  0.68376200  0.15551500  1
  O  O13  1  0.31062100  0.74720300  0.27374600  1
  O  O14  1  0.74900100  0.18517000  0.28938900  1
  O  O15  1  0.23227400  0.80479900  0.33657500  1
  O  O16  1  0.69107000  0.23395200  0.35079500  1
  O  O17  1  0.18650300  0.31037300  0.46908000  1
  O  O18  1  0.80308900  0.68892600  0.27988700  1
  O  O19  1  0.31058200  0.74781600  0.39861100  1
  O  O20  1  0.74948900  0.18604700  0.41421100  1
  O  O21  1  0.23277500  0.80501500  0.46147600  1
  O  O22  1  0.69137500  0.23453600  0.47566600  1
  O  O23  1  0.18874200  0.31216800  0.59346700  1
  O  O24  1  0.80299200  0.69027500  0.40460300  1
  O  O25  1  0.31104200  0.74812200  0.52346100  1
  O  O26  1  0.75059800  0.18556000  0.53907000  1
  O  O27  1  0.23527400  0.80587300  0.58612700  1
  O  O28  1  0.69285200  0.23506400  0.60040500  1
  O  O29  1  0.20449800  0.31408400  0.71583300  1
  O  O30  1  0.80410900  0.69042800  0.52940200  1
  O  O31  1  0.31886400  0.75228800  0.64745200  1
  O  O32  1  0.75734400  0.18800700  0.66329900  1
  O  O33  1  0.23640300  0.80000300  0.71164100  1
  O  O34  1  0.69930900  0.23639900  0.72389000  1
  O  O35  1  0.23964300  0.26575100  0.84329300  1
  O  O36  1  0.80863900  0.69442600  0.65378200  1
  O  O37  1  0.28559500  0.77359000  0.77551000  1
  O  O38  1  0.74528300  0.24806800  0.78172500  1
  O  O39  1  0.25979100  0.78236100  0.83892900  1
  O  O40  1  0.72467700  0.25871000  0.84647900  1
  O  O41  1  0.22994300  0.26122600  0.96743500  1
  O  O42  1  0.79976800  0.71377600  0.77872100  1
  O  O43  1  0.25905600  0.72848100  0.90420200  1
  O  O44  1  0.72614100  0.22702600  0.90809500  1
  O  O45  1  0.25478800  0.78622300  0.96491700  1
  O  O46  1  0.72078400  0.25301100  0.97336400  1
  O  O47  1  0.78353900  0.70906100  0.90634700  1
loop_
_geom_bond_atom_site_label_1
_geom_bond_atom_site_label_2
_geom_bond_distance
_geom_bond_site_symmetry_2
Ba0 O35 2.701731 1_655
Ba0 O38 2.713837 1_565
Ba0 O47 2.747644 1_555
Ba0 O39 2.757379 1_655
Ba0 O40 2.758796 1_565
Ba0 O43 2.774377 1_555
Ba0 O35 2.846436 1_565
Ba0 O39 2.906443 1_555
Ba0 O40 2.908567 1_555
Ba0 O44 2.950702 1_555
Ba0 O37 2.954686 1_655
Ba0 O42 2.961793 1_555
Ba1 O1 2.686628 1_556
Ba1 O41 2.699632 1_655
Ba1 O44 2.731073 1_565
Ba1 O46 2.736237 1_565
Ba1 O45 2.748998 1_655
Ba1 O6 2.762264 1_556
Ba1 O41 2.871205 1_565
Ba1 O43 2.904305 1_655
Ba1 O45 2.927120 1_555
Ba1 O46 2.928406 1_555
Ba1 O2 2.946123 1_556
Ba1 O47 3.013609 1_555
Na0 O3 2.463945 1_545
Na0 O0 2.531658 1_555
Na0 O1 2.554449 1_555
Na0 O2 2.577711 1_555
Na0 O6 2.623773 1_455
Na0 O46 2.724878 1_554
Na1 O4 2.490148 1_555
Na1 O12 2.494629 1_455
Na1 O7 2.520114 1_555
Na1 O9 2.523981 1_545
Na1 O8 2.526093 1_555
Na1 O5 2.543983 1_555
Na2 O10 2.479530 1_555
Na2 O18 2.502126 1_455
Na2 O15 2.521007 1_545
Na2 O13 2.523847 1_555
Na2 O14 2.532408 1_555
Na2 O11 2.539075 1_555
Na3 O16 2.493988 1_555
Na3 O24 2.507204 1_455
Na3 O21 2.522357 1_545
Na3 O19 2.523040 1_555
Na3 O20 2.531967 1_555
Na3 O17 2.540025 1_555
Na4 O22 2.494836 1_555
Na4 O30 2.505201 1_455
Na4 O27 2.514404 1_545
Na4 O25 2.522012 1_555
Na4 O23 2.524680 1_555
Na4 O26 2.532841 1_555
Na5 O28 2.467661 1_555
Na5 O29 2.484247 1_555
Na5 O36 2.504247 1_455
Na5 O31 2.551862 1_555
Na5 O32 2.559657 1_555
Na5 O33 2.566335 1_545
Na6 O34 2.434317 1_555
Na6 O38 2.505777 1_555
Na6 O42 2.557543 1_455
Na6 O37 2.630870 1_555
Na6 O35 2.645370 1_555
Na6 O39 2.728747 1_545
Bi0 O12 2.273913 1_555
Bi0 O3 2.280062 1_655
Bi0 O4 2.308747 1_565
Bi0 O0 2.480913 1_655
Bi0 O7 2.526163 1_555
Bi0 O2 2.673499 1_565
Bi1 O10 2.309356 1_565
Bi1 O9 2.309759 1_655
Bi1 O18 2.321316 1_555
Bi1 O8 2.449141 1_565
Bi1 O5 2.494223 1_655
Bi1 O13 2.509480 1_555
Bi2 O15 2.301743 1_655
Bi2 O16 2.307800 1_565
Bi2 O24 2.321256 1_555
Bi2 O14 2.464480 1_565
Bi2 O11 2.495010 1_655
Bi2 O19 2.520882 1_555
Bi3 O21 2.301915 1_655
Bi3 O22 2.309225 1_565
Bi3 O30 2.317237 1_555
Bi3 O20 2.469239 1_565
Bi3 O17 2.494039 1_655
Bi3 O25 2.519507 1_555
Bi4 O27 2.306296 1_655
Bi4 O28 2.309744 1_565
Bi4 O36 2.338365 1_555
Bi4 O26 2.442144 1_565
Bi4 O23 2.494631 1_655
Bi4 O31 2.496403 1_555
Bi5 O33 2.283869 1_655
Bi5 O34 2.288053 1_565
Bi5 O42 2.303765 1_555
Bi5 O32 2.501877 1_565
Bi5 O29 2.529926 1_655
Bi5 O37 2.632883 1_555
Bi6 O41 2.247010 1_555
Bi6 O44 2.271398 1_555
Bi6 O43 2.283651 1_555
Bi6 O45 2.578228 1_545
Bi6 O47 2.625424 1_455
Bi6 O40 2.771984 1_555
O0 Ti1 1.834733 1_555
O0 Ti2 2.180166 1_555
O1 Ti0 1.823875 1_455
O1 Ti2 2.090875 1_555
O2 Ti0 1.858407 1_545
O2 Ti2 2.074920 1_555
O3 Ti2 1.912481 1_555
O3 Ti1 2.130692 1_565
O4 Ti2 1.891432 1_555
O4 Ti1 2.201523 1_655
O5 Ti3 1.849957 1_555
O5 Ti4 2.136406 1_555
O6 Ti2 1.851769 1_555
O6 Ti0 1.982403 1_555
O7 Ti1 1.857095 1_565
O7 Ti4 2.093891 1_555
O8 Ti1 1.868060 1_655
O8 Ti4 2.122286 1_555
O9 Ti4 1.895901 1_555
O9 Ti3 2.181458 1_565
O10 Ti4 1.893491 1_555
O10 Ti3 2.188429 1_655
O11 Ti5 1.846475 1_555
O11 Ti6 2.159449 1_555
O12 Ti4 1.885729 1_555
O12 Ti1 2.251796 1_665
O13 Ti3 1.859979 1_565
O13 Ti6 2.119398 1_555
O14 Ti3 1.863904 1_655
O14 Ti6 2.122289 1_555
O15 Ti6 1.898536 1_555
O15 Ti5 2.193172 1_565
O16 Ti6 1.895339 1_555
O16 Ti5 2.196752 1_655
O17 Ti7 1.845192 1_555
O17 Ti8 2.161551 1_555
O18 Ti6 1.873923 1_555
O18 Ti3 2.228424 1_665
O19 Ti5 1.859861 1_565
O19 Ti8 2.119337 1_555
O20 Ti5 1.865779 1_655
O20 Ti8 2.119837 1_555
O21 Ti8 1.900151 1_555
O21 Ti7 2.187277 1_565
O22 Ti8 1.896717 1_555
O22 Ti7 2.196315 1_655
O23 Ti9 1.848542 1_555
O23 Ti10 2.149504 1_555
O24 Ti8 1.873705 1_555
O24 Ti5 2.234353 1_665
O25 Ti7 1.859311 1_565
O25 Ti10 2.119556 1_555
O26 Ti7 1.867677 1_655
O26 Ti10 2.125739 1_555
O27 Ti10 1.893211 1_555
O27 Ti9 2.189802 1_565
O28 Ti10 1.896296 1_555
O28 Ti9 2.196907 1_655
O29 Ti11 1.836067 1_555
O29 Ti12 2.113296 1_555
O30 Ti10 1.876702 1_555
O30 Ti7 2.232609 1_665
O31 Ti9 1.865536 1_565
O31 Ti12 2.097923 1_555
O32 Ti9 1.853524 1_655
O32 Ti12 2.105424 1_555
O33 Ti12 1.913454 1_555
O33 Ti11 2.190072 1_565
O34 Ti12 1.894157 1_555
O34 Ti11 2.162935 1_655
O35 Ti13 1.826849 1_555
O35 Ti14 2.134264 1_555
O36 Ti12 1.870812 1_555
O36 Ti9 2.212449 1_665
O37 Ti11 1.866974 1_565
O37 Ti14 2.096585 1_555
O38 Ti11 1.852198 1_655
O38 Ti14 2.042965 1_555
O39 Ti14 1.896587 1_555
O39 Ti13 1.998121 1_565
O40 Ti14 1.900055 1_555
O40 Ti13 2.016510 1_655
O41 Ti0 2.030719 1_446
O41 Ti15 2.179064 1_555
O42 Ti14 1.899985 1_555
O42 Ti11 2.226910 1_665
O43 Ti13 1.954343 1_565
O43 Ti15 2.226806 1_555
O44 Ti13 1.978956 1_655
O44 Ti15 2.209320 1_555
O45 Ti15 1.856595 1_555
O45 Ti0 2.186537 1_456
O46 Ti15 1.829261 1_555
O46 Ti0 2.169278 1_546
O47 Ti15 1.862284 1_555
O47 Ti13 2.212920 1_665
