# generated using pymatgen
data_Fe6OF11
_symmetry_space_group_name_H-M   'P 1'
_cell_length_a   10.82140618
_cell_length_b   10.82140618
_cell_length_c   3.25262800
_cell_angle_alpha   90.00000000
_cell_angle_beta   90.00000000
_cell_angle_gamma   143.41933840
_symmetry_Int_Tables_number   1
_chemical_formula_structural   Fe6OF11
_chemical_formula_sum   'Fe6 O1 F11'
_cell_volume   226.99403304
_cell_formula_units_Z   1
loop_
 _symmetry_equiv_pos_site_id
 _symmetry_equiv_pos_as_xyz
  1  'x, y, z'
loop_
 _atom_site_type_symbol
 _atom_site_label
 _atom_site_symmetry_multiplicity
 _atom_site_fract_x
 _atom_site_fract_y
 _atom_site_fract_z
 _atom_site_occupancy
  Fe  Fe0  1  0.98783800  0.98783800  0.50000000  1
  Fe  Fe1  1  0.52760000  0.52760000  0.00000000  1
  Fe  Fe2  1  0.66532800  0.33189000  0.50000000  1
  Fe  Fe3  1  0.83397600  0.16601700  0.00000000  1
  Fe  Fe4  1  0.16601700  0.83397600  0.00000000  1
  Fe  Fe5  1  0.33189000  0.66532800  0.50000000  1
  O  O0  1  0.68563800  0.68563800  0.50000000  1
  F  F0  1  0.96487000  0.62853200  0.50000000  1
  F  F1  1  0.30525900  0.30525900  0.50000000  1
  F  F2  1  0.59250500  0.39613700  0.00000000  1
  F  F3  1  0.73253500  0.26441500  0.00000000  1
  F  F4  1  0.07203400  0.93529100  0.00000000  1
  F  F5  1  0.36903600  0.03227100  0.50000000  1
  F  F6  1  0.62853200  0.96487000  0.50000000  1
  F  F7  1  0.93529100  0.07203400  0.00000000  1
  F  F8  1  0.26441500  0.73253500  0.00000000  1
  F  F9  1  0.39613700  0.59250500  0.00000000  1
  F  F10  1  0.03227100  0.36903600  0.50000000  1
loop_
_geom_bond_atom_site_label_1
_geom_bond_atom_site_label_2
_geom_bond_distance
_geom_bond_site_symmetry_2
Fe0 O0 2.052606 1_555
Fe1 O0 1.948626 1_555
Fe1 O0 1.948626 1_554
F0 Fe2 2.024923 1_555
F0 Fe4 2.133900 1_655
F0 Fe4 2.133900 1_656
F1 Fe0 2.155991 1_445
F1 Fe1 2.219361 1_556
F1 Fe1 2.219361 1_555
F2 Fe1 2.030243 1_555
F2 Fe2 2.151558 1_555
F2 Fe2 2.151558 1_554
F3 Fe3 2.053310 1_555
F3 Fe2 2.135379 1_555
F3 Fe2 2.135379 1_554
F4 Fe4 2.006781 1_555
F4 Fe0 2.151849 1_455
F4 Fe0 2.151849 1_454
F5 Fe2 2.024066 1_555
F5 Fe4 2.122443 1_546
F5 Fe4 2.122443 1_545
F6 Fe5 2.024923 1_555
F6 Fe3 2.133900 1_566
F6 Fe3 2.133900 1_565
F7 Fe3 2.006781 1_555
F7 Fe0 2.151849 1_545
F7 Fe0 2.151849 1_544
F8 Fe4 2.053310 1_555
F8 Fe5 2.135379 1_554
F8 Fe5 2.135379 1_555
F9 Fe1 2.030243 1_555
F9 Fe5 2.151558 1_555
F9 Fe5 2.151558 1_554
F10 Fe5 2.024066 1_555
F10 Fe3 2.122443 1_456
F10 Fe3 2.122443 1_455
