# generated using pymatgen
data_VCrO3
_symmetry_space_group_name_H-M   'P 1'
_cell_length_a   5.40965846
_cell_length_b   5.40965846
_cell_length_c   8.64532040
_cell_angle_alpha   74.38234802
_cell_angle_beta   74.38234802
_cell_angle_gamma   55.64287440
_symmetry_Int_Tables_number   1
_chemical_formula_structural   VCrO3
_chemical_formula_sum   'V4 Cr4 O12'
_cell_volume   198.94886664
_cell_formula_units_Z   4
loop_
 _symmetry_equiv_pos_site_id
 _symmetry_equiv_pos_as_xyz
  1  'x, y, z'
loop_
 _atom_site_type_symbol
 _atom_site_label
 _atom_site_symmetry_multiplicity
 _atom_site_fract_x
 _atom_site_fract_y
 _atom_site_fract_z
 _atom_site_occupancy
  V  V0  1  0.77932263  0.02598707  0.70233551  1
  V  V1  1  0.97401293  0.22067737  0.29766449  1
  V  V2  1  0.01704845  0.28210390  0.95449058  1
  V  V3  1  0.71789610  0.98295155  0.04550942  1
  Cr  Cr0  1  0.26953841  0.52461271  0.20091930  1
  Cr  Cr1  1  0.47538729  0.73046159  0.79908070  1
  Cr  Cr2  1  0.52618298  0.77229723  0.44950948  1
  Cr  Cr3  1  0.22770277  0.47381702  0.55049052  1
  O  O0  1  0.52665019  0.47208058  0.34759942  1
  O  O1  1  0.03220724  0.97295523  0.84683203  1
  O  O2  1  0.56150979  0.43849021  0.00000000  1
  O  O3  1  0.92819552  0.57014294  0.75062636  1
  O  O4  1  0.47670204  0.02546104  0.59658056  1
  O  O5  1  0.97307812  0.53074544  0.09656971  1
  O  O6  1  0.02704477  0.96779276  0.15316797  1
  O  O7  1  0.52791942  0.47334981  0.65240058  1
  O  O8  1  0.07665676  0.92334324  0.50000000  1
  O  O9  1  0.42985706  0.07180448  0.24937364  1
  O  O10  1  0.97453896  0.52329796  0.40341944  1
  O  O11  1  0.46925456  0.02692188  0.90343029  1
loop_
_geom_bond_atom_site_label_1
_geom_bond_atom_site_label_2
_geom_bond_distance
_geom_bond_site_symmetry_2
Cr0 O6 1.961625 1_555
Cr0 O2 1.963906 1_555
Cr0 O0 1.983155 1_555
Cr0 O5 2.022324 1_455
Cr0 O10 2.028171 1_455
Cr0 O9 2.042834 1_555
Cr1 O1 1.961625 1_555
Cr1 O2 1.963906 1_556
Cr1 O7 1.983155 1_555
Cr1 O11 2.022324 1_565
Cr1 O4 2.028171 1_565
Cr1 O3 2.042834 1_555
Cr2 O4 1.975976 1_565
Cr2 O9 1.978253 1_565
Cr2 O10 1.984205 1_555
Cr2 O8 2.037037 1_555
Cr2 O7 2.038756 1_555
Cr2 O0 2.044126 1_555
Cr3 O10 1.975976 1_455
Cr3 O3 1.978253 1_455
Cr3 O4 1.984205 1_555
Cr3 O8 2.037037 1_555
Cr3 O0 2.038756 1_555
Cr3 O7 2.044126 1_555
O0 V1 1.982788 1_555
O1 V0 1.948986 1_465
O1 V3 2.053772 1_456
O1 V2 2.076562 1_565
O2 V2 2.060920 1_654
O2 V3 2.060920 1_545
O3 V2 1.974184 1_655
O3 V0 2.070992 1_565
O4 V0 2.080504 1_555
O5 V2 1.935381 1_654
O5 V3 2.004965 1_555
O5 V1 2.064235 1_555
O6 V1 1.948986 1_465
O6 V2 2.053772 1_564
O6 V3 2.076562 1_455
O7 V0 1.982788 1_555
O8 V1 1.988809 1_465
O8 V0 1.988809 1_465
O9 V3 1.974184 1_545
O9 V1 2.070992 1_455
O10 V1 2.080504 1_555
O11 V3 1.935381 1_546
O11 V2 2.004965 1_555
O11 V0 2.064235 1_555
