# generated using pymatgen
data_BaLaBr5
_symmetry_space_group_name_H-M   'P 1'
_cell_length_a   7.65136800
_cell_length_b   10.89737400
_cell_length_c   11.82619200
_cell_angle_alpha   90.00000000
_cell_angle_beta   90.00000000
_cell_angle_gamma   90.00000000
_symmetry_Int_Tables_number   1
_chemical_formula_structural   BaLaBr5
_chemical_formula_sum   'Ba4 La4 Br20'
_cell_volume   986.06574496
_cell_formula_units_Z   4
loop_
 _symmetry_equiv_pos_site_id
 _symmetry_equiv_pos_as_xyz
  1  'x, y, z'
loop_
 _atom_site_type_symbol
 _atom_site_label
 _atom_site_symmetry_multiplicity
 _atom_site_fract_x
 _atom_site_fract_y
 _atom_site_fract_z
 _atom_site_occupancy
  Ba  Ba0  1  0.25000000  0.62625600  0.17293400  1
  Ba  Ba1  1  0.75000000  0.12625600  0.32706600  1
  Ba  Ba2  1  0.25000000  0.87374400  0.67293400  1
  Ba  Ba3  1  0.75000000  0.37374400  0.82706600  1
  La  La0  1  0.25000000  0.15145100  0.02951400  1
  La  La1  1  0.75000000  0.65145100  0.47048600  1
  La  La2  1  0.25000000  0.34854900  0.52951400  1
  La  La3  1  0.75000000  0.84854900  0.97048600  1
  Br  Br0  1  0.98107600  0.33832200  0.06119600  1
  Br  Br1  1  0.51892400  0.33832200  0.06119600  1
  Br  Br2  1  0.00052400  0.96306600  0.14452800  1
  Br  Br3  1  0.49947600  0.96306600  0.14452800  1
  Br  Br4  1  0.25000000  0.18863700  0.29428800  1
  Br  Br5  1  0.75000000  0.68863700  0.20571200  1
  Br  Br6  1  0.99947600  0.46306600  0.35547200  1
  Br  Br7  1  0.50052400  0.46306600  0.35547200  1
  Br  Br8  1  0.01892400  0.83832200  0.43880400  1
  Br  Br9  1  0.48107600  0.83832200  0.43880400  1
  Br  Br10  1  0.98107600  0.16167800  0.56119600  1
  Br  Br11  1  0.51892400  0.16167800  0.56119600  1
  Br  Br12  1  0.00052400  0.53693400  0.64452800  1
  Br  Br13  1  0.49947600  0.53693400  0.64452800  1
  Br  Br14  1  0.25000000  0.31136300  0.79428800  1
  Br  Br15  1  0.75000000  0.81136300  0.70571200  1
  Br  Br16  1  0.50052400  0.03693400  0.85547200  1
  Br  Br17  1  0.99947600  0.03693400  0.85547200  1
  Br  Br18  1  0.48107600  0.66167800  0.93880400  1
  Br  Br19  1  0.01892400  0.66167800  0.93880400  1
loop_
_geom_bond_atom_site_label_1
_geom_bond_atom_site_label_2
_geom_bond_distance
_geom_bond_site_symmetry_2
Ba0 Br19 3.307811 1_554
Ba0 Br18 3.307811 1_554
Ba0 Br7 3.390713 1_555
Ba0 Br6 3.390713 1_455
Ba0 Br5 3.904899 1_555
Ba0 Br5 3.904899 1_455
Ba1 Br10 3.307811 1_555
Ba1 Br11 3.307811 1_555
Ba1 Br2 3.390713 1_645
Ba1 Br3 3.390713 1_545
Ba1 Br4 3.904899 1_655
Ba1 Br4 3.904899 1_555
Ba2 Br9 3.307811 1_555
Ba2 Br8 3.307811 1_555
Ba2 Br16 3.390713 1_565
Ba2 Br17 3.390713 1_465
Ba2 Br15 3.904899 1_455
Ba2 Br15 3.904899 1_555
Ba3 Br0 3.307811 1_556
Ba3 Br1 3.307811 1_556
Ba3 Br12 3.390713 1_655
Ba3 Br13 3.390713 1_555
Ba3 Br14 3.904899 1_655
Ba3 Br14 3.904899 1_555
Br0 La0 2.919108 1_655
Br1 La0 2.919108 1_555
Br2 La3 3.077023 1_454
Br2 La0 3.115787 1_565
Br3 La3 3.077023 1_554
Br3 La0 3.115787 1_565
Br4 La0 3.157380 1_555
Br4 La2 3.282574 1_555
Br5 La1 3.157380 1_555
Br5 La3 3.282574 1_554
Br6 La2 3.077023 1_655
Br6 La1 3.115787 1_555
Br7 La2 3.077023 1_555
Br7 La1 3.115787 1_555
Br8 La1 2.919108 1_455
Br9 La1 2.919108 1_555
Br10 La2 2.919108 1_655
Br11 La2 2.919108 1_555
Br12 La1 3.077023 1_455
Br12 La2 3.115787 1_555
Br13 La1 3.077023 1_555
Br13 La2 3.115787 1_555
Br14 La2 3.157380 1_555
Br14 La0 3.282574 1_556
Br15 La3 3.157380 1_555
Br15 La1 3.282574 1_555
Br16 La0 3.077023 1_556
Br16 La3 3.115787 1_545
Br17 La0 3.077023 1_656
Br17 La3 3.115787 1_545
Br18 La3 2.919108 1_555
Br19 La3 2.919108 1_455
