# generated using pymatgen
data_Li2Mn3GaO8
_symmetry_space_group_name_H-M   'P 1'
_cell_length_a   5.90814059
_cell_length_b   5.90859543
_cell_length_c   5.90823823
_cell_angle_alpha   60.40065749
_cell_angle_beta   60.40689044
_cell_angle_gamma   60.40192261
_symmetry_Int_Tables_number   1
_chemical_formula_structural   Li2Mn3GaO8
_chemical_formula_sum   'Li2 Mn3 Ga1 O8'
_cell_volume   147.17011029
_cell_formula_units_Z   1
loop_
 _symmetry_equiv_pos_site_id
 _symmetry_equiv_pos_as_xyz
  1  'x, y, z'
loop_
 _atom_site_type_symbol
 _atom_site_label
 _atom_site_symmetry_multiplicity
 _atom_site_fract_x
 _atom_site_fract_y
 _atom_site_fract_z
 _atom_site_occupancy
  Li  Li0  1  0.12161400  0.12160000  0.12162500  1
  Li  Li1  1  0.87838700  0.87839300  0.87838300  1
  Mn  Mn0  1  0.50000500  0.99999600  0.50000000  1
  Mn  Mn1  1  0.50000800  0.50000100  0.99999800  1
  Mn  Mn2  1  0.00000900  0.50000300  0.49999900  1
  Ga  Ga0  1  0.49999600  0.50000400  0.50000200  1
  O  O0  1  0.26068100  0.26058900  0.26065100  1
  O  O1  1  0.70800200  0.26032300  0.26036700  1
  O  O2  1  0.26032200  0.70802800  0.26036700  1
  O  O3  1  0.26036200  0.26032100  0.70801600  1
  O  O4  1  0.73968300  0.29197100  0.73962200  1
  O  O5  1  0.73964400  0.73968000  0.29197700  1
  O  O6  1  0.29198300  0.73967000  0.73962900  1
  O  O7  1  0.73930400  0.73942200  0.73936300  1
loop_
_geom_bond_atom_site_label_1
_geom_bond_atom_site_label_2
_geom_bond_distance
_geom_bond_site_symmetry_2
Li0 O2 2.005336 1_545
Li0 O3 2.005496 1_554
Li0 O1 2.005503 1_455
Li0 O0 2.005904 1_555
Li1 O4 2.005365 1_565
Li1 O5 2.005423 1_556
Li1 O6 2.005426 1_655
Li1 O7 2.005866 1_555
Mn0 O1 1.969284 1_565
Mn0 O6 1.969376 1_555
Mn0 O5 1.969391 1_555
Mn0 O3 1.969403 1_565
Mn0 O7 2.010703 1_555
Mn0 O0 2.010754 1_565
Mn1 O1 1.969257 1_556
Mn1 O6 1.969375 1_555
Mn1 O2 1.969640 1_556
Mn1 O4 1.969680 1_555
Mn1 O7 2.011154 1_555
Mn1 O0 2.011249 1_556
Mn2 O3 1.969276 1_555
Mn2 O2 1.969328 1_555
Mn2 O5 1.969346 1_455
Mn2 O4 1.969410 1_455
Mn2 O0 2.011402 1_555
Mn2 O7 2.011500 1_455
Ga0 O4 2.015470 1_555
Ga0 O2 2.015484 1_555
Ga0 O6 2.015684 1_555
Ga0 O3 2.015734 1_555
Ga0 O5 2.015760 1_555
Ga0 O1 2.015789 1_555
