# generated using pymatgen
data_Li4Nb3V3(CoO8)2
_symmetry_space_group_name_H-M   'P 1'
_cell_length_a   6.06545201
_cell_length_b   6.06545201
_cell_length_c   9.78738717
_cell_angle_alpha   89.99065842
_cell_angle_beta   89.99065842
_cell_angle_gamma   59.60899809
_symmetry_Int_Tables_number   1
_chemical_formula_structural   Li4Nb3V3(CoO8)2
_chemical_formula_sum   'Li4 Nb3 V3 Co2 O16'
_cell_volume   310.59831658
_cell_formula_units_Z   1
loop_
 _symmetry_equiv_pos_site_id
 _symmetry_equiv_pos_as_xyz
  1  'x, y, z'
loop_
 _atom_site_type_symbol
 _atom_site_label
 _atom_site_symmetry_multiplicity
 _atom_site_fract_x
 _atom_site_fract_y
 _atom_site_fract_z
 _atom_site_occupancy
  Li  Li0  1  0.66437500  0.66437500  0.10028400  1
  Li  Li1  1  0.00751900  0.00751900  0.99957800  1
  Li  Li2  1  0.01231400  0.01231400  0.50773300  1
  Li  Li3  1  0.33287900  0.33287900  0.61542000  1
  Nb  Nb0  1  0.82885700  0.82885700  0.78181300  1
  Nb  Nb1  1  0.16469400  0.65907500  0.28433400  1
  Nb  Nb2  1  0.65907500  0.16469400  0.28433400  1
  V  V0  1  0.34256100  0.82429200  0.78557700  1
  V  V1  1  0.82429200  0.34256100  0.78557700  1
  V  V2  1  0.16912900  0.16912900  0.28828300  1
  Co  Co0  1  0.65723300  0.65723300  0.51887900  1
  Co  Co1  1  0.33010600  0.33010600  0.98112300  1
  O  O0  1  0.31649300  0.84052800  0.39343800  1
  O  O1  1  0.51628800  0.51628800  0.66913900  1
  O  O2  1  0.67596200  0.67596200  0.90285400  1
  O  O3  1  0.99552500  0.99552500  0.68709000  1
  O  O4  1  0.99857900  0.99857900  0.17931200  1
  O  O5  1  0.84052800  0.31649300  0.39343800  1
  O  O6  1  0.51867700  0.96616600  0.66382700  1
  O  O7  1  0.96616600  0.51867700  0.66382700  1
  O  O8  1  0.15901800  0.15901800  0.89032300  1
  O  O9  1  0.84240900  0.84240900  0.40152900  1
  O  O10  1  0.02973300  0.48823200  0.17302000  1
  O  O11  1  0.48823200  0.02973300  0.17302000  1
  O  O12  1  0.33881700  0.33881700  0.40384900  1
  O  O13  1  0.15849500  0.68133500  0.89786600  1
  O  O14  1  0.48565900  0.48565900  0.16745700  1
  O  O15  1  0.68133500  0.15849500  0.89786600  1
loop_
_geom_bond_atom_site_label_1
_geom_bond_atom_site_label_2
_geom_bond_distance
_geom_bond_site_symmetry_2
Li0 O2 1.936146 1_554
Li0 O14 1.992676 1_555
Li0 O10 2.040564 1_655
Li0 O11 2.040564 1_565
Li1 O4 1.761624 1_446
Li1 O8 1.919884 1_555
Li1 O15 1.977648 1_455
Li1 O13 1.977648 1_545
Li2 O3 1.764277 1_445
Li2 O5 1.948243 1_455
Li2 O0 1.948243 1_545
Li2 O9 2.068769 1_445
Li3 O6 1.976237 1_545
Li3 O7 1.976237 1_455
Li3 O1 2.001026 1_555
Li3 O12 2.071659 1_555
Nb0 O3 1.984137 1_555
Nb0 O6 1.995431 1_555
Nb0 O7 1.995431 1_555
Nb0 O2 1.998242 1_555
Nb0 O15 2.068500 1_565
Nb0 O13 2.068500 1_655
Nb1 O10 1.946736 1_555
Nb1 O14 2.032913 1_555
Nb1 O9 2.042985 1_455
Nb1 O12 2.044740 1_555
Nb1 O4 2.052459 1_455
Nb1 O0 2.055565 1_555
Nb2 O11 1.946736 1_555
Nb2 O14 2.032913 1_555
Nb2 O9 2.042985 1_545
Nb2 O12 2.044740 1_555
Nb2 O4 2.052459 1_545
Nb2 O5 2.055565 1_555
Co0 O1 2.088817 1_555
Co0 O6 2.153419 1_555
Co0 O7 2.153419 1_555
Co0 O5 2.165718 1_555
Co0 O0 2.165718 1_555
Co0 O9 2.262251 1_555
Co1 O8 2.008410 1_555
Co1 O15 2.010469 1_555
Co1 O13 2.010469 1_555
Co1 O11 2.449119 1_556
Co1 O10 2.449119 1_556
Co1 O14 2.451155 1_556
O0 V2 2.006934 1_565
O1 V1 1.976795 1_555
O1 V0 1.976795 1_555
O2 V0 2.091878 1_555
O2 V1 2.091878 1_555
O3 V1 2.055954 1_565
O3 V0 2.055954 1_655
O4 V2 2.088347 1_665
O5 V2 2.006934 1_655
O6 V0 2.056913 1_555
O7 V1 2.056913 1_555
O8 V0 2.031199 1_545
O8 V1 2.031199 1_455
O10 V2 2.019291 1_555
O11 V2 2.019291 1_555
O12 V2 2.114377 1_555
O13 V0 2.045707 1_555
O15 V1 2.045707 1_555
