# generated using pymatgen
data_Cu2Ni11O13
_symmetry_space_group_name_H-M   'P 1'
_cell_length_a   2.98030093
_cell_length_b   19.53024569
_cell_length_c   4.19944000
_cell_angle_alpha   83.82813351
_cell_angle_beta   90.00000000
_cell_angle_gamma   85.62410054
_symmetry_Int_Tables_number   1
_chemical_formula_structural   Cu2Ni11O13
_chemical_formula_sum   'Cu2 Ni11 O13'
_cell_volume   242.29917864
_cell_formula_units_Z   1
loop_
 _symmetry_equiv_pos_site_id
 _symmetry_equiv_pos_as_xyz
  1  'x, y, z'
loop_
 _atom_site_type_symbol
 _atom_site_label
 _atom_site_symmetry_multiplicity
 _atom_site_fract_x
 _atom_site_fract_y
 _atom_site_fract_z
 _atom_site_occupancy
  Cu  Cu0  1  0.46214500  0.07570900  0.46214500  1
  Cu  Cu1  1  0.38400900  0.23198300  0.38400900  1
  Ni  Ni0  1  0.00037500  0.99925100  0.00037500  1
  Ni  Ni1  1  0.30669000  0.38662100  0.30669000  1
  Ni  Ni2  1  0.23046700  0.53906700  0.23046700  1
  Ni  Ni3  1  0.07692200  0.84615700  0.07692200  1
  Ni  Ni4  1  0.15385900  0.69228300  0.15385900  1
  Ni  Ni5  1  0.61568700  0.76862500  0.61568700  1
  Ni  Ni6  1  0.53946400  0.92107100  0.53946400  1
  Ni  Ni7  1  0.76923200  0.46153600  0.76923200  1
  Ni  Ni8  1  0.69229500  0.61541000  0.69229500  1
  Ni  Ni9  1  0.84577900  0.30844200  0.84577900  1
  Ni  Ni10  1  0.92307700  0.15384600  0.92307700  1
  O  O0  1  0.61531500  0.76937000  0.11531500  1
  O  O1  1  0.69210900  0.61578200  0.19210900  1
  O  O2  1  0.53855500  0.92289100  0.03855500  1
  O  O3  1  0.00182500  0.99635100  0.50182500  1
  O  O4  1  0.76880300  0.46239400  0.26880300  1
  O  O5  1  0.84432900  0.31134200  0.34432900  1
  O  O6  1  0.92307700  0.15384600  0.42307700  1
  O  O7  1  0.15404400  0.69191000  0.65404400  1
  O  O8  1  0.07735100  0.84529900  0.57735100  1
  O  O9  1  0.23083900  0.53832200  0.73083900  1
  O  O10  1  0.30759900  0.38480100  0.80759900  1
  O  O11  1  0.46150100  0.07699900  0.96150100  1
  O  O12  1  0.38465300  0.23069300  0.88465300  1
loop_
_geom_bond_atom_site_label_1
_geom_bond_atom_site_label_2
_geom_bond_distance
_geom_bond_site_symmetry_2
Cu0 O11 2.099864 1_554
Cu0 O11 2.099873 1_555
Cu0 O6 2.123406 1_455
Cu0 O6 2.123408 1_555
Cu0 O3 2.140309 1_545
Cu0 O3 2.140313 1_645
Cu1 O12 2.099864 1_555
Cu1 O12 2.099873 1_554
Cu1 O6 2.123406 1_555
Cu1 O6 2.123408 1_455
Cu1 O5 2.140324 1_555
Cu1 O5 2.140326 1_455
Ni0 O2 2.099037 1_455
Ni0 O2 2.099037 1_555
Ni0 O3 2.100470 1_555
Ni0 O3 2.100470 1_554
Ni0 O11 2.118048 1_464
Ni0 O11 2.118048 1_564
Ni1 O5 2.084350 1_555
Ni1 O5 2.084352 1_455
Ni1 O4 2.091048 1_555
Ni1 O4 2.091050 1_455
Ni1 O10 2.100011 1_555
Ni1 O10 2.100020 1_554
Ni2 O9 2.099767 1_555
Ni2 O9 2.099772 1_554
Ni2 O4 2.103308 1_555
Ni2 O4 2.103310 1_455
Ni2 O1 2.103882 1_555
Ni2 O1 2.103884 1_455
Ni3 O8 2.099786 1_555
Ni3 O8 2.099786 1_554
Ni3 O2 2.104143 1_455
Ni3 O2 2.104143 1_555
Ni3 O0 2.104866 1_555
Ni3 O0 2.104869 1_455
Ni4 O7 2.099726 1_555
Ni4 O7 2.099739 1_554
Ni4 O1 2.100960 1_555
Ni4 O1 2.100962 1_455
Ni4 O0 2.108972 1_555
Ni4 O0 2.108974 1_455
Ni5 O0 2.099767 1_555
Ni5 O0 2.099772 1_556
Ni5 O8 2.103321 1_555
Ni5 O8 2.103325 1_655
Ni5 O7 2.103882 1_655
Ni5 O7 2.103884 1_555
Ni6 O3 2.084362 1_555
Ni6 O3 2.084367 1_655
Ni6 O8 2.091034 1_555
Ni6 O8 2.091038 1_655
Ni6 O2 2.100011 1_555
Ni6 O2 2.100020 1_556
Ni7 O4 2.099786 1_555
Ni7 O4 2.099786 1_556
Ni7 O10 2.104156 1_655
Ni7 O10 2.104158 1_555
Ni7 O9 2.104854 1_655
Ni7 O9 2.104854 1_555
Ni8 O1 2.099732 1_555
Ni8 O1 2.099732 1_556
Ni8 O7 2.100945 1_655
Ni8 O7 2.100949 1_555
Ni8 O9 2.108987 1_555
Ni8 O9 2.108987 1_655
Ni9 O10 2.099023 1_655
Ni9 O10 2.099025 1_555
Ni9 O5 2.100470 1_555
Ni9 O5 2.100470 1_556
Ni9 O12 2.118061 1_655
Ni9 O12 2.118063 1_555
Ni10 O6 2.099720 1_556
Ni10 O6 2.099720 1_555
Ni10 O12 2.105687 1_655
Ni10 O11 2.105687 1_555
Ni10 O11 2.105689 1_655
Ni10 O12 2.105689 1_555
