# generated using pymatgen
data_Sr2Mg2V3O14
_symmetry_space_group_name_H-M   'P 1'
_cell_length_a   15.53508000
_cell_length_b   6.82042200
_cell_length_c   11.15334556
_cell_angle_alpha   82.37551258
_cell_angle_beta   90.00000000
_cell_angle_gamma   90.00000000
_symmetry_Int_Tables_number   1
_chemical_formula_structural   Sr2Mg2V3O14
_chemical_formula_sum   'Sr8 Mg8 V12 O56'
_cell_volume   1171.31362410
_cell_formula_units_Z   4
loop_
 _symmetry_equiv_pos_site_id
 _symmetry_equiv_pos_as_xyz
  1  'x, y, z'
loop_
 _atom_site_type_symbol
 _atom_site_label
 _atom_site_symmetry_multiplicity
 _atom_site_fract_x
 _atom_site_fract_y
 _atom_site_fract_z
 _atom_site_occupancy
  Sr  Sr0  1  0.85969600  0.35108400  0.01406900  1
  Sr  Sr1  1  0.35969600  0.64891600  0.48593100  1
  Sr  Sr2  1  0.14030400  0.64891600  0.98593100  1
  Sr  Sr3  1  0.64030400  0.35108400  0.51406900  1
  Sr  Sr4  1  0.00303500  0.93585400  0.27723100  1
  Sr  Sr5  1  0.50303500  0.06414600  0.22276900  1
  Sr  Sr6  1  0.99696500  0.06414600  0.72276900  1
  Sr  Sr7  1  0.49696500  0.93585400  0.77723100  1
  Mg  Mg0  1  0.67194700  0.63815400  0.92627500  1
  Mg  Mg1  1  0.17194700  0.36184600  0.57372500  1
  Mg  Mg2  1  0.32805300  0.36184600  0.07372500  1
  Mg  Mg3  1  0.82805300  0.63815400  0.42627500  1
  Mg  Mg4  1  0.72384400  0.00417200  0.27218900  1
  Mg  Mg5  1  0.22384400  0.99582800  0.22781100  1
  Mg  Mg6  1  0.27615600  0.99582800  0.72781100  1
  Mg  Mg7  1  0.77615600  0.00417200  0.77218900  1
  V  V0  1  0.70870400  0.52732200  0.18510400  1
  V  V1  1  0.20870400  0.47267800  0.31489600  1
  V  V2  1  0.29129600  0.47267800  0.81489600  1
  V  V3  1  0.79129600  0.52732200  0.68510400  1
  V  V4  1  0.48533100  0.43585900  0.79523000  1
  V  V5  1  0.98533100  0.56414100  0.70477000  1
  V  V6  1  0.51466900  0.56414100  0.20477000  1
  V  V7  1  0.01466900  0.43585900  0.29523000  1
  V  V8  1  0.63609300  0.12866400  0.97211000  1
  V  V9  1  0.13609300  0.87133600  0.52789000  1
  V  V10  1  0.36390700  0.87133600  0.02789000  1
  V  V11  1  0.86390700  0.12866400  0.47211000  1
  O  O0  1  0.90957700  0.40573800  0.79355700  1
  O  O1  1  0.40957700  0.59426200  0.70644300  1
  O  O2  1  0.09042300  0.59426200  0.20644300  1
  O  O3  1  0.59042300  0.40573800  0.29355700  1
  O  O4  1  0.75710000  0.29606000  0.20896500  1
  O  O5  1  0.25710000  0.70394000  0.29103500  1
  O  O6  1  0.24290000  0.70394000  0.79103500  1
  O  O7  1  0.74290000  0.29606000  0.70896500  1
  O  O8  1  0.76755500  0.62984900  0.06035300  1
  O  O9  1  0.26755500  0.37015100  0.43964700  1
  O  O10  1  0.23244500  0.37015100  0.93964700  1
  O  O11  1  0.73244500  0.62984900  0.56035300  1
  O  O12  1  0.73127000  0.68312200  0.29436700  1
  O  O13  1  0.23127000  0.31687800  0.20563300  1
  O  O14  1  0.26873000  0.31687800  0.70563300  1
  O  O15  1  0.76873000  0.68312200  0.79436700  1
  O  O16  1  0.60770400  0.60021700  0.09458800  1
  O  O17  1  0.10770400  0.39978300  0.40541200  1
  O  O18  1  0.39229600  0.39978300  0.90541200  1
  O  O19  1  0.89229600  0.60021700  0.59458800  1
  O  O20  1  0.56366100  0.60031200  0.82452800  1
  O  O21  1  0.06366100  0.39968800  0.67547200  1
  O  O22  1  0.43633900  0.39968800  0.17547200  1
  O  O23  1  0.93633900  0.60031200  0.32452800  1
  O  O24  1  0.53168000  0.20502700  0.93106600  1
  O  O25  1  0.03168000  0.79497300  0.56893400  1
  O  O26  1  0.46832000  0.79497300  0.06893400  1
  O  O27  1  0.96832000  0.20502700  0.43106600  1
  O  O28  1  0.98051200  0.29137600  0.18652000  1
  O  O29  1  0.48051200  0.70862400  0.31348000  1
  O  O30  1  0.01948800  0.70862400  0.81348000  1
  O  O31  1  0.51948800  0.29137600  0.68652000  1
  O  O32  1  0.66372400  0.94899200  0.87548400  1
  O  O33  1  0.16372400  0.05100800  0.62451600  1
  O  O34  1  0.33627600  0.05100800  0.12451600  1
  O  O35  1  0.83627600  0.94899200  0.37548400  1
  O  O36  1  0.64131200  0.02685600  0.12376700  1
  O  O37  1  0.14131200  0.97314400  0.37623300  1
  O  O38  1  0.35868800  0.97314400  0.87623300  1
  O  O39  1  0.85868800  0.02685600  0.62376700  1
  O  O40  1  0.70289600  0.32764300  0.95141300  1
  O  O41  1  0.20289600  0.67235700  0.54858700  1
  O  O42  1  0.29710400  0.67235700  0.04858700  1
  O  O43  1  0.79710400  0.32764300  0.45141300  1
  O  O44  1  0.87455800  0.07696300  0.88011800  1
  O  O45  1  0.37455800  0.92303700  0.61988200  1
  O  O46  1  0.12544200  0.92303700  0.11988200  1
  O  O47  1  0.62544200  0.07696300  0.38011800  1
  O  O48  1  0.86543400  0.92267000  0.09481900  1
  O  O49  1  0.36543400  0.07733000  0.40518100  1
  O  O50  1  0.13456600  0.07733000  0.90518100  1
  O  O51  1  0.63456600  0.92267000  0.59481900  1
  O  O52  1  0.92143600  0.81548000  0.05604200  1
  O  O53  1  0.42143600  0.18452000  0.44395800  1
  O  O54  1  0.07856400  0.18452000  0.94395800  1
  O  O55  1  0.57856400  0.81548000  0.55604200  1
loop_
_geom_bond_atom_site_label_1
_geom_bond_atom_site_label_2
_geom_bond_distance
_geom_bond_site_symmetry_2
Mg0 O20 2.064475 1_555
Mg0 O15 2.097477 1_555
Mg0 O8 2.103107 1_556
Mg0 O16 2.111440 1_556
Mg0 O32 2.124413 1_555
Mg0 O40 2.153451 1_555
Mg1 O21 2.064475 1_555
Mg1 O14 2.097477 1_555
Mg1 O9 2.103107 1_555
Mg1 O17 2.111440 1_555
Mg1 O33 2.124413 1_555
Mg1 O41 2.153451 1_555
Mg2 O22 2.064475 1_555
Mg2 O13 2.097477 1_555
Mg2 O10 2.103107 1_554
Mg2 O18 2.111440 1_554
Mg2 O34 2.124413 1_555
Mg2 O42 2.153451 1_555
Mg3 O23 2.064475 1_555
Mg3 O12 2.097477 1_555
Mg3 O11 2.103107 1_555
Mg3 O19 2.111440 1_555
Mg3 O35 2.124413 1_555
Mg3 O43 2.153451 1_555
Mg4 O47 2.047193 1_555
Mg4 O36 2.083318 1_555
Mg4 O4 2.086845 1_555
Mg4 O35 2.098722 1_545
Mg4 O12 2.173830 1_545
Mg5 O46 2.047193 1_555
Mg5 O37 2.083318 1_555
Mg5 O5 2.086845 1_555
Mg5 O34 2.098722 1_565
Mg5 O13 2.173830 1_565
Mg6 O45 2.047193 1_555
Mg6 O38 2.083318 1_555
Mg6 O6 2.086845 1_555
Mg6 O33 2.098722 1_565
Mg6 O14 2.173830 1_565
Mg7 O44 2.047193 1_555
Mg7 O39 2.083318 1_555
Mg7 O7 2.086845 1_555
Mg7 O32 2.098722 1_545
Mg7 O15 2.173830 1_545
O0 V5 1.802474 1_555
O0 V3 2.293703 1_555
O0 Sr0 2.558325 1_556
O0 Sr6 2.895247 1_555
O1 V4 1.802474 1_555
O1 V2 2.293703 1_555
O1 Sr1 2.558325 1_555
O1 Sr7 2.895247 1_555
O2 V7 1.802474 1_555
O2 V1 2.293703 1_555
O2 Sr2 2.558325 1_554
O2 Sr4 2.895247 1_555
O3 V6 1.802474 1_555
O3 V0 2.293703 1_555
O3 Sr3 2.558325 1_555
O3 Sr5 2.895247 1_555
O4 V0 1.735679 1_555
O4 Sr0 2.681387 1_555
O5 V1 1.735679 1_555
O5 Sr1 2.681387 1_555
O6 V2 1.735679 1_555
O6 Sr2 2.681387 1_555
O7 V3 1.735679 1_555
O7 Sr3 2.681387 1_555
O8 V0 1.732811 1_555
O8 Sr0 2.488134 1_555
O9 V1 1.732811 1_555
O9 Sr1 2.488134 1_555
O10 V2 1.732811 1_555
O10 Sr2 2.488134 1_555
O11 V3 1.732811 1_555
O11 Sr3 2.488134 1_555
O12 V0 1.755219 1_555
O13 V1 1.755219 1_555
O14 V2 1.755219 1_555
O15 V3 1.755219 1_555
O16 V6 1.891931 1_555
O16 V0 1.896073 1_555
O17 V7 1.891931 1_555
O17 V1 1.896073 1_555
O18 V4 1.891931 1_555
O18 V2 1.896073 1_555
O19 V5 1.891931 1_555
O19 V3 1.896073 1_555
O20 V4 1.715479 1_555
O20 Sr7 2.503775 1_555
O21 V5 1.715479 1_455
O21 Sr6 2.503775 1_455
O22 V6 1.715479 1_555
O22 Sr5 2.503775 1_555
O23 V7 1.715479 1_655
O23 Sr4 2.503775 1_655
O24 V8 1.746037 1_555
O24 V4 2.158578 1_555
O24 Sr7 2.727825 1_545
O24 Sr5 3.297995 1_556
O25 V9 1.746037 1_555
O25 V5 2.158578 1_455
O25 Sr6 2.727825 1_465
O25 Sr4 3.297995 1_555
O26 V10 1.746037 1_555
O26 V6 2.158578 1_555
O26 Sr5 2.727825 1_565
O26 Sr7 3.297995 1_554
O27 V11 1.746037 1_555
O27 V7 2.158578 1_655
O27 Sr4 2.727825 1_645
O27 Sr6 3.297995 1_555
O28 V7 1.743507 1_655
O28 Sr4 2.524824 1_645
O28 Sr0 2.679586 1_555
O29 V6 1.743507 1_555
O29 Sr5 2.524824 1_565
O29 Sr1 2.679586 1_555
O30 V5 1.743507 1_455
O30 Sr6 2.524824 1_465
O30 Sr2 2.679586 1_555
O31 V4 1.743507 1_555
O31 Sr7 2.524824 1_545
O31 Sr3 2.679586 1_555
O32 V8 1.788253 1_565
O32 Sr7 2.818910 1_555
O33 V9 1.788253 1_545
O33 Sr6 2.818910 1_455
O34 V10 1.788253 1_545
O34 Sr5 2.818910 1_555
O35 V11 1.788253 1_565
O35 Sr4 2.818910 1_655
O36 V8 1.743035 1_554
O36 Sr5 2.443972 1_555
O37 V9 1.743035 1_555
O37 Sr4 2.443972 1_555
O38 V10 1.743035 1_556
O38 Sr7 2.443972 1_555
O39 V11 1.743035 1_555
O39 Sr6 2.443972 1_555
O40 V8 1.699688 1_555
O40 Sr0 2.545029 1_556
O41 V9 1.699688 1_555
O41 Sr1 2.545029 1_555
O42 V10 1.699688 1_555
O42 Sr2 2.545029 1_554
O43 V11 1.699688 1_555
O43 Sr3 2.545029 1_555
O44 Sr0 2.553828 1_556
O44 Sr6 2.596990 1_555
O45 Sr1 2.553828 1_555
O45 Sr7 2.596990 1_555
O46 Sr2 2.553828 1_554
O46 Sr4 2.596990 1_555
O47 Sr3 2.553828 1_555
O47 Sr5 2.596990 1_555
O48 O52 1.249930 1_555
O48 Sr0 2.942556 1_565
O48 Sr4 2.960634 1_655
O49 O53 1.249930 1_555
O49 Sr1 2.942556 1_545
O49 Sr5 2.960634 1_555
O50 O54 1.249930 1_555
O50 Sr2 2.942556 1_545
O50 Sr6 2.960634 1_455
O51 O55 1.249930 1_555
O51 Sr3 2.942556 1_565
O51 Sr7 2.960634 1_555
O52 Sr4 2.984043 1_655
O53 Sr5 2.984043 1_555
O54 Sr6 2.984043 1_455
O55 Sr7 2.984043 1_555
