# generated using pymatgen
data_Na7Mn16O32
_symmetry_space_group_name_H-M   'P 1'
_cell_length_a   8.66340600
_cell_length_b   8.78762853
_cell_length_c   10.48333123
_cell_angle_alpha   114.38141994
_cell_angle_beta   114.19856227
_cell_angle_gamma   89.76087646
_symmetry_Int_Tables_number   1
_chemical_formula_structural   Na7Mn16O32
_chemical_formula_sum   'Na7 Mn16 O32'
_cell_volume   649.83804088
_cell_formula_units_Z   1
loop_
 _symmetry_equiv_pos_site_id
 _symmetry_equiv_pos_as_xyz
  1  'x, y, z'
loop_
 _atom_site_type_symbol
 _atom_site_label
 _atom_site_symmetry_multiplicity
 _atom_site_fract_x
 _atom_site_fract_y
 _atom_site_fract_z
 _atom_site_occupancy
  Na  Na0  1  0.44025500  0.69340000  0.13130500  1
  Na  Na1  1  0.80740900  0.06126400  0.36900900  1
  Na  Na2  1  0.31198500  0.55791600  0.37369800  1
  Na  Na3  1  0.69567800  0.43525500  0.62619200  1
  Na  Na4  1  0.19099100  0.93860900  0.62559100  1
  Na  Na5  1  0.06206500  0.81502500  0.88008400  1
  Na  Na6  1  0.55921900  0.31363200  0.87223300  1
  Mn  Mn0  1  0.50381600  0.00162200  0.99843500  1
  Mn  Mn1  1  0.75314100  0.74759500  0.99923300  1
  Mn  Mn2  1  0.25027700  0.25888500  0.00544500  1
  Mn  Mn3  1  0.00260600  0.49448100  0.00927800  1
  Mn  Mn4  1  0.62642600  0.37244700  0.24587700  1
  Mn  Mn5  1  0.37043500  0.13545200  0.25033600  1
  Mn  Mn6  1  0.12232700  0.88213700  0.25003600  1
  Mn  Mn7  1  0.87127500  0.61688700  0.24742600  1
  Mn  Mn8  1  0.49784300  0.00880400  0.50472600  1
  Mn  Mn9  1  0.99423500  0.48764600  0.49042200  1
  Mn  Mn10  1  0.75199300  0.74693300  0.50393300  1
  Mn  Mn11  1  0.24414400  0.25785400  0.48822900  1
  Mn  Mn12  1  0.37762200  0.62046200  0.74931100  1
  Mn  Mn13  1  0.87280400  0.13065000  0.75603100  1
  Mn  Mn14  1  0.63184400  0.87114900  0.75256300  1
  Mn  Mn15  1  0.12347800  0.37556800  0.74978600  1
  O  O0  1  0.77856400  0.52718000  0.01730600  1
  O  O1  1  0.27755600  0.03874300  0.01700200  1
  O  O2  1  0.48263700  0.26506000  0.02358300  1
  O  O3  1  0.99537100  0.73325000  0.02510800  1
  O  O4  1  0.87916400  0.83414500  0.23212800  1
  O  O5  1  0.39092000  0.34853600  0.23500500  1
  O  O6  1  0.59375300  0.13944500  0.22595200  1
  O  O7  1  0.08343900  0.61639800  0.23279200  1
  O  O8  1  0.15789200  0.14421000  0.26493900  1
  O  O9  1  0.36472900  0.92233200  0.26575400  1
  O  O10  1  0.65292700  0.60689000  0.26863600  1
  O  O11  1  0.85897000  0.39838700  0.25551300  1
  O  O12  1  0.96992600  0.71025100  0.47817000  1
  O  O13  1  0.45955600  0.24569500  0.47469100  1
  O  O14  1  0.76411700  0.47616900  0.46705300  1
  O  O15  1  0.25223900  0.02548800  0.47654100  1
  O  O16  1  0.02347900  0.27075600  0.48952500  1
  O  O17  1  0.73335400  0.01632300  0.52889200  1
  O  O18  1  0.23374800  0.49399700  0.51719900  1
  O  O19  1  0.53943400  0.76123500  0.52583500  1
  O  O20  1  0.84740000  0.89145500  0.73472000  1
  O  O21  1  0.34040500  0.38440600  0.72197600  1
  O  O22  1  0.10176500  0.57984800  0.71493100  1
  O  O23  1  0.60684500  0.07745900  0.73018100  1
  O  O24  1  0.14203800  0.17169900  0.78329900  1
  O  O25  1  0.64979300  0.66416000  0.77825400  1
  O  O26  1  0.91025800  0.37076400  0.78252000  1
  O  O27  1  0.41133900  0.85633100  0.76927800  1
  O  O28  1  0.73003300  0.96434600  0.98675500  1
  O  O29  1  0.01226000  0.26130100  0.98769600  1
  O  O30  1  0.22487100  0.48144400  0.01551000  1
  O  O31  1  0.52269200  0.73546500  0.97736500  1
loop_
_geom_bond_atom_site_label_1
_geom_bond_atom_site_label_2
_geom_bond_distance
_geom_bond_site_symmetry_2
Na0 O31 2.165792 1_554
Na0 O30 2.174847 1_555
Na0 O10 2.182350 1_555
Na0 O9 2.205889 1_555
Na1 O16 2.158462 1_655
Na1 O6 2.170629 1_555
Na1 O4 2.187542 1_545
Na1 O17 2.192508 1_555
Na2 O5 2.136115 1_555
Na2 O18 2.138873 1_555
Na2 O7 2.141732 1_555
Na2 O19 2.172345 1_555
Na3 O14 2.138219 1_555
Na3 O25 2.147296 1_555
Na3 O13 2.159296 1_555
Na3 O26 2.173302 1_555
Na4 O24 2.209179 1_565
Na4 O27 2.228505 1_555
Na4 O15 2.230237 1_565
Na4 O12 2.264598 1_455
Na5 O20 2.177893 1_455
Na5 O3 2.187987 1_456
Na5 O1 2.216883 1_566
Na5 O22 2.216982 1_555
Na6 O2 2.136427 1_556
Na6 O23 2.154080 1_555
Na6 O0 2.179401 1_556
Na6 O21 2.193774 1_555
Mn0 O6 1.965245 1_556
Mn0 O27 1.985329 1_545
Mn0 O28 2.030123 1_545
Mn0 O1 2.059523 1_556
Mn0 O2 2.234859 1_556
Mn0 O31 2.268440 1_545
Mn1 O25 1.899631 1_555
Mn1 O31 1.912122 1_555
Mn1 O28 1.966274 1_555
Mn1 O4 2.004993 1_556
Mn1 O3 2.013129 1_556
Mn1 O0 2.025167 1_556
Mn2 O24 1.905880 1_554
Mn2 O30 1.931235 1_555
Mn2 O2 1.941645 1_555
Mn2 O5 1.983836 1_555
Mn2 O29 1.993847 1_554
Mn2 O1 1.994778 1_555
Mn3 O30 1.904318 1_555
Mn3 O7 1.927980 1_555
Mn3 O26 1.946122 1_454
Mn3 O29 1.971880 1_554
Mn3 O0 1.991557 1_455
Mn3 O3 2.038116 1_455
Mn4 O14 1.904383 1_555
Mn4 O2 1.920235 1_555
Mn4 O10 1.976681 1_555
Mn4 O6 1.979750 1_555
Mn4 O11 1.984655 1_555
Mn4 O5 2.003265 1_555
Mn5 O8 1.907904 1_555
Mn5 O13 1.924270 1_555
Mn5 O9 1.947631 1_545
Mn5 O5 1.959137 1_555
Mn5 O1 2.007237 1_555
Mn5 O6 2.055001 1_555
Mn6 O3 1.954587 1_455
Mn6 O15 1.960430 1_565
Mn6 O9 2.058273 1_555
Mn6 O4 2.066103 1_455
Mn6 O8 2.256668 1_565
Mn6 O7 2.281999 1_555
Mn7 O7 1.905935 1_655
Mn7 O11 1.961846 1_555
Mn7 O12 1.981774 1_555
Mn7 O0 1.983189 1_555
Mn7 O4 1.984499 1_555
Mn7 O10 1.999445 1_555
Mn8 O17 1.948085 1_555
Mn8 O23 1.959514 1_555
Mn8 O15 2.038124 1_555
Mn8 O9 2.061703 1_545
Mn8 O13 2.234381 1_555
Mn8 O19 2.288528 1_545
Mn9 O14 1.904085 1_555
Mn9 O16 1.918344 1_655
Mn9 O22 1.923062 1_655
Mn9 O18 1.974348 1_655
Mn9 O12 2.017245 1_555
Mn9 O11 2.024871 1_555
Mn10 O19 1.944338 1_555
Mn10 O20 1.995538 1_555
Mn10 O12 2.020553 1_555
Mn10 O10 2.025504 1_555
Mn10 O14 2.256907 1_555
Mn10 O17 2.284446 1_565
Mn11 O8 1.917649 1_555
Mn11 O16 1.919867 1_555
Mn11 O13 1.928008 1_555
Mn11 O18 1.976633 1_555
Mn11 O15 1.997187 1_555
Mn11 O21 2.004854 1_555
Mn12 O31 1.967021 1_555
Mn12 O21 1.981958 1_555
Mn12 O18 2.000534 1_555
Mn12 O27 2.005509 1_555
Mn12 O25 2.263667 1_555
Mn12 O22 2.272334 1_555
Mn13 O17 1.953344 1_555
Mn13 O29 1.995011 1_655
Mn13 O26 2.020574 1_555
Mn13 O20 2.022972 1_545
Mn13 O23 2.234586 1_555
Mn13 O24 2.242229 1_655
Mn14 O23 1.922268 1_565
Mn14 O25 1.942431 1_555
Mn14 O19 1.942779 1_555
Mn14 O20 1.967461 1_555
Mn14 O27 1.998084 1_555
Mn14 O28 2.013842 1_555
Mn15 O24 1.956984 1_555
Mn15 O22 1.968198 1_555
Mn15 O26 2.015938 1_455
Mn15 O21 2.022864 1_555
Mn15 O16 2.244363 1_555
Mn15 O30 2.293075 1_556
