# generated using pymatgen
data_ThSi2
_symmetry_space_group_name_H-M   'P 1'
_cell_length_a   4.10248946
_cell_length_b   4.10248974
_cell_length_c   4.19693016
_cell_angle_alpha   90.00000000
_cell_angle_beta   90.00000000
_cell_angle_gamma   119.99999770
_symmetry_Int_Tables_number   1
_chemical_formula_structural   ThSi2
_chemical_formula_sum   'Th1 Si2'
_cell_volume   61.17265951
_cell_formula_units_Z   1
loop_
 _symmetry_equiv_pos_site_id
 _symmetry_equiv_pos_as_xyz
  1  'x, y, z'
loop_
 _atom_site_type_symbol
 _atom_site_label
 _atom_site_symmetry_multiplicity
 _atom_site_fract_x
 _atom_site_fract_y
 _atom_site_fract_z
 _atom_site_occupancy
  Th  Th0  1  -0.00000000  -0.00000000  -0.00000000  1
  Si  Si0  1  0.66666700  0.33333300  0.50000000  1
  Si  Si1  1  0.33333300  0.66666700  0.50000000  1
loop_
_geom_bond_atom_site_label_1
_geom_bond_atom_site_label_2
_geom_bond_distance
_geom_bond_site_symmetry_2
Si0 Si1 2.368571 1_655
Si0 Si1 2.368571 1_545
Si0 Si1 2.368578 1_555
Si0 Th0 3.164441 1_656
Si0 Th0 3.164441 1_655
Si0 Th0 3.164443 1_556
Si0 Th0 3.164443 1_555
Si0 Th0 3.164443 1_665
Si0 Th0 3.164443 1_666
Si1 Th0 3.164441 1_565
Si1 Th0 3.164441 1_566
Si1 Th0 3.164443 1_665
Si1 Th0 3.164443 1_666
Si1 Th0 3.164443 1_555
Si1 Th0 3.164443 1_556
