# generated using pymatgen
data_NaYH8(CO3)4
_symmetry_space_group_name_H-M   'P 1'
_cell_length_a   8.65965000
_cell_length_b   8.78209700
_cell_length_c   14.95715523
_cell_angle_alpha   76.69887671
_cell_angle_beta   90.00000000
_cell_angle_gamma   90.00000000
_symmetry_Int_Tables_number   1
_chemical_formula_structural   NaYH8(CO3)4
_chemical_formula_sum   'Na4 Y4 H32 C16 O48'
_cell_volume   1106.97606079
_cell_formula_units_Z   4
loop_
 _symmetry_equiv_pos_site_id
 _symmetry_equiv_pos_as_xyz
  1  'x, y, z'
loop_
 _atom_site_type_symbol
 _atom_site_label
 _atom_site_symmetry_multiplicity
 _atom_site_fract_x
 _atom_site_fract_y
 _atom_site_fract_z
 _atom_site_occupancy
  Na  Na0  1  0.38065800  0.31491200  0.48270100  1
  Na  Na1  1  0.61934200  0.31491200  0.98270100  1
  Na  Na2  1  0.67857100  0.99344700  0.47825100  1
  Na  Na3  1  0.32142900  0.99344700  0.97825100  1
  Y  Y0  1  0.90502800  0.19449400  0.19533600  1
  Y  Y1  1  0.09497200  0.19449400  0.69533600  1
  Y  Y2  1  0.40590700  0.66231800  0.26589900  1
  Y  Y3  1  0.59409300  0.66231800  0.76589900  1
  H  H0  1  0.37893900  0.03181400  0.40129900  1
  H  H1  1  0.28674400  0.23698500  0.05886300  1
  H  H2  1  0.96035100  0.35562600  0.99023700  1
  H  H3  1  0.05417700  0.17237100  0.49776700  1
  H  H4  1  0.62106100  0.03181400  0.90129900  1
  H  H5  1  0.71325600  0.23698500  0.55886300  1
  H  H6  1  0.71046700  0.34626100  0.45999800  1
  H  H7  1  0.03964900  0.35562600  0.49023700  1
  H  H8  1  0.94582300  0.17237100  0.99776700  1
  H  H9  1  0.90484000  0.61821700  0.07324600  1
  H  H10  1  0.90190300  0.51385200  0.36781900  1
  H  H11  1  0.27162100  0.67326700  0.05265000  1
  H  H12  1  0.28953300  0.34626100  0.95999800  1
  H  H13  1  0.76651600  0.72385400  0.09219400  1
  H  H14  1  0.02880100  0.62406600  0.39378800  1
  H  H15  1  0.32142600  0.64094700  0.46896300  1
  H  H16  1  0.50564100  0.63433200  0.46319100  1
  H  H17  1  0.77437800  0.66327000  0.45431500  1
  H  H18  1  0.09516000  0.61821700  0.57324600  1
  H  H19  1  0.09809700  0.51385200  0.86781900  1
  H  H20  1  0.72837900  0.67326700  0.55265000  1
  H  H21  1  0.97406200  0.89533000  0.00879900  1
  H  H22  1  0.23348400  0.72385400  0.59219400  1
  H  H23  1  0.97119900  0.62406600  0.89378800  1
  H  H24  1  0.67857400  0.64094700  0.96896300  1
  H  H25  1  0.49435900  0.63433200  0.96319100  1
  H  H26  1  0.22562200  0.66327000  0.95431500  1
  H  H27  1  0.02593800  0.89533000  0.50879900  1
  H  H28  1  0.97735000  0.96986200  0.40842000  1
  H  H29  1  0.31810900  0.99034000  0.50234200  1
  H  H30  1  0.02265000  0.96986200  0.90842000  1
  H  H31  1  0.68189100  0.99034000  0.00234200  1
  C  C0  1  0.17952400  0.36726500  0.27746200  1
  C  C1  1  0.60833500  0.41865300  0.18467600  1
  C  C2  1  0.69221400  0.43323100  0.27365700  1
  C  C3  1  0.13055800  0.48443700  0.18774700  1
  C  C4  1  0.82047600  0.36726500  0.77746200  1
  C  C5  1  0.39166500  0.41865300  0.68467600  1
  C  C6  1  0.30778600  0.43323100  0.77365700  1
  C  C7  1  0.86944200  0.48443700  0.68774700  1
  C  C8  1  0.68043300  0.90891700  0.18709700  1
  C  C9  1  0.11424900  0.88537900  0.27244800  1
  C  C10  1  0.19943100  0.97166900  0.18411600  1
  C  C11  1  0.62590900  0.95595600  0.27549800  1
  C  C12  1  0.31956700  0.90891700  0.68709700  1
  C  C13  1  0.88575100  0.88537900  0.77244800  1
  C  C14  1  0.80056900  0.97166900  0.68411600  1
  C  C15  1  0.37409100  0.95595600  0.77549800  1
  O  O0  1  0.14308400  0.10233900  0.14271300  1
  O  O1  1  0.69856100  0.06525700  0.29936300  1
  O  O2  1  0.39516500  0.05261900  0.46194600  1
  O  O3  1  0.90269000  0.26080400  0.02102000  1
  O  O4  1  0.85691600  0.10233900  0.64271300  1
  O  O5  1  0.11266300  0.23676000  0.29565700  1
  O  O6  1  0.30143900  0.06525700  0.79936300  1
  O  O7  1  0.67263100  0.33302500  0.13759500  1
  O  O8  1  0.60483500  0.05261900  0.96194600  1
  O  O9  1  0.09731000  0.26080400  0.52102000  1
  O  O10  1  0.65316900  0.26359800  0.50153300  1
  O  O11  1  0.82153000  0.36585800  0.29140200  1
  O  O12  1  0.02501200  0.44255400  0.13960200  1
  O  O13  1  0.28319000  0.41431400  0.32514100  1
  O  O14  1  0.88733700  0.23676000  0.79565700  1
  O  O15  1  0.48500400  0.49514400  0.16579500  1
  O  O16  1  0.32736900  0.33302500  0.63759500  1
  O  O17  1  0.62810200  0.51435000  0.32323000  1
  O  O18  1  0.34683100  0.26359800  0.00153300  1
  O  O19  1  0.17847000  0.36585800  0.79140200  1
  O  O20  1  0.19843900  0.61545900  0.16856800  1
  O  O21  1  0.97498800  0.44255400  0.63960200  1
  O  O22  1  0.94325700  0.55268900  0.41963900  1
  O  O23  1  0.83682400  0.70566000  0.04349300  1
  O  O24  1  0.71681000  0.41431400  0.82514100  1
  O  O25  1  0.51499600  0.49514400  0.66579500  1
  O  O26  1  0.40803700  0.59784500  0.43914400  1
  O  O27  1  0.37189800  0.51435000  0.82323000  1
  O  O28  1  0.62497100  0.78373300  0.17122600  1
  O  O29  1  0.80156100  0.61545900  0.66856800  1
  O  O30  1  0.17465700  0.76088600  0.31962000  1
  O  O31  1  0.05674300  0.55268900  0.91963900  1
  O  O32  1  0.69430800  0.70816200  0.48803200  1
  O  O33  1  0.16317600  0.70566000  0.54349300  1
  O  O34  1  0.59196300  0.59784500  0.93914400  1
  O  O35  1  0.31767500  0.90697900  0.15974100  1
  O  O36  1  0.51235900  0.88080700  0.31761900  1
  O  O37  1  0.37502900  0.78373300  0.67122600  1
  O  O38  1  0.77632900  0.99722600  0.13609600  1
  O  O39  1  0.98967500  0.94586200  0.29161600  1
  O  O40  1  0.82534300  0.76088600  0.81962000  1
  O  O41  1  0.30569200  0.70816200  0.98803200  1
  O  O42  1  0.68232500  0.90697900  0.65974100  1
  O  O43  1  0.96802700  0.98471600  0.47184700  1
  O  O44  1  0.48764100  0.88080700  0.81761900  1
  O  O45  1  0.22367100  0.99722600  0.63609600  1
  O  O46  1  0.01032500  0.94586200  0.79161600  1
  O  O47  1  0.03197300  0.98471600  0.97184700  1
loop_
_geom_bond_atom_site_label_1
_geom_bond_atom_site_label_2
_geom_bond_distance
_geom_bond_site_symmetry_2
Na0 O2 2.397336 1_555
Na0 O16 2.403178 1_555
Na0 O10 2.406845 1_555
Na0 O26 2.430997 1_555
Na0 O13 2.466097 1_555
Na0 O9 2.539604 1_555
Na1 O8 2.397336 1_555
Na1 O7 2.403178 1_556
Na1 O18 2.406845 1_556
Na1 O34 2.430997 1_555
Na1 O24 2.466097 1_555
Na1 O3 2.539604 1_556
Na2 O32 2.479587 1_555
Na2 O10 2.485665 1_565
Na2 O2 2.508841 1_565
Na2 O43 2.510262 1_555
Na2 O1 2.609671 1_565
Na2 O42 2.645392 1_555
Na3 O41 2.479587 1_555
Na3 O18 2.485665 1_566
Na3 O8 2.508841 1_565
Na3 O47 2.510262 1_555
Na3 O6 2.609671 1_565
Na3 O35 2.645392 1_556
H0 O2 0.975824 1_555
H1 O18 0.984098 1_555
H2 O3 0.989112 1_556
H3 O9 0.993940 1_555
H4 O8 0.975824 1_555
H5 O10 0.984098 1_555
H6 O10 0.975516 1_555
H7 O9 0.989112 1_555
H8 O3 0.993940 1_556
H9 O23 0.988650 1_555
H10 O22 0.983342 1_555
H11 O41 0.989344 1_554
H12 O18 0.975516 1_556
H13 O23 0.990143 1_555
H14 O22 0.989780 1_455
H15 O26 0.991170 1_555
H16 O26 0.999733 1_555
H17 O32 0.990968 1_555
H18 O33 0.988650 1_555
H19 O31 0.983342 1_555
H20 O32 0.989344 1_555
H21 O47 0.986685 1_654
H22 O33 0.990143 1_555
H23 O31 0.989780 1_655
H24 O34 0.991170 1_555
H25 O34 0.999733 1_555
H26 O41 0.990968 1_555
H27 O43 0.986685 1_455
H28 O43 0.990196 1_555
H29 O2 0.978474 1_565
H30 O47 0.990196 1_555
H31 O8 0.978474 1_564
C0 O5 1.256717 1_555
C0 O13 1.273094 1_555
C1 O15 1.258707 1_555
C1 O7 1.270850 1_555
C2 O11 1.265815 1_555
C2 O17 1.268295 1_555
C3 O20 1.264887 1_555
C3 O12 1.269296 1_555
C4 O14 1.256717 1_555
C4 O24 1.273094 1_555
C5 O25 1.258707 1_555
C5 O16 1.270850 1_555
C6 O19 1.265815 1_555
C6 O27 1.268295 1_555
C7 O29 1.264887 1_555
C7 O21 1.269296 1_555
C8 O38 1.265210 1_555
C8 O28 1.271117 1_555
C9 O39 1.264178 1_455
C9 O30 1.269582 1_555
C10 O35 1.264695 1_555
C10 O0 1.269440 1_565
C11 O1 1.265814 1_565
C11 O36 1.268083 1_555
C12 O45 1.265210 1_555
C12 O37 1.271117 1_555
C13 O46 1.264178 1_655
C13 O40 1.269582 1_555
C14 O42 1.264695 1_555
C14 O4 1.269440 1_565
C15 O6 1.265814 1_565
C15 O44 1.268083 1_555
O0 Y0 2.411911 1_455
O1 Y0 2.468451 1_555
O3 Y0 2.537471 1_555
O4 Y1 2.411911 1_655
O5 Y0 2.424579 1_455
O6 Y1 2.468451 1_555
O7 Y0 2.406776 1_555
O9 Y1 2.537471 1_555
O11 Y0 2.418111 1_555
O12 Y0 2.384254 1_455
O13 Y2 2.402104 1_555
O14 Y1 2.424579 1_655
O15 Y2 2.424435 1_555
O16 Y1 2.406776 1_555
O17 Y2 2.369280 1_555
O19 Y1 2.418111 1_555
O20 Y2 2.406683 1_555
O21 Y1 2.384254 1_655
O24 Y3 2.402104 1_555
O25 Y3 2.424435 1_555
O26 Y2 2.521986 1_555
O27 Y3 2.369280 1_555
O28 Y2 2.458868 1_555
O29 Y3 2.406683 1_555
O30 Y2 2.392736 1_555
O34 Y3 2.521986 1_555
O35 Y2 2.480277 1_555
O36 Y2 2.411012 1_555
O37 Y3 2.458868 1_555
O38 Y0 2.394749 1_565
O39 Y0 2.435565 1_565
O40 Y3 2.392736 1_555
O42 Y3 2.480277 1_555
O44 Y3 2.411012 1_555
O45 Y1 2.394749 1_565
O46 Y1 2.435565 1_565
