# generated using pymatgen
data_V3CuO8
_symmetry_space_group_name_H-M   'P 1'
_cell_length_a   8.27376200
_cell_length_b   8.27376200
_cell_length_c   8.27376200
_cell_angle_alpha   90.00000000
_cell_angle_beta   90.00000000
_cell_angle_gamma   90.00000000
_symmetry_Int_Tables_number   1
_chemical_formula_structural   V3CuO8
_chemical_formula_sum   'V12 Cu4 O32'
_cell_volume   566.38151645
_cell_formula_units_Z   4
loop_
 _symmetry_equiv_pos_site_id
 _symmetry_equiv_pos_as_xyz
  1  'x, y, z'
loop_
 _atom_site_type_symbol
 _atom_site_label
 _atom_site_symmetry_multiplicity
 _atom_site_fract_x
 _atom_site_fract_y
 _atom_site_fract_z
 _atom_site_occupancy
  V  V0  1  0.10998700  0.62442700  0.13250400  1
  V  V1  1  0.12442700  0.36749600  0.89001300  1
  V  V2  1  0.13250400  0.10998700  0.62442700  1
  V  V3  1  0.36749600  0.89001300  0.12442700  1
  V  V4  1  0.37557300  0.63250400  0.39001300  1
  V  V5  1  0.39001300  0.37557300  0.63250400  1
  V  V6  1  0.60998700  0.87557300  0.86749600  1
  V  V7  1  0.62442700  0.13250400  0.10998700  1
  V  V8  1  0.63250400  0.39001300  0.37557300  1
  V  V9  1  0.86749600  0.60998700  0.87557300  1
  V  V10  1  0.87557300  0.86749600  0.60998700  1
  V  V11  1  0.89001300  0.12442700  0.36749600  1
  Cu  Cu0  1  0.00180000  0.49820000  0.50180000  1
  Cu  Cu1  1  0.49820000  0.50180000  0.00180000  1
  Cu  Cu2  1  0.50180000  0.00180000  0.49820000  1
  Cu  Cu3  1  0.99820000  0.99820000  0.99820000  1
  O  O0  1  0.10076400  0.13182100  0.39279700  1
  O  O1  1  0.10720300  0.89923600  0.63182100  1
  O  O2  1  0.10914400  0.60914400  0.89085600  1
  O  O3  1  0.13182100  0.39279700  0.10076400  1
  O  O4  1  0.11599900  0.14791800  0.85691300  1
  O  O5  1  0.13830800  0.36169200  0.63830800  1
  O  O6  1  0.14308700  0.61599900  0.35208200  1
  O  O7  1  0.14791800  0.85691300  0.11599900  1
  O  O8  1  0.35208200  0.14308700  0.61599900  1
  O  O9  1  0.35691300  0.38400100  0.85208200  1
  O  O10  1  0.36169200  0.63830800  0.13830800  1
  O  O11  1  0.38400100  0.85208200  0.35691300  1
  O  O12  1  0.36817900  0.60720300  0.60076400  1
  O  O13  1  0.39085600  0.39085600  0.39085600  1
  O  O14  1  0.39279700  0.10076400  0.13182100  1
  O  O15  1  0.39923600  0.86817900  0.89279700  1
  O  O16  1  0.60076400  0.36817900  0.60720300  1
  O  O17  1  0.60720300  0.60076400  0.36817900  1
  O  O18  1  0.60914400  0.89085600  0.10914400  1
  O  O19  1  0.63182100  0.10720300  0.89923600  1
  O  O20  1  0.61599900  0.35208200  0.14308700  1
  O  O21  1  0.63830800  0.13830800  0.36169200  1
  O  O22  1  0.64308700  0.88400100  0.64791800  1
  O  O23  1  0.64791800  0.64308700  0.88400100  1
  O  O24  1  0.85208200  0.35691300  0.38400100  1
  O  O25  1  0.85691300  0.11599900  0.14791800  1
  O  O26  1  0.86169200  0.86169200  0.86169200  1
  O  O27  1  0.88400100  0.64791800  0.64308700  1
  O  O28  1  0.86817900  0.89279700  0.39923600  1
  O  O29  1  0.89085600  0.10914400  0.60914400  1
  O  O30  1  0.89279700  0.39923600  0.86817900  1
  O  O31  1  0.89923600  0.63182100  0.10720300  1
loop_
_geom_bond_atom_site_label_1
_geom_bond_atom_site_label_2
_geom_bond_distance
_geom_bond_site_symmetry_2
Cu0 O5 1.956238 1_555
Cu0 O27 1.962366 1_455
Cu0 O6 1.962366 1_555
Cu0 O24 1.962366 1_455
Cu1 O10 1.956238 1_555
Cu1 O23 1.962366 1_554
Cu1 O20 1.962366 1_555
Cu1 O9 1.962366 1_554
Cu2 O21 1.956238 1_555
Cu2 O22 1.962366 1_545
Cu2 O8 1.962366 1_555
Cu2 O11 1.962366 1_545
Cu3 O26 1.956238 1_555
Cu3 O25 1.962366 1_566
Cu3 O7 1.962366 1_656
Cu3 O4 1.962366 1_665
O0 V11 1.757289 1_455
O0 V2 1.942777 1_555
O1 V2 1.757289 1_565
O1 V10 1.942777 1_455
O2 V9 2.003345 1_455
O2 V0 2.003345 1_556
O2 V1 2.003345 1_555
O3 V1 1.757289 1_554
O3 V0 1.942777 1_555
O4 V1 1.838584 1_555
O4 V2 1.953745 1_555
O5 V5 2.086264 1_555
O5 V2 2.086264 1_555
O5 V1 2.086264 1_555
O6 V0 1.838584 1_555
O6 V4 1.953745 1_555
O7 V3 1.838584 1_555
O7 V0 1.953745 1_555
O8 V2 1.838584 1_555
O8 V5 1.953745 1_555
O9 V5 1.838584 1_555
O9 V1 1.953745 1_555
O10 V4 2.086264 1_555
O10 V3 2.086264 1_555
O10 V0 2.086264 1_555
O11 V4 1.838584 1_555
O11 V3 1.953745 1_555
O12 V4 1.757289 1_555
O12 V5 1.942777 1_555
O13 V5 2.003345 1_555
O13 V8 2.003345 1_555
O13 V4 2.003345 1_555
O14 V3 1.757289 1_545
O14 V7 1.942777 1_555
O15 V6 1.757289 1_555
O15 V3 1.942777 1_556
O16 V5 1.757289 1_555
O16 V8 1.942777 1_555
O17 V8 1.757289 1_555
O17 V4 1.942777 1_555
O18 V6 2.003345 1_554
O18 V7 2.003345 1_565
O18 V3 2.003345 1_555
O19 V7 1.757289 1_556
O19 V6 1.942777 1_545
O20 V7 1.838584 1_555
O20 V8 1.953745 1_555
O21 V7 2.086264 1_555
O21 V8 2.086264 1_555
O21 V11 2.086264 1_555
O22 V6 1.838584 1_555
O22 V10 1.953745 1_555
O23 V9 1.838584 1_555
O23 V6 1.953745 1_555
O24 V8 1.838584 1_555
O24 V11 1.953745 1_555
O25 V11 1.838584 1_555
O25 V7 1.953745 1_555
O26 V10 2.086264 1_555
O26 V9 2.086264 1_555
O26 V6 2.086264 1_555
O27 V10 1.838584 1_555
O27 V9 1.953745 1_555
O28 V10 1.757289 1_555
O28 V11 1.942777 1_565
O29 V2 2.003345 1_655
O29 V10 2.003345 1_545
O29 V11 2.003345 1_555
O30 V9 1.757289 1_555
O30 V1 1.942777 1_655
O31 V0 1.757289 1_655
O31 V9 1.942777 1_554
