# generated using pymatgen
data_Li2Co3WO8
_symmetry_space_group_name_H-M   'P 1'
_cell_length_a   5.91839754
_cell_length_b   5.91839754
_cell_length_c   9.65509294
_cell_angle_alpha   89.88078693
_cell_angle_beta   89.88078693
_cell_angle_gamma   120.52545603
_symmetry_Int_Tables_number   1
_chemical_formula_structural   Li2Co3WO8
_chemical_formula_sum   'Li4 Co6 W2 O16'
_cell_volume   291.31817283
_cell_formula_units_Z   2
loop_
 _symmetry_equiv_pos_site_id
 _symmetry_equiv_pos_as_xyz
  1  'x, y, z'
loop_
 _atom_site_type_symbol
 _atom_site_label
 _atom_site_symmetry_multiplicity
 _atom_site_fract_x
 _atom_site_fract_y
 _atom_site_fract_z
 _atom_site_occupancy
  Li  Li0  1  0.66608000  0.33924200  0.09438700  1
  Li  Li1  1  0.99665300  0.99874300  0.00986500  1
  Li  Li2  1  0.99874300  0.99665300  0.50986500  1
  Li  Li3  1  0.33924200  0.66608000  0.59438700  1
  Co  Co0  1  0.82928400  0.65553700  0.78012000  1
  Co  Co1  1  0.33598600  0.17203100  0.78544900  1
  Co  Co2  1  0.82536700  0.17376000  0.78669600  1
  Co  Co3  1  0.17376000  0.82536700  0.28669600  1
  Co  Co4  1  0.65553700  0.82928400  0.28012000  1
  Co  Co5  1  0.17203100  0.33598600  0.28544900  1
  W  W0  1  0.66881700  0.32471100  0.51079700  1
  W  W1  1  0.32471100  0.66881700  0.01079700  1
  O  O0  1  0.85352800  0.65315300  0.41061700  1
  O  O1  1  0.52747500  0.48425200  0.63978300  1
  O  O2  1  0.67557200  0.34770300  0.88760500  1
  O  O3  1  0.98032700  0.99227700  0.70157100  1
  O  O4  1  0.99227700  0.98032700  0.20157100  1
  O  O5  1  0.34494200  0.14475500  0.41231100  1
  O  O6  1  0.96632500  0.46746700  0.65781800  1
  O  O7  1  0.54021400  0.03810500  0.65646300  1
  O  O8  1  0.16652900  0.83146500  0.91259800  1
  O  O9  1  0.83146500  0.16652900  0.41259800  1
  O  O10  1  0.46746700  0.96632500  0.15781800  1
  O  O11  1  0.03810500  0.54021400  0.15646300  1
  O  O12  1  0.34770300  0.67557200  0.38760500  1
  O  O13  1  0.65315300  0.85352800  0.91061700  1
  O  O14  1  0.48425200  0.52747500  0.13978300  1
  O  O15  1  0.14475500  0.34494200  0.91231100  1
loop_
_geom_bond_atom_site_label_1
_geom_bond_atom_site_label_2
_geom_bond_distance
_geom_bond_site_symmetry_2
Li0 O14 1.951706 1_555
Li0 O11 1.992472 1_655
Li0 O10 1.995971 1_545
Li0 O2 1.996981 1_554
Li1 O4 1.853273 1_555
Li1 O8 1.970778 1_654
Li1 O15 2.004435 1_664
Li1 O13 2.006609 1_554
Li2 O3 1.853273 1_555
Li2 O9 1.970778 1_565
Li2 O5 2.004435 1_665
Li2 O0 2.006609 1_555
Li3 O1 1.951706 1_555
Li3 O7 1.992472 1_565
Li3 O6 1.995971 1_455
Li3 O12 1.996981 1_555
Co0 O3 1.878103 1_555
Co0 O2 1.878397 1_555
Co0 O6 2.051753 1_555
Co0 O1 2.056827 1_555
Co0 O8 2.146867 1_655
Co0 O13 2.299725 1_555
Co1 O3 1.988527 1_445
Co1 O2 1.995733 1_555
Co1 O8 2.122891 1_545
Co1 O1 2.128882 1_555
Co1 O7 2.147380 1_555
Co1 O15 2.237072 1_555
Co2 O3 1.916109 1_545
Co2 O7 1.926252 1_555
Co2 O2 1.929430 1_555
Co2 O6 1.944088 1_555
Co2 O13 2.021277 1_545
Co2 O15 2.034627 1_655
Co3 O4 1.916109 1_455
Co3 O11 1.926252 1_555
Co3 O12 1.929430 1_555
Co3 O10 1.944088 1_555
Co3 O0 2.021277 1_455
Co3 O5 2.034627 1_565
Co4 O4 1.878103 1_555
Co4 O12 1.878397 1_555
Co4 O10 2.051753 1_555
Co4 O14 2.056827 1_555
Co4 O9 2.146867 1_565
Co4 O0 2.299725 1_555
Co5 O4 1.988527 1_445
Co5 O12 1.995733 1_555
Co5 O9 2.122891 1_455
Co5 O14 2.128882 1_555
Co5 O11 2.147380 1_555
Co5 O5 2.237072 1_555
O0 W0 1.933468 1_555
O1 W0 1.986256 1_555
O5 W0 1.910674 1_555
O6 W0 2.081659 1_555
O7 W0 2.026991 1_555
O8 W1 1.901936 1_556
O9 W0 1.901936 1_555
O10 W1 2.081659 1_555
O11 W1 2.026991 1_555
O13 W1 1.933468 1_556
O14 W1 1.986256 1_555
O15 W1 1.910674 1_556
