# generated using pymatgen
data_Li3CrPCO7
_symmetry_space_group_name_H-M   'P 1'
_cell_length_a   6.48960000
_cell_length_b   9.53971700
_cell_length_c   9.98049137
_cell_angle_alpha   63.71477352
_cell_angle_beta   90.00000000
_cell_angle_gamma   90.00000000
_symmetry_Int_Tables_number   1
_chemical_formula_structural   Li3CrPCO7
_chemical_formula_sum   'Li12 Cr4 P4 C4 O28'
_cell_volume   553.99314483
_cell_formula_units_Z   4
loop_
 _symmetry_equiv_pos_site_id
 _symmetry_equiv_pos_as_xyz
  1  'x, y, z'
loop_
 _atom_site_type_symbol
 _atom_site_label
 _atom_site_symmetry_multiplicity
 _atom_site_fract_x
 _atom_site_fract_y
 _atom_site_fract_z
 _atom_site_occupancy
  Li  Li0  1  0.24958300  0.11145600  0.30764900  1
  Li  Li1  1  0.25041700  0.11145600  0.80764900  1
  Li  Li2  1  0.02008200  0.29356200  0.48616500  1
  Li  Li3  1  0.47991800  0.29356200  0.98616500  1
  Li  Li4  1  0.75775900  0.35670100  0.68414200  1
  Li  Li5  1  0.74224100  0.35670100  0.18414200  1
  Li  Li6  1  0.24224100  0.64329900  0.31585800  1
  Li  Li7  1  0.25775900  0.64329900  0.81585800  1
  Li  Li8  1  0.97991800  0.70643800  0.51383500  1
  Li  Li9  1  0.52008200  0.70643800  0.01383500  1
  Li  Li10  1  0.75041700  0.88854400  0.69235100  1
  Li  Li11  1  0.74958300  0.88854400  0.19235100  1
  Cr  Cr0  1  0.51736200  0.25930400  0.49592000  1
  Cr  Cr1  1  0.98263800  0.25930400  0.99592000  1
  Cr  Cr2  1  0.48263800  0.74069600  0.50408000  1
  Cr  Cr3  1  0.01736200  0.74069600  0.00408000  1
  P  P0  1  0.25367600  0.41075800  0.68228200  1
  P  P1  1  0.24632400  0.41075800  0.18228200  1
  P  P2  1  0.74632400  0.58924200  0.31771800  1
  P  P3  1  0.75367600  0.58924200  0.81771800  1
  C  C0  1  0.73659600  0.04050700  0.37661300  1
  C  C1  1  0.76340400  0.04050700  0.87661300  1
  C  C2  1  0.26340400  0.95949300  0.62338700  1
  C  C3  1  0.23659600  0.95949300  0.12338700  1
  O  O0  1  0.75099800  0.06181600  0.74198100  1
  O  O1  1  0.74900200  0.06181600  0.24198100  1
  O  O2  1  0.27791300  0.10318300  0.51270200  1
  O  O3  1  0.74170100  0.15650400  0.41155800  1
  O  O4  1  0.22208700  0.10318300  0.01270200  1
  O  O5  1  0.75829900  0.15650400  0.91155800  1
  O  O6  1  0.06402700  0.31470600  0.67815900  1
  O  O7  1  0.44254500  0.31274000  0.67390100  1
  O  O8  1  0.05745500  0.31274000  0.17390100  1
  O  O9  1  0.43597300  0.31470600  0.17815900  1
  O  O10  1  0.74970400  0.42189400  0.45081900  1
  O  O11  1  0.23536300  0.42496500  0.33078500  1
  O  O12  1  0.75029600  0.42189400  0.95081900  1
  O  O13  1  0.26463700  0.42496500  0.83078500  1
  O  O14  1  0.76463700  0.57503500  0.66921500  1
  O  O15  1  0.25029600  0.57810600  0.54918100  1
  O  O16  1  0.73536300  0.57503500  0.16921500  1
  O  O17  1  0.24970400  0.57810600  0.04918100  1
  O  O18  1  0.93597300  0.68529400  0.32184100  1
  O  O19  1  0.55745500  0.68726000  0.32609900  1
  O  O20  1  0.94254500  0.68726000  0.82609900  1
  O  O21  1  0.56402700  0.68529400  0.82184100  1
  O  O22  1  0.25829900  0.84349600  0.58844200  1
  O  O23  1  0.72208700  0.89681700  0.48729800  1
  O  O24  1  0.24170100  0.84349600  0.08844200  1
  O  O25  1  0.77791300  0.89681700  0.98729800  1
  O  O26  1  0.24900200  0.93818400  0.25801900  1
  O  O27  1  0.25099800  0.93818400  0.75801900  1
loop_
_geom_bond_atom_site_label_1
_geom_bond_atom_site_label_2
_geom_bond_distance
_geom_bond_site_symmetry_2
Li0 O26 1.924274 1_545
Li0 O2 2.021203 1_555
Li0 O9 2.161827 1_555
Li0 O8 2.180236 1_555
Li1 O27 1.924274 1_545
Li1 O4 2.021203 1_556
Li1 O6 2.161827 1_555
Li1 O7 2.180236 1_555
Li2 O6 2.033751 1_555
Li2 O11 2.050949 1_555
Li2 O10 2.078343 1_455
Li2 O2 2.396295 1_555
Li2 O3 2.527847 1_455
Li3 O9 2.033751 1_556
Li3 O13 2.050949 1_555
Li3 O12 2.078343 1_555
Li3 O4 2.396295 1_556
Li3 O5 2.527847 1_555
Li4 O14 2.021782 1_555
Li4 O6 2.033625 1_655
Li4 O7 2.099719 1_555
Li4 O10 2.128279 1_555
Li4 O5 2.227075 1_555
Li5 O16 2.021782 1_555
Li5 O9 2.033625 1_555
Li5 O8 2.099719 1_655
Li5 O12 2.128279 1_554
Li5 O3 2.227075 1_555
Li6 O11 2.021782 1_555
Li6 O18 2.033625 1_455
Li6 O19 2.099719 1_555
Li6 O15 2.128279 1_555
Li6 O24 2.227075 1_555
Li7 O13 2.021782 1_555
Li7 O21 2.033625 1_555
Li7 O20 2.099719 1_455
Li7 O17 2.128279 1_556
Li7 O22 2.227075 1_555
Li8 O18 2.033751 1_555
Li8 O14 2.050949 1_555
Li8 O15 2.078343 1_655
Li8 O23 2.396295 1_555
Li8 O22 2.527847 1_655
Li9 O21 2.033751 1_554
Li9 O16 2.050949 1_555
Li9 O17 2.078343 1_555
Li9 O25 2.396295 1_554
Li9 O24 2.527847 1_555
Li10 O0 1.924274 1_565
Li10 O23 2.021203 1_555
Li10 O21 2.161827 1_555
Li10 O20 2.180236 1_555
Li11 O1 1.924274 1_565
Li11 O25 2.021203 1_554
Li11 O18 2.161827 1_555
Li11 O19 2.180236 1_555
Cr0 O10 2.064831 1_555
Cr0 O2 2.107124 1_555
Cr0 O7 2.110207 1_555
Cr0 O3 2.126390 1_555
Cr0 O11 2.501222 1_555
Cr1 O12 2.064831 1_555
Cr1 O4 2.107124 1_656
Cr1 O8 2.110207 1_656
Cr1 O5 2.126390 1_555
Cr1 O13 2.501222 1_655
Cr2 O15 2.064831 1_555
Cr2 O23 2.107124 1_555
Cr2 O19 2.110207 1_555
Cr2 O22 2.126390 1_555
Cr2 O14 2.501222 1_555
Cr3 O17 2.064831 1_555
Cr3 O25 2.107124 1_454
Cr3 O20 2.110207 1_454
Cr3 O24 2.126390 1_555
Cr3 O16 2.501222 1_455
C0 O1 1.269408 1_555
C0 O3 1.299643 1_555
C0 O23 1.329300 1_545
C1 O0 1.269408 1_555
C1 O5 1.299643 1_555
C1 O25 1.329300 1_545
C2 O27 1.269408 1_555
C2 O22 1.299643 1_555
C2 O2 1.329300 1_565
C3 O26 1.269408 1_555
C3 O24 1.299643 1_555
C3 O4 1.329300 1_565
O6 P0 1.545783 1_555
O7 P0 1.566179 1_555
O8 P1 1.566179 1_555
O9 P1 1.545783 1_555
O10 P2 1.560615 1_555
O11 P1 1.548566 1_555
O12 P3 1.560615 1_555
O13 P0 1.548566 1_555
O14 P3 1.548566 1_555
O15 P0 1.560615 1_555
O16 P2 1.548566 1_555
O17 P1 1.560615 1_555
O18 P2 1.545783 1_555
O19 P2 1.566179 1_555
O20 P3 1.566179 1_555
O21 P3 1.545783 1_555
