# generated using pymatgen
data_KH2SeNO3
_symmetry_space_group_name_H-M   'P 1'
_cell_length_a   7.44143400
_cell_length_b   7.63695700
_cell_length_c   8.18429938
_cell_angle_alpha   83.59528089
_cell_angle_beta   90.00000000
_cell_angle_gamma   90.00000000
_symmetry_Int_Tables_number   1
_chemical_formula_structural   KH2SeNO3
_chemical_formula_sum   'K4 H8 Se4 N4 O12'
_cell_volume   462.21011579
_cell_formula_units_Z   4
loop_
 _symmetry_equiv_pos_site_id
 _symmetry_equiv_pos_as_xyz
  1  'x, y, z'
loop_
 _atom_site_type_symbol
 _atom_site_label
 _atom_site_symmetry_multiplicity
 _atom_site_fract_x
 _atom_site_fract_y
 _atom_site_fract_z
 _atom_site_occupancy
  K  K0  1  0.12471700  0.38477900  0.35308700  1
  K  K1  1  0.62471700  0.11522100  0.64691300  1
  K  K2  1  0.87528300  0.61522100  0.64691300  1
  K  K3  1  0.37528300  0.88477900  0.35308700  1
  H  H0  1  0.67632400  0.38455700  0.97296400  1
  H  H1  1  0.17632400  0.11544300  0.02703600  1
  H  H2  1  0.32367600  0.61544300  0.02703600  1
  H  H3  1  0.82367600  0.88455700  0.97296400  1
  H  H4  1  0.82716600  0.27376600  0.10162700  1
  H  H5  1  0.32716600  0.22623400  0.89837300  1
  H  H6  1  0.17283400  0.72623400  0.89837300  1
  H  H7  1  0.67283400  0.77376600  0.10162700  1
  Se  Se0  1  0.60588800  0.40487300  0.25000800  1
  Se  Se1  1  0.10588800  0.09512700  0.74999200  1
  Se  Se2  1  0.39411200  0.59512700  0.74999200  1
  Se  Se3  1  0.89411200  0.90487300  0.25000800  1
  N  N0  1  0.75768900  0.39126700  0.07535900  1
  N  N1  1  0.25768900  0.10873300  0.92464100  1
  N  N2  1  0.24231100  0.60873300  0.92464100  1
  N  N3  1  0.74231100  0.89126700  0.07535900  1
  O  O0  1  0.45878500  0.24058800  0.27405800  1
  O  O1  1  0.95878500  0.25941200  0.72594200  1
  O  O2  1  0.54121500  0.75941200  0.72594200  1
  O  O3  1  0.04121500  0.74058800  0.27405800  1
  O  O4  1  0.74120700  0.40323300  0.41103200  1
  O  O5  1  0.24120700  0.09676700  0.58896800  1
  O  O6  1  0.25879300  0.59676700  0.58896800  1
  O  O7  1  0.75879300  0.90323300  0.41103200  1
  O  O8  1  0.49776500  0.59598500  0.20445300  1
  O  O9  1  0.99776500  0.90401500  0.79554700  1
  O  O10  1  0.50223500  0.40401500  0.79554700  1
  O  O11  1  0.00223500  0.09598500  0.20445300  1
loop_
_geom_bond_atom_site_label_1
_geom_bond_atom_site_label_2
_geom_bond_distance
_geom_bond_site_symmetry_2
K0 O11 2.788071 1_555
K0 O3 2.792141 1_555
K0 O0 2.823078 1_555
K0 O6 2.835597 1_555
K0 O5 2.892915 1_555
K0 O4 2.899003 1_455
K1 O10 2.788071 1_555
K1 O2 2.792141 1_545
K1 O1 2.823078 1_555
K1 O7 2.835597 1_545
K1 O4 2.892915 1_555
K1 O5 2.899003 1_555
K2 O9 2.788071 1_555
K2 O1 2.792141 1_555
K2 O2 2.823078 1_555
K2 O4 2.835597 1_555
K2 O7 2.892915 1_555
K2 O6 2.899003 1_655
K3 O8 2.788071 1_555
K3 O0 2.792141 1_565
K3 O3 2.823078 1_555
K3 O5 2.835597 1_565
K3 O6 2.892915 1_555
K3 O7 2.899003 1_555
H0 N0 1.039760 1_556
H1 N1 1.039760 1_554
H2 N2 1.039760 1_554
H3 N3 1.039760 1_556
H4 N0 1.037166 1_555
H5 N1 1.037166 1_555
H6 N2 1.037166 1_555
H7 N3 1.037166 1_555
N0 Se0 1.833874 1_555
N1 Se1 1.833874 1_555
N2 Se2 1.833874 1_555
N3 Se3 1.833874 1_555
O0 Se0 1.660132 1_555
O1 Se1 1.660132 1_655
O2 Se2 1.660132 1_555
O3 Se3 1.660132 1_455
O4 Se0 1.657479 1_555
O5 Se1 1.657479 1_555
O6 Se2 1.657479 1_555
O7 Se3 1.657479 1_555
O8 Se0 1.671870 1_555
O9 Se1 1.671870 1_665
O10 Se2 1.671870 1_555
O11 Se3 1.671870 1_445
