# generated using pymatgen
data_VFe(PO4)2
_symmetry_space_group_name_H-M   'P 1'
_cell_length_a   8.50831559
_cell_length_b   8.66342430
_cell_length_c   8.66342376
_cell_angle_alpha   59.99999631
_cell_angle_beta   59.39509060
_cell_angle_gamma   59.39509027
_symmetry_Int_Tables_number   1
_chemical_formula_structural   VFe(PO4)2
_chemical_formula_sum   'V3 Fe3 P6 O24'
_cell_volume   447.37918082
_cell_formula_units_Z   3
loop_
 _symmetry_equiv_pos_site_id
 _symmetry_equiv_pos_as_xyz
  1  'x, y, z'
loop_
 _atom_site_type_symbol
 _atom_site_label
 _atom_site_symmetry_multiplicity
 _atom_site_fract_x
 _atom_site_fract_y
 _atom_site_fract_z
 _atom_site_occupancy
  V  V0  1  0.07132300  0.64289200  0.64289200  1
  V  V1  1  0.42505600  0.85831500  0.85831500  1
  V  V2  1  0.92855700  0.35714700  0.35714700  1
  Fe  Fe0  1  0.99655300  0.00114900  0.00114900  1
  Fe  Fe1  1  0.57006500  0.14331200  0.14331200  1
  Fe  Fe2  1  0.49891100  0.50036300  0.50036300  1
  P  P0  1  0.25008500  0.24973300  0.54324700  1
  P  P1  1  0.25008500  0.95693600  0.24973300  1
  P  P2  1  0.25008500  0.54324700  0.95693600  1
  P  P3  1  0.75107100  0.45791200  0.04169000  1
  P  P4  1  0.75107100  0.04169000  0.74932700  1
  P  P5  1  0.75107100  0.74932700  0.45791200  1
  O  O0  1  0.06478100  0.11805700  0.31288500  1
  O  O1  1  0.06478100  0.50427500  0.11805700  1
  O  O2  1  0.06478100  0.31288500  0.50427500  1
  O  O3  1  0.22779700  0.09005500  0.74056900  1
  O  O4  1  0.43493400  0.18764200  0.38661800  1
  O  O5  1  0.26498600  0.41267700  0.56167400  1
  O  O6  1  0.22779700  0.94158000  0.09005500  1
  O  O7  1  0.26498600  0.76066300  0.41267700  1
  O  O8  1  0.56662700  0.61827800  0.00300900  1
  O  O9  1  0.26498600  0.56167400  0.76066300  1
  O  O10  1  0.77691200  0.26277300  0.05308400  1
  O  O11  1  0.56662700  0.00300900  0.81208500  1
  O  O12  1  0.43493400  0.99080700  0.18764200  1
  O  O13  1  0.22779700  0.74056900  0.94158000  1
  O  O14  1  0.73103000  0.44330100  0.23812300  1
  O  O15  1  0.43493400  0.38661800  0.99080700  1
  O  O16  1  0.73103000  0.23812300  0.58754500  1
  O  O17  1  0.77691200  0.05308400  0.90723100  1
  O  O18  1  0.73103000  0.58754500  0.44330100  1
  O  O19  1  0.56662700  0.81208500  0.61827800  1
  O  O20  1  0.77691200  0.90723100  0.26277300  1
  O  O21  1  0.93495500  0.68049800  0.50179800  1
  O  O22  1  0.93495500  0.50179800  0.88274700  1
  O  O23  1  0.93495500  0.88274700  0.68049800  1
loop_
_geom_bond_atom_site_label_1
_geom_bond_atom_site_label_2
_geom_bond_distance
_geom_bond_site_symmetry_2
Fe0 O20 2.163977 1_545
Fe0 O10 2.163977 1_555
Fe0 O17 2.163977 1_554
Fe0 O13 2.200518 1_644
Fe0 O3 2.200521 1_654
Fe0 O6 2.200524 1_645
Fe1 O4 1.950570 1_555
Fe1 O15 1.950570 1_554
Fe1 O12 1.950571 1_545
Fe1 O10 2.103400 1_555
Fe1 O20 2.103403 1_545
Fe1 O17 2.103406 1_554
Fe2 O18 2.206039 1_555
Fe2 O16 2.206042 1_555
Fe2 O14 2.206045 1_555
Fe2 O9 2.209097 1_555
Fe2 O7 2.209097 1_555
Fe2 O5 2.209098 1_555
O0 P1 1.542080 1_545
O0 V2 1.917826 1_455
O1 P2 1.542087 1_554
O1 V2 1.917826 1_455
O2 P0 1.542095 1_555
O2 V2 1.917826 1_455
O3 P0 1.563386 1_555
O3 V1 2.037747 1_545
O4 P0 1.516461 1_555
O5 P0 1.569243 1_555
O5 V0 2.016071 1_555
O6 P1 1.563386 1_555
O6 V1 2.037747 1_554
O7 P1 1.569248 1_555
O7 V0 2.016075 1_555
O8 P3 1.534640 1_555
O8 V1 1.930515 1_554
O9 P2 1.569252 1_555
O9 V0 2.016078 1_555
O10 P3 1.546889 1_555
O11 P4 1.534642 1_555
O11 V1 1.930508 1_545
O12 P1 1.516461 1_555
O13 P2 1.563386 1_555
O13 V1 2.037747 1_555
O14 P3 1.565968 1_555
O14 V2 2.040229 1_555
O15 P2 1.516461 1_555
O16 P4 1.565971 1_555
O16 V2 2.040232 1_555
O17 P4 1.546889 1_555
O18 P5 1.565977 1_555
O18 V2 2.040236 1_555
O19 P5 1.534637 1_555
O19 V1 1.930523 1_555
O20 P5 1.546889 1_555
O21 P5 1.541738 1_555
O21 V0 1.899336 1_655
O22 P3 1.541742 1_556
O22 V0 1.899332 1_655
O23 P4 1.541748 1_565
O23 V0 1.899328 1_655
