# generated using pymatgen
data_LiNiPO4
_symmetry_space_group_name_H-M   'P 1'
_cell_length_a   4.78575700
_cell_length_b   7.36489700
_cell_length_c   17.63229608
_cell_angle_alpha   87.40151464
_cell_angle_beta   90.00000000
_cell_angle_gamma   90.00000000
_symmetry_Int_Tables_number   1
_chemical_formula_structural   LiNiPO4
_chemical_formula_sum   'Li8 Ni8 P8 O32'
_cell_volume   620.83959319
_cell_formula_units_Z   8
loop_
 _symmetry_equiv_pos_site_id
 _symmetry_equiv_pos_as_xyz
  1  'x, y, z'
loop_
 _atom_site_type_symbol
 _atom_site_label
 _atom_site_symmetry_multiplicity
 _atom_site_fract_x
 _atom_site_fract_y
 _atom_site_fract_z
 _atom_site_occupancy
  Li  Li0  1  0.77953000  0.13704300  0.77597100  1
  Li  Li1  1  0.72047000  0.13704300  0.27597100  1
  Li  Li2  1  0.21675500  0.34602500  0.51419000  1
  Li  Li3  1  0.28324500  0.34602500  0.01419000  1
  Li  Li4  1  0.71675500  0.65397500  0.98581000  1
  Li  Li5  1  0.78324500  0.65397500  0.48581000  1
  Li  Li6  1  0.27953000  0.86295700  0.72402900  1
  Li  Li7  1  0.22047000  0.86295700  0.22402900  1
  Ni  Ni0  1  0.71368400  0.04183400  0.60010300  1
  Ni  Ni1  1  0.78631600  0.04183400  0.10010300  1
  Ni  Ni2  1  0.34950600  0.49734800  0.82708500  1
  Ni  Ni3  1  0.15049400  0.49734800  0.32708500  1
  Ni  Ni4  1  0.84950600  0.50265200  0.67291500  1
  Ni  Ni5  1  0.65049400  0.50265200  0.17291500  1
  Ni  Ni6  1  0.21368400  0.95816600  0.89989700  1
  Ni  Ni7  1  0.28631600  0.95816600  0.39989700  1
  P  P0  1  0.35820500  0.25505200  0.67884500  1
  P  P1  1  0.14179500  0.25505200  0.17884500  1
  P  P2  1  0.69144400  0.22456200  0.93073400  1
  P  P3  1  0.80855600  0.22456200  0.43073400  1
  P  P4  1  0.19144400  0.77543800  0.56926600  1
  P  P5  1  0.30855600  0.77543800  0.06926600  1
  P  P6  1  0.85820500  0.74494800  0.82115500  1
  P  P7  1  0.64179500  0.74494800  0.32115500  1
  O  O0  1  0.49358400  0.07307000  0.70650200  1
  O  O1  1  0.00641600  0.07307000  0.20650200  1
  O  O2  1  0.59772500  0.17203800  0.01219400  1
  O  O3  1  0.54995200  0.10817100  0.87077600  1
  O  O4  1  0.45983400  0.27974900  0.59609700  1
  O  O5  1  0.03906000  0.26143400  0.69103800  1
  O  O6  1  0.90227500  0.17203800  0.51219400  1
  O  O7  1  0.95004800  0.10817100  0.37077600  1
  O  O8  1  0.04016600  0.27974900  0.09609700  1
  O  O9  1  0.46094000  0.26143400  0.19103800  1
  O  O10  1  0.01304900  0.21150200  0.92055200  1
  O  O11  1  0.48695100  0.21150200  0.42055200  1
  O  O12  1  0.49394000  0.41171000  0.72537000  1
  O  O13  1  0.00606000  0.41171000  0.22537000  1
  O  O14  1  0.57925900  0.42503600  0.91674600  1
  O  O15  1  0.92074100  0.42503600  0.41674600  1
  O  O16  1  0.07925900  0.57496400  0.58325400  1
  O  O17  1  0.42074100  0.57496400  0.08325400  1
  O  O18  1  0.99394000  0.58829000  0.77463000  1
  O  O19  1  0.50606000  0.58829000  0.27463000  1
  O  O20  1  0.51304900  0.78849800  0.57944800  1
  O  O21  1  0.98695100  0.78849800  0.07944800  1
  O  O22  1  0.53906000  0.73856600  0.80896200  1
  O  O23  1  0.95983400  0.72025100  0.90390300  1
  O  O24  1  0.04995200  0.89182900  0.62922400  1
  O  O25  1  0.09772500  0.82796200  0.48780600  1
  O  O26  1  0.96094000  0.73856600  0.30896200  1
  O  O27  1  0.54016600  0.72025100  0.40390300  1
  O  O28  1  0.45004800  0.89182900  0.12922400  1
  O  O29  1  0.40227500  0.82796200  0.98780600  1
  O  O30  1  0.99358400  0.92693000  0.79349800  1
  O  O31  1  0.50641600  0.92693000  0.29349800  1
loop_
_geom_bond_atom_site_label_1
_geom_bond_atom_site_label_2
_geom_bond_distance
_geom_bond_site_symmetry_2
Li0 O30 1.869811 1_545
Li0 O0 1.909816 1_555
Li0 O3 2.003618 1_555
Li0 O5 2.121384 1_655
Li0 O12 2.567593 1_555
Li1 O31 1.869811 1_545
Li1 O1 1.909816 1_655
Li1 O7 2.003618 1_555
Li1 O9 2.121384 1_555
Li1 O13 2.567593 1_655
Li2 O4 1.900890 1_555
Li2 O6 1.977980 1_455
Li2 O16 2.223753 1_555
Li2 O15 2.281872 1_455
Li2 O11 2.351163 1_555
Li3 O8 1.900890 1_555
Li3 O2 1.977980 1_555
Li3 O17 2.223753 1_555
Li3 O14 2.281872 1_554
Li3 O10 2.351163 1_554
Li4 O23 1.900890 1_555
Li4 O29 1.977980 1_555
Li4 O14 2.223753 1_555
Li4 O17 2.281872 1_556
Li4 O21 2.351163 1_556
Li5 O27 1.900890 1_555
Li5 O25 1.977980 1_655
Li5 O15 2.223753 1_555
Li5 O16 2.281872 1_655
Li5 O20 2.351163 1_555
Li6 O0 1.869811 1_565
Li6 O30 1.909816 1_455
Li6 O24 2.003618 1_555
Li6 O22 2.121384 1_555
Li6 O18 2.567593 1_455
Li7 O1 1.869811 1_565
Li7 O31 1.909816 1_555
Li7 O28 2.003618 1_555
Li7 O26 2.121384 1_455
Li7 O19 2.567593 1_555
Ni0 O6 2.000501 1_555
Ni0 O24 2.005635 1_645
Ni0 O4 2.130712 1_555
Ni0 O20 2.144155 1_545
Ni0 O0 2.172830 1_555
Ni1 O2 2.000501 1_555
Ni1 O28 2.005635 1_545
Ni1 O8 2.130712 1_655
Ni1 O21 2.144155 1_545
Ni1 O1 2.172830 1_655
Ni2 O14 1.978792 1_555
Ni2 O22 2.007409 1_555
Ni2 O18 2.035558 1_455
Ni2 O12 2.048095 1_555
Ni3 O15 1.978792 1_455
Ni3 O26 2.007409 1_455
Ni3 O19 2.035558 1_555
Ni3 O13 2.048095 1_555
Ni4 O16 1.978792 1_655
Ni4 O5 2.007409 1_655
Ni4 O12 2.035558 1_555
Ni4 O18 2.048095 1_555
Ni5 O17 1.978792 1_555
Ni5 O9 2.007409 1_555
Ni5 O13 2.035558 1_655
Ni5 O19 2.048095 1_555
Ni6 O29 2.000501 1_555
Ni6 O3 2.005635 1_565
Ni6 O23 2.130712 1_455
Ni6 O10 2.144155 1_565
Ni6 O30 2.172830 1_455
Ni7 O25 2.000501 1_555
Ni7 O7 2.005635 1_465
Ni7 O27 2.130712 1_555
Ni7 O11 2.144155 1_565
Ni7 O31 2.172830 1_555
O0 P0 1.547467 1_555
O1 P1 1.547467 1_555
O2 P2 1.537356 1_554
O3 P2 1.546987 1_555
O4 P0 1.540898 1_555
O5 P0 1.543420 1_555
O6 P3 1.537356 1_555
O7 P3 1.546987 1_555
O8 P1 1.540898 1_555
O9 P1 1.543420 1_555
O10 P2 1.553045 1_455
O11 P3 1.553045 1_555
O12 P0 1.584911 1_555
O13 P1 1.584911 1_555
O14 P2 1.579882 1_555
O15 P3 1.579882 1_555
O16 P4 1.579882 1_555
O17 P5 1.579882 1_555
O18 P6 1.584911 1_555
O19 P7 1.584911 1_555
O20 P4 1.553045 1_555
O21 P5 1.553045 1_655
O22 P6 1.543420 1_555
O23 P6 1.540898 1_555
O24 P4 1.546987 1_555
O25 P4 1.537356 1_555
O26 P7 1.543420 1_555
O27 P7 1.540898 1_555
O28 P5 1.546987 1_555
O29 P5 1.537356 1_556
O30 P6 1.547467 1_555
O31 P7 1.547467 1_555
