# generated using pymatgen
data_Rb2Ti(CuS2)2
_symmetry_space_group_name_H-M   'P 1'
_cell_length_a   5.58552278
_cell_length_b   5.58552278
_cell_length_c   13.28211685
_cell_angle_alpha   90.00000000
_cell_angle_beta   90.00000000
_cell_angle_gamma   90.00000000
_symmetry_Int_Tables_number   1
_chemical_formula_structural   Rb2Ti(CuS2)2
_chemical_formula_sum   'Rb4 Ti2 Cu4 S8'
_cell_volume   414.37634118
_cell_formula_units_Z   2
loop_
 _symmetry_equiv_pos_site_id
 _symmetry_equiv_pos_as_xyz
  1  'x, y, z'
loop_
 _atom_site_type_symbol
 _atom_site_label
 _atom_site_symmetry_multiplicity
 _atom_site_fract_x
 _atom_site_fract_y
 _atom_site_fract_z
 _atom_site_occupancy
  Rb  Rb0  1  0.76000804  0.76000804  -0.00000000  1
  Rb  Rb1  1  0.23999196  0.76000804  0.50000000  1
  Rb  Rb2  1  0.76000804  0.23999196  0.50000000  1
  Rb  Rb3  1  0.23999196  0.23999196  -0.00000000  1
  Ti  Ti0  1  0.50000000  0.50000000  0.75000000  1
  Ti  Ti1  1  0.50000000  0.50000000  0.25000000  1
  Cu  Cu0  1  0.00000000  0.50000000  0.75000000  1
  Cu  Cu1  1  0.50000000  -0.00000000  0.75000000  1
  Cu  Cu2  1  0.00000000  0.50000000  0.25000000  1
  Cu  Cu3  1  0.50000000  -0.00000000  0.25000000  1
  S  S0  1  0.73911848  0.73911848  0.65448911  1
  S  S1  1  0.26088152  0.26088152  0.65448911  1
  S  S2  1  0.73911848  0.73911848  0.34551089  1
  S  S3  1  0.73911848  0.26088152  0.15448911  1
  S  S4  1  0.26088152  0.73911848  0.84551089  1
  S  S5  1  0.26088152  0.26088152  0.34551089  1
  S  S6  1  0.26088152  0.73911848  0.15448911  1
  S  S7  1  0.73911848  0.26088152  0.84551089  1
loop_
_geom_bond_atom_site_label_1
_geom_bond_atom_site_label_2
_geom_bond_distance
_geom_bond_site_symmetry_2
Rb0 S4 3.463578 1_554
Rb0 S7 3.463578 1_554
Rb0 S6 3.463578 1_555
Rb0 S3 3.463578 1_555
Rb0 S7 3.471437 1_564
Rb0 S4 3.471437 1_654
Rb0 S3 3.471437 1_565
Rb0 S6 3.471437 1_655
Rb1 S1 3.463578 1_555
Rb1 S2 3.463578 1_555
Rb1 S5 3.463578 1_555
Rb1 S0 3.463578 1_555
Rb1 S5 3.471437 1_565
Rb1 S1 3.471437 1_565
Rb1 S2 3.471437 1_455
Rb1 S0 3.471437 1_455
Rb2 S1 3.463578 1_555
Rb2 S2 3.463578 1_555
Rb2 S5 3.463578 1_555
Rb2 S0 3.463578 1_555
Rb2 S5 3.471437 1_655
Rb2 S1 3.471437 1_655
Rb2 S2 3.471437 1_545
Rb2 S0 3.471437 1_545
Rb3 S4 3.463578 1_554
Rb3 S7 3.463578 1_554
Rb3 S3 3.463578 1_555
Rb3 S6 3.463578 1_555
Rb3 S4 3.471437 1_544
Rb3 S7 3.471437 1_454
Rb3 S6 3.471437 1_545
Rb3 S3 3.471437 1_455
Cu0 S1 2.348714 1_555
Cu0 S0 2.348714 1_455
Cu0 S7 2.348714 1_455
Cu0 S4 2.348714 1_555
Cu1 S1 2.348714 1_555
Cu1 S0 2.348714 1_545
Cu1 S7 2.348714 1_555
Cu1 S4 2.348714 1_545
Cu2 S3 2.348714 1_455
Cu2 S6 2.348714 1_555
Cu2 S2 2.348714 1_455
Cu2 S5 2.348714 1_555
Cu3 S5 2.348714 1_555
Cu3 S2 2.348714 1_545
Cu3 S6 2.348714 1_545
Cu3 S3 2.348714 1_555
S0 Ti0 2.275297 1_555
S1 Ti0 2.275297 1_555
S2 Ti1 2.275297 1_555
S3 Ti1 2.275297 1_555
S4 Ti0 2.275297 1_555
S5 Ti1 2.275297 1_555
S6 Ti1 2.275297 1_555
S7 Ti0 2.275297 1_555
