# generated using pymatgen
data_Li(FeO2)2
_symmetry_space_group_name_H-M   'P 1'
_cell_length_a   5.92403369
_cell_length_b   5.92403369
_cell_length_c   5.92403411
_cell_angle_alpha   60.46807083
_cell_angle_beta   60.46807083
_cell_angle_gamma   60.46807046
_symmetry_Int_Tables_number   1
_chemical_formula_structural   Li(FeO2)2
_chemical_formula_sum   'Li2 Fe4 O8'
_cell_volume   148.56227050
_cell_formula_units_Z   2
loop_
 _symmetry_equiv_pos_site_id
 _symmetry_equiv_pos_as_xyz
  1  'x, y, z'
loop_
 _atom_site_type_symbol
 _atom_site_label
 _atom_site_symmetry_multiplicity
 _atom_site_fract_x
 _atom_site_fract_y
 _atom_site_fract_z
 _atom_site_occupancy
  Li  Li0  1  0.88075000  0.88075000  0.88075000  1
  Li  Li1  1  0.50157700  0.50157700  0.50157700  1
  Fe  Fe0  1  0.98847500  0.50394500  0.50394500  1
  Fe  Fe1  1  0.50394500  0.50394500  0.98847500  1
  Fe  Fe2  1  0.50394500  0.98847500  0.50394500  1
  Fe  Fe3  1  0.11692800  0.11692800  0.11692800  1
  O  O0  1  0.74501500  0.74501500  0.74501500  1
  O  O1  1  0.74776700  0.28804500  0.74776700  1
  O  O2  1  0.74776700  0.74776700  0.28804500  1
  O  O3  1  0.28804500  0.74776700  0.74776700  1
  O  O4  1  0.72176500  0.25088800  0.25088800  1
  O  O5  1  0.25088800  0.25088800  0.72176500  1
  O  O6  1  0.25088800  0.72176500  0.25088800  1
  O  O7  1  0.25224700  0.25224700  0.25224700  1
loop_
_geom_bond_atom_site_label_1
_geom_bond_atom_site_label_2
_geom_bond_distance
_geom_bond_site_symmetry_2
Li0 O0 1.962635 1_555
Li0 O1 1.981690 1_565
Li0 O3 1.981690 1_655
Li0 O2 1.981690 1_556
Li1 O2 2.076939 1_555
Li1 O1 2.076939 1_555
Li1 O3 2.076939 1_555
Li1 O5 2.113599 1_555
Li1 O4 2.113599 1_555
Li1 O6 2.113599 1_555
Fe0 O1 1.924008 1_555
Fe0 O2 1.924008 1_555
Fe0 O6 2.025373 1_655
Fe0 O5 2.025373 1_655
Fe0 O0 2.026988 1_555
Fe0 O7 2.118074 1_655
Fe1 O3 1.924008 1_555
Fe1 O1 1.924008 1_555
Fe1 O6 2.025373 1_556
Fe1 O4 2.025373 1_556
Fe1 O0 2.026987 1_555
Fe1 O7 2.118074 1_556
Fe2 O3 1.924008 1_555
Fe2 O2 1.924008 1_555
Fe2 O4 2.025373 1_565
Fe2 O5 2.025373 1_565
Fe2 O0 2.026988 1_555
Fe2 O7 2.118074 1_565
Fe3 O4 1.922937 1_455
Fe3 O6 1.922937 1_545
Fe3 O5 1.922937 1_554
Fe3 O7 1.956620 1_555
