# generated using pymatgen
data_Li3Co13O16
_symmetry_space_group_name_H-M   'P 1'
_cell_length_a   5.16086900
_cell_length_b   5.16629267
_cell_length_c   11.58274388
_cell_angle_alpha   85.86105069
_cell_angle_beta   81.52087382
_cell_angle_gamma   80.71439153
_symmetry_Int_Tables_number   1
_chemical_formula_structural   Li3Co13O16
_chemical_formula_sum   'Li3 Co13 O16'
_cell_volume   301.07694178
_cell_formula_units_Z   1
loop_
 _symmetry_equiv_pos_site_id
 _symmetry_equiv_pos_as_xyz
  1  'x, y, z'
loop_
 _atom_site_type_symbol
 _atom_site_label
 _atom_site_symmetry_multiplicity
 _atom_site_fract_x
 _atom_site_fract_y
 _atom_site_fract_z
 _atom_site_occupancy
  Li  Li0  1  0.50000000  0.00000000  0.00000000  1
  Li  Li1  1  0.31104200  0.75036600  0.68775400  1
  Li  Li2  1  0.68895800  0.24963400  0.31224600  1
  Co  Co0  1  0.25336800  0.00442200  0.24891700  1
  Co  Co1  1  0.06600300  0.75403700  0.93737600  1
  Co  Co2  1  0.00000000  0.00000000  0.50000000  1
  Co  Co3  1  0.38104000  0.49623600  0.12393500  1
  Co  Co4  1  0.80908000  0.75226200  0.18773300  1
  Co  Co5  1  0.56549000  0.74877300  0.43659200  1
  Co  Co6  1  0.74663200  0.99557800  0.75108300  1
  Co  Co7  1  0.61896000  0.50376400  0.87606500  1
  Co  Co8  1  0.12592600  0.49592600  0.37370700  1
  Co  Co9  1  0.93399700  0.24596300  0.06262400  1
  Co  Co10  1  0.87407400  0.50407400  0.62629300  1
  Co  Co11  1  0.43451000  0.25122700  0.56340800  1
  Co  Co12  1  0.19092000  0.24773800  0.81226700  1
  O  O0  1  0.84827700  0.13136000  0.90463300  1
  O  O1  1  0.34022200  0.12153300  0.40746500  1
  O  O2  1  0.59396400  0.12479100  0.15566300  1
  O  O3  1  0.40603600  0.87520900  0.84433700  1
  O  O4  1  0.46587300  0.63366100  0.27972900  1
  O  O5  1  0.72598200  0.61917100  0.03064700  1
  O  O6  1  0.21968200  0.62281000  0.52735200  1
  O  O7  1  0.08671500  0.13404200  0.65716900  1
  O  O8  1  0.27401800  0.38082900  0.96935300  1
  O  O9  1  0.65977800  0.87846700  0.59253500  1
  O  O10  1  0.15172300  0.86864000  0.09536700  1
  O  O11  1  0.91328500  0.86595800  0.34283100  1
  O  O12  1  0.96420800  0.62129900  0.78409400  1
  O  O13  1  0.78031800  0.37719000  0.47264800  1
  O  O14  1  0.03579200  0.37870100  0.21590600  1
  O  O15  1  0.53412700  0.36633900  0.72027100  1
loop_
_geom_bond_atom_site_label_1
_geom_bond_atom_site_label_2
_geom_bond_distance
_geom_bond_site_symmetry_2
Li0 O2 2.104321 1_555
Li0 O3 2.104321 1_544
Li0 O10 2.147404 1_545
Li0 O0 2.147404 1_554
Li0 O5 2.153581 1_545
Li0 O8 2.153581 1_554
Li1 O3 2.116321 1_555
Li1 O12 2.140683 1_455
Li1 O9 2.141784 1_555
Li1 O6 2.154922 1_555
Li1 O7 2.161917 1_565
Li1 O15 2.164829 1_555
Li2 O2 2.116321 1_555
Li2 O14 2.140683 1_655
Li2 O1 2.141784 1_555
Li2 O13 2.154922 1_555
Li2 O11 2.161917 1_545
Li2 O4 2.164829 1_555
Co0 O4 2.082775 1_545
Co0 O2 2.083040 1_555
Co0 O1 2.104775 1_555
Co0 O14 2.113103 1_555
Co0 O10 2.122362 1_545
Co0 O11 2.122564 1_445
Co1 O3 2.081397 1_555
Co1 O8 2.086489 1_555
Co1 O10 2.091581 1_556
Co1 O5 2.111583 1_456
Co1 O12 2.113167 1_455
Co1 O0 2.125682 1_465
Co2 O9 2.080777 1_445
Co2 O1 2.080777 1_555
Co2 O6 2.118236 1_545
Co2 O13 2.118236 1_455
Co2 O7 2.125114 1_555
Co2 O11 2.125114 1_445
Co3 O2 2.088514 1_555
Co3 O14 2.091484 1_555
Co3 O8 2.101996 1_554
Co3 O5 2.106796 1_555
Co3 O4 2.114303 1_555
Co3 O10 2.121431 1_555
Co4 O10 2.079768 1_655
Co4 O4 2.085086 1_555
Co4 O11 2.097779 1_555
Co4 O2 2.098439 1_565
Co4 O5 2.114968 1_555
Co4 O14 2.119681 1_655
Co5 O13 2.103060 1_555
Co5 O6 2.106285 1_555
Co5 O11 2.109175 1_555
Co5 O4 2.109318 1_555
Co5 O1 2.115049 1_565
Co5 O9 2.118345 1_555
Co6 O15 2.082775 1_565
Co6 O3 2.083040 1_555
Co6 O9 2.104775 1_555
Co6 O12 2.113103 1_555
Co6 O0 2.122362 1_565
Co6 O7 2.122564 1_665
Co7 O3 2.088514 1_555
Co7 O12 2.091484 1_555
Co7 O5 2.101996 1_556
Co7 O8 2.106796 1_555
Co7 O15 2.114303 1_555
Co7 O0 2.121431 1_555
Co8 O11 2.080099 1_455
Co8 O6 2.087009 1_555
Co8 O14 2.103645 1_555
Co8 O1 2.108379 1_555
Co8 O4 2.120640 1_555
Co8 O13 2.125984 1_455
Co9 O2 2.081397 1_555
Co9 O5 2.086489 1_555
Co9 O0 2.091581 1_554
Co9 O8 2.111583 1_654
Co9 O14 2.113167 1_655
Co9 O10 2.125682 1_645
Co10 O7 2.080099 1_655
Co10 O13 2.087009 1_555
Co10 O12 2.103645 1_555
Co10 O9 2.108379 1_555
Co10 O15 2.120640 1_555
Co10 O6 2.125984 1_655
Co11 O6 2.103060 1_555
Co11 O13 2.106285 1_555
Co11 O7 2.109175 1_555
Co11 O15 2.109318 1_555
Co11 O9 2.115049 1_545
Co11 O1 2.118345 1_555
Co12 O0 2.079768 1_455
Co12 O15 2.085086 1_555
Co12 O7 2.097779 1_555
Co12 O3 2.098439 1_545
Co12 O8 2.114968 1_555
Co12 O12 2.119681 1_455
