# generated using pymatgen
data_Li7Mn(O2F)2
_symmetry_space_group_name_H-M   'P 1'
_cell_length_a   5.43423144
_cell_length_b   5.78646990
_cell_length_c   10.01399356
_cell_angle_alpha   105.03581897
_cell_angle_beta   92.49890437
_cell_angle_gamma   64.54799523
_symmetry_Int_Tables_number   1
_chemical_formula_structural   Li7Mn(O2F)2
_chemical_formula_sum   'Li14 Mn2 O8 F4'
_cell_volume   273.76101181
_cell_formula_units_Z   2
loop_
 _symmetry_equiv_pos_site_id
 _symmetry_equiv_pos_as_xyz
  1  'x, y, z'
loop_
 _atom_site_type_symbol
 _atom_site_label
 _atom_site_symmetry_multiplicity
 _atom_site_fract_x
 _atom_site_fract_y
 _atom_site_fract_z
 _atom_site_occupancy
  Li  Li0  1  0.05660700  0.26701500  0.23502800  1
  Li  Li1  1  0.48596300  0.37402000  0.74916000  1
  Li  Li2  1  0.53096800  0.34711200  0.39012300  1
  Li  Li3  1  0.96790900  0.66157600  0.11549200  1
  Li  Li4  1  0.05679200  0.65030700  0.44297300  1
  Li  Li5  1  0.52763400  0.66553300  0.95754600  1
  Li  Li6  1  0.96180800  0.01759700  0.66079100  1
  Li  Li7  1  0.47184100  0.30284200  0.05939700  1
  Li  Li8  1  0.95771000  0.33487000  0.52971300  1
  Li  Li9  1  0.98732000  0.38392500  0.88910900  1
  Li  Li10  1  0.49454000  0.64402500  0.61788800  1
  Li  Li11  1  0.47293800  0.70312800  0.27252100  1
  Li  Li12  1  0.00503000  0.64825800  0.74669900  1
  Li  Li13  1  0.52446300  0.97054100  0.83062600  1
  Mn  Mn0  1  0.50561100  0.00456200  0.50614900  1
  Mn  Mn1  1  0.00105900  0.99937100  0.96260600  1
  O  O0  1  0.25056700  0.23830200  0.40213600  1
  O  O1  1  0.29205900  0.76304000  0.80215900  1
  O  O2  1  0.15802300  0.23776900  0.03613400  1
  O  O3  1  0.67071700  0.25166700  0.56541900  1
  O  O4  1  0.69482000  0.26139100  0.89351300  1
  O  O5  1  0.34202900  0.75974800  0.46123800  1
  O  O6  1  0.82645200  0.76480900  0.93987900  1
  O  O7  1  0.77849500  0.76842100  0.60975900  1
  F  F0  1  0.83078400  0.70036700  0.29106200  1
  F  F1  1  0.28385500  0.72602100  0.10911600  1
  F  F2  1  0.68827400  0.28503100  0.21172000  1
  F  F3  1  0.17573200  0.26874600  0.71204400  1
loop_
_geom_bond_atom_site_label_1
_geom_bond_atom_site_label_2
_geom_bond_distance
_geom_bond_site_symmetry_2
Li0 O0 1.943921 1_555
Li0 O2 2.034700 1_555
Li1 O4 1.874166 1_555
Li1 O3 1.941398 1_555
Li1 O1 1.961989 1_555
Li2 O0 1.900698 1_555
Li2 O3 1.997374 1_555
Li2 O5 2.082515 1_555
Li3 O6 2.018134 1_554
Li3 O2 2.143755 1_655
Li4 O5 1.896315 1_555
Li4 O7 2.069636 1_455
Li4 O0 2.081765 1_555
Li5 O6 1.969197 1_555
Li5 O1 2.009838 1_555
Li5 O4 2.037659 1_555
Li6 O3 1.986655 1_555
Li6 O7 2.034765 1_545
Li6 O1 2.445984 1_645
Li6 O4 2.521135 1_555
Li7 O2 1.891052 1_555
Li7 O4 2.001060 1_554
Li8 O0 1.876077 1_655
Li8 O3 1.890840 1_555
Li8 O7 2.193044 1_555
Li9 O2 1.896339 1_656
Li9 O6 1.918738 1_555
Li9 O4 2.005557 1_555
Li10 O5 1.884334 1_555
Li10 O7 1.975318 1_555
Li10 O3 1.975832 1_555
Li10 O1 1.989090 1_555
Li11 O5 1.944340 1_555
Li12 O7 1.868488 1_455
Li12 O1 1.950900 1_555
Li12 O6 2.015723 1_455
Li13 O6 2.036499 1_555
Li13 O1 2.052396 1_555
Li13 O4 2.196474 1_565
Li13 O7 2.387852 1_555
Li13 O2 2.579006 1_566
Mn0 O5 1.927747 1_545
Mn0 O3 1.953897 1_555
Mn0 O0 1.956781 1_555
Mn0 O7 2.000615 1_545
Mn1 O2 1.897968 1_566
Mn1 O6 1.929295 1_455
Mn1 O4 1.955034 1_465
Mn1 O1 2.043322 1_555
F0 Li3 1.860779 1_555
F0 Li4 1.914790 1_655
F0 Li11 1.938974 1_555
F0 Li0 2.189486 1_655
F0 Mn0 2.559578 1_565
F1 Li11 1.897315 1_555
F1 Li3 1.913945 1_455
F1 Li5 1.918962 1_554
F1 Li7 2.132929 1_555
F1 Mn1 2.436035 1_554
F2 Li7 1.881916 1_555
F2 Li2 1.894128 1_555
F2 Li0 1.965785 1_655
F2 Li11 2.111313 1_555
F3 Li9 1.896084 1_455
F3 Li12 1.919699 1_555
F3 Li1 2.015429 1_555
F3 Li8 2.160574 1_455
F3 Li6 2.177132 1_455
F3 Li13 2.456674 1_545
F3 Mn0 2.476521 1_555
