# generated using pymatgen
data_Li3Co2(SiO4)2
_symmetry_space_group_name_H-M   'P 1'
_cell_length_a   9.78359200
_cell_length_b   9.92447706
_cell_length_c   9.96754290
_cell_angle_alpha   95.49514630
_cell_angle_beta   116.08590243
_cell_angle_gamma   115.97636231
_symmetry_Int_Tables_number   1
_chemical_formula_structural   Li3Co2(SiO4)2
_chemical_formula_sum   'Li12 Co8 Si8 O32'
_cell_volume   729.88347220
_cell_formula_units_Z   4
loop_
 _symmetry_equiv_pos_site_id
 _symmetry_equiv_pos_as_xyz
  1  'x, y, z'
loop_
 _atom_site_type_symbol
 _atom_site_label
 _atom_site_symmetry_multiplicity
 _atom_site_fract_x
 _atom_site_fract_y
 _atom_site_fract_z
 _atom_site_occupancy
  Li  Li0  1  0.19675700  0.70204400  0.22924200  1
  Li  Li1  1  0.00702000  0.31977500  0.18174800  1
  Li  Li2  1  0.51144200  0.34275300  0.67630600  1
  Li  Li3  1  0.99443800  0.67909400  0.81841300  1
  Li  Li4  1  0.24703800  0.00703200  0.74954200  1
  Li  Li5  1  0.13564200  0.20278000  0.46446500  1
  Li  Li6  1  0.62221900  0.19829700  0.95756200  1
  Li  Li7  1  0.37787600  0.79927500  0.04467300  1
  Li  Li8  1  0.86508200  0.79871300  0.54039600  1
  Li  Li9  1  0.75624700  0.99549700  0.25121200  1
  Li  Li10  1  0.48575200  0.65035600  0.32514700  1
  Li  Li11  1  0.81034300  0.28378300  0.78977400  1
  Co  Co0  1  0.99564300  0.90075900  0.09633400  1
  Co  Co1  1  0.99639300  0.59697100  0.40590500  1
  Co  Co2  1  0.00014100  0.40159400  0.59541400  1
  Co  Co3  1  0.49745000  0.40133800  0.09261200  1
  Co  Co4  1  0.49721500  0.90110200  0.59360300  1
  Co  Co5  1  0.00648700  0.09640300  0.90590200  1
  Co  Co6  1  0.50476300  0.10386300  0.40494100  1
  Co  Co7  1  0.50220000  0.60228000  0.90152100  1
  Si  Si0  1  0.17516100  0.96213400  0.45434000  1
  Si  Si1  1  0.32535500  0.03428700  0.04232500  1
  Si  Si2  1  0.31766500  0.53358800  0.53137000  1
  Si  Si3  1  0.82671000  0.53633200  0.03138100  1
  Si  Si4  1  0.17297700  0.46642100  0.96401600  1
  Si  Si5  1  0.67816300  0.46505100  0.46604400  1
  Si  Si6  1  0.67659200  0.96580200  0.95977900  1
  Si  Si7  1  0.82609700  0.04031100  0.54472400  1
  O  O0  1  0.03924900  0.98108200  0.29314600  1
  O  O1  1  0.28755500  0.12716000  0.60238200  1
  O  O2  1  0.05705900  0.81256900  0.49244600  1
  O  O3  1  0.30898700  0.92648600  0.41301800  1
  O  O4  1  0.17953100  0.05671000  0.06957000  1
  O  O5  1  0.17716700  0.56102700  0.56845700  1
  O  O6  1  0.67512100  0.55902000  0.04843300  1
  O  O7  1  0.43688900  0.18599900  0.00181200  1
  O  O8  1  0.42570400  0.68835800  0.49248500  1
  O  O9  1  0.22883600  0.87167800  0.89802900  1
  O  O10  1  0.20438800  0.36843700  0.38756600  1
  O  O11  1  0.95950600  0.70365500  0.01628300  1
  O  O12  1  0.72065000  0.37587600  0.87997500  1
  O  O13  1  0.03727500  0.47821100  0.79473900  1
  O  O14  1  0.54938200  0.47985800  0.30236500  1
  O  O15  1  0.55219400  0.98997600  0.80192300  1
  O  O16  1  0.45748800  0.01823600  0.20893200  1
  O  O17  1  0.45080400  0.52094300  0.70188000  1
  O  O18  1  0.96406400  0.52905400  0.19833700  1
  O  O19  1  0.27855500  0.62626800  0.11595800  1
  O  O20  1  0.03535500  0.30215100  0.97370300  1
  O  O21  1  0.79264200  0.62469100  0.61695900  1
  O  O22  1  0.77562000  0.12246000  0.11231400  1
  O  O23  1  0.56136500  0.30166300  0.49871500  1
  O  O24  1  0.55888900  0.80622600  0.99452400  1
  O  O25  1  0.32413300  0.45063100  0.93953500  1
  O  O26  1  0.81901200  0.42858200  0.43878400  1
  O  O27  1  0.82282500  0.93585400  0.94062000  1
  O  O28  1  0.69228800  0.08352200  0.57917100  1
  O  O29  1  0.94713700  0.19762400  0.51057100  1
  O  O30  1  0.71198400  0.88035800  0.39020400  1
  O  O31  1  0.95946800  0.01800500  0.69849600  1
loop_
_geom_bond_atom_site_label_1
_geom_bond_atom_site_label_2
_geom_bond_distance
_geom_bond_site_symmetry_2
Li0 O19 1.907954 1_555
Li0 O18 2.020723 1_455
Li0 O3 2.197705 1_555
Li0 O11 2.366386 1_455
Li1 O10 1.918352 1_555
Li1 O22 1.979389 1_455
Li1 O20 2.210482 1_554
Li1 O18 2.297349 1_455
Li2 O12 2.011781 1_555
Li2 O1 2.022878 1_555
Li2 O23 2.082031 1_555
Li2 O17 2.123683 1_555
Li3 O21 1.895670 1_555
Li3 O9 1.952252 1_655
Li3 O11 2.154014 1_556
Li3 O13 2.221443 1_655
Li4 O1 2.040184 1_555
Li4 O9 2.104705 1_545
Li4 O7 2.252718 1_556
Li4 O2 2.338372 1_545
Li5 O10 1.862495 1_555
Li5 O1 2.009939 1_555
Li5 O29 2.069372 1_455
Li5 O0 2.166309 1_545
Li6 O7 2.004212 1_556
Li6 O12 2.015116 1_555
Li6 O15 2.088234 1_545
Li6 O22 2.091452 1_556
Li7 O19 1.943321 1_555
Li7 O9 2.005905 1_554
Li7 O24 2.017177 1_554
Li7 O16 2.173457 1_565
Li8 O21 1.929589 1_555
Li8 O2 2.085871 1_655
Li8 O31 2.091766 1_565
Li8 O30 2.112999 1_555
Li9 O30 1.951916 1_555
Li9 O22 1.973845 1_565
Li9 O24 2.315290 1_554
Li9 O29 2.382027 1_565
Li10 O8 2.050562 1_555
Li10 O14 2.067805 1_555
Li10 O19 2.068065 1_555
Li10 O30 2.135039 1_555
Li11 O12 1.911225 1_555
Li11 O20 2.067773 1_655
Li11 O28 2.179112 1_555
Li11 O13 2.187995 1_655
Co0 O0 1.825493 1_655
Co0 O11 1.853465 1_555
Co0 O27 1.923690 1_554
Co0 O4 1.940434 1_665
Co1 O2 1.938663 1_655
Co1 O18 1.950783 1_555
Co1 O26 1.994093 1_555
Co1 O5 2.005922 1_655
Co2 O29 1.857080 1_455
Co2 O13 1.868517 1_555
Co2 O5 1.914560 1_555
Co2 O26 1.926721 1_455
Co3 O14 1.908787 1_555
Co3 O7 1.945819 1_555
Co3 O25 2.009223 1_554
Co3 O6 2.021545 1_555
Co4 O15 1.905329 1_555
Co4 O8 1.908274 1_555
Co4 O28 2.050683 1_565
Co4 O3 2.067085 1_555
Co5 O31 1.906014 1_455
Co5 O20 1.941303 1_555
Co5 O4 1.990267 1_556
Co5 O27 2.007913 1_445
Co6 O23 1.809702 1_555
Co6 O16 1.815532 1_555
Co6 O3 1.995790 1_545
Co6 O28 2.003061 1_555
Co7 O17 1.822386 1_555
Co7 O24 1.862489 1_555
Co7 O6 1.941338 1_556
Co7 O25 1.958731 1_555
O0 Si0 1.668242 1_555
O1 Si0 1.612915 1_545
O2 Si0 1.635287 1_555
O3 Si0 1.691507 1_555
O4 Si1 1.663120 1_555
O5 Si2 1.689901 1_555
O6 Si3 1.669136 1_555
O7 Si1 1.638756 1_555
O8 Si2 1.636729 1_555
O9 Si1 1.609597 1_566
O10 Si2 1.590919 1_555
O11 Si3 1.672738 1_555
O12 Si3 1.614054 1_556
O13 Si4 1.681401 1_555
O14 Si5 1.634361 1_555
O15 Si6 1.630486 1_555
O16 Si1 1.672552 1_555
O17 Si2 1.684671 1_555
O18 Si3 1.649785 1_555
O19 Si4 1.614287 1_554
O20 Si4 1.643672 1_555
O21 Si5 1.592102 1_555
O22 Si6 1.612395 1_544
O23 Si5 1.687136 1_555
O24 Si6 1.677003 1_555
O25 Si4 1.668573 1_555
O26 Si5 1.688517 1_555
O27 Si6 1.665403 1_555
O28 Si7 1.695444 1_555
O29 Si7 1.671066 1_555
O30 Si7 1.614187 1_565
O31 Si7 1.630971 1_555
