# generated using pymatgen
data_Ba5Y3F19
_symmetry_space_group_name_H-M   'P 1'
_cell_length_a   8.36840600
_cell_length_b   11.94449989
_cell_length_c   11.94657973
_cell_angle_alpha   82.95547773
_cell_angle_beta   110.49993137
_cell_angle_gamma   110.50355909
_symmetry_Int_Tables_number   1
_chemical_formula_structural   Ba5Y3F19
_chemical_formula_sum   'Ba10 Y6 F38'
_cell_volume   1047.65829883
_cell_formula_units_Z   2
loop_
 _symmetry_equiv_pos_site_id
 _symmetry_equiv_pos_as_xyz
  1  'x, y, z'
loop_
 _atom_site_type_symbol
 _atom_site_label
 _atom_site_symmetry_multiplicity
 _atom_site_fract_x
 _atom_site_fract_y
 _atom_site_fract_z
 _atom_site_occupancy
  Ba  Ba0  1  0.69565300  0.50084800  0.49827800  1
  Ba  Ba1  1  0.26363500  0.69540900  0.81893300  1
  Ba  Ba2  1  0.24535500  0.17654500  0.29854800  1
  Ba  Ba3  1  0.94042800  0.69737400  0.17278000  1
  Ba  Ba4  1  0.56822400  0.81826400  0.30319300  1
  Ba  Ba5  1  0.44692500  0.17523400  0.69598600  1
  Ba  Ba6  1  0.07156500  0.29979900  0.82508400  1
  Ba  Ba7  1  0.74119900  0.30091400  0.17863500  1
  Ba  Ba8  1  0.76133300  0.81940800  0.69527100  1
  Ba  Ba9  1  0.19145400  0.50446300  0.50034200  1
  Y  Y0  1  0.16229600  0.83128900  0.50034400  1
  Y  Y1  1  0.17236800  0.00359600  0.00219400  1
  Y  Y2  1  0.67177100  0.99776300  0.00096100  1
  Y  Y3  1  0.66655000  0.49749400  0.83922100  1
  Y  Y4  1  0.32959400  0.50426700  0.16317800  1
  Y  Y5  1  0.83036600  0.16856700  0.49854200  1
  F  F0  1  0.93664100  0.83809100  0.34231000  1
  F  F1  1  0.09016300  0.83383700  0.66046200  1
  F  F2  1  0.01775100  0.64602600  0.50288300  1
  F  F3  1  0.47624100  0.37314600  0.22094900  1
  F  F4  1  0.38290100  0.77842000  0.63208400  1
  F  F5  1  0.05507300  0.01033100  0.80999200  1
  F  F6  1  0.41477000  0.99462100  0.00172800  1
  F  F7  1  0.90744000  0.99603300  0.99550300  1
  F  F8  1  0.55617200  0.80735900  0.01466500  1
  F  F9  1  0.88163900  0.62987300  0.77934700  1
  F  F10  1  0.86578700  0.35910200  0.50158900  1
  F  F11  1  0.44836900  0.29102200  0.50366500  1
  F  F12  1  0.14636400  0.49710300  0.70780600  1
  F  F13  1  0.04852800  0.80760800  0.99107400  1
  F  F14  1  0.74757800  0.01535400  0.19434500  1
  F  F15  1  0.76072400  0.37146800  0.78336100  1
  F  F16  1  0.24046800  0.50298100  0.96620500  1
  F  F17  1  0.27991300  0.03332800  0.49932700  1
  F  F18  1  0.25612900  0.65743300  0.16756900  1
  F  F19  1  0.74802400  0.16527500  0.65391900  1
  F  F20  1  0.43362600  0.34520800  0.83418200  1
  F  F21  1  0.74713200  0.96664700  0.50044500  1
  F  F22  1  0.77877500  0.49851900  0.03398400  1
  F  F23  1  0.61491800  0.63294700  0.22269900  1
  F  F24  1  0.25817300  0.78159100  0.36613800  1
  F  F25  1  0.24045100  0.19297700  0.00667300  1
  F  F26  1  0.54588900  0.98761100  0.80720300  1
  F  F27  1  0.64669000  0.70930700  0.50178100  1
  F  F28  1  0.93774600  0.49637900  0.29037800  1
  F  F29  1  0.09125200  0.33891400  0.16576600  1
  F  F30  1  0.37175600  0.50364000  0.35567500  1
  F  F31  1  0.73899700  0.19808700  0.98859700  1
  F  F32  1  0.23597900  0.99407100  0.19443100  1
  F  F33  1  0.97306500  0.22214500  0.36756800  1
  F  F34  1  0.50472700  0.49913800  0.64172100  1
  F  F35  1  0.59396800  0.65729100  0.83904900  1
  F  F36  1  0.58791100  0.16406000  0.34135900  1
  F  F37  1  0.10390800  0.22021300  0.63205200  1
loop_
_geom_bond_atom_site_label_1
_geom_bond_atom_site_label_2
_geom_bond_distance
_geom_bond_site_symmetry_2
Ba0 F10 2.554985 1_555
Ba0 F2 2.630715 1_655
Ba0 F11 2.643539 1_555
Ba0 F30 2.658076 1_555
Ba0 F27 2.668653 1_555
Ba0 F34 2.715896 1_555
Ba1 F12 2.562522 1_555
Ba1 F4 2.699318 1_555
Ba1 F16 2.711240 1_555
Ba1 F1 2.722898 1_555
Ba1 F8 2.777263 1_556
Ba1 F35 2.880330 1_555
Ba1 F9 2.886910 1_455
Ba2 F32 2.603957 1_545
Ba2 F11 2.653167 1_555
Ba2 F29 2.739593 1_555
Ba2 F17 2.760005 1_555
Ba2 F3 2.765722 1_555
Ba2 F36 2.784843 1_555
Ba2 F33 2.909344 1_455
Ba3 F28 2.625841 1_555
Ba3 F13 2.665367 1_654
Ba3 F22 2.713879 1_555
Ba3 F24 2.795049 1_655
Ba3 F0 2.800922 1_555
Ba3 F23 2.815099 1_555
Ba3 F18 2.866463 1_655
Ba4 F27 2.550218 1_555
Ba4 F23 2.714459 1_555
Ba4 F18 2.724257 1_555
Ba4 F14 2.761625 1_565
Ba4 F21 2.762293 1_555
Ba4 F24 2.824723 1_555
Ba4 F0 2.878590 1_555
Ba5 F11 2.533794 1_555
Ba5 F26 2.696792 1_545
Ba5 F17 2.713563 1_555
Ba5 F19 2.779796 1_555
Ba5 F15 2.801385 1_555
Ba5 F20 2.822969 1_555
Ba5 F37 2.925044 1_555
Ba6 F12 2.584531 1_555
Ba6 F25 2.601630 1_556
Ba6 F37 2.729470 1_555
Ba6 F16 2.767944 1_555
Ba6 F19 2.823893 1_455
Ba6 F20 2.849334 1_555
Ba6 F15 2.880083 1_455
Ba7 F28 2.544567 1_555
Ba7 F31 2.702208 1_554
Ba7 F33 2.726752 1_555
Ba7 F22 2.741598 1_555
Ba7 F36 2.755896 1_555
Ba7 F3 2.854538 1_555
Ba7 F29 2.859692 1_655
Ba8 F27 2.510309 1_555
Ba8 F21 2.733690 1_555
Ba8 F9 2.734656 1_555
Ba8 F5 2.757052 1_665
Ba8 F35 2.762407 1_555
Ba8 F4 2.858099 1_555
Ba8 F1 2.868210 1_655
Ba9 F34 2.592035 1_555
Ba9 F2 2.595845 1_555
Ba9 F12 2.621326 1_555
Ba9 F28 2.644720 1_455
Ba9 F30 2.665455 1_555
Ba9 F10 2.673844 1_455
F0 Y0 2.170190 1_655
F1 Y0 2.204597 1_555
F2 Y0 2.120142 1_555
F3 Y4 2.218857 1_555
F4 Y0 2.195851 1_555
F5 Y1 2.161869 1_556
F6 Y1 2.070460 1_565
F6 Y2 2.141058 1_555
F7 Y2 2.003272 1_556
F7 Y1 2.160346 1_666
F8 Y2 2.147870 1_555
F9 Y3 2.209581 1_555
F10 Y5 2.192908 1_555
F13 Y1 2.202762 1_566
F14 Y2 2.187038 1_545
F15 Y3 2.185912 1_555
F16 Y4 2.205767 1_556
F17 Y0 2.264939 1_545
F18 Y4 2.135836 1_555
F19 Y5 2.186533 1_555
F20 Y3 2.138364 1_555
F21 Y5 2.263497 1_565
F22 Y3 2.182736 1_554
F23 Y4 2.253258 1_555
F24 Y0 2.243838 1_555
F25 Y1 2.133046 1_555
F26 Y2 2.180350 1_556
F29 Y4 2.269052 1_555
F30 Y4 2.200544 1_555
F31 Y2 2.256585 1_546
F32 Y1 2.166250 1_565
F33 Y5 2.193532 1_555
F34 Y3 2.273890 1_555
F35 Y3 2.195988 1_555
F36 Y5 2.219332 1_555
F37 Y5 2.204402 1_455
