# generated using pymatgen
data_Li3Mn3(PO4)4
_symmetry_space_group_name_H-M   'P 1'
_cell_length_a   11.57499900
_cell_length_b   6.14236200
_cell_length_c   8.41096316
_cell_angle_alpha   79.87532547
_cell_angle_beta   90.00000000
_cell_angle_gamma   90.00000000
_symmetry_Int_Tables_number   1
_chemical_formula_structural   Li3Mn3(PO4)4
_chemical_formula_sum   'Li6 Mn6 P8 O32'
_cell_volume   588.68892802
_cell_formula_units_Z   2
loop_
 _symmetry_equiv_pos_site_id
 _symmetry_equiv_pos_as_xyz
  1  'x, y, z'
loop_
 _atom_site_type_symbol
 _atom_site_label
 _atom_site_symmetry_multiplicity
 _atom_site_fract_x
 _atom_site_fract_y
 _atom_site_fract_z
 _atom_site_occupancy
  Li  Li0  1  0.19742800  0.13589300  0.35235300  1
  Li  Li1  1  0.39747900  0.87088000  0.94359100  1
  Li  Li2  1  0.69742800  0.86410700  0.64764700  1
  Li  Li3  1  0.89747900  0.12912000  0.05640900  1
  Li  Li4  1  0.10519800  0.36925100  0.95219900  1
  Li  Li5  1  0.60519800  0.63074900  0.04780100  1
  Mn  Mn0  1  0.81031100  0.36445800  0.65828200  1
  Mn  Mn1  1  0.41192800  0.41297800  0.72175700  1
  Mn  Mn2  1  0.91192800  0.58702200  0.27824300  1
  Mn  Mn3  1  0.08428500  0.92364100  0.71923500  1
  Mn  Mn4  1  0.31031100  0.63554200  0.34171800  1
  Mn  Mn5  1  0.58428500  0.07635900  0.28076500  1
  P  P0  1  0.87111800  0.62593000  0.91141300  1
  P  P1  1  0.62917200  0.13555800  0.91692800  1
  P  P2  1  0.08460200  0.44849100  0.60177400  1
  P  P3  1  0.58460200  0.55150900  0.39822600  1
  P  P4  1  0.12917200  0.86444200  0.08307200  1
  P  P5  1  0.37111800  0.37407000  0.08858700  1
  P  P6  1  0.91630900  0.06722500  0.40587800  1
  P  P7  1  0.41630900  0.93277500  0.59412200  1
  O  O0  1  0.11562600  0.62428300  0.70363600  1
  O  O1  1  0.73534000  0.13283100  0.80055000  1
  O  O2  1  0.27528600  0.39270300  0.21969300  1
  O  O3  1  0.53679200  0.99256300  0.51466200  1
  O  O4  1  0.06710700  0.08076700  0.08750100  1
  O  O5  1  0.45840400  0.50395700  0.47669500  1
  O  O6  1  0.57988600  0.76784200  0.27199200  1
  O  O7  1  0.23534000  0.86716900  0.19945000  1
  O  O8  1  0.93627600  0.84293900  0.85346100  1
  O  O9  1  0.67671800  0.56191500  0.52513100  1
  O  O10  1  0.42278600  0.72415400  0.72889000  1
  O  O11  1  0.05861100  0.65435200  0.14273800  1
  O  O12  1  0.92278600  0.27584600  0.27111000  1
  O  O13  1  0.03679200  0.00743700  0.48533800  1
  O  O14  1  0.77528600  0.60729700  0.78030700  1
  O  O15  1  0.43627600  0.15706100  0.14653900  1
  O  O16  1  0.82361900  0.10634500  0.53168100  1
  O  O17  1  0.18366300  0.86071400  0.91275400  1
  O  O18  1  0.95840400  0.49604300  0.52330500  1
  O  O19  1  0.81108700  0.63810400  0.07747500  1
  O  O20  1  0.55861100  0.34564800  0.85726200  1
  O  O21  1  0.56710700  0.91923300  0.91249900  1
  O  O22  1  0.32361900  0.89365500  0.46831900  1
  O  O23  1  0.31108700  0.36189600  0.92252500  1
  O  O24  1  0.87330300  0.88241700  0.31641200  1
  O  O25  1  0.68366300  0.13928600  0.08724600  1
  O  O26  1  0.93766500  0.41039300  0.91779100  1
  O  O27  1  0.37330300  0.11758300  0.68358800  1
  O  O28  1  0.17671800  0.43808500  0.47486900  1
  O  O29  1  0.61562600  0.37571700  0.29636400  1
  O  O30  1  0.43766500  0.58960700  0.08220900  1
  O  O31  1  0.07988600  0.23215800  0.72800800  1
loop_
_geom_bond_atom_site_label_1
_geom_bond_atom_site_label_2
_geom_bond_distance
_geom_bond_site_symmetry_2
Li0 O2 1.981570 1_555
Li0 O22 2.188275 1_545
Li0 O13 2.240672 1_555
Li0 O28 2.288495 1_555
Li0 O7 2.305935 1_545
Li1 O30 1.962753 1_556
Li1 O21 1.996097 1_555
Li1 O10 2.175159 1_555
Li1 O27 2.447835 1_565
Li1 O17 2.490400 1_555
Li2 O14 1.981570 1_555
Li2 O16 2.188275 1_565
Li2 O3 2.240672 1_555
Li2 O9 2.288495 1_555
Li2 O1 2.305935 1_565
Li3 O26 1.962753 1_554
Li3 O4 1.996097 1_655
Li3 O12 2.175159 1_555
Li3 O24 2.447835 1_545
Li3 O25 2.490400 1_555
Li4 O26 1.970375 1_455
Li4 O4 1.979999 1_556
Li4 O31 2.215608 1_555
Li4 O0 2.384930 1_555
Li4 O23 2.397452 1_555
Li4 O11 2.629174 1_556
Li5 O30 1.970375 1_555
Li5 O21 1.979999 1_554
Li5 O6 2.215608 1_555
Li5 O29 2.384930 1_555
Li5 O19 2.397452 1_555
Li5 O20 2.629174 1_554
Mn0 O1 1.900148 1_555
Mn0 O14 1.995213 1_555
Mn0 O16 2.065119 1_555
Mn0 O18 2.134930 1_555
Mn0 O9 2.153801 1_555
Mn1 O10 1.926913 1_555
Mn1 O27 1.949327 1_555
Mn1 O23 2.031293 1_555
Mn1 O20 2.046219 1_555
Mn1 O5 2.108386 1_555
Mn2 O12 1.926913 1_555
Mn2 O24 1.949327 1_555
Mn2 O19 2.031293 1_555
Mn2 O11 2.046219 1_655
Mn2 O18 2.108386 1_555
Mn3 O0 1.901235 1_555
Mn3 O31 1.910056 1_565
Mn3 O17 1.975030 1_555
Mn3 O13 2.020244 1_565
Mn3 O8 2.063639 1_455
Mn4 O7 1.900148 1_555
Mn4 O2 1.995213 1_555
Mn4 O22 2.065119 1_555
Mn4 O5 2.134930 1_555
Mn4 O28 2.153801 1_555
Mn5 O29 1.901235 1_555
Mn5 O6 1.910056 1_545
Mn5 O25 1.975030 1_555
Mn5 O3 2.020244 1_545
Mn5 O15 2.063639 1_555
O0 P2 1.534327 1_555
O1 P1 1.573015 1_555
O2 P5 1.582380 1_555
O3 P7 1.562091 1_555
O4 P4 1.516727 1_545
O5 P3 1.608385 1_555
O6 P3 1.549181 1_555
O7 P4 1.573015 1_555
O8 P0 1.534514 1_555
O9 P3 1.517983 1_555
O10 P7 1.556238 1_555
O11 P4 1.535087 1_555
O12 P6 1.556238 1_555
O13 P6 1.562091 1_455
O14 P0 1.582380 1_555
O15 P5 1.534514 1_555
O16 P6 1.554942 1_555
O17 P4 1.569092 1_556
O18 P2 1.608385 1_655
O19 P0 1.573540 1_554
O20 P1 1.535087 1_555
O21 P1 1.516727 1_565
O22 P7 1.554942 1_555
O23 P5 1.573540 1_556
O24 P6 1.550146 1_565
O25 P1 1.569092 1_554
O26 P0 1.524457 1_555
O27 P7 1.550146 1_545
O28 P2 1.517983 1_555
O29 P3 1.534327 1_555
O30 P5 1.524457 1_555
O31 P2 1.549181 1_555
