# generated using pymatgen
data_Li4Cr(WO4)3
_symmetry_space_group_name_H-M   'P 1'
_cell_length_a   5.18212700
_cell_length_b   5.47844489
_cell_length_c   7.50870618
_cell_angle_alpha   94.15024164
_cell_angle_beta   90.41074235
_cell_angle_gamma   90.06825155
_symmetry_Int_Tables_number   1
_chemical_formula_structural   Li4Cr(WO4)3
_chemical_formula_sum   'Li4 Cr1 W3 O12'
_cell_volume   212.60737096
_cell_formula_units_Z   1
loop_
 _symmetry_equiv_pos_site_id
 _symmetry_equiv_pos_as_xyz
  1  'x, y, z'
loop_
 _atom_site_type_symbol
 _atom_site_label
 _atom_site_symmetry_multiplicity
 _atom_site_fract_x
 _atom_site_fract_y
 _atom_site_fract_z
 _atom_site_occupancy
  Li  Li0  1  0.99759000  0.44114000  0.30328500  1
  Li  Li1  1  0.50401100  0.92121300  0.77036500  1
  Li  Li2  1  0.00459400  0.48493500  0.74679500  1
  Li  Li3  1  0.49215400  0.92757600  0.29996000  1
  Cr  Cr0  1  0.50078000  0.49878200  0.49787100  1
  W  W0  1  0.99710200  0.00170300  0.00574000  1
  W  W1  1  0.00405900  0.00194500  0.50595500  1
  W  W2  1  0.50086600  0.49705200  0.99933600  1
  O  O0  1  0.29330800  0.19431200  0.43584600  1
  O  O1  1  0.12409300  0.00754800  0.75178600  1
  O  O2  1  0.30560500  0.82439700  0.05780900  1
  O  O3  1  0.19354600  0.70962200  0.43762800  1
  O  O4  1  0.81795100  0.70022100  0.92920400  1
  O  O5  1  0.38678600  0.51810600  0.75643000  1
  O  O6  1  0.61605600  0.51050200  0.24086400  1
  O  O7  1  0.17582000  0.30925300  0.05940400  1
  O  O8  1  0.81843700  0.30646100  0.54721300  1
  O  O9  1  0.69500500  0.18080200  0.93112000  1
  O  O10  1  0.87346300  0.00473200  0.24495300  1
  O  O11  1  0.69877300  0.81729400  0.54963700  1
loop_
_geom_bond_atom_site_label_1
_geom_bond_atom_site_label_2
_geom_bond_distance
_geom_bond_site_symmetry_2
Li0 O3 1.994786 1_655
Li0 O6 2.070631 1_555
Li0 O7 2.136082 1_655
Li0 O8 2.231449 1_555
Li0 O0 2.312048 1_655
Li0 O10 2.482424 1_555
Li1 O11 1.994607 1_555
Li1 O1 2.031529 1_565
Li1 O9 2.046987 1_565
Li1 O5 2.284611 1_555
Li1 O4 2.391831 1_555
Li1 O2 2.488587 1_556
Li2 O8 1.974180 1_455
Li2 O5 1.988992 1_555
Li2 O4 1.997598 1_455
Li3 O0 2.010256 1_565
Li3 O10 2.070940 1_565
Li3 O2 2.093991 1_555
Li3 O3 2.255220 1_555
Li3 O11 2.272197 1_555
Li3 O6 2.385546 1_555
Cr0 O8 2.002260 1_555
Cr0 O0 2.007796 1_555
Cr0 O5 2.028846 1_555
Cr0 O6 2.029641 1_555
Cr0 O11 2.034823 1_555
Cr0 O3 2.035526 1_555
O0 W1 1.929352 1_555
O1 W1 1.941752 1_555
O1 W0 2.024109 1_456
O2 W0 1.924047 1_465
O2 W2 2.080732 1_554
O3 W1 1.919427 1_565
O4 W0 1.942016 1_566
O4 W2 2.075837 1_555
O5 W2 1.924732 1_555
O6 W2 1.901524 1_554
O7 W0 1.936914 1_455
O7 W2 2.042839 1_554
O8 W1 1.933309 1_655
O9 W0 1.948877 1_556
O9 W2 2.039449 1_555
O10 W0 1.910304 1_555
O10 W1 2.069867 1_655
O11 W1 1.919737 1_665
