# generated using pymatgen
data_Bi3O4F
_symmetry_space_group_name_H-M   'P 1'
_cell_length_a   6.62028897
_cell_length_b   6.62028897
_cell_length_c   11.57310100
_cell_angle_alpha   90.00000000
_cell_angle_beta   90.00000000
_cell_angle_gamma   144.22574881
_symmetry_Int_Tables_number   1
_chemical_formula_structural   Bi3O4F
_chemical_formula_sum   'Bi6 O8 F2'
_cell_volume   296.52228530
_cell_formula_units_Z   2
loop_
 _symmetry_equiv_pos_site_id
 _symmetry_equiv_pos_as_xyz
  1  'x, y, z'
loop_
 _atom_site_type_symbol
 _atom_site_label
 _atom_site_symmetry_multiplicity
 _atom_site_fract_x
 _atom_site_fract_y
 _atom_site_fract_z
 _atom_site_occupancy
  Bi  Bi0  1  0.33084700  0.66915300  0.25000000  1
  Bi  Bi1  1  0.36668200  0.63331800  0.59306500  1
  Bi  Bi2  1  0.36668200  0.63331800  0.90693500  1
  Bi  Bi3  1  0.63331800  0.36668200  0.09306500  1
  Bi  Bi4  1  0.63331800  0.36668200  0.40693500  1
  Bi  Bi5  1  0.66915300  0.33084700  0.75000000  1
  O  O0  1  0.46144200  0.53855800  0.75000000  1
  O  O1  1  0.75317700  0.24682300  0.25000000  1
  O  O2  1  0.22443800  0.77556200  0.40166900  1
  O  O3  1  0.22443800  0.77556200  0.09833100  1
  O  O4  1  0.77556200  0.22443800  0.90166900  1
  O  O5  1  0.77556200  0.22443800  0.59833100  1
  O  O6  1  0.24682300  0.75317700  0.75000000  1
  O  O7  1  0.53855800  0.46144200  0.25000000  1
  F  F0  1  0.00000000  0.00000000  0.00000000  1
  F  F1  1  0.00000000  0.00000000  0.50000000  1
loop_
_geom_bond_atom_site_label_1
_geom_bond_atom_site_label_2
_geom_bond_distance
_geom_bond_site_symmetry_2
Bi0 O3 2.208799 1_555
Bi0 O2 2.208799 1_555
Bi0 O1 2.256643 1_455
Bi0 O1 2.256643 1_565
Bi0 O7 2.617278 1_555
Bi1 O0 2.173564 1_555
Bi1 O5 2.335938 1_455
Bi1 O5 2.335938 1_565
Bi1 O6 2.362129 1_555
Bi2 O0 2.173564 1_555
Bi2 O4 2.335938 1_455
Bi2 O4 2.335938 1_565
Bi2 O6 2.362129 1_555
Bi3 O7 2.173564 1_555
Bi3 O3 2.335938 1_545
Bi3 O3 2.335938 1_655
Bi3 O1 2.362129 1_555
Bi4 O7 2.173564 1_555
Bi4 O2 2.335938 1_545
Bi4 O2 2.335938 1_655
Bi4 O1 2.362129 1_555
Bi5 O4 2.208799 1_555
Bi5 O5 2.208799 1_555
Bi5 O6 2.256643 1_655
Bi5 O6 2.256643 1_545
Bi5 O0 2.617278 1_555
