# generated using pymatgen
data_Li10Cr3Co2Ni3O16
_symmetry_space_group_name_H-M   'P 1'
_cell_length_a   5.87379700
_cell_length_b   5.88413800
_cell_length_c   9.62333252
_cell_angle_alpha   89.65235617
_cell_angle_beta   89.79372878
_cell_angle_gamma   60.50193749
_symmetry_Int_Tables_number   1
_chemical_formula_structural   Li10Cr3Co2Ni3O16
_chemical_formula_sum   'Li10 Cr3 Co2 Ni3 O16'
_cell_volume   289.48379528
_cell_formula_units_Z   1
loop_
 _symmetry_equiv_pos_site_id
 _symmetry_equiv_pos_as_xyz
  1  'x, y, z'
loop_
 _atom_site_type_symbol
 _atom_site_label
 _atom_site_symmetry_multiplicity
 _atom_site_fract_x
 _atom_site_fract_y
 _atom_site_fract_z
 _atom_site_occupancy
  Li  Li0  1  0.18881700  0.19127600  0.06101500  1
  Li  Li1  1  0.59263000  0.20600200  0.05504400  1
  Li  Li2  1  0.31723800  0.36403200  0.28369000  1
  Li  Li3  1  0.19210300  0.62077200  0.05283800  1
  Li  Li4  1  0.97912400  0.01261800  0.98716500  1
  Li  Li5  1  0.98440200  0.02226700  0.48091400  1
  Li  Li6  1  0.80024300  0.81320700  0.55493100  1
  Li  Li7  1  0.78884800  0.40251200  0.55394200  1
  Li  Li8  1  0.63897300  0.68424400  0.78298500  1
  Li  Li9  1  0.37438100  0.80887800  0.55190100  1
  Cr  Cr0  1  0.64046500  0.18422700  0.78537900  1
  Cr  Cr1  1  0.15009800  0.18400400  0.78615700  1
  Cr  Cr2  1  0.81715200  0.36224600  0.28561700  1
  Co  Co0  1  0.31568500  0.35460900  0.53070300  1
  Co  Co1  1  0.65301800  0.68306000  0.03190800  1
  Ni  Ni0  1  0.14948000  0.67590200  0.78704200  1
  Ni  Ni1  1  0.82077100  0.84790300  0.28659400  1
  Ni  Ni2  1  0.32923800  0.84709100  0.28751800  1
  O  O0  1  0.64478800  0.20023900  0.41018700  1
  O  O1  1  0.46781400  0.03947500  0.65953700  1
  O  O2  1  0.31917200  0.33802700  0.90361300  1
  O  O3  1  0.14849000  0.20038200  0.40909500  1
  O  O4  1  0.47383400  0.49607600  0.65900700  1
  O  O5  1  0.97540200  0.02344600  0.67509200  1
  O  O6  1  0.01345400  0.49331200  0.65757600  1
  O  O7  1  0.15776200  0.68085500  0.41625100  1
  O  O8  1  0.96428200  0.52338500  0.15435100  1
  O  O9  1  0.81292500  0.34812800  0.90495800  1
  O  O10  1  0.50933600  0.51987300  0.15693300  1
  O  O11  1  0.65805500  0.67802300  0.40341900  1
  O  O12  1  0.80416400  0.85344600  0.91018800  1
  O  O13  1  0.51070300  0.97533400  0.15685800  1
  O  O14  1  0.31657900  0.85232400  0.91399600  1
  O  O15  1  0.98830900  0.02627700  0.17982400  1
loop_
_geom_bond_atom_site_label_1
_geom_bond_atom_site_label_2
_geom_bond_distance
_geom_bond_site_symmetry_2
Li0 O13 1.916356 1_545
Li0 O8 1.959506 1_455
Li0 O2 2.062329 1_554
Li0 O15 2.177105 1_455
Li0 O14 2.257277 1_544
Li0 O9 2.445884 1_454
Li1 O13 1.912450 1_545
Li1 O10 1.933998 1_555
Li1 O2 2.020253 1_554
Li1 O12 2.296697 1_544
Li1 O9 2.344647 1_554
Li1 O15 2.355023 1_555
Li2 O7 2.068988 1_555
Li2 O3 2.069622 1_555
Li2 O0 2.070974 1_555
Li2 O10 2.144169 1_555
Li2 O8 2.194671 1_455
Li2 O13 2.340195 1_545
Li3 O10 1.935162 1_555
Li3 O8 1.952526 1_455
Li3 O2 2.045883 1_554
Li3 O14 2.264522 1_554
Li3 O15 2.414867 1_465
Li3 O12 2.424607 1_454
Li4 O12 1.855761 1_545
Li4 O15 1.858377 1_556
Li4 O14 1.863117 1_645
Li4 O9 1.888108 1_555
Li5 O7 1.859018 1_645
Li5 O0 1.866315 1_555
Li5 O3 1.867142 1_655
Li5 O5 1.869155 1_555
Li6 O6 1.937029 1_655
Li6 O1 2.010136 1_565
Li6 O11 2.033038 1_555
Li6 O7 2.275832 1_655
Li6 O5 2.281525 1_565
Li6 O0 2.425519 1_565
Li7 O6 1.931498 1_655
Li7 O4 1.933696 1_555
Li7 O11 2.017321 1_555
Li7 O0 2.250914 1_555
Li7 O5 2.259583 1_555
Li7 O3 2.311866 1_655
Li8 O14 2.075389 1_555
Li8 O9 2.079349 1_555
Li8 O12 2.099014 1_555
Li8 O4 2.161537 1_555
Li8 O1 2.167972 1_565
Li8 O6 2.262907 1_655
Li9 O4 1.927121 1_555
Li9 O1 1.992402 1_565
Li9 O11 2.035613 1_555
Li9 O7 2.204153 1_555
Li9 O5 2.361336 1_465
Li9 O3 2.433229 1_565
Cr0 O2 1.997568 1_555
Cr0 O4 2.004203 1_555
Cr0 O5 2.013989 1_555
Cr0 O1 2.022980 1_555
Cr0 O9 2.065049 1_555
Cr0 O12 2.071806 1_545
Cr1 O2 1.998027 1_555
Cr1 O6 2.007239 1_555
Cr1 O5 2.015610 1_455
Cr1 O1 2.030754 1_555
Cr1 O9 2.067748 1_455
Cr1 O14 2.092546 1_545
Cr2 O11 1.979613 1_555
Cr2 O10 2.003393 1_555
Cr2 O15 2.003778 1_555
Cr2 O8 2.006526 1_555
Cr2 O3 2.069863 1_655
Cr2 O0 2.073318 1_555
Co0 O4 1.965341 1_555
Co0 O6 1.969251 1_555
Co0 O7 1.996696 1_555
Co0 O3 2.014044 1_555
Co0 O1 2.030356 1_555
Co0 O0 2.043136 1_555
Co1 O13 1.924678 1_555
Co1 O10 1.964329 1_555
Co1 O8 1.980980 1_555
Co1 O12 2.005049 1_554
Co1 O14 2.061296 1_554
Co1 O9 2.111101 1_554
Ni0 O6 2.052733 1_555
Ni0 O2 2.057667 1_555
Ni0 O4 2.069096 1_555
Ni0 O5 2.076092 1_465
Ni0 O12 2.126225 1_455
Ni0 O14 2.135651 1_555
Ni1 O11 2.023875 1_555
Ni1 O13 2.024393 1_555
Ni1 O15 2.030406 1_565
Ni1 O8 2.100708 1_555
Ni1 O7 2.127897 1_655
Ni1 O0 2.166078 1_565
Ni2 O13 2.014317 1_555
Ni2 O11 2.018385 1_555
Ni2 O15 2.029369 1_465
Ni2 O10 2.102235 1_555
Ni2 O7 2.110103 1_555
Ni2 O3 2.159764 1_565
