# generated using pymatgen
data_Li3V3P8O29
_symmetry_space_group_name_H-M   'P 1'
_cell_length_a   9.73380500
_cell_length_b   9.76577147
_cell_length_c   14.21764132
_cell_angle_alpha   90.51412767
_cell_angle_beta   89.80882889
_cell_angle_gamma   119.80795718
_symmetry_Int_Tables_number   1
_chemical_formula_structural   Li3V3P8O29
_chemical_formula_sum   'Li6 V6 P16 O58'
_cell_volume   1172.64542061
_cell_formula_units_Z   2
loop_
 _symmetry_equiv_pos_site_id
 _symmetry_equiv_pos_as_xyz
  1  'x, y, z'
loop_
 _atom_site_type_symbol
 _atom_site_label
 _atom_site_symmetry_multiplicity
 _atom_site_fract_x
 _atom_site_fract_y
 _atom_site_fract_z
 _atom_site_occupancy
  Li  Li0  1  0.76981400  0.68111900  0.93470200  1
  Li  Li1  1  0.09681900  0.33214700  0.56010400  1
  Li  Li2  1  0.90492200  0.67406500  0.44580200  1
  Li  Li3  1  0.09220700  0.78123400  0.04951300  1
  Li  Li4  1  0.69181900  0.91978000  0.05921200  1
  Li  Li5  1  0.99218600  0.99444200  0.50762100  1
  V  V0  1  0.99866400  0.42947500  0.75595300  1
  V  V1  1  0.00100700  0.56193700  0.24861600  1
  V  V2  1  0.43432500  0.43067400  0.24820500  1
  V  V3  1  0.55461800  0.56320600  0.74465700  1
  V  V4  1  0.43574600  0.99915200  0.74468000  1
  V  V5  1  0.56319400  0.00327400  0.25902000  1
  P  P0  1  0.31265100  0.08338100  0.16001400  1
  P  P1  1  0.30151400  0.21812800  0.66182600  1
  P  P2  1  0.78303800  0.08228600  0.65947300  1
  P  P3  1  0.66277800  0.33489100  0.86818900  1
  P  P4  1  0.66963700  0.34062000  0.36752800  1
  P  P5  1  0.91044400  0.22264800  0.15970600  1
  P  P6  1  0.08851400  0.31271000  0.34126000  1
  P  P7  1  0.76985200  0.68049900  0.15395600  1
  P  P8  1  0.22909600  0.31133000  0.84815900  1
  P  P9  1  0.90917400  0.68110500  0.65952000  1
  P  P10  1  0.09274400  0.77456300  0.83702500  1
  P  P11  1  0.32641900  0.66317000  0.63004700  1
  P  P12  1  0.33836100  0.67077300  0.13343200  1
  P  P13  1  0.21657300  0.91504900  0.34425000  1
  P  P14  1  0.69367700  0.77592400  0.33742200  1
  P  P15  1  0.68226300  0.91221100  0.84220200  1
  O  O0  1  0.19347500  0.98721200  0.43022100  1
  O  O1  1  0.34546500  0.08605600  0.66450200  1
  O  O2  1  0.23526800  0.24139300  0.93711700  1
  O  O3  1  0.34403800  0.25536000  0.16589300  1
  O  O4  1  0.47303100  0.08984100  0.18138700  1
  O  O5  1  0.52580500  0.18509400  0.81848600  1
  O  O6  1  0.61907500  0.07464000  0.66715700  1
  O  O7  1  0.74875300  0.98669100  0.93446600  1
  O  O8  1  0.73883300  0.07987400  0.16514100  1
  O  O9  1  0.51919200  0.33164300  0.32222400  1
  O  O10  1  0.45905000  0.38026100  0.66968600  1
  O  O11  1  0.67406500  0.19168100  0.32576100  1
  O  O12  1  0.67195100  0.33570400  0.97204300  1
  O  O13  1  0.67862200  0.35226400  0.47148200  1
  O  O14  1  0.81810400  0.34218100  0.82261900  1
  O  O15  1  0.62004000  0.52102700  0.17450500  1
  O  O16  1  0.66192300  0.48348500  0.82901400  1
  O  O17  1  0.91734100  0.25925700  0.66545700  1
  O  O18  1  0.99005000  0.20049700  0.25529800  1
  O  O19  1  0.02044400  0.24168200  0.43370800  1
  O  O20  1  0.99868800  0.23478200  0.07368600  1
  O  O21  1  0.90348000  0.37866300  0.18155600  1
  O  O22  1  0.81712500  0.49350400  0.32475900  1
  O  O23  1  0.08774300  0.34394600  0.83298200  1
  O  O24  1  0.91556000  0.52850600  0.67310200  1
  O  O25  1  0.73592400  0.64588600  0.67179000  1
  O  O26  1  0.20749800  0.19851900  0.75819800  1
  O  O27  1  0.19933500  0.20547800  0.58069900  1
  O  O28  1  0.80090600  0.79426800  0.41688500  1
  O  O29  1  0.25951500  0.34366300  0.32826600  1
  O  O30  1  0.09034000  0.47214400  0.32402300  1
  O  O31  1  0.91902000  0.66123800  0.15707100  1
  O  O32  1  0.18186500  0.50944300  0.66986800  1
  O  O33  1  0.10107300  0.62092500  0.82113700  1
  O  O34  1  0.00168100  0.76098400  0.92522200  1
  O  O35  1  0.97671600  0.76635100  0.56987600  1
  O  O36  1  0.00107300  0.79394000  0.74861600  1
  O  O37  1  0.08218500  0.73875700  0.33436000  1
  O  O38  1  0.34404600  0.52708500  0.17850800  1
  O  O39  1  0.38083400  0.47167200  0.82225700  1
  O  O40  1  0.18427400  0.66696200  0.17499600  1
  O  O41  1  0.33817500  0.67365200  0.02929000  1
  O  O42  1  0.33059500  0.65878800  0.52591400  1
  O  O43  1  0.32522500  0.81103300  0.67373100  1
  O  O44  1  0.53965900  0.61500800  0.32894000  1
  O  O45  1  0.47884600  0.66881000  0.67645600  1
  O  O46  1  0.26065200  0.91755600  0.83313900  1
  O  O47  1  0.20187900  0.99814400  0.25048800  1
  O  O48  1  0.23379000  0.99363900  0.07385600  1
  O  O49  1  0.38042500  0.92066000  0.33232200  1
  O  O50  1  0.48367200  0.81997400  0.17787500  1
  O  O51  1  0.52316600  0.90556100  0.81851300  1
  O  O52  1  0.65797100  0.74224000  0.83453900  1
  O  O53  1  0.75820800  0.75356900  0.06406800  1
  O  O54  1  0.78902500  0.79743100  0.23928600  1
  O  O55  1  0.65308600  0.91114000  0.33405500  1
  O  O56  1  0.81111100  0.00469600  0.57769800  1
  O  O57  1  0.79992200  0.00833500  0.75761100  1
loop_
_geom_bond_atom_site_label_1
_geom_bond_atom_site_label_2
_geom_bond_distance
_geom_bond_site_symmetry_2
Li0 O53 1.987721 1_556
Li0 O34 1.992508 1_655
Li0 O52 2.059394 1_555
Li0 O16 2.242597 1_555
Li1 O27 1.961471 1_555
Li1 O19 1.972317 1_555
Li1 O17 2.137211 1_455
Li1 O32 2.157247 1_555
Li2 O28 1.940401 1_555
Li2 O35 1.940613 1_555
Li2 O37 2.191511 1_655
Li2 O22 2.293134 1_555
Li3 O48 1.862796 1_555
Li3 O34 1.941433 1_554
Li3 O31 2.145818 1_455
Li3 O40 2.504404 1_555
Li4 O7 1.879882 1_554
Li4 O53 2.025392 1_555
Li4 O8 2.042797 1_565
Li4 O50 2.438171 1_555
Li5 O56 2.066698 1_565
Li5 O0 2.275216 1_655
Li5 O27 2.288395 1_665
Li5 O28 2.303151 1_555
Li5 O35 2.338551 1_555
Li5 O19 2.528454 1_665
O0 P13 1.476973 1_555
O1 P1 1.548412 1_555
O1 V4 1.886134 1_545
O2 P8 1.458265 1_555
O3 P0 1.551963 1_555
O3 V2 1.883649 1_555
O4 P0 1.561501 1_555
O4 V5 1.861195 1_555
O5 P3 1.570240 1_555
O5 V4 1.885824 1_545
O6 P2 1.563707 1_555
O6 V4 1.906901 1_545
O7 P15 1.479596 1_555
O8 P5 1.557530 1_555
O8 V5 1.998796 1_555
O9 P4 1.563551 1_555
O9 V2 1.882431 1_555
O10 P1 1.566848 1_555
O10 V3 1.874455 1_555
O11 P4 1.586420 1_555
O11 V5 1.857912 1_555
O12 P3 1.479265 1_555
O13 P4 1.480866 1_555
O14 P3 1.611831 1_555
O14 V0 1.796627 1_555
O15 P7 1.544253 1_555
O15 V2 1.887465 1_555
O16 P3 1.562891 1_555
O16 V3 1.992258 1_555
O17 P2 1.566847 1_555
O17 V0 1.924974 1_555
O18 P6 1.597741 1_655
O18 P5 1.635023 1_555
O19 P6 1.483714 1_555
O20 P5 1.463546 1_555
O21 P5 1.586356 1_555
O21 V1 1.816551 1_655
O22 P4 1.593548 1_555
O22 V1 1.906060 1_655
O23 P8 1.574816 1_555
O23 V0 1.841644 1_455
O24 P9 1.536011 1_555
O24 V0 1.944682 1_555
O25 P9 1.554053 1_555
O25 V3 1.850914 1_555
O26 P1 1.604261 1_555
O26 P8 1.624832 1_555
O27 P1 1.489237 1_555
O28 P14 1.488703 1_555
O29 P6 1.547502 1_555
O29 V2 1.865479 1_555
O30 P6 1.569687 1_555
O30 V1 1.858939 1_555
O31 P7 1.554886 1_555
O31 V1 2.017505 1_655
O32 P11 1.569711 1_555
O32 V0 1.976332 1_455
O33 P10 1.556763 1_555
O33 V0 1.862886 1_455
O34 P10 1.501458 1_555
O35 P9 1.489633 1_555
O36 P10 1.609849 1_555
O36 P9 1.619125 1_455
O37 P13 1.566146 1_555
O37 V1 1.924689 1_555
O38 P12 1.573656 1_555
O38 V2 1.867016 1_555
O39 P8 1.573670 1_555
O39 V3 1.838389 1_555
O40 P12 1.593468 1_555
O40 V1 1.875523 1_555
O41 P12 1.481197 1_555
O42 P11 1.481766 1_555
O43 P11 1.572115 1_555
O43 V4 1.886531 1_555
O44 P14 1.545050 1_555
O44 V2 1.935253 1_555
O45 P11 1.601371 1_555
O45 V3 1.823936 1_555
O46 P10 1.534936 1_555
O46 V4 1.942922 1_555
O47 P13 1.610010 1_555
O47 P0 1.621040 1_565
O48 P0 1.475136 1_565
O49 P13 1.577008 1_555
O49 V5 1.864880 1_565
O50 P12 1.569526 1_555
O50 V5 1.930243 1_565
O51 P15 1.555306 1_555
O51 V4 1.859513 1_555
O52 P15 1.558769 1_555
O52 V3 1.980359 1_555
O53 P7 1.501020 1_555
O54 P7 1.604818 1_555
O54 P14 1.629435 1_555
O55 P14 1.556294 1_555
O55 V5 1.876019 1_565
O56 P2 1.479354 1_555
O57 P15 1.606711 1_545
O57 P2 1.622657 1_555
