# generated using pymatgen
data_LiVOF3
_symmetry_space_group_name_H-M   'P 1'
_cell_length_a   4.98888900
_cell_length_b   5.16725300
_cell_length_c   11.53947800
_cell_angle_alpha   90.00000000
_cell_angle_beta   90.00000000
_cell_angle_gamma   90.00000000
_symmetry_Int_Tables_number   1
_chemical_formula_structural   LiVOF3
_chemical_formula_sum   'Li4 V4 O4 F12'
_cell_volume   297.47449150
_cell_formula_units_Z   4
loop_
 _symmetry_equiv_pos_site_id
 _symmetry_equiv_pos_as_xyz
  1  'x, y, z'
loop_
 _atom_site_type_symbol
 _atom_site_label
 _atom_site_symmetry_multiplicity
 _atom_site_fract_x
 _atom_site_fract_y
 _atom_site_fract_z
 _atom_site_occupancy
  Li  Li0  1  0.50000000  0.50000000  0.24172900  1
  Li  Li1  1  0.50000000  0.50000000  0.64938200  1
  Li  Li2  1  0.50000000  0.00000000  0.74172900  1
  Li  Li3  1  0.50000000  0.00000000  0.14938200  1
  V  V0  1  0.00000000  0.50000000  0.07198000  1
  V  V1  1  0.50000000  0.50000000  0.93662400  1
  V  V2  1  0.00000000  0.00000000  0.57198000  1
  V  V3  1  0.50000000  0.00000000  0.43662400  1
  O  O0  1  0.30599200  0.69732400  0.04517000  1
  O  O1  1  0.30599200  0.80267600  0.54517000  1
  O  O2  1  0.69400800  0.19732400  0.54517000  1
  O  O3  1  0.69400800  0.30267600  0.04517000  1
  F  F0  1  0.36274700  0.70608800  0.81120200  1
  F  F1  1  0.81172900  0.70898000  0.17948900  1
  F  F2  1  0.81472800  0.71890500  0.94709700  1
  F  F3  1  0.81472800  0.78109500  0.44709700  1
  F  F4  1  0.81172900  0.79102000  0.67948900  1
  F  F5  1  0.36274700  0.79391200  0.31120200  1
  F  F6  1  0.63725300  0.20608800  0.31120200  1
  F  F7  1  0.18827100  0.20898000  0.67948900  1
  F  F8  1  0.18527200  0.21890500  0.44709700  1
  F  F9  1  0.18527200  0.28109500  0.94709700  1
  F  F10  1  0.18827100  0.29102000  0.17948900  1
  F  F11  1  0.63725300  0.29391200  0.81120200  1
loop_
_geom_bond_atom_site_label_1
_geom_bond_atom_site_label_2
_geom_bond_distance
_geom_bond_site_symmetry_2
Li1 O1 2.197507 1_555
Li1 O2 2.197507 1_555
Li3 O0 2.197507 1_545
Li3 O3 2.197507 1_555
O0 V0 1.861647 1_555
O0 V1 1.882910 1_554
O1 V2 1.861647 1_565
O1 V3 1.882910 1_565
O2 V2 1.861647 1_655
O2 V3 1.882910 1_555
O3 V0 1.861647 1_655
O3 V1 1.882910 1_554
F0 Li2 1.848801 1_565
F0 V1 1.922912 1_555
F0 Li1 2.256054 1_555
F1 V0 1.894038 1_655
F1 Li0 2.024971 1_555
F1 Li3 2.191033 1_565
F2 V1 1.938924 1_555
F2 V0 2.051958 1_656
F3 V3 1.938924 1_565
F3 V2 2.051958 1_665
F4 V2 1.894038 1_665
F4 Li2 2.024971 1_565
F4 Li1 2.191033 1_555
F5 Li0 1.848801 1_555
F5 V3 1.922912 1_565
F5 Li3 2.256054 1_565
F6 Li0 1.848801 1_555
F6 V3 1.922912 1_555
F6 Li3 2.256054 1_555
F7 V2 1.894038 1_555
F7 Li2 2.024971 1_555
F7 Li1 2.191033 1_555
F8 V3 1.938924 1_555
F8 V2 2.051958 1_555
F9 V1 1.938924 1_555
F9 V0 2.051958 1_556
F10 V0 1.894038 1_555
F10 Li0 2.024971 1_555
F10 Li3 2.191033 1_555
F11 Li2 1.848801 1_555
F11 V1 1.922912 1_555
F11 Li1 2.256054 1_555
