# generated using pymatgen
data_Na4Bi2O5
_symmetry_space_group_name_H-M   'P 1'
_cell_length_a   6.18566300
_cell_length_b   8.74394000
_cell_length_c   16.20462241
_cell_angle_alpha   62.67654497
_cell_angle_beta   90.00000000
_cell_angle_gamma   90.00000000
_symmetry_Int_Tables_number   1
_chemical_formula_structural   Na4Bi2O5
_chemical_formula_sum   'Na16 Bi8 O20'
_cell_volume   778.67326376
_cell_formula_units_Z   4
loop_
 _symmetry_equiv_pos_site_id
 _symmetry_equiv_pos_as_xyz
  1  'x, y, z'
loop_
 _atom_site_type_symbol
 _atom_site_label
 _atom_site_symmetry_multiplicity
 _atom_site_fract_x
 _atom_site_fract_y
 _atom_site_fract_z
 _atom_site_occupancy
  Na  Na0  1  0.96605100  0.22850000  0.96843500  1
  Na  Na1  1  0.54117800  0.69056800  0.94985400  1
  Na  Na2  1  0.11802800  0.60602700  0.90015600  1
  Na  Na3  1  0.34086000  0.07292400  0.92137900  1
  Na  Na4  1  0.61802800  0.39397300  0.59984400  1
  Na  Na5  1  0.84086000  0.92707600  0.57862100  1
  Na  Na6  1  0.46605100  0.77150000  0.53156500  1
  Na  Na7  1  0.95882200  0.69056800  0.44985400  1
  Na  Na8  1  0.04117800  0.30943200  0.55014600  1
  Na  Na9  1  0.53394900  0.22850000  0.46843500  1
  Na  Na10  1  0.15914000  0.07292400  0.42137900  1
  Na  Na11  1  0.38197200  0.60602700  0.40015600  1
  Na  Na12  1  0.65914000  0.92707600  0.07862100  1
  Na  Na13  1  0.88197200  0.39397300  0.09984400  1
  Na  Na14  1  0.45882200  0.30943200  0.05014600  1
  Na  Na15  1  0.03394900  0.77150000  0.03156500  1
  Bi  Bi0  1  0.57846600  0.46352600  0.83179300  1
  Bi  Bi1  1  0.07846600  0.53647400  0.66820700  1
  Bi  Bi2  1  0.83694900  0.03858000  0.80654300  1
  Bi  Bi3  1  0.33694900  0.96142000  0.69345700  1
  Bi  Bi4  1  0.66305100  0.03858000  0.30654300  1
  Bi  Bi5  1  0.16305100  0.96142000  0.19345700  1
  Bi  Bi6  1  0.92153400  0.46352600  0.33179300  1
  Bi  Bi7  1  0.42153400  0.53647400  0.16820700  1
  O  O0  1  0.75544500  0.46897300  0.94104400  1
  O  O1  1  0.30047700  0.35028800  0.90919500  1
  O  O2  1  0.71813600  0.10635800  0.90824300  1
  O  O3  1  0.12011000  0.91025500  0.87461000  1
  O  O4  1  0.46059100  0.72161200  0.79880600  1
  O  O5  1  0.80047700  0.64971200  0.59080500  1
  O  O6  1  0.96059100  0.27838800  0.70119400  1
  O  O7  1  0.62011000  0.08974500  0.62539000  1
  O  O8  1  0.25544500  0.53102700  0.55895600  1
  O  O9  1  0.21813600  0.89364200  0.59175700  1
  O  O10  1  0.78186400  0.10635800  0.40824300  1
  O  O11  1  0.74455500  0.46897300  0.44104400  1
  O  O12  1  0.37989000  0.91025500  0.37461000  1
  O  O13  1  0.03940900  0.72161200  0.29880600  1
  O  O14  1  0.19952300  0.35028800  0.40919500  1
  O  O15  1  0.53940900  0.27838800  0.20119400  1
  O  O16  1  0.87989000  0.08974500  0.12539000  1
  O  O17  1  0.28186400  0.89364200  0.09175700  1
  O  O18  1  0.69952300  0.64971200  0.09080500  1
  O  O19  1  0.24455500  0.53102700  0.05895600  1
loop_
_geom_bond_atom_site_label_1
_geom_bond_atom_site_label_2
_geom_bond_distance
_geom_bond_site_symmetry_2
Na0 O16 2.322083 1_556
Na0 O1 2.323011 1_655
Na0 O2 2.323793 1_555
Na0 O0 2.336368 1_555
Na1 O18 2.356868 1_556
Na1 O4 2.388166 1_555
Na1 O0 2.405267 1_555
Na1 O19 2.484777 1_556
Na2 O1 2.448443 1_555
Na2 O19 2.472900 1_556
Na2 O0 2.485244 1_455
Na2 O3 2.497399 1_555
Na2 O4 2.585538 1_555
Na3 O3 2.334880 1_545
Na3 O2 2.349428 1_555
Na3 O1 2.354496 1_555
Na3 O17 2.497993 1_546
Na4 O5 2.448443 1_555
Na4 O11 2.472900 1_555
Na4 O8 2.485244 1_555
Na4 O7 2.497399 1_555
Na4 O6 2.585538 1_555
Na5 O7 2.334880 1_565
Na5 O9 2.349428 1_655
Na5 O5 2.354496 1_555
Na5 O10 2.497993 1_565
Na6 O12 2.322083 1_555
Na6 O5 2.323011 1_555
Na6 O9 2.323793 1_555
Na6 O8 2.336368 1_555
Na7 O5 2.356868 1_555
Na7 O13 2.388166 1_655
Na7 O11 2.405267 1_555
Na7 O8 2.484777 1_655
Na8 O14 2.356868 1_555
Na8 O6 2.388166 1_455
Na8 O8 2.405267 1_555
Na8 O11 2.484777 1_455
Na9 O7 2.322083 1_555
Na9 O14 2.323011 1_555
Na9 O10 2.323793 1_555
Na9 O11 2.336368 1_555
Na10 O12 2.334880 1_545
Na10 O10 2.349428 1_455
Na10 O14 2.354496 1_555
Na10 O9 2.497993 1_545
Na11 O14 2.448443 1_555
Na11 O8 2.472900 1_555
Na11 O11 2.485244 1_555
Na11 O12 2.497399 1_555
Na11 O13 2.585538 1_555
Na12 O16 2.334880 1_565
Na12 O17 2.349428 1_555
Na12 O18 2.354496 1_555
Na12 O2 2.497993 1_564
Na13 O18 2.448443 1_555
Na13 O0 2.472900 1_554
Na13 O19 2.485244 1_655
Na13 O16 2.497399 1_555
Na13 O15 2.585538 1_555
Na14 O1 2.356868 1_554
Na14 O15 2.388166 1_555
Na14 O19 2.405267 1_555
Na14 O0 2.484777 1_554
Na15 O3 2.322083 1_554
Na15 O18 2.323011 1_455
Na15 O17 2.323793 1_555
Na15 O19 2.336368 1_555
Bi0 O1 2.090530 1_555
Bi0 O0 2.100555 1_555
Bi0 O4 2.191485 1_555
Bi1 O5 2.090530 1_455
Bi1 O8 2.100555 1_555
Bi1 O6 2.191485 1_455
Bi2 O3 2.099367 1_645
Bi2 O2 2.122245 1_555
Bi2 O6 2.147068 1_555
Bi3 O7 2.099367 1_565
Bi3 O9 2.122245 1_555
Bi3 O4 2.147068 1_555
Bi4 O12 2.099367 1_545
Bi4 O10 2.122245 1_555
Bi4 O15 2.147068 1_555
Bi5 O16 2.099367 1_465
Bi5 O17 2.122245 1_555
Bi5 O13 2.147068 1_555
Bi6 O14 2.090530 1_655
Bi6 O11 2.100555 1_555
Bi6 O13 2.191485 1_655
Bi7 O18 2.090530 1_555
Bi7 O19 2.100555 1_555
Bi7 O15 2.191485 1_555
