# generated using pymatgen
data_SiH8(NF3)2
_symmetry_space_group_name_H-M   'P 1'
_cell_length_a   5.93892755
_cell_length_b   5.93892755
_cell_length_c   9.62094100
_cell_angle_alpha   90.00000000
_cell_angle_beta   90.00000000
_cell_angle_gamma   119.99999499
_symmetry_Int_Tables_number   1
_chemical_formula_structural   SiH8(NF3)2
_chemical_formula_sum   'Si2 H16 N4 F12'
_cell_volume   293.87609448
_cell_formula_units_Z   2
loop_
 _symmetry_equiv_pos_site_id
 _symmetry_equiv_pos_as_xyz
  1  'x, y, z'
loop_
 _atom_site_type_symbol
 _atom_site_label
 _atom_site_symmetry_multiplicity
 _atom_site_fract_x
 _atom_site_fract_y
 _atom_site_fract_z
 _atom_site_occupancy
  Si  Si0  1  0.33333300  0.66666700  0.24813400  1
  Si  Si1  1  0.66666700  0.33333300  0.74813400  1
  H  H0  1  0.09461500  0.90538500  0.54641300  1
  H  H1  1  0.14443900  0.57221900  0.90471500  1
  H  H2  1  0.00000000  0.00000000  0.18825900  1
  H  H3  1  0.00000000  0.00000000  0.68825900  1
  H  H4  1  0.09461500  0.18923000  0.54641300  1
  H  H5  1  0.33333300  0.66666700  0.76289700  1
  H  H6  1  0.42778100  0.85556100  0.90471500  1
  H  H7  1  0.18923000  0.09461500  0.04641300  1
  H  H8  1  0.42778100  0.57221900  0.90471500  1
  H  H9  1  0.57221900  0.42778100  0.40471500  1
  H  H10  1  0.81077000  0.90538500  0.54641300  1
  H  H11  1  0.90538500  0.81077000  0.04641300  1
  H  H12  1  0.57221900  0.14443900  0.40471500  1
  H  H13  1  0.66666700  0.33333300  0.26289700  1
  H  H14  1  0.85556100  0.42778100  0.40471500  1
  H  H15  1  0.90538500  0.09461500  0.04641300  1
  N  N0  1  0.00000000  0.00000000  0.08126600  1
  N  N1  1  0.00000000  0.00000000  0.58126600  1
  N  N2  1  0.33333300  0.66666700  0.86976400  1
  N  N3  1  0.66666700  0.33333300  0.36976400  1
  F  F0  1  0.19636600  0.80363400  0.35265000  1
  F  F1  1  0.05967700  0.52983900  0.14607700  1
  F  F2  1  0.47016100  0.94032300  0.14607700  1
  F  F3  1  0.19636600  0.39273200  0.35265000  1
  F  F4  1  0.47016100  0.52983900  0.14607700  1
  F  F5  1  0.60726800  0.80363400  0.35265000  1
  F  F6  1  0.39273200  0.19636600  0.85265000  1
  F  F7  1  0.52983900  0.47016100  0.64607700  1
  F  F8  1  0.80363400  0.60726800  0.85265000  1
  F  F9  1  0.52983900  0.05967700  0.64607700  1
  F  F10  1  0.94032300  0.47016100  0.64607700  1
  F  F11  1  0.80363400  0.19636600  0.85265000  1
loop_
_geom_bond_atom_site_label_1
_geom_bond_atom_site_label_2
_geom_bond_distance
_geom_bond_site_symmetry_2
H0 N1 1.029404 1_565
H1 N2 1.028078 1_555
H2 N0 1.029373 1_555
H3 N1 1.029373 1_555
H4 N1 1.029404 1_555
H5 N2 1.028161 1_555
H6 N2 1.028078 1_555
H7 N0 1.029404 1_555
H8 N2 1.028088 1_555
H9 N3 1.028088 1_555
H10 N1 1.029404 1_665
H11 N0 1.029404 1_665
H12 N3 1.028078 1_555
H13 N3 1.028161 1_555
H14 N3 1.028078 1_555
H15 N0 1.029404 1_655
F0 Si0 1.730940 1_555
F1 Si0 1.716132 1_555
F2 Si0 1.716132 1_555
F3 Si0 1.730945 1_555
F4 Si0 1.716132 1_555
F5 Si0 1.730945 1_555
F6 Si1 1.730945 1_555
F7 Si1 1.716132 1_555
F8 Si1 1.730945 1_555
F9 Si1 1.716132 1_555
F10 Si1 1.716132 1_555
F11 Si1 1.730940 1_555
