# generated using pymatgen
data_CaH6C2(NO)4
_symmetry_space_group_name_H-M   'P 1'
_cell_length_a   9.63561600
_cell_length_b   8.37279400
_cell_length_c   9.43086443
_cell_angle_alpha   66.84164710
_cell_angle_beta   90.00000000
_cell_angle_gamma   90.00000000
_symmetry_Int_Tables_number   1
_chemical_formula_structural   CaH6C2(NO)4
_chemical_formula_sum   'Ca4 H24 C8 N16 O16'
_cell_volume   699.54558702
_cell_formula_units_Z   4
loop_
 _symmetry_equiv_pos_site_id
 _symmetry_equiv_pos_as_xyz
  1  'x, y, z'
loop_
 _atom_site_type_symbol
 _atom_site_label
 _atom_site_symmetry_multiplicity
 _atom_site_fract_x
 _atom_site_fract_y
 _atom_site_fract_z
 _atom_site_occupancy
  Ca  Ca0  1  0.02499200  0.20074700  0.81428400  1
  Ca  Ca1  1  0.52499200  0.79925300  0.68571600  1
  Ca  Ca2  1  0.97500800  0.79925300  0.18571600  1
  Ca  Ca3  1  0.47500800  0.20074700  0.31428400  1
  H  H0  1  0.75363800  0.44737200  0.02573100  1
  H  H1  1  0.25363800  0.55262800  0.47426900  1
  H  H2  1  0.24636200  0.55262800  0.97426900  1
  H  H3  1  0.74636200  0.44737200  0.52573100  1
  H  H4  1  0.87924800  0.19765200  0.10296100  1
  H  H5  1  0.37924800  0.80234800  0.39703900  1
  H  H6  1  0.12075200  0.80234800  0.89703900  1
  H  H7  1  0.62075200  0.19765200  0.60296100  1
  H  H8  1  0.00041300  0.35005600  0.06132800  1
  H  H9  1  0.50041300  0.64994400  0.43867200  1
  H  H10  1  0.99958700  0.64994400  0.93867200  1
  H  H11  1  0.49958700  0.35005600  0.56132800  1
  H  H12  1  0.16586100  0.13912100  0.39830400  1
  H  H13  1  0.66586100  0.86087900  0.10169600  1
  H  H14  1  0.83413900  0.86087900  0.60169600  1
  H  H15  1  0.33413900  0.13912100  0.89830400  1
  H  H16  1  0.04641000  0.35079200  0.46690000  1
  H  H17  1  0.54641000  0.64920800  0.03310000  1
  H  H18  1  0.95359000  0.64920800  0.53310000  1
  H  H19  1  0.45359000  0.35079200  0.96690000  1
  H  H20  1  0.94095100  0.18553900  0.49119300  1
  H  H21  1  0.44095100  0.81446100  0.00880700  1
  H  H22  1  0.05904900  0.81446100  0.50880700  1
  H  H23  1  0.55904900  0.18553900  0.99119300  1
  C  C0  1  0.77325700  0.46496700  0.80079300  1
  C  C1  1  0.27325700  0.53503300  0.69920700  1
  C  C2  1  0.22674300  0.53503300  0.19920700  1
  C  C3  1  0.72674300  0.46496700  0.30079300  1
  C  C4  1  0.24575000  0.06993100  0.61667600  1
  C  C5  1  0.74575000  0.93006900  0.88332400  1
  C  C6  1  0.75425000  0.93006900  0.38332400  1
  C  C7  1  0.25425000  0.06993100  0.11667600  1
  N  N0  1  0.82173800  0.43144000  0.94827900  1
  N  N1  1  0.32173800  0.56856000  0.55172100  1
  N  N2  1  0.17826200  0.56856000  0.05172100  1
  N  N3  1  0.67826200  0.43144000  0.44827900  1
  N  N4  1  0.92386400  0.30109100  0.01460200  1
  N  N5  1  0.42386400  0.69890900  0.48539800  1
  N  N6  1  0.07613600  0.69890900  0.98539800  1
  N  N7  1  0.57613600  0.30109100  0.51460200  1
  N  N8  1  0.14083200  0.12404900  0.50829200  1
  N  N9  1  0.64083200  0.87595100  0.99170800  1
  N  N10  1  0.85916800  0.87595100  0.49170800  1
  N  N11  1  0.35916800  0.12404900  0.00829200  1
  N  N12  1  0.02924000  0.22073800  0.53141100  1
  N  N13  1  0.52924000  0.77926200  0.96858900  1
  N  N14  1  0.97076000  0.77926200  0.46858900  1
  N  N15  1  0.47076000  0.22073800  0.03141100  1
  O  O0  1  0.84015100  0.40482100  0.71453900  1
  O  O1  1  0.34015100  0.59517900  0.78546100  1
  O  O2  1  0.15984900  0.59517900  0.28546100  1
  O  O3  1  0.65984900  0.40482100  0.21453900  1
  O  O4  1  0.66501700  0.55947000  0.75971500  1
  O  O5  1  0.16501700  0.44053000  0.74028500  1
  O  O6  1  0.33498300  0.44053000  0.24028500  1
  O  O7  1  0.83498300  0.55947000  0.25971500  1
  O  O8  1  0.22088900  0.05741400  0.75335700  1
  O  O9  1  0.72088900  0.94258600  0.74664300  1
  O  O10  1  0.77911100  0.94258600  0.24664300  1
  O  O11  1  0.27911100  0.05741400  0.25335700  1
  O  O12  1  0.36177100  0.03166400  0.56994300  1
  O  O13  1  0.86177100  0.96833600  0.93005700  1
  O  O14  1  0.63822900  0.96833600  0.43005700  1
  O  O15  1  0.13822900  0.03166400  0.06994300  1
loop_
_geom_bond_atom_site_label_1
_geom_bond_atom_site_label_2
_geom_bond_distance
_geom_bond_site_symmetry_2
Ca0 O5 2.288251 1_555
Ca0 O0 2.390056 1_455
Ca0 O13 2.404395 1_445
Ca0 O8 2.423997 1_555
Ca0 O15 2.514612 1_556
Ca0 N4 2.544163 1_456
Ca0 N12 2.606779 1_555
Ca1 O4 2.288251 1_555
Ca1 O1 2.390056 1_555
Ca1 O12 2.404395 1_565
Ca1 O9 2.423997 1_555
Ca1 O14 2.514612 1_555
Ca1 N5 2.544163 1_555
Ca1 N13 2.606779 1_555
Ca2 O7 2.288251 1_555
Ca2 O2 2.390056 1_655
Ca2 O15 2.404395 1_665
Ca2 O10 2.423997 1_555
Ca2 O13 2.514612 1_554
Ca2 N6 2.544163 1_654
Ca2 N14 2.606779 1_555
Ca3 O6 2.288251 1_555
Ca3 O3 2.390056 1_555
Ca3 O14 2.404395 1_545
Ca3 O11 2.423997 1_555
Ca3 O12 2.514612 1_555
Ca3 N7 2.544163 1_555
Ca3 N15 2.606779 1_555
H0 N0 1.028861 1_554
H1 N1 1.028861 1_555
H2 N2 1.028861 1_556
H3 N3 1.028861 1_555
H4 N4 1.030359 1_555
H5 N5 1.030359 1_555
H6 N6 1.030359 1_555
H7 N7 1.030359 1_555
H8 N4 1.023921 1_455
H9 N5 1.023921 1_555
H10 N6 1.023921 1_655
H11 N7 1.023921 1_555
H12 N8 1.023271 1_555
H13 N9 1.023271 1_554
H14 N10 1.023271 1_555
H15 N11 1.023271 1_556
H16 N12 1.030617 1_555
H17 N13 1.030617 1_554
H18 N14 1.030617 1_555
H19 N15 1.030617 1_556
H20 N12 1.020961 1_655
H21 N13 1.020961 1_554
H22 N14 1.020961 1_455
H23 N15 1.020961 1_556
C0 O4 1.273901 1_555
C0 O0 1.285680 1_555
C0 N0 1.387291 1_555
C1 O5 1.273901 1_555
C1 O1 1.285680 1_555
C1 N1 1.387291 1_555
C2 O6 1.273901 1_555
C2 O2 1.285680 1_555
C2 N2 1.387291 1_555
C3 O7 1.273901 1_555
C3 O3 1.285680 1_555
C3 N3 1.387291 1_555
C4 O8 1.274239 1_555
C4 O12 1.287536 1_555
C4 N8 1.381246 1_555
C5 O9 1.274239 1_555
C5 O13 1.287536 1_555
C5 N9 1.381246 1_555
C6 O10 1.274239 1_555
C6 O14 1.287536 1_555
C6 N10 1.381246 1_555
C7 O11 1.274239 1_555
C7 O15 1.287536 1_555
C7 N11 1.381246 1_555
