# generated using pymatgen
data_Ba3La2Cl12
_symmetry_space_group_name_H-M   'P 1'
_cell_length_a   8.99773305
_cell_length_b   8.99773305
_cell_length_c   15.93903956
_cell_angle_alpha   79.38763607
_cell_angle_beta   79.38763607
_cell_angle_gamma   109.92857037
_symmetry_Int_Tables_number   1
_chemical_formula_structural   Ba3La2Cl12
_chemical_formula_sum   'Ba6 La4 Cl24'
_cell_volume   1149.02428186
_cell_formula_units_Z   2
loop_
 _symmetry_equiv_pos_site_id
 _symmetry_equiv_pos_as_xyz
  1  'x, y, z'
loop_
 _atom_site_type_symbol
 _atom_site_label
 _atom_site_symmetry_multiplicity
 _atom_site_fract_x
 _atom_site_fract_y
 _atom_site_fract_z
 _atom_site_occupancy
  Ba  Ba0  1  0.86983900  0.13016100  0.25000000  1
  Ba  Ba1  1  0.78607900  0.53919300  0.42007000  1
  Ba  Ba2  1  0.53919300  0.78607900  0.92007000  1
  Ba  Ba3  1  0.46080700  0.21392100  0.07993000  1
  Ba  Ba4  1  0.21392100  0.46080700  0.57993000  1
  Ba  Ba5  1  0.13016100  0.86983900  0.75000000  1
  La  La0  1  0.95083900  0.70078000  0.08996500  1
  La  La1  1  0.70078000  0.95083900  0.58996500  1
  La  La2  1  0.29922000  0.04916100  0.41003500  1
  La  La3  1  0.04916100  0.29922000  0.91003500  1
  Cl  Cl0  1  0.38787100  0.40852100  0.91712500  1
  Cl  Cl1  1  0.05955100  0.09560200  0.07336000  1
  Cl  Cl2  1  0.59147900  0.61212900  0.58287500  1
  Cl  Cl3  1  0.50224500  0.99373400  0.73978500  1
  Cl  Cl4  1  0.79441200  0.76287300  0.24265400  1
  Cl  Cl5  1  0.15694100  0.64351600  0.92529400  1
  Cl  Cl6  1  0.90439800  0.94044900  0.42664000  1
  Cl  Cl7  1  0.64351600  0.15694100  0.42529400  1
  Cl  Cl8  1  0.99373400  0.50224500  0.23978500  1
  Cl  Cl9  1  0.70531700  0.14573700  0.93006700  1
  Cl  Cl10  1  0.23712700  0.20558800  0.25734600  1
  Cl  Cl11  1  0.85426300  0.29468300  0.56993300  1
  Cl  Cl12  1  0.14573700  0.70531700  0.43006700  1
  Cl  Cl13  1  0.76287300  0.79441200  0.74265400  1
  Cl  Cl14  1  0.29468300  0.85426300  0.06993300  1
  Cl  Cl15  1  0.00626600  0.49775500  0.76021500  1
  Cl  Cl16  1  0.35648400  0.84305900  0.57470600  1
  Cl  Cl17  1  0.09560200  0.05955100  0.57336000  1
  Cl  Cl18  1  0.84305900  0.35648400  0.07470600  1
  Cl  Cl19  1  0.20558800  0.23712700  0.75734600  1
  Cl  Cl20  1  0.49775500  0.00626600  0.26021500  1
  Cl  Cl21  1  0.40852100  0.38787100  0.41712500  1
  Cl  Cl22  1  0.94044900  0.90439800  0.92664000  1
  Cl  Cl23  1  0.61212900  0.59147900  0.08287500  1
loop_
_geom_bond_atom_site_label_1
_geom_bond_atom_site_label_2
_geom_bond_distance
_geom_bond_site_symmetry_2
Ba0 Cl20 3.109006 1_555
Ba0 Cl8 3.109006 1_555
Ba0 Cl1 3.138708 1_655
Ba0 Cl6 3.138708 1_545
Ba0 Cl4 3.168373 1_545
Ba0 Cl10 3.168373 1_655
Ba0 Cl7 3.240107 1_555
Ba0 Cl18 3.240107 1_555
Ba1 Cl12 3.116443 1_655
Ba1 Cl4 3.126607 1_555
Ba1 Cl2 3.157110 1_555
Ba1 Cl21 3.213395 1_555
Ba1 Cl7 3.213949 1_555
Ba1 Cl11 3.232112 1_555
Ba1 Cl8 3.264456 1_555
Ba1 Cl6 3.426283 1_555
Ba2 Cl9 3.116443 1_565
Ba2 Cl13 3.126607 1_555
Ba2 Cl23 3.157110 1_556
Ba2 Cl0 3.213395 1_555
Ba2 Cl5 3.213949 1_555
Ba2 Cl14 3.232112 1_556
Ba2 Cl3 3.264456 1_555
Ba2 Cl22 3.426283 1_555
Ba3 Cl14 3.116443 1_545
Ba3 Cl10 3.126607 1_555
Ba3 Cl0 3.157110 1_554
Ba3 Cl23 3.213395 1_555
Ba3 Cl18 3.213949 1_555
Ba3 Cl9 3.232112 1_554
Ba3 Cl20 3.264456 1_555
Ba3 Cl1 3.426283 1_555
Ba4 Cl11 3.116443 1_455
Ba4 Cl19 3.126607 1_555
Ba4 Cl21 3.157110 1_555
Ba4 Cl2 3.213395 1_555
Ba4 Cl16 3.213949 1_555
Ba4 Cl12 3.232112 1_555
Ba4 Cl15 3.264456 1_555
Ba4 Cl17 3.426283 1_555
Ba5 Cl15 3.109006 1_555
Ba5 Cl3 3.109006 1_555
Ba5 Cl17 3.138708 1_565
Ba5 Cl22 3.138708 1_455
Ba5 Cl13 3.168373 1_455
Ba5 Cl19 3.168373 1_565
Ba5 Cl5 3.240107 1_555
Ba5 Cl16 3.240107 1_555
Cl0 La3 2.896992 1_555
Cl1 La3 2.931195 1_554
Cl1 La0 3.291901 1_445
Cl2 La1 2.896992 1_555
Cl3 La1 2.877639 1_555
Cl4 La0 2.826895 1_555
Cl5 La3 2.985448 1_555
Cl5 La0 3.154393 1_456
Cl6 La1 2.931195 1_555
Cl6 La2 3.291901 1_665
Cl7 La2 2.985448 1_555
Cl7 La1 3.154393 1_545
Cl8 La0 2.877639 1_555
Cl9 La3 2.853413 1_655
Cl10 La2 2.826895 1_555
Cl11 La1 2.853413 1_545
Cl12 La2 2.853413 1_565
Cl13 La1 2.826895 1_555
Cl14 La0 2.853413 1_455
Cl15 La3 2.877639 1_555
Cl16 La1 2.985448 1_555
Cl16 La2 3.154393 1_565
Cl17 La2 2.931195 1_555
Cl17 La1 3.291901 1_445
Cl18 La0 2.985448 1_555
Cl18 La3 3.154393 1_654
Cl19 La3 2.826895 1_555
Cl20 La2 2.877639 1_555
Cl21 La2 2.896992 1_555
Cl22 La0 2.931195 1_556
Cl22 La3 3.291901 1_665
Cl23 La0 2.896992 1_555
