# generated using pymatgen
data_Sc3Bi3O11
_symmetry_space_group_name_H-M   'P 1'
_cell_length_a   9.68483000
_cell_length_b   9.68483000
_cell_length_c   9.68483000
_cell_angle_alpha   90.00000000
_cell_angle_beta   90.00000000
_cell_angle_gamma   90.00000000
_symmetry_Int_Tables_number   1
_chemical_formula_structural   Sc3Bi3O11
_chemical_formula_sum   'Sc12 Bi12 O44'
_cell_volume   908.39765736
_cell_formula_units_Z   4
loop_
 _symmetry_equiv_pos_site_id
 _symmetry_equiv_pos_as_xyz
  1  'x, y, z'
loop_
 _atom_site_type_symbol
 _atom_site_label
 _atom_site_symmetry_multiplicity
 _atom_site_fract_x
 _atom_site_fract_y
 _atom_site_fract_z
 _atom_site_occupancy
  Sc  Sc0  1  0.78724900  0.00000000  0.50000000  1
  Sc  Sc1  1  0.00000000  0.50000000  0.21275100  1
  Sc  Sc2  1  0.00000000  0.50000000  0.78724900  1
  Sc  Sc3  1  0.00000000  0.28724900  0.50000000  1
  Sc  Sc4  1  0.00000000  0.71275100  0.50000000  1
  Sc  Sc5  1  0.21275100  0.00000000  0.50000000  1
  Sc  Sc6  1  0.28724900  0.50000000  0.00000000  1
  Sc  Sc7  1  0.50000000  0.78724900  0.00000000  1
  Sc  Sc8  1  0.50000000  0.00000000  0.28724900  1
  Sc  Sc9  1  0.50000000  0.21275100  0.00000000  1
  Sc  Sc10  1  0.50000000  0.00000000  0.71275100  1
  Sc  Sc11  1  0.71275100  0.50000000  0.00000000  1
  Bi  Bi0  1  0.75000000  0.75000000  0.75000000  1
  Bi  Bi1  1  0.75000000  0.25000000  0.25000000  1
  Bi  Bi2  1  0.86750300  0.86750300  0.13249700  1
  Bi  Bi3  1  0.86750300  0.13249700  0.86750300  1
  Bi  Bi4  1  0.13249700  0.86750300  0.86750300  1
  Bi  Bi5  1  0.13249700  0.13249700  0.13249700  1
  Bi  Bi6  1  0.25000000  0.75000000  0.25000000  1
  Bi  Bi7  1  0.25000000  0.25000000  0.75000000  1
  Bi  Bi8  1  0.36750300  0.36750300  0.36750300  1
  Bi  Bi9  1  0.36750300  0.63249700  0.63249700  1
  Bi  Bi10  1  0.63249700  0.36750300  0.63249700  1
  Bi  Bi11  1  0.63249700  0.63249700  0.36750300  1
  O  O0  1  0.78356400  0.50567800  0.79829400  1
  O  O1  1  0.78356400  0.49432200  0.20170600  1
  O  O2  1  0.92266900  0.50000000  0.50000000  1
  O  O3  1  0.79829400  0.78356400  0.50567800  1
  O  O4  1  0.79829400  0.21643600  0.49432200  1
  O  O5  1  0.89831000  0.89831000  0.89831000  1
  O  O6  1  0.89831000  0.10169000  0.10169000  1
  O  O7  1  0.99432200  0.70170600  0.71643600  1
  O  O8  1  0.99432200  0.29829400  0.28356400  1
  O  O9  1  0.00000000  0.57733100  0.00000000  1
  O  O10  1  0.00000000  0.42266900  0.00000000  1
  O  O11  1  0.00000000  0.00000000  0.42266900  1
  O  O12  1  0.00000000  0.00000000  0.57733100  1
  O  O13  1  0.00567800  0.29829400  0.71643600  1
  O  O14  1  0.00567800  0.70170600  0.28356400  1
  O  O15  1  0.10169000  0.89831000  0.10169000  1
  O  O16  1  0.10169000  0.10169000  0.89831000  1
  O  O17  1  0.20170600  0.78356400  0.49432200  1
  O  O18  1  0.20170600  0.21643600  0.50567800  1
  O  O19  1  0.07733100  0.50000000  0.50000000  1
  O  O20  1  0.21643600  0.49432200  0.79829400  1
  O  O21  1  0.21643600  0.50567800  0.20170600  1
  O  O22  1  0.28356400  0.99432200  0.29829400  1
  O  O23  1  0.28356400  0.00567800  0.70170600  1
  O  O24  1  0.42266900  0.00000000  0.00000000  1
  O  O25  1  0.29829400  0.28356400  0.99432200  1
  O  O26  1  0.29829400  0.71643600  0.00567800  1
  O  O27  1  0.39831000  0.39831000  0.60169000  1
  O  O28  1  0.39831000  0.60169000  0.39831000  1
  O  O29  1  0.49432200  0.79829400  0.21643600  1
  O  O30  1  0.49432200  0.20170600  0.78356400  1
  O  O31  1  0.50000000  0.92266900  0.50000000  1
  O  O32  1  0.50000000  0.07733100  0.50000000  1
  O  O33  1  0.50000000  0.50000000  0.92266900  1
  O  O34  1  0.50000000  0.50000000  0.07733100  1
  O  O35  1  0.50567800  0.79829400  0.78356400  1
  O  O36  1  0.50567800  0.20170600  0.21643600  1
  O  O37  1  0.60169000  0.39831000  0.39831000  1
  O  O38  1  0.60169000  0.60169000  0.60169000  1
  O  O39  1  0.70170600  0.28356400  0.00567800  1
  O  O40  1  0.70170600  0.71643600  0.99432200  1
  O  O41  1  0.57733100  0.00000000  0.00000000  1
  O  O42  1  0.71643600  0.99432200  0.70170600  1
  O  O43  1  0.71643600  0.00567800  0.29829400  1
loop_
_geom_bond_atom_site_label_1
_geom_bond_atom_site_label_2
_geom_bond_distance
_geom_bond_site_symmetry_2
Bi0 O40 2.433806 1_555
Bi0 O3 2.433806 1_555
Bi0 O0 2.433806 1_555
Bi0 O35 2.433806 1_555
Bi0 O7 2.433806 1_555
Bi0 O42 2.433806 1_555
Bi0 O5 2.487844 1_555
Bi0 O38 2.487844 1_555
Bi1 O4 2.433806 1_555
Bi1 O1 2.433806 1_555
Bi1 O39 2.433806 1_555
Bi1 O43 2.433806 1_555
Bi1 O8 2.433806 1_555
Bi1 O36 2.433806 1_555
Bi1 O37 2.487844 1_555
Bi1 O6 2.487844 1_555
Bi2 O5 2.306976 1_554
Bi2 O6 2.306976 1_565
Bi2 O15 2.306976 1_655
Bi2 O40 2.551401 1_554
Bi2 O14 2.551401 1_655
Bi2 O43 2.551401 1_565
Bi3 O5 2.306976 1_545
Bi3 O6 2.306976 1_556
Bi3 O16 2.306976 1_655
Bi3 O42 2.551401 1_545
Bi3 O39 2.551401 1_556
Bi3 O13 2.551401 1_655
Bi4 O5 2.306976 1_455
Bi4 O15 2.306976 1_556
Bi4 O16 2.306976 1_565
Bi4 O23 2.551401 1_565
Bi4 O7 2.551401 1_455
Bi4 O26 2.551401 1_556
Bi5 O6 2.306976 1_455
Bi5 O16 2.306976 1_554
Bi5 O15 2.306976 1_545
Bi5 O25 2.551401 1_554
Bi5 O8 2.551401 1_455
Bi5 O22 2.551401 1_545
Bi6 O29 2.433806 1_555
Bi6 O17 2.433806 1_555
Bi6 O14 2.433806 1_555
Bi6 O26 2.433806 1_555
Bi6 O21 2.433806 1_555
Bi6 O22 2.433806 1_555
Bi6 O15 2.487844 1_555
Bi6 O28 2.487844 1_555
Bi7 O30 2.433806 1_555
Bi7 O20 2.433806 1_555
Bi7 O13 2.433806 1_555
Bi7 O23 2.433806 1_555
Bi7 O18 2.433806 1_555
Bi7 O25 2.433806 1_555
Bi7 O16 2.487844 1_555
Bi7 O27 2.487844 1_555
Bi8 O27 2.306976 1_555
Bi8 O37 2.306976 1_555
Bi8 O28 2.306976 1_555
Bi8 O36 2.551401 1_555
Bi8 O21 2.551401 1_555
Bi8 O18 2.551401 1_555
Bi9 O38 2.306976 1_555
Bi9 O28 2.306976 1_555
Bi9 O27 2.306976 1_555
Bi9 O20 2.551401 1_555
Bi9 O35 2.551401 1_555
Bi9 O17 2.551401 1_555
Bi10 O38 2.306976 1_555
Bi10 O37 2.306976 1_555
Bi10 O27 2.306976 1_555
Bi10 O0 2.551401 1_555
Bi10 O4 2.551401 1_555
Bi10 O30 2.551401 1_555
Bi11 O38 2.306976 1_555
Bi11 O37 2.306976 1_555
Bi11 O28 2.306976 1_555
Bi11 O29 2.551401 1_555
Bi11 O3 2.551401 1_555
Bi11 O1 2.551401 1_555
O0 Sc11 2.071106 1_556
O0 Sc2 2.099594 1_655
O1 Sc11 2.071106 1_555
O1 Sc1 2.099594 1_655
O2 Sc4 2.192348 1_655
O2 Sc3 2.192348 1_655
O3 Sc4 2.071106 1_655
O3 Sc0 2.099594 1_565
O4 Sc3 2.071106 1_655
O4 Sc0 2.099594 1_555
O7 Sc2 2.071106 1_655
O7 Sc4 2.099594 1_655
O8 Sc1 2.071106 1_655
O8 Sc3 2.099594 1_655
O9 Sc1 2.192348 1_555
O9 Sc2 2.192348 1_554
O10 O9 1.497875 1_555
O10 Sc1 2.192348 1_555
O10 Sc2 2.192348 1_554
O11 O12 1.497875 1_555
O11 Sc5 2.192348 1_555
O11 Sc0 2.192348 1_455
O12 Sc5 2.192348 1_555
O12 Sc0 2.192348 1_455
O13 Sc2 2.071106 1_555
O13 Sc3 2.099594 1_555
O14 Sc1 2.071106 1_555
O14 Sc4 2.099594 1_555
O17 Sc4 2.071106 1_555
O17 Sc5 2.099594 1_565
O18 Sc3 2.071106 1_555
O18 Sc5 2.099594 1_555
O19 O2 1.497875 1_455
O19 Sc3 2.192348 1_555
O19 Sc4 2.192348 1_555
O20 Sc6 2.071106 1_556
O20 Sc2 2.099594 1_555
O21 Sc6 2.071106 1_555
O21 Sc1 2.099594 1_555
O22 Sc5 2.071106 1_565
O22 Sc8 2.099594 1_565
O23 Sc5 2.071106 1_555
O23 Sc10 2.099594 1_555
O24 O41 1.497875 1_555
O24 Sc9 2.192348 1_555
O24 Sc7 2.192348 1_545
O25 Sc9 2.071106 1_556
O25 Sc6 2.099594 1_556
O26 Sc7 2.071106 1_555
O26 Sc6 2.099594 1_555
O29 Sc8 2.071106 1_565
O29 Sc7 2.099594 1_555
O30 Sc10 2.071106 1_555
O30 Sc9 2.099594 1_556
O31 O32 1.497875 1_565
O31 Sc8 2.192348 1_565
O31 Sc10 2.192348 1_565
O32 Sc8 2.192348 1_555
O32 Sc10 2.192348 1_555
O33 O34 1.497875 1_556
O33 Sc11 2.192348 1_556
O33 Sc6 2.192348 1_556
O34 Sc6 2.192348 1_555
O34 Sc11 2.192348 1_555
O35 Sc10 2.071106 1_565
O35 Sc7 2.099594 1_556
O36 Sc8 2.071106 1_555
O36 Sc9 2.099594 1_555
O39 Sc9 2.071106 1_555
O39 Sc11 2.099594 1_555
O40 Sc7 2.071106 1_556
O40 Sc11 2.099594 1_556
O41 Sc9 2.192348 1_555
O41 Sc7 2.192348 1_545
O42 Sc0 2.071106 1_565
O42 Sc10 2.099594 1_565
O43 Sc0 2.071106 1_555
O43 Sc8 2.099594 1_555
