# generated using pymatgen
data_Li3(FeO2)4
_symmetry_space_group_name_H-M   'P 1'
_cell_length_a   5.88193366
_cell_length_b   5.88193366
_cell_length_c   5.82526569
_cell_angle_alpha   61.06500051
_cell_angle_beta   61.06500051
_cell_angle_gamma   92.35618968
_symmetry_Int_Tables_number   1
_chemical_formula_structural   Li3(FeO2)4
_chemical_formula_sum   'Li3 Fe4 O8'
_cell_volume   144.05426464
_cell_formula_units_Z   1
loop_
 _symmetry_equiv_pos_site_id
 _symmetry_equiv_pos_as_xyz
  1  'x, y, z'
loop_
 _atom_site_type_symbol
 _atom_site_label
 _atom_site_symmetry_multiplicity
 _atom_site_fract_x
 _atom_site_fract_y
 _atom_site_fract_z
 _atom_site_occupancy
  Li  Li0  1  0.50000000  0.50000000  0.50000000  1
  Li  Li1  1  0.50000000  0.00000000  0.50000000  1
  Li  Li2  1  0.00000000  0.50000000  0.50000000  1
  Fe  Fe0  1  0.00000000  0.50000000  0.00000000  1
  Fe  Fe1  1  0.50000000  0.00000000  0.00000000  1
  Fe  Fe2  1  0.50000000  0.50000000  0.00000000  1
  Fe  Fe3  1  0.00000000  0.00000000  0.50000000  1
  O  O0  1  0.24428500  0.75571500  0.50000000  1
  O  O1  1  0.73948100  0.73948100  0.99743600  1
  O  O2  1  0.73215700  0.26784300  0.00000000  1
  O  O3  1  0.27013300  0.27013300  0.44628800  1
  O  O4  1  0.72986700  0.72986700  0.55371200  1
  O  O5  1  0.26784300  0.73215700  0.00000000  1
  O  O6  1  0.26051900  0.26051900  0.00256400  1
  O  O7  1  0.75571500  0.24428500  0.50000000  1
loop_
_geom_bond_atom_site_label_1
_geom_bond_atom_site_label_2
_geom_bond_distance
_geom_bond_site_symmetry_2
Li0 O6 2.096476 1_556
Li0 O1 2.096476 1_554
Li0 O4 2.102958 1_555
Li0 O3 2.102958 1_555
Li0 O7 2.170401 1_555
Li0 O0 2.170401 1_555
Li1 O7 2.036959 1_555
Li1 O0 2.036959 1_545
Li1 O2 2.089139 1_555
Li1 O5 2.089139 1_546
Li1 O4 2.134367 1_545
Li1 O3 2.134367 1_555
Li2 O0 2.036959 1_555
Li2 O7 2.036959 1_455
Li2 O2 2.089139 1_456
Li2 O5 2.089139 1_555
Li2 O4 2.134367 1_455
Li2 O3 2.134367 1_555
Fe0 O5 2.042005 1_555
Fe0 O2 2.042005 1_455
Fe0 O0 2.084207 1_554
Fe0 O7 2.084207 1_455
Fe0 O6 2.124097 1_555
Fe0 O1 2.124097 1_454
Fe1 O2 2.042005 1_555
Fe1 O5 2.042005 1_545
Fe1 O7 2.084207 1_554
Fe1 O0 2.084207 1_545
Fe1 O6 2.124097 1_555
Fe1 O1 2.124097 1_544
Fe2 O3 1.860648 1_555
Fe2 O4 1.860648 1_554
Fe2 O1 1.940292 1_554
Fe2 O6 1.940292 1_555
Fe2 O5 1.970451 1_555
Fe2 O2 1.970451 1_555
Fe3 O3 1.994351 1_555
Fe3 O4 1.994351 1_445
Fe3 O0 2.073388 1_545
Fe3 O7 2.073388 1_455
Fe3 O6 2.075242 1_555
Fe3 O1 2.075242 1_445
