# generated using pymatgen
data_Li6V2O5F2
_symmetry_space_group_name_H-M   'P 1'
_cell_length_a   5.89980800
_cell_length_b   5.90582122
_cell_length_c   9.98269847
_cell_angle_alpha   97.82538950
_cell_angle_beta   91.74494821
_cell_angle_gamma   119.01315701
_symmetry_Int_Tables_number   1
_chemical_formula_structural   Li6V2O5F2
_chemical_formula_sum   'Li12 V4 O10 F4'
_cell_volume   299.47229673
_cell_formula_units_Z   2
loop_
 _symmetry_equiv_pos_site_id
 _symmetry_equiv_pos_as_xyz
  1  'x, y, z'
loop_
 _atom_site_type_symbol
 _atom_site_label
 _atom_site_symmetry_multiplicity
 _atom_site_fract_x
 _atom_site_fract_y
 _atom_site_fract_z
 _atom_site_occupancy
  Li  Li0  1  0.79496300  0.86664100  0.91003700  1
  Li  Li1  1  0.52512700  0.86082500  0.39677300  1
  Li  Li2  1  0.08548800  0.88502100  0.42284800  1
  Li  Li3  1  0.31630300  0.87027700  0.90459400  1
  Li  Li4  1  0.66394900  0.58685000  0.10610700  1
  Li  Li5  1  0.91882300  0.58633900  0.60374700  1
  Li  Li6  1  0.08117700  0.41366100  0.39625300  1
  Li  Li7  1  0.33605100  0.41315000  0.89389300  1
  Li  Li8  1  0.68369700  0.12972300  0.09540600  1
  Li  Li9  1  0.91451200  0.11497900  0.57715200  1
  Li  Li10  1  0.47487300  0.13917500  0.60322700  1
  Li  Li11  1  0.20503700  0.13335900  0.08996300  1
  V  V0  1  0.20265700  0.61996800  0.12188300  1
  V  V1  1  0.44521700  0.61561100  0.62460900  1
  V  V2  1  0.55478300  0.38438900  0.37539100  1
  V  V3  1  0.79734300  0.38003200  0.87811700  1
  O  O0  1  0.49982100  0.75848400  0.02160100  1
  O  O1  1  0.26088300  0.75694800  0.52931400  1
  O  O2  1  0.73595700  0.73165300  0.49308400  1
  O  O3  1  0.35052000  0.48178900  0.25085200  1
  O  O4  1  0.00240000  0.73656400  0.00861000  1
  O  O5  1  0.99760000  0.26343600  0.99139000  1
  O  O6  1  0.64948000  0.51821100  0.74914800  1
  O  O7  1  0.26404300  0.26834700  0.50691600  1
  O  O8  1  0.73911700  0.24305200  0.47068600  1
  O  O9  1  0.50017900  0.24151600  0.97839900  1
  F  F0  1  0.86604100  0.49921400  0.24309600  1
  F  F1  1  0.13395900  0.50078600  0.75690400  1
  F  F2  1  0.34572600  0.99572500  0.25633600  1
  F  F3  1  0.65427400  0.00427500  0.74366400  1
loop_
_geom_bond_atom_site_label_1
_geom_bond_atom_site_label_2
_geom_bond_distance
_geom_bond_site_symmetry_2
Li0 O0 1.978214 1_556
Li0 O4 2.025024 1_656
Li0 O5 2.070115 1_565
Li0 O6 2.203062 1_555
Li1 O8 1.989787 1_565
Li1 O1 1.994082 1_555
Li1 O2 2.025059 1_555
Li1 O3 2.231119 1_555
Li2 O1 1.919284 1_555
Li2 O2 2.003420 1_455
Li2 O7 2.013588 1_565
Li3 O9 1.931557 1_565
Li3 O0 1.949080 1_556
Li3 O4 2.013294 1_556
Li4 O0 1.952430 1_555
Li4 O9 2.005943 1_554
Li4 O4 2.087186 1_655
Li4 O3 2.277320 1_555
Li5 O1 1.990673 1_655
Li5 O8 2.023524 1_555
Li5 O2 2.050508 1_555
Li5 O6 2.114988 1_555
Li6 O8 1.990673 1_455
Li6 O1 2.023524 1_555
Li6 O7 2.050508 1_555
Li6 O3 2.114988 1_555
Li7 O9 1.952430 1_555
Li7 O0 2.005943 1_556
Li7 O5 2.087186 1_455
Li7 O6 2.277320 1_555
Li8 O0 1.931557 1_545
Li8 O9 1.949080 1_554
Li8 O5 2.013294 1_554
Li9 O8 1.919284 1_555
Li9 O7 2.003420 1_655
Li9 O2 2.013588 1_545
Li10 O1 1.989787 1_545
Li10 O8 1.994082 1_555
Li10 O7 2.025059 1_555
Li10 O6 2.231119 1_555
Li11 O9 1.978214 1_554
Li11 O5 2.025024 1_454
Li11 O4 2.070115 1_545
Li11 O3 2.203062 1_555
O0 V0 1.919322 1_555
O1 V1 1.954031 1_555
O2 V2 1.967215 1_555
O2 V1 2.092306 1_555
O3 V0 1.998195 1_555
O3 V2 2.026017 1_555
O4 V0 2.017061 1_555
O4 V3 2.068883 1_454
O5 V3 2.017061 1_555
O5 V0 2.068883 1_656
O6 V3 1.998195 1_555
O6 V1 2.026017 1_555
O7 V1 1.967215 1_555
O7 V2 2.092306 1_555
O8 V2 1.954031 1_555
O9 V3 1.919322 1_555
F0 Li4 2.061940 1_555
F0 V2 2.181707 1_555
F0 Li8 2.200671 1_555
F0 Li6 2.217694 1_655
F0 V0 2.219085 1_655
F0 Li2 2.443637 1_655
F1 Li7 2.061940 1_555
F1 V1 2.181707 1_555
F1 Li3 2.200671 1_555
F1 Li5 2.217694 1_455
F1 V3 2.219085 1_455
F1 Li9 2.443637 1_455
F2 V2 2.150387 1_565
F2 V0 2.177511 1_555
F2 Li1 2.179950 1_555
F2 Li2 2.241751 1_555
F2 Li11 2.246381 1_565
F2 Li8 2.488710 1_565
F3 V1 2.150387 1_545
F3 V3 2.177511 1_555
F3 Li10 2.179950 1_555
F3 Li9 2.241751 1_555
F3 Li0 2.246381 1_545
F3 Li3 2.488710 1_545
