# generated using pymatgen
data_K6Na15Tl18H
_symmetry_space_group_name_H-M   'P 1'
_cell_length_a   10.88480133
_cell_length_b   10.88480133
_cell_length_c   10.88480133
_cell_angle_alpha   90.00000000
_cell_angle_beta   90.00000000
_cell_angle_gamma   90.00000000
_symmetry_Int_Tables_number   1
_chemical_formula_structural   K6Na15Tl18H
_chemical_formula_sum   'K6 Na15 Tl18 H1'
_cell_volume   1289.61928823
_cell_formula_units_Z   1
loop_
 _symmetry_equiv_pos_site_id
 _symmetry_equiv_pos_as_xyz
  1  'x, y, z'
loop_
 _atom_site_type_symbol
 _atom_site_label
 _atom_site_symmetry_multiplicity
 _atom_site_fract_x
 _atom_site_fract_y
 _atom_site_fract_z
 _atom_site_occupancy
  K  K0  1  0.00000000  0.18627599  0.50000000  1
  K  K1  1  0.00000000  0.81372401  0.50000000  1
  K  K2  1  0.50000000  0.00000000  0.18627599  1
  K  K3  1  0.50000000  0.00000000  0.81372401  1
  K  K4  1  0.18627599  0.50000000  0.00000000  1
  K  K5  1  0.81372401  0.50000000  0.00000000  1
  Na  Na0  1  0.00000000  0.00000000  0.00000000  1
  Na  Na1  1  0.71977320  0.28022680  0.28022680  1
  Na  Na2  1  0.28022680  0.28022680  0.71977320  1
  Na  Na3  1  0.28022680  0.71977320  0.28022680  1
  Na  Na4  1  0.71977320  0.71977320  0.71977320  1
  Na  Na5  1  0.28022680  0.71977320  0.71977320  1
  Na  Na6  1  0.71977320  0.71977320  0.28022680  1
  Na  Na7  1  0.71977320  0.28022680  0.71977320  1
  Na  Na8  1  0.28022680  0.28022680  0.28022680  1
  Na  Na9  1  0.50000000  0.32899465  0.00000000  1
  Na  Na10  1  0.50000000  0.67100535  0.00000000  1
  Na  Na11  1  0.00000000  0.50000000  0.32899465  1
  Na  Na12  1  0.00000000  0.50000000  0.67100535  1
  Na  Na13  1  0.32899465  0.00000000  0.50000000  1
  Na  Na14  1  0.67100535  0.00000000  0.50000000  1
  Tl  Tl0  1  0.50000000  0.27530364  0.50000000  1
  Tl  Tl1  1  0.50000000  0.72469636  0.50000000  1
  Tl  Tl2  1  0.50000000  0.50000000  0.27530364  1
  Tl  Tl3  1  0.50000000  0.50000000  0.72469636  1
  Tl  Tl4  1  0.27530364  0.50000000  0.50000000  1
  Tl  Tl5  1  0.72469636  0.50000000  0.50000000  1
  Tl  Tl6  1  0.84416665  0.00000000  0.25428275  1
  Tl  Tl7  1  0.15583335  0.00000000  0.74571725  1
  Tl  Tl8  1  0.15583335  0.00000000  0.25428275  1
  Tl  Tl9  1  0.84416665  0.00000000  0.74571725  1
  Tl  Tl10  1  0.25428275  0.84416665  0.00000000  1
  Tl  Tl11  1  0.74571725  0.15583335  0.00000000  1
  Tl  Tl12  1  0.25428275  0.15583335  0.00000000  1
  Tl  Tl13  1  0.74571725  0.84416665  0.00000000  1
  Tl  Tl14  1  0.00000000  0.25428275  0.84416665  1
  Tl  Tl15  1  0.00000000  0.74571725  0.15583335  1
  Tl  Tl16  1  0.00000000  0.25428275  0.15583335  1
  Tl  Tl17  1  0.00000000  0.74571725  0.84416665  1
  H  H0  1  0.50000000  0.50000000  0.50000000  1
loop_
_geom_bond_atom_site_label_1
_geom_bond_atom_site_label_2
_geom_bond_distance
_geom_bond_site_symmetry_2
K0 Tl6 3.760533 1_455
K0 Tl7 3.760533 1_555
K0 Tl9 3.760533 1_455
K0 Tl8 3.760533 1_555
K0 Tl16 3.818620 1_555
K0 Tl14 3.818620 1_555
K0 Na11 3.889174 1_555
K0 Na12 3.889174 1_555
K0 Na8 4.009008 1_555
K0 Na2 4.009008 1_555
K0 Na7 4.009008 1_455
K0 Na1 4.009008 1_455
K0 K1 4.055154 1_545
K0 Na14 4.115207 1_455
K0 Na13 4.115207 1_555
K1 Tl7 3.760533 1_565
K1 Tl8 3.760533 1_565
K1 Tl9 3.760533 1_465
K1 Tl6 3.760533 1_465
K1 Tl17 3.818620 1_555
K1 Tl15 3.818620 1_555
K1 Na11 3.889174 1_555
K1 Na12 3.889174 1_555
K1 Na3 4.009008 1_555
K1 Na6 4.009008 1_455
K1 Na5 4.009008 1_555
K1 Na4 4.009008 1_455
K1 Na14 4.115207 1_465
K1 Na13 4.115207 1_565
K2 Tl12 3.760533 1_555
K2 Tl10 3.760533 1_545
K2 Tl13 3.760533 1_545
K2 Tl11 3.760533 1_555
K2 Tl8 3.818620 1_555
K2 Tl6 3.818620 1_555
K2 Na13 3.889174 1_555
K2 Na14 3.889174 1_555
K2 Na8 4.009008 1_555
K2 Na3 4.009008 1_545
K2 Na1 4.009008 1_555
K2 Na6 4.009008 1_545
K2 K3 4.055154 1_554
K2 Na10 4.115207 1_545
K2 Na9 4.115207 1_555
K3 Tl11 3.760533 1_556
K3 Tl10 3.760533 1_546
K3 Tl12 3.760533 1_556
K3 Tl13 3.760533 1_546
K3 Tl7 3.818620 1_555
K3 Tl9 3.818620 1_555
K3 Na13 3.889174 1_555
K3 Na14 3.889174 1_555
K3 Na4 4.009008 1_545
K3 Na5 4.009008 1_545
K3 Na2 4.009008 1_555
K3 Na7 4.009008 1_555
K3 Na9 4.115207 1_556
K3 Na10 4.115207 1_546
K4 Tl15 3.760533 1_555
K4 Tl16 3.760533 1_555
K4 Tl17 3.760533 1_554
K4 Tl14 3.760533 1_554
K4 Tl10 3.818620 1_555
K4 Tl12 3.818620 1_555
K4 Na9 3.889174 1_555
K4 Na10 3.889174 1_555
K4 Na8 4.009008 1_555
K4 Na2 4.009008 1_554
K4 Na3 4.009008 1_555
K4 Na5 4.009008 1_554
K4 K5 4.055154 1_455
K4 Na12 4.115207 1_554
K4 Na11 4.115207 1_555
K5 Tl16 3.760533 1_655
K5 Tl17 3.760533 1_654
K5 Tl14 3.760533 1_654
K5 Tl15 3.760533 1_655
K5 Tl13 3.818620 1_555
K5 Tl11 3.818620 1_555
K5 Na9 3.889174 1_555
K5 Na10 3.889174 1_555
K5 Na6 4.009008 1_555
K5 Na1 4.009008 1_555
K5 Na7 4.009008 1_554
K5 Na4 4.009008 1_554
K5 Na12 4.115207 1_654
K5 Na11 4.115207 1_655
Na0 Tl7 3.246222 1_554
Na0 Tl10 3.246222 1_545
Na0 Tl8 3.246222 1_555
Na0 Tl13 3.246222 1_445
Na0 Tl11 3.246222 1_455
Na0 Tl14 3.246222 1_554
Na0 Tl9 3.246222 1_454
Na0 Tl12 3.246222 1_555
Na0 Tl6 3.246222 1_455
Na0 Tl17 3.246222 1_544
Na0 Tl15 3.246222 1_545
Na0 Tl16 3.246222 1_555
Na1 Tl11 3.349158 1_555
Na1 Tl16 3.349158 1_655
Na1 Tl6 3.349158 1_555
Na1 Tl0 3.383489 1_555
Na1 Tl2 3.383489 1_555
Na1 Tl5 3.383489 1_555
Na2 Tl7 3.349158 1_555
Na2 Tl12 3.349158 1_556
Na2 Tl14 3.349158 1_555
Na2 Tl3 3.383489 1_555
Na2 Tl0 3.383489 1_555
Na2 Tl4 3.383489 1_555
Na3 Tl8 3.349158 1_565
Na3 Tl15 3.349158 1_555
Na3 Tl10 3.349158 1_555
Na3 Tl4 3.383489 1_555
Na3 Tl1 3.383489 1_555
Na3 Tl2 3.383489 1_555
Na4 Tl13 3.349158 1_556
Na4 Tl9 3.349158 1_565
Na4 Tl17 3.349158 1_655
Na4 Tl3 3.383489 1_555
Na4 Tl1 3.383489 1_555
Na4 Tl5 3.383489 1_555
Na5 Tl7 3.349158 1_565
Na5 Tl17 3.349158 1_555
Na5 Tl10 3.349158 1_556
Na5 Tl3 3.383489 1_555
Na5 Tl4 3.383489 1_555
Na5 Tl1 3.383489 1_555
Na6 Tl15 3.349158 1_655
Na6 Tl13 3.349158 1_555
Na6 Tl6 3.349158 1_565
Na6 Tl1 3.383489 1_555
Na6 Tl5 3.383489 1_555
Na6 Tl2 3.383489 1_555
Na7 Tl11 3.349158 1_556
Na7 Tl9 3.349158 1_555
Na7 Tl14 3.349158 1_655
Na7 Tl3 3.383489 1_555
Na7 Tl0 3.383489 1_555
Na7 Tl5 3.383489 1_555
Na8 Tl8 3.349158 1_555
Na8 Tl12 3.349158 1_555
Na8 Tl16 3.349158 1_555
Na8 Tl0 3.383489 1_555
Na8 Tl4 3.383489 1_555
Na8 Tl2 3.383489 1_555
Na9 Tl12 3.271997 1_555
Na9 Tl11 3.271997 1_555
Na9 Tl3 3.527665 1_554
Na9 Tl2 3.527665 1_555
Na10 Tl13 3.271997 1_555
Na10 Tl10 3.271997 1_555
Na10 Tl3 3.527665 1_554
Na10 Tl2 3.527665 1_555
Na11 Tl15 3.271997 1_555
Na11 Tl16 3.271997 1_555
Na11 Tl5 3.527665 1_455
Na11 Tl4 3.527665 1_555
Na12 Tl17 3.271997 1_555
Na12 Tl14 3.271997 1_555
Na12 Tl5 3.527665 1_455
Na12 Tl4 3.527665 1_555
Na13 Tl7 3.271997 1_555
Na13 Tl8 3.271997 1_555
Na13 Tl1 3.527665 1_545
Na13 Tl0 3.527665 1_555
Na14 Tl6 3.271997 1_555
Na14 Tl9 3.271997 1_555
Na14 Tl1 3.527665 1_545
Na14 Tl0 3.527665 1_555
Tl6 Tl8 3.392430 1_655
Tl7 Tl9 3.392430 1_455
Tl10 Tl12 3.392430 1_565
Tl10 Tl8 3.418521 1_565
Tl10 Tl17 3.418521 1_554
Tl10 Tl7 3.418521 1_564
Tl10 Tl15 3.418521 1_555
Tl11 Tl13 3.392430 1_545
Tl11 Tl14 3.418521 1_654
Tl11 Tl6 3.418521 1_555
Tl11 Tl9 3.418521 1_554
Tl11 Tl16 3.418521 1_655
Tl12 Tl14 3.418521 1_554
Tl12 Tl8 3.418521 1_555
Tl12 Tl16 3.418521 1_555
Tl12 Tl7 3.418521 1_554
Tl13 Tl6 3.418521 1_565
Tl13 Tl9 3.418521 1_564
Tl13 Tl17 3.418521 1_654
Tl13 Tl15 3.418521 1_655
Tl14 Tl16 3.392430 1_556
Tl14 Tl9 3.418521 1_455
Tl14 Tl7 3.418521 1_555
Tl15 Tl17 3.392430 1_554
Tl15 Tl6 3.418521 1_465
Tl15 Tl8 3.418521 1_565
Tl16 Tl6 3.418521 1_455
Tl16 Tl8 3.418521 1_555
Tl17 Tl9 3.418521 1_465
Tl17 Tl7 3.418521 1_565
H0 Tl4 2.445775 1_555
H0 Tl2 2.445775 1_555
H0 Tl0 2.445775 1_555
H0 Tl3 2.445775 1_555
H0 Tl1 2.445775 1_555
H0 Tl5 2.445775 1_555
