# generated using pymatgen
data_Li3SbS3
_symmetry_space_group_name_H-M   'P 1'
_cell_length_a   14.92073000
_cell_length_b   6.21629500
_cell_length_c   8.53263776
_cell_angle_alpha   50.48959164
_cell_angle_beta   90.00000000
_cell_angle_gamma   90.00000000
_symmetry_Int_Tables_number   1
_chemical_formula_structural   Li3SbS3
_chemical_formula_sum   'Li12 Sb4 S12'
_cell_volume   610.58482240
_cell_formula_units_Z   4
loop_
 _symmetry_equiv_pos_site_id
 _symmetry_equiv_pos_as_xyz
  1  'x, y, z'
loop_
 _atom_site_type_symbol
 _atom_site_label
 _atom_site_symmetry_multiplicity
 _atom_site_fract_x
 _atom_site_fract_y
 _atom_site_fract_z
 _atom_site_occupancy
  Li  Li0  1  0.64604100  0.65073900  0.52639700  1
  Li  Li1  1  0.42536300  0.95787500  0.15296400  1
  Li  Li2  1  0.92536300  0.04212500  0.34703600  1
  Li  Li3  1  0.14604100  0.34926100  0.97360300  1
  Li  Li4  1  0.73769600  0.01622900  0.10421800  1
  Li  Li5  1  0.23769600  0.98377100  0.39578200  1
  Li  Li6  1  0.76230400  0.01622900  0.60421800  1
  Li  Li7  1  0.26230400  0.98377100  0.89578200  1
  Li  Li8  1  0.85395900  0.65073900  0.02639700  1
  Li  Li9  1  0.07463700  0.95787500  0.65296400  1
  Li  Li10  1  0.57463700  0.04212500  0.84703600  1
  Li  Li11  1  0.35395900  0.34926100  0.47360300  1
  Sb  Sb0  1  0.90295300  0.31098300  0.76438800  1
  Sb  Sb1  1  0.40295300  0.68901700  0.73561200  1
  Sb  Sb2  1  0.59704700  0.31098300  0.26438800  1
  Sb  Sb3  1  0.09704700  0.68901700  0.23561200  1
  S  S0  1  0.89819300  0.91058200  0.13168600  1
  S  S1  1  0.26203900  0.74227900  0.25695700  1
  S  S2  1  0.41629600  0.25554400  0.77316600  1
  S  S3  1  0.76203900  0.25772100  0.24304300  1
  S  S4  1  0.91629600  0.74445600  0.72683400  1
  S  S5  1  0.39819300  0.08941800  0.36831400  1
  S  S6  1  0.60180700  0.91058200  0.63168600  1
  S  S7  1  0.08370400  0.25554400  0.27316600  1
  S  S8  1  0.23796100  0.74227900  0.75695700  1
  S  S9  1  0.58370400  0.74445600  0.22683400  1
  S  S10  1  0.73796100  0.25772100  0.74304300  1
  S  S11  1  0.10180700  0.08941800  0.86831400  1
loop_
_geom_bond_atom_site_label_1
_geom_bond_atom_site_label_2
_geom_bond_distance
_geom_bond_site_symmetry_2
Li0 S10 2.349554 1_555
Li0 S6 2.387104 1_555
Li0 S9 2.417268 1_555
Li1 S5 2.474128 1_565
Li1 S2 2.512777 1_564
Li1 S9 2.583608 1_555
Li1 S1 2.647427 1_555
Li2 S0 2.474128 1_545
Li2 S4 2.512777 1_545
Li2 S7 2.583608 1_655
Li2 S3 2.647427 1_555
Li3 S8 2.349554 1_555
Li3 S11 2.387104 1_555
Li3 S7 2.417268 1_556
Li4 S10 2.421615 1_554
Li4 S0 2.454611 1_545
Li4 S3 2.459939 1_555
Li4 S9 2.641776 1_545
Li5 S8 2.421615 1_555
Li5 S5 2.454611 1_565
Li5 S1 2.459939 1_555
Li5 S7 2.641776 1_565
Li6 S3 2.421615 1_555
Li6 S6 2.454611 1_545
Li6 S10 2.459939 1_555
Li6 S4 2.641776 1_545
Li7 S1 2.421615 1_556
Li7 S11 2.454611 1_565
Li7 S8 2.459939 1_555
Li7 S2 2.641776 1_565
Li8 S3 2.349554 1_555
Li8 S0 2.387104 1_555
Li8 S4 2.417268 1_554
Li9 S11 2.474128 1_565
Li9 S7 2.512777 1_565
Li9 S4 2.583608 1_455
Li9 S8 2.647427 1_555
Li10 S6 2.474128 1_545
Li10 S9 2.512777 1_546
Li10 S2 2.583608 1_555
Li10 S10 2.647427 1_555
Li11 S1 2.349554 1_555
Li11 S5 2.387104 1_555
Li11 S2 2.417268 1_555
S0 Sb0 2.469113 1_564
S1 Sb3 2.505990 1_555
S2 Sb1 2.510874 1_555
S3 Sb2 2.505990 1_555
S4 Sb0 2.510874 1_555
S5 Sb1 2.469113 1_545
S6 Sb2 2.469113 1_565
S7 Sb3 2.510874 1_555
S8 Sb1 2.505990 1_555
S9 Sb2 2.510874 1_555
S10 Sb0 2.505990 1_555
S11 Sb3 2.469113 1_546
