# generated using pymatgen
data_LiMnF3
_symmetry_space_group_name_H-M   'P 1'
_cell_length_a   6.20844800
_cell_length_b   6.20844800
_cell_length_c   6.20844800
_cell_angle_alpha   90.00000000
_cell_angle_beta   90.00000000
_cell_angle_gamma   90.00000000
_symmetry_Int_Tables_number   1
_chemical_formula_structural   LiMnF3
_chemical_formula_sum   'Li4 Mn4 F12'
_cell_volume   239.30355142
_cell_formula_units_Z   4
loop_
 _symmetry_equiv_pos_site_id
 _symmetry_equiv_pos_as_xyz
  1  'x, y, z'
loop_
 _atom_site_type_symbol
 _atom_site_label
 _atom_site_symmetry_multiplicity
 _atom_site_fract_x
 _atom_site_fract_y
 _atom_site_fract_z
 _atom_site_occupancy
  Li  Li0  1  0.08972300  0.08972300  0.08972300  1
  Li  Li1  1  0.41027700  0.91027700  0.58972300  1
  Li  Li2  1  0.58972300  0.41027700  0.91027700  1
  Li  Li3  1  0.91027700  0.58972300  0.41027700  1
  Mn  Mn0  1  0.14131800  0.64131800  0.85868200  1
  Mn  Mn1  1  0.35868200  0.35868200  0.35868200  1
  Mn  Mn2  1  0.64131800  0.85868200  0.14131800  1
  Mn  Mn3  1  0.85868200  0.14131800  0.64131800  1
  F  F0  1  0.51770500  0.23212100  0.63109600  1
  F  F1  1  0.48229500  0.73212100  0.86890400  1
  F  F2  1  0.26787900  0.36890400  0.01770500  1
  F  F3  1  0.63109600  0.51770500  0.23212100  1
  F  F4  1  0.86890400  0.48229500  0.73212100  1
  F  F5  1  0.23212100  0.63109600  0.51770500  1
  F  F6  1  0.01770500  0.26787900  0.36890400  1
  F  F7  1  0.98229500  0.76787900  0.13109600  1
  F  F8  1  0.76787900  0.13109600  0.98229500  1
  F  F9  1  0.13109600  0.98229500  0.76787900  1
  F  F10  1  0.36890400  0.01770500  0.26787900  1
  F  F11  1  0.73212100  0.86890400  0.48229500  1
loop_
_geom_bond_atom_site_label_1
_geom_bond_atom_site_label_2
_geom_bond_distance
_geom_bond_site_symmetry_2
F0 Li2 2.104180 1_555
F0 Mn1 2.110100 1_555
F0 Li1 2.122128 1_545
F0 Mn3 2.191635 1_555
F1 Li1 2.104180 1_555
F1 Mn2 2.110100 1_556
F1 Li2 2.122128 1_555
F1 Mn0 2.191635 1_555
F2 Li0 2.104180 1_555
F2 Mn0 2.110100 1_554
F2 Li2 2.122128 1_554
F2 Mn1 2.191635 1_555
F3 Li3 2.104180 1_555
F3 Mn1 2.110100 1_555
F3 Li2 2.122128 1_554
F3 Mn2 2.191635 1_555
F4 Li2 2.104180 1_555
F4 Mn0 2.110100 1_655
F4 Li3 2.122128 1_555
F4 Mn3 2.191635 1_555
F5 Li1 2.104180 1_555
F5 Mn1 2.110100 1_555
F5 Li3 2.122128 1_455
F5 Mn0 2.191635 1_555
F6 Li0 2.104180 1_555
F6 Mn3 2.110100 1_455
F6 Li3 2.122128 1_455
F6 Mn1 2.191635 1_555
F7 Li3 2.104180 1_555
F7 Mn0 2.110100 1_654
F7 Li0 2.122128 1_665
F7 Mn2 2.191635 1_555
F8 Li2 2.104180 1_555
F8 Mn2 2.110100 1_546
F8 Li0 2.122128 1_656
F8 Mn3 2.191635 1_555
F9 Li1 2.104180 1_555
F9 Mn3 2.110100 1_465
F9 Li0 2.122128 1_566
F9 Mn0 2.191635 1_555
F10 Li0 2.104180 1_555
F10 Mn2 2.110100 1_545
F10 Li1 2.122128 1_545
F10 Mn1 2.191635 1_555
F11 Li3 2.104180 1_555
F11 Mn3 2.110100 1_565
F11 Li1 2.122128 1_555
F11 Mn2 2.191635 1_555
