# generated using pymatgen
data_Li3NbFe3O8
_symmetry_space_group_name_H-M   'P 1'
_cell_length_a   6.08705442
_cell_length_b   6.08705442
_cell_length_c   6.13721183
_cell_angle_alpha   59.83305030
_cell_angle_beta   59.83305030
_cell_angle_gamma   60.58013537
_symmetry_Int_Tables_number   1
_chemical_formula_structural   Li3NbFe3O8
_chemical_formula_sum   'Li3 Nb1 Fe3 O8'
_cell_volume   161.07500428
_cell_formula_units_Z   1
loop_
 _symmetry_equiv_pos_site_id
 _symmetry_equiv_pos_as_xyz
  1  'x, y, z'
loop_
 _atom_site_type_symbol
 _atom_site_label
 _atom_site_symmetry_multiplicity
 _atom_site_fract_x
 _atom_site_fract_y
 _atom_site_fract_z
 _atom_site_occupancy
  Li  Li0  1  0.50000000  0.00000000  0.00000000  1
  Li  Li1  1  0.00000000  0.00000000  0.50000000  1
  Li  Li2  1  0.00000000  0.50000000  0.00000000  1
  Nb  Nb0  1  0.00000000  0.00000000  0.00000000  1
  Fe  Fe0  1  0.00000000  0.50000000  0.50000000  1
  Fe  Fe1  1  0.50000000  0.50000000  0.00000000  1
  Fe  Fe2  1  0.50000000  0.00000000  0.50000000  1
  O  O0  1  0.74418800  0.74418800  0.72697700  1
  O  O1  1  0.76026700  0.21961400  0.24399800  1
  O  O2  1  0.23686200  0.23686200  0.75296500  1
  O  O3  1  0.25581200  0.25581200  0.27302300  1
  O  O4  1  0.21961400  0.76026700  0.24399800  1
  O  O5  1  0.23973300  0.78038600  0.75600200  1
  O  O6  1  0.76313800  0.76313800  0.24703500  1
  O  O7  1  0.78038600  0.23973300  0.75600200  1
loop_
_geom_bond_atom_site_label_1
_geom_bond_atom_site_label_2
_geom_bond_distance
_geom_bond_site_symmetry_2
Li0 O6 2.217625 1_545
Li0 O2 2.217625 1_554
Li0 O7 2.228602 1_554
Li0 O4 2.228602 1_545
Li0 O3 2.299352 1_555
Li0 O0 2.299352 1_544
Li1 O7 2.159147 1_455
Li1 O5 2.159147 1_545
Li1 O1 2.159147 1_455
Li1 O4 2.159147 1_545
Li1 O3 2.193581 1_555
Li1 O0 2.193581 1_445
Li2 O6 2.217625 1_455
Li2 O2 2.217625 1_554
Li2 O5 2.228602 1_554
Li2 O1 2.228602 1_455
Li2 O3 2.299352 1_555
Li2 O0 2.299352 1_454
Nb0 O1 2.014487 1_455
Nb0 O4 2.014487 1_545
Nb0 O7 2.014487 1_454
Nb0 O5 2.014487 1_544
Nb0 O2 2.025942 1_554
Nb0 O6 2.025942 1_445
Fe0 O0 2.049789 1_455
Fe0 O3 2.049789 1_555
Fe0 O4 2.057535 1_555
Fe0 O7 2.057535 1_455
Fe0 O2 2.129850 1_555
Fe0 O6 2.129850 1_455
Fe1 O3 2.095354 1_555
Fe1 O0 2.095354 1_554
Fe1 O4 2.196485 1_555
Fe1 O1 2.196485 1_555
Fe1 O7 2.196485 1_554
Fe1 O5 2.196485 1_554
Fe2 O0 2.049789 1_545
Fe2 O3 2.049789 1_555
Fe2 O1 2.057535 1_555
Fe2 O5 2.057535 1_545
Fe2 O2 2.129850 1_555
Fe2 O6 2.129850 1_545
