# generated using pymatgen
data_Al11AgO17
_symmetry_space_group_name_H-M   'P 1'
_cell_length_a   5.65565048
_cell_length_b   5.65565048
_cell_length_c   22.79221900
_cell_angle_alpha   90.00000000
_cell_angle_beta   90.00000000
_cell_angle_gamma   120.04000854
_symmetry_Int_Tables_number   1
_chemical_formula_structural   Al11AgO17
_chemical_formula_sum   'Al22 Ag2 O34'
_cell_volume   631.11301589
_cell_formula_units_Z   2
loop_
 _symmetry_equiv_pos_site_id
 _symmetry_equiv_pos_as_xyz
  1  'x, y, z'
loop_
 _atom_site_type_symbol
 _atom_site_label
 _atom_site_symmetry_multiplicity
 _atom_site_fract_x
 _atom_site_fract_y
 _atom_site_fract_z
 _atom_site_occupancy
  Al  Al0  1  0.66708300  0.33291700  0.39455900  1
  Al  Al1  1  0.66708300  0.33291700  0.10544100  1
  Al  Al2  1  0.83230600  0.16769400  0.67551000  1
  Al  Al3  1  0.83313500  0.16686500  0.52477400  1
  Al  Al4  1  0.83230600  0.16769400  0.82449000  1
  Al  Al5  1  0.66904800  0.83536000  0.10774700  1
  Al  Al6  1  0.50000000  0.50000000  0.50000000  1
  Al  Al7  1  0.50000000  0.50000000  0.00000000  1
  Al  Al8  1  0.83313500  0.16686500  0.97522600  1
  Al  Al9  1  0.66904800  0.83536000  0.39225300  1
  Al  Al10  1  0.83536000  0.66904800  0.60774700  1
  Al  Al11  1  0.83536000  0.66904800  0.89225300  1
  Al  Al12  1  0.16464000  0.33095200  0.10774700  1
  Al  Al13  1  0.16464000  0.33095200  0.39225300  1
  Al  Al14  1  0.16769400  0.83230600  0.17551000  1
  Al  Al15  1  0.33095200  0.16464000  0.89225300  1
  Al  Al16  1  0.33095200  0.16464000  0.60774700  1
  Al  Al17  1  0.16686500  0.83313500  0.47522600  1
  Al  Al18  1  0.16769400  0.83230600  0.32449000  1
  Al  Al19  1  0.16686500  0.83313500  0.02477400  1
  Al  Al20  1  0.33291700  0.66708300  0.89455900  1
  Al  Al21  1  0.33291700  0.66708300  0.60544100  1
  Ag  Ag0  1  0.74277100  0.25722900  0.25000000  1
  Ag  Ag1  1  0.25722900  0.74277100  0.75000000  1
  O  O0  1  0.65737900  0.34262100  0.55016000  1
  O  O1  1  0.65737900  0.34262100  0.94984000  1
  O  O2  1  0.50756100  0.00589200  0.14579600  1
  O  O3  1  0.50756100  0.00589200  0.35420400  1
  O  O4  1  0.81919900  0.18080100  0.75000000  1
  O  O5  1  0.83390300  0.16609700  0.05550700  1
  O  O6  1  0.65610500  0.81436100  0.54951100  1
  O  O7  1  0.99410800  0.49243900  0.14579600  1
  O  O8  1  0.49923500  0.50076500  0.64141000  1
  O  O9  1  0.65610500  0.81436100  0.95048900  1
  O  O10  1  0.49923500  0.50076500  0.85859000  1
  O  O11  1  0.50076500  0.49923500  0.14141000  1
  O  O12  1  0.50076500  0.49923500  0.35859000  1
  O  O13  1  0.83390300  0.16609700  0.44449300  1
  O  O14  1  0.99410800  0.49243900  0.35420400  1
  O  O15  1  0.81436100  0.65610500  0.04951100  1
  O  O16  1  0.81436100  0.65610500  0.45048900  1
  O  O17  1  0.99936300  0.00063700  0.14540400  1
  O  O18  1  0.99936300  0.00063700  0.35459600  1
  O  O19  1  0.00063700  0.99936300  0.85459600  1
  O  O20  1  0.00063700  0.99936300  0.64540400  1
  O  O21  1  0.18563900  0.34389500  0.54951100  1
  O  O22  1  0.18563900  0.34389500  0.95048900  1
  O  O23  1  0.16609700  0.83390300  0.94449300  1
  O  O24  1  0.00589200  0.50756100  0.64579600  1
  O  O25  1  0.00589200  0.50756100  0.85420400  1
  O  O26  1  0.34389500  0.18563900  0.04951100  1
  O  O27  1  0.34389500  0.18563900  0.45048900  1
  O  O28  1  0.16609700  0.83390300  0.55550700  1
  O  O29  1  0.18080100  0.81919900  0.25000000  1
  O  O30  1  0.49243900  0.99410800  0.64579600  1
  O  O31  1  0.49243900  0.99410800  0.85420400  1
  O  O32  1  0.34262100  0.65737900  0.44984000  1
  O  O33  1  0.34262100  0.65737900  0.05016000  1
loop_
_geom_bond_atom_site_label_1
_geom_bond_atom_site_label_2
_geom_bond_distance
_geom_bond_site_symmetry_2
Al0 O12 1.824159 1_555
Al0 O14 1.846641 1_555
Al0 O3 1.846641 1_555
Al0 O13 1.991683 1_555
Al0 O27 2.033592 1_555
Al0 O16 2.033592 1_555
Al1 O11 1.824159 1_555
Al1 O7 1.846641 1_555
Al1 O2 1.846641 1_555
Al1 O5 1.991683 1_555
Al1 O26 2.033592 1_555
Al1 O15 2.033592 1_555
Al2 O4 1.702642 1_555
Al2 O20 1.786330 1_645
Al2 O30 1.796625 1_545
Al2 O24 1.796625 1_655
Al3 O6 1.815609 1_545
Al3 O21 1.815609 1_655
Al3 O0 1.816637 1_555
Al3 O13 1.829798 1_555
Al4 O4 1.702642 1_555
Al4 O19 1.786330 1_645
Al4 O25 1.796625 1_655
Al4 O31 1.796625 1_545
Al5 O11 1.815726 1_555
Al5 O17 1.830853 1_565
Al5 O2 1.843460 1_565
Al5 O5 2.009914 1_565
Al5 O33 2.069710 1_555
Al5 O15 2.073453 1_555
Al6 O21 1.908484 1_555
Al6 O6 1.908484 1_555
Al6 O27 1.908484 1_555
Al6 O16 1.908484 1_555
Al6 O0 1.919564 1_555
Al6 O32 1.919564 1_555
Al7 O22 1.908484 1_554
Al7 O9 1.908484 1_554
Al7 O26 1.908484 1_555
Al7 O15 1.908484 1_555
Al7 O1 1.919564 1_554
Al7 O33 1.919564 1_555
Al8 O9 1.815609 1_545
Al8 O22 1.815609 1_655
Al8 O1 1.816637 1_555
Al8 O5 1.829798 1_556
Al9 O12 1.815726 1_555
Al9 O18 1.830853 1_565
Al9 O3 1.843460 1_565
Al9 O13 2.009914 1_565
Al9 O32 2.069710 1_555
Al9 O16 2.073453 1_555
Al10 O8 1.815726 1_555
Al10 O20 1.830853 1_655
Al10 O24 1.843460 1_655
Al10 O28 2.009914 1_655
Al10 O0 2.069710 1_555
Al10 O6 2.073453 1_555
Al11 O10 1.815726 1_555
Al11 O19 1.830853 1_655
Al11 O25 1.843460 1_655
Al11 O23 2.009914 1_655
Al11 O1 2.069710 1_555
Al11 O9 2.073453 1_555
Al12 O11 1.815726 1_555
Al12 O17 1.830853 1_455
Al12 O7 1.843460 1_455
Al12 O5 2.009914 1_455
Al12 O33 2.069710 1_555
Al12 O26 2.073453 1_555
Al13 O12 1.815726 1_555
Al13 O18 1.830853 1_455
Al13 O14 1.843460 1_455
Al13 O13 2.009914 1_455
Al13 O32 2.069710 1_555
Al13 O27 2.073453 1_555
Al14 O29 1.702642 1_555
Al14 O17 1.786330 1_465
Al14 O2 1.796625 1_565
Al14 O7 1.796625 1_455
Al15 O10 1.815726 1_555
Al15 O19 1.830853 1_545
Al15 O31 1.843460 1_545
Al15 O23 2.009914 1_545
Al15 O1 2.069710 1_555
Al15 O22 2.073453 1_555
Al16 O8 1.815726 1_555
Al16 O20 1.830853 1_545
Al16 O30 1.843460 1_545
Al16 O28 2.009914 1_545
Al16 O0 2.069710 1_555
Al16 O21 2.073453 1_555
Al17 O16 1.815609 1_455
Al17 O27 1.815609 1_565
Al17 O32 1.816637 1_555
Al17 O28 1.829798 1_555
Al18 O29 1.702642 1_555
Al18 O18 1.786330 1_465
Al18 O3 1.796625 1_565
Al18 O14 1.796625 1_455
Al19 O15 1.815609 1_455
Al19 O26 1.815609 1_565
Al19 O33 1.816637 1_555
Al19 O23 1.829798 1_554
Al20 O10 1.824159 1_555
Al20 O31 1.846641 1_555
Al20 O25 1.846641 1_555
Al20 O23 1.991683 1_555
Al20 O22 2.033592 1_555
Al20 O9 2.033592 1_555
Al21 O8 1.824159 1_555
Al21 O24 1.846641 1_555
Al21 O30 1.846641 1_555
Al21 O28 1.991683 1_555
Al21 O21 2.033592 1_555
Al21 O6 2.033592 1_555
Ag0 O2 2.745503 1_555
Ag0 O7 2.745503 1_555
Ag0 O14 2.745503 1_555
Ag0 O3 2.745503 1_555
Ag1 O25 2.745503 1_555
Ag1 O31 2.745503 1_555
Ag1 O30 2.745503 1_555
Ag1 O24 2.745503 1_555
