# generated using pymatgen
data_CsSr2Ta3O10
_symmetry_space_group_name_H-M   'P 1'
_cell_length_a   3.97181100
_cell_length_b   3.97181100
_cell_length_c   15.72054600
_cell_angle_alpha   90.00000000
_cell_angle_beta   90.00000000
_cell_angle_gamma   90.00000000
_symmetry_Int_Tables_number   1
_chemical_formula_structural   CsSr2Ta3O10
_chemical_formula_sum   'Cs1 Sr2 Ta3 O10'
_cell_volume   247.99605609
_cell_formula_units_Z   1
loop_
 _symmetry_equiv_pos_site_id
 _symmetry_equiv_pos_as_xyz
  1  'x, y, z'
loop_
 _atom_site_type_symbol
 _atom_site_label
 _atom_site_symmetry_multiplicity
 _atom_site_fract_x
 _atom_site_fract_y
 _atom_site_fract_z
 _atom_site_occupancy
  Cs  Cs0  1  0.50000000  0.50000000  0.50000000  1
  Sr  Sr0  1  0.50000000  0.50000000  0.85589300  1
  Sr  Sr1  1  0.50000000  0.50000000  0.14410700  1
  Ta  Ta0  1  0.00000000  0.00000000  0.00000000  1
  Ta  Ta1  1  0.00000000  0.00000000  0.27988600  1
  Ta  Ta2  1  0.00000000  0.00000000  0.72011400  1
  O  O0  1  0.00000000  0.00000000  0.60614500  1
  O  O1  1  0.00000000  0.00000000  0.39385500  1
  O  O2  1  0.50000000  0.00000000  0.74578700  1
  O  O3  1  0.00000000  0.50000000  0.74578700  1
  O  O4  1  0.50000000  0.00000000  0.25421300  1
  O  O5  1  0.00000000  0.50000000  0.25421300  1
  O  O6  1  0.00000000  0.50000000  0.00000000  1
  O  O7  1  0.50000000  0.00000000  0.00000000  1
  O  O8  1  0.00000000  0.00000000  0.12565900  1
  O  O9  1  0.00000000  0.00000000  0.87434100  1
loop_
_geom_bond_atom_site_label_1
_geom_bond_atom_site_label_2
_geom_bond_distance
_geom_bond_site_symmetry_2
Cs0 O0 3.266812 1_665
Cs0 O0 3.266812 1_655
Cs0 O0 3.266812 1_555
Cs0 O0 3.266812 1_565
Cs0 O1 3.266812 1_665
Cs0 O1 3.266812 1_655
Cs0 O1 3.266812 1_565
Cs0 O1 3.266812 1_555
O0 Ta2 1.791655 1_555
O1 Ta1 1.791655 1_555
O2 Ta2 2.026502 1_555
O2 Ta2 2.026502 1_655
O2 Sr0 2.634374 1_545
O2 Sr0 2.634374 1_555
O3 Ta2 2.026502 1_555
O3 Ta2 2.026502 1_565
O3 Sr0 2.634374 1_555
O3 Sr0 2.634374 1_455
O4 Ta1 2.026502 1_555
O4 Ta1 2.026502 1_655
O4 Sr1 2.634374 1_545
O4 Sr1 2.634374 1_555
O5 Ta1 2.026502 1_565
O5 Ta1 2.026502 1_555
O5 Sr1 2.634374 1_455
O5 Sr1 2.634374 1_555
O6 Ta0 1.985905 1_565
O6 Ta0 1.985905 1_555
O6 Sr1 3.012647 1_455
O6 Sr1 3.012647 1_555
O6 Sr0 3.012647 1_454
O6 Sr0 3.012647 1_554
O7 Ta0 1.985905 1_655
O7 Ta0 1.985905 1_555
O7 Sr1 3.012647 1_545
O7 Sr1 3.012647 1_555
O7 Sr0 3.012647 1_544
O7 Sr0 3.012647 1_554
O8 Ta0 1.975428 1_555
O8 Ta1 2.424533 1_555
O8 Sr1 2.823429 1_445
O8 Sr1 2.823429 1_545
O8 Sr1 2.823429 1_455
O8 Sr1 2.823429 1_555
O9 Ta0 1.975428 1_556
O9 Ta2 2.424533 1_555
O9 Sr0 2.823429 1_545
O9 Sr0 2.823429 1_455
O9 Sr0 2.823429 1_555
O9 Sr0 2.823429 1_445
