# generated using pymatgen
data_LiVP2(HO4)2
_symmetry_space_group_name_H-M   'P 1'
_cell_length_a   8.04406790
_cell_length_b   18.33983297
_cell_length_c   8.04710709
_cell_angle_alpha   102.91165890
_cell_angle_beta   60.03804954
_cell_angle_gamma   102.73485019
_symmetry_Int_Tables_number   1
_chemical_formula_structural   LiVP2(HO4)2
_chemical_formula_sum   'Li6 V6 P12 H12 O48'
_cell_volume   994.14111211
_cell_formula_units_Z   6
loop_
 _symmetry_equiv_pos_site_id
 _symmetry_equiv_pos_as_xyz
  1  'x, y, z'
loop_
 _atom_site_type_symbol
 _atom_site_label
 _atom_site_symmetry_multiplicity
 _atom_site_fract_x
 _atom_site_fract_y
 _atom_site_fract_z
 _atom_site_occupancy
  Li  Li0  1  0.24688900  0.75004100  0.25132700  1
  Li  Li1  1  0.18897000  0.57324800  0.19113200  1
  Li  Li2  1  0.69228000  0.07325100  0.68955500  1
  Li  Li3  1  0.30770800  0.92675000  0.31047700  1
  Li  Li4  1  0.81104600  0.42678000  0.80890000  1
  Li  Li5  1  0.75308900  0.24998900  0.74872300  1
  V  V0  1  0.00005200  0.99997300  0.99996700  1
  V  V1  1  0.08637700  0.25878100  0.08629700  1
  V  V2  1  0.41420200  0.24148700  0.41369600  1
  V  V3  1  0.50000600  0.49998800  0.50005800  1
  V  V4  1  0.58590800  0.75865600  0.58649800  1
  V  V5  1  0.91357200  0.74115700  0.91371100  1
  P  P0  1  0.25798200  0.86246100  0.68664100  1
  P  P1  1  0.24130500  0.63712200  0.58266200  1
  P  P2  1  0.31278700  0.13698100  0.08228400  1
  P  P3  1  0.41809200  0.36265000  0.18699400  1
  P  P4  1  0.08333700  0.13714500  0.74062400  1
  P  P5  1  0.18661600  0.36240600  0.75872900  1
  P  P6  1  0.81338700  0.63762700  0.24122600  1
  P  P7  1  0.91669700  0.86279900  0.25930000  1
  P  P8  1  0.58204700  0.63736300  0.81307800  1
  P  P9  1  0.68726300  0.86300500  0.91766000  1
  P  P10  1  0.75871700  0.36292600  0.41736300  1
  P  P11  1  0.74197800  0.13750800  0.31336700  1
  H  H0  1  0.09422000  0.63713900  0.97609800  1
  H  H1  1  0.97635700  0.63580200  0.56576200  1
  H  H2  1  0.06630000  0.13612800  0.47584700  1
  H  H3  1  0.52328000  0.86275000  0.40626300  1
  H  H4  1  0.56620500  0.63657200  0.09289500  1
  H  H5  1  0.40672400  0.86386400  0.93436600  1
  H  H6  1  0.59328600  0.13613300  0.06566000  1
  H  H7  1  0.47671900  0.13723800  0.59375300  1
  H  H8  1  0.43381800  0.36343400  0.90712500  1
  H  H9  1  0.93368900  0.86386200  0.52410700  1
  H  H10  1  0.02360600  0.36421100  0.43429200  1
  H  H11  1  0.90578300  0.36286900  0.02388700  1
  O  O0  1  0.02501800  0.80541000  0.08428900  1
  O  O1  1  0.03115100  0.87543200  0.38685100  1
  O  O2  1  0.04316900  0.62581500  0.11367700  1
  O  O3  1  0.08357000  0.80499000  0.69677000  1
  O  O4  1  0.11363600  0.62409300  0.46833000  1
  O  O5  1  0.45796400  0.87523300  0.03228700  1
  O  O6  1  0.20883700  0.93948900  0.79930400  1
  O  O7  1  0.20519000  0.33242900  0.23953000  1
  O  O8  1  0.11135500  0.66803500  0.79513000  1
  O  O9  1  0.38546300  0.87401800  0.45720800  1
  O  O10  1  0.46800800  0.62537800  0.04206900  1
  O  O11  1  0.19868400  0.05995500  0.07091200  1
  O  O12  1  0.28909000  0.56011300  0.57285000  1
  O  O13  1  0.41603200  0.69372500  0.47499600  1
  O  O14  1  0.69773200  0.80602400  0.02517300  1
  O  O15  1  0.26077100  0.16771000  0.29466100  1
  O  O16  1  0.38838000  0.83266500  0.73970200  1
  O  O17  1  0.19652500  0.30491500  0.58402500  1
  O  O18  1  0.43033800  0.43989700  0.30072200  1
  O  O19  1  0.07249800  0.06056300  0.78931400  1
  O  O20  1  0.29959500  0.43946200  0.70957300  1
  O  O21  1  0.52472600  0.30550500  0.19778800  1
  O  O22  1  0.70458200  0.83202000  0.38885200  1
  O  O23  1  0.76071800  0.66748600  0.11119300  1
  O  O24  1  0.23907300  0.33246100  0.88886600  1
  O  O25  1  0.29520200  0.16796600  0.61111400  1
  O  O26  1  0.47501000  0.69441200  0.80232400  1
  O  O27  1  0.70045700  0.56052100  0.29033800  1
  O  O28  1  0.92746600  0.93943100  0.21065900  1
  O  O29  1  0.56966800  0.56012400  0.69934800  1
  O  O30  1  0.80349300  0.69506100  0.41596200  1
  O  O31  1  0.61165500  0.16731500  0.26035000  1
  O  O32  1  0.73937200  0.83230400  0.70522500  1
  O  O33  1  0.58386600  0.30618400  0.52477000  1
  O  O34  1  0.30206200  0.19397700  0.97496300  1
  O  O35  1  0.71079900  0.43989600  0.42718800  1
  O  O36  1  0.80126800  0.94004300  0.92903000  1
  O  O37  1  0.53207700  0.37464500  0.95791400  1
  O  O38  1  0.61454600  0.12596500  0.54284700  1
  O  O39  1  0.88860500  0.33193900  0.20501300  1
  O  O40  1  0.79495400  0.66752900  0.76027700  1
  O  O41  1  0.79124600  0.06050400  0.20066700  1
  O  O42  1  0.88632000  0.37592800  0.53177000  1
  O  O43  1  0.54207400  0.12474500  0.96765100  1
  O  O44  1  0.91642500  0.19501000  0.30296800  1
  O  O45  1  0.96878500  0.12453700  0.61314900  1
  O  O46  1  0.95678900  0.37421900  0.88633600  1
  O  O47  1  0.97516000  0.19462500  0.91574000  1
loop_
_geom_bond_atom_site_label_1
_geom_bond_atom_site_label_2
_geom_bond_distance
_geom_bond_site_symmetry_2
Li1 O4 2.044968 1_555
Li1 O2 2.047112 1_555
Li1 O10 2.065956 1_555
Li2 O45 2.044509 1_555
Li2 O43 2.053680 1_555
Li2 O38 2.057506 1_555
Li3 O1 2.045063 1_555
Li3 O5 2.054409 1_555
Li3 O9 2.057997 1_555
Li4 O42 2.044615 1_555
Li4 O46 2.046545 1_555
Li4 O37 2.065547 1_555
H0 O2 1.023963 1_556
H0 O8 1.610782 1_555
H1 O4 1.022141 1_655
H1 O40 1.613644 1_555
H2 O45 1.023241 1_455
H2 O15 1.614987 1_555
H3 O9 1.024192 1_555
H3 O22 1.608474 1_555
H4 O10 1.023259 1_555
H4 O23 1.610294 1_555
H5 O5 1.023416 1_556
H5 O16 1.611252 1_555
H6 O43 1.023884 1_554
H6 O31 1.611513 1_555
H7 O38 1.024357 1_555
H7 O25 1.610260 1_555
H8 O37 1.023482 1_555
H8 O24 1.612018 1_555
H9 O1 1.022781 1_655
H9 O32 1.614018 1_555
H10 O42 1.022291 1_455
H10 O7 1.615587 1_555
H11 O46 1.023991 1_554
H11 O39 1.612157 1_555
O0 P7 1.538368 1_455
O0 V5 2.029040 1_454
O1 P7 1.642694 1_455
O2 P6 1.642898 1_455
O3 P0 1.535628 1_555
O3 V5 2.027596 1_455
O4 P1 1.641827 1_555
O5 P9 1.641279 1_554
O6 P0 1.513193 1_555
O6 V0 1.992639 1_555
O7 P3 1.543358 1_555
O7 V1 2.030271 1_555
O8 P1 1.542816 1_555
O8 V5 2.023000 1_455
O9 P0 1.641088 1_555
O10 P8 1.639843 1_554
O11 P2 1.516863 1_555
O11 V0 1.986104 1_544
O12 P1 1.519165 1_555
O12 V3 1.995253 1_555
O13 P1 1.531695 1_555
O13 V4 2.029836 1_555
O14 P9 1.537304 1_554
O14 V5 2.027940 1_554
O15 P2 1.540358 1_555
O15 V2 2.033961 1_555
O16 P0 1.544517 1_555
O16 V4 2.033043 1_555
O17 P5 1.535315 1_555
O17 V2 2.021411 1_555
O18 P3 1.517694 1_555
O18 V3 1.984255 1_555
O19 P4 1.513790 1_555
O19 V0 2.004370 1_545
O20 P5 1.517904 1_555
O20 V3 2.001548 1_555
O21 P3 1.533989 1_555
O21 V2 2.023877 1_555
O22 P7 1.542213 1_555
O22 V4 2.030950 1_555
O23 P6 1.541261 1_555
O23 V5 2.034247 1_554
O24 P5 1.541727 1_555
O24 V1 2.034020 1_556
O25 P4 1.540971 1_555
O25 V2 2.031613 1_555
O26 P8 1.534785 1_555
O26 V4 2.025820 1_555
O27 P6 1.518527 1_555
O27 V3 2.002636 1_555
O28 P7 1.514665 1_555
O28 V0 2.003745 1_654
O29 P8 1.517758 1_555
O29 V3 1.984180 1_555
O30 P6 1.535020 1_555
O30 V4 2.023007 1_555
O31 P11 1.543845 1_555
O31 V2 2.034849 1_555
O32 P9 1.540532 1_555
O32 V4 2.031588 1_555
O33 P10 1.533177 1_555
O33 V2 2.024847 1_555
O34 P2 1.537383 1_556
O34 V1 2.026325 1_556
O35 P10 1.518902 1_555
O35 V3 1.993868 1_555
O36 P9 1.516694 1_555
O36 V0 1.986780 1_655
O37 P3 1.640531 1_556
O38 P11 1.641330 1_555
O39 P10 1.542427 1_555
O39 V1 2.023346 1_655
O40 P8 1.542791 1_555
O40 V5 2.030254 1_555
O41 P11 1.513059 1_555
O41 V0 1.993296 1_644
O42 P10 1.641929 1_555
O43 P2 1.641232 1_556
O44 P11 1.535576 1_555
O44 V1 2.025428 1_655
O45 P4 1.642880 1_655
O46 P5 1.643222 1_655
O47 P4 1.539482 1_655
O47 V1 2.027119 1_656
