# generated using pymatgen
data_Li2CuPO4
_symmetry_space_group_name_H-M   'P 1'
_cell_length_a   5.06661000
_cell_length_b   5.38333713
_cell_length_c   6.24296184
_cell_angle_alpha   90.25287112
_cell_angle_beta   90.00471732
_cell_angle_gamma   90.31066505
_symmetry_Int_Tables_number   1
_chemical_formula_structural   Li2CuPO4
_chemical_formula_sum   'Li4 Cu2 P2 O8'
_cell_volume   170.27430580
_cell_formula_units_Z   2
loop_
 _symmetry_equiv_pos_site_id
 _symmetry_equiv_pos_as_xyz
  1  'x, y, z'
loop_
 _atom_site_type_symbol
 _atom_site_label
 _atom_site_symmetry_multiplicity
 _atom_site_fract_x
 _atom_site_fract_y
 _atom_site_fract_z
 _atom_site_occupancy
  Li  Li0  1  0.99516400  0.67293500  0.24577400  1
  Li  Li1  1  0.49391000  0.32750600  0.25020700  1
  Li  Li2  1  0.99385300  0.15479100  0.50054000  1
  Li  Li3  1  0.49346300  0.32468200  0.74966000  1
  Cu  Cu0  1  0.48896400  0.81971300  0.99836100  1
  Cu  Cu1  1  0.99305200  0.66458500  0.76138300  1
  P  P0  1  0.99791000  0.18349400  0.00493400  1
  P  P1  1  0.49991600  0.83124200  0.49423100  1
  O  O0  1  0.90792000  0.90555700  0.01477600  1
  O  O1  1  0.30484200  0.19965300  0.00043000  1
  O  O2  1  0.89039000  0.31987200  0.20684100  1
  O  O3  1  0.38813100  0.68464000  0.29604600  1
  O  O4  1  0.80768500  0.83023100  0.48729600  1
  O  O5  1  0.39467200  0.10029500  0.49865600  1
  O  O6  1  0.40764900  0.68313800  0.69803400  1
  O  O7  1  0.88507200  0.29766700  0.79283100  1
loop_
_geom_bond_atom_site_label_1
_geom_bond_atom_site_label_2
_geom_bond_distance
_geom_bond_site_symmetry_2
Li0 O0 1.965993 1_555
Li0 O4 1.972434 1_555
Li0 O2 1.984524 1_555
Li0 O3 2.016173 1_655
Li1 O1 1.950912 1_555
Li1 O3 2.017859 1_555
Li1 O2 2.027606 1_555
Li1 O5 2.040808 1_555
Li2 O4 1.982459 1_545
Li2 O5 2.053475 1_655
Li2 O7 2.053652 1_555
Li2 O2 2.108493 1_555
Li3 O1 1.954442 1_556
Li3 O6 2.007780 1_555
Li3 O7 2.008469 1_555
Li3 O5 2.035142 1_555
Cu0 O6 2.051848 1_555
Cu0 O3 2.061936 1_556
Cu0 O0 2.172273 1_556
Cu0 O1 2.252625 1_566
Cu1 O7 2.056979 1_555
Cu1 O0 2.087919 1_556
Cu1 O6 2.139421 1_655
Cu1 O4 2.151149 1_555
O0 P0 1.563259 1_565
O1 P0 1.557328 1_455
O2 P0 1.555926 1_555
O3 P1 1.568713 1_555
O4 P1 1.559988 1_555
O5 P1 1.546284 1_545
O6 P1 1.574186 1_555
O7 P0 1.571262 1_556
