# generated using pymatgen
data_Dy14(PbS8)3
_symmetry_space_group_name_H-M   'P 1'
_cell_length_a   7.30276800
_cell_length_b   7.30666425
_cell_length_c   18.39162881
_cell_angle_alpha   97.60428927
_cell_angle_beta   97.40969848
_cell_angle_gamma   109.90957332
_symmetry_Int_Tables_number   1
_chemical_formula_structural   Dy14(PbS8)3
_chemical_formula_sum   'Dy14 Pb3 S24'
_cell_volume   898.50084401
_cell_formula_units_Z   1
loop_
 _symmetry_equiv_pos_site_id
 _symmetry_equiv_pos_as_xyz
  1  'x, y, z'
loop_
 _atom_site_type_symbol
 _atom_site_label
 _atom_site_symmetry_multiplicity
 _atom_site_fract_x
 _atom_site_fract_y
 _atom_site_fract_z
 _atom_site_occupancy
  Dy  Dy0  1  0.10328200  0.73907700  0.05317100  1
  Dy  Dy1  1  0.76053700  0.11530900  0.21267400  1
  Dy  Dy2  1  0.12392900  0.74694500  0.37132900  1
  Dy  Dy3  1  0.36169100  0.23881500  0.12811700  1
  Dy  Dy4  1  0.12034800  0.75135300  0.71049600  1
  Dy  Dy5  1  0.76254400  0.13536600  0.53659900  1
  Dy  Dy6  1  0.25373600  0.39514900  0.28802300  1
  Dy  Dy7  1  0.39843800  0.26516600  0.44665400  1
  Dy  Dy8  1  0.62037100  0.86945700  0.08749900  1
  Dy  Dy9  1  0.74492200  0.11228000  0.87940500  1
  Dy  Dy10  1  0.25199800  0.38272400  0.62166200  1
  Dy  Dy11  1  0.38173500  0.25181500  0.79029200  1
  Dy  Dy12  1  0.62862600  0.88361500  0.41374100  1
  Dy  Dy13  1  0.24155900  0.37705200  0.96190500  1
  Pb  Pb0  1  0.87866500  0.63239200  0.58138500  1
  Pb  Pb1  1  0.87195500  0.62256800  0.91856400  1
  Pb  Pb2  1  0.62452800  0.87493700  0.74886400  1
  S  S0  1  0.62770700  0.49552300  0.16489900  1
  S  S1  1  0.14787800  0.49557100  0.16737500  1
  S  S2  1  0.63746600  0.50649100  0.49412500  1
  S  S3  1  0.00794500  0.01483700  0.28775000  1
  S  S4  1  0.15097400  0.50208000  0.49539900  1
  S  S5  1  0.49722200  0.65094500  0.33276100  1
  S  S6  1  0.00078000  0.00630500  0.11597200  1
  S  S7  1  0.85525600  0.35053600  0.05349200  1
  S  S8  1  0.62855200  0.47674000  0.83890900  1
  S  S9  1  0.37627400  0.87103100  0.21337100  1
  S  S10  1  0.02323900  0.01612500  0.61357300  1
  S  S11  1  0.13752300  0.48203200  0.83308800  1
  S  S12  1  0.48048500  0.63605400  0.66791000  1
  S  S13  1  0.00955300  0.01837200  0.44700100  1
  S  S14  1  0.85354800  0.34976400  0.38367900  1
  S  S15  1  0.48866200  0.12420700  0.33528700  1
  S  S16  1  0.37736800  0.86981200  0.54324600  1
  S  S17  1  0.99593300  0.00582000  0.95774900  1
  S  S18  1  0.48444700  0.63726200  0.00453800  1
  S  S19  1  0.01595700  0.01722100  0.78245500  1
  S  S20  1  0.86450400  0.36271600  0.71744000  1
  S  S21  1  0.49286500  0.14664100  0.66064200  1
  S  S22  1  0.35492500  0.86387200  0.88597200  1
  S  S23  1  0.48843500  0.11997900  0.00545400  1
loop_
_geom_bond_atom_site_label_1
_geom_bond_atom_site_label_2
_geom_bond_distance
_geom_bond_site_symmetry_2
Dy0 S6 2.515628 1_565
Dy0 Pb1 2.662969 1_454
Dy0 S7 2.800960 1_455
Dy0 S1 2.981713 1_555
Dy0 S17 3.013984 1_464
Dy0 S9 3.163697 1_555
Dy0 S18 3.313316 1_555
Dy0 S23 3.518344 1_565
Dy1 S3 2.497602 1_655
Dy1 S9 2.768507 1_545
Dy1 S6 2.873514 1_655
Dy1 S15 3.199279 1_555
Dy1 S14 3.243148 1_555
Dy1 S1 3.504698 1_655
Dy2 S13 2.695423 1_565
Dy2 S3 2.915704 1_565
Dy2 S14 2.959694 1_455
Dy2 S4 3.106736 1_555
Dy2 S5 3.177425 1_555
Dy2 S16 3.291863 1_555
Dy2 S15 3.327285 1_565
Dy3 S0 2.143183 1_555
Dy3 S6 2.565314 1_555
Dy3 S23 2.695840 1_555
Dy3 S1 2.899345 1_555
Dy3 S9 3.310330 1_545
Dy4 S19 2.587435 1_565
Dy4 Pb0 2.614777 1_455
Dy4 S20 2.848642 1_455
Dy4 S10 2.990685 1_565
Dy4 S11 3.200165 1_555
Dy4 S22 3.307341 1_555
Dy4 S21 3.546285 1_565
Dy5 S10 2.673693 1_655
Dy5 S16 2.850648 1_545
Dy5 S13 2.853790 1_655
Dy5 S21 3.210842 1_555
Dy5 S2 3.295652 1_555
Dy5 S20 3.381198 1_555
Dy5 Pb0 3.393644 1_555
Dy5 S4 3.422749 1_655
Dy5 S14 3.427045 1_555
Dy6 S5 2.069817 1_555
Dy6 S1 2.536607 1_555
Dy6 S3 2.746012 1_555
Dy6 S15 3.162601 1_555
Dy6 S14 3.544905 1_455
Dy7 S2 2.005393 1_555
Dy7 S15 2.437635 1_555
Dy7 S13 2.799436 1_555
Dy7 S4 3.033789 1_555
Dy7 S16 3.556715 1_545
Dy8 S18 1.992228 1_555
Dy8 S6 2.566294 1_665
Dy8 S23 2.848351 1_565
Dy8 S9 3.099712 1_555
Dy9 S17 2.574468 1_555
Dy9 Pb2 2.619109 1_545
Dy9 S22 2.836621 1_545
Dy9 S19 3.016327 1_655
Dy9 S23 3.169074 1_556
Dy9 S11 3.494027 1_655
Dy10 S12 2.011858 1_555
Dy10 S10 2.602053 1_555
Dy10 S4 2.688802 1_555
Dy10 S21 2.941453 1_555
Dy10 S20 3.493428 1_455
Dy11 S8 1.981702 1_555
Dy11 S19 2.609801 1_555
Dy11 S21 2.715475 1_555
Dy11 S11 2.946939 1_555
Dy11 S22 3.492953 1_545
Dy12 S5 1.969604 1_555
Dy12 Dy5 2.559384 1_565
Dy12 S13 2.572625 1_665
Dy12 S15 2.780589 1_565
Dy12 S16 3.180366 1_555
Dy12 S14 3.395116 1_565
Dy13 S18 2.079835 1_556
Dy13 S17 2.678968 1_455
Dy13 S11 2.681808 1_555
Dy13 S23 3.122848 1_556
Pb0 S2 2.073880 1_555
Pb0 S10 2.590338 1_665
Pb0 S4 3.010689 1_655
Pb1 S8 2.016521 1_555
Pb1 S17 2.598380 1_565
Pb1 S11 3.000400 1_655
Pb2 S12 2.006888 1_555
Pb2 S19 2.642748 1_665
Pb2 S21 3.041142 1_565
S1 S7 2.606196 1_455
S1 S9 2.632315 1_555
S11 S20 2.547706 1_455
S11 S22 2.667826 1_555
S14 S15 2.572522 1_555
S14 S4 2.602978 1_655
S15 S9 2.552796 1_545
S16 S21 2.583981 1_565
S16 S4 2.588564 1_555
S20 S21 2.619836 1_555
S22 S23 2.529360 1_566
S23 S7 2.591645 1_555
