# generated using pymatgen
data_Li4V3Cr5O16
_symmetry_space_group_name_H-M   'P 1'
_cell_length_a   5.86856319
_cell_length_b   5.86856319
_cell_length_c   9.53334495
_cell_angle_alpha   89.30137812
_cell_angle_beta   89.30137812
_cell_angle_gamma   60.52454028
_symmetry_Int_Tables_number   1
_chemical_formula_structural   Li4V3Cr5O16
_chemical_formula_sum   'Li4 V3 Cr5 O16'
_cell_volume   285.80351425
_cell_formula_units_Z   1
loop_
 _symmetry_equiv_pos_site_id
 _symmetry_equiv_pos_as_xyz
  1  'x, y, z'
loop_
 _atom_site_type_symbol
 _atom_site_label
 _atom_site_symmetry_multiplicity
 _atom_site_fract_x
 _atom_site_fract_y
 _atom_site_fract_z
 _atom_site_occupancy
  Li  Li0  1  0.66809000  0.66809000  0.89159100  1
  Li  Li1  1  0.00245400  0.00245400  0.99697700  1
  Li  Li2  1  0.99812700  0.99812700  0.49570600  1
  Li  Li3  1  0.33670600  0.33670600  0.39129400  1
  V  V0  1  0.66301800  0.16800900  0.71275000  1
  V  V1  1  0.83044000  0.83044000  0.21117700  1
  V  V2  1  0.16800900  0.66301800  0.71275000  1
  Cr  Cr0  1  0.83257200  0.33918300  0.21398400  1
  Cr  Cr1  1  0.66498500  0.66498500  0.48375800  1
  Cr  Cr2  1  0.33918300  0.83257200  0.21398400  1
  Cr  Cr3  1  0.16983700  0.16983700  0.71418800  1
  Cr  Cr4  1  0.33090600  0.33090600  0.98457700  1
  O  O0  1  0.82513700  0.32425300  0.60369200  1
  O  O1  1  0.52099700  0.52099700  0.34065500  1
  O  O2  1  0.67769600  0.67769600  0.10311500  1
  O  O3  1  0.99354500  0.99354500  0.30992700  1
  O  O4  1  0.99677100  0.99677100  0.81255300  1
  O  O5  1  0.32425300  0.82513700  0.60369200  1
  O  O6  1  0.96012300  0.53343800  0.33853100  1
  O  O7  1  0.53343800  0.96012300  0.33853100  1
  O  O8  1  0.16198600  0.16198600  0.09795900  1
  O  O9  1  0.83295400  0.83295400  0.60784000  1
  O  O10  1  0.48865300  0.04111200  0.83781200  1
  O  O11  1  0.04111200  0.48865300  0.83781200  1
  O  O12  1  0.33722700  0.33722700  0.60203000  1
  O  O13  1  0.67217600  0.14958100  0.10658500  1
  O  O14  1  0.48178800  0.48178800  0.83850300  1
  O  O15  1  0.14958100  0.67217600  0.10658500  1
loop_
_geom_bond_atom_site_label_1
_geom_bond_atom_site_label_2
_geom_bond_distance
_geom_bond_site_symmetry_2
Li0 O14 1.962194 1_555
Li0 O10 1.970064 1_565
Li0 O11 1.970064 1_655
Li0 O2 2.020254 1_556
Li1 O4 1.759934 1_445
Li1 O8 1.893766 1_556
Li1 O15 1.979875 1_546
Li1 O13 1.979875 1_456
Li2 O3 1.772360 1_555
Li2 O0 1.965676 1_565
Li2 O5 1.965676 1_655
Li2 O9 1.973854 1_555
Li3 O1 1.923038 1_555
Li3 O6 1.993003 1_455
Li3 O7 1.993003 1_545
Li3 O12 2.009100 1_555
Cr0 O3 1.983311 1_545
Cr0 O1 1.999442 1_555
Cr0 O8 2.009880 1_655
Cr0 O2 2.021161 1_555
Cr0 O6 2.040627 1_555
Cr0 O13 2.062627 1_555
Cr1 O1 2.011999 1_555
Cr1 O6 2.040707 1_555
Cr1 O7 2.040707 1_555
Cr1 O5 2.076065 1_555
Cr1 O0 2.076065 1_555
Cr1 O9 2.087042 1_555
Cr2 O3 1.983311 1_455
Cr2 O1 1.999442 1_555
Cr2 O8 2.009880 1_565
Cr2 O2 2.021161 1_555
Cr2 O7 2.040627 1_555
Cr2 O15 2.062627 1_555
Cr3 O4 1.977662 1_445
Cr3 O12 1.992906 1_555
Cr3 O10 2.025190 1_555
Cr3 O11 2.025190 1_555
Cr3 O0 2.060977 1_455
Cr3 O5 2.060977 1_545
Cr4 O8 2.012117 1_556
Cr4 O10 2.045490 1_555
Cr4 O11 2.045490 1_555
Cr4 O14 2.053967 1_555
Cr4 O15 2.103722 1_556
Cr4 O13 2.103722 1_556
O0 V0 1.907357 1_555
O2 V1 1.871922 1_555
O3 V1 1.914236 1_555
O4 V2 1.958719 1_655
O4 V0 1.958719 1_565
O5 V2 1.907357 1_555
O6 V1 1.938233 1_555
O7 V1 1.938233 1_555
O9 V0 1.988724 1_565
O9 V2 1.988724 1_655
O10 V0 1.929162 1_555
O11 V2 1.929162 1_555
O12 V0 1.977613 1_555
O12 V2 1.977613 1_555
O13 V1 1.905204 1_545
O14 V0 2.013621 1_555
O14 V2 2.013621 1_555
O15 V1 1.905204 1_455
