# generated using pymatgen
data_Li2SbSO4F3
_symmetry_space_group_name_H-M   'P 1'
_cell_length_a   5.13408300
_cell_length_b   8.73965200
_cell_length_c   13.01814700
_cell_angle_alpha   90.00000000
_cell_angle_beta   90.00000000
_cell_angle_gamma   90.00000000
_symmetry_Int_Tables_number   1
_chemical_formula_structural   Li2SbSO4F3
_chemical_formula_sum   'Li8 Sb4 S4 O16 F12'
_cell_volume   584.12554155
_cell_formula_units_Z   4
loop_
 _symmetry_equiv_pos_site_id
 _symmetry_equiv_pos_as_xyz
  1  'x, y, z'
loop_
 _atom_site_type_symbol
 _atom_site_label
 _atom_site_symmetry_multiplicity
 _atom_site_fract_x
 _atom_site_fract_y
 _atom_site_fract_z
 _atom_site_occupancy
  Li  Li0  1  0.95856300  0.49263500  0.72109600  1
  Li  Li1  1  0.00410000  0.28943300  0.44606200  1
  Li  Li2  1  0.49590000  0.71056700  0.94606200  1
  Li  Li3  1  0.54143700  0.50736500  0.22109600  1
  Li  Li4  1  0.45856300  0.00736500  0.27890400  1
  Li  Li5  1  0.50410000  0.21056700  0.55393800  1
  Li  Li6  1  0.99590000  0.78943300  0.05393800  1
  Li  Li7  1  0.04143700  0.99263500  0.77890400  1
  Sb  Sb0  1  0.05680800  0.94222300  0.52609900  1
  Sb  Sb1  1  0.44319200  0.05777700  0.02609900  1
  Sb  Sb2  1  0.55680800  0.55777700  0.47390100  1
  Sb  Sb3  1  0.94319200  0.44222300  0.97390100  1
  S  S0  1  0.97284800  0.20369800  0.17780300  1
  S  S1  1  0.52715200  0.79630200  0.67780300  1
  S  S2  1  0.47284800  0.29630200  0.82219700  1
  S  S3  1  0.02715200  0.70369800  0.32219700  1
  O  O0  1  0.02350400  0.11875200  0.07604500  1
  O  O1  1  0.15573800  0.85289700  0.35363100  1
  O  O2  1  0.20713400  0.61335600  0.25944600  1
  O  O3  1  0.22502100  0.23035000  0.22909100  1
  O  O4  1  0.27497900  0.76965000  0.72909100  1
  O  O5  1  0.29286600  0.38664400  0.75944600  1
  O  O6  1  0.34426200  0.14710300  0.85363100  1
  O  O7  1  0.47649600  0.88124800  0.57604500  1
  O  O8  1  0.52350400  0.38124800  0.92395500  1
  O  O9  1  0.65573800  0.64710300  0.64636900  1
  O  O10  1  0.70713400  0.88664400  0.74055400  1
  O  O11  1  0.72502100  0.26965000  0.77090900  1
  O  O12  1  0.77497900  0.73035000  0.27090900  1
  O  O13  1  0.79286600  0.11335600  0.24055400  1
  O  O14  1  0.84426200  0.35289700  0.14636900  1
  O  O15  1  0.97649600  0.61875200  0.42395500  1
  F  F0  1  0.11014000  0.08675100  0.64639200  1
  F  F1  1  0.20803300  0.61141800  0.01953100  1
  F  F2  1  0.27532100  0.10192100  0.45513500  1
  F  F3  1  0.22467900  0.89807900  0.95513500  1
  F  F4  1  0.29196700  0.38858200  0.51953100  1
  F  F5  1  0.38986000  0.91324900  0.14639200  1
  F  F6  1  0.61014000  0.41324900  0.35360800  1
  F  F7  1  0.70803300  0.88858200  0.98046900  1
  F  F8  1  0.77532100  0.39807900  0.54486500  1
  F  F9  1  0.72467900  0.60192100  0.04486500  1
  F  F10  1  0.79196700  0.11141800  0.48046900  1
  F  F11  1  0.88986000  0.58675100  0.85360800  1
loop_
_geom_bond_atom_site_label_1
_geom_bond_atom_site_label_2
_geom_bond_distance
_geom_bond_site_symmetry_2
Li0 O5 2.013242 1_655
Li0 O9 2.277285 1_555
Li0 O11 2.378243 1_555
Li3 O2 2.013242 1_555
Li3 O14 2.277285 1_555
Li3 O12 2.378243 1_555
Li4 O13 2.013242 1_555
Li4 O1 2.277285 1_545
Li4 O3 2.378243 1_555
Li7 O10 2.013242 1_455
Li7 O6 2.277285 1_565
Li7 O4 2.378243 1_555
O0 S0 1.540657 1_455
O0 Sb1 2.312907 1_555
O1 S3 1.517748 1_555
O1 Sb0 2.430724 1_555
O2 S3 1.464440 1_555
O3 S0 1.475207 1_455
O4 S1 1.475207 1_555
O5 S2 1.464440 1_555
O6 S2 1.517748 1_555
O6 Sb1 2.430724 1_556
O7 S1 1.540657 1_555
O7 Sb0 2.312907 1_555
O8 S2 1.540657 1_555
O8 Sb3 2.312907 1_555
O9 S1 1.517748 1_555
O9 Sb2 2.430724 1_555
O10 S1 1.464440 1_555
O11 S2 1.475207 1_555
O12 S3 1.475207 1_655
O13 S0 1.464440 1_555
O14 S0 1.517748 1_555
O14 Sb3 2.430724 1_554
O15 S3 1.540657 1_655
O15 Sb2 2.312907 1_555
F0 Li7 1.943405 1_545
F0 Sb0 2.030465 1_545
F1 Li6 1.951221 1_455
F1 Li2 1.962120 1_554
F1 Sb3 2.094816 1_454
F2 Li5 1.983838 1_555
F2 Sb0 2.014948 1_545
F2 Li1 2.153731 1_555
F3 Li6 1.983838 1_456
F3 Sb1 2.014948 1_566
F3 Li2 2.153731 1_555
F4 Li5 1.951221 1_555
F4 Li1 1.962120 1_555
F4 Sb2 2.094816 1_555
F5 Li4 1.943405 1_565
F5 Sb1 2.030465 1_565
F6 Li3 1.943405 1_555
F6 Sb2 2.030465 1_555
F7 Li2 1.951221 1_555
F7 Li6 1.962120 1_556
F7 Sb1 2.094816 1_566
F8 Li1 1.983838 1_655
F8 Sb2 2.014948 1_555
F8 Li5 2.153731 1_555
F9 Li2 1.983838 1_554
F9 Sb3 2.014948 1_554
F9 Li6 2.153731 1_555
F10 Li1 1.951221 1_655
F10 Li5 1.962120 1_555
F10 Sb0 2.094816 1_645
F11 Li0 1.943405 1_555
F11 Sb3 2.030465 1_555
