# generated using pymatgen
data_CuH2N2O7
_symmetry_space_group_name_H-M   'P 1'
_cell_length_a   9.57668400
_cell_length_b   6.46872200
_cell_length_c   10.86318899
_cell_angle_alpha   76.69988495
_cell_angle_beta   90.00000000
_cell_angle_gamma   90.00000000
_symmetry_Int_Tables_number   1
_chemical_formula_structural   CuH2N2O7
_chemical_formula_sum   'Cu4 H8 N8 O28'
_cell_volume   654.91275043
_cell_formula_units_Z   4
loop_
 _symmetry_equiv_pos_site_id
 _symmetry_equiv_pos_as_xyz
  1  'x, y, z'
loop_
 _atom_site_type_symbol
 _atom_site_label
 _atom_site_symmetry_multiplicity
 _atom_site_fract_x
 _atom_site_fract_y
 _atom_site_fract_z
 _atom_site_occupancy
  Cu  Cu0  1  0.08279900  0.02559200  0.78405000  1
  Cu  Cu1  1  0.58279900  0.97440800  0.71595000  1
  Cu  Cu2  1  0.91720100  0.97440800  0.21595000  1
  Cu  Cu3  1  0.41720100  0.02559200  0.28405000  1
  H  H0  1  0.85780100  0.05038300  0.40367500  1
  H  H1  1  0.35780100  0.94961700  0.09632500  1
  H  H2  1  0.14219900  0.94961700  0.59632500  1
  H  H3  1  0.64219900  0.05038300  0.90367500  1
  H  H4  1  0.38951400  0.79556200  0.66163800  1
  H  H5  1  0.88951400  0.20443800  0.83836200  1
  H  H6  1  0.61048600  0.20443800  0.33836200  1
  H  H7  1  0.11048600  0.79556200  0.16163800  1
  N  N0  1  0.79390400  0.41114100  0.01367100  1
  N  N1  1  0.29390400  0.58885900  0.48632900  1
  N  N2  1  0.20609600  0.58885900  0.98632900  1
  N  N3  1  0.70609600  0.41114100  0.51367100  1
  N  N4  1  0.36752800  0.10580000  0.85460200  1
  N  N5  1  0.86752800  0.89420000  0.64539800  1
  N  N6  1  0.63247200  0.89420000  0.14539800  1
  N  N7  1  0.13247200  0.10580000  0.35460200  1
  O  O0  1  0.89771100  0.28236400  0.04756700  1
  O  O1  1  0.39771100  0.71763600  0.45243300  1
  O  O2  1  0.10228900  0.71763600  0.95243300  1
  O  O3  1  0.60228900  0.28236400  0.54756700  1
  O  O4  1  0.79264600  0.52368200  0.90468100  1
  O  O5  1  0.29264600  0.47631800  0.59531900  1
  O  O6  1  0.20735400  0.47631800  0.09531900  1
  O  O7  1  0.70735400  0.52368200  0.40468100  1
  O  O8  1  0.69898500  0.41360100  0.09177900  1
  O  O9  1  0.19898500  0.58639900  0.40822100  1
  O  O10  1  0.30101500  0.58639900  0.90822100  1
  O  O11  1  0.80101500  0.41360100  0.59177900  1
  O  O12  1  0.39840500  0.06869100  0.74929500  1
  O  O13  1  0.89840500  0.93130900  0.75070500  1
  O  O14  1  0.60159500  0.93130900  0.25070500  1
  O  O15  1  0.10159500  0.06869100  0.24929500  1
  O  O16  1  0.23987400  0.11963700  0.87641600  1
  O  O17  1  0.73987400  0.88036300  0.62358400  1
  O  O18  1  0.76012600  0.88036300  0.12358400  1
  O  O19  1  0.26012600  0.11963700  0.37641600  1
  O  O20  1  0.67179400  0.12085100  0.81807700  1
  O  O21  1  0.17179400  0.87914900  0.68192300  1
  O  O22  1  0.32820600  0.87914900  0.18192300  1
  O  O23  1  0.82820600  0.12085100  0.31807700  1
  O  O24  1  0.99090300  0.21465100  0.85335400  1
  O  O25  1  0.49090300  0.78534900  0.64664600  1
  O  O26  1  0.00909700  0.78534900  0.14664600  1
  O  O27  1  0.50909700  0.21465100  0.35335400  1
loop_
_geom_bond_atom_site_label_1
_geom_bond_atom_site_label_2
_geom_bond_distance
_geom_bond_site_symmetry_2
Cu0 O24 1.805711 1_455
Cu0 O21 1.827053 1_545
Cu0 O13 1.929552 1_445
Cu0 O16 1.980032 1_555
Cu0 O2 2.381713 1_545
Cu1 O25 1.805711 1_555
Cu1 O20 1.827053 1_565
Cu1 O12 1.929552 1_565
Cu1 O17 1.980032 1_555
Cu1 O3 2.381713 1_565
Cu2 O26 1.805711 1_655
Cu2 O23 1.827053 1_565
Cu2 O15 1.929552 1_665
Cu2 O18 1.980032 1_555
Cu2 O0 2.381713 1_565
Cu3 O27 1.805711 1_555
Cu3 O22 1.827053 1_545
Cu3 O14 1.929552 1_545
Cu3 O19 1.980032 1_555
Cu3 O1 2.381713 1_545
H0 O23 0.978645 1_555
H1 O22 0.978645 1_555
H2 O21 0.978645 1_555
H3 O20 0.978645 1_555
H4 O25 0.989253 1_555
H5 O24 0.989253 1_555
H6 O27 0.989253 1_555
H7 O26 0.989253 1_555
N0 O4 1.239093 1_554
N0 O8 1.246081 1_555
N0 O0 1.294863 1_555
N1 O5 1.239093 1_555
N1 O9 1.246081 1_555
N1 O1 1.294863 1_555
N2 O6 1.239093 1_556
N2 O10 1.246081 1_555
N2 O2 1.294863 1_555
N3 O7 1.239093 1_555
N3 O11 1.246081 1_555
N3 O3 1.294863 1_555
N4 O16 1.252372 1_555
N4 O12 1.257011 1_555
N5 O17 1.252372 1_555
N5 O13 1.257011 1_555
N6 O18 1.252372 1_555
N6 O14 1.257011 1_555
N7 O19 1.252372 1_555
N7 O15 1.257011 1_555
