# generated using pymatgen
data_Li4Mn3Co3(SnO8)2
_symmetry_space_group_name_H-M   'P 1'
_cell_length_a   5.87245363
_cell_length_b   10.17847603
_cell_length_c   9.68961969
_cell_angle_alpha   89.53790753
_cell_angle_beta   89.38560800
_cell_angle_gamma   89.33879021
_symmetry_Int_Tables_number   1
_chemical_formula_structural   Li4Mn3Co3(SnO8)2
_chemical_formula_sum   'Li8 Mn6 Co6 Sn4 O32'
_cell_volume   579.08391166
_cell_formula_units_Z   2
loop_
 _symmetry_equiv_pos_site_id
 _symmetry_equiv_pos_as_xyz
  1  'x, y, z'
loop_
 _atom_site_type_symbol
 _atom_site_label
 _atom_site_symmetry_multiplicity
 _atom_site_fract_x
 _atom_site_fract_y
 _atom_site_fract_z
 _atom_site_occupancy
  Li  Li0  1  0.50650500  0.17089200  0.89913500  1
  Li  Li1  1  0.00775400  0.67063600  0.89775300  1
  Li  Li2  1  0.00178500  0.99893000  0.99412800  1
  Li  Li3  1  0.50203700  0.49654800  0.99488500  1
  Li  Li4  1  0.00041500  0.99652000  0.49254400  1
  Li  Li5  1  0.49914500  0.49579400  0.49301900  1
  Li  Li6  1  0.49914300  0.83344300  0.39426800  1
  Li  Li7  1  0.99978900  0.33212000  0.39221500  1
  Mn  Mn0  1  0.24631000  0.58250700  0.21568000  1
  Mn  Mn1  1  0.74464600  0.91562800  0.71525000  1
  Mn  Mn2  1  0.24601900  0.41482700  0.71671500  1
  Mn  Mn3  1  0.74314900  0.08767900  0.21395700  1
  Mn  Mn4  1  0.50322600  0.66828100  0.71470700  1
  Mn  Mn5  1  0.00133100  0.16830900  0.71408700  1
  Co  Co0  1  0.49611000  0.32862300  0.21493900  1
  Co  Co1  1  0.00006700  0.83210100  0.21456200  1
  Co  Co2  1  0.25387400  0.08751800  0.21440200  1
  Co  Co3  1  0.75296300  0.58264300  0.21400900  1
  Co  Co4  1  0.25445100  0.91479000  0.71417000  1
  Co  Co5  1  0.75528100  0.41407900  0.71535900  1
  Sn  Sn0  1  0.49178800  0.16472400  0.48918600  1
  Sn  Sn1  1  0.99819100  0.66238600  0.49221800  1
  Sn  Sn2  1  0.49646300  0.83699400  0.99197500  1
  Sn  Sn3  1  0.00040800  0.33529200  0.99323600  1
  O  O0  1  0.50010600  0.33857100  0.60571700  1
  O  O1  1  0.00068100  0.83878000  0.60497700  1
  O  O2  1  0.27406900  0.24102200  0.33024100  1
  O  O3  1  0.77855800  0.74154600  0.33788100  1
  O  O4  1  0.49971700  0.16788100  0.11225000  1
  O  O5  1  0.01433400  0.66298100  0.10753700  1
  O  O6  1  0.99724100  0.00815400  0.30709100  1
  O  O7  1  0.49132700  0.49444100  0.30715400  1
  O  O8  1  0.99641600  0.99913600  0.80637700  1
  O  O9  1  0.49786700  0.49895100  0.80745800  1
  O  O10  1  0.23334500  0.07574900  0.59807700  1
  O  O11  1  0.73528800  0.57444300  0.59855800  1
  O  O12  1  0.72080000  0.24215500  0.33199900  1
  O  O13  1  0.23399800  0.73276700  0.33881700  1
  O  O14  1  0.49755100  0.01759300  0.32856600  1
  O  O15  1  0.01033800  0.51438300  0.33506100  1
  O  O16  1  0.23730400  0.92439200  0.10495200  1
  O  O17  1  0.73655800  0.41958500  0.10427400  1
  O  O18  1  0.74632000  0.06884700  0.59325700  1
  O  O19  1  0.24920000  0.56818000  0.59824600  1
  O  O20  1  0.49505600  0.98664500  0.82753400  1
  O  O21  1  0.99584800  0.48526500  0.82970100  1
  O  O22  1  0.27655400  0.76393500  0.83637100  1
  O  O23  1  0.77775000  0.26223300  0.83765100  1
  O  O24  1  0.50466000  0.83348000  0.61223600  1
  O  O25  1  0.00512800  0.33355600  0.61271900  1
  O  O26  1  0.75222100  0.92834300  0.10179400  1
  O  O27  1  0.26161600  0.42210200  0.10415400  1
  O  O28  1  0.74343100  0.77299600  0.84535600  1
  O  O29  1  0.24422400  0.27171800  0.84559800  1
  O  O30  1  0.49282100  0.66044200  0.10021800  1
  O  O31  1  0.99912200  0.15876400  0.10145500  1
loop_
_geom_bond_atom_site_label_1
_geom_bond_atom_site_label_2
_geom_bond_distance
_geom_bond_site_symmetry_2
Li0 O29 1.914860 1_555
Li0 O23 1.939441 1_555
Li0 O20 2.006915 1_545
Li0 O4 2.064948 1_556
Li1 O28 1.929689 1_455
Li1 O22 1.937171 1_555
Li1 O21 2.005938 1_455
Li1 O5 2.034356 1_556
Li2 O8 1.819831 1_455
Li2 O16 1.906863 1_556
Li2 O26 1.931792 1_456
Li2 O31 1.937732 1_466
Li3 O9 1.816488 1_555
Li3 O17 1.904432 1_556
Li3 O27 1.915262 1_556
Li3 O30 1.962571 1_556
Li4 O6 1.800195 1_465
Li4 O10 1.906782 1_565
Li4 O18 1.917246 1_465
Li4 O1 1.932985 1_555
Li5 O7 1.802206 1_555
Li5 O11 1.918047 1_555
Li5 O19 1.921436 1_555
Li5 O0 1.930068 1_555
Li6 O3 1.954335 1_555
Li6 O13 1.956225 1_555
Li6 O14 1.974616 1_565
Li6 O24 2.112626 1_555
Li7 O15 1.933260 1_655
Li7 O2 1.941260 1_655
Li7 O12 1.981639 1_555
Li7 O25 2.137336 1_655
Mn0 O5 1.901510 1_555
Mn0 O7 1.908970 1_555
Mn0 O15 1.927177 1_555
Mn0 O13 1.947559 1_555
Mn0 O27 1.965833 1_555
Mn0 O30 1.988469 1_555
Mn1 O28 1.915082 1_555
Mn1 O24 1.937122 1_555
Mn1 O8 1.938358 1_555
Mn1 O18 1.949333 1_565
Mn1 O20 1.951551 1_555
Mn1 O1 1.991504 1_655
Mn2 O29 1.911069 1_555
Mn2 O19 1.930230 1_555
Mn2 O9 1.939814 1_555
Mn2 O25 1.942134 1_555
Mn2 O21 1.955697 1_455
Mn2 O0 1.984420 1_555
Mn3 O4 1.916119 1_555
Mn3 O6 1.919712 1_555
Mn3 O14 1.949073 1_555
Mn3 O12 1.954152 1_555
Mn3 O26 1.959447 1_545
Mn3 O31 1.987120 1_555
Mn4 O9 1.937751 1_555
Mn4 O24 1.945894 1_555
Mn4 O11 1.997609 1_555
Mn4 O22 2.016062 1_555
Mn4 O19 2.150953 1_555
Mn4 O28 2.196166 1_555
Mn5 O8 1.934244 1_445
Mn5 O25 1.941132 1_555
Mn5 O10 1.990519 1_555
Mn5 O23 2.006766 1_455
Mn5 O18 2.174856 1_455
Mn5 O29 2.204879 1_555
Co0 O7 1.915844 1_555
Co0 O4 1.921553 1_555
Co0 O2 1.929504 1_555
Co0 O12 1.947147 1_555
Co0 O27 1.984665 1_555
Co0 O17 1.995627 1_555
Co1 O16 1.983364 1_555
Co1 O3 1.986462 1_455
Co1 O6 2.010003 1_465
Co1 O5 2.017230 1_555
Co1 O26 2.062976 1_455
Co1 O13 2.083939 1_555
Co2 O4 1.927858 1_555
Co2 O6 1.928156 1_455
Co2 O2 1.936635 1_555
Co2 O14 1.943117 1_555
Co2 O16 1.981256 1_545
Co2 O31 1.989715 1_455
Co3 O17 1.982111 1_555
Co3 O7 1.992547 1_555
Co3 O5 2.017498 1_655
Co3 O3 2.029776 1_555
Co3 O15 2.035575 1_655
Co3 O30 2.042223 1_555
Co4 O22 1.935445 1_555
Co4 O24 1.942538 1_555
Co4 O8 1.945442 1_455
Co4 O20 1.951412 1_555
Co4 O10 1.983284 1_565
Co4 O1 2.003119 1_555
Co5 O25 1.941051 1_655
Co5 O23 1.944071 1_555
Co5 O9 1.944507 1_555
Co5 O21 1.954077 1_555
Co5 O11 1.981809 1_555
Co5 O0 2.009665 1_555
O0 Sn0 2.108049 1_555
O1 Sn1 2.109526 1_455
O2 Sn0 2.147035 1_555
O3 Sn1 2.132395 1_555
O10 Sn0 2.053970 1_555
O11 Sn1 2.056562 1_555
O12 Sn0 2.170427 1_555
O13 Sn1 2.145162 1_455
O14 Sn0 2.168264 1_555
O15 Sn1 2.150709 1_455
O16 Sn2 2.062677 1_554
O17 Sn3 2.059844 1_654
O18 Sn0 2.046027 1_555
O19 Sn1 2.032655 1_455
O20 Sn2 2.195436 1_555
O21 Sn3 2.191527 1_655
O22 Sn2 2.139161 1_555
O23 Sn3 2.149000 1_655
O26 Sn2 2.082086 1_554
O27 Sn3 2.090630 1_554
O28 Sn2 2.120140 1_555
O29 Sn3 2.113026 1_555
O30 Sn2 2.073604 1_554
O31 Sn3 2.073117 1_654
