# generated using pymatgen
data_LiCoPO4
_symmetry_space_group_name_H-M   'P 1'
_cell_length_a   8.47811032
_cell_length_b   8.47811032
_cell_length_c   7.48655800
_cell_angle_alpha   90.00000000
_cell_angle_beta   90.00000000
_cell_angle_gamma   120.00000246
_symmetry_Int_Tables_number   1
_chemical_formula_structural   LiCoPO4
_chemical_formula_sum   'Li6 Co6 P6 O24'
_cell_volume   466.02685182
_cell_formula_units_Z   6
loop_
 _symmetry_equiv_pos_site_id
 _symmetry_equiv_pos_as_xyz
  1  'x, y, z'
loop_
 _atom_site_type_symbol
 _atom_site_label
 _atom_site_symmetry_multiplicity
 _atom_site_fract_x
 _atom_site_fract_y
 _atom_site_fract_z
 _atom_site_occupancy
  Li  Li0  1  0.01309200  0.68218600  0.40743700  1
  Li  Li1  1  0.31781400  0.33090600  0.40743700  1
  Li  Li2  1  0.66909400  0.98690800  0.40743700  1
  Li  Li3  1  0.33090600  0.01309200  0.90743700  1
  Li  Li4  1  0.68218600  0.66909400  0.90743700  1
  Li  Li5  1  0.98690800  0.31781400  0.90743700  1
  Co  Co0  1  0.33333300  0.66666700  0.29705700  1
  Co  Co1  1  0.33333300  0.66666700  0.69965600  1
  Co  Co2  1  0.00000000  0.00000000  0.13957900  1
  Co  Co3  1  0.00000000  0.00000000  0.63957900  1
  Co  Co4  1  0.66666700  0.33333300  0.79705700  1
  Co  Co5  1  0.66666700  0.33333300  0.19965600  1
  P  P0  1  0.03651900  0.67593000  0.00564800  1
  P  P1  1  0.32407000  0.36058900  0.00564800  1
  P  P2  1  0.63941100  0.96348100  0.00564800  1
  P  P3  1  0.36058900  0.03651900  0.50564800  1
  P  P4  1  0.67593000  0.63941100  0.50564800  1
  P  P5  1  0.96348100  0.32407000  0.50564800  1
  O  O0  1  0.14615100  0.92999400  0.50361200  1
  O  O1  1  0.14388000  0.72206100  0.18270100  1
  O  O2  1  0.17295600  0.74305400  0.84849600  1
  O  O3  1  0.10560800  0.52792500  0.49635000  1
  O  O4  1  0.42231700  0.89439200  0.49635000  1
  O  O5  1  0.07000600  0.21615700  0.50361200  1
  O  O6  1  0.25694600  0.42990100  0.84849600  1
  O  O7  1  0.27793900  0.42181900  0.18270100  1
  O  O8  1  0.21615700  0.14615100  0.00361200  1
  O  O9  1  0.57818100  0.85612000  0.18270100  1
  O  O10  1  0.57009900  0.82704400  0.84849600  1
  O  O11  1  0.47207500  0.57768300  0.49635000  1
  O  O12  1  0.52792500  0.42231700  0.99635000  1
  O  O13  1  0.42990100  0.17295600  0.34849600  1
  O  O14  1  0.42181900  0.14388000  0.68270100  1
  O  O15  1  0.78384300  0.85384900  0.50361200  1
  O  O16  1  0.72206100  0.57818100  0.68270100  1
  O  O17  1  0.74305400  0.57009900  0.34849600  1
  O  O18  1  0.92999400  0.78384300  0.00361200  1
  O  O19  1  0.57768300  0.10560800  0.99635000  1
  O  O20  1  0.89439200  0.47207500  0.99635000  1
  O  O21  1  0.82704400  0.25694600  0.34849600  1
  O  O22  1  0.85612000  0.27793900  0.68270100  1
  O  O23  1  0.85384900  0.07000600  0.00361200  1
loop_
_geom_bond_atom_site_label_1
_geom_bond_atom_site_label_2
_geom_bond_distance
_geom_bond_site_symmetry_2
Li0 O3 1.947969 1_555
Li0 O1 1.949294 1_555
Li0 O0 1.958297 1_555
Li0 O17 2.040483 1_455
Li1 O11 1.947969 1_555
Li1 O7 1.949294 1_555
Li1 O5 1.958297 1_555
Li1 O13 2.040475 1_555
Li2 O4 1.947969 1_555
Li2 O9 1.949294 1_555
Li2 O15 1.958297 1_555
Li2 O21 2.040482 1_565
Li3 O19 1.947969 1_555
Li3 O14 1.949294 1_555
Li3 O8 1.958297 1_556
Li3 O2 2.040482 1_545
Li4 O12 1.947969 1_555
Li4 O16 1.949294 1_555
Li4 O18 1.958297 1_556
Li4 O10 2.040475 1_555
Li5 O20 1.947969 1_555
Li5 O22 1.949294 1_555
Li5 O23 1.958297 1_556
Li5 O6 2.040483 1_655
Co0 O1 2.070687 1_555
Co0 O9 2.070692 1_555
Co0 O7 2.070694 1_555
Co0 O4 2.250832 1_555
Co0 O3 2.250833 1_555
Co0 O11 2.250838 1_555
Co1 O2 2.095328 1_555
Co1 O10 2.095339 1_555
Co1 O6 2.095342 1_555
Co1 O4 2.270859 1_555
Co1 O3 2.270859 1_555
Co1 O11 2.270864 1_555
Co2 O8 1.912900 1_555
Co2 O18 1.912900 1_445
Co2 O23 1.912900 1_455
Co3 O15 1.912900 1_445
Co3 O5 1.912900 1_555
Co3 O0 1.912900 1_545
Co4 O22 2.070687 1_555
Co4 O14 2.070692 1_555
Co4 O16 2.070694 1_555
Co4 O19 2.250832 1_555
Co4 O20 2.250833 1_555
Co4 O12 2.250838 1_555
Co5 O21 2.095328 1_555
Co5 O13 2.095339 1_555
Co5 O17 2.095342 1_555
Co5 O19 2.270859 1_554
Co5 O20 2.270859 1_554
Co5 O12 2.270864 1_554
O0 P3 1.574544 1_565
O1 P0 1.543524 1_555
O2 P0 1.545257 1_556
O3 P5 1.536646 1_455
O4 P3 1.536646 1_565
O5 P5 1.574544 1_455
O6 P1 1.545252 1_556
O7 P1 1.543524 1_555
O8 P1 1.574544 1_555
O9 P2 1.543524 1_555
O10 P2 1.545256 1_556
O11 P4 1.536646 1_555
O12 P1 1.536646 1_556
O13 P3 1.545256 1_555
O14 P3 1.543524 1_555
O15 P4 1.574544 1_555
O16 P4 1.543524 1_555
O17 P4 1.545252 1_555
O18 P0 1.574544 1_655
O19 P2 1.536646 1_546
O20 P0 1.536646 1_656
O21 P5 1.545257 1_555
O22 P5 1.543524 1_555
O23 P2 1.574544 1_545
