# generated using pymatgen
data_Fe5(OF4)2
_symmetry_space_group_name_H-M   'P 1'
_cell_length_a   4.82949286
_cell_length_b   7.99048115
_cell_length_c   10.13046064
_cell_angle_alpha   108.44675091
_cell_angle_beta   91.07943981
_cell_angle_gamma   89.22670777
_symmetry_Int_Tables_number   1
_chemical_formula_structural   Fe5(OF4)2
_chemical_formula_sum   'Fe10 O4 F16'
_cell_volume   370.76974971
_cell_formula_units_Z   2
loop_
 _symmetry_equiv_pos_site_id
 _symmetry_equiv_pos_as_xyz
  1  'x, y, z'
loop_
 _atom_site_type_symbol
 _atom_site_label
 _atom_site_symmetry_multiplicity
 _atom_site_fract_x
 _atom_site_fract_y
 _atom_site_fract_z
 _atom_site_occupancy
  Fe  Fe0  1  0.49910300  0.30048800  0.89953800  1
  Fe  Fe1  1  0.51647500  0.10926100  0.29379800  1
  Fe  Fe2  1  0.49682800  0.90201400  0.70463700  1
  Fe  Fe3  1  0.50108400  0.68329100  0.09690700  1
  Fe  Fe4  1  0.51985400  0.50790300  0.51149900  1
  Fe  Fe5  1  0.97113300  0.60978700  0.79185200  1
  Fe  Fe6  1  0.03724400  0.19487800  0.61286400  1
  Fe  Fe7  1  0.99964200  0.79924300  0.39472300  1
  Fe  Fe8  1  0.95245700  0.38634000  0.18505200  1
  Fe  Fe9  1  0.99529000  0.00333300  0.01454600  1
  O  O0  1  0.82349500  0.17361500  0.19021500  1
  O  O1  1  0.68401700  0.65888600  0.66632800  1
  O  O2  1  0.69399400  0.44537100  0.05971200  1
  O  O3  1  0.30968300  0.15019900  0.72962400  1
  F  F0  1  0.79981100  0.75968400  0.98108000  1
  F  F1  1  0.81555600  0.97597700  0.57992600  1
  F  F2  1  0.79238800  0.54975700  0.37189200  1
  F  F3  1  0.80287300  0.34851500  0.76821700  1
  F  F4  1  0.70675400  0.07314700  0.88370000  1
  F  F5  1  0.68863600  0.85762100  0.28465500  1
  F  F6  1  0.70892200  0.27263400  0.49292900  1
  F  F7  1  0.29457800  0.72880100  0.51076600  1
  F  F8  1  0.31306400  0.36092600  0.33556500  1
  F  F9  1  0.30773400  0.92811800  0.12611300  1
  F  F10  1  0.28883200  0.52620300  0.90406800  1
  F  F11  1  0.19961900  0.42791900  0.61004700  1
  F  F12  1  0.19706400  0.05358800  0.42894800  1
  F  F13  1  0.19593300  0.84432800  0.82978700  1
  F  F14  1  0.21330000  0.24768100  0.02658300  1
  F  F15  1  0.17463800  0.62049200  0.21442500  1
loop_
_geom_bond_atom_site_label_1
_geom_bond_atom_site_label_2
_geom_bond_distance
_geom_bond_site_symmetry_2
Fe0 O2 1.908442 1_556
Fe0 O3 1.975868 1_555
Fe1 O0 1.996190 1_555
Fe2 O1 2.056863 1_555
Fe2 O3 2.110988 1_565
Fe3 O2 2.033769 1_555
Fe4 O1 1.823635 1_555
Fe5 O1 1.981982 1_555
Fe6 O3 1.858399 1_555
Fe8 O0 1.834651 1_555
Fe8 O2 1.922574 1_555
Fe9 O0 2.049266 1_555
F0 Fe3 2.090848 1_556
F0 Fe5 2.091392 1_555
F0 Fe9 2.101513 1_566
F1 Fe6 1.996191 1_665
F1 Fe7 2.158003 1_555
F1 Fe2 2.210245 1_555
F2 Fe4 2.055668 1_555
F2 Fe8 2.085436 1_555
F2 Fe7 2.186961 1_555
F3 Fe6 2.017926 1_655
F3 Fe0 2.116873 1_555
F3 Fe5 2.190487 1_555
F4 Fe0 2.025782 1_555
F4 Fe9 2.094611 1_556
F4 Fe2 2.141646 1_545
F5 Fe7 1.990995 1_555
F5 Fe1 2.140752 1_565
F5 Fe3 2.161207 1_555
F6 Fe4 2.034588 1_555
F6 Fe6 2.180598 1_655
F6 Fe1 2.221030 1_555
F7 Fe7 2.015363 1_455
F7 Fe4 2.062862 1_555
F7 Fe2 2.229560 1_555
F8 Fe4 2.047719 1_555
F8 Fe1 2.147505 1_555
F8 Fe8 2.342114 1_455
F9 Fe9 2.063170 1_465
F9 Fe3 2.093167 1_555
F9 Fe1 2.101387 1_565
F10 Fe0 2.046011 1_555
F10 Fe5 2.116514 1_455
F10 Fe3 2.202303 1_556
F11 Fe6 2.038898 1_555
F11 Fe4 2.070185 1_555
F11 Fe5 2.249683 1_455
F12 Fe6 2.010268 1_555
F12 Fe7 2.180274 1_445
F12 Fe1 2.221610 1_555
F13 Fe2 2.094965 1_555
F13 Fe5 2.102859 1_455
F13 Fe9 2.141638 1_466
F14 Fe0 2.041075 1_554
F14 Fe8 2.074752 1_455
F14 Fe9 2.198976 1_455
F15 Fe8 2.104838 1_455
F15 Fe7 2.113064 1_455
F15 Fe3 2.150538 1_555
