# generated using pymatgen
data_Li4MnCr3(PO4)4
_symmetry_space_group_name_H-M   'P 1'
_cell_length_a   6.31625300
_cell_length_b   4.77923600
_cell_length_c   10.32667475
_cell_angle_alpha   89.35086502
_cell_angle_beta   90.00000000
_cell_angle_gamma   90.00000000
_symmetry_Int_Tables_number   1
_chemical_formula_structural   Li4MnCr3(PO4)4
_chemical_formula_sum   'Li4 Mn1 Cr3 P4 O16'
_cell_volume   311.70991704
_cell_formula_units_Z   1
loop_
 _symmetry_equiv_pos_site_id
 _symmetry_equiv_pos_as_xyz
  1  'x, y, z'
loop_
 _atom_site_type_symbol
 _atom_site_label
 _atom_site_symmetry_multiplicity
 _atom_site_fract_x
 _atom_site_fract_y
 _atom_site_fract_z
 _atom_site_occupancy
  Li  Li0  1  0.25080100  0.99645200  0.99795400  1
  Li  Li1  1  0.74919900  0.99645200  0.99795400  1
  Li  Li2  1  0.74838700  0.50025700  0.50128500  1
  Li  Li3  1  0.25161300  0.50025700  0.50128500  1
  Mn  Mn0  1  0.50000000  0.96950600  0.28195000  1
  Cr  Cr0  1  0.50000000  0.54865800  0.78446900  1
  Cr  Cr1  1  0.00000000  0.44952100  0.21545900  1
  Cr  Cr2  1  0.00000000  0.05079400  0.71500100  1
  P  P0  1  0.00000000  0.91571100  0.40625800  1
  P  P1  1  0.00000000  0.58010600  0.90576300  1
  P  P2  1  0.50000000  0.41716000  0.09090100  1
  P  P3  1  0.50000000  0.08618600  0.59619300  1
  O  O0  1  0.00000000  0.80674500  0.54951700  1
  O  O1  1  0.19890100  0.78480500  0.34043900  1
  O  O2  1  0.80109900  0.78480500  0.34043900  1
  O  O3  1  0.50000000  0.76134700  0.60167900  1
  O  O4  1  0.50000000  0.73960000  0.09370500  1
  O  O5  1  0.19761300  0.71324500  0.83931400  1
  O  O6  1  0.80238700  0.71324500  0.83931400  1
  O  O7  1  0.00000000  0.68894500  0.04818500  1
  O  O8  1  0.50000000  0.29958600  0.95037300  1
  O  O9  1  0.69539500  0.28298200  0.16111300  1
  O  O10  1  0.30460500  0.28298200  0.16111300  1
  O  O11  1  0.00000000  0.25578300  0.89903300  1
  O  O12  1  0.00000000  0.24002400  0.39775200  1
  O  O13  1  0.69754300  0.21379600  0.66404700  1
  O  O14  1  0.30245700  0.21379600  0.66404700  1
  O  O15  1  0.50000000  0.20725500  0.45545700  1
loop_
_geom_bond_atom_site_label_1
_geom_bond_atom_site_label_2
_geom_bond_distance
_geom_bond_site_symmetry_2
Li0 O5 2.163072 1_555
Li0 O8 2.191269 1_565
Li0 O10 2.209495 1_566
Li0 O7 2.218357 1_556
Li0 O4 2.221392 1_556
Li0 O11 2.249532 1_565
Li1 O6 2.163072 1_555
Li1 O8 2.191269 1_565
Li1 O9 2.209495 1_566
Li1 O7 2.218357 1_656
Li1 O4 2.221392 1_556
Li1 O11 2.249532 1_665
Li2 O15 2.158996 1_555
Li2 O2 2.160554 1_555
Li2 O13 2.179538 1_555
Li2 O0 2.221690 1_655
Li2 O3 2.263302 1_555
Li2 O12 2.290363 1_655
Li3 O15 2.158996 1_555
Li3 O1 2.160554 1_555
Li3 O14 2.179538 1_555
Li3 O0 2.221690 1_555
Li3 O3 2.263302 1_555
Li3 O12 2.290363 1_555
Mn0 O15 2.132506 1_565
Mn0 O2 2.179186 1_555
Mn0 O1 2.179186 1_555
Mn0 O4 2.243797 1_555
Mn0 O9 2.298358 1_565
Mn0 O10 2.298358 1_565
Cr0 O8 2.075081 1_555
Cr0 O3 2.133743 1_555
Cr0 O6 2.144184 1_555
Cr0 O5 2.144184 1_555
Cr0 O13 2.389476 1_555
Cr0 O14 2.389476 1_555
Cr1 O7 2.061167 1_555
Cr1 O12 2.122145 1_555
Cr1 O9 2.158753 1_455
Cr1 O10 2.158753 1_555
Cr1 O1 2.420451 1_555
Cr1 O2 2.420451 1_455
Cr2 O0 2.079883 1_545
Cr2 O14 2.126987 1_555
Cr2 O13 2.126987 1_455
Cr2 O11 2.147940 1_555
Cr2 O5 2.400312 1_545
Cr2 O6 2.400312 1_445
O0 P0 1.562799 1_555
O1 P0 1.562479 1_555
O2 P0 1.562479 1_655
O3 P3 1.552874 1_565
O4 P2 1.541617 1_555
O5 P1 1.556853 1_555
O6 P1 1.556853 1_655
O7 P1 1.565567 1_554
O8 P2 1.562104 1_556
O9 P2 1.565106 1_555
O10 P2 1.565106 1_555
O11 P1 1.552360 1_555
O12 P0 1.551461 1_545
O13 P3 1.558672 1_555
O14 P3 1.558672 1_555
O15 P3 1.558180 1_555
