# generated using pymatgen
data_Li4CrFe2Ni3(PO4)6
_symmetry_space_group_name_H-M   'P 1'
_cell_length_a   8.34261600
_cell_length_b   8.41821365
_cell_length_c   8.42257643
_cell_angle_alpha   63.42160272
_cell_angle_beta   63.77132889
_cell_angle_gamma   63.84411355
_symmetry_Int_Tables_number   1
_chemical_formula_structural   Li4CrFe2Ni3(PO4)6
_chemical_formula_sum   'Li4 Cr1 Fe2 Ni3 P6 O24'
_cell_volume   452.23218347
_cell_formula_units_Z   1
loop_
 _symmetry_equiv_pos_site_id
 _symmetry_equiv_pos_as_xyz
  1  'x, y, z'
loop_
 _atom_site_type_symbol
 _atom_site_label
 _atom_site_symmetry_multiplicity
 _atom_site_fract_x
 _atom_site_fract_y
 _atom_site_fract_z
 _atom_site_occupancy
  Li  Li0  1  0.75074600  0.14419400  0.35459400  1
  Li  Li1  1  0.26727600  0.85426200  0.64513300  1
  Li  Li2  1  0.64419900  0.26622200  0.85633600  1
  Li  Li3  1  0.85675600  0.64285800  0.26909900  1
  Cr  Cr0  1  0.85671600  0.85268900  0.85561200  1
  Fe  Fe0  1  0.01426000  0.00231200  0.99755500  1
  Fe  Fe1  1  0.48834400  0.50050000  0.49917700  1
  Ni  Ni0  1  0.14220400  0.14740300  0.14623000  1
  Ni  Ni1  1  0.35553600  0.35296900  0.35024300  1
  Ni  Ni2  1  0.64697900  0.64743500  0.65045600  1
  P  P0  1  0.05195200  0.74777300  0.45033400  1
  P  P1  1  0.44764600  0.05094700  0.75149100  1
  P  P2  1  0.74905100  0.44919600  0.05083100  1
  P  P3  1  0.24705300  0.54452000  0.95227600  1
  P  P4  1  0.55206200  0.95277900  0.24872600  1
  P  P5  1  0.94464600  0.24657500  0.54407200  1
  O  O0  1  0.10960300  0.30519600  0.50100700  1
  O  O1  1  0.31478600  0.51743400  0.10484800  1
  O  O2  1  0.05715800  0.90750400  0.26247100  1
  O  O3  1  0.54520100  0.10113000  0.31163100  1
  O  O4  1  0.01496200  0.81217200  0.61192000  1
  O  O5  1  0.25202200  0.59762100  0.43678000  1
  O  O6  1  0.25498400  0.07511000  0.90011700  1
  O  O7  1  0.45237300  0.24474100  0.58872500  1
  O  O8  1  0.17569000  0.39449900  0.98658500  1
  O  O9  1  0.60098600  0.43217900  0.25419200  1
  O  O10  1  0.09809800  0.74937600  0.92353700  1
  O  O11  1  0.38897200  0.00262600  0.18725000  1
  O  O12  1  0.61079300  0.01025600  0.81860400  1
  O  O13  1  0.89493900  0.25118800  0.07779300  1
  O  O14  1  0.39968300  0.56745800  0.74774800  1
  O  O15  1  0.81477800  0.60974600  0.01360000  1
  O  O16  1  0.56642500  0.75000200  0.40240500  1
  O  O17  1  0.75369600  0.92011900  0.09596200  1
  O  O18  1  0.74402500  0.40276700  0.57019900  1
  O  O19  1  0.95762500  0.18031500  0.39757900  1
  O  O20  1  0.47531000  0.89863700  0.68058500  1
  O  O21  1  0.92440500  0.09571900  0.74721800  1
  O  O22  1  0.67831300  0.47581000  0.89895400  1
  O  O23  1  0.89974300  0.67276000  0.48112600  1
loop_
_geom_bond_atom_site_label_1
_geom_bond_atom_site_label_2
_geom_bond_distance
_geom_bond_site_symmetry_2
Li0 O13 2.071449 1_555
Li0 O19 2.077456 1_555
Li0 O3 2.101611 1_555
Li0 O9 2.140650 1_555
Li0 O7 2.469532 1_555
Li0 O2 2.499287 1_645
Li1 O20 2.090526 1_555
Li1 O14 2.102785 1_555
Li1 O10 2.142598 1_555
Li1 O4 2.429275 1_555
Li1 O16 2.518526 1_555
Li2 O18 2.100945 1_555
Li2 O22 2.102979 1_555
Li2 O21 2.166270 1_555
Li2 O12 2.458096 1_555
Li2 O14 2.537991 1_555
Li3 O23 2.104528 1_555
Li3 O16 2.125368 1_555
Li3 O17 2.146343 1_555
Li3 O15 2.473913 1_555
Li3 O18 2.526246 1_555
Cr0 O15 1.964637 1_556
Cr0 O12 1.965163 1_565
Cr0 O4 1.976456 1_655
Cr0 O10 2.041552 1_655
Cr0 O17 2.054076 1_556
Cr0 O21 2.056568 1_565
Fe0 O6 2.064073 1_555
Fe0 O2 2.145720 1_546
Fe0 O13 2.161184 1_456
Fe0 O10 2.213839 1_545
Fe0 O21 2.240479 1_455
Fe0 O17 2.260834 1_446
Fe1 O5 1.985416 1_555
Fe1 O7 2.052053 1_555
Fe1 O9 2.083995 1_555
Fe1 O14 2.137207 1_555
Fe1 O16 2.169143 1_555
Fe1 O18 2.173673 1_555
Ni0 O11 1.970481 1_555
Ni0 O8 1.972395 1_554
Ni0 O19 2.048642 1_455
Ni0 O13 2.088614 1_455
Ni0 O2 2.102466 1_545
Ni0 O6 2.110135 1_554
Ni1 O1 1.987406 1_555
Ni1 O0 1.987805 1_555
Ni1 O3 2.075728 1_555
Ni1 O9 2.132831 1_555
Ni1 O7 2.159900 1_555
Ni1 O5 2.176593 1_555
Ni2 O22 1.995256 1_555
Ni2 O23 1.998028 1_555
Ni2 O20 2.018966 1_555
Ni2 O14 2.148884 1_555
Ni2 O18 2.155601 1_555
Ni2 O16 2.162699 1_555
O0 P5 1.505419 1_455
O1 P3 1.512845 1_554
O2 P0 1.549343 1_555
O3 P4 1.531626 1_545
O4 P0 1.543657 1_555
O5 P0 1.580298 1_555
O6 P1 1.533946 1_555
O7 P1 1.596880 1_555
O8 P3 1.489004 1_555
O9 P2 1.595752 1_555
O10 P3 1.606175 1_555
O11 P4 1.490081 1_545
O12 P1 1.544384 1_555
O13 P2 1.558309 1_555
O14 P3 1.614448 1_555
O15 P2 1.532258 1_555
O16 P4 1.607253 1_555
O17 P4 1.598890 1_555
O18 P5 1.603664 1_555
O19 P5 1.513194 1_555
O20 P1 1.535057 1_565
O21 P5 1.599409 1_555
O22 P2 1.526121 1_556
O23 P0 1.532243 1_655
