# generated using pymatgen
data_Li7Ti12Fe5O32
_symmetry_space_group_name_H-M   'P 1'
_cell_length_a   8.52466385
_cell_length_b   8.52466385
_cell_length_c   8.52466396
_cell_angle_alpha   90.09597416
_cell_angle_beta   90.09597416
_cell_angle_gamma   90.09597382
_symmetry_Int_Tables_number   1
_chemical_formula_structural   Li7Ti12Fe5O32
_chemical_formula_sum   'Li7 Ti12 Fe5 O32'
_cell_volume   619.48381371
_cell_formula_units_Z   1
loop_
 _symmetry_equiv_pos_site_id
 _symmetry_equiv_pos_as_xyz
  1  'x, y, z'
loop_
 _atom_site_type_symbol
 _atom_site_label
 _atom_site_symmetry_multiplicity
 _atom_site_fract_x
 _atom_site_fract_y
 _atom_site_fract_z
 _atom_site_occupancy
  Li  Li0  1  0.49838300  0.99760500  0.50174800  1
  Li  Li1  1  0.62531900  0.87527300  0.12501300  1
  Li  Li2  1  0.12501300  0.62531900  0.87527300  1
  Li  Li3  1  0.99760500  0.50174800  0.49838300  1
  Li  Li4  1  0.50174800  0.49838300  0.99760500  1
  Li  Li5  1  0.37600400  0.37600400  0.37600400  1
  Li  Li6  1  0.87527300  0.12501300  0.62531900  1
  Ti  Ti0  1  0.86451900  0.87724300  0.37484300  1
  Ti  Ti1  1  0.12303800  0.86814100  0.62727500  1
  Ti  Ti2  1  0.37484300  0.86451900  0.87724300  1
  Ti  Ti3  1  0.86814100  0.62727500  0.12303800  1
  Ti  Ti4  1  0.62137400  0.62757000  0.36776000  1
  Ti  Ti5  1  0.36776000  0.62137400  0.62757000  1
  Ti  Ti6  1  0.13623600  0.38321400  0.12700400  1
  Ti  Ti7  1  0.87724300  0.37484300  0.86451900  1
  Ti  Ti8  1  0.62757000  0.36776000  0.62137400  1
  Ti  Ti9  1  0.12700400  0.13623600  0.38321400  1
  Ti  Ti10  1  0.38321400  0.12700400  0.13623600  1
  Ti  Ti11  1  0.62727500  0.12303800  0.86814100  1
  Fe  Fe0  1  0.25080300  0.75128700  0.25052700  1
  Fe  Fe1  1  0.74921200  0.74921200  0.74921200  1
  Fe  Fe2  1  0.75128700  0.25052700  0.25080300  1
  Fe  Fe3  1  0.25052700  0.25080300  0.75128700  1
  Fe  Fe4  1  0.99991400  0.99991400  0.99991400  1
  O  O0  1  0.60852800  0.89351700  0.87420900  1
  O  O1  1  0.11157200  0.88771100  0.38827100  1
  O  O2  1  0.37618800  0.89191000  0.10587900  1
  O  O3  1  0.89351700  0.87420900  0.60852800  1
  O  O4  1  0.14395700  0.87640200  0.85675600  1
  O  O5  1  0.64573300  0.85966300  0.37600700  1
  O  O6  1  0.36166200  0.86028700  0.63919300  1
  O  O7  1  0.87640200  0.85675600  0.14395700  1
  O  O8  1  0.37600700  0.64573300  0.85966300  1
  O  O9  1  0.86028700  0.63919300  0.36166200  1
  O  O10  1  0.14671500  0.64051300  0.62266500  1
  O  O11  1  0.64051300  0.62266500  0.14671500  1
  O  O12  1  0.39605600  0.62610500  0.39055900  1
  O  O13  1  0.87420900  0.60852800  0.89351700  1
  O  O14  1  0.61178700  0.61178700  0.61178700  1
  O  O15  1  0.10828800  0.60615500  0.12775100  1
  O  O16  1  0.39055900  0.39605600  0.62610500  1
  O  O17  1  0.88771100  0.38827100  0.11157200  1
  O  O18  1  0.62610500  0.39055900  0.39605600  1
  O  O19  1  0.10587900  0.37618800  0.89191000  1
  O  O20  1  0.85966300  0.37600700  0.64573300  1
  O  O21  1  0.35516100  0.35794900  0.12321400  1
  O  O22  1  0.63919300  0.36166200  0.86028700  1
  O  O23  1  0.12321400  0.35516100  0.35794900  1
  O  O24  1  0.62266500  0.14671500  0.64051300  1
  O  O25  1  0.13835200  0.13835200  0.13835200  1
  O  O26  1  0.85675600  0.14395700  0.87640200  1
  O  O27  1  0.35794900  0.12321400  0.35516100  1
  O  O28  1  0.60615500  0.12775100  0.10828800  1
  O  O29  1  0.12775100  0.10828800  0.60615500  1
  O  O30  1  0.38827100  0.11157200  0.88771100  1
  O  O31  1  0.89191000  0.10587900  0.37618800  1
loop_
_geom_bond_atom_site_label_1
_geom_bond_atom_site_label_2
_geom_bond_distance
_geom_bond_site_symmetry_2
Li0 O6 2.026348 1_555
Li0 O5 2.028492 1_555
Li0 O24 2.030702 1_565
Li0 O27 2.035930 1_565
Li1 O2 2.134712 1_555
Li1 O0 2.148480 1_554
Li1 O5 2.150775 1_555
Li1 O7 2.152292 1_555
Li1 O28 2.163677 1_565
Li1 O11 2.165714 1_555
Li2 O19 2.134712 1_555
Li2 O13 2.148480 1_455
Li2 O8 2.150775 1_555
Li2 O4 2.152292 1_555
Li2 O15 2.163677 1_556
Li2 O10 2.165714 1_555
Li3 O9 2.026348 1_555
Li3 O20 2.028492 1_555
Li3 O10 2.030702 1_655
Li3 O23 2.035930 1_655
Li4 O22 2.026348 1_555
Li4 O8 2.028492 1_555
Li4 O11 2.030702 1_556
Li4 O21 2.035930 1_556
Li5 O18 2.141956 1_555
Li5 O12 2.141956 1_555
Li5 O16 2.141956 1_555
Li5 O27 2.167160 1_555
Li5 O23 2.167160 1_555
Li5 O21 2.167160 1_555
Li6 O31 2.134712 1_555
Li6 O3 2.148480 1_545
Li6 O20 2.150775 1_555
Li6 O26 2.152292 1_555
Li6 O29 2.163677 1_655
Li6 O24 2.165714 1_555
Fe0 O15 2.021984 1_555
Fe0 O12 2.025024 1_555
Fe0 O2 2.026094 1_555
Fe0 O1 2.035862 1_555
Fe1 O0 2.022820 1_555
Fe1 O13 2.022820 1_555
Fe1 O3 2.022820 1_555
Fe1 O14 2.025699 1_555
Fe2 O28 2.021984 1_555
Fe2 O18 2.025024 1_555
Fe2 O31 2.026094 1_555
Fe2 O17 2.035862 1_555
Fe3 O29 2.021984 1_555
Fe3 O16 2.025024 1_555
Fe3 O19 2.026094 1_555
Fe3 O30 2.035862 1_555
Fe4 O26 2.027495 1_565
Fe4 O4 2.027495 1_655
Fe4 O7 2.027495 1_556
Fe4 O25 2.040631 1_666
O0 Ti11 1.963613 1_565
O0 Ti2 2.007169 1_555
O1 Ti1 2.046711 1_555
O1 Ti0 2.110691 1_455
O1 Ti9 2.122967 1_565
O2 Ti2 1.962606 1_554
O2 Ti10 2.021082 1_565
O3 Ti1 1.963613 1_655
O3 Ti0 2.007169 1_555
O4 Ti1 1.965196 1_555
O4 Ti2 1.978446 1_555
O5 Ti0 1.870882 1_555
O5 Ti4 1.990149 1_555
O6 Ti2 2.032473 1_555
O6 Ti1 2.037773 1_555
O6 Ti5 2.039650 1_555
O7 Ti3 1.965196 1_555
O7 Ti0 1.978446 1_555
O8 Ti2 1.870882 1_555
O8 Ti5 1.990149 1_555
O9 Ti0 2.032473 1_555
O9 Ti3 2.037773 1_555
O9 Ti4 2.039650 1_555
O10 Ti5 1.892055 1_555
O10 Ti1 1.951594 1_555
O11 Ti4 1.892055 1_555
O11 Ti3 1.951594 1_555
O12 Ti4 1.930914 1_555
O12 Ti5 2.035647 1_555
O13 Ti3 1.963613 1_556
O13 Ti7 2.007169 1_555
O14 Ti8 2.086548 1_555
O14 Ti5 2.086548 1_555
O14 Ti4 2.086548 1_555
O15 Ti6 1.915770 1_555
O15 Ti3 2.055706 1_455
O16 Ti5 1.930914 1_555
O16 Ti8 2.035647 1_555
O17 Ti3 2.046711 1_555
O17 Ti7 2.110691 1_554
O17 Ti6 2.122967 1_655
O18 Ti8 1.930914 1_555
O18 Ti4 2.035647 1_555
O19 Ti7 1.962606 1_455
O19 Ti6 2.021082 1_556
O20 Ti7 1.870882 1_555
O20 Ti8 1.990149 1_555
O21 Ti6 1.879332 1_555
O21 Ti10 1.986863 1_555
O22 Ti7 2.032473 1_555
O22 Ti11 2.037773 1_555
O22 Ti8 2.039650 1_555
O23 Ti9 1.879332 1_555
O23 Ti6 1.986863 1_555
O24 Ti8 1.892055 1_555
O24 Ti11 1.951595 1_555
O25 Ti10 2.089875 1_555
O25 Ti6 2.089875 1_555
O25 Ti9 2.089875 1_555
O26 Ti11 1.965196 1_555
O26 Ti7 1.978446 1_555
O27 Ti10 1.879332 1_555
O27 Ti9 1.986863 1_555
O28 Ti10 1.915770 1_555
O28 Ti11 2.055706 1_554
O29 Ti9 1.915770 1_555
O29 Ti1 2.055706 1_545
O30 Ti11 2.046711 1_555
O30 Ti2 2.110691 1_545
O30 Ti10 2.122967 1_556
O31 Ti0 1.962606 1_545
O31 Ti9 2.021082 1_655
