# generated using pymatgen
data_Li12Mn2O9
_symmetry_space_group_name_H-M   'P 1'
_cell_length_a   5.76434176
_cell_length_b   5.67437714
_cell_length_c   8.16242577
_cell_angle_alpha   87.15079601
_cell_angle_beta   92.24644125
_cell_angle_gamma   117.82057090
_symmetry_Int_Tables_number   1
_chemical_formula_structural   Li12Mn2O9
_chemical_formula_sum   'Li12 Mn2 O9'
_cell_volume   235.79471421
_cell_formula_units_Z   1
loop_
 _symmetry_equiv_pos_site_id
 _symmetry_equiv_pos_as_xyz
  1  'x, y, z'
loop_
 _atom_site_type_symbol
 _atom_site_label
 _atom_site_symmetry_multiplicity
 _atom_site_fract_x
 _atom_site_fract_y
 _atom_site_fract_z
 _atom_site_occupancy
  Li  Li0  1  0.06039300  0.70000500  0.91865800  1
  Li  Li1  1  0.28828500  0.95346800  0.58028300  1
  Li  Li2  1  0.06365500  0.34648600  0.57279200  1
  Li  Li3  1  0.03750000  0.02655800  0.26124000  1
  Li  Li4  1  0.97129400  0.99733500  0.77202500  1
  Li  Li5  1  0.32087100  0.36565000  0.91805900  1
  Li  Li6  1  0.62482100  0.68136600  0.58309400  1
  Li  Li7  1  0.37595000  0.03482100  0.08892500  1
  Li  Li8  1  0.70423300  0.71448000  0.06882500  1
  Li  Li9  1  0.92387300  0.62208800  0.40264000  1
  Li  Li10  1  0.66852900  0.06855200  0.39683000  1
  Li  Li11  1  0.93934800  0.29311300  0.07828600  1
  Mn  Mn0  1  0.33051800  0.61989000  0.27321100  1
  Mn  Mn1  1  0.66923900  0.30148700  0.75879900  1
  O  O0  1  0.29208900  0.91962900  0.34825400  1
  O  O1  1  0.99548800  0.34409700  0.32285000  1
  O  O2  1  0.03886000  0.02032400  0.00783400  1
  O  O3  1  0.32537300  0.64779600  0.03652200  1
  O  O4  1  0.33436100  0.28587400  0.68304200  1
  O  O5  1  0.68708300  0.74559500  0.32601900  1
  O  O6  1  0.67715500  0.38313900  0.97898300  1
  O  O7  1  0.95834000  0.63876500  0.66920800  1
  O  O8  1  0.70113400  0.04701400  0.63424700  1
loop_
_geom_bond_atom_site_label_1
_geom_bond_atom_site_label_2
_geom_bond_distance
_geom_bond_site_symmetry_2
Li0 O3 1.904000 1_556
Li0 O2 2.048936 1_566
Li0 O7 2.097193 1_455
Li0 O6 2.155284 1_455
Li1 O0 1.915103 1_555
Li1 O4 2.001003 1_565
Li1 O7 2.035242 1_455
Li1 O8 2.213865 1_565
Li2 O4 1.929559 1_555
Li2 O8 2.046699 1_455
Li2 O1 2.061955 1_455
Li2 O7 2.201252 1_455
Li3 O0 1.932060 1_545
Li3 O5 1.973692 1_445
Li3 O1 2.016205 1_455
Li3 O2 2.070852 1_555
Li4 O2 1.947365 1_666
Li4 O8 2.002577 1_565
Li4 O4 2.095415 1_665
Li4 O7 2.207435 1_555
Li5 O3 1.900532 1_556
Li5 O2 1.999153 1_556
Li5 O4 2.005431 1_555
Li5 O6 2.051732 1_555
Li6 O8 1.972952 1_565
Li6 O5 2.127358 1_555
Li6 O7 2.135307 1_555
Li6 O4 2.218789 1_555
Li7 O2 1.993968 1_555
Li7 O6 2.114011 1_554
Li7 O3 2.139370 1_545
Li7 O0 2.188449 1_545
Li8 O2 1.960899 1_665
Li8 O6 1.987784 1_554
Li8 O3 2.043398 1_555
Li8 O5 2.125448 1_555
Li9 O5 1.878228 1_555
Li9 O1 1.952916 1_555
Li9 O0 2.051131 1_655
Li9 O7 2.179850 1_555
Li10 O1 1.898999 1_555
Li10 O8 1.942950 1_555
Li10 O0 1.958107 1_545
Li10 O5 1.999238 1_545
Li11 O6 1.945675 1_554
Li11 O2 1.999723 1_655
Li11 O1 2.023057 1_555
Li11 O3 2.220201 1_655
Mn0 O5 1.873969 1_555
Mn0 O1 1.876211 1_455
Mn0 O3 1.930774 1_555
Mn0 O0 1.944989 1_555
Mn1 O6 1.871744 1_555
Mn1 O8 1.887018 1_555
Mn1 O4 1.966905 1_555
Mn1 O7 1.988497 1_555
