# generated using pymatgen
data_Li3MnPO5
_symmetry_space_group_name_H-M   'P 1'
_cell_length_a   5.03864900
_cell_length_b   5.50724000
_cell_length_c   16.03113100
_cell_angle_alpha   90.00000000
_cell_angle_beta   90.00000000
_cell_angle_gamma   90.00000000
_symmetry_Int_Tables_number   1
_chemical_formula_structural   Li3MnPO5
_chemical_formula_sum   'Li12 Mn4 P4 O20'
_cell_volume   444.84864475
_cell_formula_units_Z   4
loop_
 _symmetry_equiv_pos_site_id
 _symmetry_equiv_pos_as_xyz
  1  'x, y, z'
loop_
 _atom_site_type_symbol
 _atom_site_label
 _atom_site_symmetry_multiplicity
 _atom_site_fract_x
 _atom_site_fract_y
 _atom_site_fract_z
 _atom_site_occupancy
  Li  Li0  1  0.00811500  0.66228400  0.59368200  1
  Li  Li1  1  0.00811500  0.16228400  0.90631800  1
  Li  Li2  1  0.00799700  0.67030300  0.00452000  1
  Li  Li3  1  0.00799700  0.17030300  0.49548000  1
  Li  Li4  1  0.48320500  0.32724700  0.80397700  1
  Li  Li5  1  0.48320500  0.82724700  0.69602300  1
  Li  Li6  1  0.50811500  0.33771600  0.40631800  1
  Li  Li7  1  0.50811500  0.83771600  0.09368200  1
  Li  Li8  1  0.50799700  0.32969700  0.99548000  1
  Li  Li9  1  0.50799700  0.82969700  0.50452000  1
  Li  Li10  1  0.98320500  0.17275300  0.30397700  1
  Li  Li11  1  0.98320500  0.67275300  0.19602300  1
  Mn  Mn0  1  0.00869400  0.17299900  0.70026500  1
  Mn  Mn1  1  0.00869400  0.67299900  0.79973500  1
  Mn  Mn2  1  0.50869400  0.32700100  0.20026500  1
  Mn  Mn3  1  0.50869400  0.82700100  0.29973500  1
  P  P0  1  0.00097200  0.16458400  0.09681100  1
  P  P1  1  0.00097200  0.66458400  0.40318900  1
  P  P2  1  0.50097200  0.33541600  0.59681100  1
  P  P3  1  0.50097200  0.83541600  0.90318900  1
  O  O0  1  0.10366700  0.32407400  0.80919400  1
  O  O1  1  0.10366700  0.82407400  0.69080600  1
  O  O2  1  0.11260100  0.31067000  0.02131700  1
  O  O3  1  0.11260100  0.81067000  0.47868300  1
  O  O4  1  0.10459600  0.39934500  0.40228300  1
  O  O5  1  0.10459600  0.89934500  0.09771700  1
  O  O6  1  0.08347700  0.29419200  0.18045100  1
  O  O7  1  0.08347700  0.79419200  0.31954900  1
  O  O8  1  0.19047600  0.33380900  0.59137600  1
  O  O9  1  0.19047600  0.83380900  0.90862400  1
  O  O10  1  0.60366700  0.67592600  0.19080600  1
  O  O11  1  0.60366700  0.17592600  0.30919400  1
  O  O12  1  0.61260100  0.18933000  0.52131700  1
  O  O13  1  0.61260100  0.68933000  0.97868300  1
  O  O14  1  0.60459600  0.10065500  0.90228300  1
  O  O15  1  0.60459600  0.60065500  0.59771700  1
  O  O16  1  0.58347700  0.20580800  0.68045100  1
  O  O17  1  0.58347700  0.70580800  0.81954900  1
  O  O18  1  0.69047600  0.16619100  0.09137600  1
  O  O19  1  0.69047600  0.66619100  0.40862400  1
loop_
_geom_bond_atom_site_label_1
_geom_bond_atom_site_label_2
_geom_bond_distance
_geom_bond_site_symmetry_2
Li0 O1 1.857412 1_555
Li0 O8 2.029311 1_555
Li0 O15 2.062340 1_455
Li0 O3 2.084157 1_555
Li1 O0 1.857412 1_555
Li1 O9 2.029311 1_545
Li1 O14 2.062340 1_455
Li1 O2 2.084157 1_556
Li2 O9 2.004889 1_554
Li2 O5 2.014994 1_555
Li2 O13 2.037559 1_454
Li2 O2 2.067129 1_555
Li3 O8 2.004889 1_555
Li3 O4 2.014994 1_555
Li3 O12 2.037559 1_455
Li3 O3 2.067129 1_545
Li4 O0 1.914266 1_555
Li4 O14 2.101189 1_555
Li4 O16 2.150345 1_555
Li4 O17 2.159649 1_555
Li5 O1 1.914266 1_555
Li5 O15 2.101189 1_555
Li5 O17 2.150345 1_555
Li5 O16 2.159649 1_565
Li6 O11 1.857412 1_555
Li6 O19 2.029311 1_555
Li6 O4 2.062340 1_555
Li6 O12 2.084157 1_555
Li7 O10 1.857412 1_555
Li7 O18 2.029311 1_565
Li7 O5 2.062340 1_555
Li7 O13 2.084157 1_554
Li8 O18 2.004889 1_556
Li8 O14 2.014994 1_555
Li8 O2 2.037559 1_556
Li8 O13 2.067129 1_555
Li9 O19 2.004889 1_555
Li9 O15 2.014994 1_555
Li9 O3 2.037559 1_555
Li9 O12 2.067129 1_565
Li10 O11 1.914266 1_555
Li10 O4 2.101189 1_655
Li10 O6 2.150345 1_655
Li10 O7 2.159649 1_645
Li11 O10 1.914266 1_555
Li11 O5 2.101189 1_655
Li11 O7 2.150345 1_655
Li11 O6 2.159649 1_655
Mn0 O1 1.986099 1_545
Mn0 O0 1.992646 1_555
Mn0 O8 2.161117 1_555
Mn0 O16 2.173461 1_455
Mn1 O0 1.986099 1_555
Mn1 O1 1.992646 1_555
Mn1 O9 2.161117 1_555
Mn1 O17 2.173461 1_455
Mn2 O10 1.986099 1_555
Mn2 O11 1.992646 1_555
Mn2 O18 2.161117 1_555
Mn2 O6 2.173461 1_555
Mn3 O11 1.986099 1_565
Mn3 O10 1.992646 1_555
Mn3 O19 2.161117 1_555
Mn3 O7 2.173461 1_555
O2 P0 1.558315 1_555
O3 P1 1.558315 1_555
O4 P1 1.551313 1_555
O5 P0 1.551313 1_565
O6 P0 1.574854 1_555
O7 P1 1.574854 1_555
O8 P2 1.566930 1_555
O9 P3 1.566930 1_555
O12 P2 1.558315 1_555
O13 P3 1.558315 1_555
O14 P3 1.551313 1_545
O15 P2 1.551313 1_555
O16 P2 1.574854 1_555
O17 P3 1.574854 1_555
O18 P0 1.566930 1_655
O19 P1 1.566930 1_655
