# generated using pymatgen
data_Li24Mn11CrO36
_symmetry_space_group_name_H-M   'P 1'
_cell_length_a   8.66430681
_cell_length_b   8.66430681
_cell_length_c   10.16702509
_cell_angle_alpha   73.23249682
_cell_angle_beta   73.23249682
_cell_angle_gamma   59.86259578
_symmetry_Int_Tables_number   1
_chemical_formula_structural   Li24Mn11CrO36
_chemical_formula_sum   'Li24 Mn11 Cr1 O36'
_cell_volume   622.42267822
_cell_formula_units_Z   1
loop_
 _symmetry_equiv_pos_site_id
 _symmetry_equiv_pos_as_xyz
  1  'x, y, z'
loop_
 _atom_site_type_symbol
 _atom_site_label
 _atom_site_symmetry_multiplicity
 _atom_site_fract_x
 _atom_site_fract_y
 _atom_site_fract_z
 _atom_site_occupancy
  Li  Li0  1  0.17127500  0.16287000  0.25056000  1
  Li  Li1  1  0.33321500  0.99970800  0.00043700  1
  Li  Li2  1  0.17017600  0.16170000  0.74963600  1
  Li  Li3  1  0.49594000  0.83883600  0.74990900  1
  Li  Li4  1  0.50013000  0.16664300  0.74983100  1
  Li  Li5  1  0.33344600  0.99985200  0.49996300  1
  Li  Li6  1  0.49523800  0.83656100  0.24892900  1
  Li  Li7  1  0.49971400  0.16642500  0.25015600  1
  Li  Li8  1  0.83357500  0.50028600  0.74984400  1
  Li  Li9  1  0.83335700  0.49987000  0.25016900  1
  Li  Li10  1  0.83830000  0.82982400  0.25036400  1
  Li  Li11  1  0.00029200  0.66678500  0.99956300  1
  Li  Li12  1  0.83713000  0.82872500  0.74944000  1
  Li  Li13  1  0.16343900  0.50476200  0.75107100  1
  Li  Li14  1  0.16666800  0.83300600  0.75009600  1
  Li  Li15  1  0.00014800  0.66655400  0.50003700  1
  Li  Li16  1  0.16116400  0.50406000  0.25009100  1
  Li  Li17  1  0.16699400  0.83333200  0.24990400  1
  Li  Li18  1  0.50464200  0.49691900  0.25102800  1
  Li  Li19  1  0.66758600  0.33241400  0.00000000  1
  Li  Li20  1  0.50308100  0.49535800  0.74897200  1
  Li  Li21  1  0.82980100  0.17105000  0.75038600  1
  Li  Li22  1  0.66682700  0.33317300  0.50000000  1
  Li  Li23  1  0.82895000  0.17019900  0.24961400  1
  Mn  Mn0  1  0.66703600  0.66739500  0.00109100  1
  Mn  Mn1  1  0.66702600  0.99969800  0.00008800  1
  Mn  Mn2  1  0.66619900  0.66710300  0.50000000  1
  Mn  Mn3  1  0.66693900  0.99974700  0.49998700  1
  Mn  Mn4  1  0.00030200  0.33297400  0.99991200  1
  Mn  Mn5  1  0.99959700  0.00040300  0.00000000  1
  Mn  Mn6  1  0.00025300  0.33306100  0.50001300  1
  Mn  Mn7  1  0.99954800  0.00045200  0.50000000  1
  Mn  Mn8  1  0.33260500  0.33296400  0.99890900  1
  Mn  Mn9  1  0.33289700  0.33380100  0.50000000  1
  Mn  Mn10  1  0.33352500  0.66647500  0.50000000  1
  Cr  Cr0  1  0.33708700  0.66291300  0.00000000  1
  O  O0  1  0.42719200  0.09332800  0.11402500  1
  O  O1  1  0.57149600  0.59874700  0.88794600  1
  O  O2  1  0.42690100  0.09366500  0.61405200  1
  O  O3  1  0.59637900  0.90619200  0.88784800  1
  O  O4  1  0.57293700  0.59621800  0.38806800  1
  O  O5  1  0.59631600  0.90621800  0.38796700  1
  O  O6  1  0.73802000  0.76042800  0.11206100  1
  O  O7  1  0.76011000  0.42669400  0.11403100  1
  O  O8  1  0.75983900  0.07097300  0.11211900  1
  O  O9  1  0.73692800  0.76051700  0.61221700  1
  O  O10  1  0.90667200  0.57280800  0.88597500  1
  O  O11  1  0.90608600  0.92979400  0.88791800  1
  O  O12  1  0.76021500  0.42701000  0.61412600  1
  O  O13  1  0.76032900  0.07042400  0.61213000  1
  O  O14  1  0.92902700  0.24016100  0.88788100  1
  O  O15  1  0.90633500  0.57309900  0.38594800  1
  O  O16  1  0.90608200  0.92969200  0.38794300  1
  O  O17  1  0.92957600  0.23967100  0.38787000  1
  O  O18  1  0.07020600  0.09391400  0.11208200  1
  O  O19  1  0.09380800  0.40362100  0.11215200  1
  O  O20  1  0.09359200  0.76151100  0.11421300  1
  O  O21  1  0.07030800  0.09391800  0.61205700  1
  O  O22  1  0.23957200  0.26198000  0.88793900  1
  O  O23  1  0.23848900  0.90640800  0.88578700  1
  O  O24  1  0.09378200  0.40368400  0.61203300  1
  O  O25  1  0.09352600  0.76044900  0.61388600  1
  O  O26  1  0.26268500  0.57016800  0.88657900  1
  O  O27  1  0.23948300  0.26307200  0.38778300  1
  O  O28  1  0.23955100  0.90647400  0.38611400  1
  O  O29  1  0.26296700  0.57290600  0.38780800  1
  O  O30  1  0.40125300  0.42850400  0.11205400  1
  O  O31  1  0.42983200  0.73731500  0.11342100  1
  O  O32  1  0.40378200  0.42706300  0.61193200  1
  O  O33  1  0.57330600  0.23989000  0.88596900  1
  O  O34  1  0.42709400  0.73703300  0.61219200  1
  O  O35  1  0.57299000  0.23978500  0.38587400  1
loop_
_geom_bond_atom_site_label_1
_geom_bond_atom_site_label_2
_geom_bond_distance
_geom_bond_site_symmetry_2
Li0 O17 2.055987 1_455
Li0 O19 2.056042 1_555
Li0 O28 2.137444 1_545
Li0 O0 2.138155 1_555
Li0 O27 2.176973 1_555
Li0 O18 2.197281 1_555
Li1 O22 2.077200 1_564
Li1 O18 2.078932 1_565
Li1 O31 2.079873 1_555
Li1 O3 2.083240 1_554
Li1 O0 2.097834 1_565
Li1 O23 2.108959 1_554
Li2 O14 2.057627 1_455
Li2 O24 2.059018 1_555
Li2 O23 2.133205 1_545
Li2 O2 2.139736 1_555
Li2 O21 2.175492 1_555
Li2 O22 2.193386 1_555
Li3 O1 2.050275 1_555
Li3 O9 2.053970 1_555
Li3 O2 2.128731 1_565
Li3 O23 2.145754 1_555
Li3 O3 2.179693 1_555
Li3 O34 2.194794 1_555
Li4 O2 2.029755 1_555
Li4 O33 2.034139 1_555
Li4 O13 2.168553 1_555
Li4 O32 2.170791 1_555
Li4 O3 2.171475 1_545
Li4 O22 2.172140 1_555
Li5 O5 2.079270 1_555
Li5 O34 2.079759 1_555
Li5 O21 2.081330 1_565
Li5 O27 2.082158 1_565
Li5 O28 2.097811 1_555
Li5 O2 2.099670 1_565
Li6 O4 2.057398 1_555
Li6 O6 2.060038 1_555
Li6 O0 2.137070 1_565
Li6 O28 2.139448 1_555
Li6 O31 2.140561 1_555
Li6 O5 2.206079 1_555
Li7 O0 2.029452 1_555
Li7 O35 2.031694 1_555
Li7 O27 2.168576 1_555
Li7 O5 2.169274 1_545
Li7 O8 2.169375 1_555
Li7 O30 2.182155 1_555
Li8 O10 2.029452 1_555
Li8 O12 2.031694 1_555
Li8 O9 2.168576 1_555
Li8 O24 2.169274 1_655
Li8 O14 2.169375 1_555
Li8 O1 2.182155 1_555
Li9 O15 2.029755 1_555
Li9 O7 2.034139 1_555
Li9 O17 2.168553 1_555
Li9 O4 2.170791 1_555
Li9 O19 2.171475 1_655
Li9 O6 2.172140 1_555
Li10 O8 2.057627 1_565
Li10 O5 2.059018 1_555
Li10 O20 2.133205 1_655
Li10 O15 2.139736 1_555
Li10 O16 2.175492 1_555
Li10 O6 2.193386 1_555
Li11 O6 2.077200 1_456
Li11 O11 2.078932 1_455
Li11 O26 2.079873 1_555
Li11 O19 2.083240 1_556
Li11 O10 2.097834 1_455
Li11 O20 2.108959 1_556
Li12 O13 2.055987 1_565
Li12 O3 2.056042 1_555
Li12 O25 2.137444 1_655
Li12 O10 2.138155 1_555
Li12 O9 2.176973 1_555
Li12 O11 2.197281 1_555
Li13 O32 2.057398 1_555
Li13 O22 2.060038 1_555
Li13 O10 2.137070 1_455
Li13 O25 2.139448 1_555
Li13 O26 2.140561 1_555
Li13 O24 2.206079 1_555
Li14 O23 2.023332 1_555
Li14 O25 2.030604 1_555
Li14 O34 2.170692 1_555
Li14 O11 2.171549 1_455
Li14 O21 2.174261 1_565
Li14 O26 2.178098 1_555
Li15 O24 2.079270 1_555
Li15 O29 2.079759 1_555
Li15 O16 2.081330 1_455
Li15 O9 2.082158 1_455
Li15 O25 2.097811 1_555
Li15 O15 2.099670 1_455
Li16 O30 2.050275 1_555
Li16 O27 2.053970 1_555
Li16 O15 2.128731 1_455
Li16 O20 2.145754 1_555
Li16 O19 2.179693 1_555
Li16 O29 2.194794 1_555
Li17 O20 2.023332 1_555
Li17 O28 2.030604 1_555
Li17 O29 2.170692 1_555
Li17 O18 2.171549 1_565
Li17 O16 2.174261 1_455
Li17 O31 2.178098 1_555
Li18 O31 2.049885 1_555
Li18 O29 2.053236 1_555
Li18 O7 2.137149 1_555
Li18 O35 2.138943 1_555
Li18 O4 2.170288 1_555
Li18 O30 2.212916 1_555
Li19 O14 2.070559 1_554
Li19 O8 2.070559 1_555
Li19 O7 2.096252 1_555
Li19 O33 2.096252 1_554
Li19 O1 2.101732 1_554
Li19 O30 2.101732 1_555
Li20 O26 2.049885 1_555
Li20 O34 2.053236 1_555
Li20 O33 2.137149 1_555
Li20 O12 2.138943 1_555
Li20 O32 2.170288 1_555
Li20 O1 2.212916 1_555
Li21 O21 2.054230 1_655
Li21 O11 2.054502 1_545
Li21 O12 2.137195 1_555
Li21 O33 2.137898 1_555
Li21 O14 2.178345 1_555
Li21 O13 2.195576 1_555
Li22 O17 2.078964 1_555
Li22 O13 2.078964 1_555
Li22 O32 2.080167 1_555
Li22 O4 2.080167 1_555
Li22 O35 2.099686 1_555
Li22 O12 2.099686 1_555
Li23 O16 2.054230 1_545
Li23 O18 2.054502 1_655
Li23 O35 2.137195 1_555
Li23 O7 2.137898 1_555
Li23 O8 2.178345 1_555
Li23 O17 2.195576 1_555
Mn0 O31 1.920908 1_555
Mn0 O6 1.929717 1_555
Mn0 O3 1.934302 1_554
Mn0 O7 1.944727 1_555
Mn0 O10 1.948094 1_554
Mn0 O1 1.949591 1_554
Mn1 O11 1.932241 1_554
Mn1 O6 1.932356 1_555
Mn1 O8 1.938663 1_565
Mn1 O3 1.941049 1_554
Mn1 O0 1.943876 1_565
Mn1 O33 1.946804 1_564
Mn2 O5 1.932089 1_555
Mn2 O34 1.932602 1_555
Mn2 O4 1.938404 1_555
Mn2 O9 1.940762 1_555
Mn2 O15 1.946323 1_555
Mn2 O12 1.946380 1_555
Mn3 O16 1.932230 1_555
Mn3 O9 1.933524 1_555
Mn3 O5 1.939266 1_555
Mn3 O13 1.939692 1_565
Mn3 O2 1.945754 1_565
Mn3 O35 1.945968 1_565
Mn4 O18 1.932241 1_556
Mn4 O22 1.932356 1_555
Mn4 O14 1.938663 1_455
Mn4 O19 1.941049 1_556
Mn4 O10 1.943876 1_455
Mn4 O7 1.946804 1_456
Mn5 O14 1.936241 1_554
Mn5 O8 1.936241 1_555
Mn5 O18 1.939569 1_655
Mn5 O11 1.939569 1_544
Mn5 O23 1.939603 1_644
Mn5 O20 1.939603 1_645
Mn6 O21 1.932230 1_555
Mn6 O27 1.933524 1_555
Mn6 O24 1.939266 1_555
Mn6 O17 1.939692 1_455
Mn6 O15 1.945754 1_455
Mn6 O12 1.945968 1_455
Mn7 O17 1.933084 1_555
Mn7 O13 1.933084 1_555
Mn7 O21 1.939984 1_655
Mn7 O16 1.939984 1_545
Mn7 O25 1.944831 1_645
Mn7 O28 1.944831 1_645
Mn8 O26 1.920908 1_555
Mn8 O22 1.929717 1_555
Mn8 O19 1.934302 1_556
Mn8 O33 1.944727 1_555
Mn8 O0 1.948094 1_556
Mn8 O30 1.949591 1_556
Mn9 O24 1.932089 1_555
Mn9 O29 1.932602 1_555
Mn9 O32 1.938404 1_555
Mn9 O27 1.940762 1_555
Mn9 O2 1.946323 1_555
Mn9 O35 1.946380 1_555
Mn10 O32 1.933450 1_555
Mn10 O4 1.933450 1_555
Mn10 O29 1.940530 1_555
Mn10 O34 1.940530 1_555
Mn10 O25 1.944805 1_555
Mn10 O28 1.944805 1_555
Cr0 O30 1.904865 1_555
Cr0 O1 1.904865 1_554
Cr0 O26 1.968446 1_554
Cr0 O31 1.968446 1_555
Cr0 O20 1.969314 1_555
Cr0 O23 1.969314 1_554
