# generated using pymatgen
data_Tb6PbSe10
_symmetry_space_group_name_H-M   'P 1'
_cell_length_a   7.62691100
_cell_length_b   7.63384137
_cell_length_c   31.52433241
_cell_angle_alpha   94.68461168
_cell_angle_beta   94.51583840
_cell_angle_gamma   109.56858810
_symmetry_Int_Tables_number   1
_chemical_formula_structural   Tb6PbSe10
_chemical_formula_sum   'Tb24 Pb4 Se40'
_cell_volume   1712.60597403
_cell_formula_units_Z   4
loop_
 _symmetry_equiv_pos_site_id
 _symmetry_equiv_pos_as_xyz
  1  'x, y, z'
loop_
 _atom_site_type_symbol
 _atom_site_label
 _atom_site_symmetry_multiplicity
 _atom_site_fract_x
 _atom_site_fract_y
 _atom_site_fract_z
 _atom_site_occupancy
  Tb  Tb0  1  0.15376100  0.77912200  0.02212900  1
  Tb  Tb1  1  0.34728400  0.98202100  0.22497100  1
  Tb  Tb2  1  0.87144500  0.24325000  0.12586900  1
  Tb  Tb3  1  0.45695500  0.32935200  0.07422700  1
  Tb  Tb4  1  0.54076100  0.18102100  0.43063600  1
  Tb  Tb5  1  0.06889900  0.44002200  0.32705700  1
  Tb  Tb6  1  0.65495000  0.52701200  0.27537800  1
  Tb  Tb7  1  0.02509600  0.77324500  0.14993400  1
  Tb  Tb8  1  0.74489200  0.36560400  0.62569800  1
  Tb  Tb9  1  0.28027900  0.63944600  0.52790900  1
  Tb  Tb10  1  0.84518600  0.72195300  0.47621500  1
  Tb  Tb11  1  0.61869300  0.74413700  0.37623800  1
  Tb  Tb12  1  0.22298300  0.97184800  0.35115700  1
  Tb  Tb13  1  0.94901300  0.57697100  0.82590300  1
  Tb  Tb14  1  0.47020400  0.84322800  0.72470100  1
  Tb  Tb15  1  0.06277900  0.92952700  0.67085200  1
  Tb  Tb16  1  0.82481300  0.96883500  0.57268100  1
  Tb  Tb17  1  0.67557000  0.05637900  0.92164200  1
  Tb  Tb18  1  0.61653300  0.37180900  0.75284200  1
  Tb  Tb19  1  0.03142200  0.14542400  0.77900400  1
  Tb  Tb20  1  0.27249100  0.52856200  0.64906800  1
  Tb  Tb21  1  0.23027300  0.35339200  0.96955900  1
  Tb  Tb22  1  0.83408900  0.59167300  0.94659400  1
  Tb  Tb23  1  0.47255600  0.71929600  0.85120000  1
  Pb  Pb0  1  0.42636200  0.55215700  0.17293300  1
  Pb  Pb1  1  0.68052500  0.92278700  0.04813400  1
  Pb  Pb2  1  0.88038100  0.12765400  0.24948900  1
  Pb  Pb3  1  0.07236500  0.31613700  0.45383700  1
  Se  Se0  1  0.22789600  0.59386000  0.09827600  1
  Se  Se1  1  0.94239100  0.79026900  0.30286600  1
  Se  Se2  1  0.89463200  0.39413300  0.02568800  1
  Se  Se3  1  0.16797100  0.16040200  0.16797100  1
  Se  Se4  1  0.70034200  0.84258500  0.20026400  1
  Se  Se5  1  0.13619600  0.97940500  0.50267800  1
  Se  Se6  1  0.08199100  0.07490600  0.07225900  1
  Se  Se7  1  0.64263100  0.98687200  0.49997100  1
  Se  Se8  1  0.37781200  0.37255200  0.36895700  1
  Se  Se9  1  0.48054800  0.99576000  0.13030100  1
  Se  Se10  1  0.89862000  0.03438500  0.39809000  1
  Se  Se11  1  0.76065600  0.59152700  0.09888100  1
  Se  Se12  1  0.27888300  0.26878600  0.27433400  1
  Se  Se13  1  0.08061700  0.59948400  0.23016600  1
  Se  Se14  1  0.29450600  0.80588700  0.42702200  1
  Se  Se15  1  0.70176600  0.34662400  0.19914200  1
  Se  Se16  1  0.67924800  0.18778800  0.33069900  1
  Se  Se17  1  0.57742900  0.58437600  0.57423000  1
  Se  Se18  1  0.09490300  0.24653400  0.60161200  1
  Se  Se19  1  0.47816000  0.48128300  0.46911600  1
  Se  Se20  1  0.89720000  0.54682700  0.39897200  1
  Se  Se21  1  0.42855000  0.79317400  0.30056700  1
  Se  Se22  1  0.88896800  0.39659100  0.53115600  1
  Se  Se23  1  0.77437000  0.77226600  0.77219400  1
  Se  Se24  1  0.30252600  0.45559700  0.79859000  1
  Se  Se25  1  0.67489100  0.66582100  0.67393900  1
  Se  Se26  1  0.47910300  0.97310200  0.63227200  1
  Se  Se27  1  0.69987400  0.19145100  0.82662700  1
  Se  Se28  1  0.08713300  0.72654900  0.60235700  1
  Se  Se29  1  0.08096600  0.58803800  0.72722000  1
  Se  Se30  1  0.97419400  0.96950200  0.96987100  1
  Se  Se31  1  0.49574200  0.63141000  0.99878200  1
  Se  Se32  1  0.33454400  0.20301800  0.70027500  1
  Se  Se33  1  0.86678400  0.87511100  0.86931800  1
  Se  Se34  1  0.30386900  0.93770400  0.79794900  1
  Se  Se35  1  0.83106400  0.19674000  0.70223200  1
  Se  Se36  1  0.28794800  0.77839300  0.92884200  1
  Se  Se37  1  0.55324400  0.40145100  0.89870900  1
  Se  Se38  1  0.49861700  0.14999100  0.99685900  1
  Se  Se39  1  0.03765700  0.40798400  0.89989100  1
loop_
_geom_bond_atom_site_label_1
_geom_bond_atom_site_label_2
_geom_bond_distance
_geom_bond_site_symmetry_2
Pb0 Se4 2.515028 1_555
Pb0 Se0 2.795677 1_555
Pb0 Se3 2.962931 1_555
Pb0 Se15 3.114897 1_555
Pb0 Se13 3.408853 1_555
Pb0 Tb3 3.485020 1_555
Pb0 Tb6 3.597904 1_555
Pb0 Tb1 3.798089 1_555
Pb1 Se31 2.518703 1_554
Pb1 Se6 2.899933 1_665
Pb1 Se38 3.043464 1_564
Pb1 Tb2 3.191054 1_565
Pb1 Se9 3.209609 1_555
Pb1 Se11 3.296910 1_555
Pb2 Se4 2.477991 1_545
Pb2 Se12 2.881940 1_655
Pb2 Se15 2.964346 1_555
Pb2 Tb5 3.151205 1_655
Pb2 Se16 3.164839 1_555
Pb3 Se10 2.564603 1_455
Pb3 Se19 2.907320 1_555
Pb3 Se22 3.023673 1_455
Pb3 Se20 3.096326 1_455
Pb3 Tb9 3.148404 1_555
Pb3 Se5 3.253020 1_545
Se0 Tb7 2.893240 1_555
Se0 Tb0 2.993095 1_555
Se0 Tb3 3.166318 1_555
Se0 Tb2 3.345090 1_455
Se1 Tb12 2.444161 1_655
Se1 Tb6 2.461884 1_555
Se1 Tb5 3.256789 1_655
Se2 Tb0 2.958693 1_655
Se2 Se38 2.990381 1_554
Se2 Tb22 3.098956 1_554
Se2 Tb21 3.307177 1_654
Se2 Tb2 3.446370 1_555
Se3 Tb7 2.777815 1_545
Se3 Tb2 2.810491 1_455
Se3 Tb1 2.865951 1_545
Se4 Tb7 3.208168 1_655
Se4 Tb1 3.332472 1_555
Se4 Tb6 3.468792 1_555
Se5 Tb10 2.450169 1_455
Se5 Tb9 3.268821 1_555
Se6 Tb3 2.861229 1_555
Se6 Tb0 2.876934 1_545
Se6 Tb2 2.922549 1_455
Se7 Tb16 2.623299 1_555
Se7 Tb4 2.934423 1_565
Se7 Tb10 3.010815 1_555
Se7 Tb9 3.361896 1_555
Se8 Tb11 2.794750 1_555
Se8 Tb5 2.827529 1_555
Se8 Tb12 2.874345 1_545
Se8 Tb4 2.960416 1_555
Se9 Tb2 2.968655 1_565
Se9 Tb1 3.226162 1_555
Se9 Tb3 3.261044 1_565
Se9 Tb7 3.448571 1_555
Se10 Tb11 2.508448 1_545
Se10 Tb12 3.128766 1_645
Se11 Tb7 2.415015 1_655
Se11 Tb3 2.516332 1_555
Se11 Tb2 3.204311 1_555
Se12 Tb1 2.796851 1_545
Se12 Tb6 2.881104 1_555
Se12 Tb5 2.915943 1_555
Se12 Se8 2.992306 1_555
Se12 Tb12 3.405442 1_545
Se13 Tb1 2.973733 1_555
Se13 Tb7 3.015227 1_555
Se13 Tb5 3.375911 1_555
Se14 Tb4 2.837506 1_565
Se14 Tb12 2.893926 1_555
Se14 Tb11 3.190530 1_555
Se14 Tb9 3.516123 1_555
Se15 Tb6 2.779117 1_555
Se15 Tb2 2.913785 1_555
Se15 Tb1 3.375707 1_545
Se16 Tb5 2.968033 1_655
Se16 Tb6 3.284801 1_555
Se17 Tb9 2.768154 1_555
Se17 Tb16 2.916240 1_555
Se17 Tb8 2.932248 1_555
Se17 Tb20 3.394246 1_555
Se18 Tb20 2.430897 1_555
Se18 Tb16 2.456075 1_445
Se18 Tb8 3.218828 1_455
Se19 Tb4 2.706208 1_555
Se19 Tb10 2.765964 1_555
Se19 Tb9 2.909686 1_555
Se20 Tb10 2.801726 1_555
Se20 Tb5 2.898285 1_655
Se20 Tb11 3.061731 1_555
Se21 Tb11 2.810424 1_555
Se21 Tb12 2.886678 1_555
Se21 Tb1 3.011447 1_555
Se21 Tb6 3.169083 1_555
Se21 Tb5 3.356225 1_555
Se22 Tb9 2.954217 1_655
Se22 Tb10 3.232259 1_555
Se22 Tb8 3.256196 1_555
Se23 Tb19 2.845548 1_665
Se23 Tb13 2.872447 1_555
Se23 Tb18 2.877723 1_555
Se23 Tb14 2.888611 1_555
Se24 Tb23 2.419071 1_555
Se24 Tb19 2.558053 1_555
Se24 Tb18 3.105461 1_555
Se24 Tb13 3.283005 1_455
Se25 Tb8 2.868510 1_555
Se25 Tb14 2.878830 1_555
Se25 Tb20 2.909388 1_555
Se25 Tb15 2.983619 1_655
Se26 Se28 2.977585 1_555
Se26 Tb8 3.037913 1_565
Se26 Tb14 3.152062 1_555
Se26 Tb20 3.335025 1_555
Se26 Tb16 3.363001 1_555
Se26 Tb15 3.411566 1_555
Se27 Tb13 2.923037 1_555
Se27 Tb18 2.930288 1_555
Se27 Tb19 3.142988 1_655
Se27 Tb17 3.245484 1_555
Se28 Tb15 2.609082 1_555
Se28 Tb20 2.813944 1_555
Se28 Tb9 3.010961 1_555
Se28 Tb8 3.280659 1_455
Se28 Tb16 3.281094 1_455
Se29 Tb14 2.966948 1_555
Se29 Tb20 3.039399 1_555
Se29 Tb15 3.306462 1_555
Se29 Tb13 3.343164 1_455
Se30 Tb22 2.732332 1_555
Se30 Tb0 2.840922 1_656
Se30 Tb17 2.927463 1_565
Se30 Tb21 2.928558 1_665
Se31 Tb21 2.441489 1_555
Se31 Tb22 3.251040 1_555
Se31 Tb0 3.279191 1_556
Se32 Tb15 2.448985 1_545
Se32 Tb18 2.503112 1_555
Se32 Tb20 3.213824 1_555
Se32 Tb14 3.366123 1_545
Se33 Tb23 2.829208 1_555
Se33 Tb13 2.833540 1_555
Se33 Tb17 2.849607 1_565
Se33 Tb22 3.357607 1_555
Se34 Tb14 2.874653 1_555
Se34 Tb23 2.967683 1_555
Se34 Tb19 3.058659 1_565
Se34 Tb13 3.385881 1_455
Se35 Tb19 2.884333 1_655
Se35 Tb18 2.921699 1_555
Se35 Tb8 2.956444 1_555
Se35 Tb15 3.259359 1_645
Se35 Tb14 3.317101 1_545
Se36 Tb23 2.994089 1_555
Se36 Tb17 3.045762 1_565
Se36 Tb0 3.189183 1_556
Se36 Tb22 3.384871 1_455
Se37 Tb22 2.454520 1_555
Se37 Tb23 3.155597 1_555
Se37 Tb17 3.191143 1_555
Se37 Tb21 3.403769 1_555
Se38 Tb3 2.791471 1_556
Se38 Tb17 2.971152 1_555
Se38 Tb21 3.067576 1_555
Se38 Tb0 3.358287 1_546
Se39 Tb21 2.684556 1_555
Se39 Tb22 2.832949 1_455
Se39 Tb13 2.896346 1_455
Se39 Tb17 3.306728 1_455
