# generated using pymatgen
data_BaLaCl5
_symmetry_space_group_name_H-M   'P 1'
_cell_length_a   5.94825500
_cell_length_b   7.31273900
_cell_length_c   19.13588200
_cell_angle_alpha   90.00000000
_cell_angle_beta   90.00000000
_cell_angle_gamma   90.00000000
_symmetry_Int_Tables_number   1
_chemical_formula_structural   BaLaCl5
_chemical_formula_sum   'Ba4 La4 Cl20'
_cell_volume   832.37329026
_cell_formula_units_Z   4
loop_
 _symmetry_equiv_pos_site_id
 _symmetry_equiv_pos_as_xyz
  1  'x, y, z'
loop_
 _atom_site_type_symbol
 _atom_site_label
 _atom_site_symmetry_multiplicity
 _atom_site_fract_x
 _atom_site_fract_y
 _atom_site_fract_z
 _atom_site_occupancy
  Ba  Ba0  1  0.78168500  0.25000000  0.05643700  1
  Ba  Ba1  1  0.28168500  0.75000000  0.44356300  1
  Ba  Ba2  1  0.71831500  0.25000000  0.55643700  1
  Ba  Ba3  1  0.21831500  0.75000000  0.94356300  1
  La  La0  1  0.43323800  0.75000000  0.17868600  1
  La  La1  1  0.93323800  0.25000000  0.32131400  1
  La  La2  1  0.06676200  0.75000000  0.67868600  1
  La  La3  1  0.56676200  0.25000000  0.82131400  1
  Cl  Cl0  1  0.72296200  0.75000000  0.06297800  1
  Cl  Cl1  1  0.24299300  0.49359300  0.08597200  1
  Cl  Cl2  1  0.24299300  0.00640700  0.08597200  1
  Cl  Cl3  1  0.76350800  0.47736600  0.20735200  1
  Cl  Cl4  1  0.76350800  0.02263400  0.20735200  1
  Cl  Cl5  1  0.26350800  0.97736600  0.29264800  1
  Cl  Cl6  1  0.26350800  0.52263400  0.29264800  1
  Cl  Cl7  1  0.74299300  0.99359300  0.41402800  1
  Cl  Cl8  1  0.74299300  0.50640700  0.41402800  1
  Cl  Cl9  1  0.22296200  0.25000000  0.43702200  1
  Cl  Cl10  1  0.77703800  0.75000000  0.56297800  1
  Cl  Cl11  1  0.25700700  0.49359300  0.58597200  1
  Cl  Cl12  1  0.25700700  0.00640700  0.58597200  1
  Cl  Cl13  1  0.73649200  0.47736600  0.70735200  1
  Cl  Cl14  1  0.73649200  0.02263400  0.70735200  1
  Cl  Cl15  1  0.23649200  0.97736600  0.79264800  1
  Cl  Cl16  1  0.23649200  0.52263400  0.79264800  1
  Cl  Cl17  1  0.75700700  0.99359300  0.91402800  1
  Cl  Cl18  1  0.75700700  0.50640700  0.91402800  1
  Cl  Cl19  1  0.27703800  0.25000000  0.93702200  1
loop_
_geom_bond_atom_site_label_1
_geom_bond_atom_site_label_2
_geom_bond_distance
_geom_bond_site_symmetry_2
Ba0 Cl17 3.311133 1_544
Ba0 Cl18 3.311133 1_554
Ba0 Cl1 3.319937 1_655
Ba0 Cl2 3.319937 1_655
Ba0 Cl4 3.334078 1_555
Ba0 Cl3 3.334078 1_555
Ba0 Cl0 3.675148 1_555
Ba0 Cl0 3.675148 1_545
Ba0 Cl1 3.709443 1_555
Ba0 Cl2 3.709443 1_555
Ba0 Cl19 3.728742 1_654
Ba0 Cl19 3.772579 1_554
Ba1 Cl11 3.311133 1_555
Ba1 Cl12 3.311133 1_565
Ba1 Cl7 3.319937 1_555
Ba1 Cl8 3.319937 1_555
Ba1 Cl6 3.334078 1_555
Ba1 Cl5 3.334078 1_555
Ba1 Cl9 3.675148 1_555
Ba1 Cl9 3.675148 1_565
Ba1 Cl7 3.709443 1_455
Ba1 Cl8 3.709443 1_455
Ba1 Cl10 3.728742 1_555
Ba1 Cl10 3.772579 1_455
Ba2 Cl7 3.311133 1_545
Ba2 Cl8 3.311133 1_555
Ba2 Cl11 3.319937 1_555
Ba2 Cl12 3.319937 1_555
Ba2 Cl14 3.334078 1_555
Ba2 Cl13 3.334078 1_555
Ba2 Cl10 3.675148 1_555
Ba2 Cl10 3.675148 1_545
Ba2 Cl11 3.709443 1_655
Ba2 Cl12 3.709443 1_655
Ba2 Cl9 3.728742 1_555
Ba2 Cl9 3.772579 1_655
Ba3 Cl2 3.311133 1_566
Ba3 Cl1 3.311133 1_556
Ba3 Cl17 3.319937 1_455
Ba3 Cl18 3.319937 1_455
Ba3 Cl15 3.334078 1_555
Ba3 Cl16 3.334078 1_555
Ba3 Cl19 3.675148 1_555
Ba3 Cl19 3.675148 1_565
Ba3 Cl17 3.709443 1_555
Ba3 Cl18 3.709443 1_555
Ba3 Cl0 3.728742 1_456
Ba3 Cl0 3.772579 1_556
Cl0 La0 2.805800 1_555
Cl1 La0 2.818510 1_555
Cl2 La0 2.818510 1_545
Cl3 La0 2.852215 1_555
Cl3 La1 2.922239 1_555
Cl4 La0 2.852215 1_545
Cl4 La1 2.922239 1_555
Cl5 La1 2.852215 1_465
Cl5 La0 2.922239 1_555
Cl6 La1 2.852215 1_455
Cl6 La0 2.922239 1_555
Cl7 La1 2.818510 1_565
Cl8 La1 2.818510 1_555
Cl9 La1 2.805800 1_455
Cl10 La2 2.805800 1_655
Cl11 La2 2.818510 1_555
Cl12 La2 2.818510 1_545
Cl13 La2 2.852215 1_655
Cl13 La3 2.922239 1_555
Cl14 La2 2.852215 1_645
Cl14 La3 2.922239 1_555
Cl15 La3 2.852215 1_565
Cl15 La2 2.922239 1_555
Cl16 La3 2.852215 1_555
Cl16 La2 2.922239 1_555
Cl17 La3 2.818510 1_565
Cl18 La3 2.818510 1_555
Cl19 La3 2.805800 1_555
