# generated using pymatgen
data_Li2Mn(SiO3)2
_symmetry_space_group_name_H-M   'P 1'
_cell_length_a   5.76298299
_cell_length_b   5.76286468
_cell_length_c   9.40952856
_cell_angle_alpha   90.50885507
_cell_angle_beta   89.49482422
_cell_angle_gamma   61.51894436
_symmetry_Int_Tables_number   1
_chemical_formula_structural   Li2Mn(SiO3)2
_chemical_formula_sum   'Li4 Mn2 Si4 O12'
_cell_volume   274.64079530
_cell_formula_units_Z   2
loop_
 _symmetry_equiv_pos_site_id
 _symmetry_equiv_pos_as_xyz
  1  'x, y, z'
loop_
 _atom_site_type_symbol
 _atom_site_label
 _atom_site_symmetry_multiplicity
 _atom_site_fract_x
 _atom_site_fract_y
 _atom_site_fract_z
 _atom_site_occupancy
  Li  Li0  1  0.58548800  0.71059800  0.88271000  1
  Li  Li1  1  0.28903300  0.41424800  0.38269900  1
  Li  Li2  1  0.71057400  0.58551600  0.61728700  1
  Li  Li3  1  0.41429600  0.28898400  0.11729400  1
  Mn  Mn0  1  0.25444900  0.25446000  0.74999300  1
  Mn  Mn1  1  0.74585700  0.74581100  0.24999100  1
  Si  Si0  1  0.13547500  0.80368500  0.63330500  1
  Si  Si1  1  0.19665100  0.86427600  0.13338300  1
  Si  Si2  1  0.80367600  0.13548800  0.86669500  1
  Si  Si3  1  0.86426700  0.19665600  0.36662300  1
  O  O0  1  0.36739500  0.85484200  0.70249600  1
  O  O1  1  0.14550200  0.63232400  0.20257200  1
  O  O2  1  0.23846200  0.49813200  0.58581400  1
  O  O3  1  0.50207900  0.76171100  0.08590300  1
  O  O4  1  0.88653600  0.88653200  0.75000000  1
  O  O5  1  0.99967800  0.00022400  0.50001800  1
  O  O6  1  0.11339500  0.11339300  0.25000800  1
  O  O7  1  0.00018500  0.99968600  0.00000500  1
  O  O8  1  0.49813300  0.23847100  0.91417300  1
  O  O9  1  0.76166300  0.50210400  0.41408800  1
  O  O10  1  0.85485100  0.36740000  0.79751800  1
  O  O11  1  0.63235300  0.14545900  0.29742400  1
loop_
_geom_bond_atom_site_label_1
_geom_bond_atom_site_label_2
_geom_bond_distance
_geom_bond_site_symmetry_2
Li0 O3 1.952467 1_556
Li0 O10 1.996437 1_555
Li0 O0 2.052407 1_555
Li1 O2 1.952120 1_555
Li1 O11 1.996204 1_555
Li1 O1 2.051205 1_555
Li2 O9 1.952508 1_555
Li2 O0 1.996393 1_555
Li2 O10 2.052634 1_555
Li3 O8 1.952136 1_554
Li3 O1 1.996268 1_555
Li3 O11 2.051164 1_555
Mn0 O2 2.069929 1_555
Mn0 O8 2.069935 1_555
Mn0 O0 2.115162 1_545
Mn0 O10 2.115183 1_455
Mn1 O9 2.069767 1_555
Mn1 O3 2.069784 1_555
Mn1 O11 2.114521 1_565
Mn1 O1 2.114569 1_655
O0 Si0 1.638563 1_555
O1 Si1 1.638717 1_555
O2 Si0 1.623940 1_555
O3 Si1 1.623691 1_555
O4 Si2 1.673756 1_565
O4 Si0 1.673759 1_655
O5 Si0 1.632604 1_645
O5 Si3 1.632760 1_555
O6 Si1 1.673701 1_545
O6 Si3 1.673743 1_455
O7 Si2 1.632686 1_464
O7 Si1 1.632718 1_555
O8 Si2 1.623915 1_555
O9 Si3 1.623668 1_555
O10 Si2 1.638547 1_555
O11 Si3 1.638693 1_555
