# generated using pymatgen
data_Sb5O7F
_symmetry_space_group_name_H-M   'P 1'
_cell_length_a   14.44174077
_cell_length_b   14.44174077
_cell_length_c   14.44174077
_cell_angle_alpha   158.91200154
_cell_angle_beta   114.31233536
_cell_angle_gamma   69.83410597
_symmetry_Int_Tables_number   1
_chemical_formula_structural   Sb5O7F
_chemical_formula_sum   'Sb20 O28 F4'
_cell_volume   980.46451893
_cell_formula_units_Z   4
loop_
 _symmetry_equiv_pos_site_id
 _symmetry_equiv_pos_as_xyz
  1  'x, y, z'
loop_
 _atom_site_type_symbol
 _atom_site_label
 _atom_site_symmetry_multiplicity
 _atom_site_fract_x
 _atom_site_fract_y
 _atom_site_fract_z
 _atom_site_occupancy
  Sb  Sb0  1  0.72554300  0.77298100  0.88438100  1
  Sb  Sb1  1  0.61139900  0.15883700  0.38438000  1
  Sb  Sb2  1  0.77445700  0.65883700  0.04743800  1
  Sb  Sb3  1  0.88860100  0.27298100  0.54743800  1
  Sb  Sb4  1  0.01073200  0.99619400  0.14426800  1
  Sb  Sb5  1  0.14807500  0.50380600  0.51453800  1
  Sb  Sb6  1  0.51073200  0.36646400  0.01453800  1
  Sb  Sb7  1  0.64807500  0.13353600  0.64426800  1
  Sb  Sb8  1  0.95176700  0.20176700  0.75000000  1
  Sb  Sb9  1  0.45176700  0.70176700  0.75000000  1
  Sb  Sb10  1  0.54823300  0.29823300  0.25000000  1
  Sb  Sb11  1  0.04823300  0.79823300  0.25000000  1
  Sb  Sb12  1  0.35192500  0.86646400  0.35573200  1
  Sb  Sb13  1  0.98926800  0.00380600  0.85573200  1
  Sb  Sb14  1  0.48926800  0.63353600  0.98546200  1
  Sb  Sb15  1  0.85192500  0.49619400  0.48546200  1
  Sb  Sb16  1  0.22554300  0.34116300  0.95256200  1
  Sb  Sb17  1  0.11139900  0.72701900  0.45256200  1
  Sb  Sb18  1  0.38860100  0.84116300  0.61561900  1
  Sb  Sb19  1  0.27445700  0.22701900  0.11562000  1
  O  O0  1  0.58429100  0.52868300  0.60460000  1
  O  O1  1  0.57591600  0.02030900  0.10460000  1
  O  O2  1  0.57875200  0.74885400  0.02228600  1
  O  O3  1  0.77343200  0.44353400  0.52228600  1
  O  O4  1  0.90435600  0.86262800  0.88140800  1
  O  O5  1  0.51878000  0.97705200  0.38140800  1
  O  O6  1  0.75000000  0.04339400  0.29339400  1
  O  O7  1  0.75000000  0.54339400  0.79339400  1
  O  O8  1  0.98122000  0.36262800  0.45827200  1
  O  O9  1  0.59564400  0.47705200  0.95827200  1
  O  O10  1  0.92124800  0.94353400  0.17010200  1
  O  O11  1  0.72656800  0.24885400  0.67010200  1
  O  O12  1  0.91570900  0.52030900  0.94439300  1
  O  O13  1  0.92408400  0.02868300  0.44439300  1
  O  O14  1  0.07591600  0.97131700  0.55560700  1
  O  O15  1  0.08429100  0.47969100  0.05560700  1
  O  O16  1  0.27343200  0.75114600  0.32989800  1
  O  O17  1  0.07875200  0.05646600  0.82989800  1
  O  O18  1  0.01878000  0.63737200  0.54172800  1
  O  O19  1  0.40435600  0.52294800  0.04172800  1
  O  O20  1  0.25000000  0.95660600  0.70660600  1
  O  O21  1  0.25000000  0.45660600  0.20660600  1
  O  O22  1  0.48122000  0.02294800  0.61859200  1
  O  O23  1  0.09564400  0.13737200  0.11859200  1
  O  O24  1  0.22656800  0.55646600  0.47771400  1
  O  O25  1  0.42124800  0.25114600  0.97771400  1
  O  O26  1  0.41570900  0.47131700  0.39540000  1
  O  O27  1  0.42408400  0.97969100  0.89540000  1
  F  F0  1  0.90361700  0.65361700  0.25000000  1
  F  F1  1  0.40361700  0.15361700  0.25000000  1
  F  F2  1  0.59638300  0.84638300  0.75000000  1
  F  F3  1  0.09638300  0.34638300  0.75000000  1
loop_
_geom_bond_atom_site_label_1
_geom_bond_atom_site_label_2
_geom_bond_distance
_geom_bond_site_symmetry_2
O0 Sb0 2.123332 1_555
O0 Sb9 2.129911 1_555
O0 Sb10 2.183508 1_555
O0 Sb1 2.584832 1_555
O1 Sb1 2.123330 1_555
O1 Sb10 2.129912 1_555
O1 Sb9 2.183500 1_544
O1 Sb0 2.584841 1_544
O2 Sb14 1.997924 1_554
O2 Sb1 2.177679 1_565
O2 Sb2 2.704175 1_555
O3 Sb15 1.997913 1_555
O3 Sb0 2.177686 1_555
O3 Sb3 2.704175 1_555
O4 Sb15 2.001414 1_555
O4 Sb4 2.017049 1_656
O5 Sb14 2.001412 1_554
O5 Sb7 2.017057 1_565
O6 Sb3 2.071129 1_555
O6 Sb1 2.071129 1_555
O6 Sb0 2.540492 1_544
O6 Sb2 2.540504 1_545
O7 Sb0 2.071118 1_555
O7 Sb2 2.071129 1_556
O7 Sb1 2.540504 1_555
O7 Sb3 2.540504 1_555
O8 Sb4 2.001412 1_645
O8 Sb15 2.017059 1_555
O9 Sb7 2.001419 1_555
O9 Sb14 2.017049 1_555
O10 Sb4 1.997924 1_655
O10 Sb3 2.177679 1_565
O10 Sb0 2.704172 1_554
O11 Sb7 1.997913 1_555
O11 Sb2 2.177679 1_556
O11 Sb1 2.704175 1_555
O12 Sb2 2.123330 1_556
O12 Sb11 2.129912 1_656
O12 Sb8 2.183500 1_555
O12 Sb3 2.584845 1_555
O13 Sb3 2.123343 1_555
O13 Sb8 2.129902 1_555
O13 Sb11 2.183499 1_645
O13 Sb2 2.584841 1_545
O14 Sb17 2.123343 1_555
O14 Sb11 2.129902 1_555
O14 Sb8 2.183499 1_465
O14 Sb16 2.584841 1_565
O15 Sb16 2.123330 1_554
O15 Sb8 2.129912 1_454
O15 Sb11 2.183500 1_555
O15 Sb17 2.584845 1_555
O16 Sb12 1.997913 1_555
O16 Sb16 2.177679 1_554
O16 Sb18 2.704163 1_555
O17 Sb13 1.997924 1_455
O17 Sb17 2.177679 1_545
O17 Sb19 2.704175 1_556
O18 Sb13 2.001412 1_465
O18 Sb5 2.017059 1_555
O19 Sb12 2.001419 1_555
O19 Sb6 2.017049 1_555
O20 Sb17 2.071129 1_555
O20 Sb18 2.071133 1_555
O20 Sb16 2.540504 1_565
O20 Sb19 2.540504 1_566
O21 Sb16 2.071129 1_554
O21 Sb19 2.071129 1_555
O21 Sb17 2.540504 1_555
O21 Sb18 2.540504 1_555
O22 Sb6 2.001412 1_556
O22 Sb12 2.017057 1_545
O23 Sb5 2.001414 1_555
O23 Sb13 2.017049 1_454
O24 Sb5 1.997913 1_555
O24 Sb19 2.177679 1_555
O24 Sb17 2.704175 1_555
O25 Sb6 1.997924 1_556
O25 Sb18 2.177675 1_545
O25 Sb16 2.704175 1_555
O26 Sb19 2.123333 1_555
O26 Sb10 2.129911 1_555
O26 Sb9 2.183508 1_555
O26 Sb18 2.584841 1_555
O27 Sb18 2.123343 1_555
O27 Sb9 2.129912 1_555
O27 Sb10 2.183500 1_566
O27 Sb19 2.584845 1_566
