# generated using pymatgen
data_CrPO5
_symmetry_space_group_name_H-M   'P 1'
_cell_length_a   5.04246600
_cell_length_b   12.68238400
_cell_length_c   12.80386252
_cell_angle_alpha   60.18992970
_cell_angle_beta   90.00000000
_cell_angle_gamma   90.00000000
_symmetry_Int_Tables_number   1
_chemical_formula_structural   CrPO5
_chemical_formula_sum   'Cr8 P8 O40'
_cell_volume   710.46634749
_cell_formula_units_Z   8
loop_
 _symmetry_equiv_pos_site_id
 _symmetry_equiv_pos_as_xyz
  1  'x, y, z'
loop_
 _atom_site_type_symbol
 _atom_site_label
 _atom_site_symmetry_multiplicity
 _atom_site_fract_x
 _atom_site_fract_y
 _atom_site_fract_z
 _atom_site_occupancy
  Cr  Cr0  1  0.73224100  0.56311500  0.12875000  1
  Cr  Cr1  1  0.23224100  0.43688500  0.37125000  1
  Cr  Cr2  1  0.73647300  0.06397700  0.30718200  1
  Cr  Cr3  1  0.23647300  0.93602300  0.19281800  1
  Cr  Cr4  1  0.76352700  0.06397700  0.80718200  1
  Cr  Cr5  1  0.26352700  0.93602300  0.69281800  1
  Cr  Cr6  1  0.76775900  0.56311500  0.62875000  1
  Cr  Cr7  1  0.26775900  0.43688500  0.87125000  1
  P  P0  1  0.76183700  0.84448600  0.09036700  1
  P  P1  1  0.74708400  0.34396900  0.06338400  1
  P  P2  1  0.75291600  0.34396900  0.56338400  1
  P  P3  1  0.26183700  0.15551400  0.40963300  1
  P  P4  1  0.73816300  0.84448600  0.59036700  1
  P  P5  1  0.24708400  0.65603100  0.43661600  1
  P  P6  1  0.25291600  0.65603100  0.93661600  1
  P  P7  1  0.23816300  0.15551400  0.90963300  1
  O  O0  1  0.05133600  0.86252900  0.12108200  1
  O  O1  1  0.06085600  0.62408900  0.04181800  1
  O  O2  1  0.71640800  0.70887100  0.14072100  1
  O  O3  1  0.45817900  0.37330100  0.01416900  1
  O  O4  1  0.81042100  0.41412200  0.12973700  1
  O  O5  1  0.48343300  0.50278800  0.22488900  1
  O  O6  1  0.98343300  0.49721200  0.27511100  1
  O  O7  1  0.31042100  0.58587800  0.37026300  1
  O  O8  1  0.77017000  0.20765800  0.15126800  1
  O  O9  1  0.27655500  0.08924300  0.04668900  1
  O  O10  1  0.21640800  0.29112900  0.35927900  1
  O  O11  1  0.56085600  0.37591100  0.45818200  1
  O  O12  1  0.04182100  0.37330100  0.51416900  1
  O  O13  1  0.55133600  0.13747100  0.37891800  1
  O  O14  1  0.07000500  0.10930000  0.34772200  1
  O  O15  1  0.97880900  0.98518700  0.23624900  1
  O  O16  1  0.47880900  0.01481300  0.26375100  1
  O  O17  1  0.57000500  0.89070000  0.15227800  1
  O  O18  1  0.72983000  0.20765800  0.65126800  1
  O  O19  1  0.22344500  0.08924300  0.54668900  1
  O  O20  1  0.77655500  0.91075700  0.45331100  1
  O  O21  1  0.27017000  0.79234200  0.34873200  1
  O  O22  1  0.42999500  0.10930000  0.84772200  1
  O  O23  1  0.52119100  0.98518700  0.73624900  1
  O  O24  1  0.02119100  0.01481300  0.76375100  1
  O  O25  1  0.92999500  0.89070000  0.65227800  1
  O  O26  1  0.44866400  0.86252900  0.62108200  1
  O  O27  1  0.95817900  0.62669900  0.48583100  1
  O  O28  1  0.43914400  0.62408900  0.54181800  1
  O  O29  1  0.78359200  0.70887100  0.64072100  1
  O  O30  1  0.72344500  0.91075700  0.95331100  1
  O  O31  1  0.22983000  0.79234200  0.84873200  1
  O  O32  1  0.68957900  0.41412200  0.62973700  1
  O  O33  1  0.01656700  0.50278800  0.72488900  1
  O  O34  1  0.51656700  0.49721200  0.77511100  1
  O  O35  1  0.18957900  0.58587800  0.87026300  1
  O  O36  1  0.54182100  0.62669900  0.98583100  1
  O  O37  1  0.28359200  0.29112900  0.85927900  1
  O  O38  1  0.93914400  0.37591100  0.95818200  1
  O  O39  1  0.94866400  0.13747100  0.87891800  1
loop_
_geom_bond_atom_site_label_1
_geom_bond_atom_site_label_2
_geom_bond_distance
_geom_bond_site_symmetry_2
Cr0 O5 1.654770 1_555
Cr0 O36 1.858404 1_554
Cr0 O4 1.924153 1_555
Cr0 O1 1.930510 1_655
Cr0 O2 1.930971 1_555
Cr0 O6 2.063359 1_555
Cr1 O6 1.654770 1_455
Cr1 O12 1.858404 1_555
Cr1 O7 1.924153 1_555
Cr1 O11 1.930510 1_555
Cr1 O10 1.930971 1_555
Cr1 O5 2.063359 1_555
Cr2 O16 1.652519 1_555
Cr2 O13 1.853406 1_555
Cr2 O20 1.924241 1_545
Cr2 O8 1.928154 1_555
Cr2 O14 1.930029 1_655
Cr2 O15 2.053990 1_545
Cr3 O15 1.652519 1_455
Cr3 O0 1.853406 1_555
Cr3 O9 1.924241 1_565
Cr3 O21 1.928154 1_555
Cr3 O17 1.930029 1_555
Cr3 O16 2.053990 1_565
Cr4 O24 1.652519 1_655
Cr4 O39 1.853406 1_555
Cr4 O30 1.924241 1_545
Cr4 O18 1.928154 1_555
Cr4 O22 1.930029 1_555
Cr4 O23 2.053990 1_545
Cr5 O23 1.652519 1_555
Cr5 O26 1.853406 1_555
Cr5 O19 1.924241 1_565
Cr5 O31 1.928154 1_555
Cr5 O25 1.930029 1_455
Cr5 O24 2.053990 1_565
Cr6 O33 1.654770 1_655
Cr6 O27 1.858404 1_555
Cr6 O32 1.924153 1_555
Cr6 O28 1.930510 1_555
Cr6 O29 1.930971 1_555
Cr6 O34 2.063359 1_555
Cr7 O34 1.654770 1_555
Cr7 O3 1.858404 1_556
Cr7 O35 1.924153 1_555
Cr7 O38 1.930510 1_455
Cr7 O37 1.930971 1_555
Cr7 O33 2.063359 1_555
O0 P0 1.558038 1_455
O1 P6 1.540737 1_554
O2 P0 1.524392 1_555
O3 P1 1.557127 1_555
O4 P1 1.538468 1_555
O7 P5 1.538468 1_555
O8 P1 1.527815 1_555
O9 P7 1.535230 1_554
O10 P3 1.524392 1_555
O11 P2 1.540737 1_555
O12 P2 1.557127 1_455
O13 P3 1.558038 1_555
O14 P3 1.539320 1_555
O17 P0 1.539320 1_555
O18 P2 1.527815 1_555
O19 P3 1.535230 1_555
O20 P4 1.535230 1_555
O21 P5 1.527815 1_555
O22 P7 1.539320 1_555
O25 P4 1.539320 1_555
O26 P4 1.558038 1_555
O27 P5 1.557127 1_655
O28 P5 1.540737 1_555
O29 P4 1.524392 1_555
O30 P0 1.535230 1_556
O31 P6 1.527815 1_555
O32 P2 1.538468 1_555
O35 P6 1.538468 1_555
O36 P6 1.557127 1_555
O37 P7 1.524392 1_555
O38 P1 1.540737 1_556
O39 P7 1.558038 1_655
