# generated using pymatgen
data_Na8V2O7
_symmetry_space_group_name_H-M   'P 1'
_cell_length_a   11.26064300
_cell_length_b   8.83079400
_cell_length_c   10.25497767
_cell_angle_alpha   72.67790613
_cell_angle_beta   90.00000000
_cell_angle_gamma   90.00000000
_symmetry_Int_Tables_number   1
_chemical_formula_structural   Na8V2O7
_chemical_formula_sum   'Na32 V8 O28'
_cell_volume   973.50916900
_cell_formula_units_Z   4
loop_
 _symmetry_equiv_pos_site_id
 _symmetry_equiv_pos_as_xyz
  1  'x, y, z'
loop_
 _atom_site_type_symbol
 _atom_site_label
 _atom_site_symmetry_multiplicity
 _atom_site_fract_x
 _atom_site_fract_y
 _atom_site_fract_z
 _atom_site_occupancy
  Na  Na0  1  0.52493500  0.87747400  0.92732600  1
  Na  Na1  1  0.53846700  0.91748000  0.64236500  1
  Na  Na2  1  0.25924400  0.89394600  0.53310100  1
  Na  Na3  1  0.97506500  0.87747400  0.42732600  1
  Na  Na4  1  0.05212000  0.74586100  0.71376400  1
  Na  Na5  1  0.96153300  0.91748000  0.14236500  1
  Na  Na6  1  0.74945400  0.71348700  0.57078200  1
  Na  Na7  1  0.24075600  0.89394600  0.03310100  1
  Na  Na8  1  0.53058500  0.57018100  0.85385200  1
  Na  Na9  1  0.49742300  0.65832000  0.52072700  1
  Na  Na10  1  0.44788000  0.74586100  0.21376400  1
  Na  Na11  1  0.77013900  0.49951100  0.87285900  1
  Na  Na12  1  0.75054600  0.71348700  0.07078200  1
  Na  Na13  1  0.27013900  0.50048900  0.62714100  1
  Na  Na14  1  0.96941500  0.57018100  0.35385200  1
  Na  Na15  1  0.99742300  0.34168000  0.97927300  1
  Na  Na16  1  0.00257700  0.65832000  0.02072700  1
  Na  Na17  1  0.03058500  0.42981900  0.64614800  1
  Na  Na18  1  0.72986100  0.49951100  0.37285900  1
  Na  Na19  1  0.24945400  0.28651300  0.92921800  1
  Na  Na20  1  0.22986100  0.50048900  0.12714100  1
  Na  Na21  1  0.55212000  0.25413900  0.78623600  1
  Na  Na22  1  0.50257700  0.34168000  0.47927300  1
  Na  Na23  1  0.46941500  0.42981900  0.14614800  1
  Na  Na24  1  0.75924400  0.10605400  0.96689900  1
  Na  Na25  1  0.25054600  0.28651300  0.42921800  1
  Na  Na26  1  0.03846700  0.08252000  0.85763500  1
  Na  Na27  1  0.94788000  0.25413900  0.28623600  1
  Na  Na28  1  0.02493500  0.12252600  0.57267400  1
  Na  Na29  1  0.74075600  0.10605400  0.46689900  1
  Na  Na30  1  0.46153300  0.08252000  0.35763500  1
  Na  Na31  1  0.47506500  0.12252600  0.07267400  1
  V  V0  1  0.79772300  0.90831200  0.77522700  1
  V  V1  1  0.70227700  0.90831200  0.27522700  1
  V  V2  1  0.28564800  0.69193800  0.84715300  1
  V  V3  1  0.21435200  0.69193800  0.34715300  1
  V  V4  1  0.78564800  0.30806200  0.65284700  1
  V  V5  1  0.71435200  0.30806200  0.15284700  1
  V  V6  1  0.29772300  0.09168800  0.72477300  1
  V  V7  1  0.20227700  0.09168800  0.22477300  1
  O  O0  1  0.88987500  0.89026700  0.93706400  1
  O  O1  1  0.19761600  0.89655200  0.78015100  1
  O  O2  1  0.88982000  0.90045500  0.61986400  1
  O  O3  1  0.61012500  0.89026700  0.43706400  1
  O  O4  1  0.67408600  0.74996900  0.81564800  1
  O  O5  1  0.30238400  0.89655200  0.28015100  1
  O  O6  1  0.61018000  0.90045500  0.11986400  1
  O  O7  1  0.38417400  0.68178700  0.69758900  1
  O  O8  1  0.82591400  0.74996900  0.31564800  1
  O  O9  1  0.15045900  0.54395900  0.89509100  1
  O  O10  1  0.11508000  0.66896700  0.50667300  1
  O  O11  1  0.11582600  0.68178700  0.19758900  1
  O  O12  1  0.34954100  0.54395900  0.39509100  1
  O  O13  1  0.61508000  0.33103300  0.99332700  1
  O  O14  1  0.38492000  0.66896700  0.00667300  1
  O  O15  1  0.65045900  0.45604100  0.60490900  1
  O  O16  1  0.88417400  0.31821300  0.80241100  1
  O  O17  1  0.88492000  0.33103300  0.49332700  1
  O  O18  1  0.84954100  0.45604100  0.10490900  1
  O  O19  1  0.17408600  0.25003100  0.68435200  1
  O  O20  1  0.61582600  0.31821300  0.30241100  1
  O  O21  1  0.38982000  0.09954500  0.88013600  1
  O  O22  1  0.69761600  0.10344800  0.71984900  1
  O  O23  1  0.32591400  0.25003100  0.18435200  1
  O  O24  1  0.38987500  0.10973300  0.56293600  1
  O  O25  1  0.11018000  0.09954500  0.38013600  1
  O  O26  1  0.80238400  0.10344800  0.21984900  1
  O  O27  1  0.11012500  0.10973300  0.06293600  1
loop_
_geom_bond_atom_site_label_1
_geom_bond_atom_site_label_2
_geom_bond_distance
_geom_bond_site_symmetry_2
Na0 O6 2.258268 1_556
Na0 O14 2.376151 1_556
Na0 O21 2.414485 1_565
Na0 O4 2.483577 1_555
Na1 O3 2.332954 1_555
Na1 O24 2.349909 1_565
Na1 O4 2.472418 1_555
Na1 O7 2.639990 1_555
Na1 O22 2.705016 1_565
Na2 O24 2.497158 1_565
Na2 O7 2.540203 1_555
Na2 O25 2.622720 1_565
Na2 O5 2.632449 1_555
Na2 O1 2.633520 1_555
Na2 O10 2.641325 1_555
Na3 O2 2.258268 1_555
Na3 O10 2.376151 1_655
Na3 O25 2.414485 1_665
Na3 O8 2.483577 1_555
Na4 O2 2.312640 1_455
Na4 O1 2.336251 1_555
Na4 O9 2.426654 1_555
Na4 O10 2.516470 1_555
Na5 O0 2.332954 1_554
Na5 O27 2.349909 1_665
Na5 O8 2.472418 1_555
Na5 O11 2.639990 1_655
Na5 O26 2.705016 1_565
Na6 O3 2.346113 1_555
Na6 O2 2.443891 1_555
Na6 O15 2.461693 1_555
Na6 O8 2.681169 1_555
Na6 O4 2.758878 1_555
Na7 O27 2.497158 1_565
Na7 O11 2.540203 1_555
Na7 O21 2.622720 1_564
Na7 O1 2.632449 1_554
Na7 O5 2.633520 1_555
Na7 O14 2.641325 1_555
Na8 O4 2.216972 1_555
Na8 O7 2.305849 1_555
Na8 O13 2.369035 1_555
Na8 O14 2.592622 1_556
Na9 O7 2.276535 1_555
Na9 O3 2.344284 1_555
Na9 O15 2.446936 1_555
Na9 O12 2.495539 1_555
Na10 O6 2.312640 1_555
Na10 O5 2.336251 1_555
Na10 O12 2.426654 1_555
Na10 O14 2.516470 1_555
Na11 O16 2.328698 1_555
Na11 O4 2.373437 1_555
Na11 O13 2.386203 1_555
Na11 O18 2.462854 1_556
Na12 O0 2.346113 1_554
Na12 O6 2.443891 1_555
Na12 O18 2.461693 1_555
Na12 O4 2.681169 1_554
Na12 O8 2.758878 1_555
Na13 O7 2.328698 1_555
Na13 O19 2.373437 1_555
Na13 O10 2.386203 1_555
Na13 O12 2.462854 1_555
Na14 O8 2.216972 1_555
Na14 O11 2.305849 1_655
Na14 O17 2.369035 1_555
Na14 O10 2.592622 1_655
Na15 O16 2.276535 1_555
Na15 O27 2.344284 1_656
Na15 O9 2.446936 1_655
Na15 O18 2.495539 1_556
Na16 O11 2.276535 1_555
Na16 O0 2.344284 1_454
Na16 O18 2.446936 1_455
Na16 O9 2.495539 1_554
Na17 O19 2.216972 1_555
Na17 O16 2.305849 1_455
Na17 O10 2.369035 1_555
Na17 O17 2.592622 1_455
Na18 O20 2.328698 1_555
Na18 O8 2.373437 1_555
Na18 O17 2.386203 1_555
Na18 O15 2.462854 1_555
Na19 O27 2.346113 1_556
Na19 O21 2.443891 1_555
Na19 O9 2.461693 1_555
Na19 O23 2.681169 1_556
Na19 O19 2.758878 1_555
Na20 O11 2.328698 1_555
Na20 O23 2.373437 1_555
Na20 O14 2.386203 1_555
Na20 O9 2.462854 1_554
Na21 O21 2.312640 1_555
Na21 O22 2.336251 1_555
Na21 O15 2.426654 1_555
Na21 O13 2.516470 1_555
Na22 O20 2.276535 1_555
Na22 O24 2.344284 1_555
Na22 O12 2.446936 1_555
Na22 O15 2.495539 1_555
Na23 O23 2.216972 1_555
Na23 O20 2.305849 1_555
Na23 O14 2.369035 1_555
Na23 O13 2.592622 1_554
Na24 O0 2.497158 1_545
Na24 O16 2.540203 1_555
Na24 O6 2.622720 1_546
Na24 O26 2.632449 1_556
Na24 O22 2.633520 1_555
Na24 O13 2.641325 1_555
Na25 O24 2.346113 1_555
Na25 O25 2.443891 1_555
Na25 O12 2.461693 1_555
Na25 O19 2.681169 1_555
Na25 O23 2.758878 1_555
Na26 O27 2.332954 1_556
Na26 O0 2.349909 1_445
Na26 O19 2.472418 1_555
Na26 O16 2.639990 1_455
Na26 O1 2.705016 1_545
Na27 O25 2.312640 1_655
Na27 O26 2.336251 1_555
Na27 O18 2.426654 1_555
Na27 O17 2.516470 1_555
Na28 O25 2.258268 1_555
Na28 O17 2.376151 1_455
Na28 O2 2.414485 1_445
Na28 O19 2.483577 1_555
Na29 O3 2.497158 1_545
Na29 O20 2.540203 1_555
Na29 O2 2.622720 1_545
Na29 O22 2.632449 1_555
Na29 O26 2.633520 1_555
Na29 O17 2.641325 1_555
Na30 O24 2.332954 1_555
Na30 O3 2.349909 1_545
Na30 O23 2.472418 1_555
Na30 O20 2.639990 1_555
Na30 O5 2.705016 1_545
Na31 O21 2.258268 1_554
Na31 O13 2.376151 1_554
Na31 O6 2.414485 1_545
Na31 O23 2.483577 1_555
O0 V0 1.923304 1_555
O1 V6 1.994978 1_565
O1 V2 1.995086 1_555
O2 V0 1.919528 1_555
O3 V1 1.923304 1_555
O4 V0 1.928784 1_555
O5 V7 1.994978 1_565
O5 V3 1.995086 1_555
O6 V1 1.919528 1_555
O7 V2 1.916583 1_555
O8 V1 1.928784 1_555
O9 V2 1.970843 1_555
O10 V3 1.941456 1_555
O11 V3 1.916583 1_555
O12 V3 1.970843 1_555
O13 V5 1.941456 1_556
O14 V2 1.941456 1_554
O15 V4 1.970843 1_555
O16 V4 1.916583 1_555
O17 V4 1.941456 1_555
O18 V5 1.970843 1_555
O19 V6 1.928784 1_555
O20 V5 1.916583 1_555
O21 V6 1.919528 1_555
O22 V0 1.994978 1_545
O22 V4 1.995086 1_555
O23 V7 1.928784 1_555
O24 V6 1.923304 1_555
O25 V7 1.919528 1_555
O26 V1 1.994978 1_545
O26 V5 1.995086 1_555
O27 V7 1.923304 1_555
