# generated using pymatgen
data_Li2TiFe3O8
_symmetry_space_group_name_H-M   'P 1'
_cell_length_a   8.40734462
_cell_length_b   8.61238021
_cell_length_c   8.39792502
_cell_angle_alpha   89.98774072
_cell_angle_beta   90.14909558
_cell_angle_gamma   89.93751043
_symmetry_Int_Tables_number   1
_chemical_formula_structural   Li2TiFe3O8
_chemical_formula_sum   'Li8 Ti4 Fe12 O32'
_cell_volume   608.06820915
_cell_formula_units_Z   4
loop_
 _symmetry_equiv_pos_site_id
 _symmetry_equiv_pos_as_xyz
  1  'x, y, z'
loop_
 _atom_site_type_symbol
 _atom_site_label
 _atom_site_symmetry_multiplicity
 _atom_site_fract_x
 _atom_site_fract_y
 _atom_site_fract_z
 _atom_site_occupancy
  Li  Li0  1  0.99784600  0.99940700  0.00065100  1
  Li  Li1  1  0.25273500  0.25114700  0.25214200  1
  Li  Li2  1  0.24960400  0.75059200  0.74985500  1
  Li  Li3  1  0.49899300  0.99924100  0.49811300  1
  Li  Li4  1  0.49880000  0.50002900  0.00381200  1
  Li  Li5  1  0.75292800  0.24974300  0.74864100  1
  Li  Li6  1  0.75077200  0.75048700  0.24749100  1
  Li  Li7  1  0.00059400  0.49831200  0.50235300  1
  Ti  Ti0  1  0.12406500  0.87341600  0.37543300  1
  Ti  Ti1  1  0.37226900  0.13318800  0.87243200  1
  Ti  Ti2  1  0.61888500  0.61864800  0.62585700  1
  Ti  Ti3  1  0.87894300  0.37065500  0.12249700  1
  Fe  Fe0  1  0.12526000  0.12340600  0.62330500  1
  Fe  Fe1  1  0.12317300  0.37649900  0.87206600  1
  Fe  Fe2  1  0.12585400  0.62644500  0.12575300  1
  Fe  Fe3  1  0.37387200  0.37352000  0.62172700  1
  Fe  Fe4  1  0.37474500  0.62601000  0.37369400  1
  Fe  Fe5  1  0.37430000  0.87334000  0.12533300  1
  Fe  Fe6  1  0.62691000  0.37760600  0.37143300  1
  Fe  Fe7  1  0.62384600  0.12818300  0.12256300  1
  Fe  Fe8  1  0.62455500  0.87606200  0.87660200  1
  Fe  Fe9  1  0.87666700  0.12289800  0.37607100  1
  Fe  Fe10  1  0.87407400  0.87780500  0.62686800  1
  Fe  Fe11  1  0.87126100  0.62267300  0.87557600  1
  O  O0  1  0.11619100  0.10641100  0.38198500  1
  O  O1  1  0.11501400  0.88516200  0.61121500  1
  O  O2  1  0.10362400  0.61520100  0.88482000  1
  O  O3  1  0.14397600  0.13139400  0.86810800  1
  O  O4  1  0.10925000  0.38455100  0.11506500  1
  O  O5  1  0.13795300  0.36036500  0.63500800  1
  O  O6  1  0.13266900  0.64147000  0.36565800  1
  O  O7  1  0.13284800  0.86496600  0.13915300  1
  O  O8  1  0.37081700  0.13510700  0.64194500  1
  O  O9  1  0.36557400  0.35870500  0.86656200  1
  O  O10  1  0.36289400  0.63836800  0.13388300  1
  O  O11  1  0.39100100  0.61420200  0.61961400  1
  O  O12  1  0.35969500  0.86416200  0.36651400  1
  O  O13  1  0.39073900  0.38876600  0.38516700  1
  O  O14  1  0.39123500  0.11424100  0.11206400  1
  O  O15  1  0.39675100  0.89076100  0.88227800  1
  O  O16  1  0.61754100  0.39206100  0.61416000  1
  O  O17  1  0.61859100  0.62016700  0.39443100  1
  O  O18  1  0.61630400  0.88573100  0.10269700  1
  O  O19  1  0.64089400  0.36815900  0.13481400  1
  O  O20  1  0.61234700  0.12057300  0.89326400  1
  O  O21  1  0.63562200  0.13446700  0.35257100  1
  O  O22  1  0.63152200  0.86104700  0.64818800  1
  O  O23  1  0.63987600  0.63074100  0.86292100  1
  O  O24  1  0.86473900  0.36431000  0.35912300  1
  O  O25  1  0.86017900  0.14133000  0.13067900  1
  O  O26  1  0.85040400  0.86523000  0.86896900  1
  O  O27  1  0.88842800  0.88462600  0.38429200  1
  O  O28  1  0.86119900  0.63674900  0.64431900  1
  O  O29  1  0.88486800  0.11237500  0.61340200  1
  O  O30  1  0.88456300  0.38179900  0.88912000  1
  O  O31  1  0.88174400  0.60762800  0.10788600  1
loop_
_geom_bond_atom_site_label_1
_geom_bond_atom_site_label_2
_geom_bond_distance
_geom_bond_site_symmetry_2
Li0 O7 1.992846 1_655
Li0 O25 2.007502 1_565
Li0 O3 2.012484 1_664
Li0 O26 2.022727 1_554
Li1 O13 1.998936 1_555
Li1 O0 2.017352 1_555
Li1 O4 2.022280 1_555
Li1 O14 2.033390 1_555
Li2 O1 1.992203 1_555
Li2 O11 1.998383 1_555
Li2 O2 2.039699 1_555
Li2 O15 2.054544 1_555
Li3 O12 1.985720 1_555
Li3 O8 1.998523 1_565
Li3 O21 2.044341 1_565
Li3 O22 2.058049 1_555
Li4 O19 1.979136 1_555
Li4 O10 1.980484 1_555
Li4 O9 2.015284 1_554
Li4 O23 2.020806 1_554
Li5 O30 1.976504 1_555
Li5 O29 1.980974 1_555
Li5 O16 2.015705 1_555
Li5 O20 2.029616 1_555
Li6 O27 1.997603 1_555
Li6 O17 2.006657 1_555
Li6 O18 2.025516 1_555
Li6 O31 2.026115 1_555
Li7 O5 1.993963 1_555
Li7 O24 2.019801 1_455
Li7 O6 2.019881 1_555
Li7 O28 2.054551 1_455
Fe0 O29 2.024887 1_455
Fe0 O0 2.033135 1_555
Fe0 O5 2.046055 1_555
Fe0 O1 2.056268 1_545
Fe0 O3 2.062610 1_555
Fe0 O8 2.072565 1_555
Fe1 O5 1.999846 1_555
Fe1 O30 2.012023 1_455
Fe1 O9 2.044179 1_555
Fe1 O4 2.045532 1_556
Fe1 O2 2.064998 1_555
Fe1 O3 2.118255 1_555
Fe2 O10 1.996624 1_555
Fe2 O6 2.019551 1_555
Fe2 O2 2.033803 1_554
Fe2 O7 2.058233 1_555
Fe2 O31 2.063956 1_455
Fe2 O4 2.090038 1_555
Fe3 O5 1.990225 1_555
Fe3 O13 1.996341 1_555
Fe3 O16 2.056143 1_555
Fe3 O8 2.060469 1_555
Fe3 O9 2.061401 1_555
Fe3 O11 2.078073 1_555
Fe4 O10 2.018898 1_555
Fe4 O6 2.040362 1_555
Fe4 O13 2.049738 1_555
Fe4 O12 2.055679 1_555
Fe4 O17 2.057589 1_555
Fe4 O11 2.071848 1_555
Fe5 O10 2.027309 1_555
Fe5 O12 2.030985 1_555
Fe5 O7 2.034943 1_555
Fe5 O18 2.046862 1_555
Fe5 O15 2.055821 1_554
Fe5 O14 2.082745 1_565
Fe6 O13 1.991435 1_555
Fe6 O19 1.992563 1_555
Fe6 O24 2.005598 1_555
Fe6 O16 2.043945 1_555
Fe6 O17 2.099084 1_555
Fe6 O21 2.101234 1_555
Fe7 O20 1.928941 1_554
Fe7 O21 1.934640 1_555
Fe7 O14 1.961209 1_555
Fe7 O25 1.991270 1_555
Fe7 O19 2.074441 1_555
Fe7 O18 2.095794 1_545
Fe8 O18 1.902014 1_556
Fe8 O26 1.902227 1_555
Fe8 O15 1.919984 1_555
Fe8 O22 1.923625 1_555
Fe8 O20 2.112896 1_565
Fe8 O23 2.119739 1_555
Fe9 O29 1.996136 1_555
Fe9 O0 2.019087 1_655
Fe9 O21 2.037951 1_555
Fe9 O27 2.055499 1_545
Fe9 O25 2.071128 1_555
Fe9 O24 2.086252 1_555
Fe10 O29 2.025491 1_565
Fe10 O1 2.031324 1_655
Fe10 O27 2.041856 1_555
Fe10 O26 2.046234 1_555
Fe10 O22 2.052761 1_555
Fe10 O28 2.084151 1_555
Fe11 O28 1.947446 1_555
Fe11 O23 1.949121 1_555
Fe11 O2 1.955884 1_655
Fe11 O31 1.956943 1_556
Fe11 O30 2.080460 1_555
Fe11 O26 2.096860 1_555
O0 Ti0 2.008431 1_545
O1 Ti0 1.984337 1_555
O3 Ti1 1.919666 1_555
O4 Ti3 1.941260 1_455
O6 Ti0 2.000548 1_555
O7 Ti0 1.987173 1_555
O8 Ti1 1.935686 1_555
O9 Ti1 1.943603 1_555
O11 Ti2 1.916905 1_555
O12 Ti0 1.984148 1_555
O14 Ti1 2.024842 1_554
O15 Ti1 2.099361 1_565
O16 Ti2 1.953989 1_555
O17 Ti2 1.943535 1_555
O19 Ti3 2.004438 1_555
O20 Ti1 2.028324 1_555
O22 Ti2 2.098860 1_555
O23 Ti2 2.000939 1_555
O24 Ti3 1.991804 1_555
O25 Ti3 1.982686 1_555
O27 Ti0 1.984916 1_655
O28 Ti2 2.048818 1_555
O30 Ti3 1.962905 1_556
O31 Ti3 2.044725 1_555
