# generated using pymatgen
data_Li2V(OF)2
_symmetry_space_group_name_H-M   'P 1'
_cell_length_a   5.08035788
_cell_length_b   5.90054800
_cell_length_c   9.79360326
_cell_angle_alpha   90.00080231
_cell_angle_beta   80.44345863
_cell_angle_gamma   90.00069705
_symmetry_Int_Tables_number   1
_chemical_formula_structural   Li2V(OF)2
_chemical_formula_sum   'Li8 V4 O8 F8'
_cell_volume   289.50756564
_cell_formula_units_Z   4
loop_
 _symmetry_equiv_pos_site_id
 _symmetry_equiv_pos_as_xyz
  1  'x, y, z'
loop_
 _atom_site_type_symbol
 _atom_site_label
 _atom_site_symmetry_multiplicity
 _atom_site_fract_x
 _atom_site_fract_y
 _atom_site_fract_z
 _atom_site_occupancy
  Li  Li0  1  0.99980700  0.13385700  0.25004600  1
  Li  Li1  1  0.50019500  0.13385600  0.74995600  1
  Li  Li2  1  0.50017500  0.86606100  0.24996300  1
  Li  Li3  1  0.99982200  0.86606000  0.75003500  1
  Li  Li4  1  0.00003800  0.60800400  0.25005700  1
  Li  Li5  1  0.49996600  0.60800400  0.74994200  1
  Li  Li6  1  0.49997800  0.39194400  0.24992400  1
  Li  Li7  1  0.00001700  0.39194500  0.75007600  1
  V  V0  1  0.75000500  0.88274100  0.49999400  1
  V  V1  1  0.75000200  0.11730900  0.00000100  1
  V  V2  1  0.24999500  0.88290300  0.00000300  1
  V  V3  1  0.24998700  0.11762900  0.50000800  1
  O  O0  1  0.91429100  0.89611200  0.11116000  1
  O  O1  1  0.41462400  0.89595300  0.61107300  1
  O  O2  1  0.08536900  0.89594900  0.38892900  1
  O  O3  1  0.58571000  0.89610600  0.88883500  1
  O  O4  1  0.41465500  0.10406200  0.11110300  1
  O  O5  1  0.91435200  0.10384500  0.61117000  1
  O  O6  1  0.58566000  0.10384300  0.38882700  1
  O  O7  1  0.08535200  0.10405900  0.88889800  1
  F  F0  1  0.65482400  0.64768300  0.36320000  1
  F  F1  1  0.15485800  0.64788900  0.86316600  1
  F  F2  1  0.15485500  0.35209400  0.36315500  1
  F  F3  1  0.65484900  0.35220400  0.86321600  1
  F  F4  1  0.34513700  0.64789300  0.13683000  1
  F  F5  1  0.84517100  0.64768700  0.63679400  1
  F  F6  1  0.84515200  0.35220900  0.13678800  1
  F  F7  1  0.34515100  0.35210000  0.63685000  1
loop_
_geom_bond_atom_site_label_1
_geom_bond_atom_site_label_2
_geom_bond_distance
_geom_bond_site_symmetry_2
Li0 O0 2.050109 1_545
Li0 O2 2.050855 1_645
Li0 O6 2.314310 1_555
Li0 O4 2.317796 1_655
Li1 O3 2.050113 1_545
Li1 O1 2.050816 1_545
Li1 O5 2.314372 1_555
Li1 O7 2.317771 1_555
Li2 O6 2.050057 1_565
Li2 O4 2.051005 1_565
Li2 O0 2.314293 1_555
Li2 O2 2.317762 1_555
Li3 O5 2.050085 1_565
Li3 O7 2.051000 1_665
Li3 O3 2.314263 1_555
Li3 O1 2.317730 1_655
Li4 O2 2.262762 1_555
Li4 O0 2.264292 1_455
Li5 O1 2.262814 1_555
Li5 O3 2.264200 1_555
Li6 O4 2.262155 1_555
Li6 O6 2.264202 1_555
Li7 O7 2.262233 1_555
Li7 O5 2.264154 1_455
O0 V2 1.866392 1_655
O0 V1 1.971564 1_565
O1 V0 1.864722 1_555
O1 V3 1.973774 1_565
O2 V0 1.864591 1_455
O2 V3 1.973791 1_565
O3 V2 1.866482 1_556
O3 V1 1.971604 1_566
O4 V1 1.864687 1_555
O4 V2 1.971994 1_545
O5 V3 1.866271 1_655
O5 V0 1.971422 1_545
O6 V3 1.866510 1_555
O6 V0 1.971388 1_545
O7 V1 1.864705 1_456
O7 V2 1.972001 1_546
F0 Li4 1.926974 1_655
F0 Li2 1.948562 1_555
F0 V0 2.041411 1_555
F0 Li6 2.101515 1_555
F1 Li5 1.927020 1_555
F1 Li3 1.948074 1_455
F1 V2 2.041451 1_556
F1 Li7 2.101298 1_555
F2 Li6 1.927085 1_555
F2 Li0 1.948192 1_455
F2 V3 2.039385 1_555
F2 Li4 2.101180 1_555
F3 Li7 1.926815 1_655
F3 Li1 1.948568 1_555
F3 V1 2.040681 1_556
F3 Li5 2.101885 1_555
F4 Li4 1.926997 1_555
F4 Li2 1.948047 1_555
F4 V2 2.041409 1_555
F4 Li6 2.101378 1_555
F5 Li5 1.926959 1_555
F5 Li3 1.948539 1_555
F5 V0 2.041443 1_555
F5 Li7 2.101598 1_655
F6 Li6 1.926820 1_555
F6 Li0 1.948607 1_555
F6 V1 2.040676 1_555
F6 Li4 2.101805 1_655
F7 Li7 1.927107 1_555
F7 Li1 1.948223 1_555
F7 V3 2.039357 1_555
F7 Li5 2.101079 1_555
