# generated using pymatgen
data_Li4MnOF4
_symmetry_space_group_name_H-M   'P 1'
_cell_length_a   8.20886953
_cell_length_b   8.20890219
_cell_length_c   8.20889946
_cell_angle_alpha   119.86128674
_cell_angle_beta   75.46042797
_cell_angle_gamma   75.46028840
_symmetry_Int_Tables_number   1
_chemical_formula_structural   Li4MnOF4
_chemical_formula_sum   'Li16 Mn4 O4 F16'
_cell_volume   415.16010447
_cell_formula_units_Z   4
loop_
 _symmetry_equiv_pos_site_id
 _symmetry_equiv_pos_as_xyz
  1  'x, y, z'
loop_
 _atom_site_type_symbol
 _atom_site_label
 _atom_site_symmetry_multiplicity
 _atom_site_fract_x
 _atom_site_fract_y
 _atom_site_fract_z
 _atom_site_occupancy
  Li  Li0  1  0.46986300  0.36656600  0.16357100  1
  Li  Li1  1  0.46986300  0.86656600  0.66357200  1
  Li  Li2  1  0.96986300  0.11656600  0.41357200  1
  Li  Li3  1  0.96986300  0.61656600  0.91357100  1
  Li  Li4  1  0.29700400  0.58643000  0.61656700  1
  Li  Li5  1  0.29700400  0.08643000  0.11656600  1
  Li  Li6  1  0.79700400  0.33643000  0.86656700  1
  Li  Li7  1  0.79700400  0.83643000  0.36656700  1
  Li  Li8  1  0.70299500  0.91357100  0.88343500  1
  Li  Li9  1  0.70299500  0.41357100  0.38343500  1
  Li  Li10  1  0.20299500  0.66357100  0.13343400  1
  Li  Li11  1  0.20299500  0.16357100  0.63343500  1
  Li  Li12  1  0.53013600  0.13343400  0.33643000  1
  Li  Li13  1  0.53013600  0.63343400  0.83643000  1
  Li  Li14  1  0.03013600  0.88343400  0.58643000  1
  Li  Li15  1  0.03013600  0.38343400  0.08643000  1
  Mn  Mn0  1  0.50001000  0.74999800  0.24999100  1
  Mn  Mn1  1  0.00000400  0.49999600  0.49999600  1
  Mn  Mn2  1  0.49999900  0.25000300  0.74999500  1
  Mn  Mn3  1  0.99999400  0.99999900  0.00000300  1
  O  O0  1  0.50000000  0.50000200  0.00000300  1
  O  O1  1  0.50000000  0.99999900  0.50000000  1
  O  O2  1  0.99999900  0.25000000  0.25000000  1
  O  O3  1  0.00000000  0.74999800  0.74999900  1
  F  F0  1  0.45821300  0.61643600  0.42535100  1
  F  F1  1  0.45821200  0.11643500  0.92535100  1
  F  F2  1  0.95821200  0.36643700  0.67535100  1
  F  F3  1  0.95821300  0.86643400  0.17535000  1
  F  F4  1  0.69108400  0.17535100  0.13356400  1
  F  F5  1  0.69108500  0.67535200  0.63356400  1
  F  F6  1  0.19108500  0.92535100  0.38356300  1
  F  F7  1  0.19108500  0.42535000  0.88356400  1
  F  F8  1  0.30891500  0.32464800  0.36643700  1
  F  F9  1  0.30891600  0.82465000  0.86643700  1
  F  F10  1  0.80891500  0.07464900  0.61643700  1
  F  F11  1  0.80891500  0.57465000  0.11643600  1
  F  F12  1  0.54178800  0.88356400  0.07465000  1
  F  F13  1  0.54178700  0.38356400  0.57465000  1
  F  F14  1  0.04178700  0.63356500  0.32465000  1
  F  F15  1  0.04178700  0.13356400  0.82465000  1
loop_
_geom_bond_atom_site_label_1
_geom_bond_atom_site_label_2
_geom_bond_distance
_geom_bond_site_symmetry_2
Li0 O0 2.120794 1_555
Li1 O1 2.120801 1_555
Li2 O2 2.120807 1_555
Li3 O3 2.120794 1_655
Li4 O3 2.120782 1_555
Li5 O2 2.120789 1_455
Li6 O0 2.120782 1_556
Li7 O1 2.120782 1_555
Li8 O3 2.120790 1_655
Li9 O2 2.120782 1_555
Li10 O0 2.120791 1_555
Li11 O1 2.120790 1_545
Li12 O1 2.120800 1_545
Li13 O0 2.120800 1_556
Li14 O3 2.120800 1_555
Li15 O2 2.120794 1_455
Mn0 O0 2.056502 1_555
Mn0 O1 2.056527 1_555
Mn1 O2 2.056514 1_455
Mn1 O3 2.056531 1_555
Mn2 O1 2.056518 1_545
Mn2 O0 2.056559 1_556
Mn3 O3 2.056522 1_654
Mn3 O2 2.056539 1_565
F0 Li4 1.944607 1_555
F0 Li0 2.059930 1_555
F0 Li1 2.059933 1_555
F0 Li9 2.081188 1_555
F0 Mn0 2.214623 1_555
F1 Li5 1.944592 1_556
F1 Li1 2.059918 1_545
F1 Li0 2.059938 1_556
F1 Li8 2.081190 1_545
F1 Mn2 2.214627 1_555
F2 Li6 1.944609 1_555
F2 Li2 2.059925 1_555
F2 Li3 2.059930 1_555
F2 Li11 2.081198 1_655
F2 Mn1 2.214561 1_655
F3 Li7 1.944602 1_555
F3 Li3 2.059918 1_554
F3 Li2 2.059946 1_565
F3 Li10 2.081180 1_655
F3 Mn3 2.214537 1_555
F4 Li0 1.944592 1_555
F4 Li8 2.059922 1_544
F4 Li9 2.059938 1_555
F4 Li12 2.081197 1_555
F4 Mn3 2.214521 1_545
F5 Li1 1.944589 1_555
F5 Li8 2.059930 1_555
F5 Li9 2.059930 1_555
F5 Li13 2.081207 1_555
F5 Mn1 2.214582 1_655
F6 Li2 1.944589 1_465
F6 Li10 2.059926 1_555
F6 Li11 2.059938 1_565
F6 Li14 2.081207 1_555
F6 Mn0 2.214617 1_555
F7 Li3 1.944602 1_455
F7 Li11 2.059921 1_555
F7 Li10 2.059933 1_556
F7 Li15 2.081195 1_556
F7 Mn2 2.214537 1_555
F8 Li12 1.944588 1_555
F8 Li5 2.059931 1_555
F8 Li4 2.059935 1_555
F8 Li0 2.081203 1_555
F8 Mn1 2.214526 1_555
F9 Li13 1.944590 1_555
F9 Li5 2.059918 1_566
F9 Li4 2.059938 1_555
F9 Li1 2.081181 1_555
F9 Mn3 2.214598 1_456
F10 Li14 1.944592 1_645
F10 Li7 2.059930 1_545
F10 Li6 2.059930 1_555
F10 Li2 2.081191 1_555
F10 Mn2 2.214568 1_555
F11 Li15 1.944600 1_655
F11 Li6 2.059929 1_554
F11 Li7 2.059930 1_555
F11 Li3 2.081185 1_554
F11 Mn0 2.214488 1_555
F12 Li8 1.944599 1_554
F12 Li12 2.059922 1_565
F12 Li13 2.059938 1_554
F12 Li5 2.081204 1_565
F12 Mn0 2.214499 1_555
F13 Li9 1.944603 1_555
F13 Li13 2.059926 1_555
F13 Li12 2.059934 1_555
F13 Li4 2.081194 1_555
F13 Mn2 2.214501 1_555
F14 Li10 1.944603 1_555
F14 Li14 2.059922 1_555
F14 Li15 2.059938 1_555
F14 Li7 2.081190 1_455
F14 Mn1 2.214560 1_555
F15 Li11 1.944603 1_555
F15 Li15 2.059926 1_556
F15 Li14 2.059934 1_545
F15 Li6 2.081194 1_455
F15 Mn3 2.214591 1_446
