# generated using pymatgen
data_RbAl11O17
_symmetry_space_group_name_H-M   'P 1'
_cell_length_a   5.59267871
_cell_length_b   5.59267882
_cell_length_c   22.83821012
_cell_angle_alpha   90.00000042
_cell_angle_beta   89.99999877
_cell_angle_gamma   120.00002680
_symmetry_Int_Tables_number   1
_chemical_formula_structural   RbAl11O17
_chemical_formula_sum   'Rb2 Al22 O34'
_cell_volume   618.63192511
_cell_formula_units_Z   2
loop_
 _symmetry_equiv_pos_site_id
 _symmetry_equiv_pos_as_xyz
  1  'x, y, z'
loop_
 _atom_site_type_symbol
 _atom_site_label
 _atom_site_symmetry_multiplicity
 _atom_site_fract_x
 _atom_site_fract_y
 _atom_site_fract_z
 _atom_site_occupancy
  Rb  Rb0  1  0.33333264  0.66666684  0.75000003  1
  Rb  Rb1  1  0.66666625  0.33333317  0.24999986  1
  Al  Al0  1  0.16733363  0.83266640  0.89481633  1
  Al  Al1  1  0.16733340  0.83266660  0.60518368  1
  Al  Al2  1  0.33333343  0.66666650  0.17493347  1
  Al  Al3  1  0.33333328  0.66666669  0.02486884  1
  Al  Al4  1  0.33333348  0.66666679  0.32506399  1
  Al  Al5  1  -0.00000002  -0.00000002  0.00000721  1
  Al  Al6  1  -0.00000003  0.00000017  0.49999278  1
  Al  Al7  1  0.33333336  0.66666689  0.47513102  1
  Al  Al8  1  0.16733338  0.33466703  0.60518370  1
  Al  Al9  1  0.16733367  0.33466735  0.89481630  1
  Al  Al10  1  0.66533293  0.83266657  0.60518371  1
  Al  Al11  1  0.66533274  0.83266648  0.89481629  1
  Al  Al12  1  0.33465451  0.16732736  0.39480526  1
  Al  Al13  1  0.33465480  0.16732727  0.10519457  1
  Al  Al14  1  0.83267295  0.66534579  0.39480525  1
  Al  Al15  1  0.66666650  0.33333345  0.67493036  1
  Al  Al16  1  0.66666657  0.33333349  0.82507158  1
  Al  Al17  1  0.66666672  0.33333341  0.52486804  1
  Al  Al18  1  0.66666675  0.33333328  0.97513194  1
  Al  Al19  1  0.83267270  0.66534519  0.10519456  1
  Al  Al20  1  0.83267297  0.16732738  0.39480528  1
  Al  Al21  1  0.83267271  0.16732731  0.10519455  1
  O  O0  1  0.15672814  0.84327185  0.04912826  1
  O  O1  1  0.15672820  0.84327193  0.45087168  1
  O  O2  1  0.00286465  0.50143234  0.85653556  1
  O  O3  1  0.00286550  0.50143281  0.64346392  1
  O  O4  1  0.33333343  0.66666674  0.25000210  1
  O  O5  1  0.15672830  0.31345633  0.04912829  1
  O  O6  1  0.00000004  -0.00000002  0.13991149  1
  O  O7  1  0.33333324  0.66666671  0.94538383  1
  O  O8  1  0.33333329  0.66666677  0.55461596  1
  O  O9  1  0.00000012  0.00000020  0.36008866  1
  O  O10  1  0.00000009  0.00000002  0.86010485  1
  O  O11  1  -0.00000004  -0.00000002  0.63989486  1
  O  O12  1  0.49856712  0.99713444  0.64346392  1
  O  O13  1  0.49856762  0.99713531  0.85653554  1
  O  O14  1  0.15672824  0.31345653  0.45087169  1
  O  O15  1  0.31343572  0.15671805  0.54911442  1
  O  O16  1  0.31343568  0.15671801  0.95088538  1
  O  O17  1  0.49856753  0.50143254  0.85653549  1
  O  O18  1  0.49856703  0.50143292  0.64346397  1
  O  O19  1  0.50143564  0.49856435  0.14347576  1
  O  O20  1  0.50143625  0.49856403  0.35652455  1
  O  O21  1  0.68654367  0.84327169  0.04912828  1
  O  O22  1  0.68654365  0.84327177  0.45087168  1
  O  O23  1  0.84328209  0.68656434  0.95088538  1
  O  O24  1  0.84328199  0.68656435  0.54911443  1
  O  O25  1  0.50143615  0.00287227  0.35652459  1
  O  O26  1  0.66666681  0.33333345  0.44537567  1
  O  O27  1  0.66666673  0.33333319  0.74999803  1
  O  O28  1  0.50143560  0.00287102  0.14347572  1
  O  O29  1  0.66666678  0.33333329  0.05462432  1
  O  O30  1  0.99712898  0.49856441  0.14347572  1
  O  O31  1  0.99712806  0.49856417  0.35652459  1
  O  O32  1  0.84328224  0.15671783  0.95088539  1
  O  O33  1  0.84328214  0.15671797  0.54911443  1
loop_
_geom_bond_atom_site_label_1
_geom_bond_atom_site_label_2
_geom_bond_distance
_geom_bond_site_symmetry_2
Al0 O10 1.804399 1_565
Al0 O13 1.827062 1_555
Al0 O2 1.827062 1_555
Al0 O7 1.979750 1_555
Al0 O23 2.027565 1_455
Al0 O16 2.027565 1_565
Al1 O11 1.804395 1_565
Al1 O12 1.827055 1_555
Al1 O3 1.827055 1_555
Al1 O8 1.979755 1_555
Al1 O24 2.027567 1_455
Al1 O15 2.027568 1_565
Al2 O4 1.714433 1_555
Al2 O19 1.779818 1_555
Al2 O30 1.779818 1_455
Al2 O28 1.779818 1_565
Al3 O5 1.798219 1_555
Al3 O21 1.798219 1_555
Al3 O0 1.798219 1_555
Al3 O7 1.815295 1_554
Al4 O4 1.714279 1_555
Al4 O31 1.779849 1_455
Al4 O25 1.779849 1_565
Al4 O20 1.779849 1_555
Al5 O23 1.887636 1_444
Al5 O32 1.887636 1_454
Al5 O16 1.887636 1_554
Al5 O21 1.887706 1_445
Al5 O0 1.887706 1_545
Al5 O5 1.887706 1_555
Al6 O15 1.887634 1_555
Al6 O33 1.887634 1_455
Al6 O24 1.887634 1_445
Al6 O22 1.887706 1_445
Al6 O14 1.887706 1_555
Al6 O1 1.887707 1_545
Al7 O22 1.798218 1_555
Al7 O1 1.798218 1_555
Al7 O14 1.798218 1_555
Al7 O8 1.815294 1_555
Al8 O11 1.804395 1_555
Al8 O18 1.827055 1_555
Al8 O3 1.827055 1_555
Al8 O8 1.979755 1_555
Al8 O33 2.027567 1_455
Al8 O15 2.027568 1_555
Al9 O10 1.804399 1_555
Al9 O17 1.827061 1_555
Al9 O2 1.827062 1_555
Al9 O7 1.979751 1_555
Al9 O32 2.027565 1_455
Al9 O16 2.027565 1_555
Al10 O11 1.804395 1_665
Al10 O18 1.827055 1_555
Al10 O12 1.827055 1_555
Al10 O8 1.979755 1_555
Al10 O33 2.027568 1_565
Al10 O24 2.027568 1_555
Al11 O10 1.804399 1_665
Al11 O17 1.827062 1_555
Al11 O13 1.827062 1_555
Al11 O7 1.979751 1_555
Al11 O32 2.027565 1_565
Al11 O23 2.027566 1_555
Al12 O9 1.804394 1_555
Al12 O20 1.827073 1_555
Al12 O25 1.827073 1_555
Al12 O26 1.979840 1_555
Al12 O1 2.027536 1_545
Al12 O14 2.027536 1_555
Al13 O6 1.804399 1_555
Al13 O19 1.827080 1_555
Al13 O28 1.827080 1_555
Al13 O29 1.979836 1_555
Al13 O0 2.027534 1_545
Al13 O5 2.027535 1_555
Al14 O9 1.804394 1_665
Al14 O20 1.827073 1_555
Al14 O31 1.827073 1_555
Al14 O26 1.979840 1_555
Al14 O1 2.027535 1_655
Al14 O22 2.027536 1_555
Al15 O27 1.714411 1_555
Al15 O18 1.779874 1_555
Al15 O3 1.779874 1_655
Al15 O12 1.779874 1_545
Al16 O27 1.714546 1_555
Al16 O17 1.779847 1_555
Al16 O2 1.779847 1_655
Al16 O13 1.779848 1_545
Al17 O24 1.798222 1_555
Al17 O15 1.798222 1_555
Al17 O33 1.798222 1_555
Al17 O26 1.815463 1_555
Al18 O23 1.798224 1_555
Al18 O32 1.798224 1_555
Al18 O16 1.798224 1_555
Al18 O29 1.815464 1_556
Al19 O6 1.804399 1_665
Al19 O19 1.827080 1_555
Al19 O30 1.827080 1_555
Al19 O29 1.979836 1_555
Al19 O0 2.027534 1_655
Al19 O21 2.027534 1_555
Al20 O9 1.804395 1_655
Al20 O31 1.827073 1_555
Al20 O25 1.827073 1_555
Al20 O26 1.979840 1_555
Al20 O14 2.027535 1_655
Al20 O22 2.027536 1_545
Al21 O6 1.804400 1_655
Al21 O28 1.827080 1_555
Al21 O30 1.827080 1_555
Al21 O29 1.979836 1_555
Al21 O5 2.027534 1_655
Al21 O21 2.027534 1_545
O2 Rb0 2.912347 1_555
O3 Rb0 2.912356 1_555
O4 Rb1 3.228933 1_565
O4 Rb1 3.228934 1_555
O4 Rb1 3.228936 1_455
O12 Rb0 2.912357 1_555
O13 Rb0 2.912348 1_555
O17 Rb0 2.912350 1_555
O18 Rb0 2.912359 1_555
O19 Rb1 2.912113 1_555
O20 Rb1 2.912122 1_555
O25 Rb1 2.912122 1_555
O27 Rb0 3.228930 1_655
O27 Rb0 3.228932 1_545
O27 Rb0 3.228940 1_555
O28 Rb1 2.912114 1_555
O30 Rb1 2.912116 1_555
O31 Rb1 2.912125 1_555
