# generated using pymatgen
data_Co2OF3
_symmetry_space_group_name_H-M   'P 1'
_cell_length_a   5.64385228
_cell_length_b   5.64396618
_cell_length_c   5.64394432
_cell_angle_alpha   105.54587056
_cell_angle_beta   67.81521169
_cell_angle_gamma   69.24222393
_symmetry_Int_Tables_number   1
_chemical_formula_structural   Co2OF3
_chemical_formula_sum   'Co4 O2 F6'
_cell_volume   137.88679496
_cell_formula_units_Z   2
loop_
 _symmetry_equiv_pos_site_id
 _symmetry_equiv_pos_as_xyz
  1  'x, y, z'
loop_
 _atom_site_type_symbol
 _atom_site_label
 _atom_site_symmetry_multiplicity
 _atom_site_fract_x
 _atom_site_fract_y
 _atom_site_fract_z
 _atom_site_occupancy
  Co  Co0  1  0.53578500  0.96420800  0.50000900  1
  Co  Co1  1  0.24752700  0.50030200  0.25218800  1
  Co  Co2  1  0.75187800  0.50032900  0.74781700  1
  Co  Co3  1  0.96611200  0.03385600  0.00001300  1
  O  O0  1  0.80821600  0.69179800  0.49996500  1
  O  O1  1  0.69022400  0.30981400  0.99997900  1
  F  F0  1  0.28011100  0.71988400  0.00000000  1
  F  F1  1  0.22013800  0.27986600  0.49999700  1
  F  F2  1  0.74965100  0.80644500  0.05678300  1
  F  F3  1  0.25036500  0.80640100  0.55610700  1
  F  F4  1  0.25033600  0.19354100  0.94323300  1
  F  F5  1  0.74965700  0.19355700  0.44390900  1
loop_
_geom_bond_atom_site_label_1
_geom_bond_atom_site_label_2
_geom_bond_distance
_geom_bond_site_symmetry_2
Co0 O0 1.746930 1_555
Co0 F1 2.024362 1_565
Co0 F4 2.066719 1_565
Co0 F3 2.066734 1_555
Co0 F5 2.066741 1_565
Co0 F2 2.066753 1_555
Co1 O0 1.985722 1_455
Co1 O1 2.003609 1_554
Co1 F3 2.092629 1_555
Co1 F4 2.092803 1_554
Co1 F1 2.105627 1_555
Co1 F0 2.122497 1_555
Co2 O0 1.985865 1_555
Co2 O1 2.003554 1_555
Co2 F2 2.092627 1_556
Co2 F5 2.092784 1_555
Co2 F1 2.105613 1_655
Co2 F0 2.122418 1_556
Co3 O1 1.769642 1_554
Co3 F0 2.013591 1_645
Co3 F2 2.068530 1_545
Co3 F5 2.068624 1_555
Co3 F3 2.068688 1_644
Co3 F4 2.068704 1_654
