# generated using pymatgen
data_Fe10O11F9
_symmetry_space_group_name_H-M   'P 1'
_cell_length_a   15.31217900
_cell_length_b   4.75564500
_cell_length_c   4.76464378
_cell_angle_alpha   86.18794252
_cell_angle_beta   90.00000000
_cell_angle_gamma   90.00000000
_symmetry_Int_Tables_number   1
_chemical_formula_structural   Fe10O11F9
_chemical_formula_sum   'Fe10 O11 F9'
_cell_volume   346.19032034
_cell_formula_units_Z   1
loop_
 _symmetry_equiv_pos_site_id
 _symmetry_equiv_pos_as_xyz
  1  'x, y, z'
loop_
 _atom_site_type_symbol
 _atom_site_label
 _atom_site_symmetry_multiplicity
 _atom_site_fract_x
 _atom_site_fract_y
 _atom_site_fract_z
 _atom_site_occupancy
  Fe  Fe0  1  0.29394600  0.99645300  0.98486200  1
  Fe  Fe1  1  0.50000000  0.00088900  0.99747000  1
  Fe  Fe2  1  0.70605400  0.99645300  0.98486200  1
  Fe  Fe3  1  0.90105400  0.95783900  0.00100100  1
  Fe  Fe4  1  0.09894600  0.95783900  0.00100100  1
  Fe  Fe5  1  0.40034600  0.49676800  0.49311300  1
  Fe  Fe6  1  0.79278000  0.53859400  0.51696200  1
  Fe  Fe7  1  0.59965400  0.49676800  0.49311300  1
  Fe  Fe8  1  0.00000000  0.54180300  0.51047100  1
  Fe  Fe9  1  0.20722000  0.53859400  0.51696200  1
  O  O0  1  0.79938200  0.80957600  0.80830600  1
  O  O1  1  0.00000000  0.79956200  0.81292200  1
  O  O2  1  0.20061800  0.80957600  0.80830600  1
  O  O3  1  0.30672000  0.70213600  0.29658100  1
  O  O4  1  0.50000000  0.69576900  0.29541300  1
  O  O5  1  0.69328000  0.70213600  0.29658100  1
  O  O6  1  0.89685200  0.68602500  0.31818700  1
  O  O7  1  0.10314800  0.68602500  0.31818700  1
  O  O8  1  0.30456900  0.30653500  0.69277300  1
  O  O9  1  0.50000000  0.30078300  0.69235200  1
  O  O10  1  0.69543100  0.30653500  0.69277300  1
  F  F0  1  0.40136300  0.80995200  0.80125700  1
  F  F1  1  0.59863700  0.80995200  0.80125700  1
  F  F2  1  0.90026900  0.29867500  0.70738700  1
  F  F3  1  0.09973100  0.29867500  0.70738700  1
  F  F4  1  0.39958600  0.19086400  0.18516700  1
  F  F5  1  0.80107300  0.19357500  0.19166400  1
  F  F6  1  0.60041400  0.19086400  0.18516700  1
  F  F7  1  0.19892700  0.19357500  0.19166400  1
  F  F8  1  0.00000000  0.18720500  0.19685300  1
loop_
_geom_bond_atom_site_label_1
_geom_bond_atom_site_label_2
_geom_bond_distance
_geom_bond_site_symmetry_2
Fe0 O2 1.907641 1_555
Fe0 O8 1.965952 1_565
Fe0 O3 1.981620 1_556
Fe1 O4 1.961343 1_546
Fe1 O9 1.967688 1_555
Fe2 O0 1.907641 1_555
Fe2 O10 1.965952 1_565
Fe2 O5 1.981620 1_556
Fe3 O6 1.923353 1_555
Fe3 O1 1.937724 1_654
Fe3 O0 1.962107 1_554
Fe4 O7 1.923353 1_555
Fe4 O1 1.937724 1_554
Fe4 O2 1.962107 1_554
Fe5 O8 1.939016 1_555
Fe5 O3 1.940198 1_555
Fe5 O9 1.995156 1_555
Fe5 O4 1.998208 1_555
Fe6 O0 1.958515 1_555
Fe6 O6 1.959524 1_555
Fe6 O5 1.979929 1_555
Fe6 O10 2.004658 1_555
Fe7 O10 1.939016 1_555
Fe7 O5 1.940198 1_555
Fe7 O9 1.995156 1_555
Fe7 O4 1.998208 1_555
Fe8 O7 1.928935 1_555
Fe8 O6 1.928935 1_455
Fe8 O1 1.952993 1_555
Fe9 O2 1.958515 1_555
Fe9 O7 1.959524 1_555
Fe9 O3 1.979929 1_555
Fe9 O8 2.004658 1_555
F0 Fe1 2.023006 1_565
F0 Fe0 2.088168 1_555
F0 Fe5 2.159837 1_555
F1 Fe1 2.023006 1_565
F1 Fe2 2.088168 1_555
F1 Fe7 2.159837 1_555
F2 Fe3 2.069550 1_546
F2 Fe8 2.098795 1_655
F2 Fe6 2.167101 1_555
F3 Fe4 2.069550 1_546
F3 Fe8 2.098795 1_555
F3 Fe9 2.167101 1_555
F4 Fe1 2.021765 1_554
F4 Fe0 2.121208 1_544
F4 Fe5 2.133810 1_555
F5 Fe2 2.022223 1_544
F5 Fe3 2.135705 1_545
F5 Fe6 2.334254 1_555
F6 Fe1 2.021765 1_554
F6 Fe2 2.121208 1_544
F6 Fe7 2.133810 1_555
F7 Fe0 2.022223 1_544
F7 Fe4 2.135705 1_545
F7 Fe9 2.334254 1_555
F8 Fe4 2.119296 1_545
F8 Fe3 2.119296 1_445
F8 Fe8 2.326301 1_555
