# generated using pymatgen
data_Li5Fe2P2(CO7)2
_symmetry_space_group_name_H-M   'P 1'
_cell_length_a   7.93076900
_cell_length_b   8.47081720
_cell_length_c   9.61351207
_cell_angle_alpha   111.54966776
_cell_angle_beta   102.47011445
_cell_angle_gamma   103.05238671
_symmetry_Int_Tables_number   1
_chemical_formula_structural   Li5Fe2P2(CO7)2
_chemical_formula_sum   'Li10 Fe4 P4 C4 O28'
_cell_volume   552.41890542
_cell_formula_units_Z   2
loop_
 _symmetry_equiv_pos_site_id
 _symmetry_equiv_pos_as_xyz
  1  'x, y, z'
loop_
 _atom_site_type_symbol
 _atom_site_label
 _atom_site_symmetry_multiplicity
 _atom_site_fract_x
 _atom_site_fract_y
 _atom_site_fract_z
 _atom_site_occupancy
  Li  Li0  1  0.95755200  0.93855000  0.77775700  1
  Li  Li1  1  0.26521000  0.71845300  0.75773000  1
  Li  Li2  1  0.23895900  0.78613000  0.26017400  1
  Li  Li3  1  0.53574900  0.55079400  0.24550200  1
  Li  Li4  1  0.16585400  0.39004600  0.88950500  1
  Li  Li5  1  0.04244800  0.06145000  0.22224300  1
  Li  Li6  1  0.83414600  0.60995400  0.11049500  1
  Li  Li7  1  0.46425100  0.44920600  0.75449800  1
  Li  Li8  1  0.76104100  0.21387000  0.73982600  1
  Li  Li9  1  0.73479000  0.28154700  0.24227000  1
  Fe  Fe0  1  0.80168200  0.54880100  0.65724100  1
  Fe  Fe1  1  0.30446900  0.04605200  0.65354900  1
  Fe  Fe2  1  0.69553100  0.95394800  0.34645100  1
  Fe  Fe3  1  0.19831800  0.45119900  0.34275900  1
  P  P0  1  0.93922200  0.69766800  0.42281700  1
  P  P1  1  0.56220500  0.80514600  0.58262300  1
  P  P2  1  0.06077800  0.30233200  0.57718300  1
  P  P3  1  0.43779500  0.19485400  0.41737700  1
  C  C0  1  0.98756600  0.73271300  0.95514900  1
  C  C1  1  0.50324800  0.25483500  0.93972100  1
  C  C2  1  0.49675200  0.74516500  0.06027900  1
  C  C3  1  0.01243400  0.26728700  0.04485100  1
  O  O0  1  0.05242500  0.76793000  0.85166200  1
  O  O1  1  0.39546700  0.63192500  0.91808400  1
  O  O2  1  0.06399900  0.64098900  0.32432700  1
  O  O3  1  0.05339600  0.86228000  0.58663200  1
  O  O4  1  0.83706600  0.59643100  0.90198900  1
  O  O5  1  0.45523700  0.64016000  0.42279400  1
  O  O6  1  0.42438600  0.86626800  0.66747700  1
  O  O7  1  0.34629800  0.13589600  0.90221400  1
  O  O8  1  0.94660400  0.13772000  0.41336800  1
  O  O9  1  0.93600100  0.35901100  0.67567300  1
  O  O10  1  0.70407300  0.76771700  0.69091800  1
  O  O11  1  0.20263600  0.25130200  0.67938200  1
  O  O12  1  0.06538800  0.82618400  0.10620300  1
  O  O13  1  0.82759900  0.53492300  0.43948900  1
  O  O14  1  0.44912000  0.74178100  0.18285900  1
  O  O15  1  0.33448200  0.03406500  0.44875000  1
  O  O16  1  0.94757500  0.23207000  0.14833800  1
  O  O17  1  0.66551800  0.96593500  0.55125000  1
  O  O18  1  0.55088000  0.25821900  0.81714100  1
  O  O19  1  0.17240100  0.46507700  0.56051100  1
  O  O20  1  0.93461200  0.17381600  0.89379700  1
  O  O21  1  0.79736400  0.74869800  0.32061800  1
  O  O22  1  0.29592700  0.23228300  0.30908200  1
  O  O23  1  0.65370200  0.86410400  0.09778600  1
  O  O24  1  0.57561400  0.13373200  0.33252300  1
  O  O25  1  0.54476300  0.35984000  0.57720600  1
  O  O26  1  0.16293400  0.40356900  0.09801100  1
  O  O27  1  0.60453300  0.36807500  0.08191600  1
loop_
_geom_bond_atom_site_label_1
_geom_bond_atom_site_label_2
_geom_bond_distance
_geom_bond_site_symmetry_2
Li0 O20 1.966576 1_565
Li0 O10 1.976372 1_555
Li0 O0 2.043149 1_655
Li0 O3 2.079441 1_655
Li1 O19 2.106527 1_555
Li1 O1 2.113089 1_555
Li1 O6 2.114562 1_555
Li1 O0 2.130365 1_555
Li2 O12 1.975084 1_555
Li2 O2 1.993320 1_555
Li2 O14 2.020964 1_555
Li2 O15 2.040238 1_565
Li3 O5 1.904267 1_555
Li3 O27 2.032270 1_555
Li3 O14 2.119221 1_555
Li3 O21 2.128198 1_555
Li4 O26 1.970823 1_556
Li4 O11 2.052351 1_555
Li4 O1 2.296677 1_555
Li4 O20 2.300187 1_455
Li4 O9 2.320807 1_455
Li5 O12 1.966576 1_545
Li5 O22 1.976372 1_555
Li5 O16 2.043149 1_455
Li5 O8 2.079441 1_455
Li6 O4 1.970823 1_554
Li6 O21 2.052351 1_555
Li6 O27 2.296677 1_555
Li6 O12 2.300187 1_655
Li6 O2 2.320807 1_655
Li7 O25 1.904267 1_555
Li7 O1 2.032270 1_555
Li7 O18 2.119221 1_555
Li7 O11 2.128198 1_555
Li8 O20 1.975084 1_555
Li8 O9 1.993320 1_555
Li8 O18 2.020964 1_555
Li8 O17 2.040238 1_545
Li9 O13 2.106527 1_555
Li9 O27 2.113089 1_555
Li9 O24 2.114562 1_555
Li9 O16 2.130365 1_555
Fe0 O25 2.061760 1_555
Fe0 O13 2.110493 1_555
Fe0 O10 2.111505 1_555
Fe0 O9 2.156870 1_555
Fe0 O4 2.178062 1_555
Fe0 O0 2.252181 1_655
Fe1 O6 1.997666 1_545
Fe1 O15 2.002431 1_555
Fe1 O3 2.028076 1_545
Fe1 O11 2.034803 1_555
Fe1 O18 2.128929 1_555
Fe1 O7 2.147307 1_555
Fe2 O24 1.997666 1_565
Fe2 O17 2.002431 1_555
Fe2 O8 2.028076 1_565
Fe2 O21 2.034803 1_555
Fe2 O14 2.128929 1_555
Fe2 O23 2.147307 1_555
Fe3 O5 2.061760 1_555
Fe3 O19 2.110493 1_555
Fe3 O22 2.111505 1_555
Fe3 O2 2.156870 1_555
Fe3 O26 2.178062 1_555
Fe3 O16 2.252181 1_455
C0 O12 1.290025 1_656
C0 O4 1.303570 1_555
C0 O0 1.308844 1_655
C1 O27 1.283948 1_556
C1 O7 1.291242 1_555
C1 O18 1.320749 1_555
C2 O1 1.283948 1_554
C2 O23 1.291242 1_555
C2 O14 1.320749 1_555
C3 O20 1.290025 1_454
C3 O26 1.303570 1_555
C3 O16 1.308844 1_455
O2 P0 1.546468 1_455
O3 P0 1.563668 1_455
O5 P1 1.535516 1_555
O6 P1 1.567986 1_555
O8 P2 1.563668 1_655
O9 P2 1.546468 1_655
O10 P1 1.532335 1_555
O11 P2 1.572311 1_555
O13 P0 1.543443 1_555
O15 P3 1.588022 1_555
O17 P1 1.588022 1_555
O19 P2 1.543443 1_555
O21 P0 1.572311 1_555
O22 P3 1.532335 1_555
O24 P3 1.567986 1_555
O25 P3 1.535516 1_555
