# generated using pymatgen
data_Na2VO3
_symmetry_space_group_name_H-M   'P 1'
_cell_length_a   10.25002801
_cell_length_b   9.76330013
_cell_length_c   5.52358281
_cell_angle_alpha   78.89776949
_cell_angle_beta   69.17785147
_cell_angle_gamma   31.92437904
_symmetry_Int_Tables_number   1
_chemical_formula_structural   Na2VO3
_chemical_formula_sum   'Na8 V4 O12'
_cell_volume   266.46814176
_cell_formula_units_Z   4
loop_
 _symmetry_equiv_pos_site_id
 _symmetry_equiv_pos_as_xyz
  1  'x, y, z'
loop_
 _atom_site_type_symbol
 _atom_site_label
 _atom_site_symmetry_multiplicity
 _atom_site_fract_x
 _atom_site_fract_y
 _atom_site_fract_z
 _atom_site_occupancy
  Na  Na0  1  0.99384700  0.49448300  0.50447500  1
  Na  Na1  1  0.91653500  0.42638900  0.08375300  1
  Na  Na2  1  0.82361100  0.33346500  0.67667600  1
  Na  Na3  1  0.75551700  0.25615300  0.24280500  1
  Na  Na4  1  0.24280500  0.74552500  0.75551700  1
  Na  Na5  1  0.67667600  0.16624700  0.82361100  1
  Na  Na6  1  0.08375300  0.57332400  0.91653500  1
  Na  Na7  1  0.50447500  0.00719500  0.99384700  1
  V  V0  1  0.39946900  0.92807900  0.60543700  1
  V  V1  1  0.32192100  0.85053100  0.18298500  1
  V  V2  1  0.18298500  0.64456300  0.32192100  1
  V  V3  1  0.60543700  0.06701500  0.39946900  1
  O  O0  1  0.19438500  0.12008400  0.34668600  1
  O  O1  1  0.59936400  0.70581300  0.85778900  1
  O  O2  1  0.54418700  0.65063600  0.41296700  1
  O  O3  1  0.12991600  0.05561500  0.91115500  1
  O  O4  1  0.05876300  0.95180500  0.44006700  1
  O  O5  1  0.44006700  0.54936500  0.05876300  1
  O  O6  1  0.91115500  0.90331400  0.12991600  1
  O  O7  1  0.41296700  0.39221100  0.54418700  1
  O  O8  1  0.85778900  0.83703300  0.59936400  1
  O  O9  1  0.34668600  0.33884500  0.19438500  1
  O  O10  1  0.70063500  0.80993300  0.29819500  1
  O  O11  1  0.29819500  0.19123700  0.70063500  1
loop_
_geom_bond_atom_site_label_1
_geom_bond_atom_site_label_2
_geom_bond_distance
_geom_bond_site_symmetry_2
Na0 O11 2.271738 1_655
Na0 O10 2.277482 1_555
Na0 O0 2.354861 1_655
Na0 O9 2.364798 1_655
Na0 O8 2.375470 1_555
Na0 O1 2.488804 1_555
Na1 O2 2.254200 1_555
Na1 O3 2.281149 1_654
Na1 O11 2.406810 1_654
Na1 O0 2.444164 1_655
Na1 O1 2.467314 1_554
Na1 O10 2.469924 1_555
Na2 O1 2.254200 1_555
Na2 O0 2.281147 1_655
Na2 O4 2.406807 1_645
Na2 O3 2.444168 1_655
Na2 O2 2.467305 1_555
Na2 O5 2.469926 1_556
Na3 O4 2.271738 1_645
Na3 O5 2.277482 1_555
Na3 O3 2.354861 1_654
Na3 O6 2.364798 1_545
Na3 O7 2.375471 1_555
Na3 O2 2.488806 1_555
Na4 O5 2.271738 1_556
Na4 O4 2.277482 1_555
Na4 O6 2.354861 1_456
Na4 O3 2.364798 1_565
Na4 O2 2.375477 1_555
Na4 O7 2.488798 1_555
Na5 O8 2.254200 1_545
Na5 O9 2.281143 1_556
Na5 O5 2.406815 1_556
Na5 O6 2.444167 1_546
Na5 O7 2.467302 1_555
Na5 O4 2.469929 1_645
Na6 O7 2.254200 1_555
Na6 O6 2.281140 1_456
Na6 O10 2.406813 1_456
Na6 O9 2.444163 1_556
Na6 O8 2.467312 1_455
Na6 O11 2.469932 1_555
Na7 O10 2.271738 1_546
Na7 O11 2.277482 1_555
Na7 O9 2.354861 1_556
Na7 O0 2.364798 1_556
Na7 O1 2.375479 1_545
Na7 O8 2.488800 1_545
O0 V1 1.920591 1_545
O0 V0 2.095388 1_545
O1 V1 1.958376 1_556
O1 V0 2.041598 1_555
O2 V0 1.958373 1_555
O2 V1 2.041603 1_555
O3 V0 1.920591 1_545
O3 V1 2.095388 1_546
O4 V1 1.886853 1_555
O4 V2 2.173697 1_555
O5 V2 1.886853 1_555
O5 V1 2.173697 1_555
O6 V3 1.920591 1_565
O6 V2 2.095388 1_655
O7 V3 1.958381 1_555
O7 V2 2.041602 1_555
O8 V2 1.958379 1_655
O8 V3 2.041598 1_565
O9 V2 1.920591 1_555
O9 V3 2.095388 1_555
O10 V3 1.886853 1_565
O10 V0 2.173697 1_555
O11 V0 1.886853 1_545
O11 V3 2.173697 1_555
