# generated using pymatgen
data_Co6O5F7
_symmetry_space_group_name_H-M   'P 1'
_cell_length_a   4.70044749
_cell_length_b   4.70044749
_cell_length_c   8.94692400
_cell_angle_alpha   90.00000000
_cell_angle_beta   90.00000000
_cell_angle_gamma   96.76355688
_symmetry_Int_Tables_number   1
_chemical_formula_structural   Co6O5F7
_chemical_formula_sum   'Co6 O5 F7'
_cell_volume   196.29949034
_cell_formula_units_Z   1
loop_
 _symmetry_equiv_pos_site_id
 _symmetry_equiv_pos_as_xyz
  1  'x, y, z'
loop_
 _atom_site_type_symbol
 _atom_site_label
 _atom_site_symmetry_multiplicity
 _atom_site_fract_x
 _atom_site_fract_y
 _atom_site_fract_z
 _atom_site_occupancy
  Co  Co0  1  0.99620300  0.99620300  0.83315600  1
  Co  Co1  1  0.99620300  0.99620300  0.16684400  1
  Co  Co2  1  0.02336000  0.02336000  0.50000000  1
  Co  Co3  1  0.49476700  0.49476700  0.00000000  1
  Co  Co4  1  0.49717800  0.49717800  0.67193400  1
  Co  Co5  1  0.49717800  0.49717800  0.32806600  1
  O  O0  1  0.29841600  0.29841600  0.16389900  1
  O  O1  1  0.29841600  0.29841600  0.83610100  1
  O  O2  1  0.32132500  0.32132500  0.50000000  1
  O  O3  1  0.68988000  0.68988000  0.83586000  1
  O  O4  1  0.68988000  0.68988000  0.16414000  1
  F  F0  1  0.80195100  0.18831600  0.00000000  1
  F  F1  1  0.80489100  0.19748500  0.66865300  1
  F  F2  1  0.80489100  0.19748500  0.33134700  1
  F  F3  1  0.70217500  0.70217500  0.50000000  1
  F  F4  1  0.18831600  0.80195100  0.00000000  1
  F  F5  1  0.19748500  0.80489100  0.66865300  1
  F  F6  1  0.19748500  0.80489100  0.33134700  1
loop_
_geom_bond_atom_site_label_1
_geom_bond_atom_site_label_2
_geom_bond_distance
_geom_bond_site_symmetry_2
Co0 O1 1.887122 1_665
Co0 O3 1.912753 1_555
Co0 F5 2.017516 1_655
Co0 F1 2.017516 1_565
Co0 F4 2.017827 1_656
Co0 F0 2.017827 1_566
Co1 O0 1.887122 1_665
Co1 O4 1.912753 1_555
Co1 F2 2.017516 1_565
Co1 F6 2.017516 1_655
Co1 F4 2.017827 1_655
Co1 F0 2.017827 1_565
Co2 O2 1.860415 1_555
Co2 F3 2.005394 1_445
Co2 F6 2.049205 1_545
Co2 F2 2.049205 1_455
Co2 F1 2.049205 1_455
Co2 F5 2.049205 1_545
Co3 O3 1.908069 1_554
Co3 O4 1.908069 1_555
Co3 O0 1.911359 1_555
Co3 O1 1.911359 1_554
Co3 F0 2.156310 1_555
Co3 F4 2.156310 1_555
Co4 O2 1.889938 1_555
Co4 O3 1.897013 1_555
Co4 O1 1.922880 1_555
Co4 F3 2.001143 1_555
Co4 F5 2.134769 1_555
Co4 F1 2.134769 1_555
Co5 O2 1.889938 1_555
Co5 O4 1.897013 1_555
Co5 O0 1.922880 1_555
Co5 F3 2.001143 1_555
Co5 F2 2.134769 1_555
Co5 F6 2.134769 1_555
