# generated using pymatgen
data_LiAlVO4
_symmetry_space_group_name_H-M   'P 1'
_cell_length_a   2.91596400
_cell_length_b   9.43557700
_cell_length_c   10.16391700
_cell_angle_alpha   90.00000000
_cell_angle_beta   90.00000000
_cell_angle_gamma   90.00000000
_symmetry_Int_Tables_number   1
_chemical_formula_structural   LiAlVO4
_chemical_formula_sum   'Li4 Al4 V4 O16'
_cell_volume   279.64800853
_cell_formula_units_Z   4
loop_
 _symmetry_equiv_pos_site_id
 _symmetry_equiv_pos_as_xyz
  1  'x, y, z'
loop_
 _atom_site_type_symbol
 _atom_site_label
 _atom_site_symmetry_multiplicity
 _atom_site_fract_x
 _atom_site_fract_y
 _atom_site_fract_z
 _atom_site_occupancy
  Li  Li0  1  0.25000000  0.59318000  0.12093200  1
  Li  Li1  1  0.75000000  0.90682000  0.62093200  1
  Li  Li2  1  0.25000000  0.09318000  0.37906800  1
  Li  Li3  1  0.75000000  0.40682000  0.87906800  1
  Al  Al0  1  0.25000000  0.50519400  0.62400900  1
  Al  Al1  1  0.75000000  0.99480600  0.12400900  1
  Al  Al2  1  0.25000000  0.00519400  0.87599100  1
  Al  Al3  1  0.75000000  0.49480600  0.37599100  1
  V  V0  1  0.75000000  0.72881100  0.84349300  1
  V  V1  1  0.25000000  0.77118900  0.34349300  1
  V  V2  1  0.75000000  0.22881100  0.65650700  1
  V  V3  1  0.25000000  0.27118900  0.15650700  1
  O  O0  1  0.25000000  0.60086000  0.46034500  1
  O  O1  1  0.25000000  0.64133800  0.93563900  1
  O  O2  1  0.75000000  0.60253700  0.70260500  1
  O  O3  1  0.75000000  0.64750400  0.25420100  1
  O  O4  1  0.25000000  0.85249600  0.75420100  1
  O  O5  1  0.25000000  0.89746300  0.20260500  1
  O  O6  1  0.75000000  0.85866200  0.43563900  1
  O  O7  1  0.75000000  0.89914000  0.96034500  1
  O  O8  1  0.25000000  0.10086000  0.03965500  1
  O  O9  1  0.25000000  0.14133800  0.56436100  1
  O  O10  1  0.75000000  0.10253700  0.79739500  1
  O  O11  1  0.75000000  0.14750400  0.24579900  1
  O  O12  1  0.25000000  0.35249600  0.74579900  1
  O  O13  1  0.25000000  0.39746300  0.29739500  1
  O  O14  1  0.75000000  0.35866200  0.06436100  1
  O  O15  1  0.75000000  0.39914000  0.53965500  1
loop_
_geom_bond_atom_site_label_1
_geom_bond_atom_site_label_2
_geom_bond_distance
_geom_bond_site_symmetry_2
Li0 O1 1.937345 1_554
Li0 O3 2.055046 1_555
Li0 O3 2.055046 1_455
Li1 O6 1.937345 1_555
Li1 O4 2.055046 1_655
Li1 O4 2.055046 1_555
Li2 O9 1.937345 1_555
Li2 O11 2.055046 1_555
Li2 O11 2.055046 1_455
Li3 O14 1.937345 1_556
Li3 O12 2.055046 1_555
Li3 O12 2.055046 1_655
Al0 O0 1.892598 1_555
Al0 O2 1.899337 1_555
Al0 O2 1.899337 1_455
Al0 O12 1.899524 1_555
Al0 O15 1.965236 1_555
Al0 O15 1.965236 1_455
Al1 O7 1.892598 1_554
Al1 O5 1.899337 1_655
Al1 O5 1.899337 1_555
Al1 O11 1.899524 1_565
Al1 O8 1.965236 1_565
Al1 O8 1.965236 1_665
Al2 O8 1.892598 1_556
Al2 O10 1.899337 1_455
Al2 O10 1.899337 1_555
Al2 O4 1.899524 1_545
Al2 O7 1.965236 1_445
Al2 O7 1.965236 1_545
Al3 O15 1.892598 1_555
Al3 O13 1.899337 1_555
Al3 O13 1.899337 1_655
Al3 O3 1.899524 1_555
Al3 O0 1.965236 1_655
Al3 O0 1.965236 1_555
O0 V1 1.998376 1_555
O1 V0 1.919396 1_455
O1 V0 1.919396 1_555
O2 V0 1.862833 1_555
O3 V1 2.076379 1_655
O3 V1 2.076379 1_555
O4 V0 2.076379 1_455
O4 V0 2.076379 1_555
O5 V1 1.862833 1_555
O6 V1 1.919396 1_655
O6 V1 1.919396 1_555
O7 V0 1.998376 1_555
O8 V3 1.998376 1_555
O9 V2 1.919396 1_555
O9 V2 1.919396 1_455
O10 V2 1.862833 1_555
O11 V3 2.076379 1_555
O11 V3 2.076379 1_655
O12 V2 2.076379 1_455
O12 V2 2.076379 1_555
O13 V3 1.862833 1_555
O14 V3 1.919396 1_655
O14 V3 1.919396 1_555
O15 V2 1.998376 1_555
