# generated using pymatgen
data_KBaLiZnF6
_symmetry_space_group_name_H-M   'P 1'
_cell_length_a   24.02988891
_cell_length_b   24.02988891
_cell_length_c   24.02988862
_cell_angle_alpha   13.86722520
_cell_angle_beta   13.86722520
_cell_angle_gamma   13.86722309
_symmetry_Int_Tables_number   1
_chemical_formula_structural   KBaLiZnF6
_chemical_formula_sum   'K5 Ba5 Li5 Zn5 F30'
_cell_volume   693.64589134
_cell_formula_units_Z   5
loop_
 _symmetry_equiv_pos_site_id
 _symmetry_equiv_pos_as_xyz
  1  'x, y, z'
loop_
 _atom_site_type_symbol
 _atom_site_label
 _atom_site_symmetry_multiplicity
 _atom_site_fract_x
 _atom_site_fract_y
 _atom_site_fract_z
 _atom_site_occupancy
  K  K0  1  0.29832400  0.29832400  0.29832400  1
  K  K1  1  0.59949100  0.59949100  0.59949100  1
  K  K2  1  0.19939000  0.19939000  0.19939000  1
  K  K3  1  0.10022400  0.10022400  0.10022400  1
  K  K4  1  0.70017100  0.70017100  0.70017100  1
  Ba  Ba0  1  0.00115400  0.00115400  0.00115400  1
  Ba  Ba1  1  0.89989300  0.89989300  0.89989300  1
  Ba  Ba2  1  0.50164900  0.50164900  0.50164900  1
  Ba  Ba3  1  0.80115000  0.80115000  0.80115000  1
  Ba  Ba4  1  0.40009600  0.40009600  0.40009600  1
  Li  Li0  1  0.25060600  0.25060600  0.25060600  1
  Li  Li1  1  0.84966700  0.84966700  0.84966700  1
  Li  Li2  1  0.15143800  0.15143800  0.15143800  1
  Li  Li3  1  0.75025300  0.75025300  0.75025300  1
  Li  Li4  1  0.34996300  0.34996300  0.34996300  1
  Zn  Zn0  1  0.65032700  0.65032700  0.65032700  1
  Zn  Zn1  1  0.94901800  0.94901800  0.94901800  1
  Zn  Zn2  1  0.44948700  0.44948700  0.44948700  1
  Zn  Zn3  1  0.55026900  0.55026900  0.55026900  1
  Zn  Zn4  1  0.05007700  0.05007700  0.05007700  1
  F  F0  1  0.99977800  0.50020900  0.50020900  1
  F  F1  1  0.80620900  0.29068800  0.80620900  1
  F  F2  1  0.50020900  0.50020900  0.99977800  1
  F  F3  1  0.80620900  0.80620900  0.29068800  1
  F  F4  1  0.29068800  0.80620900  0.80620900  1
  F  F5  1  0.50020900  0.99977800  0.50020900  1
  F  F6  1  0.60633900  0.09618100  0.09618100  1
  F  F7  1  0.39994200  0.90023400  0.39994200  1
  F  F8  1  0.09618100  0.09618100  0.60633900  1
  F  F9  1  0.39994200  0.39994200  0.90023400  1
  F  F10  1  0.90023400  0.39994200  0.39994200  1
  F  F11  1  0.09618100  0.60633900  0.09618100  1
  F  F12  1  0.20099000  0.69956800  0.69956800  1
  F  F13  1  0.99519700  0.50627500  0.99519700  1
  F  F14  1  0.69956800  0.69956800  0.20099000  1
  F  F15  1  0.99519700  0.99519700  0.50627500  1
  F  F16  1  0.69956800  0.20099000  0.69956800  1
  F  F17  1  0.50627500  0.99519700  0.99519700  1
  F  F18  1  0.59912400  0.10108300  0.59912400  1
  F  F19  1  0.79334100  0.30391100  0.30391100  1
  F  F20  1  0.30391100  0.30391100  0.79334100  1
  F  F21  1  0.59912400  0.59912400  0.10108300  1
  F  F22  1  0.10108300  0.59912400  0.59912400  1
  F  F23  1  0.30391100  0.79334100  0.30391100  1
  F  F24  1  0.40090500  0.89956600  0.89956600  1
  F  F25  1  0.20003600  0.70007800  0.20003600  1
  F  F26  1  0.20003600  0.20003600  0.70007800  1
  F  F27  1  0.89956600  0.89956600  0.40090500  1
  F  F28  1  0.70007800  0.20003600  0.20003600  1
  F  F29  1  0.89956600  0.40090500  0.89956600  1
loop_
_geom_bond_atom_site_label_1
_geom_bond_atom_site_label_2
_geom_bond_distance
_geom_bond_site_symmetry_2
Ba0 F28 2.845672 1_455
Ba0 F25 2.845672 1_545
Ba0 F26 2.845672 1_554
Ba0 F4 2.887232 1_544
Ba0 F1 2.887232 1_454
Ba0 F3 2.887233 1_445
Ba0 F2 2.901910 1_454
Ba0 F2 2.901910 1_544
Ba0 F0 2.901911 1_454
Ba0 F5 2.901911 1_544
Ba0 F5 2.901911 1_445
Ba0 F0 2.901911 1_445
Ba1 F6 2.871262 1_566
Ba1 F11 2.871262 1_656
Ba1 F8 2.871262 1_665
Ba1 F9 2.900888 1_565
Ba1 F9 2.900888 1_655
Ba1 F10 2.900888 1_556
Ba1 F7 2.900888 1_556
Ba1 F7 2.900888 1_655
Ba1 F10 2.900888 1_565
Ba1 F12 2.903901 1_655
Ba1 F16 2.903901 1_565
Ba1 F14 2.903901 1_556
Ba2 F12 2.813974 1_555
Ba2 F16 2.813974 1_555
Ba2 F14 2.813975 1_555
Ba2 F15 2.907786 1_455
Ba2 F15 2.907786 1_545
Ba2 F13 2.907786 1_554
Ba2 F17 2.907786 1_554
Ba2 F17 2.907786 1_545
Ba2 F13 2.907786 1_455
Ba2 F19 2.964194 1_555
Ba2 F23 2.964194 1_555
Ba2 F20 2.964194 1_555
Ba3 F17 2.757242 1_555
Ba3 F13 2.757242 1_555
Ba3 F15 2.757242 1_555
Ba3 F20 2.901595 1_655
Ba3 F20 2.901595 1_565
Ba3 F23 2.901596 1_655
Ba3 F19 2.901596 1_565
Ba3 F23 2.901596 1_556
Ba3 F19 2.901596 1_556
Ba3 F22 2.994202 1_655
Ba3 F18 2.994202 1_565
Ba3 F21 2.994202 1_556
Ba4 F18 2.887452 1_555
Ba4 F22 2.887452 1_555
Ba4 F21 2.887452 1_555
Ba4 F27 2.900879 1_545
Ba4 F27 2.900879 1_455
Ba4 F29 2.900879 1_455
Ba4 F24 2.900879 1_545
Ba4 F29 2.900879 1_554
Ba4 F24 2.900879 1_554
Ba4 F28 2.912607 1_555
Ba4 F25 2.912607 1_555
Ba4 F26 2.912607 1_555
F0 Zn0 2.042454 1_555
F0 Li4 2.051356 1_655
F0 K4 2.915183 1_555
F0 K0 3.013145 1_655
F1 Zn0 2.068729 1_555
F1 Zn1 2.100600 1_545
F1 K0 2.907784 1_655
F1 K0 2.907784 1_556
F1 K1 3.029988 1_555
F2 Zn0 2.042455 1_555
F2 Li4 2.051356 1_556
F2 K4 2.915183 1_555
F2 K0 3.013145 1_556
F3 Zn0 2.068729 1_555
F3 Zn1 2.100600 1_554
F3 K0 2.907784 1_655
F3 K0 2.907784 1_565
F3 K1 3.029988 1_555
F4 Zn0 2.068729 1_555
F4 Zn1 2.100600 1_455
F4 K0 2.907784 1_565
F4 K0 2.907784 1_556
F4 K1 3.029988 1_555
F5 Zn0 2.042454 1_555
F5 Li4 2.051356 1_565
F5 K4 2.915183 1_555
F5 K0 3.013145 1_565
F6 Zn1 2.004000 1_544
F6 Li0 2.040759 1_555
F6 K0 2.857952 1_555
F6 K1 2.901074 1_554
F6 K1 2.901074 1_545
F7 Zn3 2.045748 1_555
F7 Li0 2.077299 1_565
F7 K1 2.878488 1_555
F7 K2 2.947311 1_565
F8 Zn1 2.004000 1_445
F8 Li0 2.040759 1_555
F8 K0 2.857952 1_555
F8 K1 2.901074 1_545
F8 K1 2.901074 1_455
F9 Zn3 2.045749 1_555
F9 Li0 2.077299 1_556
F9 K1 2.878488 1_555
F9 K2 2.947311 1_556
F10 Zn3 2.045748 1_555
F10 Li0 2.077299 1_655
F10 K1 2.878488 1_555
F10 K2 2.947311 1_655
F11 Zn1 2.004000 1_454
F11 Li0 2.040759 1_555
F11 K0 2.857952 1_555
F11 K1 2.901074 1_554
F11 K1 2.901074 1_455
F12 Zn3 2.059962 1_555
F12 Li1 2.073872 1_455
F12 K2 2.901247 1_565
F12 K2 2.901247 1_556
F13 Li2 1.986567 1_656
F13 Li1 2.057366 1_555
F13 K2 2.960421 1_656
F14 Zn3 2.059962 1_555
F14 Li1 2.073872 1_554
F14 K2 2.901246 1_655
F14 K2 2.901246 1_565
F15 Li2 1.986567 1_665
F15 Li1 2.057366 1_555
F15 K2 2.960422 1_665
F16 Zn3 2.059962 1_555
F16 Li1 2.073872 1_545
F16 K2 2.901247 1_655
F16 K2 2.901247 1_556
F17 Li2 1.986567 1_566
F17 Li1 2.057366 1_555
F17 K2 2.960421 1_566
F18 Zn2 2.037102 1_555
F18 Li3 2.040312 1_545
F18 K3 2.901052 1_556
F18 K3 2.901052 1_655
F19 Zn2 2.064058 1_555
F19 Li2 2.127073 1_655
F19 K3 2.939857 1_655
F20 Zn2 2.064058 1_555
F20 Li2 2.127073 1_556
F20 K3 2.939857 1_556
F21 Zn2 2.037102 1_555
F21 Li3 2.040313 1_554
F21 K3 2.901052 1_655
F21 K3 2.901052 1_565
F22 Zn2 2.037102 1_555
F22 Li3 2.040312 1_455
F22 K3 2.901052 1_556
F22 K3 2.901052 1_565
F23 Zn2 2.064058 1_555
F23 Li2 2.127073 1_565
F23 K3 2.939857 1_565
F24 Zn4 2.055391 1_566
F24 Li3 2.060758 1_555
F24 K4 2.897998 1_555
F24 K3 2.924782 1_566
F25 Zn4 2.055401 1_565
F25 Li4 2.058116 1_555
F25 K4 2.900882 1_455
F25 K4 2.900882 1_554
F26 Zn4 2.055401 1_556
F26 Li4 2.058116 1_555
F26 K4 2.900882 1_545
F26 K4 2.900882 1_455
F27 Zn4 2.055391 1_665
F27 Li3 2.060758 1_555
F27 K4 2.897998 1_555
F27 K3 2.924782 1_665
F28 Zn4 2.055401 1_655
F28 Li4 2.058116 1_555
F28 K4 2.900882 1_545
F28 K4 2.900882 1_554
F29 Zn4 2.055391 1_656
F29 Li3 2.060758 1_555
F29 K4 2.897998 1_555
F29 K3 2.924782 1_656
