# generated using pymatgen
data_KSn2H36C12(Se2N)3
_symmetry_space_group_name_H-M   'P 1'
_cell_length_a   9.78492300
_cell_length_b   10.21831871
_cell_length_c   16.29655008
_cell_angle_alpha   95.16547851
_cell_angle_beta   92.65954267
_cell_angle_gamma   107.02632683
_symmetry_Int_Tables_number   1
_chemical_formula_structural   KSn2H36C12(Se2N)3
_chemical_formula_sum   'K2 Sn4 H72 C24 Se12 N6'
_cell_volume   1547.13761787
_cell_formula_units_Z   2
loop_
 _symmetry_equiv_pos_site_id
 _symmetry_equiv_pos_as_xyz
  1  'x, y, z'
loop_
 _atom_site_type_symbol
 _atom_site_label
 _atom_site_symmetry_multiplicity
 _atom_site_fract_x
 _atom_site_fract_y
 _atom_site_fract_z
 _atom_site_occupancy
  K  K0  1  0.69621200  0.18964700  0.68678600  1
  K  K1  1  0.30378800  0.81035300  0.31321400  1
  Sn  Sn0  1  0.90334100  0.40231500  0.90551300  1
  Sn  Sn1  1  0.09665900  0.59768500  0.09448700  1
  Sn  Sn2  1  0.60370200  0.13188200  0.43852700  1
  Sn  Sn3  1  0.39629800  0.86811800  0.56147300  1
  H  H0  1  0.81312500  0.75328900  0.91508300  1
  H  H1  1  0.18687500  0.24671100  0.08491700  1
  H  H2  1  0.84742900  0.93821300  0.93525600  1
  H  H3  1  0.15257100  0.06178700  0.06474400  1
  H  H4  1  0.90547300  0.84149000  0.01140900  1
  H  H5  1  0.09452700  0.15851000  0.98859100  1
  H  H6  1  0.64985500  0.59901400  0.98493800  1
  H  H7  1  0.35014500  0.40098600  0.01506200  1
  H  H8  1  0.73828900  0.68623400  0.08210400  1
  H  H9  1  0.26171100  0.31376600  0.91789600  1
  H  H10  1  0.54656900  0.65614400  0.06274600  1
  H  H11  1  0.45343100  0.34385600  0.93725400  1
  H  H12  1  0.57038900  0.72046300  0.88538900  1
  H  H13  1  0.42961100  0.27953700  0.11461100  1
  H  H14  1  0.46296100  0.78049600  0.95726200  1
  H  H15  1  0.53703900  0.21950400  0.04273800  1
  H  H16  1  0.59367500  0.90143500  0.90430300  1
  H  H17  1  0.40632500  0.09856500  0.09569700  1
  H  H18  1  0.76829400  0.93144700  0.11372900  1
  H  H19  1  0.23170600  0.06855300  0.88627100  1
  H  H20  1  0.71005900  0.02526300  0.03851300  1
  H  H21  1  0.28994100  0.97473700  0.96148700  1
  H  H22  1  0.58062500  0.90492600  0.09168500  1
  H  H23  1  0.41937500  0.09507400  0.90831500  1
  H  H24  1  0.67816200  0.81152100  0.33264700  1
  H  H25  1  0.32183800  0.18847900  0.66735300  1
  H  H26  1  0.77430300  0.76998200  0.24668200  1
  H  H27  1  0.22569700  0.23001800  0.75331800  1
  H  H28  1  0.58169900  0.70045400  0.24333700  1
  H  H29  1  0.41830100  0.29954600  0.75666300  1
  H  H30  1  0.57073200  0.63523700  0.42056000  1
  H  H31  1  0.42926800  0.36476300  0.57944000  1
  H  H32  1  0.47517400  0.52565400  0.33127400  1
  H  H33  1  0.52482600  0.47434600  0.66872600  1
  H  H34  1  0.58725100  0.46405500  0.40012700  1
  H  H35  1  0.41274900  0.53594500  0.59987300  1
  H  H36  1  0.71265600  0.40831800  0.28359700  1
  H  H37  1  0.28734400  0.59168200  0.71640300  1
  H  H38  1  0.60305800  0.47142800  0.21603000  1
  H  H39  1  0.39694200  0.52857200  0.78397000  1
  H  H40  1  0.79450200  0.54056000  0.21860300  1
  H  H41  1  0.20549800  0.45944000  0.78139700  1
  H  H42  1  0.83232400  0.73247400  0.42400300  1
  H  H43  1  0.16767600  0.26752600  0.57599700  1
  H  H44  1  0.85193400  0.56308500  0.40418600  1
  H  H45  1  0.14806600  0.43691500  0.59581400  1
  H  H46  1  0.92568500  0.69358500  0.33708100  1
  H  H47  1  0.07431500  0.30641500  0.66291900  1
  H  H48  1  0.02767600  0.89427600  0.80371000  1
  H  H49  1  0.97232400  0.10572400  0.19629000  1
  H  H50  1  0.95444800  0.70966500  0.79667900  1
  H  H51  1  0.04555200  0.29033500  0.20332100  1
  H  H52  1  0.11940700  0.78747600  0.74953500  1
  H  H53  1  0.88059300  0.21252400  0.25046500  1
  H  H54  1  0.84291500  0.66927600  0.57643800  1
  H  H55  1  0.15708500  0.33072400  0.42356200  1
  H  H56  1  0.00920400  0.65645400  0.61901900  1
  H  H57  1  0.99079600  0.34354600  0.38098100  1
  H  H58  1  0.84530800  0.58218500  0.66744300  1
  H  H59  1  0.15469200  0.41781500  0.33255700  1
  H  H60  1  0.80411200  0.90728200  0.75363700  1
  H  H61  1  0.19588800  0.09271800  0.24636300  1
  H  H62  1  0.71312800  0.80831600  0.65951000  1
  H  H63  1  0.28687200  0.19168400  0.34049000  1
  H  H64  1  0.73862500  0.72243200  0.74877800  1
  H  H65  1  0.26137500  0.27756800  0.25122200  1
  H  H66  1  0.01451800  0.01359300  0.68376100  1
  H  H67  1  0.98548200  0.98640700  0.31623900  1
  H  H68  1  0.10423800  0.90799500  0.62693900  1
  H  H69  1  0.89576200  0.09200500  0.37306100  1
  H  H70  1  0.93210700  0.91763400  0.58722500  1
  H  H71  1  0.06789300  0.08236600  0.41277500  1
  C  C0  1  0.82372300  0.84013500  0.96239400  1
  C  C1  1  0.17627700  0.15986500  0.03760600  1
  C  C2  1  0.65052700  0.67816200  0.03551400  1
  C  C3  1  0.34947300  0.32183800  0.96448600  1
  C  C4  1  0.56829600  0.80410000  0.93196600  1
  C  C5  1  0.43170400  0.19590000  0.06803400  1
  C  C6  1  0.68501900  0.92718900  0.06534100  1
  C  C7  1  0.31498100  0.07281100  0.93465900  1
  C  C8  1  0.68204000  0.73236600  0.28329900  1
  C  C9  1  0.31796000  0.26763400  0.71670100  1
  C  C10  1  0.57371100  0.55392200  0.37246600  1
  C  C11  1  0.42628900  0.44607800  0.62753400  1
  C  C12  1  0.70358900  0.49923000  0.25532600  1
  C  C13  1  0.29641100  0.50077000  0.74467400  1
  C  C14  1  0.83783200  0.65227500  0.37588700  1
  C  C15  1  0.16216800  0.34772500  0.62411300  1
  C  C16  1  0.01447100  0.79672000  0.76535400  1
  C  C17  1  0.98552900  0.20328000  0.23464600  1
  C  C18  1  0.90458800  0.66664300  0.63388100  1
  C  C19  1  0.09541200  0.33335700  0.36611900  1
  C  C20  1  0.78406600  0.80979600  0.71386100  1
  C  C21  1  0.21593400  0.19020400  0.28613900  1
  C  C22  1  0.99996900  0.91850700  0.64301100  1
  C  C23  1  0.00003100  0.08149300  0.35698900  1
  Se  Se0  1  0.13353700  0.61940800  0.93752200  1
  Se  Se1  1  0.86646300  0.38059200  0.06247800  1
  Se  Se2  1  0.70163800  0.45997000  0.83031100  1
  Se  Se3  1  0.29836200  0.54003000  0.16968900  1
  Se  Se4  1  0.95549900  0.19451200  0.83473200  1
  Se  Se5  1  0.04450100  0.80548800  0.16526800  1
  Se  Se6  1  0.34499500  0.07875100  0.49435000  1
  Se  Se7  1  0.65500500  0.92124900  0.50565000  1
  Se  Se8  1  0.77487800  0.34373800  0.51136200  1
  Se  Se9  1  0.22512200  0.65626200  0.48863800  1
  Se  Se10  1  0.42225200  0.90865900  0.71511500  1
  Se  Se11  1  0.57774800  0.09134100  0.28488500  1
  N  N0  1  0.68142100  0.81351500  0.99942000  1
  N  N1  1  0.31857900  0.18648500  0.00058000  1
  N  N2  1  0.69905000  0.60912900  0.32200300  1
  N  N3  1  0.30095000  0.39087100  0.67799700  1
  N  N4  1  0.92615200  0.79883000  0.68803100  1
  N  N5  1  0.07384800  0.20117000  0.31196900  1
loop_
_geom_bond_atom_site_label_1
_geom_bond_atom_site_label_2
_geom_bond_distance
_geom_bond_site_symmetry_2
K0 Se10 3.389572 1_545
K0 Se8 3.398450 1_555
K0 Se4 3.404294 1_555
K0 Se2 3.441337 1_555
K0 Se7 3.765919 1_545
K1 Se11 3.389572 1_565
K1 Se9 3.398450 1_555
K1 Se5 3.404294 1_555
K1 Se3 3.441337 1_555
K1 Se6 3.765919 1_565
C0 H2 1.098624 1_555
C0 H0 1.099184 1_555
C0 H4 1.100149 1_556
C0 N0 1.504198 1_555
C1 H3 1.098624 1_555
C1 H1 1.099184 1_555
C1 H5 1.100149 1_554
C1 N1 1.504198 1_555
C2 H8 1.098841 1_555
C2 H10 1.099159 1_555
C2 H6 1.099917 1_554
C2 N0 1.506129 1_554
C3 H9 1.098841 1_555
C3 H11 1.099159 1_555
C3 H7 1.099917 1_556
C3 N1 1.506129 1_556
C4 H16 1.095724 1_555
C4 H12 1.096286 1_555
C4 H14 1.096447 1_555
C4 N0 1.499529 1_555
C5 H17 1.095724 1_555
C5 H13 1.096286 1_555
C5 H15 1.096447 1_555
C5 N1 1.499529 1_555
C6 H20 1.095686 1_565
C6 H18 1.095951 1_555
C6 H22 1.096220 1_555
C6 N0 1.500797 1_554
C7 H21 1.095686 1_545
C7 H19 1.095951 1_555
C7 H23 1.096220 1_555
C7 N1 1.500797 1_556
C8 H24 1.098212 1_555
C8 H26 1.098605 1_555
C8 H28 1.099712 1_555
C8 N2 1.505767 1_555
C9 H25 1.098212 1_555
C9 H27 1.098605 1_555
C9 H29 1.099712 1_555
C9 N3 1.505767 1_555
C10 H34 1.097385 1_555
C10 H30 1.097533 1_555
C10 H32 1.098008 1_555
C10 N2 1.506863 1_555
C11 H35 1.097385 1_555
C11 H31 1.097533 1_555
C11 H33 1.098008 1_555
C11 N3 1.506863 1_555
C12 H40 1.096704 1_555
C12 H38 1.097075 1_555
C12 H36 1.097567 1_555
C12 N2 1.502577 1_555
C13 H41 1.096704 1_555
C13 H39 1.097075 1_555
C13 H37 1.097567 1_555
C13 N3 1.502577 1_555
C14 H46 1.096862 1_555
C14 H42 1.097002 1_555
C14 H44 1.098064 1_555
C14 N2 1.509494 1_555
C15 H47 1.096862 1_555
C15 H43 1.097002 1_555
C15 H45 1.098064 1_555
C15 N3 1.509494 1_555
C16 H50 1.095667 1_455
C16 H48 1.098185 1_555
C16 H52 1.098480 1_555
C16 N4 1.499963 1_455
C17 H51 1.095667 1_655
C17 H49 1.098185 1_555
C17 H53 1.098480 1_555
C17 N5 1.499963 1_655
C18 H56 1.094651 1_655
C18 H58 1.096214 1_555
C18 H54 1.096740 1_555
C18 N4 1.499635 1_555
C19 H57 1.094651 1_455
C19 H59 1.096214 1_555
C19 H55 1.096740 1_555
C19 N5 1.499635 1_555
C20 H64 1.095868 1_555
C20 H62 1.095876 1_555
C20 H60 1.099299 1_555
C20 N4 1.503241 1_555
C21 H65 1.095868 1_555
C21 H63 1.095876 1_555
C21 H61 1.099299 1_555
C21 N5 1.503241 1_555
C22 H66 1.095151 1_665
C22 H68 1.097721 1_655
C22 H70 1.098433 1_555
C22 N4 1.499639 1_555
C23 H67 1.095151 1_445
C23 H69 1.097721 1_455
C23 H71 1.098433 1_555
C23 N5 1.499639 1_555
Se0 Sn1 2.619882 1_556
Se0 Sn0 2.650102 1_455
Se1 Sn0 2.619882 1_554
Se1 Sn1 2.650102 1_655
Se2 Sn0 2.516103 1_555
Se3 Sn1 2.516103 1_555
Se4 Sn0 2.519534 1_555
Se5 Sn1 2.519534 1_555
Se6 Sn2 2.651090 1_555
Se6 Sn3 2.662092 1_545
Se7 Sn3 2.651090 1_555
Se7 Sn2 2.662092 1_565
Se8 Sn2 2.475905 1_555
Se9 Sn3 2.475905 1_555
Se10 Sn3 2.489559 1_555
Se11 Sn2 2.489559 1_555
