# generated using pymatgen
data_VBiO3
_symmetry_space_group_name_H-M   'P 1'
_cell_length_a   5.41335664
_cell_length_b   5.63526644
_cell_length_c   7.82987624
_cell_angle_alpha   90.00057967
_cell_angle_beta   90.39745547
_cell_angle_gamma   89.99830294
_symmetry_Int_Tables_number   1
_chemical_formula_structural   VBiO3
_chemical_formula_sum   'V4 Bi4 O12'
_cell_volume   238.85016312
_cell_formula_units_Z   4
loop_
 _symmetry_equiv_pos_site_id
 _symmetry_equiv_pos_as_xyz
  1  'x, y, z'
loop_
 _atom_site_type_symbol
 _atom_site_label
 _atom_site_symmetry_multiplicity
 _atom_site_fract_x
 _atom_site_fract_y
 _atom_site_fract_z
 _atom_site_occupancy
  V  V0  1  -0.00000049  0.49999946  0.49999874  1
  V  V1  1  -0.00000046  0.50000026  0.00000002  1
  V  V2  1  0.50000136  0.00000045  0.49999923  1
  V  V3  1  0.50000030  0.00000026  0.00000131  1
  Bi  Bi0  1  0.01000192  0.95233425  0.74686688  1
  Bi  Bi1  1  0.48999346  0.45231707  0.75308880  1
  Bi  Bi2  1  0.51000671  0.54768371  0.24691149  1
  Bi  Bi3  1  0.99000071  0.04766569  0.25313253  1
  O  O0  1  0.09602892  0.47321136  0.24606232  1
  O  O1  1  0.19654057  0.20128170  0.95501546  1
  O  O2  1  0.18821633  0.20076762  0.54489745  1
  O  O3  1  0.31180377  0.70073303  0.95507135  1
  O  O4  1  0.30341754  0.70130046  0.54495064  1
  O  O5  1  0.40398180  0.97320152  0.25395438  1
  O  O6  1  0.59601772  0.02679782  0.74604549  1
  O  O7  1  0.69658277  0.29869916  0.45504941  1
  O  O8  1  0.68819491  0.29926697  0.04492849  1
  O  O9  1  0.81178227  0.79923222  0.45510238  1
  O  O10  1  0.80345908  0.79871766  0.04498425  1
  O  O11  1  0.90396982  0.52678833  0.75393738  1
loop_
_geom_bond_atom_site_label_1
_geom_bond_atom_site_label_2
_geom_bond_distance
_geom_bond_site_symmetry_2
Bi0 O6 2.279945 1_465
Bi0 O2 2.326540 1_565
Bi0 O1 2.370899 1_565
Bi0 O11 2.466530 1_455
Bi0 O4 2.656740 1_555
Bi0 O9 2.660945 1_455
Bi0 O3 2.701852 1_555
Bi0 O10 2.735765 1_456
Bi1 O11 2.279934 1_555
Bi1 O3 2.326442 1_555
Bi1 O4 2.371032 1_555
Bi1 O6 2.466334 1_555
Bi1 O1 2.656982 1_555
Bi1 O8 2.661309 1_556
Bi1 O2 2.701591 1_555
Bi1 O7 2.735313 1_555
Bi2 O0 2.279943 1_555
Bi2 O8 2.326443 1_555
Bi2 O7 2.371035 1_555
Bi2 O5 2.466327 1_555
Bi2 O10 2.656979 1_555
Bi2 O3 2.661314 1_554
Bi2 O9 2.701581 1_555
Bi2 O4 2.735309 1_555
Bi3 O5 2.279929 1_645
Bi3 O9 2.326552 1_545
Bi3 O10 2.370906 1_545
Bi3 O0 2.466523 1_655
Bi3 O7 2.656750 1_555
Bi3 O2 2.660939 1_655
Bi3 O8 2.701863 1_555
Bi3 O1 2.735755 1_654
O0 V1 1.997764 1_555
O0 V0 2.064135 1_555
O1 V1 2.023567 1_556
O1 V3 2.025117 1_556
O2 V0 2.000025 1_555
O2 V2 2.064071 1_555
O3 V3 2.000224 1_566
O3 V1 2.064151 1_556
O4 V2 2.023614 1_565
O4 V0 2.025001 1_555
O5 V2 1.997623 1_565
O5 V3 2.064255 1_565
O6 V2 1.997629 1_555
O6 V3 2.064274 1_556
O7 V2 2.023599 1_555
O7 V0 2.024990 1_655
O8 V3 2.000212 1_555
O8 V1 2.064154 1_655
O9 V0 2.000027 1_655
O9 V2 2.064054 1_565
O10 V1 2.023559 1_655
O10 V3 2.025112 1_565
O11 V1 1.997767 1_656
O11 V0 2.064152 1_655
