# generated using pymatgen
data_Ba4PdO6
_symmetry_space_group_name_H-M   'P 1'
_cell_length_a   7.30998297
_cell_length_b   7.30998297
_cell_length_c   7.30998303
_cell_angle_alpha   89.39236932
_cell_angle_beta   89.39236932
_cell_angle_gamma   89.39237593
_symmetry_Int_Tables_number   1
_chemical_formula_structural   Ba4PdO6
_chemical_formula_sum   'Ba8 Pd2 O12'
_cell_volume   390.54972947
_cell_formula_units_Z   2
loop_
 _symmetry_equiv_pos_site_id
 _symmetry_equiv_pos_as_xyz
  1  'x, y, z'
loop_
 _atom_site_type_symbol
 _atom_site_label
 _atom_site_symmetry_multiplicity
 _atom_site_fract_x
 _atom_site_fract_y
 _atom_site_fract_z
 _atom_site_occupancy
  Ba  Ba0  1  0.75000000  0.12009681  0.37990319  1
  Ba  Ba1  1  0.62009681  0.25000000  0.87990319  1
  Ba  Ba2  1  0.87990319  0.62009681  0.25000000  1
  Ba  Ba3  1  0.75000000  0.75000000  0.75000000  1
  Ba  Ba4  1  0.25000000  0.25000000  0.25000000  1
  Ba  Ba5  1  0.12009681  0.37990319  0.75000000  1
  Ba  Ba6  1  0.37990319  0.75000000  0.12009681  1
  Ba  Ba7  1  0.25000000  0.87990319  0.62009681  1
  Pd  Pd0  1  0.00000000  -0.00000000  -0.00000000  1
  Pd  Pd1  1  0.50000000  0.50000000  0.50000000  1
  O  O0  1  0.92785033  0.06077066  0.72976699  1
  O  O1  1  0.93922934  0.27023301  0.07214967  1
  O  O2  1  0.77023301  0.43922934  0.57214967  1
  O  O3  1  0.42785033  0.22976699  0.56077066  1
  O  O4  1  0.27023301  0.07214967  0.93922934  1
  O  O5  1  0.56077066  0.42785033  0.22976699  1
  O  O6  1  0.43922934  0.57214967  0.77023301  1
  O  O7  1  0.57214967  0.77023301  0.43922934  1
  O  O8  1  0.72976699  0.92785033  0.06077066  1
  O  O9  1  0.22976699  0.56077066  0.42785033  1
  O  O10  1  0.06077066  0.72976699  0.92785033  1
  O  O11  1  0.07214967  0.93922934  0.27023301  1
loop_
_geom_bond_atom_site_label_1
_geom_bond_atom_site_label_2
_geom_bond_distance
_geom_bond_site_symmetry_2
Ba0 O2 2.742310 1_555
Ba0 O8 2.742310 1_545
Ba0 O3 2.802276 1_555
Ba0 O11 2.802276 1_645
Ba0 O1 2.844779 1_555
Ba0 O5 2.844779 1_555
Ba0 O7 2.907598 1_545
Ba0 O0 2.907598 1_555
Ba1 O1 2.742310 1_556
Ba1 O3 2.742310 1_555
Ba1 O8 2.802276 1_546
Ba1 O6 2.802276 1_555
Ba1 O2 2.844779 1_555
Ba1 O0 2.844779 1_555
Ba1 O4 2.907598 1_555
Ba1 O5 2.907598 1_556
Ba2 O5 2.742309 1_555
Ba2 O11 2.742309 1_655
Ba2 O2 2.802275 1_555
Ba2 O10 2.802275 1_654
Ba2 O8 2.844779 1_555
Ba2 O7 2.844779 1_555
Ba2 O9 2.907598 1_655
Ba2 O1 2.907598 1_555
Ba3 O6 2.631402 1_555
Ba3 O0 2.631402 1_565
Ba3 O10 2.631402 1_655
Ba3 O2 2.631402 1_555
Ba3 O7 2.631402 1_555
Ba3 O8 2.631402 1_556
Ba4 O11 2.631402 1_545
Ba4 O5 2.631402 1_555
Ba4 O9 2.631402 1_555
Ba4 O1 2.631402 1_455
Ba4 O4 2.631402 1_554
Ba4 O3 2.631402 1_555
Ba5 O0 2.742309 1_455
Ba5 O6 2.742309 1_555
Ba5 O1 2.802275 1_456
Ba5 O9 2.802275 1_555
Ba5 O3 2.844779 1_555
Ba5 O4 2.844779 1_555
Ba5 O10 2.907598 1_555
Ba5 O2 2.907598 1_455
Ba6 O10 2.742310 1_554
Ba6 O7 2.742310 1_555
Ba6 O4 2.802276 1_564
Ba6 O5 2.802276 1_555
Ba6 O9 2.844779 1_555
Ba6 O11 2.844779 1_555
Ba6 O8 2.907598 1_555
Ba6 O6 2.907598 1_554
Ba7 O9 2.742310 1_555
Ba7 O4 2.742310 1_565
Ba7 O7 2.802276 1_555
Ba7 O0 2.802276 1_465
Ba7 O10 2.844779 1_555
Ba7 O6 2.844779 1_555
Ba7 O3 2.907598 1_565
Ba7 O11 2.907598 1_555
O0 Pd0 2.091942 1_656
O1 Pd0 2.091942 1_655
O2 Pd1 2.091942 1_555
O3 Pd1 2.091942 1_555
O4 Pd0 2.091942 1_556
O5 Pd1 2.091942 1_555
O6 Pd1 2.091942 1_555
O7 Pd1 2.091942 1_555
O8 Pd0 2.091942 1_665
O9 Pd1 2.091942 1_555
O10 Pd0 2.091942 1_566
O11 Pd0 2.091942 1_565
