# generated using pymatgen
data_Sm2Zr2O7
_symmetry_space_group_name_H-M   'P 1'
_cell_length_a   7.08599400
_cell_length_b   7.52438000
_cell_length_c   12.26165230
_cell_angle_alpha   81.06586393
_cell_angle_beta   90.00000000
_cell_angle_gamma   90.00000000
_symmetry_Int_Tables_number   1
_chemical_formula_structural   Sm2Zr2O7
_chemical_formula_sum   'Sm8 Zr8 O28'
_cell_volume   645.83146822
_cell_formula_units_Z   4
loop_
 _symmetry_equiv_pos_site_id
 _symmetry_equiv_pos_as_xyz
  1  'x, y, z'
loop_
 _atom_site_type_symbol
 _atom_site_label
 _atom_site_symmetry_multiplicity
 _atom_site_fract_x
 _atom_site_fract_y
 _atom_site_fract_z
 _atom_site_occupancy
  Sm  Sm0  1  0.88628400  0.52251300  0.63786200  1
  Sm  Sm1  1  0.38628400  0.47748700  0.86213800  1
  Sm  Sm2  1  0.67428400  0.74965900  0.38538500  1
  Sm  Sm3  1  0.17428400  0.25034100  0.11461500  1
  Sm  Sm4  1  0.82571600  0.74965900  0.88538500  1
  Sm  Sm5  1  0.32571600  0.25034100  0.61461500  1
  Sm  Sm6  1  0.61371600  0.52251300  0.13786200  1
  Sm  Sm7  1  0.11371600  0.47748700  0.36213800  1
  Zr  Zr0  1  0.85775800  0.25158400  0.89760000  1
  Zr  Zr1  1  0.35775800  0.74841600  0.60240000  1
  Zr  Zr2  1  0.10839300  0.94446900  0.38758400  1
  Zr  Zr3  1  0.60839300  0.05553100  0.11241600  1
  Zr  Zr4  1  0.39160700  0.94446900  0.88758400  1
  Zr  Zr5  1  0.89160700  0.05553100  0.61241600  1
  Zr  Zr6  1  0.64224200  0.25158400  0.39760000  1
  Zr  Zr7  1  0.14224200  0.74841600  0.10240000  1
  O  O0  1  0.68103300  0.01038400  0.93697800  1
  O  O1  1  0.22869500  0.52228300  0.67461400  1
  O  O2  1  0.10007500  0.37493700  0.93061100  1
  O  O3  1  0.06323400  0.81760500  0.25042000  1
  O  O4  1  0.60730500  0.80463600  0.19974600  1
  O  O5  1  0.60007500  0.62506300  0.56938900  1
  O  O6  1  0.98663200  0.68834000  0.46857400  1
  O  O7  1  0.72869500  0.47771700  0.82538600  1
  O  O8  1  0.36810100  0.82315200  0.42394200  1
  O  O9  1  0.43676600  0.81760500  0.75042000  1
  O  O10  1  0.18103300  0.98961600  0.56302200  1
  O  O11  1  0.89269500  0.80463600  0.69974600  1
  O  O12  1  0.86810100  0.17684800  0.07605800  1
  O  O13  1  0.51336800  0.68834000  0.96857400  1
  O  O14  1  0.48663200  0.31166000  0.03142600  1
  O  O15  1  0.13189900  0.82315200  0.92394200  1
  O  O16  1  0.10730500  0.19536400  0.30025400  1
  O  O17  1  0.81896700  0.01038400  0.43697800  1
  O  O18  1  0.56323400  0.18239500  0.24958000  1
  O  O19  1  0.63189900  0.17684800  0.57605800  1
  O  O20  1  0.27130500  0.52228300  0.17461400  1
  O  O21  1  0.01336800  0.31166000  0.53142600  1
  O  O22  1  0.39992500  0.37493700  0.43061100  1
  O  O23  1  0.39269500  0.19536400  0.80025400  1
  O  O24  1  0.93676600  0.18239500  0.74958000  1
  O  O25  1  0.89992500  0.62506300  0.06938900  1
  O  O26  1  0.77130500  0.47771700  0.32538600  1
  O  O27  1  0.31896700  0.98961600  0.06302200  1
loop_
_geom_bond_atom_site_label_1
_geom_bond_atom_site_label_2
_geom_bond_distance
_geom_bond_site_symmetry_2
O0 Zr0 2.196118 1_555
O0 Zr4 2.216342 1_545
O0 Zr3 2.287969 1_556
O0 Sm4 2.384406 1_545
O1 Zr1 2.011868 1_555
O1 Sm5 2.380830 1_555
O1 Sm0 2.467768 1_455
O1 Sm1 2.531182 1_555
O2 Zr0 2.022445 1_455
O2 Sm1 2.283022 1_555
O2 Sm3 2.364078 1_556
O3 Zr7 2.042561 1_555
O3 Zr2 2.083483 1_555
O3 Sm7 2.732210 1_555
O4 Zr3 2.020574 1_565
O4 Sm2 2.298954 1_555
O4 Sm6 2.363140 1_555
O5 Zr1 2.022445 1_555
O5 Sm0 2.283022 1_555
O5 Sm2 2.364078 1_555
O6 Zr2 2.202343 1_655
O6 Sm0 2.359401 1_555
O6 Sm7 2.382096 1_655
O6 Sm2 2.450684 1_555
O7 Zr0 2.011868 1_555
O7 Sm4 2.380830 1_555
O7 Sm1 2.467768 1_555
O7 Sm0 2.531182 1_555
O8 Zr2 2.071782 1_555
O8 Zr1 2.174300 1_555
O8 Sm2 2.306019 1_555
O9 Zr1 2.042561 1_555
O9 Zr4 2.083483 1_555
O9 Sm1 2.732210 1_555
O10 Zr1 2.196118 1_555
O10 Zr5 2.216342 1_465
O10 Zr2 2.287969 1_555
O10 Sm5 2.384406 1_565
O11 Zr5 2.020574 1_565
O11 Sm4 2.298954 1_555
O11 Sm0 2.363140 1_555
O12 Zr3 2.071782 1_555
O12 Zr0 2.174300 1_554
O12 Sm3 2.306019 1_655
O13 Zr4 2.202343 1_555
O13 Sm6 2.359401 1_556
O13 Sm1 2.382096 1_555
O13 Sm4 2.450684 1_555
O14 Zr3 2.202343 1_555
O14 Sm1 2.359401 1_554
O14 Sm6 2.382096 1_555
O14 Sm3 2.450684 1_555
O15 Zr4 2.071782 1_555
O15 Zr7 2.174300 1_556
O15 Sm4 2.306019 1_455
O16 Zr2 2.020574 1_545
O16 Sm3 2.298954 1_555
O16 Sm7 2.363140 1_555
O17 Zr6 2.196118 1_555
O17 Zr2 2.216342 1_645
O17 Zr5 2.287969 1_555
O17 Sm2 2.384406 1_545
O18 Zr6 2.042561 1_555
O18 Zr3 2.083483 1_555
O18 Sm6 2.732210 1_555
O19 Zr5 2.071782 1_555
O19 Zr6 2.174300 1_555
O19 Sm5 2.306019 1_555
O20 Zr7 2.011868 1_555
O20 Sm3 2.380830 1_555
O20 Sm6 2.467768 1_555
O20 Sm7 2.531182 1_555
O21 Zr5 2.202343 1_455
O21 Sm7 2.359401 1_555
O21 Sm0 2.382096 1_455
O21 Sm5 2.450684 1_555
O22 Zr6 2.022445 1_555
O22 Sm7 2.283022 1_555
O22 Sm5 2.364078 1_555
O23 Zr4 2.020574 1_545
O23 Sm5 2.298954 1_555
O23 Sm1 2.363140 1_555
O24 Zr0 2.042561 1_555
O24 Zr5 2.083483 1_555
O24 Sm0 2.732210 1_555
O25 Zr7 2.022445 1_655
O25 Sm6 2.283022 1_555
O25 Sm4 2.364078 1_554
O26 Zr6 2.011868 1_555
O26 Sm2 2.380830 1_555
O26 Sm7 2.467768 1_655
O26 Sm6 2.531182 1_555
O27 Zr7 2.196118 1_555
O27 Zr3 2.216342 1_565
O27 Zr4 2.287969 1_554
O27 Sm3 2.384406 1_565
