# generated using pymatgen
data_Li4Mn3Fe(BO3)4
_symmetry_space_group_name_H-M   'P 1'
_cell_length_a   5.24846100
_cell_length_b   6.01659686
_cell_length_c   16.29969074
_cell_angle_alpha   82.03648409
_cell_angle_beta   89.32936529
_cell_angle_gamma   89.52603714
_symmetry_Int_Tables_number   1
_chemical_formula_structural   Li4Mn3Fe(BO3)4
_chemical_formula_sum   'Li8 Mn6 Fe2 B8 O24'
_cell_volume   509.69955985
_cell_formula_units_Z   2
loop_
 _symmetry_equiv_pos_site_id
 _symmetry_equiv_pos_as_xyz
  1  'x, y, z'
loop_
 _atom_site_type_symbol
 _atom_site_label
 _atom_site_symmetry_multiplicity
 _atom_site_fract_x
 _atom_site_fract_y
 _atom_site_fract_z
 _atom_site_occupancy
  Li  Li0  1  0.84862800  0.81786200  0.13839800  1
  Li  Li1  1  0.15137200  0.18213800  0.86160200  1
  Li  Li2  1  0.65222200  0.93545000  0.61019700  1
  Li  Li3  1  0.34777800  0.06455000  0.38980300  1
  Li  Li4  1  0.64868800  0.43630600  0.10944200  1
  Li  Li5  1  0.35131200  0.56369400  0.89055800  1
  Li  Li6  1  0.84767900  0.31511900  0.64111700  1
  Li  Li7  1  0.15232100  0.68488100  0.35888300  1
  Mn  Mn0  1  0.67049100  0.02013800  0.79133500  1
  Mn  Mn1  1  0.16943100  0.77602400  0.53951100  1
  Mn  Mn2  1  0.32950900  0.97986200  0.20866500  1
  Mn  Mn3  1  0.83056900  0.22397600  0.46048900  1
  Mn  Mn4  1  0.66813500  0.52718000  0.28910100  1
  Mn  Mn5  1  0.33186500  0.47282000  0.71089900  1
  Fe  Fe0  1  0.16946600  0.27747700  0.03732000  1
  Fe  Fe1  1  0.83053400  0.72252300  0.96268000  1
  B  B0  1  0.32744000  0.78738500  0.04493300  1
  B  B1  1  0.82956300  0.03533300  0.29714400  1
  B  B2  1  0.67256000  0.21261500  0.95506700  1
  B  B3  1  0.17043700  0.96466700  0.70285600  1
  B  B4  1  0.83299700  0.53242500  0.79958500  1
  B  B5  1  0.33019500  0.28476800  0.54811700  1
  B  B6  1  0.16700300  0.46757500  0.20041500  1
  B  B7  1  0.66980500  0.71523200  0.45188300  1
  O  O0  1  0.58801400  0.76462800  0.05720700  1
  O  O1  1  0.18360800  0.92141700  0.09222900  1
  O  O2  1  0.71198200  0.91973300  0.23946700  1
  O  O3  1  0.28801800  0.08026700  0.76053300  1
  O  O4  1  0.78597100  0.83253000  0.50927100  1
  O  O5  1  0.81639200  0.07858300  0.90777100  1
  O  O6  1  0.31955500  0.83114000  0.65644900  1
  O  O7  1  0.08868400  0.01321400  0.31075200  1
  O  O8  1  0.41198600  0.23537200  0.94279300  1
  O  O9  1  0.91131600  0.98678600  0.68924800  1
  O  O10  1  0.68044500  0.16886000  0.34355100  1
  O  O11  1  0.21402900  0.16747000  0.49072900  1
  O  O12  1  0.79333900  0.32920900  0.01171700  1
  O  O13  1  0.31474900  0.33502200  0.15327800  1
  O  O14  1  0.09209000  0.51002100  0.81282600  1
  O  O15  1  0.58917100  0.26378800  0.56210200  1
  O  O16  1  0.90791000  0.48997900  0.18717400  1
  O  O17  1  0.68525100  0.66497800  0.84672200  1
  O  O18  1  0.17995800  0.41853700  0.59413500  1
  O  O19  1  0.20666100  0.67079100  0.98828300  1
  O  O20  1  0.71491700  0.41912900  0.74154300  1
  O  O21  1  0.28508300  0.58087100  0.25845700  1
  O  O22  1  0.82004200  0.58146300  0.40586500  1
  O  O23  1  0.41082900  0.73621200  0.43789800  1
loop_
_geom_bond_atom_site_label_1
_geom_bond_atom_site_label_2
_geom_bond_distance
_geom_bond_site_symmetry_2
Li0 O2 1.961828 1_555
Li0 O0 1.972802 1_555
Li0 O1 1.975540 1_655
Li0 O16 2.044907 1_555
Li1 O3 1.961828 1_555
Li1 O8 1.972802 1_555
Li1 O5 1.975540 1_455
Li1 O14 2.044907 1_555
Li2 O9 1.939862 1_555
Li2 O4 1.957161 1_555
Li2 O6 1.966449 1_555
Li2 O15 2.047614 1_565
Li3 O7 1.939862 1_555
Li3 O11 1.957161 1_555
Li3 O10 1.966449 1_555
Li3 O23 2.047614 1_545
Li4 O16 1.929142 1_555
Li4 O12 1.943415 1_555
Li4 O13 1.954847 1_555
Li4 O0 2.063580 1_555
Li5 O14 1.929142 1_555
Li5 O19 1.943415 1_555
Li5 O17 1.954847 1_555
Li5 O8 2.063580 1_555
Li6 O15 1.937264 1_555
Li6 O20 1.951035 1_555
Li6 O18 1.967139 1_655
Li6 O9 2.048223 1_545
Li7 O23 1.937264 1_555
Li7 O21 1.951035 1_555
Li7 O22 1.967139 1_455
Li7 O7 2.048223 1_565
Mn0 O3 2.091370 1_555
Mn0 O9 2.108508 1_545
Mn0 O5 2.129634 1_555
Mn0 O17 2.202622 1_545
Mn0 O20 2.437369 1_555
Mn1 O4 2.091522 1_455
Mn1 O23 2.112242 1_555
Mn1 O6 2.139728 1_555
Mn1 O18 2.211453 1_555
Mn1 O11 2.391597 1_565
Mn2 O2 2.091370 1_555
Mn2 O7 2.108508 1_565
Mn2 O1 2.129634 1_555
Mn2 O13 2.202622 1_565
Mn2 O21 2.437369 1_555
Mn3 O11 2.091522 1_655
Mn3 O15 2.112242 1_555
Mn3 O10 2.139728 1_555
Mn3 O22 2.211453 1_555
Mn3 O4 2.391597 1_545
Mn4 O21 2.088956 1_555
Mn4 O16 2.107938 1_555
Mn4 O22 2.139303 1_555
Mn4 O10 2.215513 1_555
Mn4 O2 2.400191 1_555
Mn5 O20 2.088956 1_555
Mn5 O14 2.107938 1_555
Mn5 O18 2.139303 1_555
Mn5 O6 2.215513 1_555
Mn5 O3 2.400191 1_555
Fe0 O8 2.028594 1_554
Fe0 O12 2.034990 1_455
Fe0 O13 2.119699 1_555
Fe0 O1 2.205337 1_545
Fe0 O19 2.399328 1_554
Fe1 O0 2.028594 1_556
Fe1 O19 2.034990 1_655
Fe1 O17 2.119699 1_555
Fe1 O5 2.205337 1_565
Fe1 O12 2.399328 1_556
B0 O0 1.387391 1_555
B0 O19 1.395386 1_554
B0 O1 1.401086 1_555
B1 O7 1.382881 1_655
B1 O2 1.396518 1_545
B1 O10 1.405074 1_555
B2 O8 1.387391 1_555
B2 O12 1.395386 1_556
B2 O5 1.401086 1_555
B3 O9 1.382881 1_455
B3 O3 1.396518 1_565
B3 O6 1.405074 1_555
B4 O14 1.381915 1_655
B4 O20 1.393979 1_555
B4 O17 1.404727 1_555
B5 O15 1.382690 1_555
B5 O11 1.395765 1_555
B5 O18 1.405368 1_555
B6 O16 1.381915 1_455
B6 O21 1.393979 1_555
B6 O13 1.404727 1_555
B7 O23 1.382690 1_555
B7 O4 1.395765 1_555
B7 O22 1.405368 1_555
