# generated using pymatgen
data_Na4Bi2As(CO4)4
_symmetry_space_group_name_H-M   'P 1'
_cell_length_a   10.70411516
_cell_length_b   10.60430930
_cell_length_c   10.32361813
_cell_angle_alpha   61.50695919
_cell_angle_beta   60.53779996
_cell_angle_gamma   57.95524085
_symmetry_Int_Tables_number   1
_chemical_formula_structural   Na4Bi2As(CO4)4
_chemical_formula_sum   'Na8 Bi4 As2 C8 O32'
_cell_volume   826.93247948
_cell_formula_units_Z   2
loop_
 _symmetry_equiv_pos_site_id
 _symmetry_equiv_pos_as_xyz
  1  'x, y, z'
loop_
 _atom_site_type_symbol
 _atom_site_label
 _atom_site_symmetry_multiplicity
 _atom_site_fract_x
 _atom_site_fract_y
 _atom_site_fract_z
 _atom_site_occupancy
  Na  Na0  1  0.95430800  0.54569200  0.95430800  1
  Na  Na1  1  0.95566500  0.54433500  0.54433500  1
  Na  Na2  1  0.70566500  0.29433500  0.29433500  1
  Na  Na3  1  0.70430800  0.29569200  0.70430800  1
  Na  Na4  1  0.54569200  0.95430800  0.54569200  1
  Na  Na5  1  0.54433500  0.95566500  0.95566500  1
  Na  Na6  1  0.29433500  0.70566500  0.70566500  1
  Na  Na7  1  0.29569200  0.70430800  0.29569200  1
  Bi  Bi0  1  0.12500000  0.62500000  0.12500000  1
  Bi  Bi1  1  0.62500000  0.12500000  0.12500000  1
  Bi  Bi2  1  0.12500000  0.12500000  0.12500000  1
  Bi  Bi3  1  0.12500000  0.12500000  0.62500000  1
  As  As0  1  0.50000000  0.50000000  0.50000000  1
  As  As1  1  0.75000000  0.75000000  0.75000000  1
  C  C0  1  0.89569200  0.28322300  0.91347600  1
  C  C1  1  0.96677700  0.35430800  0.34239100  1
  C  C2  1  0.91347600  0.90760900  0.89569200  1
  C  C3  1  0.90760900  0.91347600  0.28322300  1
  C  C4  1  0.34239100  0.33652400  0.96677700  1
  C  C5  1  0.33652400  0.34239100  0.35430800  1
  C  C6  1  0.28322300  0.89569200  0.90760900  1
  C  C7  1  0.35430800  0.96677700  0.33652400  1
  O  O0  1  0.00623300  0.29122000  0.92568700  1
  O  O1  1  0.55820100  0.55858800  0.29946400  1
  O  O2  1  0.77422800  0.27181500  0.03348000  1
  O  O3  1  0.97818500  0.47577200  0.32952300  1
  O  O4  1  0.03348000  0.92047700  0.77422800  1
  O  O5  1  0.96122100  0.34344800  0.22430700  1
  O  O6  1  0.29946400  0.58374700  0.55820100  1
  O  O7  1  0.55858800  0.55820100  0.58374700  1
  O  O8  1  0.47102400  0.22430700  0.34344800  1
  O  O9  1  0.92047700  0.03348000  0.27181500  1
  O  O10  1  0.95878000  0.24376700  0.47313900  1
  O  O11  1  0.58374700  0.29946400  0.55858800  1
  O  O12  1  0.92568700  0.77686100  0.00623300  1
  O  O13  1  0.77686100  0.92568700  0.29122000  1
  O  O14  1  0.90655200  0.28877900  0.77897600  1
  O  O15  1  0.22430700  0.47102400  0.96122100  1
  O  O16  1  0.02569300  0.77897600  0.28877900  1
  O  O17  1  0.34344800  0.96122100  0.47102400  1
  O  O18  1  0.47313900  0.32431300  0.95878000  1
  O  O19  1  0.32431300  0.47313900  0.24376700  1
  O  O20  1  0.66625300  0.95053600  0.69141200  1
  O  O21  1  0.29122000  0.00623300  0.77686100  1
  O  O22  1  0.32952300  0.21652000  0.97818500  1
  O  O23  1  0.77897600  0.02569300  0.90655200  1
  O  O24  1  0.69141200  0.69179900  0.66625300  1
  O  O25  1  0.95053600  0.66625300  0.69179900  1
  O  O26  1  0.28877900  0.90655200  0.02569300  1
  O  O27  1  0.21652000  0.32952300  0.47577200  1
  O  O28  1  0.27181500  0.77422800  0.92047700  1
  O  O29  1  0.47577200  0.97818500  0.21652000  1
  O  O30  1  0.69179900  0.69141200  0.95053600  1
  O  O31  1  0.24376700  0.95878000  0.32431300  1
loop_
_geom_bond_atom_site_label_1
_geom_bond_atom_site_label_2
_geom_bond_distance
_geom_bond_site_symmetry_2
Na0 O25 2.393244 1_555
Na0 O30 2.393244 1_555
Na0 O0 2.585677 1_655
Na0 O12 2.585688 1_556
Na0 O15 2.589469 1_655
Na0 O5 2.589469 1_556
Na1 O24 2.390063 1_555
Na1 O25 2.390063 1_555
Na1 O27 2.516180 1_655
Na1 O3 2.516180 1_555
Na1 O14 2.735701 1_555
Na1 O16 2.735701 1_655
Na2 O11 2.390063 1_555
Na2 O1 2.390063 1_555
Na2 O9 2.516180 1_555
Na2 O2 2.516180 1_555
Na2 O5 2.735701 1_555
Na2 O8 2.735701 1_555
Na3 O7 2.393244 1_555
Na3 O11 2.393244 1_555
Na3 O18 2.585681 1_555
Na3 O10 2.585682 1_555
Na3 O14 2.589469 1_555
Na3 O23 2.589469 1_555
Na4 O24 2.393244 1_555
Na4 O20 2.393244 1_555
Na4 O13 2.585681 1_555
Na4 O21 2.585682 1_565
Na4 O8 2.589469 1_565
Na4 O17 2.589469 1_555
Na5 O20 2.390063 1_555
Na5 O30 2.390063 1_555
Na5 O22 2.516180 1_565
Na5 O29 2.516180 1_556
Na5 O26 2.735701 1_556
Na5 O23 2.735701 1_565
Na6 O7 2.390063 1_555
Na6 O6 2.390063 1_555
Na6 O28 2.516180 1_555
Na6 O4 2.516180 1_555
Na6 O17 2.735701 1_555
Na6 O15 2.735701 1_555
Na7 O1 2.393244 1_555
Na7 O6 2.393244 1_555
Na7 O31 2.585677 1_555
Na7 O19 2.585688 1_555
Na7 O26 2.589469 1_555
Na7 O16 2.589469 1_555
Bi0 O28 2.370442 1_554
Bi0 O3 2.370442 1_455
Bi0 O15 2.383066 1_554
Bi0 O16 2.383066 1_555
Bi0 O12 2.385761 1_455
Bi0 O19 2.385761 1_555
Bi1 O2 2.370442 1_555
Bi1 O29 2.370442 1_545
Bi1 O23 2.383066 1_554
Bi1 O8 2.383066 1_555
Bi1 O13 2.385768 1_545
Bi1 O18 2.385768 1_554
Bi2 O9 2.370442 1_455
Bi2 O22 2.370442 1_554
Bi2 O26 2.383066 1_545
Bi2 O5 2.383066 1_455
Bi2 O0 2.385762 1_554
Bi2 O31 2.385762 1_545
Bi3 O27 2.370442 1_555
Bi3 O4 2.370442 1_545
Bi3 O14 2.383066 1_455
Bi3 O17 2.383066 1_545
Bi3 O21 2.385769 1_555
Bi3 O10 2.385769 1_455
As0 O7 1.724787 1_555
As0 O1 1.724787 1_555
As0 O11 1.724787 1_555
As0 O6 1.724787 1_555
As1 O24 1.724787 1_555
As1 O25 1.724787 1_555
As1 O30 1.724787 1_555
As1 O20 1.724787 1_555
C0 O2 1.295879 1_556
C0 O0 1.298675 1_655
C0 O14 1.309742 1_555
C1 O3 1.295879 1_555
C1 O10 1.298669 1_555
C1 O5 1.309742 1_555
C2 O4 1.295879 1_655
C2 O12 1.298669 1_556
C2 O23 1.309742 1_565
C3 O9 1.295879 1_565
C3 O13 1.298665 1_555
C3 O16 1.309742 1_655
C4 O22 1.295879 1_555
C4 O18 1.298665 1_555
C4 O15 1.309742 1_555
C5 O27 1.295879 1_555
C5 O19 1.298669 1_555
C5 O8 1.309742 1_555
C6 O28 1.295879 1_555
C6 O21 1.298669 1_565
C6 O26 1.309742 1_556
C7 O29 1.295879 1_555
C7 O31 1.298675 1_555
C7 O17 1.309742 1_555
