# generated using pymatgen
data_Mn2Ni(PO4)3
_symmetry_space_group_name_H-M   'P 1'
_cell_length_a   8.43941765
_cell_length_b   8.43941765
_cell_length_c   8.43941780
_cell_angle_alpha   60.89738971
_cell_angle_beta   60.89738971
_cell_angle_gamma   60.89738732
_symmetry_Int_Tables_number   1
_chemical_formula_structural   Mn2Ni(PO4)3
_chemical_formula_sum   'Mn4 Ni2 P6 O24'
_cell_volume   433.63018209
_cell_formula_units_Z   2
loop_
 _symmetry_equiv_pos_site_id
 _symmetry_equiv_pos_as_xyz
  1  'x, y, z'
loop_
 _atom_site_type_symbol
 _atom_site_label
 _atom_site_symmetry_multiplicity
 _atom_site_fract_x
 _atom_site_fract_y
 _atom_site_fract_z
 _atom_site_occupancy
  Mn  Mn0  1  0.14195400  0.14195400  0.14195400  1
  Mn  Mn1  1  0.35804600  0.35804600  0.35804600  1
  Mn  Mn2  1  0.64195400  0.64195400  0.64195400  1
  Mn  Mn3  1  0.85804600  0.85804600  0.85804600  1
  Ni  Ni0  1  0.00000000  0.00000000  0.00000000  1
  Ni  Ni1  1  0.50000000  0.50000000  0.50000000  1
  P  P0  1  0.75000000  0.04274100  0.45725900  1
  P  P1  1  0.04274100  0.45725900  0.75000000  1
  P  P2  1  0.45725900  0.75000000  0.04274100  1
  P  P3  1  0.54274100  0.25000000  0.95725900  1
  P  P4  1  0.95725900  0.54274100  0.25000000  1
  P  P5  1  0.25000000  0.95725900  0.54274100  1
  O  O0  1  0.31386800  0.11492600  0.50871200  1
  O  O1  1  0.50871200  0.31386800  0.11492600  1
  O  O2  1  0.91119800  0.05737800  0.25687200  1
  O  O3  1  0.11492600  0.50871200  0.31386800  1
  O  O4  1  0.81386800  0.00871200  0.61492600  1
  O  O5  1  0.58880200  0.24312800  0.44262200  1
  O  O6  1  0.05737800  0.25687200  0.91119800  1
  O  O7  1  0.24312800  0.44262200  0.58880200  1
  O  O8  1  0.38507400  0.18613200  0.99128800  1
  O  O9  1  0.44262200  0.58880200  0.24312800  1
  O  O10  1  0.74312800  0.08880200  0.94262200  1
  O  O11  1  0.99128800  0.38507400  0.18613200  1
  O  O12  1  0.00871200  0.61492600  0.81386800  1
  O  O13  1  0.25687200  0.91119800  0.05737800  1
  O  O14  1  0.55737800  0.41119800  0.75687200  1
  O  O15  1  0.61492600  0.81386800  0.00871200  1
  O  O16  1  0.75687200  0.55737800  0.41119800  1
  O  O17  1  0.94262200  0.74312800  0.08880200  1
  O  O18  1  0.41119800  0.75687200  0.55737800  1
  O  O19  1  0.18613200  0.99128800  0.38507400  1
  O  O20  1  0.88507400  0.49128800  0.68613200  1
  O  O21  1  0.08880200  0.94262200  0.74312800  1
  O  O22  1  0.49128800  0.68613200  0.88507400  1
  O  O23  1  0.68613200  0.88507400  0.49128800  1
loop_
_geom_bond_atom_site_label_1
_geom_bond_atom_site_label_2
_geom_bond_distance
_geom_bond_site_symmetry_2
Mn0 O11 1.926345 1_455
Mn0 O8 1.926345 1_554
Mn0 O19 1.926345 1_545
Mn0 O13 2.020924 1_545
Mn0 O6 2.020924 1_554
Mn0 O2 2.020924 1_455
Mn1 O3 1.926345 1_555
Mn1 O0 1.926345 1_555
Mn1 O1 1.926345 1_555
Mn1 O5 2.020924 1_555
Mn1 O7 2.020924 1_555
Mn1 O9 2.020924 1_555
Mn2 O20 1.926345 1_555
Mn2 O23 1.926345 1_555
Mn2 O22 1.926345 1_555
Mn2 O18 2.020924 1_555
Mn2 O16 2.020924 1_555
Mn2 O14 2.020924 1_555
Mn3 O12 1.926345 1_655
Mn3 O15 1.926345 1_556
Mn3 O4 1.926345 1_565
Mn3 O10 2.020924 1_565
Mn3 O17 2.020924 1_556
Mn3 O21 2.020924 1_655
Ni0 O10 2.140900 1_454
Ni0 O13 2.140900 1_545
Ni0 O17 2.140900 1_445
Ni0 O6 2.140900 1_554
Ni0 O2 2.140900 1_455
Ni0 O21 2.140900 1_544
Ni1 O5 2.140900 1_555
Ni1 O18 2.140900 1_555
Ni1 O16 2.140900 1_555
Ni1 O7 2.140900 1_555
Ni1 O9 2.140900 1_555
Ni1 O14 2.140900 1_555
O0 P5 1.522801 1_545
O1 P3 1.522801 1_554
O2 P0 1.564693 1_555
O3 P4 1.522801 1_455
O4 P0 1.522801 1_555
O5 P0 1.564693 1_555
O6 P1 1.564693 1_555
O7 P1 1.564693 1_555
O8 P3 1.522801 1_555
O9 P2 1.564693 1_555
O10 P3 1.564693 1_555
O11 P4 1.522801 1_555
O12 P1 1.522801 1_555
O13 P2 1.564693 1_555
O14 P3 1.564693 1_555
O15 P2 1.522801 1_555
O16 P4 1.564693 1_555
O17 P4 1.564693 1_555
O18 P5 1.564693 1_555
O19 P5 1.522801 1_555
O20 P1 1.522801 1_655
O21 P5 1.564693 1_555
O22 P2 1.522801 1_556
O23 P0 1.522801 1_565
