# generated using pymatgen
data_Ba3Y2Cl12
_symmetry_space_group_name_H-M   'P 1'
_cell_length_a   12.88034700
_cell_length_b   12.02072400
_cell_length_c   19.33331690
_cell_angle_alpha   57.59236628
_cell_angle_beta   90.00000000
_cell_angle_gamma   90.00000000
_symmetry_Int_Tables_number   1
_chemical_formula_structural   Ba3Y2Cl12
_chemical_formula_sum   'Ba12 Y8 Cl48'
_cell_volume   2527.19635187
_cell_formula_units_Z   4
loop_
 _symmetry_equiv_pos_site_id
 _symmetry_equiv_pos_as_xyz
  1  'x, y, z'
loop_
 _atom_site_type_symbol
 _atom_site_label
 _atom_site_symmetry_multiplicity
 _atom_site_fract_x
 _atom_site_fract_y
 _atom_site_fract_z
 _atom_site_occupancy
  Ba  Ba0  1  0.20519000  0.42932200  0.52336500  1
  Ba  Ba1  1  0.13132700  0.71759200  0.14664900  1
  Ba  Ba2  1  0.34561200  0.96234400  0.89814600  1
  Ba  Ba3  1  0.63132700  0.28240800  0.35335100  1
  Ba  Ba4  1  0.84561200  0.03765600  0.60185400  1
  Ba  Ba5  1  0.70519000  0.57067800  0.97663500  1
  Ba  Ba6  1  0.29481000  0.42932200  0.02336500  1
  Ba  Ba7  1  0.15438800  0.96234400  0.39814600  1
  Ba  Ba8  1  0.36867300  0.71759200  0.64664900  1
  Ba  Ba9  1  0.65438800  0.03765600  0.10185400  1
  Ba  Ba10  1  0.86867300  0.28240800  0.85335100  1
  Ba  Ba11  1  0.79481000  0.57067800  0.47663500  1
  Y  Y0  1  0.48204800  0.63036200  0.13614400  1
  Y  Y1  1  0.98204800  0.36963800  0.36385600  1
  Y  Y2  1  0.53085300  0.11277200  0.64154500  1
  Y  Y3  1  0.03085300  0.88722800  0.85845500  1
  Y  Y4  1  0.96914700  0.11277200  0.14154500  1
  Y  Y5  1  0.46914700  0.88722800  0.35845500  1
  Y  Y6  1  0.01795200  0.63036200  0.63614400  1
  Y  Y7  1  0.51795200  0.36963800  0.86385600  1
  Cl  Cl0  1  0.62706300  0.80957900  0.06993000  1
  Cl  Cl1  1  0.65257600  0.32860700  0.55046000  1
  Cl  Cl2  1  0.80313100  0.50476400  0.34119600  1
  Cl  Cl3  1  0.92685800  0.11022400  0.78779100  1
  Cl  Cl4  1  0.12589000  0.54405300  0.34491300  1
  Cl  Cl5  1  0.35325200  0.83004200  0.09274100  1
  Cl  Cl6  1  0.11475300  0.94752800  0.96496100  1
  Cl  Cl7  1  0.47663500  0.15860600  0.75383000  1
  Cl  Cl8  1  0.19138400  0.02343800  0.76580800  1
  Cl  Cl9  1  0.37160900  0.23971000  0.54296000  1
  Cl  Cl10  1  0.98634300  0.48465100  0.20626800  1
  Cl  Cl11  1  0.46505400  0.67467200  0.97971400  1
  Cl  Cl12  1  0.48634300  0.51534900  0.29373200  1
  Cl  Cl13  1  0.96505400  0.32532800  0.52028600  1
  Cl  Cl14  1  0.87160900  0.76029000  0.95704000  1
  Cl  Cl15  1  0.69138400  0.97656200  0.73419200  1
  Cl  Cl16  1  0.61475300  0.05247200  0.53503900  1
  Cl  Cl17  1  0.85325200  0.16995800  0.40725900  1
  Cl  Cl18  1  0.97663500  0.84139400  0.74617000  1
  Cl  Cl19  1  0.62589000  0.45594700  0.15508700  1
  Cl  Cl20  1  0.30313100  0.49523600  0.15880400  1
  Cl  Cl21  1  0.12706300  0.19042100  0.43007000  1
  Cl  Cl22  1  0.42685800  0.88977600  0.71220900  1
  Cl  Cl23  1  0.15257600  0.67139300  0.94954000  1
  Cl  Cl24  1  0.84742400  0.32860700  0.05046000  1
  Cl  Cl25  1  0.57314200  0.11022400  0.28779100  1
  Cl  Cl26  1  0.87293700  0.80957900  0.56993000  1
  Cl  Cl27  1  0.69686900  0.50476400  0.84119600  1
  Cl  Cl28  1  0.37411000  0.54405300  0.84491300  1
  Cl  Cl29  1  0.02336500  0.15860600  0.25383000  1
  Cl  Cl30  1  0.14674800  0.83004200  0.59274100  1
  Cl  Cl31  1  0.38524700  0.94752800  0.46496100  1
  Cl  Cl32  1  0.30861600  0.02343800  0.26580800  1
  Cl  Cl33  1  0.12839100  0.23971000  0.04296000  1
  Cl  Cl34  1  0.03494600  0.67467200  0.47971400  1
  Cl  Cl35  1  0.51365700  0.48465100  0.70626800  1
  Cl  Cl36  1  0.53494600  0.32532800  0.02028600  1
  Cl  Cl37  1  0.01365700  0.51534900  0.79373200  1
  Cl  Cl38  1  0.62839100  0.76029000  0.45704000  1
  Cl  Cl39  1  0.80861600  0.97656200  0.23419200  1
  Cl  Cl40  1  0.52336500  0.84139400  0.24617000  1
  Cl  Cl41  1  0.88524700  0.05247200  0.03503900  1
  Cl  Cl42  1  0.64674800  0.16995800  0.90725900  1
  Cl  Cl43  1  0.87411000  0.45594700  0.65508700  1
  Cl  Cl44  1  0.07314200  0.88977600  0.21220900  1
  Cl  Cl45  1  0.19686900  0.49523600  0.65880400  1
  Cl  Cl46  1  0.34742400  0.67139300  0.44954000  1
  Cl  Cl47  1  0.37293700  0.19042100  0.93007000  1
loop_
_geom_bond_atom_site_label_1
_geom_bond_atom_site_label_2
_geom_bond_distance
_geom_bond_site_symmetry_2
Ba0 Cl9 3.001301 1_555
Ba0 Cl46 3.067417 1_555
Ba0 Cl45 3.117625 1_555
Ba0 Cl4 3.122201 1_555
Ba0 Cl13 3.348564 1_455
Ba0 Cl34 3.398676 1_555
Ba1 Cl10 3.032669 1_455
Ba1 Cl44 3.043710 1_555
Ba1 Cl5 3.094219 1_555
Ba1 Cl6 3.101140 1_554
Ba1 Cl4 3.237034 1_555
Ba1 Cl20 3.379815 1_555
Ba2 Cl8 3.002935 1_565
Ba2 Cl7 3.023748 1_565
Ba2 Cl47 3.136115 1_565
Ba2 Cl5 3.206175 1_556
Ba2 Cl6 3.208694 1_555
Ba2 Cl11 3.311562 1_555
Ba3 Cl12 3.032669 1_555
Ba3 Cl25 3.043710 1_555
Ba3 Cl17 3.094219 1_555
Ba3 Cl16 3.101140 1_555
Ba3 Cl19 3.237034 1_555
Ba3 Cl2 3.379815 1_555
Ba4 Cl15 3.002935 1_545
Ba4 Cl18 3.023748 1_545
Ba4 Cl26 3.136115 1_545
Ba4 Cl17 3.206175 1_555
Ba4 Cl16 3.208694 1_555
Ba4 Cl13 3.311562 1_555
Ba5 Cl14 3.001301 1_555
Ba5 Cl24 3.067417 1_556
Ba5 Cl27 3.117625 1_555
Ba5 Cl19 3.122201 1_556
Ba5 Cl11 3.348564 1_555
Ba5 Cl36 3.398676 1_556
Ba6 Cl33 3.001301 1_555
Ba6 Cl23 3.067417 1_554
Ba6 Cl20 3.117625 1_555
Ba6 Cl28 3.122201 1_554
Ba6 Cl36 3.348564 1_555
Ba6 Cl11 3.398676 1_554
Ba7 Cl32 3.002935 1_565
Ba7 Cl29 3.023748 1_565
Ba7 Cl21 3.136115 1_565
Ba7 Cl30 3.206175 1_555
Ba7 Cl31 3.208694 1_555
Ba7 Cl34 3.311562 1_555
Ba8 Cl35 3.032669 1_555
Ba8 Cl22 3.043710 1_555
Ba8 Cl30 3.094219 1_555
Ba8 Cl31 3.101140 1_555
Ba8 Cl28 3.237034 1_555
Ba8 Cl45 3.379815 1_555
Ba9 Cl39 3.002935 1_545
Ba9 Cl40 3.023748 1_545
Ba9 Cl0 3.136115 1_545
Ba9 Cl42 3.206175 1_554
Ba9 Cl41 3.208694 1_555
Ba9 Cl36 3.311562 1_555
Ba10 Cl37 3.032669 1_655
Ba10 Cl3 3.043710 1_555
Ba10 Cl42 3.094219 1_555
Ba10 Cl41 3.101140 1_556
Ba10 Cl43 3.237034 1_555
Ba10 Cl27 3.379815 1_555
Ba11 Cl38 3.001301 1_555
Ba11 Cl1 3.067417 1_555
Ba11 Cl2 3.117625 1_555
Ba11 Cl43 3.122201 1_555
Ba11 Cl34 3.348564 1_655
Ba11 Cl13 3.398676 1_555
Cl0 Y0 2.610101 1_555
Cl1 Y2 2.719061 1_555
Cl2 Y1 2.716311 1_555
Cl3 Y3 2.630739 1_645
Cl4 Y1 2.671971 1_455
Cl5 Y0 2.656824 1_555
Cl6 Y3 2.744634 1_555
Cl7 Y2 2.604958 1_555
Cl8 Y3 2.649715 1_545
Cl9 Y2 2.655336 1_555
Cl10 Y1 2.584938 1_555
Cl11 Y0 2.784137 1_556
Cl12 Y0 2.584938 1_555
Cl13 Y1 2.784137 1_555
Cl14 Y3 2.655336 1_655
Cl15 Y2 2.649715 1_565
Cl16 Y2 2.744634 1_555
Cl17 Y1 2.656824 1_555
Cl18 Y3 2.604958 1_655
Cl19 Y0 2.671971 1_555
Cl20 Y0 2.716311 1_555
Cl21 Y1 2.610101 1_455
Cl22 Y2 2.630739 1_565
Cl23 Y3 2.719061 1_555
Cl24 Y4 2.719061 1_555
Cl25 Y5 2.630739 1_545
Cl26 Y6 2.610101 1_655
Cl27 Y7 2.716311 1_555
Cl28 Y7 2.671971 1_555
Cl29 Y4 2.604958 1_455
Cl30 Y6 2.656824 1_555
Cl31 Y5 2.744634 1_555
Cl32 Y5 2.649715 1_545
Cl33 Y4 2.655336 1_455
Cl34 Y6 2.784137 1_555
Cl35 Y7 2.584938 1_555
Cl36 Y7 2.784137 1_554
Cl37 Y6 2.584938 1_555
Cl38 Y5 2.655336 1_555
Cl39 Y4 2.649715 1_565
Cl40 Y5 2.604958 1_555
Cl41 Y4 2.744634 1_555
Cl42 Y7 2.656824 1_555
Cl43 Y6 2.671971 1_655
Cl44 Y4 2.630739 1_465
Cl45 Y6 2.716311 1_555
Cl46 Y5 2.719061 1_555
Cl47 Y7 2.610101 1_555
