# generated using pymatgen
data_YHO2
_symmetry_space_group_name_H-M   'P 1'
_cell_length_a   3.50355168
_cell_length_b   3.50355168
_cell_length_c   9.14119681
_cell_angle_alpha   90.00000000
_cell_angle_beta   90.00000000
_cell_angle_gamma   120.00001658
_symmetry_Int_Tables_number   1
_chemical_formula_structural   YHO2
_chemical_formula_sum   'Y2 H2 O4'
_cell_volume   97.17413292
_cell_formula_units_Z   2
loop_
 _symmetry_equiv_pos_site_id
 _symmetry_equiv_pos_as_xyz
  1  'x, y, z'
loop_
 _atom_site_type_symbol
 _atom_site_label
 _atom_site_symmetry_multiplicity
 _atom_site_fract_x
 _atom_site_fract_y
 _atom_site_fract_z
 _atom_site_occupancy
  Y  Y0  1  -0.00000000  -0.00000000  -0.00000000  1
  Y  Y1  1  -0.00000000  -0.00000000  0.50000000  1
  H  H0  1  0.33333300  0.66666700  0.25000000  1
  H  H1  1  0.66666700  0.33333300  0.75000000  1
  O  O0  1  0.33333300  0.66666700  0.11705235  1
  O  O1  1  0.33333300  0.66666700  0.38294765  1
  O  O2  1  0.66666700  0.33333300  0.88294765  1
  O  O3  1  0.66666700  0.33333300  0.61705235  1
loop_
_geom_bond_atom_site_label_1
_geom_bond_atom_site_label_2
_geom_bond_distance
_geom_bond_site_symmetry_2
H0 O1 1.215301 1_555
H0 O0 1.215301 1_555
H1 O3 1.215301 1_555
H1 O2 1.215301 1_555
O0 Y0 2.288343 1_565
O0 Y0 2.288345 1_555
O0 Y0 2.288345 1_665
O1 Y1 2.288343 1_565
O1 Y1 2.288345 1_665
O1 Y1 2.288345 1_555
O2 Y0 2.288343 1_656
O2 Y0 2.288345 1_666
O2 Y0 2.288345 1_556
O3 Y1 2.288343 1_655
O3 Y1 2.288345 1_665
O3 Y1 2.288345 1_555
