# generated using pymatgen
data_Na2NiPCO7
_symmetry_space_group_name_H-M   'P 1'
_cell_length_a   5.15825400
_cell_length_b   6.60390780
_cell_length_c   8.97295656
_cell_angle_alpha   88.97478146
_cell_angle_beta   88.27593500
_cell_angle_gamma   89.74423812
_symmetry_Int_Tables_number   1
_chemical_formula_structural   Na2NiPCO7
_chemical_formula_sum   'Na4 Ni2 P2 C2 O14'
_cell_volume   305.47084479
_cell_formula_units_Z   2
loop_
 _symmetry_equiv_pos_site_id
 _symmetry_equiv_pos_as_xyz
  1  'x, y, z'
loop_
 _atom_site_type_symbol
 _atom_site_label
 _atom_site_symmetry_multiplicity
 _atom_site_fract_x
 _atom_site_fract_y
 _atom_site_fract_z
 _atom_site_occupancy
  Na  Na0  1  0.75002300  0.01514200  0.73650400  1
  Na  Na1  1  0.74952800  0.48143000  0.73653300  1
  Na  Na2  1  0.24841600  0.98055000  0.26672900  1
  Na  Na3  1  0.78708600  0.72645400  0.08702600  1
  Ni  Ni0  1  0.22415700  0.75064700  0.65257500  1
  Ni  Ni1  1  0.77961600  0.25864400  0.34250200  1
  P  P0  1  0.27919900  0.25192800  0.57255700  1
  P  P1  1  0.71505400  0.75238600  0.42102800  1
  C  C0  1  0.28983700  0.75291200  0.92961100  1
  C  C1  1  0.71122500  0.24865600  0.07289600  1
  O  O0  1  0.68043500  0.24383900  0.93444300  1
  O  O1  1  0.06418700  0.74761000  0.86642300  1
  O  O2  1  0.49129300  0.74621400  0.83808400  1
  O  O3  1  0.21660500  0.06366000  0.67467500  1
  O  O4  1  0.21263800  0.43775300  0.67009500  1
  O  O5  1  0.85844600  0.75205100  0.56957100  1
  O  O6  1  0.57879600  0.25046000  0.53532600  1
  O  O7  1  0.41770400  0.76059500  0.46085600  1
  O  O8  1  0.13009900  0.24588200  0.42743100  1
  O  O9  1  0.77694600  0.56615900  0.32448000  1
  O  O10  1  0.78523200  0.93718800  0.31746500  1
  O  O11  1  0.52212000  0.25193500  0.17224100  1
  O  O12  1  0.93838900  0.25421600  0.13195900  1
  O  O13  1  0.30890300  0.76384700  0.06931200  1
loop_
_geom_bond_atom_site_label_1
_geom_bond_atom_site_label_2
_geom_bond_distance
_geom_bond_site_symmetry_2
Na0 O5 2.368363 1_545
Na0 O0 2.370052 1_555
Na0 O2 2.378246 1_545
Na0 O3 2.474484 1_655
Na0 O6 2.537120 1_555
Na0 O1 2.668515 1_645
Na0 O3 2.838812 1_555
Na1 O0 2.368475 1_555
Na1 O5 2.369919 1_555
Na1 O2 2.371806 1_555
Na1 O4 2.461595 1_655
Na1 O6 2.562793 1_555
Na1 O1 2.700997 1_655
Na1 O4 2.867206 1_555
Na2 O13 2.310138 1_555
Na2 O8 2.355839 1_565
Na2 O11 2.412525 1_565
Na2 O7 2.428234 1_555
Na2 O10 2.435903 1_455
Na2 O12 2.701549 1_465
Na2 O10 2.832121 1_555
Na3 O9 2.361381 1_555
Na3 O1 2.408835 1_654
Na3 O13 2.487379 1_555
Na3 O10 2.512759 1_555
Na3 O13 2.703717 1_655
Na3 O2 2.743631 1_554
Ni0 O7 1.963066 1_555
Ni0 O5 2.048794 1_455
Ni0 O1 2.065618 1_555
Ni0 O4 2.070470 1_555
Ni0 O3 2.080208 1_565
Ni0 O2 2.192329 1_555
Ni1 O8 1.983814 1_655
Ni1 O6 1.989692 1_555
Ni1 O9 2.034361 1_555
Ni1 O12 2.036987 1_555
Ni1 O11 2.055531 1_555
Ni1 O10 2.138690 1_545
C0 O13 1.263704 1_556
C0 O2 1.306074 1_555
C0 O1 1.310833 1_555
C1 O0 1.258157 1_554
C1 O12 1.301425 1_555
C1 O11 1.301838 1_555
O3 P0 1.560345 1_555
O4 P0 1.551259 1_555
O5 P1 1.543643 1_555
O6 P0 1.571263 1_555
O7 P1 1.565307 1_555
O8 P0 1.533379 1_555
O9 P1 1.543660 1_555
O10 P1 1.557918 1_555
