# generated using pymatgen
data_Ti3MnCr(PO4)6
_symmetry_space_group_name_H-M   'P 1'
_cell_length_a   8.62865384
_cell_length_b   8.62865384
_cell_length_c   8.62865402
_cell_angle_alpha   60.21527787
_cell_angle_beta   60.21527787
_cell_angle_gamma   60.21528107
_symmetry_Int_Tables_number   1
_chemical_formula_structural   Ti3MnCr(PO4)6
_chemical_formula_sum   'Ti3 Mn1 Cr1 P6 O24'
_cell_volume   456.48432220
_cell_formula_units_Z   1
loop_
 _symmetry_equiv_pos_site_id
 _symmetry_equiv_pos_as_xyz
  1  'x, y, z'
loop_
 _atom_site_type_symbol
 _atom_site_label
 _atom_site_symmetry_multiplicity
 _atom_site_fract_x
 _atom_site_fract_y
 _atom_site_fract_z
 _atom_site_occupancy
  Ti  Ti0  1  0.13497900  0.13497900  0.13497900  1
  Ti  Ti1  1  0.35373200  0.35373200  0.35373200  1
  Ti  Ti2  1  0.86458200  0.86458200  0.86458200  1
  Mn  Mn0  1  0.50016600  0.50016600  0.50016600  1
  Cr  Cr0  1  0.64436200  0.64436200  0.64436200  1
  P  P0  1  0.74733100  0.04019000  0.46750100  1
  P  P1  1  0.95606700  0.53504200  0.25277100  1
  P  P2  1  0.53504200  0.25277100  0.95606700  1
  P  P3  1  0.46750100  0.74733100  0.04019000  1
  P  P4  1  0.04019000  0.46750100  0.74733100  1
  P  P5  1  0.25277100  0.95606700  0.53504200  1
  O  O0  1  0.91160600  0.06321300  0.27765100  1
  O  O1  1  0.80029300  0.00028500  0.63182300  1
  O  O2  1  0.72373300  0.08884900  0.93866100  1
  O  O3  1  0.88202200  0.49762400  0.69072800  1
  O  O4  1  0.58110000  0.23460200  0.44817100  1
  O  O5  1  0.76376500  0.55414800  0.41984100  1
  O  O6  1  0.93866100  0.72373300  0.08884900  1
  O  O7  1  0.20094900  0.99760100  0.36977900  1
  O  O8  1  0.49601600  0.31119300  0.11962100  1
  O  O9  1  0.36977900  0.20094900  0.99760100  1
  O  O10  1  0.31119300  0.11962100  0.49601600  1
  O  O11  1  0.55414800  0.41984100  0.76376500  1
  O  O12  1  0.44817100  0.58110000  0.23460200  1
  O  O13  1  0.69072800  0.88202200  0.49762400  1
  O  O14  1  0.63182300  0.80029300  0.00028500  1
  O  O15  1  0.49762400  0.69072800  0.88202200  1
  O  O16  1  0.06321300  0.27765100  0.91160600  1
  O  O17  1  0.23460200  0.44817100  0.58110000  1
  O  O18  1  0.41984100  0.76376500  0.55414800  1
  O  O19  1  0.11962100  0.49601600  0.31119300  1
  O  O20  1  0.99760100  0.36977900  0.20094900  1
  O  O21  1  0.00028500  0.63182300  0.80029300  1
  O  O22  1  0.27765100  0.91160600  0.06321300  1
  O  O23  1  0.08884900  0.93866100  0.72373300  1
loop_
_geom_bond_atom_site_label_1
_geom_bond_atom_site_label_2
_geom_bond_distance
_geom_bond_site_symmetry_2
Mn0 O5 2.244180 1_555
Mn0 O18 2.244180 1_555
Mn0 O11 2.244180 1_555
Mn0 O17 2.249452 1_555
Mn0 O4 2.249452 1_555
Mn0 O12 2.249452 1_555
Cr0 O13 1.923741 1_555
Cr0 O15 1.923741 1_555
Cr0 O3 1.923741 1_555
Cr0 O11 2.034475 1_555
Cr0 O5 2.034475 1_555
Cr0 O18 2.034475 1_555
O0 P0 1.543298 1_555
O0 Ti0 1.919629 1_655
O1 P0 1.529756 1_555
O1 Ti2 1.958986 1_545
O2 P2 1.534355 1_555
O2 Ti2 1.936726 1_545
O3 P4 1.533753 1_655
O4 P0 1.571137 1_555
O4 Ti1 2.078992 1_555
O5 P1 1.564143 1_555
O6 P1 1.534355 1_555
O6 Ti2 1.936726 1_554
O7 P5 1.525912 1_555
O7 Ti0 1.980735 1_565
O8 P2 1.557289 1_554
O8 Ti1 1.883535 1_555
O9 P2 1.525912 1_555
O9 Ti0 1.980735 1_556
O10 P5 1.557288 1_545
O10 Ti1 1.883535 1_555
O11 P2 1.564143 1_555
O12 P3 1.571137 1_555
O12 Ti1 2.078992 1_555
O13 P0 1.533753 1_565
O14 P3 1.529756 1_555
O14 Ti2 1.958986 1_554
O15 P3 1.533753 1_556
O16 P4 1.543298 1_555
O16 Ti0 1.919630 1_556
O17 P4 1.571137 1_555
O17 Ti1 2.078992 1_555
O18 P5 1.564143 1_555
O19 P1 1.557289 1_455
O19 Ti1 1.883535 1_555
O20 P1 1.525912 1_555
O20 Ti0 1.980735 1_655
O21 P4 1.529756 1_555
O21 Ti2 1.958986 1_455
O22 P3 1.543298 1_555
O22 Ti0 1.919630 1_565
O23 P5 1.534355 1_555
O23 Ti2 1.936726 1_455
