# generated using pymatgen
data_Li4AlCr3O8
_symmetry_space_group_name_H-M   'P 1'
_cell_length_a   5.14259135
_cell_length_b   9.76450997
_cell_length_c   5.85118028
_cell_angle_alpha   89.99999846
_cell_angle_beta   89.99990334
_cell_angle_gamma   100.65347938
_symmetry_Int_Tables_number   1
_chemical_formula_structural   Li4AlCr3O8
_chemical_formula_sum   'Li8 Al2 Cr6 O16'
_cell_volume   288.75189509
_cell_formula_units_Z   2
loop_
 _symmetry_equiv_pos_site_id
 _symmetry_equiv_pos_as_xyz
  1  'x, y, z'
loop_
 _atom_site_type_symbol
 _atom_site_label
 _atom_site_symmetry_multiplicity
 _atom_site_fract_x
 _atom_site_fract_y
 _atom_site_fract_z
 _atom_site_occupancy
  Li  Li0  1  0.49994200  0.49906600  0.00019700  1
  Li  Li1  1  0.99996500  0.99905600  0.50018100  1
  Li  Li2  1  0.00005900  0.00093600  0.00019700  1
  Li  Li3  1  0.50003800  0.50094600  0.50018100  1
  Li  Li4  1  0.25000200  0.25000000  0.24750100  1
  Li  Li5  1  0.74999900  0.75000000  0.74750900  1
  Li  Li6  1  0.25000100  0.24999900  0.75219800  1
  Li  Li7  1  0.74999900  0.75000100  0.25219600  1
  Al  Al0  1  0.75000100  0.24999900  0.99876300  1
  Al  Al1  1  0.24999900  0.74999900  0.49872500  1
  Cr  Cr0  1  0.25000200  0.75000000  0.99849600  1
  Cr  Cr1  1  0.99870600  0.49902500  0.25152200  1
  Cr  Cr2  1  0.50126700  0.00097700  0.25153300  1
  Cr  Cr3  1  0.74999100  0.25000300  0.49852300  1
  Cr  Cr4  1  0.49872700  0.99903000  0.75152900  1
  Cr  Cr5  1  0.00127100  0.50097200  0.75151600  1
  O  O0  1  0.39183700  0.12165600  0.50183700  1
  O  O1  1  0.89183200  0.62164400  0.00181700  1
  O  O2  1  0.10817100  0.37834400  0.50182700  1
  O  O3  1  0.60816900  0.87835400  0.00182200  1
  O  O4  1  0.40598800  0.12634300  0.00041600  1
  O  O5  1  0.90596400  0.62633600  0.50040500  1
  O  O6  1  0.09401800  0.37365600  0.00041700  1
  O  O7  1  0.59403800  0.87366200  0.50040200  1
  O  O8  1  0.85188600  0.13231900  0.75778400  1
  O  O9  1  0.35186300  0.63231500  0.25773100  1
  O  O10  1  0.85540300  0.13300100  0.23984400  1
  O  O11  1  0.35538000  0.63299800  0.73979300  1
  O  O12  1  0.64460200  0.36699500  0.23983800  1
  O  O13  1  0.14462300  0.86700300  0.73979200  1
  O  O14  1  0.64811400  0.36768100  0.75777900  1
  O  O15  1  0.14814000  0.86768400  0.25773000  1
loop_
_geom_bond_atom_site_label_1
_geom_bond_atom_site_label_2
_geom_bond_distance
_geom_bond_site_symmetry_2
Li0 O12 2.130107 1_555
Li0 O14 2.144731 1_554
Li0 O1 2.145315 1_555
Li0 O9 2.215808 1_555
Li0 O6 2.216320 1_555
Li0 O11 2.223514 1_554
Li1 O13 2.129869 1_655
Li1 O15 2.144781 1_655
Li1 O0 2.145321 1_665
Li1 O8 2.216171 1_565
Li1 O7 2.216274 1_555
Li1 O10 2.223328 1_565
Li2 O10 2.130080 1_455
Li2 O8 2.144702 1_454
Li2 O3 2.145330 1_445
Li2 O15 2.215829 1_545
Li2 O4 2.216330 1_555
Li2 O13 2.223527 1_544
Li3 O11 2.129864 1_555
Li3 O9 2.144760 1_555
Li3 O2 2.145307 1_555
Li3 O14 2.216159 1_555
Li3 O5 2.216255 1_555
Li3 O12 2.223393 1_555
Li4 O6 2.132988 1_555
Li4 O4 2.133001 1_555
Li4 O12 2.137258 1_555
Li4 O10 2.137267 1_455
Li4 O2 2.157538 1_555
Li4 O0 2.157589 1_555
Li5 O7 2.133060 1_555
Li5 O5 2.133068 1_555
Li5 O11 2.137372 1_555
Li5 O13 2.137397 1_655
Li5 O3 2.157546 1_556
Li5 O1 2.157547 1_556
Li6 O6 2.137497 1_556
Li6 O4 2.137498 1_556
Li6 O0 2.141607 1_555
Li6 O2 2.141648 1_555
Li6 O14 2.154817 1_555
Li6 O8 2.154819 1_455
Li7 O7 2.137416 1_555
Li7 O5 2.137464 1_555
Li7 O3 2.141711 1_555
Li7 O1 2.141761 1_555
Li7 O9 2.154928 1_555
Li7 O15 2.154939 1_655
Al0 O4 1.948842 1_556
Al0 O6 1.948863 1_656
Al0 O8 1.950812 1_555
Al0 O14 1.950850 1_555
Al0 O12 1.953855 1_556
Al0 O10 1.953900 1_556
Al1 O5 1.948964 1_455
Al1 O7 1.948980 1_555
Al1 O9 1.950859 1_555
Al1 O15 1.950861 1_555
Al1 O11 1.953822 1_555
Al1 O13 1.953825 1_555
Cr0 O3 2.027378 1_556
Cr0 O1 2.027398 1_456
Cr0 O15 2.029338 1_556
Cr0 O9 2.029348 1_556
Cr0 O11 2.029570 1_555
Cr0 O13 2.029584 1_555
Cr1 O2 2.023799 1_655
Cr1 O5 2.027989 1_555
Cr1 O1 2.028217 1_555
Cr1 O12 2.028497 1_555
Cr1 O6 2.029633 1_655
Cr1 O9 2.029696 1_655
Cr2 O0 2.023712 1_555
Cr2 O7 2.028009 1_545
Cr2 O3 2.028321 1_545
Cr2 O10 2.028598 1_555
Cr2 O15 2.029589 1_545
Cr2 O4 2.029606 1_555
Cr3 O0 2.027293 1_555
Cr3 O2 2.027372 1_655
Cr3 O14 2.029427 1_555
Cr3 O12 2.029454 1_555
Cr3 O8 2.029519 1_555
Cr3 O10 2.029530 1_555
Cr4 O3 2.023672 1_556
Cr4 O4 2.028013 1_566
Cr4 O0 2.028237 1_565
Cr4 O13 2.028493 1_555
Cr4 O8 2.029704 1_565
Cr4 O7 2.029718 1_555
Cr5 O1 2.023674 1_456
Cr5 O6 2.028107 1_556
Cr5 O2 2.028256 1_555
Cr5 O11 2.028506 1_555
Cr5 O5 2.029619 1_455
Cr5 O14 2.029706 1_455
