# generated using pymatgen
data_Li2MnCrO4
_symmetry_space_group_name_H-M   'P 1'
_cell_length_a   5.83840451
_cell_length_b   5.83842956
_cell_length_c   6.00123891
_cell_angle_alpha   61.28564918
_cell_angle_beta   61.28560391
_cell_angle_gamma   89.96185040
_symmetry_Int_Tables_number   1
_chemical_formula_structural   Li2MnCrO4
_chemical_formula_sum   'Li4 Mn2 Cr2 O8'
_cell_volume   150.13656715
_cell_formula_units_Z   2
loop_
 _symmetry_equiv_pos_site_id
 _symmetry_equiv_pos_as_xyz
  1  'x, y, z'
loop_
 _atom_site_type_symbol
 _atom_site_label
 _atom_site_symmetry_multiplicity
 _atom_site_fract_x
 _atom_site_fract_y
 _atom_site_fract_z
 _atom_site_occupancy
  Li  Li0  1  0.50005200  0.00004000  0.49994100  1
  Li  Li1  1  0.50003800  0.00001000  0.99996900  1
  Li  Li2  1  0.00001100  0.00000800  0.49997700  1
  Li  Li3  1  0.50003400  0.50003300  0.99996700  1
  Mn  Mn0  1  0.99998300  0.99994900  0.00003900  1
  Mn  Mn1  1  0.50000900  0.50006600  0.49993900  1
  Cr  Cr0  1  0.99992700  0.49995400  0.00006100  1
  Cr  Cr1  1  0.99987300  0.49991700  0.50007800  1
  O  O0  1  0.21892400  0.73875500  0.03329500  1
  O  O1  1  0.76114500  0.28119200  0.46672800  1
  O  O2  1  0.23873900  0.71891200  0.53325300  1
  O  O3  1  0.78120500  0.26116300  0.96677100  1
  O  O4  1  0.73497800  0.72418900  0.51358600  1
  O  O5  1  0.77586700  0.76499600  0.98640800  1
  O  O6  1  0.22428300  0.23504300  0.01357000  1
  O  O7  1  0.26493100  0.27577600  0.48642000  1
loop_
_geom_bond_atom_site_label_1
_geom_bond_atom_site_label_2
_geom_bond_distance
_geom_bond_site_symmetry_2
Li0 O1 2.110663 1_555
Li0 O2 2.111058 1_545
Li0 O4 2.111885 1_545
Li0 O7 2.112158 1_555
Li0 O3 2.350732 1_554
Li0 O0 2.351509 1_546
Li1 O0 2.110715 1_546
Li1 O3 2.111020 1_555
Li1 O6 2.111888 1_556
Li1 O5 2.112139 1_545
Li1 O1 2.351044 1_555
Li1 O2 2.351201 1_546
Li2 O6 2.144558 1_555
Li2 O5 2.144702 1_445
Li2 O2 2.150680 1_545
Li2 O1 2.151600 1_455
Li2 O7 2.178929 1_555
Li2 O4 2.179395 1_445
Li3 O4 2.144476 1_555
Li3 O7 2.144766 1_556
Li3 O0 2.150725 1_556
Li3 O3 2.151549 1_555
Li3 O6 2.178958 1_556
Li3 O5 2.179368 1_555
Mn0 O5 1.952842 1_554
Mn0 O6 1.953759 1_665
Mn0 O3 1.986740 1_564
Mn0 O0 1.987310 1_655
Mn0 O4 2.266674 1_555
Mn0 O7 2.266985 1_664
Mn1 O4 1.953005 1_555
Mn1 O7 1.953600 1_555
Mn1 O1 1.986785 1_555
Mn1 O2 1.987259 1_555
Mn1 O5 2.266628 1_554
Mn1 O6 2.267014 1_556
Cr0 O5 2.022617 1_554
Cr0 O6 2.023212 1_655
Cr0 O3 2.032104 1_554
Cr0 O0 2.032988 1_655
Cr0 O1 2.057132 1_555
Cr0 O2 2.057723 1_654
Cr1 O4 2.022815 1_555
Cr1 O7 2.023000 1_655
Cr1 O1 2.032109 1_555
Cr1 O2 2.032999 1_655
Cr1 O3 2.057262 1_555
Cr1 O0 2.057599 1_655
