# generated using pymatgen
data_Li2Co3NiO8
_symmetry_space_group_name_H-M   'P 1'
_cell_length_a   5.64048942
_cell_length_b   5.64048942
_cell_length_c   5.82440342
_cell_angle_alpha   61.36683484
_cell_angle_beta   61.36683484
_cell_angle_gamma   61.08049545
_symmetry_Int_Tables_number   1
_chemical_formula_structural   Li2Co3NiO8
_chemical_formula_sum   'Li2 Co3 Ni1 O8'
_cell_volume   134.77308949
_cell_formula_units_Z   1
loop_
 _symmetry_equiv_pos_site_id
 _symmetry_equiv_pos_as_xyz
  1  'x, y, z'
loop_
 _atom_site_type_symbol
 _atom_site_label
 _atom_site_symmetry_multiplicity
 _atom_site_fract_x
 _atom_site_fract_y
 _atom_site_fract_z
 _atom_site_occupancy
  Li  Li0  1  0.50000000  0.50000000  0.50000000  1
  Li  Li1  1  0.00000000  0.00000000  0.50000000  1
  Co  Co0  1  0.50000000  0.50000000  0.00000000  1
  Co  Co1  1  0.00000000  0.50000000  0.00000000  1
  Co  Co2  1  0.50000000  0.00000000  0.00000000  1
  Ni  Ni0  1  0.00000000  0.00000000  0.00000000  1
  O  O0  1  0.76362800  0.76362800  0.19849600  1
  O  O1  1  0.26176700  0.26176700  0.20319700  1
  O  O2  1  0.76001600  0.27860600  0.21122100  1
  O  O3  1  0.27860600  0.76001600  0.21122100  1
  O  O4  1  0.72139400  0.23998400  0.78877900  1
  O  O5  1  0.23998400  0.72139400  0.78877900  1
  O  O6  1  0.73823300  0.73823300  0.79680300  1
  O  O7  1  0.23637200  0.23637200  0.80150400  1
loop_
_geom_bond_atom_site_label_1
_geom_bond_atom_site_label_2
_geom_bond_distance
_geom_bond_site_symmetry_2
Li0 O4 2.101644 1_555
Li0 O5 2.101644 1_555
Li0 O3 2.101644 1_555
Li0 O2 2.101644 1_555
Li0 O7 2.153913 1_555
Li0 O0 2.153913 1_555
Li1 O1 2.136457 1_555
Li1 O6 2.136457 1_445
Li1 O5 2.173095 1_545
Li1 O4 2.173095 1_455
Li1 O3 2.173095 1_545
Li1 O2 2.173095 1_455
Co0 O3 1.925982 1_555
Co0 O2 1.925982 1_555
Co0 O5 1.925982 1_554
Co0 O4 1.925982 1_554
Co0 O6 1.926144 1_554
Co0 O1 1.926144 1_555
Co1 O5 1.863249 1_554
Co1 O2 1.863249 1_455
Co1 O0 1.891623 1_455
Co1 O7 1.891623 1_554
Co1 O1 1.902119 1_555
Co1 O6 1.902119 1_454
Co2 O4 1.863249 1_554
Co2 O3 1.863249 1_545
Co2 O0 1.891623 1_545
Co2 O7 1.891623 1_554
Co2 O1 1.902119 1_555
Co2 O6 1.902119 1_544
Ni0 O7 1.912166 1_554
Ni0 O0 1.912166 1_445
Ni0 O3 2.003706 1_545
Ni0 O2 2.003706 1_455
Ni0 O5 2.003706 1_544
Ni0 O4 2.003706 1_454
