# generated using pymatgen
data_TiMn2V3(PO4)6
_symmetry_space_group_name_H-M   'P 1'
_cell_length_a   8.66850398
_cell_length_b   8.66850398
_cell_length_c   8.66850402
_cell_angle_alpha   59.81895143
_cell_angle_beta   59.81895143
_cell_angle_gamma   59.81895606
_symmetry_Int_Tables_number   1
_chemical_formula_structural   TiMn2V3(PO4)6
_chemical_formula_sum   'Ti1 Mn2 V3 P6 O24'
_cell_volume   458.70035823
_cell_formula_units_Z   1
loop_
 _symmetry_equiv_pos_site_id
 _symmetry_equiv_pos_as_xyz
  1  'x, y, z'
loop_
 _atom_site_type_symbol
 _atom_site_label
 _atom_site_symmetry_multiplicity
 _atom_site_fract_x
 _atom_site_fract_y
 _atom_site_fract_z
 _atom_site_occupancy
  Ti  Ti0  1  0.85437700  0.85437700  0.85437700  1
  Mn  Mn0  1  0.00061700  0.00061700  0.00061700  1
  Mn  Mn1  1  0.50007000  0.50007000  0.50007000  1
  V  V0  1  0.35603300  0.35603300  0.35603300  1
  V  V1  1  0.14496200  0.14496200  0.14496200  1
  V  V2  1  0.64332500  0.64332500  0.64332500  1
  P  P0  1  0.04157800  0.45725700  0.74986800  1
  P  P1  1  0.45725700  0.74986800  0.04157800  1
  P  P2  1  0.74986800  0.04157800  0.45725700  1
  P  P3  1  0.24978500  0.95828900  0.54238000  1
  P  P4  1  0.54238000  0.24978500  0.95828900  1
  P  P5  1  0.95828900  0.54238100  0.24978500  1
  O  O0  1  0.49455600  0.69443000  0.88118400  1
  O  O1  1  0.69443000  0.88118400  0.49455600  1
  O  O2  1  0.88118400  0.49455600  0.69443000  1
  O  O3  1  0.05856400  0.26564500  0.91583100  1
  O  O4  1  0.99819400  0.62215400  0.80714200  1
  O  O5  1  0.23443800  0.44446400  0.58622100  1
  O  O6  1  0.26564500  0.91583100  0.05856400  1
  O  O7  1  0.44446400  0.58622100  0.23443800  1
  O  O8  1  0.19413200  0.99415700  0.38190800  1
  O  O9  1  0.58622100  0.23443800  0.44446400  1
  O  O10  1  0.08335500  0.94027700  0.73572800  1
  O  O11  1  0.38190800  0.19413200  0.99415700  1
  O  O12  1  0.62215400  0.80714200  0.99819400  1
  O  O13  1  0.91583100  0.05856400  0.26564500  1
  O  O14  1  0.41367600  0.76389800  0.56096400  1
  O  O15  1  0.80714200  0.99819400  0.62215400  1
  O  O16  1  0.56096400  0.41367600  0.76389800  1
  O  O17  1  0.73572800  0.08335500  0.94027700  1
  O  O18  1  0.76389800  0.56096400  0.41367600  1
  O  O19  1  0.99415700  0.38190800  0.19413200  1
  O  O20  1  0.94027700  0.73572800  0.08335500  1
  O  O21  1  0.11834900  0.50727500  0.30491800  1
  O  O22  1  0.30491800  0.11834900  0.50727500  1
  O  O23  1  0.50727500  0.30491800  0.11834900  1
loop_
_geom_bond_atom_site_label_1
_geom_bond_atom_site_label_2
_geom_bond_distance
_geom_bond_site_symmetry_2
Mn0 O3 2.271982 1_554
Mn0 O13 2.271982 1_455
Mn0 O6 2.271982 1_545
Mn0 O20 2.288018 1_445
Mn0 O10 2.288018 1_544
Mn0 O17 2.288018 1_454
Mn1 O5 2.262124 1_555
Mn1 O7 2.262124 1_555
Mn1 O9 2.262124 1_555
Mn1 O18 2.272457 1_555
Mn1 O16 2.272457 1_555
Mn1 O14 2.272457 1_555
O0 P1 1.527159 1_556
O0 V2 1.944513 1_555
O1 P2 1.527159 1_565
O1 V2 1.944513 1_555
O2 P0 1.527159 1_655
O2 V2 1.944513 1_555
O3 P0 1.553936 1_555
O3 V1 2.054043 1_556
O4 P0 1.554495 1_655
O4 Ti0 1.888470 1_555
O5 P0 1.551388 1_555
O5 V0 2.071476 1_555
O6 P1 1.553936 1_555
O6 V1 2.054043 1_565
O7 P1 1.551388 1_555
O7 V0 2.071476 1_555
O8 P3 1.534111 1_555
O8 V1 1.931228 1_565
O9 P2 1.551388 1_555
O9 V0 2.071476 1_555
O10 P3 1.564286 1_555
O10 Ti0 2.053170 1_455
O11 P4 1.534111 1_555
O11 V1 1.931228 1_556
O12 P1 1.554495 1_556
O12 Ti0 1.888470 1_555
O13 P2 1.553936 1_555
O13 V1 2.054043 1_655
O14 P3 1.560100 1_555
O14 V2 2.037591 1_555
O15 P2 1.554495 1_565
O15 Ti0 1.888470 1_555
O16 P4 1.560100 1_555
O16 V2 2.037591 1_555
O17 P4 1.564286 1_555
O17 Ti0 2.053170 1_545
O18 P5 1.560100 1_555
O18 V2 2.037591 1_555
O19 P5 1.534119 1_555
O19 V1 1.931228 1_655
O20 P5 1.564281 1_555
O20 Ti0 2.053170 1_554
O21 P5 1.530384 1_455
O21 V0 1.943734 1_555
O22 P3 1.530387 1_545
O22 V0 1.943734 1_555
O23 P4 1.530387 1_554
O23 V0 1.943734 1_555
