# generated using pymatgen
data_MoH2N2Cl5O
_symmetry_space_group_name_H-M   'P 1'
_cell_length_a   7.03698200
_cell_length_b   9.97038800
_cell_length_c   13.80194300
_cell_angle_alpha   90.00000000
_cell_angle_beta   90.00000000
_cell_angle_gamma   90.00000000
_symmetry_Int_Tables_number   1
_chemical_formula_structural   MoH2N2Cl5O
_chemical_formula_sum   'Mo4 H8 N8 Cl20 O4'
_cell_volume   968.36420795
_cell_formula_units_Z   4
loop_
 _symmetry_equiv_pos_site_id
 _symmetry_equiv_pos_as_xyz
  1  'x, y, z'
loop_
 _atom_site_type_symbol
 _atom_site_label
 _atom_site_symmetry_multiplicity
 _atom_site_fract_x
 _atom_site_fract_y
 _atom_site_fract_z
 _atom_site_occupancy
  Mo  Mo0  1  0.30726600  0.25000000  0.61604400  1
  Mo  Mo1  1  0.19273400  0.25000000  0.11604400  1
  Mo  Mo2  1  0.69273400  0.75000000  0.38395600  1
  Mo  Mo3  1  0.80726600  0.75000000  0.88395600  1
  H  H0  1  0.53266200  0.16866700  0.45519400  1
  H  H1  1  0.96733800  0.33133300  0.95519400  1
  H  H2  1  0.46733800  0.66866700  0.54480600  1
  H  H3  1  0.03266200  0.83133300  0.04480600  1
  H  H4  1  0.46733800  0.83133300  0.54480600  1
  H  H5  1  0.03266200  0.66866700  0.04480600  1
  H  H6  1  0.53266200  0.33133300  0.45519400  1
  H  H7  1  0.96733800  0.16866700  0.95519400  1
  N  N0  1  0.34530900  0.00011800  0.85599500  1
  N  N1  1  0.15469100  0.49988200  0.35599500  1
  N  N2  1  0.65469100  0.50011800  0.14400500  1
  N  N3  1  0.84530900  0.99988200  0.64400500  1
  N  N4  1  0.65469100  0.99988200  0.14400500  1
  N  N5  1  0.84530900  0.50011800  0.64400500  1
  N  N6  1  0.34530900  0.49988200  0.85599500  1
  N  N7  1  0.15469100  0.00011800  0.35599500  1
  Cl  Cl0  1  0.31768300  0.48864200  0.60672700  1
  Cl  Cl1  1  0.18231700  0.01135800  0.10672700  1
  Cl  Cl2  1  0.68231700  0.98864200  0.39327300  1
  Cl  Cl3  1  0.81768300  0.51135800  0.89327300  1
  Cl  Cl4  1  0.68231700  0.51135800  0.39327300  1
  Cl  Cl5  1  0.81768300  0.98864200  0.89327300  1
  Cl  Cl6  1  0.31768300  0.01135800  0.60672700  1
  Cl  Cl7  1  0.18231700  0.48864200  0.10672700  1
  Cl  Cl8  1  0.05768600  0.25000000  0.50685400  1
  Cl  Cl9  1  0.44231400  0.25000000  0.00685400  1
  Cl  Cl10  1  0.94231400  0.75000000  0.49314600  1
  Cl  Cl11  1  0.55768600  0.75000000  0.99314600  1
  Cl  Cl12  1  0.56991500  0.25000000  0.71542900  1
  Cl  Cl13  1  0.93008500  0.25000000  0.21542900  1
  Cl  Cl14  1  0.43008500  0.75000000  0.28457100  1
  Cl  Cl15  1  0.06991500  0.75000000  0.78457100  1
  Cl  Cl16  1  0.10269200  0.25000000  0.74753800  1
  Cl  Cl17  1  0.39730800  0.25000000  0.24753800  1
  Cl  Cl18  1  0.89730800  0.75000000  0.25246200  1
  Cl  Cl19  1  0.60269200  0.75000000  0.75246200  1
  O  O0  1  0.50362100  0.25000000  0.49272600  1
  O  O1  1  0.99637900  0.25000000  0.99272600  1
  O  O2  1  0.49637900  0.75000000  0.50727400  1
  O  O3  1  0.00362100  0.75000000  0.00727400  1
loop_
_geom_bond_atom_site_label_1
_geom_bond_atom_site_label_2
_geom_bond_distance
_geom_bond_site_symmetry_2
Mo0 O0 2.192287 1_555
Mo1 O1 2.192287 1_454
Mo2 O2 2.192287 1_555
Mo3 O3 2.192287 1_656
H0 O0 0.983716 1_555
H1 O1 0.983716 1_555
H2 O2 0.983716 1_555
H3 O3 0.983716 1_555
H4 O2 0.983716 1_555
H5 O3 0.983716 1_555
H6 O0 0.983716 1_555
H7 O1 0.983716 1_555
Cl0 Mo0 2.383953 1_555
Cl1 Mo1 2.383953 1_555
Cl2 Mo2 2.383953 1_555
Cl3 Mo3 2.383953 1_555
Cl4 Mo2 2.383953 1_555
Cl5 Mo3 2.383953 1_555
Cl6 Mo0 2.383953 1_555
Cl7 Mo1 2.383953 1_555
Cl8 Mo0 2.314240 1_555
Cl9 Mo1 2.314240 1_555
Cl10 Mo2 2.314240 1_555
Cl11 Mo3 2.314240 1_555
Cl12 Mo0 2.301658 1_555
Cl13 Mo1 2.301658 1_655
Cl14 Mo2 2.301658 1_555
Cl15 Mo3 2.301658 1_455
Cl16 Mo0 2.316498 1_555
Cl17 Mo1 2.316498 1_555
Cl18 Mo2 2.316498 1_555
Cl19 Mo3 2.316498 1_555
