# generated using pymatgen
data_Cd(FeO2)2
_symmetry_space_group_name_H-M   'P 1'
_cell_length_a   3.03404700
_cell_length_b   9.37785100
_cell_length_c   10.86744200
_cell_angle_alpha   90.00000000
_cell_angle_beta   90.00000000
_cell_angle_gamma   90.00000000
_symmetry_Int_Tables_number   1
_chemical_formula_structural   Cd(FeO2)2
_chemical_formula_sum   'Cd4 Fe8 O16'
_cell_volume   309.20959597
_cell_formula_units_Z   4
loop_
 _symmetry_equiv_pos_site_id
 _symmetry_equiv_pos_as_xyz
  1  'x, y, z'
loop_
 _atom_site_type_symbol
 _atom_site_label
 _atom_site_symmetry_multiplicity
 _atom_site_fract_x
 _atom_site_fract_y
 _atom_site_fract_z
 _atom_site_occupancy
  Cd  Cd0  1  0.75000000  0.25724400  0.15642800  1
  Cd  Cd1  1  0.75000000  0.75724400  0.34357200  1
  Cd  Cd2  1  0.25000000  0.24275600  0.65642800  1
  Cd  Cd3  1  0.25000000  0.74275600  0.84357200  1
  Fe  Fe0  1  0.25000000  0.58422900  0.10363900  1
  Fe  Fe1  1  0.75000000  0.93731700  0.11361800  1
  Fe  Fe2  1  0.75000000  0.43731700  0.38638200  1
  Fe  Fe3  1  0.25000000  0.08422900  0.39636100  1
  Fe  Fe4  1  0.75000000  0.91577100  0.60363900  1
  Fe  Fe5  1  0.25000000  0.56268300  0.61361800  1
  Fe  Fe6  1  0.25000000  0.06268300  0.88638200  1
  Fe  Fe7  1  0.75000000  0.41577100  0.89636100  1
  O  O0  1  0.25000000  0.38326600  0.02568200  1
  O  O1  1  0.25000000  0.08210100  0.07103500  1
  O  O2  1  0.25000000  0.79726900  0.16138500  1
  O  O3  1  0.75000000  0.53129600  0.21573100  1
  O  O4  1  0.75000000  0.03129600  0.28426900  1
  O  O5  1  0.25000000  0.29726900  0.33861500  1
  O  O6  1  0.25000000  0.58210100  0.42896500  1
  O  O7  1  0.25000000  0.88326600  0.47431800  1
  O  O8  1  0.75000000  0.11673400  0.52568200  1
  O  O9  1  0.75000000  0.41789900  0.57103500  1
  O  O10  1  0.75000000  0.70273100  0.66138500  1
  O  O11  1  0.25000000  0.96870400  0.71573100  1
  O  O12  1  0.25000000  0.46870400  0.78426900  1
  O  O13  1  0.75000000  0.20273100  0.83861500  1
  O  O14  1  0.75000000  0.91789900  0.92896500  1
  O  O15  1  0.75000000  0.61673400  0.97431800  1
loop_
_geom_bond_atom_site_label_1
_geom_bond_atom_site_label_2
_geom_bond_distance
_geom_bond_site_symmetry_2
Cd0 O0 2.391011 1_655
Cd0 O0 2.391011 1_555
Cd0 O1 2.420794 1_555
Cd0 O1 2.420794 1_655
Cd0 O5 2.522355 1_655
Cd0 O5 2.522355 1_555
Cd0 O4 2.533759 1_555
Cd0 O3 2.649593 1_555
Cd1 O7 2.391011 1_655
Cd1 O7 2.391011 1_555
Cd1 O6 2.420794 1_655
Cd1 O6 2.420794 1_555
Cd1 O2 2.522355 1_655
Cd1 O2 2.522355 1_555
Cd1 O3 2.533759 1_555
Cd1 O4 2.649593 1_565
Cd2 O8 2.391011 1_555
Cd2 O8 2.391011 1_455
Cd2 O9 2.420794 1_455
Cd2 O9 2.420794 1_555
Cd2 O13 2.522355 1_555
Cd2 O13 2.522355 1_455
Cd2 O12 2.533759 1_555
Cd2 O11 2.649593 1_545
Cd3 O15 2.391011 1_455
Cd3 O15 2.391011 1_555
Cd3 O14 2.420794 1_455
Cd3 O14 2.420794 1_555
Cd3 O10 2.522355 1_455
Cd3 O10 2.522355 1_555
Cd3 O11 2.533759 1_555
Cd3 O12 2.649593 1_555
Fe0 O3 2.007902 1_555
Fe0 O3 2.007902 1_455
Fe0 O0 2.066267 1_555
Fe0 O15 2.090310 1_454
Fe0 O15 2.090310 1_554
Fe0 O2 2.094100 1_555
Fe1 O14 2.014951 1_554
Fe1 O4 2.053301 1_565
Fe1 O2 2.072611 1_555
Fe1 O2 2.072611 1_655
Fe1 O1 2.087830 1_565
Fe1 O1 2.087830 1_665
Fe2 O9 2.014951 1_555
Fe2 O3 2.053301 1_555
Fe2 O5 2.072611 1_655
Fe2 O5 2.072611 1_555
Fe2 O6 2.087830 1_655
Fe2 O6 2.087830 1_555
Fe3 O4 2.007902 1_455
Fe3 O4 2.007902 1_555
Fe3 O7 2.066267 1_545
Fe3 O8 2.090310 1_455
Fe3 O8 2.090310 1_555
Fe3 O5 2.094100 1_555
Fe4 O11 2.007902 1_655
Fe4 O11 2.007902 1_555
Fe4 O8 2.066267 1_565
Fe4 O7 2.090310 1_555
Fe4 O7 2.090310 1_655
Fe4 O10 2.094100 1_555
Fe5 O6 2.014951 1_555
Fe5 O12 2.053301 1_555
Fe5 O10 2.072611 1_455
Fe5 O10 2.072611 1_555
Fe5 O9 2.087830 1_455
Fe5 O9 2.087830 1_555
Fe6 O1 2.014951 1_556
Fe6 O11 2.053301 1_545
Fe6 O13 2.072611 1_555
Fe6 O13 2.072611 1_455
Fe6 O14 2.087830 1_445
Fe6 O14 2.087830 1_545
Fe7 O12 2.007902 1_555
Fe7 O12 2.007902 1_655
Fe7 O15 2.066267 1_555
Fe7 O0 2.090310 1_556
Fe7 O0 2.090310 1_656
Fe7 O13 2.094100 1_555
