# generated using pymatgen
data_Li4Mn2Cr3Sn3O16
_symmetry_space_group_name_H-M   'P 1'
_cell_length_a   6.08768392
_cell_length_b   6.14059747
_cell_length_c   9.65565550
_cell_angle_alpha   89.87392996
_cell_angle_beta   90.78025628
_cell_angle_gamma   120.34111719
_symmetry_Int_Tables_number   1
_chemical_formula_structural   Li4Mn2Cr3Sn3O16
_chemical_formula_sum   'Li4 Mn2 Cr3 Sn3 O16'
_cell_volume   311.47655894
_cell_formula_units_Z   1
loop_
 _symmetry_equiv_pos_site_id
 _symmetry_equiv_pos_as_xyz
  1  'x, y, z'
loop_
 _atom_site_type_symbol
 _atom_site_label
 _atom_site_symmetry_multiplicity
 _atom_site_fract_x
 _atom_site_fract_y
 _atom_site_fract_z
 _atom_site_occupancy
  Li  Li0  1  0.34412400  0.67169700  0.89284700  1
  Li  Li1  1  0.97093100  0.98632300  0.99149800  1
  Li  Li2  1  0.97064100  0.98570500  0.49928200  1
  Li  Li3  1  0.67408300  0.33701700  0.40005600  1
  Mn  Mn0  1  0.34209200  0.67087000  0.49405700  1
  Mn  Mn1  1  0.67943800  0.33959400  0.97956300  1
  Cr  Cr0  1  0.65962700  0.82953000  0.21347900  1
  Cr  Cr1  1  0.82905200  0.66002700  0.71422000  1
  Cr  Cr2  1  0.82868000  0.16886500  0.71402900  1
  Sn  Sn0  1  0.17484600  0.83461000  0.21306700  1
  Sn  Sn1  1  0.17554700  0.34064500  0.21307700  1
  Sn  Sn2  1  0.33266000  0.16614400  0.71075600  1
  O  O0  1  0.14954900  0.83198600  0.59908200  1
  O  O1  1  0.05007000  0.52459900  0.35011400  1
  O  O2  1  0.33878900  0.67004500  0.09776400  1
  O  O3  1  0.99549200  0.99755900  0.31282700  1
  O  O4  1  0.98948500  0.99466200  0.81001600  1
  O  O5  1  0.15099300  0.32020500  0.59895800  1
  O  O6  1  0.49801100  0.96934400  0.33742100  1
  O  O7  1  0.49898600  0.52685200  0.33608500  1
  O  O8  1  0.32625800  0.16320100  0.08981300  1
  O  O9  1  0.65922900  0.82969300  0.60485800  1
  O  O10  1  0.53193300  0.48196700  0.84844400  1
  O  O11  1  0.53219300  0.04913100  0.84829300  1
  O  O12  1  0.67092800  0.33580400  0.60592600  1
  O  O13  1  0.83386500  0.66845200  0.09546500  1
  O  O14  1  0.95853500  0.47914200  0.84120800  1
  O  O15  1  0.83396400  0.16663400  0.09563600  1
loop_
_geom_bond_atom_site_label_1
_geom_bond_atom_site_label_2
_geom_bond_distance
_geom_bond_site_symmetry_2
Li0 O2 1.979236 1_556
Li0 O11 2.048334 1_565
Li0 O10 2.051744 1_555
Li0 O14 2.079267 1_455
Li1 O4 1.756469 1_555
Li1 O13 1.970457 1_556
Li1 O15 1.972991 1_566
Li1 O8 2.082047 1_666
Li2 O3 1.806971 1_555
Li2 O9 1.940209 1_555
Li2 O0 2.002964 1_655
Li2 O5 2.013032 1_665
Li3 O12 1.988125 1_555
Li3 O7 2.027525 1_555
Li3 O6 2.038496 1_545
Li3 O1 2.040180 1_655
Mn0 O9 1.967014 1_555
Mn0 O1 2.055197 1_555
Mn0 O5 2.123127 1_555
Mn0 O0 2.142306 1_555
Mn0 O6 2.194739 1_555
Mn0 O7 2.218092 1_555
Mn1 O10 1.982629 1_555
Mn1 O11 1.988739 1_555
Mn1 O14 1.997896 1_555
Mn1 O15 2.060213 1_556
Mn1 O13 2.068196 1_556
Mn1 O8 2.152585 1_556
Cr0 O3 1.996227 1_555
Cr0 O7 1.999461 1_555
Cr0 O6 2.006802 1_555
Cr0 O2 2.008779 1_555
Cr0 O13 2.121262 1_555
Cr0 O15 2.123451 1_565
Cr1 O4 1.997019 1_555
Cr1 O12 2.007315 1_555
Cr1 O0 2.032280 1_655
Cr1 O10 2.050944 1_555
Cr1 O14 2.052018 1_555
Cr1 O9 2.079163 1_555
Cr2 O4 1.997612 1_545
Cr2 O12 2.006293 1_555
Cr2 O5 2.039790 1_655
Cr2 O11 2.048855 1_555
Cr2 O14 2.055529 1_555
Cr2 O9 2.079057 1_545
O0 Sn2 2.069262 1_565
O1 Sn0 2.123051 1_555
O1 Sn1 2.125113 1_555
O2 Sn1 2.075591 1_555
O2 Sn0 2.076262 1_555
O3 Sn1 2.062607 1_665
O3 Sn0 2.063452 1_655
O4 Sn2 2.054134 1_665
O5 Sn2 2.074448 1_555
O6 Sn0 2.071768 1_555
O7 Sn1 2.064644 1_555
O8 Sn0 2.116024 1_545
O8 Sn1 2.119204 1_555
O10 Sn2 2.142600 1_555
O11 Sn2 2.142200 1_555
O12 Sn2 2.057957 1_555
O13 Sn0 2.107246 1_655
O15 Sn1 2.109037 1_655
