# generated using pymatgen
data_CaHgH16(BrO2)4
_symmetry_space_group_name_H-M   'P 1'
_cell_length_a   10.56805613
_cell_length_b   10.56805613
_cell_length_c   15.09042000
_cell_angle_alpha   90.00000000
_cell_angle_beta   90.00000000
_cell_angle_gamma   100.54939876
_symmetry_Int_Tables_number   1
_chemical_formula_structural   CaHgH16(BrO2)4
_chemical_formula_sum   'Ca4 Hg4 H64 Br16 O32'
_cell_volume   1656.86875588
_cell_formula_units_Z   4
loop_
 _symmetry_equiv_pos_site_id
 _symmetry_equiv_pos_as_xyz
  1  'x, y, z'
loop_
 _atom_site_type_symbol
 _atom_site_label
 _atom_site_symmetry_multiplicity
 _atom_site_fract_x
 _atom_site_fract_y
 _atom_site_fract_z
 _atom_site_occupancy
  Ca  Ca0  1  0.75099100  0.24900900  0.50000000  1
  Ca  Ca1  1  0.74900900  0.25099100  0.00000000  1
  Ca  Ca2  1  0.25099100  0.74900900  0.00000000  1
  Ca  Ca3  1  0.24900900  0.75099100  0.50000000  1
  Hg  Hg0  1  0.27700000  0.27700000  0.28078200  1
  Hg  Hg1  1  0.72300000  0.72300000  0.71921800  1
  Hg  Hg2  1  0.22300000  0.22300000  0.78078200  1
  Hg  Hg3  1  0.77700000  0.77700000  0.21921800  1
  H  H0  1  0.93153200  0.09101500  0.39189000  1
  H  H1  1  0.90898500  0.06846800  0.60811000  1
  H  H2  1  0.79368900  0.02262000  0.36492800  1
  H  H3  1  0.97738000  0.20631100  0.63507200  1
  H  H4  1  0.87706400  0.22617600  0.17938800  1
  H  H5  1  0.77382400  0.12293600  0.82061200  1
  H  H6  1  0.75436000  0.12277300  0.18678500  1
  H  H7  1  0.87722700  0.24564000  0.81321500  1
  H  H8  1  0.38750300  0.02781700  0.48918100  1
  H  H9  1  0.47218300  0.11249700  0.98918100  1
  H  H10  1  0.97218300  0.61249700  0.51081900  1
  H  H11  1  0.88750300  0.52781700  0.01081900  1
  H  H12  1  0.50513800  0.14928200  0.89255200  1
  H  H13  1  0.00513800  0.64928200  0.60744800  1
  H  H14  1  0.35071800  0.99486200  0.39255200  1
  H  H15  1  0.85071800  0.49486200  0.10744800  1
  H  H16  1  0.74564000  0.37722700  0.68678500  1
  H  H17  1  0.62277300  0.25436000  0.31321500  1
  H  H18  1  0.72617600  0.37706400  0.32061200  1
  H  H19  1  0.62293600  0.27382400  0.67938800  1
  H  H20  1  0.95272400  0.79780500  0.04054300  1
  H  H21  1  0.75834400  0.53952500  0.44539000  1
  H  H22  1  0.70219500  0.54727600  0.54054300  1
  H  H23  1  0.25834400  0.03952500  0.05461000  1
  H  H24  1  0.96047500  0.74165600  0.94539000  1
  H  H25  1  0.45272400  0.29780500  0.45945700  1
  H  H26  1  0.46047500  0.24165600  0.55461000  1
  H  H27  1  0.20219500  0.04727600  0.95945700  1
  H  H28  1  0.52262000  0.29368900  0.13507200  1
  H  H29  1  0.70631100  0.47738000  0.86492800  1
  H  H30  1  0.59101500  0.43153200  0.10811000  1
  H  H31  1  0.56846800  0.40898500  0.89189000  1
  H  H32  1  0.43153200  0.59101500  0.10811000  1
  H  H33  1  0.40898500  0.56846800  0.89189000  1
  H  H34  1  0.29368900  0.52262000  0.13507200  1
  H  H35  1  0.47738000  0.70631100  0.86492800  1
  H  H36  1  0.53952500  0.75834400  0.44539000  1
  H  H37  1  0.03952500  0.25834400  0.05461000  1
  H  H38  1  0.54727600  0.70219500  0.54054300  1
  H  H39  1  0.79780500  0.95272400  0.04054300  1
  H  H40  1  0.29780500  0.45272400  0.45945700  1
  H  H41  1  0.24165600  0.46047500  0.55461000  1
  H  H42  1  0.04727600  0.20219500  0.95945700  1
  H  H43  1  0.74165600  0.96047500  0.94539000  1
  H  H44  1  0.27382400  0.62293600  0.67938800  1
  H  H45  1  0.37706400  0.72617600  0.32061200  1
  H  H46  1  0.37722700  0.74564000  0.68678500  1
  H  H47  1  0.25436000  0.62277300  0.31321500  1
  H  H48  1  0.99486200  0.35071800  0.39255200  1
  H  H49  1  0.49486200  0.85071800  0.10744800  1
  H  H50  1  0.64928200  0.00513800  0.60744800  1
  H  H51  1  0.14928200  0.50513800  0.89255200  1
  H  H52  1  0.02781700  0.38750300  0.48918100  1
  H  H53  1  0.11249700  0.47218300  0.98918100  1
  H  H54  1  0.52781700  0.88750300  0.01081900  1
  H  H55  1  0.61249700  0.97218300  0.51081900  1
  H  H56  1  0.12277300  0.75436000  0.18678500  1
  H  H57  1  0.24564000  0.87722700  0.81321500  1
  H  H58  1  0.22617600  0.87706400  0.17938800  1
  H  H59  1  0.12293600  0.77382400  0.82061200  1
  H  H60  1  0.02262000  0.79368900  0.36492800  1
  H  H61  1  0.20631100  0.97738000  0.63507200  1
  H  H62  1  0.09101500  0.93153200  0.39189000  1
  H  H63  1  0.06846800  0.90898500  0.60811000  1
  Br  Br0  1  0.87826500  0.59563500  0.30241000  1
  Br  Br1  1  0.37826500  0.09563500  0.19759000  1
  Br  Br2  1  0.90436500  0.62173500  0.80241000  1
  Br  Br3  1  0.40436500  0.12173500  0.69759000  1
  Br  Br4  1  0.68746100  0.68746100  0.06384900  1
  Br  Br5  1  0.47488500  0.47488500  0.28997000  1
  Br  Br6  1  0.02511500  0.02511500  0.78997000  1
  Br  Br7  1  0.18746100  0.18746100  0.43615100  1
  Br  Br8  1  0.52511500  0.52511500  0.71003000  1
  Br  Br9  1  0.97488500  0.97488500  0.21003000  1
  Br  Br10  1  0.81253900  0.81253900  0.56384900  1
  Br  Br11  1  0.31253900  0.31253900  0.93615100  1
  Br  Br12  1  0.09563500  0.37826500  0.19759000  1
  Br  Br13  1  0.12173500  0.40436500  0.69759000  1
  Br  Br14  1  0.59563500  0.87826500  0.30241000  1
  Br  Br15  1  0.62173500  0.90436500  0.80241000  1
  O  O0  1  0.76116900  0.00972700  0.00035100  1
  O  O1  1  0.99027300  0.23883100  0.99964900  1
  O  O2  1  0.84092800  0.07907100  0.40987300  1
  O  O3  1  0.92092900  0.15907200  0.59012700  1
  O  O4  1  0.78943200  0.20270100  0.15593400  1
  O  O5  1  0.79729900  0.21056800  0.84406600  1
  O  O6  1  0.95669200  0.37435300  0.44736200  1
  O  O7  1  0.62564700  0.04330800  0.55263800  1
  O  O8  1  0.87435300  0.45669200  0.05263800  1
  O  O9  1  0.54330800  0.12564700  0.94736200  1
  O  O10  1  0.71056800  0.29729900  0.65593400  1
  O  O11  1  0.70270100  0.28943200  0.34406600  1
  O  O12  1  0.65907200  0.42092900  0.90987300  1
  O  O13  1  0.57907100  0.34092800  0.09012700  1
  O  O14  1  0.73883100  0.49027300  0.50035100  1
  O  O15  1  0.50972700  0.26116900  0.49964900  1
  O  O16  1  0.26116900  0.50972700  0.49964900  1
  O  O17  1  0.49027300  0.73883100  0.50035100  1
  O  O18  1  0.34092800  0.57907100  0.09012700  1
  O  O19  1  0.42092900  0.65907200  0.90987300  1
  O  O20  1  0.29729900  0.71056800  0.65593400  1
  O  O21  1  0.28943200  0.70270100  0.34406600  1
  O  O22  1  0.45669200  0.87435300  0.05263800  1
  O  O23  1  0.12564700  0.54330800  0.94736200  1
  O  O24  1  0.04330800  0.62564700  0.55263800  1
  O  O25  1  0.37435300  0.95669200  0.44736200  1
  O  O26  1  0.20270100  0.78943200  0.15593400  1
  O  O27  1  0.21056800  0.79729900  0.84406600  1
  O  O28  1  0.07907100  0.84092800  0.40987300  1
  O  O29  1  0.15907200  0.92092900  0.59012700  1
  O  O30  1  0.23883100  0.99027300  0.99964900  1
  O  O31  1  0.00972700  0.76116900  0.00035100  1
loop_
_geom_bond_atom_site_label_1
_geom_bond_atom_site_label_2
_geom_bond_distance
_geom_bond_site_symmetry_2
Ca0 O7 2.461076 1_555
Ca0 O6 2.461076 1_555
Ca0 O10 2.461683 1_555
Ca0 O11 2.461683 1_555
Ca0 O2 2.569719 1_555
Ca0 O3 2.569719 1_555
Ca0 O15 2.576324 1_555
Ca0 O14 2.576324 1_555
Ca1 O8 2.461076 1_555
Ca1 O9 2.461076 1_554
Ca1 O4 2.461683 1_555
Ca1 O5 2.461683 1_554
Ca1 O12 2.569719 1_554
Ca1 O13 2.569719 1_555
Ca1 O1 2.576324 1_554
Ca1 O0 2.576324 1_555
Ca2 O23 2.461076 1_554
Ca2 O22 2.461076 1_555
Ca2 O26 2.461683 1_555
Ca2 O27 2.461683 1_554
Ca2 O19 2.569719 1_554
Ca2 O18 2.569719 1_555
Ca2 O30 2.576324 1_554
Ca2 O31 2.576324 1_555
Ca3 O24 2.461076 1_555
Ca3 O25 2.461076 1_555
Ca3 O21 2.461683 1_555
Ca3 O20 2.461683 1_555
Ca3 O28 2.569719 1_555
Ca3 O29 2.569719 1_555
Ca3 O16 2.576324 1_555
Ca3 O17 2.576324 1_555
H0 O2 0.980888 1_555
H1 O3 0.980888 1_555
H2 O2 0.977795 1_555
H3 O3 0.977795 1_555
H4 O4 0.979973 1_555
H5 O5 0.979973 1_555
H6 O4 0.976202 1_555
H7 O5 0.976202 1_555
H8 O25 0.971746 1_545
H9 O9 0.971746 1_555
H10 O24 0.971746 1_655
H11 O8 0.971746 1_555
H12 O9 0.972678 1_555
H13 O24 0.972678 1_555
H14 O25 0.972678 1_555
H15 O8 0.972678 1_555
H16 O10 0.976202 1_555
H17 O11 0.976202 1_555
H18 O11 0.979973 1_555
H19 O10 0.979973 1_555
H20 O31 0.982885 1_655
H21 O14 0.980826 1_555
H22 O14 0.982885 1_555
H23 O30 0.980826 1_544
H24 O31 0.980826 1_656
H25 O15 0.982885 1_555
H26 O15 0.980826 1_555
H27 O30 0.982885 1_545
H28 O13 0.977795 1_555
H29 O12 0.977795 1_555
H30 O13 0.980888 1_555
H31 O12 0.980888 1_555
H32 O18 0.980888 1_555
H33 O19 0.980888 1_555
H34 O18 0.977795 1_555
H35 O19 0.977795 1_555
H36 O17 0.980826 1_555
H37 O1 0.980826 1_454
H38 O17 0.982885 1_555
H39 O0 0.982885 1_565
H40 O16 0.982885 1_555
H41 O16 0.980826 1_555
H42 O1 0.982885 1_455
H43 O0 0.980826 1_566
H44 O20 0.979973 1_555
H45 O21 0.979973 1_555
H46 O20 0.976202 1_555
H47 O21 0.976202 1_555
H48 O6 0.972678 1_555
H49 O22 0.972678 1_555
H50 O7 0.972678 1_555
H51 O23 0.972678 1_555
H52 O6 0.971746 1_455
H53 O23 0.971746 1_555
H54 O22 0.971746 1_555
H55 O7 0.971746 1_565
H56 O26 0.976202 1_555
H57 O27 0.976202 1_555
H58 O26 0.979973 1_555
H59 O27 0.979973 1_555
H60 O28 0.977795 1_555
H61 O29 0.977795 1_555
H62 O28 0.980888 1_555
H63 O29 0.980888 1_555
Br0 Hg3 2.673205 1_555
Br1 Hg0 2.673205 1_555
Br2 Hg1 2.673205 1_555
Br3 Hg2 2.673205 1_555
Br4 Hg3 2.638181 1_555
Br5 Hg0 2.676673 1_555
Br6 Hg2 2.676673 1_555
Br7 Hg0 2.638181 1_555
Br8 Hg1 2.676673 1_555
Br9 Hg3 2.676673 1_555
Br10 Hg1 2.638181 1_555
Br11 Hg2 2.638181 1_555
Br12 Hg0 2.673205 1_555
Br13 Hg2 2.673205 1_555
Br14 Hg3 2.673205 1_555
Br15 Hg1 2.673205 1_555
