# generated using pymatgen
data_Li4Mn2Cr3Fe3O16
_symmetry_space_group_name_H-M   'P 1'
_cell_length_a   5.89932339
_cell_length_b   5.89932339
_cell_length_c   9.44459975
_cell_angle_alpha   89.25395407
_cell_angle_beta   89.25395407
_cell_angle_gamma   59.83409772
_symmetry_Int_Tables_number   1
_chemical_formula_structural   Li4Mn2Cr3Fe3O16
_chemical_formula_sum   'Li4 Mn2 Cr3 Fe3 O16'
_cell_volume   284.14572741
_cell_formula_units_Z   1
loop_
 _symmetry_equiv_pos_site_id
 _symmetry_equiv_pos_as_xyz
  1  'x, y, z'
loop_
 _atom_site_type_symbol
 _atom_site_label
 _atom_site_symmetry_multiplicity
 _atom_site_fract_x
 _atom_site_fract_y
 _atom_site_fract_z
 _atom_site_occupancy
  Li  Li0  1  0.66655100  0.66655100  0.10290000  1
  Li  Li1  1  0.99695800  0.99695800  0.00570900  1
  Li  Li2  1  0.99965000  0.99965000  0.50508700  1
  Li  Li3  1  0.33225500  0.33225500  0.60237400  1
  Mn  Mn0  1  0.66563500  0.66563500  0.51662200  1
  Mn  Mn1  1  0.33230400  0.33230400  0.01621900  1
  Cr  Cr0  1  0.34172700  0.82788500  0.78731700  1
  Cr  Cr1  1  0.82788500  0.34172700  0.78731700  1
  Cr  Cr2  1  0.17071100  0.17071100  0.28761800  1
  Fe  Fe0  1  0.83039000  0.83039000  0.78668700  1
  Fe  Fe1  1  0.17063300  0.66032800  0.28802800  1
  Fe  Fe2  1  0.66032800  0.17063300  0.28802800  1
  O  O0  1  0.33653900  0.82942500  0.40361000  1
  O  O1  1  0.52008200  0.52008200  0.65979400  1
  O  O2  1  0.66330900  0.66330900  0.89616000  1
  O  O3  1  0.00196400  0.00196400  0.69254200  1
  O  O4  1  0.00153500  0.00153500  0.19339100  1
  O  O5  1  0.82942500  0.33653900  0.40361000  1
  O  O6  1  0.52018900  0.95569600  0.65461900  1
  O  O7  1  0.95569600  0.52018900  0.65461900  1
  O  O8  1  0.16413900  0.16413900  0.89889500  1
  O  O9  1  0.82993200  0.82993200  0.40213400  1
  O  O10  1  0.04173600  0.47478700  0.15341600  1
  O  O11  1  0.47478700  0.04173600  0.15341600  1
  O  O12  1  0.33115400  0.33115400  0.39591400  1
  O  O13  1  0.16593200  0.66240100  0.90247300  1
  O  O14  1  0.47686600  0.47686600  0.15168700  1
  O  O15  1  0.66240100  0.16593200  0.90247300  1
loop_
_geom_bond_atom_site_label_1
_geom_bond_atom_site_label_2
_geom_bond_distance
_geom_bond_site_symmetry_2
Li0 O2 1.953356 1_554
Li0 O11 1.975671 1_565
Li0 O10 1.975671 1_655
Li0 O14 1.987034 1_555
Li1 O4 1.773902 1_665
Li1 O15 1.971602 1_564
Li1 O13 1.971602 1_654
Li1 O8 1.972019 1_664
Li2 O3 1.770951 1_665
Li2 O0 1.961247 1_655
Li2 O5 1.961247 1_565
Li2 O9 2.002130 1_555
Li3 O12 1.950134 1_555
Li3 O6 1.979381 1_545
Li3 O7 1.979381 1_455
Li3 O1 2.003718 1_555
Mn0 O6 1.978971 1_555
Mn0 O7 1.978971 1_555
Mn0 O9 1.984340 1_555
Mn0 O1 1.995892 1_555
Mn0 O0 1.995964 1_555
Mn0 O5 1.995964 1_555
Mn1 O10 1.961209 1_555
Mn1 O11 1.961209 1_555
Mn1 O14 1.969604 1_555
Mn1 O15 1.990396 1_554
Mn1 O13 1.990396 1_554
Mn1 O8 2.059750 1_554
Cr0 O2 1.942187 1_555
Cr0 O3 1.956384 1_565
Cr0 O1 1.989649 1_555
Cr0 O6 1.996608 1_555
Cr0 O8 2.019930 1_565
Cr0 O13 2.042531 1_555
Cr1 O2 1.942187 1_555
Cr1 O3 1.956384 1_655
Cr1 O1 1.989649 1_555
Cr1 O7 1.996608 1_555
Cr1 O8 2.019930 1_655
Cr1 O15 2.042531 1_555
Cr2 O12 1.946451 1_555
Cr2 O4 1.957394 1_555
Cr2 O11 1.999374 1_555
Cr2 O10 1.999374 1_555
Cr2 O5 2.049812 1_455
Cr2 O0 2.049812 1_545
Fe0 O3 1.955080 1_665
Fe0 O2 1.983786 1_555
Fe0 O6 2.031498 1_555
Fe0 O7 2.031498 1_555
Fe0 O13 2.037868 1_655
Fe0 O15 2.037868 1_565
Fe1 O4 1.950404 1_565
Fe1 O12 1.957407 1_555
Fe1 O14 2.025799 1_555
Fe1 O9 2.037845 1_455
Fe1 O0 2.045019 1_555
Fe1 O10 2.071361 1_555
Fe2 O4 1.950404 1_655
Fe2 O12 1.957407 1_555
Fe2 O14 2.025799 1_555
Fe2 O9 2.037845 1_545
Fe2 O5 2.045019 1_555
Fe2 O11 2.071361 1_555
