# generated using pymatgen
data_Ca7La3Ti5Cr5O30
_symmetry_space_group_name_H-M   'P 1'
_cell_length_a   5.47702325
_cell_length_b   5.52084328
_cell_length_c   38.45887600
_cell_angle_alpha   90.00000000
_cell_angle_beta   90.00000000
_cell_angle_gamma   89.81378306
_symmetry_Int_Tables_number   1
_chemical_formula_structural   Ca7La3Ti5Cr5O30
_chemical_formula_sum   'Ca14 La6 Ti10 Cr10 O60'
_cell_volume   1162.90515710
_cell_formula_units_Z   2
loop_
 _symmetry_equiv_pos_site_id
 _symmetry_equiv_pos_as_xyz
  1  'x, y, z'
loop_
 _atom_site_type_symbol
 _atom_site_label
 _atom_site_symmetry_multiplicity
 _atom_site_fract_x
 _atom_site_fract_y
 _atom_site_fract_z
 _atom_site_occupancy
  Ca  Ca0  1  0.01370100  0.96758800  0.15000000  1
  Ca  Ca1  1  0.01226900  0.96786000  0.55043400  1
  Ca  Ca2  1  0.01226900  0.96786000  0.74956600  1
  Ca  Ca3  1  0.48888400  0.46249900  0.35122400  1
  Ca  Ca4  1  0.48795000  0.46011800  0.15000000  1
  Ca  Ca5  1  0.48888400  0.46249900  0.94877600  1
  Ca  Ca6  1  0.51047800  0.54001100  0.65000000  1
  Ca  Ca7  1  0.51113200  0.53771700  0.45039000  1
  Ca  Ca8  1  0.51113200  0.53771700  0.84961000  1
  Ca  Ca9  1  0.98907500  0.03252200  0.05145600  1
  Ca  Ca10  1  0.98907500  0.03252200  0.24854400  1
  Ca  Ca11  1  0.98682100  0.03276600  0.65000000  1
  Ca  Ca12  1  0.98688400  0.03378900  0.45238200  1
  Ca  Ca13  1  0.98688400  0.03378900  0.84761800  1
  La  La0  1  0.00763300  0.97445700  0.35040500  1
  La  La1  1  0.00763300  0.97445700  0.94959500  1
  La  La2  1  0.49103000  0.46848600  0.55012000  1
  La  La3  1  0.49103000  0.46848600  0.74988000  1
  La  La4  1  0.50721400  0.53023800  0.05029500  1
  La  La5  1  0.50721400  0.53023800  0.24970500  1
  Ti  Ti0  1  0.00027300  0.49899300  0.99961500  1
  Ti  Ti1  1  0.00165600  0.49972300  0.10141100  1
  Ti  Ti2  1  0.00165600  0.49972300  0.19858900  1
  Ti  Ti3  1  0.00027300  0.49899300  0.30038500  1
  Ti  Ti4  1  0.99856600  0.49935100  0.40217000  1
  Ti  Ti5  1  0.99682100  0.50128100  0.49983600  1
  Ti  Ti6  1  0.99739400  0.50083400  0.60135000  1
  Ti  Ti7  1  0.99739400  0.50083400  0.69865000  1
  Ti  Ti8  1  0.99856600  0.49935100  0.89783000  1
  Ti  Ti9  1  0.99682100  0.50128100  0.80016400  1
  Cr  Cr0  1  0.50112500  0.99960900  0.10119000  1
  Cr  Cr1  1  0.50072900  0.99977800  0.00015100  1
  Cr  Cr2  1  0.50072900  0.99977800  0.29984900  1
  Cr  Cr3  1  0.50112500  0.99960900  0.19881000  1
  Cr  Cr4  1  0.49868400  0.99953900  0.40168500  1
  Cr  Cr5  1  0.49937800  0.99994200  0.49971300  1
  Cr  Cr6  1  0.49874100  0.00013000  0.60103500  1
  Cr  Cr7  1  0.49874100  0.00013000  0.69896500  1
  Cr  Cr8  1  0.49868400  0.99953900  0.89831500  1
  Cr  Cr9  1  0.49937800  0.99994200  0.80028700  1
  O  O0  1  0.07092300  0.48348100  0.05021900  1
  O  O1  1  0.07092300  0.48348100  0.24978100  1
  O  O2  1  0.08520800  0.47844800  0.44961800  1
  O  O3  1  0.08520800  0.47529300  0.65000000  1
  O  O4  1  0.08520800  0.47844800  0.85038200  1
  O  O5  1  0.21827400  0.22418800  0.19103400  1
  O  O6  1  0.22534200  0.22313300  0.39166100  1
  O  O7  1  0.22062900  0.22271400  0.59096300  1
  O  O8  1  0.21827400  0.22418800  0.10896600  1
  O  O9  1  0.22410200  0.22787100  0.30823300  1
  O  O10  1  0.21653700  0.22293100  0.79107200  1
  O  O11  1  0.22410200  0.22787100  0.99176700  1
  O  O12  1  0.21653700  0.22293100  0.50892800  1
  O  O13  1  0.22062900  0.22271400  0.70903700  1
  O  O14  1  0.22534200  0.22313300  0.90833900  1
  O  O15  1  0.27901600  0.71650300  0.30846000  1
  O  O16  1  0.27983500  0.71496700  0.10851200  1
  O  O17  1  0.27983500  0.71496700  0.19148800  1
  O  O18  1  0.27840400  0.72129900  0.39136200  1
  O  O19  1  0.27478100  0.71944200  0.50770500  1
  O  O20  1  0.27660500  0.71953700  0.59225200  1
  O  O21  1  0.27660500  0.71953700  0.70774800  1
  O  O22  1  0.27840400  0.72129900  0.90863800  1
  O  O23  1  0.27901600  0.71650300  0.99154000  1
  O  O24  1  0.27478100  0.71944200  0.79229500  1
  O  O25  1  0.41506300  0.98578400  0.05099200  1
  O  O26  1  0.41506300  0.98578400  0.24900800  1
  O  O27  1  0.41582100  0.98259000  0.65000000  1
  O  O28  1  0.41497600  0.98227300  0.85139900  1
  O  O29  1  0.41497600  0.98227300  0.44860100  1
  O  O30  1  0.57498200  0.01743700  0.35170300  1
  O  O31  1  0.58463200  0.01259900  0.55066300  1
  O  O32  1  0.58555300  0.01676000  0.15000000  1
  O  O33  1  0.58463200  0.01259900  0.74933700  1
  O  O34  1  0.57498200  0.01743700  0.94829700  1
  O  O35  1  0.72948600  0.27701300  0.00772500  1
  O  O36  1  0.72258400  0.28042600  0.09214400  1
  O  O37  1  0.72258400  0.28042600  0.20785600  1
  O  O38  1  0.72948600  0.27701300  0.29227500  1
  O  O39  1  0.72546900  0.27866200  0.40864400  1
  O  O40  1  0.71944500  0.28459800  0.60840200  1
  O  O41  1  0.71923500  0.28548900  0.80846500  1
  O  O42  1  0.72546900  0.27866200  0.89135600  1
  O  O43  1  0.71923500  0.28548900  0.49153500  1
  O  O44  1  0.71944500  0.28459800  0.69159800  1
  O  O45  1  0.77918300  0.77628000  0.09097100  1
  O  O46  1  0.78523400  0.77763800  0.29137500  1
  O  O47  1  0.77958300  0.77334500  0.49118900  1
  O  O48  1  0.78066900  0.77527800  0.69112500  1
  O  O49  1  0.78523400  0.77763800  0.00862500  1
  O  O50  1  0.77918300  0.77628000  0.20902900  1
  O  O51  1  0.78363900  0.78241400  0.89109600  1
  O  O52  1  0.78363900  0.78241400  0.40890400  1
  O  O53  1  0.78066900  0.77527800  0.60887500  1
  O  O54  1  0.77958300  0.77334500  0.80881100  1
  O  O55  1  0.91314100  0.52406700  0.15000000  1
  O  O56  1  0.91988500  0.51363700  0.35028200  1
  O  O57  1  0.92945900  0.51627300  0.55005700  1
  O  O58  1  0.92945900  0.51627300  0.74994300  1
  O  O59  1  0.91988500  0.51363700  0.94971800  1
loop_
_geom_bond_atom_site_label_1
_geom_bond_atom_site_label_2
_geom_bond_distance
_geom_bond_site_symmetry_2
Ca0 O32 2.359761 1_465
Ca0 O8 2.400643 1_565
Ca0 O5 2.400643 1_565
Ca0 O55 2.511534 1_455
Ca0 O17 2.569526 1_555
Ca0 O16 2.569526 1_555
Ca0 O50 2.815659 1_455
Ca0 O45 2.815659 1_455
Ca1 O31 2.354383 1_465
Ca1 O7 2.392065 1_565
Ca1 O12 2.406875 1_565
Ca1 O57 2.535552 1_455
Ca1 O20 2.559141 1_555
Ca1 O19 2.576009 1_555
Ca1 O53 2.792817 1_455
Ca1 O47 2.824506 1_455
Ca2 O33 2.354383 1_465
Ca2 O13 2.392065 1_565
Ca2 O10 2.406875 1_565
Ca2 O58 2.535552 1_455
Ca2 O21 2.559141 1_555
Ca2 O24 2.576009 1_555
Ca2 O48 2.792817 1_455
Ca2 O54 2.824506 1_455
Ca3 O56 2.378612 1_555
Ca3 O18 2.396372 1_555
Ca3 O15 2.445842 1_555
Ca3 O30 2.500521 1_555
Ca3 O6 2.502154 1_555
Ca3 O9 2.554788 1_555
Ca3 O39 2.752675 1_555
Ca3 O38 2.813580 1_555
Ca4 O55 2.356525 1_555
Ca4 O17 2.411289 1_555
Ca4 O16 2.411289 1_555
Ca4 O32 2.503707 1_555
Ca4 O8 2.526095 1_555
Ca4 O5 2.526095 1_555
Ca4 O36 2.752874 1_555
Ca4 O37 2.752874 1_555
Ca5 O59 2.378612 1_555
Ca5 O22 2.396372 1_555
Ca5 O23 2.445842 1_555
Ca5 O34 2.500521 1_555
Ca5 O14 2.502154 1_555
Ca5 O11 2.554788 1_555
Ca5 O42 2.752675 1_555
Ca5 O35 2.813580 1_556
Ca6 O3 2.357606 1_555
Ca6 O40 2.418098 1_555
Ca6 O44 2.418098 1_555
Ca6 O27 2.496156 1_555
Ca6 O53 2.528047 1_555
Ca6 O48 2.528047 1_555
Ca6 O20 2.747248 1_555
Ca6 O21 2.747248 1_555
Ca7 O2 2.356873 1_555
Ca7 O43 2.394126 1_555
Ca7 O39 2.447512 1_555
Ca7 O29 2.509462 1_555
Ca7 O47 2.515656 1_555
Ca7 O52 2.571265 1_555
Ca7 O19 2.744569 1_555
Ca7 O18 2.792342 1_555
Ca8 O4 2.356873 1_555
Ca8 O41 2.394126 1_555
Ca8 O42 2.447512 1_555
Ca8 O28 2.509462 1_555
Ca8 O54 2.515656 1_555
Ca8 O51 2.571265 1_555
Ca8 O24 2.744569 1_555
Ca8 O22 2.792342 1_555
Ca9 O25 2.346605 1_645
Ca9 O45 2.375480 1_545
Ca9 O49 2.439297 1_545
Ca9 O0 2.531591 1_655
Ca9 O36 2.537558 1_555
Ca9 O35 2.580605 1_555
Ca9 O8 2.756104 1_655
Ca9 O11 2.845844 1_654
Ca10 O26 2.346605 1_645
Ca10 O50 2.375480 1_545
Ca10 O46 2.439297 1_545
Ca10 O1 2.531591 1_655
Ca10 O37 2.537558 1_555
Ca10 O38 2.580605 1_555
Ca10 O5 2.756104 1_655
Ca10 O9 2.845844 1_655
Ca11 O27 2.365022 1_645
Ca11 O53 2.409903 1_545
Ca11 O48 2.409903 1_545
Ca11 O3 2.503554 1_655
Ca11 O40 2.573657 1_555
Ca11 O44 2.573657 1_555
Ca11 O13 2.811310 1_655
Ca11 O7 2.811310 1_655
Ca12 O47 2.365307 1_545
Ca12 O29 2.365413 1_645
Ca12 O52 2.443598 1_545
Ca12 O43 2.516750 1_555
Ca12 O2 2.517220 1_655
Ca12 O39 2.587384 1_555
Ca12 O12 2.722194 1_655
Ca12 O6 2.874160 1_655
Ca13 O54 2.365307 1_545
Ca13 O28 2.365413 1_645
Ca13 O51 2.443598 1_545
Ca13 O41 2.516750 1_555
Ca13 O4 2.517220 1_655
Ca13 O42 2.587384 1_555
Ca13 O10 2.722194 1_655
Ca13 O14 2.874160 1_655
La0 O30 2.381246 1_465
La0 O6 2.415533 1_565
La0 O9 2.450373 1_565
La0 O18 2.573017 1_555
La0 O56 2.590650 1_455
La0 O15 2.612651 1_555
La0 O52 2.774757 1_455
La0 O46 2.797674 1_455
La0 O56 3.013737 1_465
La0 O30 3.117599 1_565
La0 O38 3.176846 1_465
La0 O39 3.195120 1_465
La1 O34 2.381246 1_465
La1 O14 2.415533 1_565
La1 O11 2.450373 1_565
La1 O22 2.573017 1_555
La1 O59 2.590650 1_455
La1 O23 2.612651 1_555
La1 O51 2.774757 1_455
La1 O49 2.797674 1_456
La1 O59 3.013737 1_465
La1 O34 3.117599 1_565
La1 O35 3.176846 1_466
La1 O42 3.195120 1_465
La2 O57 2.416589 1_555
La2 O20 2.432123 1_555
La2 O19 2.443898 1_555
La2 O7 2.552417 1_555
La2 O31 2.567013 1_555
La2 O12 2.573130 1_555
La2 O40 2.758920 1_555
La2 O43 2.766084 1_555
La3 O58 2.416589 1_555
La3 O21 2.432123 1_555
La3 O24 2.443898 1_555
La3 O13 2.552417 1_555
La3 O33 2.567013 1_555
La3 O10 2.573130 1_555
La3 O44 2.758920 1_555
La3 O41 2.766084 1_555
La4 O0 2.404314 1_555
La4 O36 2.423499 1_555
La4 O35 2.470997 1_555
La4 O45 2.554279 1_555
La4 O25 2.563673 1_555
La4 O49 2.601160 1_555
La4 O16 2.756034 1_555
La4 O23 2.777997 1_554
La5 O1 2.404314 1_555
La5 O37 2.423499 1_555
La5 O38 2.470997 1_555
La5 O50 2.554279 1_555
La5 O26 2.563673 1_555
La5 O46 2.601160 1_555
La5 O17 2.756034 1_555
La5 O15 2.777997 1_555
Cr0 O32 1.935684 1_565
Cr0 O25 1.988794 1_555
Cr0 O45 1.995437 1_555
Cr0 O36 2.002010 1_565
Cr0 O8 2.003542 1_565
Cr0 O16 2.007522 1_555
Cr1 O11 1.993194 1_564
Cr1 O35 2.002433 1_565
Cr1 O49 2.006479 1_555
Cr1 O23 2.010583 1_554
Cr1 O25 2.012337 1_555
Cr1 O34 2.037689 1_564
Cr2 O9 1.993194 1_565
Cr2 O38 2.002433 1_565
Cr2 O46 2.006479 1_555
Cr2 O15 2.010583 1_555
Cr2 O26 2.012337 1_555
Cr2 O30 2.037689 1_565
Cr3 O32 1.935684 1_565
Cr3 O26 1.988794 1_555
Cr3 O50 1.995437 1_555
Cr3 O37 2.002010 1_565
Cr3 O5 2.003542 1_565
Cr3 O17 2.007522 1_555
Cr4 O29 1.864188 1_555
Cr4 O30 1.969698 1_565
Cr4 O6 1.975279 1_565
Cr4 O52 1.984347 1_555
Cr4 O18 1.996226 1_555
Cr4 O39 2.000391 1_565
Cr5 O47 2.003816 1_555
Cr5 O19 2.004547 1_555
Cr5 O12 2.007130 1_565
Cr5 O43 2.011590 1_565
Cr5 O31 2.015611 1_565
Cr5 O29 2.021762 1_555
Cr6 O27 1.939621 1_545
Cr6 O7 1.992027 1_555
Cr6 O31 1.994791 1_555
Cr6 O53 2.000946 1_545
Cr6 O20 2.001578 1_545
Cr6 O40 2.005067 1_555
Cr7 O27 1.939621 1_545
Cr7 O13 1.992027 1_555
Cr7 O33 1.994791 1_555
Cr7 O48 2.000946 1_545
Cr7 O21 2.001578 1_545
Cr7 O44 2.005067 1_555
Cr8 O28 1.864188 1_555
Cr8 O34 1.969698 1_565
Cr8 O14 1.975279 1_565
Cr8 O51 1.984347 1_555
Cr8 O22 1.996226 1_555
Cr8 O42 2.000391 1_565
Cr9 O54 2.003816 1_555
Cr9 O24 2.004547 1_555
Cr9 O10 2.007130 1_565
Cr9 O41 2.011590 1_565
Cr9 O33 2.015611 1_565
Cr9 O28 2.021762 1_555
O0 Ti0 1.986061 1_554
O0 Ti1 2.006955 1_555
O1 Ti3 1.986061 1_555
O1 Ti2 2.006955 1_555
O2 Ti4 1.888924 1_455
O2 Ti5 1.994962 1_455
O3 Ti7 1.936878 1_455
O3 Ti6 1.936878 1_455
O4 Ti8 1.888924 1_455
O4 Ti9 1.994962 1_455
O5 Ti2 1.947895 1_555
O6 Ti4 2.004803 1_455
O7 Ti6 1.999977 1_455
O8 Ti1 1.947895 1_555
O9 Ti3 1.955126 1_555
O10 Ti9 1.979879 1_455
O11 Ti0 1.955126 1_555
O12 Ti5 1.979879 1_455
O13 Ti7 1.999977 1_455
O14 Ti8 2.004803 1_455
O15 Ti3 1.970059 1_555
O16 Ti1 1.954433 1_555
O17 Ti2 1.954433 1_555
O18 Ti4 2.008867 1_455
O19 Ti5 1.967700 1_455
O20 Ti6 1.982649 1_455
O21 Ti7 1.982649 1_455
O22 Ti8 2.008867 1_455
O23 Ti0 1.970059 1_555
O24 Ti9 1.967700 1_455
O35 Ti0 1.952074 1_654
O36 Ti1 1.985225 1_655
O37 Ti2 1.985225 1_655
O38 Ti3 1.952074 1_655
O39 Ti4 1.948231 1_555
O40 Ti6 1.956537 1_555
O41 Ti9 1.960731 1_555
O42 Ti8 1.948231 1_555
O43 Ti5 1.960731 1_555
O44 Ti7 1.956537 1_555
O45 Ti1 1.991240 1_655
O46 Ti3 1.965193 1_655
O47 Ti5 1.941833 1_555
O48 Ti7 1.943391 1_555
O49 Ti0 1.965193 1_654
O50 Ti2 1.991240 1_655
O51 Ti8 1.970532 1_555
O52 Ti4 1.970532 1_555
O53 Ti6 1.943391 1_555
O54 Ti9 1.941833 1_555
O55 Ti1 1.935104 1_655
O55 Ti2 1.935104 1_655
O56 Ti3 1.970444 1_655
O56 Ti4 2.043023 1_555
O57 Ti5 1.968056 1_555
O57 Ti6 2.009213 1_555
O58 Ti9 1.968056 1_555
O58 Ti7 2.009213 1_555
O59 Ti0 1.970444 1_655
O59 Ti8 2.043023 1_555
