# generated using pymatgen
data_K4V2O9
_symmetry_space_group_name_H-M   'P 1'
_cell_length_a   8.40128472
_cell_length_b   8.40128472
_cell_length_c   8.10864900
_cell_angle_alpha   90.00000000
_cell_angle_beta   90.00000000
_cell_angle_gamma   96.43690024
_symmetry_Int_Tables_number   1
_chemical_formula_structural   K4V2O9
_chemical_formula_sum   'K8 V4 O18'
_cell_volume   568.71334117
_cell_formula_units_Z   2
loop_
 _symmetry_equiv_pos_site_id
 _symmetry_equiv_pos_as_xyz
  1  'x, y, z'
loop_
 _atom_site_type_symbol
 _atom_site_label
 _atom_site_symmetry_multiplicity
 _atom_site_fract_x
 _atom_site_fract_y
 _atom_site_fract_z
 _atom_site_occupancy
  K  K0  1  0.46465700  0.53534300  0.25000000  1
  K  K1  1  0.53534300  0.46465700  0.75000000  1
  K  K2  1  0.98642900  0.01357100  0.25000000  1
  K  K3  1  0.01357100  0.98642900  0.75000000  1
  K  K4  1  0.91763200  0.53008600  0.25000000  1
  K  K5  1  0.53008600  0.91763200  0.75000000  1
  K  K6  1  0.08236800  0.46991400  0.75000000  1
  K  K7  1  0.46991400  0.08236800  0.25000000  1
  V  V0  1  0.22553100  0.77446900  0.47634800  1
  V  V1  1  0.77446900  0.22553100  0.52365200  1
  V  V2  1  0.22553100  0.77446900  0.02365200  1
  V  V3  1  0.77446900  0.22553100  0.97634800  1
  O  O0  1  0.03066900  0.71758800  0.53471400  1
  O  O1  1  0.71758800  0.03066900  0.46528600  1
  O  O2  1  0.03066900  0.71758800  0.96528600  1
  O  O3  1  0.71758800  0.03066900  0.03471400  1
  O  O4  1  0.96933100  0.28241200  0.46528600  1
  O  O5  1  0.28241200  0.96933100  0.53471400  1
  O  O6  1  0.96933100  0.28241200  0.03471400  1
  O  O7  1  0.28241200  0.96933100  0.96528600  1
  O  O8  1  0.35153400  0.64846600  0.55507000  1
  O  O9  1  0.64846600  0.35153400  0.44493000  1
  O  O10  1  0.35153400  0.64846600  0.94493000  1
  O  O11  1  0.64846600  0.35153400  0.05507000  1
  O  O12  1  0.23253800  0.76746200  0.25000000  1
  O  O13  1  0.76746200  0.23253800  0.75000000  1
  O  O14  1  0.16046000  0.30433100  0.25000000  1
  O  O15  1  0.30433100  0.16046000  0.75000000  1
  O  O16  1  0.83954000  0.69566900  0.75000000  1
  O  O17  1  0.69566900  0.83954000  0.25000000  1
loop_
_geom_bond_atom_site_label_1
_geom_bond_atom_site_label_2
_geom_bond_distance
_geom_bond_site_symmetry_2
K0 O11 2.793267 1_555
K0 O9 2.793267 1_555
K0 O8 2.850996 1_555
K0 O10 2.850996 1_554
K0 O12 2.908339 1_555
K0 O17 3.030825 1_555
K0 O14 3.030825 1_555
K1 O8 2.793267 1_555
K1 O10 2.793267 1_555
K1 O11 2.850996 1_556
K1 O9 2.850996 1_555
K1 O13 2.908339 1_555
K1 O15 3.030825 1_555
K1 O16 3.030825 1_555
K2 O17 2.702583 1_545
K2 O14 2.702583 1_655
K2 O4 2.870904 1_555
K2 O1 2.870904 1_555
K2 O6 2.870904 1_555
K2 O3 2.870904 1_555
K2 O12 3.083627 1_645
K3 O15 2.702583 1_565
K3 O16 2.702583 1_455
K3 O2 2.870904 1_555
K3 O0 2.870904 1_555
K3 O7 2.870904 1_555
K3 O5 2.870904 1_555
K3 O13 3.083627 1_465
K4 O4 2.787172 1_555
K4 O6 2.787172 1_555
K4 O2 2.894427 1_654
K4 O0 2.894427 1_655
K4 O14 2.937115 1_655
K4 O9 3.016891 1_555
K4 O11 3.016891 1_555
K4 O12 3.129438 1_655
K4 O17 3.365029 1_555
K5 O5 2.787172 1_555
K5 O7 2.787172 1_555
K5 O3 2.894427 1_566
K5 O1 2.894427 1_565
K5 O15 2.937115 1_565
K5 O8 3.016891 1_555
K5 O10 3.016891 1_555
K5 O13 3.129438 1_565
K5 O16 3.365029 1_555
K6 O2 2.787172 1_555
K6 O0 2.787172 1_555
K6 O6 2.894427 1_456
K6 O4 2.894427 1_455
K6 O16 2.937115 1_455
K6 O8 3.016891 1_555
K6 O10 3.016891 1_555
K6 O13 3.129438 1_455
K6 O15 3.365029 1_555
K7 O1 2.787172 1_555
K7 O3 2.787172 1_555
K7 O7 2.894427 1_544
K7 O5 2.894427 1_545
K7 O17 2.937115 1_545
K7 O9 3.016891 1_555
K7 O11 3.016891 1_555
K7 O12 3.129438 1_545
K7 O14 3.365029 1_555
O0 V0 1.719594 1_555
O1 V1 1.719594 1_555
O2 V2 1.719594 1_556
O3 V3 1.719594 1_554
O4 V1 1.719594 1_555
O5 V0 1.719594 1_555
O6 V3 1.719594 1_554
O7 V2 1.719594 1_556
O8 V0 1.702920 1_555
O9 V1 1.702920 1_555
O10 V2 1.702920 1_556
O11 V3 1.702920 1_554
O12 V0 1.837475 1_555
O12 V2 1.837475 1_555
O13 V3 1.837475 1_555
O13 V1 1.837475 1_555
