# generated using pymatgen
data_Li4CrO4
_symmetry_space_group_name_H-M   'P 1'
_cell_length_a   7.60559334
_cell_length_b   5.13483180
_cell_length_c   5.10141691
_cell_angle_alpha   67.77841777
_cell_angle_beta   96.97795168
_cell_angle_gamma   109.26477236
_symmetry_Int_Tables_number   1
_chemical_formula_structural   Li4CrO4
_chemical_formula_sum   'Li8 Cr2 O8'
_cell_volume   174.10224915
_cell_formula_units_Z   2
loop_
 _symmetry_equiv_pos_site_id
 _symmetry_equiv_pos_as_xyz
  1  'x, y, z'
loop_
 _atom_site_type_symbol
 _atom_site_label
 _atom_site_symmetry_multiplicity
 _atom_site_fract_x
 _atom_site_fract_y
 _atom_site_fract_z
 _atom_site_occupancy
  Li  Li0  1  0.00404286  0.24033513  0.25857856  1
  Li  Li1  1  0.20863241  0.39296619  0.78345877  1
  Li  Li2  1  0.41601734  0.91832568  0.74973988  1
  Li  Li3  1  0.43788171  0.49078070  0.23973088  1
  Li  Li4  1  0.56211645  0.50922002  0.76025825  1
  Li  Li5  1  0.58398331  0.08167817  0.25026210  1
  Li  Li6  1  0.79136626  0.60703264  0.21654245  1
  Li  Li7  1  0.99595830  0.75966219  0.74142597  1
  Cr  Cr0  1  0.22583976  0.83721774  0.21973197  1
  Cr  Cr1  1  0.77416187  0.16279244  0.78026155  1
  O  O0  1  0.02062758  0.84094360  0.33913800  1
  O  O1  1  0.19467616  0.62576180  0.00173252  1
  O  O2  1  0.38362931  0.69893653  0.48731698  1
  O  O3  1  0.37536722  0.19335355  0.02526760  1
  O  O4  1  0.62463739  0.80665674  0.97472429  1
  O  O5  1  0.61636552  0.30106371  0.51267968  1
  O  O6  1  0.80532615  0.37423654  0.99827273  1
  O  O7  1  0.97937239  0.15903563  0.66087781  1
loop_
_geom_bond_atom_site_label_1
_geom_bond_atom_site_label_2
_geom_bond_distance
_geom_bond_site_symmetry_2
Li0 O7 1.953266 1_455
Li0 O0 1.977684 1_545
Li0 O6 2.006938 1_454
Li0 O1 2.083873 1_555
Li1 O3 1.923965 1_556
Li1 O7 1.948180 1_455
Li1 O1 1.949175 1_556
Li1 O2 1.958467 1_555
Li2 O4 1.955436 1_555
Li2 O2 1.999851 1_555
Li2 O1 2.034607 1_556
Li2 O5 2.078637 1_565
Li2 O3 2.441458 1_566
Li3 O4 1.940036 1_554
Li3 O5 2.029271 1_555
Li3 O2 2.084877 1_555
Li3 O3 2.100901 1_555
Li3 O1 2.244946 1_555
Li4 O3 1.940000 1_556
Li4 O2 2.029272 1_555
Li4 O5 2.084836 1_555
Li4 O4 2.100950 1_555
Li4 O6 2.245004 1_555
Li5 O3 1.955442 1_555
Li5 O5 1.999819 1_555
Li5 O6 2.034602 1_554
Li5 O2 2.078659 1_545
Li5 O4 2.441484 1_544
Li6 O4 1.923978 1_554
Li6 O0 1.948175 1_655
Li6 O6 1.949169 1_554
Li6 O5 1.958467 1_555
Li7 O0 1.953228 1_655
Li7 O7 1.977607 1_565
Li7 O1 2.006944 1_656
Li7 O6 2.083868 1_555
Cr0 O0 1.751260 1_555
Cr0 O3 1.775173 1_565
Cr0 O1 1.775211 1_555
Cr0 O2 1.799690 1_555
Cr1 O7 1.751265 1_555
Cr1 O4 1.775162 1_545
Cr1 O6 1.775212 1_555
Cr1 O5 1.799702 1_555
