# generated using pymatgen
data_Li3Nb7O19
_symmetry_space_group_name_H-M   'P 1'
_cell_length_a   6.34289817
_cell_length_b   6.34289817
_cell_length_c   20.33741100
_cell_angle_alpha   90.00000000
_cell_angle_beta   90.00000000
_cell_angle_gamma   120.00000179
_symmetry_Int_Tables_number   1
_chemical_formula_structural   Li3Nb7O19
_chemical_formula_sum   'Li6 Nb14 O38'
_cell_volume   708.60101149
_cell_formula_units_Z   2
loop_
 _symmetry_equiv_pos_site_id
 _symmetry_equiv_pos_as_xyz
  1  'x, y, z'
loop_
 _atom_site_type_symbol
 _atom_site_label
 _atom_site_symmetry_multiplicity
 _atom_site_fract_x
 _atom_site_fract_y
 _atom_site_fract_z
 _atom_site_occupancy
  Li  Li0  1  0.00000000  0.50000000  0.00000000  1
  Li  Li1  1  0.00000000  0.50000000  0.50000000  1
  Li  Li2  1  0.50000000  0.50000000  0.00000000  1
  Li  Li3  1  0.50000000  0.50000000  0.50000000  1
  Li  Li4  1  0.50000000  0.00000000  0.50000000  1
  Li  Li5  1  0.50000000  0.00000000  0.00000000  1
  Nb  Nb0  1  0.30514300  0.97042400  0.65532700  1
  Nb  Nb1  1  0.30514300  0.97042400  0.84467300  1
  Nb  Nb2  1  0.02957600  0.33471900  0.65532700  1
  Nb  Nb3  1  0.02957600  0.33471900  0.84467300  1
  Nb  Nb4  1  0.00000000  0.00000000  0.00000000  1
  Nb  Nb5  1  0.00000000  0.00000000  0.50000000  1
  Nb  Nb6  1  0.33471900  0.30514300  0.15532700  1
  Nb  Nb7  1  0.33471900  0.30514300  0.34467300  1
  Nb  Nb8  1  0.66528100  0.69485700  0.65532700  1
  Nb  Nb9  1  0.66528100  0.69485700  0.84467300  1
  Nb  Nb10  1  0.97042400  0.66528100  0.15532700  1
  Nb  Nb11  1  0.97042400  0.66528100  0.34467300  1
  Nb  Nb12  1  0.69485700  0.02957600  0.15532700  1
  Nb  Nb13  1  0.69485700  0.02957600  0.34467300  1
  O  O0  1  0.24541700  0.96319200  0.55509900  1
  O  O1  1  0.24541700  0.96319200  0.94490100  1
  O  O2  1  0.29114500  0.92717500  0.75000000  1
  O  O3  1  0.08581500  0.42039500  0.15187000  1
  O  O4  1  0.08581500  0.42039500  0.34813000  1
  O  O5  1  0.07282500  0.36397000  0.75000000  1
  O  O6  1  0.33458000  0.91418500  0.15187000  1
  O  O7  1  0.33458000  0.91418500  0.34813000  1
  O  O8  1  0.03680800  0.28222500  0.55509900  1
  O  O9  1  0.03680800  0.28222500  0.94490100  1
  O  O10  1  0.00000000  0.00000000  0.16432500  1
  O  O11  1  0.00000000  0.00000000  0.33567500  1
  O  O12  1  0.00000000  0.00000000  0.66432500  1
  O  O13  1  0.00000000  0.00000000  0.83567500  1
  O  O14  1  0.33333300  0.66666700  0.63704500  1
  O  O15  1  0.33333300  0.66666700  0.86295500  1
  O  O16  1  0.28222500  0.24541700  0.05509900  1
  O  O17  1  0.28222500  0.24541700  0.44490100  1
  O  O18  1  0.36397000  0.29114500  0.25000000  1
  O  O19  1  0.42039500  0.33458000  0.65187000  1
  O  O20  1  0.42039500  0.33458000  0.84813000  1
  O  O21  1  0.57960500  0.66542000  0.34813000  1
  O  O22  1  0.57960500  0.66542000  0.15187000  1
  O  O23  1  0.63603000  0.70885500  0.75000000  1
  O  O24  1  0.71777500  0.75458300  0.55509900  1
  O  O25  1  0.71777500  0.75458300  0.94490100  1
  O  O26  1  0.66666700  0.33333300  0.36295500  1
  O  O27  1  0.66666700  0.33333300  0.13704500  1
  O  O28  1  0.96319200  0.71777500  0.05509900  1
  O  O29  1  0.96319200  0.71777500  0.44490100  1
  O  O30  1  0.66542000  0.08581500  0.65187000  1
  O  O31  1  0.66542000  0.08581500  0.84813000  1
  O  O32  1  0.92717500  0.63603000  0.25000000  1
  O  O33  1  0.91418500  0.57960500  0.65187000  1
  O  O34  1  0.91418500  0.57960500  0.84813000  1
  O  O35  1  0.70885500  0.07282500  0.25000000  1
  O  O36  1  0.75458300  0.03680800  0.05509900  1
  O  O37  1  0.75458300  0.03680800  0.44490100  1
loop_
_geom_bond_atom_site_label_1
_geom_bond_atom_site_label_2
_geom_bond_distance
_geom_bond_site_symmetry_2
Li0 O28 1.881686 1_455
Li0 O9 1.881686 1_554
Li1 O29 1.881686 1_455
Li1 O8 1.881686 1_555
Li2 O16 1.881686 1_555
Li2 O25 1.881686 1_554
Li3 O24 1.881686 1_555
Li3 O17 1.881686 1_555
Li4 O0 1.881686 1_545
Li4 O37 1.881686 1_555
Li5 O36 1.881686 1_555
Li5 O1 1.881686 1_544
Nb0 O2 1.940608 1_555
Nb0 O30 2.022427 1_565
Nb0 O12 2.043991 1_565
Nb0 O19 2.045973 1_565
Nb0 O14 2.055940 1_555
Nb0 O0 2.069596 1_555
Nb0 O33 2.480363 1_455
Nb1 O2 1.940608 1_555
Nb1 O31 2.022427 1_565
Nb1 O13 2.043991 1_565
Nb1 O20 2.045973 1_565
Nb1 O15 2.055940 1_555
Nb1 O1 2.069596 1_555
Nb1 O34 2.480363 1_455
Nb2 O5 1.940608 1_555
Nb2 O33 2.022427 1_455
Nb2 O12 2.043991 1_555
Nb2 O30 2.045973 1_455
Nb2 O14 2.055944 1_555
Nb2 O8 2.069596 1_555
Nb2 O19 2.480363 1_555
Nb3 O5 1.940608 1_555
Nb3 O34 2.022427 1_455
Nb3 O13 2.043991 1_555
Nb3 O31 2.045973 1_455
Nb3 O15 2.055944 1_555
Nb3 O9 2.069596 1_555
Nb3 O20 2.480363 1_555
Nb4 O16 2.024054 1_555
Nb4 O25 2.024054 1_444
Nb4 O28 2.024054 1_445
Nb4 O9 2.024054 1_554
Nb4 O36 2.024054 1_455
Nb4 O1 2.024054 1_544
Nb5 O17 2.024054 1_555
Nb5 O24 2.024054 1_445
Nb5 O8 2.024054 1_555
Nb5 O29 2.024054 1_445
Nb5 O37 2.024054 1_455
Nb5 O0 2.024054 1_545
Nb6 O18 1.940608 1_555
Nb6 O22 2.022427 1_555
Nb6 O10 2.043991 1_555
Nb6 O3 2.045973 1_555
Nb6 O27 2.055947 1_555
Nb6 O16 2.069596 1_555
Nb6 O6 2.480363 1_545
Nb7 O18 1.940608 1_555
Nb7 O21 2.022427 1_555
Nb7 O11 2.043991 1_555
Nb7 O4 2.045973 1_555
Nb7 O26 2.055947 1_555
Nb7 O17 2.069596 1_555
Nb7 O7 2.480363 1_545
Nb8 O23 1.940608 1_555
Nb8 O19 2.022427 1_555
Nb8 O12 2.043991 1_665
Nb8 O33 2.045973 1_555
Nb8 O14 2.055947 1_555
Nb8 O24 2.069596 1_555
Nb8 O30 2.480363 1_565
Nb9 O23 1.940608 1_555
Nb9 O20 2.022427 1_555
Nb9 O13 2.043991 1_665
Nb9 O34 2.045973 1_555
Nb9 O15 2.055947 1_555
Nb9 O25 2.069596 1_555
Nb9 O31 2.480363 1_565
Nb10 O32 1.940608 1_555
Nb10 O3 2.022427 1_655
Nb10 O10 2.043991 1_665
Nb10 O6 2.045973 1_655
Nb10 O27 2.055944 1_555
Nb10 O28 2.069596 1_555
Nb10 O22 2.480363 1_555
Nb11 O32 1.940608 1_555
Nb11 O4 2.022427 1_655
Nb11 O11 2.043991 1_665
Nb11 O7 2.045973 1_655
Nb11 O26 2.055944 1_555
Nb11 O29 2.069596 1_555
Nb11 O21 2.480363 1_555
Nb12 O35 1.940608 1_555
Nb12 O6 2.022427 1_545
Nb12 O10 2.043991 1_655
Nb12 O22 2.045973 1_545
Nb12 O27 2.055940 1_555
Nb12 O36 2.069596 1_555
Nb12 O3 2.480363 1_655
Nb13 O35 1.940608 1_555
Nb13 O7 2.022427 1_545
Nb13 O11 2.043991 1_655
Nb13 O21 2.045973 1_545
Nb13 O26 2.055940 1_555
Nb13 O37 2.069596 1_555
Nb13 O4 2.480363 1_655
