# generated using pymatgen
data_H12C4IN
_symmetry_space_group_name_H-M   'P 1'
_cell_length_a   8.10779700
_cell_length_b   8.10779700
_cell_length_c   5.82955100
_cell_angle_alpha   90.00000000
_cell_angle_beta   90.00000000
_cell_angle_gamma   90.00000000
_symmetry_Int_Tables_number   1
_chemical_formula_structural   H12C4IN
_chemical_formula_sum   'H24 C8 I2 N2'
_cell_volume   383.21353426
_cell_formula_units_Z   2
loop_
 _symmetry_equiv_pos_site_id
 _symmetry_equiv_pos_as_xyz
  1  'x, y, z'
loop_
 _atom_site_type_symbol
 _atom_site_label
 _atom_site_symmetry_multiplicity
 _atom_site_fract_x
 _atom_site_fract_y
 _atom_site_fract_z
 _atom_site_occupancy
  H  H0  1  0.74092500  0.00000000  0.45968100  1
  H  H1  1  0.25907500  0.00000000  0.45968100  1
  H  H2  1  0.50000000  0.24092500  0.45968100  1
  H  H3  1  0.50000000  0.75907500  0.45968100  1
  H  H4  1  0.75907500  0.50000000  0.54031900  1
  H  H5  1  0.24092500  0.50000000  0.54031900  1
  H  H6  1  0.00000000  0.25907500  0.54031900  1
  H  H7  1  0.00000000  0.74092500  0.54031900  1
  H  H8  1  0.85415600  0.11150900  0.24243200  1
  H  H9  1  0.85415600  0.88849100  0.24243200  1
  H  H10  1  0.14584400  0.11150900  0.24243200  1
  H  H11  1  0.14584400  0.88849100  0.24243200  1
  H  H12  1  0.61150900  0.35415600  0.24243200  1
  H  H13  1  0.61150900  0.64584400  0.24243200  1
  H  H14  1  0.38849100  0.35415600  0.24243200  1
  H  H15  1  0.38849100  0.64584400  0.24243200  1
  H  H16  1  0.64584400  0.38849100  0.75756800  1
  H  H17  1  0.64584400  0.61150900  0.75756800  1
  H  H18  1  0.35415600  0.38849100  0.75756800  1
  H  H19  1  0.35415600  0.61150900  0.75756800  1
  H  H20  1  0.88849100  0.14584400  0.75756800  1
  H  H21  1  0.88849100  0.85415600  0.75756800  1
  H  H22  1  0.11150900  0.14584400  0.75756800  1
  H  H23  1  0.11150900  0.85415600  0.75756800  1
  C  C0  1  0.85055200  0.00000000  0.34887700  1
  C  C1  1  0.14944800  0.00000000  0.34887700  1
  C  C2  1  0.50000000  0.35055200  0.34887700  1
  C  C3  1  0.50000000  0.64944800  0.34887700  1
  C  C4  1  0.64944800  0.50000000  0.65112300  1
  C  C5  1  0.35055200  0.50000000  0.65112300  1
  C  C6  1  0.00000000  0.14944800  0.65112300  1
  C  C7  1  0.00000000  0.85055200  0.65112300  1
  I  I0  1  0.50000000  0.00000000  0.88791100  1
  I  I1  1  0.00000000  0.50000000  0.11208900  1
  N  N0  1  0.50000000  0.50000000  0.50000000  1
  N  N1  1  0.00000000  0.00000000  0.50000000  1
loop_
_geom_bond_atom_site_label_1
_geom_bond_atom_site_label_2
_geom_bond_distance
_geom_bond_site_symmetry_2
C0 H8 1.096946 1_555
C0 H9 1.096946 1_545
C0 H0 1.098754 1_555
C0 N1 1.498108 1_655
C1 H10 1.096946 1_555
C1 H11 1.096946 1_545
C1 H1 1.098754 1_555
C1 N1 1.498108 1_555
C2 H12 1.096946 1_555
C2 H14 1.096946 1_555
C2 H2 1.098754 1_555
C2 N0 1.498108 1_555
C3 H13 1.096946 1_555
C3 H15 1.096946 1_555
C3 H3 1.098754 1_555
C3 N0 1.498108 1_555
C4 H17 1.096946 1_555
C4 H16 1.096946 1_555
C4 H4 1.098754 1_555
C4 N0 1.498108 1_555
C5 H19 1.096946 1_555
C5 H18 1.096946 1_555
C5 H5 1.098754 1_555
C5 N0 1.498108 1_555
C6 H22 1.096946 1_555
C6 H20 1.096946 1_455
C6 H6 1.098754 1_555
C6 N1 1.498108 1_555
C7 H23 1.096946 1_555
C7 H21 1.096946 1_455
C7 H7 1.098754 1_555
C7 N1 1.498108 1_565
