# generated using pymatgen
data_CuPO3
_symmetry_space_group_name_H-M   'P 1'
_cell_length_a   9.70332746
_cell_length_b   9.70332746
_cell_length_c   9.70332806
_cell_angle_alpha   114.89621752
_cell_angle_beta   114.89621752
_cell_angle_gamma   114.89621285
_symmetry_Int_Tables_number   1
_chemical_formula_structural   CuPO3
_chemical_formula_sum   'Cu6 P6 O18'
_cell_volume   516.11152980
_cell_formula_units_Z   6
loop_
 _symmetry_equiv_pos_site_id
 _symmetry_equiv_pos_as_xyz
  1  'x, y, z'
loop_
 _atom_site_type_symbol
 _atom_site_label
 _atom_site_symmetry_multiplicity
 _atom_site_fract_x
 _atom_site_fract_y
 _atom_site_fract_z
 _atom_site_occupancy
  Cu  Cu0  1  0.35108000  0.54585300  0.94642100  1
  Cu  Cu1  1  0.05357900  0.64892000  0.45414700  1
  Cu  Cu2  1  0.45414700  0.05357900  0.64892000  1
  Cu  Cu3  1  0.54585300  0.94642100  0.35108000  1
  Cu  Cu4  1  0.94642100  0.35108000  0.54585300  1
  Cu  Cu5  1  0.64892000  0.45414700  0.05357900  1
  P  P0  1  0.16829900  0.80634400  0.93801600  1
  P  P1  1  0.19365600  0.06198400  0.83170100  1
  P  P2  1  0.06198400  0.83170100  0.19365600  1
  P  P3  1  0.93801600  0.16829900  0.80634400  1
  P  P4  1  0.80634400  0.93801600  0.16829900  1
  P  P5  1  0.83170100  0.19365600  0.06198400  1
  O  O0  1  0.03143700  0.77057500  0.99495700  1
  O  O1  1  0.10362100  0.38208100  0.88745800  1
  O  O2  1  0.22942500  0.00504300  0.96856300  1
  O  O3  1  0.00457500  0.59998100  0.69586200  1
  O  O4  1  0.40001900  0.30413800  0.99542500  1
  O  O5  1  0.11254200  0.89637900  0.61791900  1
  O  O6  1  0.61791900  0.11254200  0.89637900  1
  O  O7  1  0.00504300  0.96856300  0.22942500  1
  O  O8  1  0.30413800  0.99542500  0.40001900  1
  O  O9  1  0.69586200  0.00457500  0.59998100  1
  O  O10  1  0.99495700  0.03143800  0.77057500  1
  O  O11  1  0.38208100  0.88745800  0.10362100  1
  O  O12  1  0.88745800  0.10362100  0.38208100  1
  O  O13  1  0.59998100  0.69586200  0.00457500  1
  O  O14  1  0.99542500  0.40001900  0.30413800  1
  O  O15  1  0.77057500  0.99495700  0.03143700  1
  O  O16  1  0.89637900  0.61791900  0.11254200  1
  O  O17  1  0.96856300  0.22942500  0.00504300  1
loop_
_geom_bond_atom_site_label_1
_geom_bond_atom_site_label_2
_geom_bond_distance
_geom_bond_site_symmetry_2
Cu0 O13 1.863146 1_556
Cu0 O1 1.866398 1_555
Cu1 O14 1.863146 1_455
Cu1 O5 1.866398 1_555
Cu2 O8 1.863146 1_545
Cu2 O6 1.866398 1_555
Cu3 O9 1.863146 1_565
Cu3 O11 1.866398 1_555
Cu4 O3 1.863146 1_655
Cu4 O12 1.866398 1_555
Cu5 O4 1.863146 1_554
Cu5 O16 1.866398 1_555
O0 P2 1.601557 1_556
O0 P0 1.606404 1_555
O1 P3 1.502902 1_455
O2 P0 1.601557 1_545
O2 P1 1.606404 1_555
O3 P0 1.507269 1_555
O4 P1 1.507269 1_555
O5 P1 1.502902 1_565
O6 P5 1.502902 1_556
O7 P4 1.601556 1_455
O7 P2 1.606403 1_555
O8 P2 1.507269 1_555
O9 P3 1.507269 1_555
O10 P1 1.601561 1_655
O10 P3 1.606395 1_555
O11 P0 1.502902 1_554
O12 P4 1.502902 1_545
O13 P4 1.507269 1_555
O14 P5 1.507269 1_555
O15 P5 1.601557 1_565
O15 P4 1.606404 1_555
O16 P2 1.502902 1_655
O17 P3 1.601557 1_554
O17 P5 1.606404 1_555
