# generated using pymatgen
data_Li4V3Ni2Sn3O16
_symmetry_space_group_name_H-M   'P 1'
_cell_length_a   6.08889500
_cell_length_b   6.09649018
_cell_length_c   9.78602589
_cell_angle_alpha   90.48993484
_cell_angle_beta   89.83796662
_cell_angle_gamma   119.79418567
_symmetry_Int_Tables_number   1
_chemical_formula_structural   Li4V3Ni2Sn3O16
_chemical_formula_sum   'Li4 V3 Ni2 Sn3 O16'
_cell_volume   315.23603588
_cell_formula_units_Z   1
loop_
 _symmetry_equiv_pos_site_id
 _symmetry_equiv_pos_as_xyz
  1  'x, y, z'
loop_
 _atom_site_type_symbol
 _atom_site_label
 _atom_site_symmetry_multiplicity
 _atom_site_fract_x
 _atom_site_fract_y
 _atom_site_fract_z
 _atom_site_occupancy
  Li  Li0  1  0.32508900  0.65199500  0.88728400  1
  Li  Li1  1  0.01009600  0.02670700  0.99504200  1
  Li  Li2  1  0.00738200  0.01781200  0.50145600  1
  Li  Li3  1  0.66036300  0.32698800  0.39378600  1
  V  V0  1  0.16649400  0.33710800  0.21614000  1
  V  V1  1  0.33430700  0.17404200  0.71142900  1
  V  V2  1  0.81391600  0.15642300  0.71915900  1
  Ni  Ni0  1  0.33857900  0.66424600  0.49089300  1
  Ni  Ni1  1  0.67422400  0.33564600  0.98818300  1
  Sn  Sn0  1  0.66076000  0.82968200  0.21530000  1
  Sn  Sn1  1  0.16869000  0.83093100  0.21384600  1
  Sn  Sn2  1  0.83339600  0.65752000  0.71352100  1
  O  O0  1  0.68495500  0.84553100  0.60258400  1
  O  O1  1  0.47620300  0.96369900  0.34108600  1
  O  O2  1  0.32780900  0.65411500  0.09765400  1
  O  O3  1  0.00464200  0.01088500  0.31857700  1
  O  O4  1  0.00276200  0.00908800  0.81269600  1
  O  O5  1  0.17909800  0.86323400  0.60468400  1
  O  O6  1  0.47680400  0.51013100  0.33577800  1
  O  O7  1  0.03563400  0.49866600  0.33242000  1
  O  O8  1  0.84808900  0.68998000  0.09280400  1
  O  O9  1  0.15298600  0.31686800  0.61329600  1
  O  O10  1  0.96208100  0.47336700  0.83489700  1
  O  O11  1  0.49788300  0.45296900  0.83296200  1
  O  O12  1  0.66093300  0.31737300  0.60205600  1
  O  O13  1  0.84666400  0.17014700  0.10559900  1
  O  O14  1  0.53212800  0.03452300  0.82757300  1
  O  O15  1  0.31832900  0.18032300  0.10713900  1
loop_
_geom_bond_atom_site_label_1
_geom_bond_atom_site_label_2
_geom_bond_distance
_geom_bond_site_symmetry_2
Li0 O10 1.984707 1_455
Li0 O11 2.028858 1_555
Li0 O2 2.058678 1_556
Li0 O14 2.113477 1_565
Li1 O4 1.786106 1_555
Li1 O13 1.941144 1_456
Li1 O15 1.962187 1_556
Li1 O8 2.029382 1_446
Li2 O3 1.789725 1_555
Li2 O9 1.916492 1_555
Li2 O0 1.973430 1_445
Li2 O5 2.000802 1_545
Li3 O1 1.986035 1_545
Li3 O6 2.018079 1_555
Li3 O12 2.039542 1_555
Li3 O7 2.074506 1_655
Ni0 O0 2.130774 1_555
Ni0 O6 2.156283 1_555
Ni0 O1 2.168593 1_555
Ni0 O5 2.190007 1_555
Ni0 O9 2.203243 1_555
Ni0 O7 2.228353 1_555
Ni1 O13 2.126066 1_556
Ni1 O8 2.128627 1_556
Ni1 O10 2.138087 1_555
Ni1 O11 2.182392 1_555
Ni1 O15 2.216552 1_556
Ni1 O14 2.229117 1_555
O0 V2 1.999862 1_565
O0 Sn2 2.089423 1_555
O1 Sn1 2.049726 1_555
O1 Sn0 2.081580 1_555
O2 V0 2.046878 1_555
O2 Sn1 2.098635 1_555
O2 Sn0 2.101615 1_555
O3 V0 2.003058 1_555
O3 Sn1 2.077443 1_545
O3 Sn0 2.078525 1_445
O4 V2 2.003320 1_455
O4 V1 2.014190 1_555
O4 Sn2 2.091127 1_445
O5 V1 1.940852 1_565
O5 Sn2 2.127149 1_455
O6 V0 2.015976 1_555
O6 Sn0 2.074416 1_555
O7 V0 1.911922 1_555
O7 Sn1 2.123693 1_555
O8 Sn1 2.069027 1_655
O8 Sn0 2.098482 1_555
O9 V1 1.968496 1_555
O9 V2 2.071425 1_455
O10 V2 2.016506 1_555
O10 Sn2 2.046336 1_555
O11 V1 1.893968 1_555
O11 Sn2 2.138805 1_555
O12 V2 2.019243 1_555
O12 V1 2.035040 1_555
O12 Sn2 2.096797 1_555
O13 V0 2.005464 1_655
O13 Sn0 2.106757 1_545
O14 V2 1.832433 1_555
O14 V1 2.123343 1_555
O15 V0 1.939413 1_555
O15 Sn1 2.135824 1_545
