# generated using pymatgen
data_YScS3
_symmetry_space_group_name_H-M   'P 1'
_cell_length_a   6.38688086
_cell_length_b   7.00935017
_cell_length_c   9.52905468
_cell_angle_alpha   90.00000000
_cell_angle_beta   90.00000000
_cell_angle_gamma   90.00000000
_symmetry_Int_Tables_number   1
_chemical_formula_structural   YScS3
_chemical_formula_sum   'Y4 Sc4 S12'
_cell_volume   426.59561875
_cell_formula_units_Z   4
loop_
 _symmetry_equiv_pos_site_id
 _symmetry_equiv_pos_as_xyz
  1  'x, y, z'
loop_
 _atom_site_type_symbol
 _atom_site_label
 _atom_site_symmetry_multiplicity
 _atom_site_fract_x
 _atom_site_fract_y
 _atom_site_fract_z
 _atom_site_occupancy
  Y  Y0  1  0.45951062  0.10039840  0.25000000  1
  Y  Y1  1  0.54048938  0.89960160  0.75000000  1
  Y  Y2  1  0.04048938  0.60039840  0.25000000  1
  Y  Y3  1  0.95951062  0.39960160  0.75000000  1
  Sc  Sc0  1  -0.00000000  -0.00000000  0.50000000  1
  Sc  Sc1  1  -0.00000000  -0.00000000  0.00000000  1
  Sc  Sc2  1  0.50000000  0.50000000  0.50000000  1
  Sc  Sc3  1  0.50000000  0.50000000  0.00000000  1
  S  S0  1  0.14433078  0.04839842  0.75000000  1
  S  S1  1  0.85566922  0.95160158  0.25000000  1
  S  S2  1  0.35566922  0.54839842  0.75000000  1
  S  S3  1  0.64433078  0.45160158  0.25000000  1
  S  S4  1  0.17600039  0.31577638  0.42905200  1
  S  S5  1  0.82399961  0.68422362  0.92905200  1
  S  S6  1  0.32399961  0.81577638  0.42905200  1
  S  S7  1  0.67600039  0.18422362  0.92905200  1
  S  S8  1  0.67600039  0.18422362  0.57094800  1
  S  S9  1  0.32399961  0.81577638  0.07094800  1
  S  S10  1  0.82399961  0.68422362  0.57094800  1
  S  S11  1  0.17600039  0.31577638  0.07094800  1
loop_
_geom_bond_atom_site_label_1
_geom_bond_atom_site_label_2
_geom_bond_distance
_geom_bond_site_symmetry_2
S0 Sc0 2.576824 1_555
S0 Sc1 2.576824 1_556
S0 Y3 2.730091 1_455
S0 Y1 2.736747 1_545
S1 Sc0 2.576824 1_665
S1 Sc1 2.576824 1_665
S1 Y2 2.730091 1_655
S1 Y0 2.736747 1_565
S2 Sc3 2.576824 1_556
S2 Sc2 2.576824 1_555
S2 Y1 2.730091 1_555
S2 Y3 2.736747 1_455
S3 Sc3 2.576824 1_555
S3 Sc2 2.576824 1_555
S3 Y0 2.730091 1_555
S3 Y2 2.736747 1_655
S4 Sc2 2.531144 1_555
S4 Sc0 2.572885 1_555
S4 Y2 2.764104 1_555
S4 Y0 2.910151 1_555
S4 Y3 3.407412 1_455
S5 Sc3 2.531144 1_556
S5 Sc1 2.572885 1_666
S5 Y3 2.764104 1_555
S5 Y1 2.910151 1_555
S5 Y2 3.407412 1_656
S6 Sc0 2.531144 1_565
S6 Sc2 2.572885 1_555
S6 Y0 2.764104 1_565
S6 Y2 2.910151 1_555
S6 Y1 3.407412 1_555
S7 Sc1 2.531144 1_656
S7 Sc3 2.572885 1_556
S7 Y1 2.764104 1_545
S7 Y3 2.910151 1_555
S7 Y0 3.407412 1_556
S8 Sc0 2.531144 1_655
S8 Sc2 2.572885 1_555
S8 Y1 2.764104 1_545
S8 Y3 2.910151 1_555
S8 Y0 3.407412 1_555
S9 Sc1 2.531144 1_565
S9 Sc3 2.572885 1_555
S9 Y0 2.764104 1_565
S9 Y2 2.910151 1_555
S9 Y1 3.407412 1_554
S10 Sc2 2.531144 1_555
S10 Sc0 2.572885 1_665
S10 Y3 2.764104 1_555
S10 Y1 2.910151 1_555
S10 Y2 3.407412 1_655
S11 Sc3 2.531144 1_555
S11 Sc1 2.572885 1_555
S11 Y2 2.764104 1_555
S11 Y0 2.910151 1_555
S11 Y3 3.407412 1_454
