# generated using pymatgen
data_Sb4O5F2
_symmetry_space_group_name_H-M   'P 1'
_cell_length_a   5.29492100
_cell_length_b   6.06672800
_cell_length_c   13.61612987
_cell_angle_alpha   83.96802933
_cell_angle_beta   90.00000000
_cell_angle_gamma   90.00000000
_symmetry_Int_Tables_number   1
_chemical_formula_structural   Sb4O5F2
_chemical_formula_sum   'Sb8 O10 F4'
_cell_volume   434.96719519
_cell_formula_units_Z   2
loop_
 _symmetry_equiv_pos_site_id
 _symmetry_equiv_pos_as_xyz
  1  'x, y, z'
loop_
 _atom_site_type_symbol
 _atom_site_label
 _atom_site_symmetry_multiplicity
 _atom_site_fract_x
 _atom_site_fract_y
 _atom_site_fract_z
 _atom_site_occupancy
  Sb  Sb0  1  0.06792800  0.76241200  0.79850200  1
  Sb  Sb1  1  0.72514500  0.81746300  0.55901200  1
  Sb  Sb2  1  0.43207200  0.76241200  0.29850200  1
  Sb  Sb3  1  0.77485500  0.81746300  0.05901200  1
  Sb  Sb4  1  0.22514500  0.18253700  0.94098800  1
  Sb  Sb5  1  0.56792800  0.23758800  0.70149800  1
  Sb  Sb6  1  0.27485500  0.18253700  0.44098800  1
  Sb  Sb7  1  0.93207200  0.23758800  0.20149800  1
  O  O0  1  0.98394200  0.92721300  0.91739800  1
  O  O1  1  0.00000000  0.00000000  0.50000000  1
  O  O2  1  0.80677100  0.90478400  0.70756000  1
  O  O3  1  0.51605800  0.92721300  0.41739800  1
  O  O4  1  0.50000000  0.00000000  0.00000000  1
  O  O5  1  0.69322900  0.90478400  0.20756000  1
  O  O6  1  0.30677100  0.09521600  0.79244000  1
  O  O7  1  0.48394200  0.07278700  0.58260200  1
  O  O8  1  0.19322900  0.09521600  0.29244000  1
  O  O9  1  0.01605800  0.07278700  0.08260200  1
  F  F0  1  0.80042600  0.54163500  0.86060000  1
  F  F1  1  0.30042600  0.45836500  0.63940000  1
  F  F2  1  0.69957400  0.54163500  0.36060000  1
  F  F3  1  0.19957400  0.45836500  0.13940000  1
loop_
_geom_bond_atom_site_label_1
_geom_bond_atom_site_label_2
_geom_bond_distance
_geom_bond_site_symmetry_2
O0 Sb0 2.039212 1_655
O0 Sb4 2.058688 1_665
O0 Sb3 2.262135 1_556
O1 Sb6 1.950120 1_555
O1 Sb1 1.950120 1_445
O2 Sb0 1.991667 1_655
O2 Sb1 2.187176 1_555
O2 Sb5 2.376474 1_565
O3 Sb2 2.039212 1_555
O3 Sb6 2.058688 1_565
O3 Sb1 2.262135 1_555
O4 Sb3 1.950120 1_545
O4 Sb4 1.950120 1_554
O5 Sb2 1.991667 1_555
O5 Sb3 2.187176 1_555
O5 Sb7 2.376474 1_565
O6 Sb5 1.991667 1_555
O6 Sb4 2.187176 1_555
O6 Sb0 2.376474 1_545
O7 Sb5 2.039212 1_555
O7 Sb1 2.058688 1_545
O7 Sb6 2.262135 1_555
O8 Sb7 1.991667 1_455
O8 Sb6 2.187176 1_555
O8 Sb2 2.376474 1_545
O9 Sb7 2.039212 1_455
O9 Sb3 2.058688 1_445
O9 Sb4 2.262135 1_554
F0 Sb0 2.068111 1_655
F1 Sb5 2.068111 1_555
F2 Sb2 2.068111 1_555
F3 Sb7 2.068111 1_455
