# generated using pymatgen
data_Li2Cr(PO4)2
_symmetry_space_group_name_H-M   'P 1'
_cell_length_a   4.91109776
_cell_length_b   8.24105899
_cell_length_c   8.67842398
_cell_angle_alpha   114.77973195
_cell_angle_beta   103.73458721
_cell_angle_gamma   90.43149625
_symmetry_Int_Tables_number   1
_chemical_formula_structural   Li2Cr(PO4)2
_chemical_formula_sum   'Li4 Cr2 P4 O16'
_cell_volume   307.49010087
_cell_formula_units_Z   2
loop_
 _symmetry_equiv_pos_site_id
 _symmetry_equiv_pos_as_xyz
  1  'x, y, z'
loop_
 _atom_site_type_symbol
 _atom_site_label
 _atom_site_symmetry_multiplicity
 _atom_site_fract_x
 _atom_site_fract_y
 _atom_site_fract_z
 _atom_site_occupancy
  Li  Li0  1  0.13675900  0.91131400  0.69436500  1
  Li  Li1  1  0.38257500  0.61070700  0.40969300  1
  Li  Li2  1  0.61742500  0.38929300  0.59030700  1
  Li  Li3  1  0.86324100  0.08868600  0.30563500  1
  Cr  Cr0  1  0.27614600  0.76809700  0.05210500  1
  Cr  Cr1  1  0.72385400  0.23190300  0.94789500  1
  P  P0  1  0.14802600  0.32343900  0.75513700  1
  P  P1  1  0.30841000  0.19966200  0.18393100  1
  P  P2  1  0.69159000  0.80033800  0.81606900  1
  P  P3  1  0.85197400  0.67656100  0.24486300  1
  O  O0  1  0.01969200  0.83602400  0.87609100  1
  O  O1  1  0.11863900  0.51507000  0.88295300  1
  O  O2  1  0.02114400  0.72299700  0.43402100  1
  O  O3  1  0.99691100  0.81520800  0.19513300  1
  O  O4  1  0.46022400  0.28723900  0.76223500  1
  O  O5  1  0.56874200  0.96993800  0.80430800  1
  O  O6  1  0.57986900  0.74562800  0.94256600  1
  O  O7  1  0.59236900  0.64245700  0.63674500  1
  O  O8  1  0.40763100  0.35754300  0.36325500  1
  O  O9  1  0.42013100  0.25437200  0.05743400  1
  O  O10  1  0.43125800  0.03006200  0.19569200  1
  O  O11  1  0.53977600  0.71276100  0.23776500  1
  O  O12  1  0.00308900  0.18479200  0.80486700  1
  O  O13  1  0.97885600  0.27700300  0.56597900  1
  O  O14  1  0.88136100  0.48493000  0.11704700  1
  O  O15  1  0.98030800  0.16397600  0.12390900  1
loop_
_geom_bond_atom_site_label_1
_geom_bond_atom_site_label_2
_geom_bond_distance
_geom_bond_site_symmetry_2
Li0 O2 2.067352 1_555
Li0 O5 2.069190 1_555
Li0 O0 2.109077 1_555
Li0 O12 2.222489 1_565
Li1 O7 1.900637 1_555
Li1 O8 1.962897 1_555
Li1 O2 2.022509 1_555
Li1 O11 2.262464 1_555
Li2 O8 1.900637 1_555
Li2 O7 1.962897 1_555
Li2 O13 2.022509 1_555
Li2 O4 2.262464 1_555
Li3 O13 2.067352 1_555
Li3 O10 2.069190 1_555
Li3 O15 2.109077 1_555
Li3 O3 2.222489 1_545
Cr0 O6 1.921669 1_554
Cr0 O1 1.992976 1_554
Cr0 O3 1.996095 1_455
Cr0 O0 2.011672 1_554
Cr0 O10 2.015737 1_565
Cr0 O11 2.028440 1_555
Cr1 O9 1.921669 1_556
Cr1 O14 1.992976 1_556
Cr1 O12 1.996095 1_655
Cr1 O15 2.011672 1_556
Cr1 O5 2.015737 1_545
Cr1 O4 2.028440 1_555
O0 P2 1.555677 1_455
O1 P0 1.535014 1_555
O2 P3 1.533787 1_455
O3 P3 1.595442 1_555
O4 P0 1.555972 1_555
O5 P2 1.559158 1_555
O6 P2 1.551346 1_555
O7 P2 1.511701 1_555
O8 P1 1.511701 1_555
O9 P1 1.551346 1_555
O10 P1 1.559158 1_555
O11 P3 1.555972 1_555
O12 P0 1.595442 1_555
O13 P0 1.533787 1_655
O14 P3 1.535014 1_555
O15 P1 1.555677 1_655
