# generated using pymatgen
data_Na7(WO3)13
_symmetry_space_group_name_H-M   'P 1'
_cell_length_a   5.55038900
_cell_length_b   9.63349714
_cell_length_c   16.17129157
_cell_angle_alpha   101.35055922
_cell_angle_beta   99.79129737
_cell_angle_gamma   106.64631594
_symmetry_Int_Tables_number   1
_chemical_formula_structural   Na7(WO3)13
_chemical_formula_sum   'Na7 W13 O39'
_cell_volume   788.28070969
_cell_formula_units_Z   1
loop_
 _symmetry_equiv_pos_site_id
 _symmetry_equiv_pos_as_xyz
  1  'x, y, z'
loop_
 _atom_site_type_symbol
 _atom_site_label
 _atom_site_symmetry_multiplicity
 _atom_site_fract_x
 _atom_site_fract_y
 _atom_site_fract_z
 _atom_site_occupancy
  Na  Na0  1  0.84557400  0.15157000  0.53618100  1
  Na  Na1  1  0.69624500  0.30906500  0.08057000  1
  Na  Na2  1  0.46109300  0.53820400  0.38457300  1
  Na  Na3  1  0.61367600  0.38395700  0.84429400  1
  Na  Na4  1  0.22893600  0.76894700  0.68997200  1
  Na  Na5  1  0.07539500  0.92313400  0.23111700  1
  Na  Na6  1  0.30941900  0.69324500  0.92459000  1
  W  W0  1  0.30926600  0.19144900  0.42243400  1
  W  W1  1  0.92444700  0.57590600  0.26935600  1
  W  W2  1  0.38293100  0.11351900  0.65344100  1
  W  W3  1  0.46229100  0.03886200  0.88374000  1
  W  W4  1  0.84675100  0.65632700  0.04051500  1
  W  W5  1  0.23110800  0.27102700  0.19335900  1
  W  W6  1  0.77139000  0.73241500  0.80764100  1
  W  W7  1  0.07324000  0.41939300  0.72824700  1
  W  W8  1  0.69066900  0.80828500  0.57638300  1
  W  W9  1  0.61547700  0.88186400  0.34500500  1
  W  W10  1  0.15297600  0.34448400  0.96218500  1
  W  W11  1  0.53661200  0.96427000  0.11507400  1
  W  W12  1  0.00050200  0.50041900  0.49966200  1
  O  O0  1  0.89021200  0.10913800  0.15361400  1
  O  O1  1  0.96214700  0.04229100  0.38789300  1
  O  O2  1  0.38985600  0.11018100  0.15362900  1
  O  O3  1  0.46410800  0.04050600  0.38709500  1
  O  O4  1  0.26223400  0.22657700  0.31009000  1
  O  O5  1  0.34130200  0.15292600  0.53939700  1
  O  O6  1  0.42024900  0.07691900  0.76549000  1
  O  O7  1  0.73707700  0.27544900  0.69409500  1
  O  O8  1  0.50793100  0.00004700  0.00246000  1
  O  O9  1  0.56701400  0.41402100  0.22887900  1
  O  O10  1  0.18773600  0.30619300  0.07365900  1
  O  O11  1  0.88450600  0.61639000  0.15720900  1
  O  O12  1  0.64092500  0.34261100  0.46195700  1
  O  O13  1  0.81166000  0.20187000  0.92306700  1
  O  O14  1  0.95757000  0.54085400  0.38255800  1
  O  O15  1  0.92573800  0.57948400  0.77152100  1
  O  O16  1  0.77348200  0.73922400  0.30964400  1
  O  O17  1  0.31483400  0.19521000  0.92204400  1
  O  O18  1  0.84763400  0.65063000  0.53788400  1
  O  O19  1  0.14691400  0.34485500  0.46310300  1
  O  O20  1  0.23264200  0.27597600  0.69481600  1
  O  O21  1  0.69540000  0.80608600  0.07691200  1
  O  O22  1  0.06830600  0.41823300  0.22915000  1
  O  O23  1  0.04257900  0.46481100  0.61925500  1
  O  O24  1  0.72729200  0.76642000  0.69142900  1
  O  O25  1  0.65869000  0.84762800  0.46141000  1
  O  O26  1  0.58880200  0.92756500  0.23301200  1
  O  O27  1  0.11956500  0.39230400  0.84733200  1
  O  O28  1  0.41998800  0.58316300  0.77181900  1
  O  O29  1  0.49338600  0.49434000  0.99657000  1
  O  O30  1  0.79972900  0.68926800  0.91939100  1
  O  O31  1  0.27936800  0.73949500  0.30938300  1
  O  O32  1  0.20719900  0.80851800  0.07985600  1
  O  O33  1  0.35723200  0.65332600  0.53648100  1
  O  O34  1  0.53838600  0.95567800  0.61300700  1
  O  O35  1  0.99499000  0.50077500  0.99776800  1
  O  O36  1  0.60630800  0.88304800  0.84429300  1
  O  O37  1  0.03044000  0.95299200  0.61330900  1
  O  O38  1  0.10933600  0.87789000  0.84348400  1
loop_
_geom_bond_atom_site_label_1
_geom_bond_atom_site_label_2
_geom_bond_distance
_geom_bond_site_symmetry_2
Na0 O1 2.683584 1_555
Na0 O3 2.718593 1_555
Na0 O19 2.723094 1_655
Na0 O5 2.739344 1_655
Na0 O25 2.747919 1_545
Na0 O12 2.778754 1_555
Na0 O34 2.794941 1_545
Na0 O37 2.810082 1_645
Na0 O5 2.811928 1_555
Na0 O7 2.836067 1_555
Na0 O20 2.841294 1_655
Na0 O23 2.849665 1_655
Na1 O22 2.686478 1_655
Na1 O9 2.708316 1_555
Na1 O10 2.756950 1_655
Na1 O2 2.768811 1_555
Na1 O11 2.781352 1_555
Na1 O10 2.797514 1_555
Na1 O8 2.799683 1_555
Na1 O13 2.804058 1_554
Na1 O29 2.807876 1_554
Na1 O0 2.813312 1_555
Na1 O35 2.815549 1_554
Na1 O17 2.823754 1_554
Na2 O33 2.715225 1_555
Na2 O14 2.754239 1_555
Na2 O12 2.773713 1_555
Na2 O18 2.779434 1_555
Na2 O14 2.796884 1_455
Na2 O9 2.799423 1_555
Na2 O25 2.799594 1_555
Na2 O31 2.808491 1_555
Na2 O4 2.812030 1_555
Na2 O16 2.817654 1_555
Na2 O19 2.818931 1_555
Na2 O22 2.820484 1_555
Na3 O20 2.721945 1_555
Na3 O13 2.723066 1_555
Na3 O7 2.727276 1_555
Na3 O17 2.742182 1_555
Na3 O29 2.752392 1_555
Na3 O30 2.760306 1_555
Na3 O15 2.762174 1_555
Na3 O35 2.766755 1_555
Na3 O27 2.775040 1_555
Na3 O27 2.777633 1_655
Na3 O6 2.785155 1_555
Na3 O28 2.801937 1_555
Na4 O37 2.722878 1_555
Na4 O23 2.739432 1_555
Na4 O18 2.751596 1_455
Na4 O34 2.751959 1_555
Na4 O28 2.760785 1_555
Na4 O38 2.763870 1_555
Na4 O36 2.765252 1_555
Na4 O24 2.769283 1_555
Na4 O24 2.781598 1_455
Na4 O6 2.783695 1_565
Na4 O15 2.800886 1_455
Na4 O33 2.806439 1_555
Na5 O0 2.709077 1_465
Na5 O26 2.718577 1_455
Na5 O16 2.732765 1_455
Na5 O31 2.748591 1_555
Na5 O4 2.755878 1_565
Na5 O11 2.769208 1_455
Na5 O21 2.771306 1_455
Na5 O2 2.773852 1_565
Na5 O32 2.783159 1_555
Na5 O3 2.815038 1_565
Na5 O1 2.819616 1_465
Na5 O26 2.832512 1_555
Na6 O27 2.729911 1_555
Na6 O28 2.731650 1_555
Na6 O30 2.747891 1_555
Na6 O35 2.756125 1_455
Na6 O32 2.758154 1_556
Na6 O21 2.766911 1_556
Na6 O29 2.768362 1_555
Na6 O15 2.768672 1_455
Na6 O38 2.769890 1_555
Na6 O36 2.771445 1_555
Na6 O8 2.780741 1_566
Na6 O30 2.804887 1_455
O0 W11 1.964768 1_545
O0 W5 1.981561 1_655
O1 W0 1.954643 1_655
O1 W9 1.998085 1_545
O2 W11 1.873974 1_545
O2 W5 2.042796 1_555
O3 W0 1.932767 1_555
O3 W9 2.006354 1_545
O4 W0 1.901195 1_555
O4 W5 2.006546 1_555
O5 W2 1.944126 1_555
O5 W0 1.986608 1_555
O6 W2 1.901617 1_555
O6 W3 2.004691 1_555
O7 W7 1.890759 1_655
O7 W2 2.032106 1_555
O8 W11 1.908004 1_545
O8 W3 2.015258 1_554
O9 W5 1.885847 1_555
O9 W1 2.044581 1_555
O10 W10 1.899255 1_554
O10 W5 2.016438 1_555
O11 W1 1.918711 1_555
O11 W4 1.987592 1_555
O12 W0 1.901423 1_555
O12 W12 2.036918 1_655
O13 W10 1.906758 1_655
O13 W3 2.018289 1_555
O14 W1 1.914006 1_555
O14 W12 1.996187 1_655
O15 W6 1.949403 1_555
O15 W7 2.007958 1_655
O16 W9 1.880429 1_555
O16 W1 2.034552 1_555
O17 W3 1.957948 1_555
O17 W10 1.966583 1_555
O18 W12 1.930201 1_655
O18 W8 2.005905 1_555
O19 W12 1.941182 1_555
O19 W0 2.002624 1_555
O20 W7 1.884909 1_555
O20 W2 2.029389 1_555
O21 W4 1.913584 1_555
O21 W11 2.015947 1_555
O22 W5 1.936881 1_555
O22 W1 1.962189 1_455
O23 W7 1.889746 1_555
O23 W12 2.016402 1_555
O24 W6 1.957243 1_555
O24 W8 1.969495 1_555
O25 W8 1.958491 1_555
O25 W9 1.961108 1_555
O26 W9 1.937970 1_555
O26 W11 1.995651 1_555
O27 W7 1.977525 1_555
O27 W10 1.991191 1_555
O28 W6 1.971853 1_555
O28 W7 2.012748 1_555
O29 W10 1.930573 1_555
O29 W4 2.030479 1_556
O30 W6 1.923466 1_555
O30 W4 2.030688 1_556
O31 W9 1.884335 1_555
O31 W1 2.041905 1_455
O32 W11 1.912155 1_555
O32 W4 2.018972 1_455
O33 W8 1.923995 1_555
O33 W12 2.006864 1_555
O34 W8 1.899518 1_555
O34 W2 2.009065 1_565
O35 W4 1.972931 1_556
O35 W10 1.988457 1_655
O36 W3 1.944980 1_565
O36 W6 1.975992 1_555
O37 W8 1.907748 1_455
O37 W2 2.019920 1_565
O38 W6 1.903356 1_455
O38 W3 2.023544 1_565
