# generated using pymatgen
data_Li4Co2Si3O10
_symmetry_space_group_name_H-M   'P 1'
_cell_length_a   5.36194098
_cell_length_b   5.36194098
_cell_length_c   17.08429102
_cell_angle_alpha   82.51298227
_cell_angle_beta   82.51298227
_cell_angle_gamma   60.60825902
_symmetry_Int_Tables_number   1
_chemical_formula_structural   Li4Co2Si3O10
_chemical_formula_sum   'Li8 Co4 Si6 O20'
_cell_volume   423.05579869
_cell_formula_units_Z   2
loop_
 _symmetry_equiv_pos_site_id
 _symmetry_equiv_pos_as_xyz
  1  'x, y, z'
loop_
 _atom_site_type_symbol
 _atom_site_label
 _atom_site_symmetry_multiplicity
 _atom_site_fract_x
 _atom_site_fract_y
 _atom_site_fract_z
 _atom_site_occupancy
  Li  Li0  1  0.82717000  0.68421200  0.94836200  1
  Li  Li1  1  0.57869300  0.78594600  0.77146900  1
  Li  Li2  1  0.68421200  0.82717000  0.44836200  1
  Li  Li3  1  0.78594600  0.57869300  0.27146900  1
  Li  Li4  1  0.21405400  0.42130700  0.72853100  1
  Li  Li5  1  0.31578800  0.17283000  0.55163800  1
  Li  Li6  1  0.42130700  0.21405400  0.22853100  1
  Li  Li7  1  0.17283000  0.31578800  0.05163800  1
  Co  Co0  1  0.18777900  0.01898500  0.91340200  1
  Co  Co1  1  0.01898500  0.18777900  0.41340200  1
  Co  Co2  1  0.98101500  0.81222100  0.58659800  1
  Co  Co3  1  0.81222100  0.98101500  0.08659800  1
  Si  Si0  1  0.66217800  0.46730400  0.59760900  1
  Si  Si1  1  0.88149600  0.11850400  0.75000000  1
  Si  Si2  1  0.53269600  0.33782200  0.90239100  1
  Si  Si3  1  0.46730400  0.66217800  0.09760900  1
  Si  Si4  1  0.11850400  0.88149600  0.25000000  1
  Si  Si5  1  0.33782200  0.53269600  0.40239100  1
  O  O0  1  0.91759100  0.84148500  0.71112100  1
  O  O1  1  0.84148500  0.91759100  0.21112100  1
  O  O2  1  0.63155600  0.77945000  0.56472000  1
  O  O3  1  0.54856100  0.63868500  0.89280500  1
  O  O4  1  0.77713000  0.41380500  0.68855900  1
  O  O5  1  0.79249800  0.07561800  0.95164000  1
  O  O6  1  0.92438200  0.20750200  0.54836000  1
  O  O7  1  0.77945000  0.63155600  0.06472000  1
  O  O8  1  0.63868500  0.54856100  0.39280500  1
  O  O9  1  0.58619500  0.22287000  0.81144100  1
  O  O10  1  0.41380500  0.77713000  0.18855900  1
  O  O11  1  0.36131500  0.45143900  0.60719500  1
  O  O12  1  0.22055000  0.36844400  0.93528000  1
  O  O13  1  0.07561800  0.79249800  0.45164000  1
  O  O14  1  0.20750200  0.92438200  0.04836000  1
  O  O15  1  0.22287000  0.58619500  0.31144100  1
  O  O16  1  0.45143900  0.36131500  0.10719500  1
  O  O17  1  0.36844400  0.22055000  0.43528000  1
  O  O18  1  0.15851500  0.08240900  0.78887900  1
  O  O19  1  0.08240900  0.15851500  0.28887900  1
loop_
_geom_bond_atom_site_label_1
_geom_bond_atom_site_label_2
_geom_bond_distance
_geom_bond_site_symmetry_2
Li0 O12 1.958583 1_655
Li0 O7 1.972054 1_556
Li0 O3 1.994999 1_555
Li0 O5 2.021675 1_565
Li1 O18 2.030886 1_565
Li1 O0 2.101571 1_555
Li1 O3 2.134957 1_555
Li1 O4 2.319467 1_555
Li1 O9 2.544224 1_565
Li2 O17 1.958583 1_565
Li2 O2 1.972054 1_555
Li2 O8 1.994999 1_555
Li2 O13 2.021675 1_655
Li3 O19 2.030886 1_655
Li3 O1 2.101571 1_555
Li3 O8 2.134957 1_555
Li3 O10 2.319467 1_555
Li3 O15 2.544224 1_655
Li4 O0 2.030886 1_455
Li4 O18 2.101571 1_555
Li4 O11 2.134957 1_555
Li4 O9 2.319467 1_555
Li4 O4 2.544224 1_455
Li5 O2 1.958583 1_545
Li5 O17 1.972054 1_555
Li5 O11 1.994999 1_555
Li5 O6 2.021675 1_455
Li6 O1 2.030886 1_545
Li6 O19 2.101571 1_555
Li6 O16 2.134957 1_555
Li6 O15 2.319467 1_555
Li6 O10 2.544224 1_545
Li7 O7 1.958583 1_455
Li7 O12 1.972054 1_554
Li7 O16 1.994999 1_555
Li7 O14 2.021675 1_545
Co0 O5 2.017492 1_455
Co0 O3 2.040059 1_545
Co0 O12 2.050473 1_555
Co0 O18 2.124176 1_555
Co0 O14 2.300145 1_546
Co1 O13 2.017492 1_545
Co1 O8 2.040059 1_455
Co1 O17 2.050473 1_555
Co1 O19 2.124176 1_555
Co1 O6 2.300145 1_455
Co2 O6 2.017492 1_565
Co2 O11 2.040059 1_655
Co2 O2 2.050473 1_555
Co2 O0 2.124176 1_555
Co2 O13 2.300145 1_655
Co3 O14 2.017492 1_655
Co3 O16 2.040059 1_565
Co3 O7 2.050473 1_555
Co3 O1 2.124176 1_555
Co3 O5 2.300145 1_564
O0 Si1 1.620610 1_565
O1 Si4 1.620610 1_655
O2 Si0 1.628863 1_555
O3 Si2 1.642779 1_555
O4 Si1 1.665025 1_555
O4 Si0 1.684167 1_555
O5 Si2 1.643138 1_555
O6 Si0 1.643138 1_555
O7 Si3 1.628863 1_555
O8 Si5 1.642779 1_555
O9 Si1 1.665025 1_555
O9 Si2 1.684167 1_555
O10 Si4 1.665025 1_555
O10 Si3 1.684167 1_555
O11 Si0 1.642779 1_555
O12 Si2 1.628863 1_555
O13 Si5 1.643138 1_555
O14 Si3 1.643138 1_555
O15 Si4 1.665025 1_555
O15 Si5 1.684167 1_555
O16 Si3 1.642779 1_555
O17 Si5 1.628863 1_555
O18 Si1 1.620610 1_455
O19 Si4 1.620610 1_545
