# generated using pymatgen
data_LiFe2O3F
_symmetry_space_group_name_H-M   'P 1'
_cell_length_a   7.98815419
_cell_length_b   7.98815419
_cell_length_c   5.99067833
_cell_angle_alpha   68.37663954
_cell_angle_beta   68.37663954
_cell_angle_gamma   64.28189792
_symmetry_Int_Tables_number   1
_chemical_formula_structural   LiFe2O3F
_chemical_formula_sum   'Li4 Fe8 O12 F4'
_cell_volume   310.07579738
_cell_formula_units_Z   4
loop_
 _symmetry_equiv_pos_site_id
 _symmetry_equiv_pos_as_xyz
  1  'x, y, z'
loop_
 _atom_site_type_symbol
 _atom_site_label
 _atom_site_symmetry_multiplicity
 _atom_site_fract_x
 _atom_site_fract_y
 _atom_site_fract_z
 _atom_site_occupancy
  Li  Li0  1  0.01172500  0.25110900  0.10139800  1
  Li  Li1  1  0.73676200  0.99621700  0.39345600  1
  Li  Li2  1  0.25110900  0.01172500  0.60139800  1
  Li  Li3  1  0.99621700  0.73676200  0.89345600  1
  Fe  Fe0  1  0.76540500  0.22162600  0.77140000  1
  Fe  Fe1  1  0.00986700  0.50365900  0.50472600  1
  Fe  Fe2  1  0.50365900  0.00986700  0.00472600  1
  Fe  Fe3  1  0.37051900  0.37526800  0.13712900  1
  Fe  Fe4  1  0.64179900  0.61290100  0.86425600  1
  Fe  Fe5  1  0.61290100  0.64179900  0.36425600  1
  Fe  Fe6  1  0.37526800  0.37051900  0.63712900  1
  Fe  Fe7  1  0.22162600  0.76540500  0.27140000  1
  O  O0  1  0.87005100  0.37983200  0.84183300  1
  O  O1  1  0.61459700  0.13919900  0.65504400  1
  O  O2  1  0.61566000  0.14051500  0.10972700  1
  O  O3  1  0.52229200  0.48652400  0.74165100  1
  O  O4  1  0.74792200  0.71669100  0.50789700  1
  O  O5  1  0.27528800  0.25585700  0.99080800  1
  O  O6  1  0.71669100  0.74792200  0.00789700  1
  O  O7  1  0.25585700  0.27528800  0.49080800  1
  O  O8  1  0.48652400  0.52229200  0.24165100  1
  O  O9  1  0.13919900  0.61459700  0.15504400  1
  O  O10  1  0.37983200  0.87005100  0.34183300  1
  O  O11  1  0.14051500  0.61566000  0.60972700  1
  F  F0  1  0.99896800  0.99707300  0.24689700  1
  F  F1  1  0.87046000  0.37221000  0.38377700  1
  F  F2  1  0.37221000  0.87046000  0.88377700  1
  F  F3  1  0.99707300  0.99896800  0.74689700  1
loop_
_geom_bond_atom_site_label_1
_geom_bond_atom_site_label_2
_geom_bond_distance
_geom_bond_site_symmetry_2
Li0 O0 1.965866 1_454
Li0 O5 1.973771 1_554
Li1 O1 1.984272 1_565
Li1 O2 1.988388 1_565
Li1 O4 2.051304 1_555
Li2 O10 1.965866 1_545
Li2 O7 1.973771 1_555
Li3 O9 1.984272 1_656
Li3 O11 1.988388 1_655
Li3 O6 2.051304 1_556
Fe0 O2 1.968905 1_556
Fe0 O1 2.004053 1_555
Fe0 O0 2.010907 1_555
Fe0 O3 2.165988 1_555
Fe1 O11 1.998567 1_555
Fe1 O9 2.018006 1_555
Fe1 O7 2.019005 1_555
Fe1 O0 2.031853 1_455
Fe1 O4 2.044208 1_455
Fe2 O2 1.998567 1_555
Fe2 O1 2.018006 1_554
Fe2 O5 2.019005 1_554
Fe2 O10 2.031853 1_545
Fe2 O6 2.044208 1_545
Fe3 O7 1.980771 1_555
Fe3 O5 1.998594 1_554
Fe3 O9 2.005003 1_555
Fe3 O2 2.044768 1_555
Fe3 O8 2.131733 1_555
Fe3 O3 2.266961 1_554
Fe4 O0 1.966325 1_555
Fe4 O6 1.971073 1_556
Fe4 O4 1.983745 1_555
Fe4 O3 2.090356 1_555
Fe4 O8 2.163374 1_556
Fe5 O10 1.966325 1_555
Fe5 O4 1.971073 1_555
Fe5 O6 1.983745 1_555
Fe5 O8 2.090356 1_555
Fe5 O3 2.163374 1_555
Fe6 O5 1.980771 1_555
Fe6 O7 1.998594 1_555
Fe6 O1 2.005003 1_555
Fe6 O11 2.044768 1_555
Fe6 O3 2.131733 1_555
Fe6 O8 2.266961 1_555
Fe7 O11 1.968905 1_555
Fe7 O9 2.004053 1_555
Fe7 O10 2.010907 1_555
Fe7 O8 2.165988 1_555
F0 Li0 1.923149 1_665
F0 Fe7 1.935282 1_655
F0 Li1 1.952096 1_555
F1 Li0 1.980562 1_655
F1 Fe0 2.219162 1_555
F1 Fe5 2.242916 1_555
F1 Fe1 2.244534 1_655
F2 Li2 1.980562 1_565
F2 Fe7 2.219162 1_556
F2 Fe4 2.242916 1_555
F2 Fe2 2.244534 1_566
F3 Li2 1.923149 1_665
F3 Fe0 1.935282 1_565
F3 Li3 1.952096 1_555
