# generated using pymatgen
data_LiMn3(PO4)4
_symmetry_space_group_name_H-M   'P 1'
_cell_length_a   5.91001000
_cell_length_b   4.80604700
_cell_length_c   9.85321851
_cell_angle_alpha   89.09743314
_cell_angle_beta   90.00000000
_cell_angle_gamma   90.00000000
_symmetry_Int_Tables_number   1
_chemical_formula_structural   LiMn3(PO4)4
_chemical_formula_sum   'Li1 Mn3 P4 O16'
_cell_volume   279.83398439
_cell_formula_units_Z   1
loop_
 _symmetry_equiv_pos_site_id
 _symmetry_equiv_pos_as_xyz
  1  'x, y, z'
loop_
 _atom_site_type_symbol
 _atom_site_label
 _atom_site_symmetry_multiplicity
 _atom_site_fract_x
 _atom_site_fract_y
 _atom_site_fract_z
 _atom_site_occupancy
  Li  Li0  1  0.50000000  0.95586100  0.72960900  1
  Mn  Mn0  1  0.00000000  0.06418100  0.27932800  1
  Mn  Mn1  1  0.00000000  0.46521200  0.77538100  1
  Mn  Mn2  1  0.50000000  0.55110600  0.21467900  1
  P  P0  1  0.50000000  0.08144300  0.40298200  1
  P  P1  1  0.50000000  0.42059600  0.90734400  1
  P  P2  1  0.00000000  0.59269800  0.09141700  1
  P  P3  1  0.00000000  0.90291000  0.60008300  1
  O  O0  1  0.50000000  0.13412700  0.55146500  1
  O  O1  1  0.29819800  0.23449300  0.32542400  1
  O  O2  1  0.70180200  0.23449300  0.32542400  1
  O  O3  1  0.00000000  0.21750200  0.62299900  1
  O  O4  1  0.00000000  0.27503100  0.11146100  1
  O  O5  1  0.50000000  0.32239000  0.05932500  1
  O  O6  1  0.28968800  0.28722700  0.83613900  1
  O  O7  1  0.71031200  0.28722700  0.83613900  1
  O  O8  1  0.00000000  0.67300800  0.93999600  1
  O  O9  1  0.79763800  0.73461400  0.16631900  1
  O  O10  1  0.20236200  0.73461400  0.16631900  1
  O  O11  1  0.50000000  0.73489100  0.89707900  1
  O  O12  1  0.50000000  0.76712900  0.37521000  1
  O  O13  1  0.80299500  0.74102400  0.67240600  1
  O  O14  1  0.19700500  0.74102400  0.67240600  1
  O  O15  1  0.00000000  0.85308200  0.44595100  1
loop_
_geom_bond_atom_site_label_1
_geom_bond_atom_site_label_2
_geom_bond_distance
_geom_bond_site_symmetry_2
Li0 O0 1.941056 1_565
Li0 O11 1.948207 1_555
Li0 O13 2.146795 1_555
Li0 O14 2.146795 1_555
Li0 O7 2.288148 1_565
Li0 O6 2.288148 1_565
Mn0 O15 1.916314 1_545
Mn0 O4 1.926110 1_555
Mn0 O2 1.998470 1_455
Mn0 O1 1.998470 1_555
Mn0 O9 2.287916 1_445
Mn0 O10 2.287916 1_545
Mn1 O8 1.918132 1_555
Mn1 O3 1.930798 1_555
Mn1 O7 2.001281 1_455
Mn1 O6 2.001281 1_555
Mn1 O13 2.024805 1_455
Mn1 O14 2.024805 1_555
Mn2 O5 1.898539 1_555
Mn2 O12 1.905664 1_555
Mn2 O9 2.021356 1_555
Mn2 O10 2.021356 1_555
Mn2 O2 2.208224 1_555
Mn2 O1 2.208224 1_555
O0 P0 1.488709 1_555
O1 P0 1.590522 1_555
O2 P0 1.590522 1_555
O3 P3 1.532225 1_545
O4 P2 1.536355 1_555
O5 P1 1.563014 1_554
O6 P1 1.569132 1_555
O7 P1 1.569132 1_555
O8 P2 1.535204 1_556
O9 P2 1.567183 1_655
O10 P2 1.567183 1_555
O11 P1 1.512309 1_555
O12 P0 1.539428 1_565
O13 P3 1.565658 1_655
O14 P3 1.565658 1_555
O15 P3 1.541183 1_555
