# generated using pymatgen
data_Li2Ti3CrO8
_symmetry_space_group_name_H-M   'P 1'
_cell_length_a   6.00124487
_cell_length_b   10.34972481
_cell_length_c   10.31781496
_cell_angle_alpha   99.57989439
_cell_angle_beta   106.70310427
_cell_angle_gamma   89.59733035
_symmetry_Int_Tables_number   1
_chemical_formula_structural   Li2Ti3CrO8
_chemical_formula_sum   'Li8 Ti12 Cr4 O32'
_cell_volume   604.68761101
_cell_formula_units_Z   4
loop_
 _symmetry_equiv_pos_site_id
 _symmetry_equiv_pos_as_xyz
  1  'x, y, z'
loop_
 _atom_site_type_symbol
 _atom_site_label
 _atom_site_symmetry_multiplicity
 _atom_site_fract_x
 _atom_site_fract_y
 _atom_site_fract_z
 _atom_site_occupancy
  Li  Li0  1  0.25062900  0.75024400  0.50009400  1
  Li  Li1  1  0.00062700  0.00019800  0.00009900  1
  Li  Li2  1  0.75063600  0.25024000  0.50009500  1
  Li  Li3  1  0.50063100  0.50026000  0.00011200  1
  Li  Li4  1  0.81185000  0.93723700  0.62488800  1
  Li  Li5  1  0.56188400  0.18726100  0.12491300  1
  Li  Li6  1  0.31185700  0.43726500  0.62487500  1
  Li  Li7  1  0.06188600  0.68728800  0.12492000  1
  Ti  Ti0  1  0.28134900  0.09366200  0.56249000  1
  Ti  Ti1  1  0.03124000  0.34375300  0.06252400  1
  Ti  Ti2  1  0.78119700  0.59385000  0.56244000  1
  Ti  Ti3  1  0.53121400  0.84373100  0.06255800  1
  Ti  Ti4  1  0.40615200  0.96901300  0.81217000  1
  Ti  Ti5  1  0.15651200  0.21839700  0.31296600  1
  Ti  Ti6  1  0.90610600  0.46906700  0.81199800  1
  Ti  Ti7  1  0.65624000  0.71851300  0.31286700  1
  Ti  Ti8  1  0.15644300  0.21836800  0.81176100  1
  Ti  Ti9  1  0.90602800  0.46917000  0.31326700  1
  Ti  Ti10  1  0.65637400  0.71851500  0.81182500  1
  Ti  Ti11  1  0.40615300  0.96895100  0.31315100  1
  Cr  Cr0  1  0.65595700  0.21855600  0.81233100  1
  Cr  Cr1  1  0.90659800  0.96895200  0.31266500  1
  Cr  Cr2  1  0.40646700  0.46891700  0.31264800  1
  Cr  Cr3  1  0.15599600  0.71858700  0.81237900  1
  O  O0  1  0.12093900  0.04029200  0.69420100  1
  O  O1  1  0.87123300  0.29051500  0.19355200  1
  O  O2  1  0.62107900  0.54025100  0.69421000  1
  O  O3  1  0.37105400  0.79038700  0.19351300  1
  O  O4  1  0.19125700  0.39704400  0.93145000  1
  O  O5  1  0.94155500  0.64719500  0.43082300  1
  O  O6  1  0.69136800  0.89702000  0.93139600  1
  O  O7  1  0.44150700  0.14729200  0.43083900  1
  O  O8  1  0.56923000  0.03915400  0.69314100  1
  O  O9  1  0.31842100  0.28935200  0.19269200  1
  O  O10  1  0.06911800  0.53916600  0.69311800  1
  O  O11  1  0.81858000  0.78933600  0.19276300  1
  O  O12  1  0.34343000  0.26516500  0.69323300  1
  O  O13  1  0.09310400  0.51459700  0.19257000  1
  O  O14  1  0.84350200  0.76512700  0.69314400  1
  O  O15  1  0.59323200  0.01466200  0.19262300  1
  O  O16  1  0.45573200  0.15195300  0.91828900  1
  O  O17  1  0.20573400  0.40184800  0.41818600  1
  O  O18  1  0.95568800  0.65186600  0.91825300  1
  O  O19  1  0.70592900  0.90184000  0.41823200  1
  O  O20  1  0.85674000  0.28568300  0.70681100  1
  O  O21  1  0.60677300  0.53557100  0.20673000  1
  O  O22  1  0.35670000  0.78565700  0.70679900  1
  O  O23  1  0.10669500  0.03558000  0.20669200  1
  O  O24  1  0.96940600  0.17289000  0.93239700  1
  O  O25  1  0.71903300  0.42237800  0.43182800  1
  O  O26  1  0.46930900  0.67286700  0.93238800  1
  O  O27  1  0.21898500  0.92231300  0.43181400  1
  O  O28  1  0.74409500  0.39818600  0.93228100  1
  O  O29  1  0.49330500  0.64829500  0.43190000  1
  O  O30  1  0.24391200  0.89814300  0.93223300  1
  O  O31  1  0.99333000  0.14837700  0.43186600  1
loop_
_geom_bond_atom_site_label_1
_geom_bond_atom_site_label_2
_geom_bond_distance
_geom_bond_site_symmetry_2
Li0 O27 2.009927 1_555
Li0 O29 2.012387 1_555
Li0 O22 2.012671 1_555
Li0 O5 2.025031 1_455
Li1 O23 2.011584 1_555
Li1 O24 2.013249 1_454
Li1 O30 2.014304 1_544
Li1 O6 2.026571 1_444
Li2 O25 2.010541 1_555
Li2 O31 2.012235 1_555
Li2 O20 2.012783 1_555
Li2 O7 2.024805 1_555
Li3 O21 2.011826 1_555
Li3 O26 2.012516 1_554
Li3 O28 2.015107 1_554
Li3 O4 2.027324 1_554
Li4 O14 2.010211 1_555
Li4 O19 2.012184 1_555
Li4 O8 2.012245 1_565
Li4 O0 2.025135 1_665
Li5 O16 2.011885 1_554
Li5 O15 2.012368 1_555
Li5 O9 2.014932 1_555
Li5 O1 2.027388 1_555
Li6 O12 2.010615 1_555
Li6 O17 2.012521 1_555
Li6 O10 2.012706 1_555
Li6 O2 2.025450 1_555
Li7 O18 2.012314 1_454
Li7 O13 2.012988 1_555
Li7 O11 2.014263 1_455
Li7 O3 2.025737 1_555
Cr0 O8 2.028903 1_555
Cr0 O12 2.029824 1_555
Cr0 O16 2.032686 1_555
Cr0 O20 2.034095 1_555
Cr0 O24 2.034549 1_555
Cr0 O28 2.034576 1_555
Cr1 O31 2.029143 1_565
Cr1 O27 2.029498 1_655
Cr1 O23 2.032341 1_665
Cr1 O19 2.033885 1_555
Cr1 O11 2.034204 1_555
Cr1 O15 2.034231 1_565
Cr2 O29 2.029003 1_555
Cr2 O25 2.030080 1_555
Cr2 O21 2.032962 1_555
Cr2 O17 2.033751 1_555
Cr2 O9 2.034002 1_555
Cr2 O13 2.034257 1_555
Cr3 O10 2.029423 1_555
Cr3 O14 2.029975 1_455
Cr3 O18 2.032925 1_455
Cr3 O30 2.033453 1_555
Cr3 O26 2.033897 1_555
Cr3 O22 2.033956 1_555
O0 Ti8 2.006573 1_555
O0 Ti4 2.009727 1_545
O0 Ti0 2.021866 1_555
O1 Ti1 2.013692 1_655
O1 Ti5 2.020352 1_655
O1 Ti9 2.021188 1_555
O2 Ti6 2.007732 1_555
O2 Ti10 2.008482 1_555
O2 Ti2 2.022133 1_555
O3 Ti3 2.014092 1_555
O3 Ti7 2.018540 1_555
O3 Ti11 2.019961 1_555
O4 Ti1 2.014351 1_556
O4 Ti6 2.019548 1_455
O4 Ti8 2.021242 1_555
O5 Ti9 2.006115 1_555
O5 Ti7 2.010270 1_555
O5 Ti2 2.020728 1_555
O6 Ti3 2.015670 1_556
O6 Ti4 2.018668 1_555
O6 Ti10 2.019209 1_555
O7 Ti5 2.007594 1_555
O7 Ti11 2.009430 1_545
O7 Ti0 2.021370 1_555
O8 Ti4 1.997671 1_545
O8 Ti0 2.005220 1_555
O9 Ti1 1.999643 1_555
O9 Ti5 2.007455 1_555
O10 Ti6 1.995948 1_455
O10 Ti2 2.006217 1_455
O11 Ti3 2.000539 1_555
O11 Ti7 2.007096 1_555
O12 Ti8 1.995761 1_555
O12 Ti0 2.008140 1_555
O13 Ti1 1.999478 1_555
O13 Ti9 2.009551 1_455
O14 Ti10 1.997008 1_555
O14 Ti2 2.006141 1_555
O15 Ti3 2.000267 1_545
O15 Ti11 2.009141 1_545
O16 Ti4 2.000721 1_545
O16 Ti8 2.001476 1_555
O17 Ti9 2.001645 1_455
O17 Ti5 2.002066 1_555
O18 Ti6 1.999960 1_555
O18 Ti10 2.002266 1_555
O19 Ti7 2.001473 1_555
O19 Ti11 2.001583 1_555
O20 Ti6 2.001352 1_555
O20 Ti8 2.001709 1_655
O21 Ti7 2.000805 1_555
O21 Ti9 2.001296 1_555
O22 Ti10 2.001075 1_555
O22 Ti4 2.001753 1_555
O23 Ti5 2.000185 1_555
O23 Ti11 2.002926 1_545
O24 Ti1 2.000024 1_656
O24 Ti8 2.009043 1_655
O25 Ti9 1.996056 1_555
O25 Ti2 2.007255 1_555
O26 Ti3 2.000240 1_556
O26 Ti10 2.009151 1_555
O27 Ti11 1.997128 1_555
O27 Ti0 2.006581 1_565
O28 Ti1 1.999992 1_656
O28 Ti6 2.007577 1_555
O29 Ti7 1.997505 1_555
O29 Ti2 2.004472 1_555
O30 Ti3 2.000934 1_556
O30 Ti4 2.006580 1_555
O31 Ti5 1.996416 1_655
O31 Ti0 2.006471 1_655
