# generated using pymatgen
data_NaCdAs
_symmetry_space_group_name_H-M   'P 1'
_cell_length_a   4.46875016
_cell_length_b   7.54115798
_cell_length_c   8.07114626
_cell_angle_alpha   90.00000000
_cell_angle_beta   90.00000000
_cell_angle_gamma   90.00000000
_symmetry_Int_Tables_number   1
_chemical_formula_structural   NaCdAs
_chemical_formula_sum   'Na4 Cd4 As4'
_cell_volume   271.99400445
_cell_formula_units_Z   4
loop_
 _symmetry_equiv_pos_site_id
 _symmetry_equiv_pos_as_xyz
  1  'x, y, z'
loop_
 _atom_site_type_symbol
 _atom_site_label
 _atom_site_symmetry_multiplicity
 _atom_site_fract_x
 _atom_site_fract_y
 _atom_site_fract_z
 _atom_site_occupancy
  Na  Na0  1  0.25000000  0.51937708  0.32412410  1
  Na  Na1  1  0.75000000  0.48062292  0.67587590  1
  Na  Na2  1  0.25000000  0.01937708  0.17587590  1
  Na  Na3  1  0.75000000  0.98062292  0.82412410  1
  Cd  Cd0  1  0.75000000  0.84848640  0.42491564  1
  Cd  Cd1  1  0.75000000  0.34848640  0.07508436  1
  Cd  Cd2  1  0.25000000  0.65151360  0.92491564  1
  Cd  Cd3  1  0.25000000  0.15151360  0.57508436  1
  As  As0  1  0.25000000  0.77776949  0.60801190  1
  As  As1  1  0.75000000  0.72223051  0.10801190  1
  As  As2  1  0.75000000  0.22223051  0.39198810  1
  As  As3  1  0.25000000  0.27776949  0.89198810  1
loop_
_geom_bond_atom_site_label_1
_geom_bond_atom_site_label_2
_geom_bond_distance
_geom_bond_site_symmetry_2
Cd0 Na2 3.270086 1_565
Cd0 Na2 3.270086 1_665
Cd0 Na3 3.372636 1_555
Cd0 Na1 3.434898 1_555
Cd0 Na0 3.437132 1_555
Cd0 Na0 3.437132 1_655
Cd1 Na0 3.270086 1_555
Cd1 Na0 3.270086 1_655
Cd1 Na1 3.372636 1_554
Cd1 Na3 3.434898 1_544
Cd1 Na2 3.437132 1_555
Cd1 Na2 3.437132 1_655
Cd2 Na1 3.270086 1_455
Cd2 Na1 3.270086 1_555
Cd2 Na0 3.372636 1_556
Cd2 Na2 3.434898 1_566
Cd2 Na3 3.437132 1_455
Cd2 Na3 3.437132 1_555
Cd3 Na3 3.270086 1_545
Cd3 Na3 3.270086 1_445
Cd3 Na2 3.372636 1_555
Cd3 Na0 3.434898 1_555
Cd3 Na1 3.437132 1_455
Cd3 Na1 3.437132 1_555
As0 Cd2 2.729239 1_555
As0 Cd0 2.731430 1_555
As0 Cd0 2.731430 1_455
As0 Cd3 2.830966 1_565
As0 Na0 3.007825 1_555
As0 Na1 3.211505 1_455
As0 Na1 3.211505 1_555
As0 Na3 3.221033 1_555
As0 Na3 3.221033 1_455
As1 Cd0 2.729239 1_555
As1 Cd2 2.731430 1_654
As1 Cd2 2.731430 1_554
As1 Cd1 2.830966 1_555
As1 Na3 3.007825 1_554
As1 Na2 3.211505 1_665
As1 Na2 3.211505 1_565
As1 Na0 3.221033 1_555
As1 Na0 3.221033 1_655
As2 Cd1 2.729239 1_555
As2 Cd3 2.731430 1_555
As2 Cd3 2.731430 1_655
As2 Cd0 2.830966 1_545
As2 Na1 3.007825 1_555
As2 Na0 3.211505 1_555
As2 Na0 3.211505 1_655
As2 Na2 3.221033 1_555
As2 Na2 3.221033 1_655
As3 Cd3 2.729239 1_555
As3 Cd1 2.731430 1_456
As3 Cd1 2.731430 1_556
As3 Cd2 2.830966 1_555
As3 Na2 3.007825 1_556
As3 Na3 3.211505 1_545
As3 Na3 3.211505 1_445
As3 Na1 3.221033 1_455
As3 Na1 3.221033 1_555
