# generated using pymatgen
data_Li8Fe9CoO20
_symmetry_space_group_name_H-M   'P 1'
_cell_length_a   2.95617100
_cell_length_b   5.96841900
_cell_length_c   21.35881339
_cell_angle_alpha   82.30724624
_cell_angle_beta   90.00000000
_cell_angle_gamma   90.00000000
_symmetry_Int_Tables_number   1
_chemical_formula_structural   Li8Fe9CoO20
_chemical_formula_sum   'Li8 Fe9 Co1 O20'
_cell_volume   373.45621602
_cell_formula_units_Z   1
loop_
 _symmetry_equiv_pos_site_id
 _symmetry_equiv_pos_as_xyz
  1  'x, y, z'
loop_
 _atom_site_type_symbol
 _atom_site_label
 _atom_site_symmetry_multiplicity
 _atom_site_fract_x
 _atom_site_fract_y
 _atom_site_fract_z
 _atom_site_occupancy
  Li  Li0  1  0.50000000  0.09919800  0.79912600  1
  Li  Li1  1  0.00000000  0.90126400  0.69854500  1
  Li  Li2  1  0.50000000  0.69626000  0.59755700  1
  Li  Li3  1  0.50000000  0.30374000  0.40244300  1
  Li  Li4  1  0.00000000  0.09873600  0.30145500  1
  Li  Li5  1  0.50000000  0.90080200  0.20087400  1
  Li  Li6  1  0.00000000  0.69744800  0.09510800  1
  Li  Li7  1  0.00000000  0.30255200  0.90489200  1
  Fe  Fe0  1  0.50000000  0.60262100  0.80090200  1
  Fe  Fe1  1  0.00000000  0.39971700  0.70121400  1
  Fe  Fe2  1  0.50000000  0.21022000  0.59864900  1
  Fe  Fe3  1  0.00000000  0.00000000  0.50000000  1
  Fe  Fe4  1  0.50000000  0.78978000  0.40135100  1
  Fe  Fe5  1  0.00000000  0.60028300  0.29878600  1
  Fe  Fe6  1  0.50000000  0.39737900  0.19909800  1
  Fe  Fe7  1  0.00000000  0.21475500  0.09518200  1
  Fe  Fe8  1  0.00000000  0.78524500  0.90481800  1
  Co  Co0  1  0.50000000  0.00000000  0.00000000  1
  O  O0  1  0.50000000  0.56272400  0.89675000  1
  O  O1  1  0.00000000  0.83878300  0.80589400  1
  O  O2  1  0.00000000  0.36322600  0.79836800  1
  O  O3  1  0.50000000  0.16396100  0.69774900  1
  O  O4  1  0.50000000  0.63734900  0.70409000  1
  O  O5  1  0.00000000  0.97069400  0.59751400  1
  O  O6  1  0.00000000  0.43753800  0.60563100  1
  O  O7  1  0.50000000  0.21590600  0.50161200  1
  O  O8  1  0.50000000  0.78409400  0.49838800  1
  O  O9  1  0.00000000  0.02930600  0.40248600  1
  O  O10  1  0.00000000  0.56246200  0.39436900  1
  O  O11  1  0.50000000  0.83603900  0.30225100  1
  O  O12  1  0.50000000  0.36265100  0.29591000  1
  O  O13  1  0.00000000  0.16121700  0.19410600  1
  O  O14  1  0.00000000  0.63677400  0.20163200  1
  O  O15  1  0.50000000  0.97337000  0.09001000  1
  O  O16  1  0.50000000  0.43727600  0.10325000  1
  O  O17  1  0.00000000  0.20538800  0.00034900  1
  O  O18  1  0.00000000  0.79461200  0.99965100  1
  O  O19  1  0.50000000  0.02663000  0.90999000  1
loop_
_geom_bond_atom_site_label_1
_geom_bond_atom_site_label_2
_geom_bond_distance
_geom_bond_site_symmetry_2
Li0 O1 2.135702 1_545
Li0 O1 2.135702 1_645
Li0 O3 2.147982 1_555
Li0 O2 2.159029 1_555
Li0 O2 2.159029 1_655
Li0 O19 2.349485 1_555
Li1 O5 2.142163 1_555
Li1 O4 2.151728 1_455
Li1 O4 2.151728 1_555
Li1 O3 2.153173 1_465
Li1 O3 2.153173 1_565
Li1 O1 2.273170 1_555
Li2 O8 2.112824 1_555
Li2 O6 2.127820 1_655
Li2 O6 2.127820 1_555
Li2 O5 2.206167 1_555
Li2 O5 2.206167 1_655
Li2 O4 2.255430 1_555
Li3 O7 2.112824 1_555
Li3 O10 2.127820 1_655
Li3 O10 2.127820 1_555
Li3 O9 2.206167 1_655
Li3 O9 2.206167 1_555
Li3 O12 2.255430 1_555
Li4 O9 2.142163 1_555
Li4 O12 2.151728 1_455
Li4 O12 2.151728 1_555
Li4 O11 2.153173 1_445
Li4 O11 2.153173 1_545
Li4 O13 2.273170 1_555
Li5 O13 2.135702 1_565
Li5 O13 2.135702 1_665
Li5 O11 2.147982 1_555
Li5 O14 2.159029 1_655
Li5 O14 2.159029 1_555
Li5 O15 2.349485 1_555
Li6 O18 2.043688 1_554
Li6 O16 2.133991 1_555
Li6 O16 2.133991 1_455
Li6 O15 2.204676 1_455
Li6 O15 2.204676 1_555
Li6 O14 2.255484 1_555
Li7 O17 2.043688 1_556
Li7 O0 2.133991 1_555
Li7 O0 2.133991 1_455
Li7 O19 2.204676 1_555
Li7 O19 2.204676 1_455
Li7 O2 2.255484 1_555
Fe0 O0 2.029093 1_555
Fe0 O4 2.050359 1_555
Fe0 O1 2.055011 1_555
Fe0 O1 2.055011 1_655
Fe0 O2 2.061520 1_555
Fe0 O2 2.061520 1_655
Fe1 O6 2.023725 1_555
Fe1 O3 2.048902 1_555
Fe1 O3 2.048902 1_455
Fe1 O4 2.055085 1_455
Fe1 O4 2.055085 1_555
Fe1 O2 2.057293 1_555
Fe2 O6 2.025304 1_555
Fe2 O6 2.025304 1_655
Fe2 O5 2.058722 1_645
Fe2 O5 2.058722 1_545
Fe2 O7 2.068326 1_555
Fe2 O3 2.097621 1_555
Fe3 O7 1.964265 1_555
Fe3 O7 1.964265 1_455
Fe3 O8 1.964265 1_545
Fe3 O8 1.964265 1_445
Fe3 O5 2.066652 1_545
Fe3 O9 2.066652 1_555
Fe4 O10 2.025304 1_655
Fe4 O10 2.025304 1_555
Fe4 O9 2.058722 1_565
Fe4 O9 2.058722 1_665
Fe4 O8 2.068326 1_555
Fe4 O11 2.097621 1_555
Fe5 O10 2.023725 1_555
Fe5 O11 2.048902 1_455
Fe5 O11 2.048902 1_555
Fe5 O12 2.055085 1_555
Fe5 O12 2.055085 1_455
Fe5 O14 2.057293 1_555
Fe6 O16 2.029093 1_555
Fe6 O12 2.050359 1_555
Fe6 O13 2.055011 1_555
Fe6 O13 2.055011 1_655
Fe6 O14 2.061520 1_555
Fe6 O14 2.061520 1_655
Fe7 O16 2.009863 1_455
Fe7 O16 2.009863 1_555
Fe7 O17 2.033759 1_555
Fe7 O15 2.077288 1_545
Fe7 O15 2.077288 1_445
Fe7 O13 2.094205 1_555
Fe8 O0 2.009863 1_555
Fe8 O0 2.009863 1_455
Fe8 O18 2.033759 1_555
Fe8 O19 2.077288 1_465
Fe8 O19 2.077288 1_565
Fe8 O1 2.094205 1_555
Co0 O19 1.907744 1_554
Co0 O15 1.907744 1_545
Co0 O17 1.920918 1_555
Co0 O17 1.920918 1_655
Co0 O18 1.920918 1_544
Co0 O18 1.920918 1_644
