# generated using pymatgen
data_Fe6O7F5
_symmetry_space_group_name_H-M   'P 1'
_cell_length_a   4.72740000
_cell_length_b   5.60896085
_cell_length_c   7.74244129
_cell_angle_alpha   85.76878174
_cell_angle_beta   89.39582733
_cell_angle_gamma   89.20211802
_symmetry_Int_Tables_number   1
_chemical_formula_structural   Fe6O7F5
_chemical_formula_sum   'Fe6 O7 F5'
_cell_volume   204.70830822
_cell_formula_units_Z   1
loop_
 _symmetry_equiv_pos_site_id
 _symmetry_equiv_pos_as_xyz
  1  'x, y, z'
loop_
 _atom_site_type_symbol
 _atom_site_label
 _atom_site_symmetry_multiplicity
 _atom_site_fract_x
 _atom_site_fract_y
 _atom_site_fract_z
 _atom_site_occupancy
  Fe  Fe0  1  0.47883600  0.84827200  0.66683700  1
  Fe  Fe1  1  0.49472300  0.49942200  0.99820900  1
  Fe  Fe2  1  0.54308300  0.16224800  0.34079500  1
  Fe  Fe3  1  0.02835400  0.32438200  0.66320500  1
  Fe  Fe4  1  0.94179700  0.65661700  0.32421800  1
  Fe  Fe5  1  0.00571200  0.00373900  0.00438100  1
  O  O0  1  0.81783600  0.36560200  0.44444000  1
  O  O1  1  0.79694100  0.70948700  0.09368700  1
  O  O2  1  0.69771400  0.21216300  0.10277500  1
  O  O3  1  0.68932900  0.86069700  0.44334700  1
  O  O4  1  0.31392500  0.13683600  0.56133300  1
  O  O5  1  0.30158300  0.79207900  0.89522700  1
  O  O6  1  0.19561200  0.29434000  0.89528900  1
  F  F0  1  0.80223800  0.03619800  0.76704200  1
  F  F1  1  0.70203100  0.53701400  0.76081700  1
  F  F2  1  0.29936200  0.46761000  0.23847900  1
  F  F3  1  0.19579100  0.95832800  0.23882300  1
  F  F4  1  0.19513300  0.63496900  0.56109600  1
loop_
_geom_bond_atom_site_label_1
_geom_bond_atom_site_label_2
_geom_bond_distance
_geom_bond_site_symmetry_2
Fe0 O4 1.917788 1_565
Fe0 O5 1.955052 1_555
Fe0 O3 1.984191 1_555
Fe1 O5 1.986052 1_555
Fe1 O2 1.988264 1_556
Fe1 O6 2.040079 1_555
Fe1 O1 2.042942 1_556
Fe2 O3 1.936505 1_545
Fe2 O0 1.957113 1_555
Fe2 O2 1.977377 1_555
Fe2 O4 2.009687 1_555
Fe3 O4 1.900429 1_555
Fe3 O6 1.965707 1_555
Fe3 O0 1.970815 1_455
Fe4 O0 1.914454 1_555
Fe4 O3 1.918340 1_555
Fe4 O1 1.919549 1_555
Fe5 O6 1.999437 1_554
Fe5 O1 2.009654 1_445
Fe5 O2 2.031663 1_455
Fe5 O5 2.038846 1_544
F0 Fe3 2.059126 1_655
F0 Fe0 2.059352 1_545
F0 Fe5 2.078015 1_656
F1 Fe1 2.072128 1_555
F1 Fe3 2.104885 1_655
F1 Fe0 2.113794 1_555
F2 Fe1 2.065136 1_554
F2 Fe4 2.110004 1_455
F2 Fe2 2.157003 1_555
F3 Fe5 2.031478 1_565
F3 Fe4 2.148830 1_455
F3 Fe2 2.199981 1_565
F4 Fe3 2.025664 1_555
F4 Fe0 2.028002 1_555
F4 Fe4 2.195918 1_455
