# generated using pymatgen
data_Li8V11O22
_symmetry_space_group_name_H-M   'P 1'
_cell_length_a   5.18336900
_cell_length_b   8.92672800
_cell_length_c   10.03221378
_cell_angle_alpha   114.17045152
_cell_angle_beta   95.51092403
_cell_angle_gamma   95.01838457
_symmetry_Int_Tables_number   1
_chemical_formula_structural   Li8V11O22
_chemical_formula_sum   'Li8 V11 O22'
_cell_volume   417.41357785
_cell_formula_units_Z   1
loop_
 _symmetry_equiv_pos_site_id
 _symmetry_equiv_pos_as_xyz
  1  'x, y, z'
loop_
 _atom_site_type_symbol
 _atom_site_label
 _atom_site_symmetry_multiplicity
 _atom_site_fract_x
 _atom_site_fract_y
 _atom_site_fract_z
 _atom_site_occupancy
  Li  Li0  1  0.53432400  0.67202200  0.58532700  1
  Li  Li1  1  0.46567600  0.32797800  0.41467300  1
  Li  Li2  1  0.90373200  0.13335800  0.31661900  1
  Li  Li3  1  0.34769100  0.94622800  0.22753800  1
  Li  Li4  1  0.27254200  0.58799800  0.04573600  1
  Li  Li5  1  0.72745800  0.41200200  0.95426400  1
  Li  Li6  1  0.65230900  0.05377200  0.77246200  1
  Li  Li7  1  0.09626800  0.86664200  0.68338100  1
  V  V0  1  0.27663700  0.09029200  0.55244000  1
  V  V1  1  0.54056700  0.18170200  0.08606500  1
  V  V2  1  0.00000000  0.00000000  0.00000000  1
  V  V3  1  0.72336300  0.90970800  0.44756000  1
  V  V4  1  0.45943300  0.81829800  0.91393500  1
  V  V5  1  0.17697900  0.72451300  0.36370900  1
  V  V6  1  0.64735900  0.54989700  0.27781400  1
  V  V7  1  0.90526100  0.64065200  0.81888600  1
  V  V8  1  0.35264100  0.45010300  0.72218600  1
  V  V9  1  0.09473900  0.35934800  0.18111400  1
  V  V10  1  0.82302100  0.27548700  0.63629100  1
  O  O0  1  0.76751800  0.33970500  0.27453100  1
  O  O1  1  0.15437900  0.29851600  0.54007900  1
  O  O2  1  0.21856300  0.15594800  0.19174200  1
  O  O3  1  0.58965900  0.11550000  0.44131500  1
  O  O4  1  0.41034100  0.88450000  0.55868500  1
  O  O5  1  0.05359000  0.93162800  0.35890000  1
  O  O6  1  0.68643700  0.98437000  0.10013300  1
  O  O7  1  0.49115700  0.74342400  0.26149900  1
  O  O8  1  0.84562100  0.70148400  0.45992100  1
  O  O9  1  0.14007400  0.81191400  0.01605100  1
  O  O10  1  0.78143700  0.84405200  0.80825800  1
  O  O11  1  0.57751900  0.60241700  0.90814800  1
  O  O12  1  0.33726200  0.52727300  0.37312100  1
  O  O13  1  0.23248200  0.66029500  0.72546900  1
  O  O14  1  0.95595500  0.55536500  0.16997700  1
  O  O15  1  0.42248100  0.39758300  0.09185200  1
  O  O16  1  0.66273800  0.47272700  0.62687900  1
  O  O17  1  0.04404500  0.44463500  0.83002300  1
  O  O18  1  0.85992600  0.18808600  0.98394900  1
  O  O19  1  0.50884300  0.25657600  0.73850100  1
  O  O20  1  0.31356300  0.01563000  0.89986700  1
  O  O21  1  0.94641000  0.06837200  0.64110000  1
loop_
_geom_bond_atom_site_label_1
_geom_bond_atom_site_label_2
_geom_bond_distance
_geom_bond_site_symmetry_2
Li0 O12 2.084208 1_555
Li0 O16 2.131439 1_555
Li0 O4 2.162740 1_555
Li0 O8 2.200502 1_555
Li0 O13 2.224818 1_555
Li0 O10 2.300854 1_555
Li1 O16 2.084208 1_555
Li1 O12 2.131439 1_555
Li1 O3 2.162740 1_555
Li1 O1 2.200502 1_555
Li1 O0 2.224818 1_555
Li1 O2 2.300854 1_555
Li2 O6 2.158005 1_545
Li2 O3 2.179372 1_555
Li2 O2 2.194353 1_655
Li2 O5 2.198428 1_645
Li2 O0 2.208381 1_555
Li2 O1 2.299149 1_655
Li3 O9 2.085604 1_555
Li3 O5 2.137610 1_555
Li3 O7 2.153719 1_555
Li3 O2 2.192114 1_565
Li3 O3 2.225723 1_565
Li3 O6 2.348498 1_555
Li4 O15 2.124469 1_555
Li4 O7 2.165394 1_555
Li4 O17 2.167569 1_554
Li4 O14 2.222115 1_455
Li4 O11 2.224810 1_554
Li4 O9 2.289936 1_555
Li5 O11 2.124469 1_555
Li5 O19 2.165394 1_555
Li5 O14 2.167569 1_556
Li5 O17 2.222115 1_655
Li5 O15 2.224810 1_556
Li5 O18 2.289936 1_555
Li6 O18 2.085604 1_555
Li6 O21 2.137610 1_555
Li6 O19 2.153719 1_555
Li6 O10 2.192114 1_545
Li6 O4 2.225723 1_545
Li6 O20 2.348498 1_555
Li7 O20 2.158005 1_565
Li7 O4 2.179372 1_555
Li7 O10 2.194353 1_455
Li7 O21 2.198428 1_465
Li7 O13 2.208381 1_555
Li7 O8 2.299149 1_455
O0 V1 2.011655 1_555
O0 V6 2.016777 1_555
O0 V9 2.042959 1_655
O1 V8 1.896447 1_555
O1 V0 2.061963 1_555
O1 V10 2.083993 1_455
O2 V2 2.008542 1_555
O2 V9 2.017259 1_555
O2 V1 2.105929 1_555
O3 V3 2.041476 1_545
O3 V10 2.069917 1_555
O3 V0 2.101189 1_555
O4 V0 2.041476 1_565
O4 V5 2.069917 1_555
O4 V3 2.101189 1_555
O5 V5 2.025747 1_555
O5 V3 2.033629 1_455
O5 V0 2.035432 1_565
O6 V2 2.014682 1_665
O6 V4 2.019034 1_554
O6 V1 2.027485 1_565
O7 V6 2.029189 1_555
O7 V3 2.030564 1_555
O7 V5 2.036254 1_555
O8 V6 1.896447 1_555
O8 V3 2.061963 1_555
O8 V5 2.083993 1_655
O9 V2 1.945333 1_565
O9 V4 2.037148 1_554
O9 V7 2.113488 1_454
O10 V2 2.008542 1_666
O10 V7 2.017259 1_555
O10 V4 2.105929 1_555
O11 V8 1.978809 1_555
O11 V4 2.052643 1_555
O11 V7 2.060437 1_555
O12 V6 1.983703 1_555
O12 V5 2.043586 1_555
O12 V9 2.092470 1_555
O13 V4 2.011655 1_555
O13 V8 2.016777 1_555
O13 V7 2.042959 1_455
O14 V9 1.989125 1_655
O14 V6 2.023201 1_555
O14 V5 2.058236 1_655
O15 V6 1.978809 1_555
O15 V1 2.052643 1_555
O15 V9 2.060437 1_555
O16 V8 1.983703 1_555
O16 V10 2.043586 1_555
O16 V7 2.092470 1_555
O17 V7 1.989125 1_455
O17 V8 2.023201 1_555
O17 V10 2.058236 1_455
O18 V2 1.945333 1_656
O18 V1 2.037148 1_556
O18 V9 2.113488 1_656
O19 V8 2.029189 1_555
O19 V0 2.030564 1_555
O19 V10 2.036254 1_555
O20 V2 2.014682 1_556
O20 V1 2.019034 1_556
O20 V4 2.027485 1_545
O21 V10 2.025747 1_555
O21 V0 2.033629 1_655
O21 V3 2.035432 1_545
