# generated using pymatgen
data_Li4Co3Cu3(TeO8)2
_symmetry_space_group_name_H-M   'P 1'
_cell_length_a   5.75501100
_cell_length_b   5.88030592
_cell_length_c   9.59134057
_cell_angle_alpha   93.51741227
_cell_angle_beta   90.18545380
_cell_angle_gamma   118.52658527
_symmetry_Int_Tables_number   1
_chemical_formula_structural   Li4Co3Cu3(TeO8)2
_chemical_formula_sum   'Li4 Co3 Cu3 Te2 O16'
_cell_volume   284.44375493
_cell_formula_units_Z   1
loop_
 _symmetry_equiv_pos_site_id
 _symmetry_equiv_pos_as_xyz
  1  'x, y, z'
loop_
 _atom_site_type_symbol
 _atom_site_label
 _atom_site_symmetry_multiplicity
 _atom_site_fract_x
 _atom_site_fract_y
 _atom_site_fract_z
 _atom_site_occupancy
  Li  Li0  1  0.32819300  0.67161000  0.91113500  1
  Li  Li1  1  0.00695400  0.02059800  0.98834600  1
  Li  Li2  1  0.00159000  0.99917000  0.48316400  1
  Li  Li3  1  0.65976200  0.30356200  0.41381000  1
  Co  Co0  1  0.17093200  0.34649400  0.21660500  1
  Co  Co1  1  0.83452600  0.17471600  0.71436500  1
  Co  Co2  1  0.34272200  0.17221900  0.71321500  1
  Cu  Cu0  1  0.66297200  0.83746500  0.21055300  1
  Cu  Cu1  1  0.17635200  0.84217300  0.21064100  1
  Cu  Cu2  1  0.83464600  0.66699700  0.71209600  1
  Te  Te0  1  0.33117400  0.64987800  0.48784100  1
  Te  Te1  1  0.66717900  0.35032300  0.98182900  1
  O  O0  1  0.67514800  0.83123600  0.59113500  1
  O  O1  1  0.48302100  0.93826700  0.35659300  1
  O  O2  1  0.32735400  0.65286600  0.12279700  1
  O  O3  1  0.00652200  0.02053100  0.29189700  1
  O  O4  1  0.01154300  0.01512100  0.79960000  1
  O  O5  1  0.17733900  0.83982700  0.58869400  1
  O  O6  1  0.45303100  0.46457400  0.35541400  1
  O  O7  1  0.02303300  0.48427100  0.35568400  1
  O  O8  1  0.83629900  0.69322300  0.08209500  1
  O  O9  1  0.16278500  0.32370100  0.60201500  1
  O  O10  1  0.96199300  0.47719100  0.84450200  1
  O  O11  1  0.48780400  0.46421700  0.84674200  1
  O  O12  1  0.66109700  0.32284600  0.61877400  1
  O  O13  1  0.84383700  0.20230800  0.08654800  1
  O  O14  1  0.52447100  0.04343600  0.83309000  1
  O  O15  1  0.34801700  0.19118100  0.08865800  1
loop_
_geom_bond_atom_site_label_1
_geom_bond_atom_site_label_2
_geom_bond_distance
_geom_bond_site_symmetry_2
Li0 O11 1.921895 1_555
Li0 O10 1.938378 1_455
Li0 O2 2.039750 1_556
Li0 O14 2.112864 1_565
Li1 O4 1.809140 1_555
Li1 O13 1.936591 1_456
Li1 O15 1.942511 1_556
Li1 O8 1.972626 1_446
Li2 O3 1.845862 1_565
Li2 O9 1.958863 1_565
Li2 O5 1.985037 1_555
Li2 O0 1.985735 1_455
Li3 O1 1.927369 1_545
Li3 O6 1.939659 1_555
Li3 O7 1.941409 1_655
Li3 O12 1.961968 1_555
Co0 O2 1.876342 1_555
Co0 O3 1.879568 1_555
Co0 O6 1.919958 1_555
Co0 O7 1.921892 1_555
Co0 O15 2.034271 1_555
Co0 O13 2.036929 1_455
Co1 O12 1.875621 1_555
Co1 O4 1.894408 1_655
Co1 O10 1.932645 1_555
Co1 O14 1.970271 1_555
Co1 O9 2.011412 1_655
Co1 O0 2.061151 1_545
Co2 O12 1.876510 1_555
Co2 O4 1.896031 1_555
Co2 O11 1.907745 1_555
Co2 O14 1.960889 1_555
Co2 O9 1.998448 1_555
Co2 O5 2.020390 1_545
Cu0 O2 1.868745 1_555
Cu0 O3 1.879012 1_665
Cu0 O1 1.969696 1_555
Cu0 O8 1.979972 1_555
Cu0 O13 2.299771 1_565
Cu0 O6 2.460188 1_555
Cu1 O2 1.875600 1_555
Cu1 O3 1.883174 1_565
Cu1 O1 2.080428 1_555
Cu1 O8 2.081307 1_455
Cu1 O15 2.218617 1_565
Cu1 O7 2.395126 1_555
Cu2 O4 1.929889 1_665
Cu2 O12 1.932755 1_555
Cu2 O0 2.024504 1_555
Cu2 O10 2.084416 1_555
Cu2 O5 2.138135 1_655
Cu2 O11 2.237469 1_555
O0 Te0 1.969475 1_555
O1 Te0 2.019347 1_555
O5 Te0 1.945394 1_555
O6 Te0 1.964238 1_555
O7 Te0 1.970880 1_555
O8 Te1 1.954325 1_554
O9 Te0 2.075186 1_555
O10 Te1 2.023899 1_555
O11 Te1 1.987739 1_555
O13 Te1 1.935410 1_554
O14 Te1 2.056014 1_555
O15 Te1 1.946139 1_554
