# generated using pymatgen
data_Li2MnFe(PO4)2
_symmetry_space_group_name_H-M   'P 1'
_cell_length_a   6.13058700
_cell_length_b   9.54164500
_cell_length_c   10.50547541
_cell_angle_alpha   89.93192990
_cell_angle_beta   90.00000000
_cell_angle_gamma   90.00000000
_symmetry_Int_Tables_number   1
_chemical_formula_structural   Li2MnFe(PO4)2
_chemical_formula_sum   'Li8 Mn4 Fe4 P8 O32'
_cell_volume   614.52664585
_cell_formula_units_Z   4
loop_
 _symmetry_equiv_pos_site_id
 _symmetry_equiv_pos_as_xyz
  1  'x, y, z'
loop_
 _atom_site_type_symbol
 _atom_site_label
 _atom_site_symmetry_multiplicity
 _atom_site_fract_x
 _atom_site_fract_y
 _atom_site_fract_z
 _atom_site_occupancy
  Li  Li0  1  0.24914500  0.00003400  0.99957900  1
  Li  Li1  1  0.75085500  0.00003400  0.99957900  1
  Li  Li2  1  0.75062400  0.75009000  0.49991100  1
  Li  Li3  1  0.24937600  0.75009000  0.49991100  1
  Li  Li4  1  0.24957400  0.49985500  0.00021900  1
  Li  Li5  1  0.75042600  0.49985500  0.00021900  1
  Li  Li6  1  0.24935200  0.24995800  0.49992800  1
  Li  Li7  1  0.75064800  0.24995800  0.49992800  1
  Mn  Mn0  1  0.50000000  0.98739100  0.28142500  1
  Mn  Mn1  1  0.50000000  0.76236900  0.78147800  1
  Mn  Mn2  1  0.00000000  0.73753700  0.21882500  1
  Mn  Mn3  1  0.50000000  0.26268800  0.78151500  1
  Fe  Fe0  1  0.00000000  0.51350800  0.71833900  1
  Fe  Fe1  1  0.50000000  0.48604300  0.28154200  1
  Fe  Fe2  1  0.00000000  0.23686500  0.21799700  1
  Fe  Fe3  1  0.00000000  0.01358700  0.71833700  1
  P  P0  1  0.00000000  0.95791600  0.40773600  1
  P  P1  1  0.00000000  0.79417900  0.90549500  1
  P  P2  1  0.50000000  0.70479800  0.09372800  1
  P  P3  1  0.50000000  0.54167100  0.59226700  1
  P  P4  1  0.00000000  0.45654800  0.40671300  1
  P  P5  1  0.00000000  0.29399200  0.90636600  1
  P  P6  1  0.50000000  0.20851300  0.09380800  1
  P  P7  1  0.50000000  0.04228100  0.59319500  1
  O  O0  1  0.00000000  0.89671000  0.54527300  1
  O  O1  1  0.20139000  0.89020300  0.33834100  1
  O  O2  1  0.79861000  0.89020300  0.33834100  1
  O  O3  1  0.50000000  0.88103400  0.59517800  1
  O  O4  1  0.50000000  0.86654200  0.09635500  1
  O  O5  1  0.20132800  0.86203700  0.83638900  1
  O  O6  1  0.79867200  0.86203700  0.83638900  1
  O  O7  1  0.00000000  0.85489800  0.04325800  1
  O  O8  1  0.50000000  0.64438700  0.95639700  1
  O  O9  1  0.70110000  0.63804400  0.16362600  1
  O  O10  1  0.29890000  0.63804400  0.16362600  1
  O  O11  1  0.00000000  0.63301700  0.90246300  1
  O  O12  1  0.00000000  0.61804100  0.40422500  1
  O  O13  1  0.70262000  0.60716200  0.66272700  1
  O  O14  1  0.29738000  0.60716200  0.66272700  1
  O  O15  1  0.50000000  0.60430700  0.45541200  1
  O  O16  1  0.00000000  0.39512000  0.54380000  1
  O  O17  1  0.20234200  0.39086600  0.33615100  1
  O  O18  1  0.79765800  0.39086600  0.33615100  1
  O  O19  1  0.50000000  0.38070600  0.59541000  1
  O  O20  1  0.50000000  0.36933600  0.09635500  1
  O  O21  1  0.20099700  0.36201400  0.83707400  1
  O  O22  1  0.79900300  0.36201400  0.83707400  1
  O  O23  1  0.00000000  0.35347100  0.04455000  1
  O  O24  1  0.50000000  0.14496700  0.95748800  1
  O  O25  1  0.70300100  0.14254700  0.16375800  1
  O  O26  1  0.29699900  0.14254700  0.16375800  1
  O  O27  1  0.00000000  0.13255000  0.90249700  1
  O  O28  1  0.00000000  0.11884200  0.40299300  1
  O  O29  1  0.70270200  0.10725200  0.66359600  1
  O  O30  1  0.29729800  0.10725200  0.66359600  1
  O  O31  1  0.50000000  0.10606400  0.45699000  1
loop_
_geom_bond_atom_site_label_1
_geom_bond_atom_site_label_2
_geom_bond_distance
_geom_bond_site_symmetry_2
Li0 O7 2.111821 1_546
Li0 O24 2.114613 1_555
Li0 O5 2.182699 1_545
Li0 O26 2.217111 1_556
Li0 O27 2.229090 1_555
Li0 O4 2.240101 1_546
Li1 O7 2.111821 1_646
Li1 O24 2.114613 1_555
Li1 O6 2.182699 1_545
Li1 O25 2.217111 1_556
Li1 O27 2.229090 1_655
Li1 O4 2.240101 1_546
Li2 O15 2.125027 1_555
Li2 O0 2.126774 1_655
Li2 O2 2.179344 1_555
Li2 O13 2.206037 1_555
Li2 O3 2.219555 1_555
Li2 O12 2.222228 1_655
Li3 O15 2.125027 1_555
Li3 O0 2.126774 1_555
Li3 O1 2.179344 1_555
Li3 O14 2.206037 1_555
Li3 O3 2.219555 1_555
Li3 O12 2.222228 1_555
Li4 O8 2.114070 1_554
Li4 O23 2.123028 1_555
Li4 O21 2.182059 1_554
Li4 O10 2.186858 1_555
Li4 O20 2.219228 1_555
Li4 O11 2.237625 1_554
Li5 O8 2.114070 1_554
Li5 O23 2.123028 1_655
Li5 O22 2.182059 1_554
Li5 O9 2.186858 1_555
Li5 O20 2.219228 1_555
Li5 O11 2.237625 1_654
Li6 O31 2.109795 1_555
Li6 O16 2.114059 1_555
Li6 O17 2.201258 1_555
Li6 O30 2.211628 1_555
Li6 O19 2.219625 1_555
Li6 O28 2.223075 1_555
Li7 O31 2.109795 1_555
Li7 O16 2.114059 1_655
Li7 O18 2.201258 1_555
Li7 O29 2.211628 1_555
Li7 O19 2.219625 1_555
Li7 O28 2.223075 1_655
Mn0 O1 2.137158 1_555
Mn0 O2 2.137158 1_555
Mn0 O31 2.165395 1_565
Mn0 O4 2.261651 1_555
Mn0 O25 2.294394 1_565
Mn0 O26 2.294394 1_565
Mn1 O6 2.142699 1_555
Mn1 O5 2.142699 1_555
Mn1 O8 2.153876 1_555
Mn1 O3 2.259925 1_555
Mn1 O14 2.301499 1_555
Mn1 O13 2.301499 1_555
Mn2 O10 2.143971 1_555
Mn2 O9 2.143971 1_455
Mn2 O7 2.156606 1_555
Mn2 O12 2.255736 1_555
Mn2 O2 2.286279 1_455
Mn2 O1 2.286279 1_555
Mn3 O22 2.144834 1_555
Mn3 O21 2.144834 1_555
Mn3 O24 2.162031 1_555
Mn3 O19 2.255069 1_555
Mn3 O30 2.298449 1_555
Mn3 O29 2.298449 1_555
Fe0 O13 2.112433 1_455
Fe0 O14 2.112433 1_555
Fe0 O16 2.154785 1_555
Fe0 O11 2.246577 1_555
Fe0 O21 2.271455 1_555
Fe0 O22 2.271455 1_455
Fe1 O17 2.117209 1_555
Fe1 O18 2.117209 1_555
Fe1 O15 2.148180 1_555
Fe1 O20 2.242785 1_555
Fe1 O10 2.270176 1_555
Fe1 O9 2.270176 1_555
Fe2 O25 2.109749 1_455
Fe2 O26 2.109749 1_555
Fe2 O23 2.133845 1_555
Fe2 O28 2.245007 1_555
Fe2 O18 2.289771 1_455
Fe2 O17 2.289771 1_555
Fe3 O29 2.109535 1_455
Fe3 O30 2.109535 1_555
Fe3 O0 2.134021 1_545
Fe3 O27 2.244258 1_555
Fe3 O6 2.268972 1_445
Fe3 O5 2.268972 1_545
O0 P0 1.557809 1_555
O1 P0 1.573013 1_555
O2 P0 1.573013 1_655
O3 P7 1.538678 1_565
O4 P2 1.543583 1_555
O5 P1 1.571168 1_555
O6 P1 1.571168 1_655
O7 P1 1.559560 1_554
O8 P2 1.554252 1_556
O9 P2 1.569632 1_555
O10 P2 1.569632 1_555
O11 P1 1.538118 1_555
O12 P4 1.541099 1_555
O13 P3 1.575601 1_555
O14 P3 1.575601 1_555
O15 P3 1.556343 1_555
O16 P4 1.554223 1_555
O17 P4 1.575487 1_555
O18 P4 1.575487 1_655
O19 P3 1.536187 1_555
O20 P6 1.534781 1_555
O21 P5 1.571123 1_555
O22 P5 1.571123 1_655
O23 P5 1.559309 1_554
O24 P6 1.555838 1_556
O25 P6 1.576043 1_555
O26 P6 1.576043 1_555
O27 P5 1.541007 1_555
O28 P0 1.536248 1_545
O29 P7 1.573742 1_555
O30 P7 1.573742 1_555
O31 P7 1.554281 1_555
