# generated using pymatgen
data_Li4Mn3Nb2Fe3O16
_symmetry_space_group_name_H-M   'P 1'
_cell_length_a   6.04102646
_cell_length_b   6.04102646
_cell_length_c   9.81999270
_cell_angle_alpha   88.05579032
_cell_angle_beta   88.05579032
_cell_angle_gamma   59.00634759
_symmetry_Int_Tables_number   1
_chemical_formula_structural   Li4Mn3Nb2Fe3O16
_chemical_formula_sum   'Li4 Mn3 Nb2 Fe3 O16'
_cell_volume   306.97070419
_cell_formula_units_Z   1
loop_
 _symmetry_equiv_pos_site_id
 _symmetry_equiv_pos_as_xyz
  1  'x, y, z'
loop_
 _atom_site_type_symbol
 _atom_site_label
 _atom_site_symmetry_multiplicity
 _atom_site_fract_x
 _atom_site_fract_y
 _atom_site_fract_z
 _atom_site_occupancy
  Li  Li0  1  0.66284900  0.66284900  0.09633300  1
  Li  Li1  1  0.99589600  0.99589600  0.01014000  1
  Li  Li2  1  0.00177100  0.00177100  0.51087400  1
  Li  Li3  1  0.33530900  0.33530900  0.59763900  1
  Mn  Mn0  1  0.82974700  0.82974700  0.78856600  1
  Mn  Mn1  1  0.17020900  0.66158600  0.28568900  1
  Mn  Mn2  1  0.66158600  0.17020900  0.28568900  1
  Nb  Nb0  1  0.66812000  0.66812000  0.50833200  1
  Nb  Nb1  1  0.32131000  0.32131000  0.00614800  1
  Fe  Fe0  1  0.34068500  0.83092100  0.78220000  1
  Fe  Fe1  1  0.83092100  0.34068500  0.78220000  1
  Fe  Fe2  1  0.17113200  0.17113200  0.28255900  1
  O  O0  1  0.34304800  0.84569500  0.41218600  1
  O  O1  1  0.51990100  0.51990100  0.65653200  1
  O  O2  1  0.66831500  0.66831500  0.88891000  1
  O  O3  1  0.99534800  0.99534800  0.69775500  1
  O  O4  1  0.00139200  0.00139200  0.19721200  1
  O  O5  1  0.84569500  0.34304800  0.41218600  1
  O  O6  1  0.51497600  0.96514600  0.65462500  1
  O  O7  1  0.96514600  0.51497600  0.65462500  1
  O  O8  1  0.16532400  0.16532400  0.90297000  1
  O  O9  1  0.84091900  0.84091900  0.40652300  1
  O  O10  1  0.03159300  0.47289200  0.15017300  1
  O  O11  1  0.47289200  0.03159300  0.15017300  1
  O  O12  1  0.33498900  0.33498900  0.38690400  1
  O  O13  1  0.17335700  0.66413000  0.91150000  1
  O  O14  1  0.47821900  0.47821900  0.16218200  1
  O  O15  1  0.66413000  0.17335700  0.91150000  1
loop_
_geom_bond_atom_site_label_1
_geom_bond_atom_site_label_2
_geom_bond_distance
_geom_bond_site_symmetry_2
Li0 O10 1.991142 1_655
Li0 O11 1.991142 1_565
Li0 O14 2.022249 1_555
Li0 O2 2.035462 1_554
Li1 O4 1.840205 1_665
Li1 O13 1.988178 1_654
Li1 O15 1.988178 1_564
Li1 O8 2.033585 1_664
Li2 O3 1.833780 1_445
Li2 O0 2.000775 1_545
Li2 O5 2.000775 1_455
Li2 O9 2.011486 1_445
Li3 O6 1.987037 1_545
Li3 O7 1.987037 1_455
Li3 O1 2.046865 1_555
Li3 O12 2.069550 1_555
Mn0 O3 1.925224 1_555
Mn0 O2 1.929279 1_555
Mn0 O6 2.123621 1_555
Mn0 O7 2.123621 1_555
Mn0 O15 2.171714 1_565
Mn0 O13 2.171714 1_655
Mn1 O12 1.944954 1_555
Mn1 O4 1.947278 1_565
Mn1 O14 1.993870 1_555
Mn1 O9 2.060670 1_455
Mn1 O10 2.221067 1_555
Mn1 O0 2.290852 1_555
Mn2 O12 1.944954 1_555
Mn2 O4 1.947278 1_655
Mn2 O14 1.993870 1_555
Mn2 O9 2.060670 1_545
Mn2 O11 2.221067 1_555
Mn2 O5 2.290852 1_555
Nb0 O0 1.945789 1_555
Nb0 O5 1.945789 1_555
Nb0 O9 2.039496 1_555
Nb0 O1 2.090523 1_555
Nb0 O7 2.124724 1_555
Nb0 O6 2.124724 1_555
Nb1 O8 1.961267 1_554
Nb1 O15 1.992766 1_554
Nb1 O13 1.992766 1_554
Nb1 O10 2.042389 1_555
Nb1 O11 2.042389 1_555
Nb1 O14 2.295048 1_555
Fe0 O3 1.988426 1_455
Fe0 O2 2.012187 1_555
Fe0 O6 2.014047 1_555
Fe0 O1 2.048641 1_555
Fe0 O8 2.117311 1_565
Fe0 O13 2.127033 1_555
Fe1 O3 1.988426 1_545
Fe1 O2 2.012187 1_555
Fe1 O7 2.014047 1_555
Fe1 O1 2.048641 1_555
Fe1 O8 2.117311 1_655
Fe1 O15 2.127033 1_555
Fe2 O4 2.001207 1_555
Fe2 O11 2.013637 1_555
Fe2 O10 2.013637 1_555
Fe2 O12 2.038716 1_555
Fe2 O0 2.093112 1_545
Fe2 O5 2.093112 1_455
