# generated using pymatgen
data_Yb4Sb2O
_symmetry_space_group_name_H-M   'P 1'
_cell_length_a   8.98866158
_cell_length_b   8.98866158
_cell_length_c   8.98866158
_cell_angle_alpha   151.99761067
_cell_angle_beta   151.99761067
_cell_angle_gamma   40.01679166
_symmetry_Int_Tables_number   1
_chemical_formula_structural   Yb4Sb2O
_chemical_formula_sum   'Yb4 Sb2 O1'
_cell_volume   159.78305394
_cell_formula_units_Z   1
loop_
 _symmetry_equiv_pos_site_id
 _symmetry_equiv_pos_as_xyz
  1  'x, y, z'
loop_
 _atom_site_type_symbol
 _atom_site_label
 _atom_site_symmetry_multiplicity
 _atom_site_fract_x
 _atom_site_fract_y
 _atom_site_fract_z
 _atom_site_occupancy
  Yb  Yb0  1  0.50000000  0.00000000  0.50000000  1
  Yb  Yb1  1  0.68373392  0.68373392  0.00000000  1
  Yb  Yb2  1  0.31626608  0.31626608  0.00000000  1
  Yb  Yb3  1  0.00000000  0.50000000  0.50000000  1
  Sb  Sb0  1  0.13559708  0.13559708  0.00000000  1
  Sb  Sb1  1  0.86440292  0.86440292  0.00000000  1
  O  O0  1  0.50000000  0.50000000  0.00000000  1
loop_
_geom_bond_atom_site_label_1
_geom_bond_atom_site_label_2
_geom_bond_distance
_geom_bond_site_symmetry_2
Sb0 Yb2 3.051907 1_555
Sb0 Yb0 3.158489 1_454
Sb0 Yb3 3.158489 1_555
Sb0 Yb3 3.158489 1_544
Sb0 Yb0 3.158489 1_555
Sb0 Yb1 3.181218 1_455
Sb0 Yb1 3.181218 1_545
Sb0 Yb1 3.181218 1_556
Sb0 Yb1 3.181218 1_444
Sb1 Yb1 3.051907 1_555
Sb1 Yb3 3.158489 1_654
Sb1 Yb0 3.158489 1_665
Sb1 Yb3 3.158489 1_665
Sb1 Yb0 3.158489 1_564
Sb1 Yb2 3.181218 1_565
Sb1 Yb2 3.181218 1_554
Sb1 Yb2 3.181218 1_655
Sb1 Yb2 3.181218 1_666
O0 Yb3 2.174736 1_554
O0 Yb0 2.174736 1_554
O0 Yb3 2.174736 1_655
O0 Yb0 2.174736 1_565
O0 Yb1 3.103681 1_555
O0 Yb2 3.103681 1_555
