# generated using pymatgen
data_Ca9Mn(PO4)7
_symmetry_space_group_name_H-M   'P 1'
_cell_length_a   13.91009576
_cell_length_b   13.91009576
_cell_length_c   13.91009555
_cell_angle_alpha   44.02698312
_cell_angle_beta   44.02698312
_cell_angle_gamma   44.02697976
_symmetry_Int_Tables_number   1
_chemical_formula_structural   Ca9Mn(PO4)7
_chemical_formula_sum   'Ca18 Mn2 P14 O56'
_cell_volume   1180.85428294
_cell_formula_units_Z   2
loop_
 _symmetry_equiv_pos_site_id
 _symmetry_equiv_pos_as_xyz
  1  'x, y, z'
loop_
 _atom_site_type_symbol
 _atom_site_label
 _atom_site_symmetry_multiplicity
 _atom_site_fract_x
 _atom_site_fract_y
 _atom_site_fract_z
 _atom_site_occupancy
  Ca  Ca0  1  0.34345500  0.92097900  0.93526600  1
  Ca  Ca1  1  0.09513800  0.06772300  0.64260100  1
  Ca  Ca2  1  0.14260100  0.56772300  0.59513800  1
  Ca  Ca3  1  0.02652400  0.04668600  0.44822600  1
  Ca  Ca4  1  0.43526600  0.42097900  0.84345500  1
  Ca  Ca5  1  0.54668600  0.52652400  0.94822600  1
  Ca  Ca6  1  0.06772300  0.64260100  0.09513800  1
  Ca  Ca7  1  0.52652400  0.94822600  0.54668600  1
  Ca  Ca8  1  0.42097900  0.84345500  0.43526600  1
  Ca  Ca9  1  0.93526600  0.34345500  0.92097900  1
  Ca  Ca10  1  0.04668600  0.44822600  0.02652400  1
  Ca  Ca11  1  0.59513800  0.14260100  0.56772300  1
  Ca  Ca12  1  0.44822600  0.02652400  0.04668600  1
  Ca  Ca13  1  0.56772300  0.59513800  0.14260100  1
  Ca  Ca14  1  0.84345500  0.43526600  0.42097900  1
  Ca  Ca15  1  0.94822600  0.54668600  0.52652400  1
  Ca  Ca16  1  0.92097900  0.93526600  0.34345500  1
  Ca  Ca17  1  0.64260100  0.09513800  0.06772300  1
  Mn  Mn0  1  0.99844300  0.99844300  0.99844300  1
  Mn  Mn1  1  0.49844300  0.49844300  0.49844300  1
  P  P0  1  0.17710400  0.68809200  0.72576700  1
  P  P1  1  0.31325900  0.77614500  0.81505700  1
  P  P2  1  0.31505700  0.27614500  0.81325900  1
  P  P3  1  0.22576700  0.18809200  0.67710400  1
  P  P4  1  0.27614500  0.81325900  0.31505700  1
  P  P5  1  0.18809200  0.67710400  0.22576700  1
  P  P6  1  0.73225700  0.73225700  0.73225700  1
  P  P7  1  0.23225700  0.23225700  0.23225700  1
  P  P8  1  0.72576700  0.17710400  0.68809200  1
  P  P9  1  0.81505700  0.31325900  0.77614500  1
  P  P10  1  0.77614500  0.81505700  0.31325900  1
  P  P11  1  0.67710400  0.22576700  0.18809200  1
  P  P12  1  0.68809200  0.72576700  0.17710400  1
  P  P13  1  0.81325900  0.31505700  0.27614500  1
  O  O0  1  0.13435400  0.86691300  0.88305600  1
  O  O1  1  0.14570700  0.32935300  0.86965000  1
  O  O2  1  0.16438500  0.60909700  0.88732700  1
  O  O3  1  0.12650500  0.11746000  0.85717700  1
  O  O4  1  0.09371800  0.64234500  0.74045500  1
  O  O5  1  0.32711000  0.31108400  0.88619300  1
  O  O6  1  0.35046600  0.60387500  0.91127400  1
  O  O7  1  0.12811100  0.86152800  0.64682100  1
  O  O8  1  0.14682100  0.36152800  0.62811100  1
  O  O9  1  0.41127400  0.10387500  0.85046600  1
  O  O10  1  0.38619300  0.81108400  0.82711000  1
  O  O11  1  0.24045500  0.14234500  0.59371800  1
  O  O12  1  0.10909700  0.66438500  0.38732700  1
  O  O13  1  0.10387500  0.85046600  0.41127400  1
  O  O14  1  0.35717700  0.61746000  0.62650500  1
  O  O15  1  0.60475000  0.74163000  0.88886400  1
  O  O16  1  0.38732700  0.10909700  0.66438500  1
  O  O17  1  0.36965000  0.82935300  0.64570700  1
  O  O18  1  0.38305600  0.36691300  0.63435400  1
  O  O19  1  0.64682100  0.12811100  0.86152800  1
  O  O20  1  0.64570700  0.36965000  0.82935300  1
  O  O21  1  0.24163000  0.10475000  0.38886400  1
  O  O22  1  0.10475000  0.38886400  0.24163000  1
  O  O23  1  0.14234500  0.59371800  0.24045500  1
  O  O24  1  0.36691300  0.63435400  0.38305600  1
  O  O25  1  0.11746000  0.85717700  0.12650500  1
  O  O26  1  0.31108400  0.88619300  0.32711000  1
  O  O27  1  0.69093800  0.69093800  0.69093800  1
  O  O28  1  0.19093800  0.19093800  0.19093800  1
  O  O29  1  0.82711000  0.38619300  0.81108400  1
  O  O30  1  0.62650500  0.35717700  0.61746000  1
  O  O31  1  0.88305600  0.13435400  0.86691300  1
  O  O32  1  0.74045500  0.09371800  0.64234500  1
  O  O33  1  0.74163000  0.88886400  0.60475000  1
  O  O34  1  0.88886400  0.60475000  0.74163000  1
  O  O35  1  0.32935300  0.86965000  0.14570700  1
  O  O36  1  0.36152800  0.62811100  0.14682100  1
  O  O37  1  0.60387500  0.91127400  0.35046600  1
  O  O38  1  0.62811100  0.14682100  0.36152800  1
  O  O39  1  0.61746000  0.62650500  0.35717700  1
  O  O40  1  0.38886400  0.24163000  0.10475000  1
  O  O41  1  0.63435400  0.38305600  0.36691300  1
  O  O42  1  0.91127400  0.35046600  0.60387500  1
  O  O43  1  0.88732700  0.16438500  0.60909700  1
  O  O44  1  0.81108400  0.82711000  0.38619300  1
  O  O45  1  0.59371800  0.24045500  0.14234500  1
  O  O46  1  0.82935300  0.64570700  0.36965000  1
  O  O47  1  0.60909700  0.88732700  0.16438500  1
  O  O48  1  0.66438500  0.38732700  0.10909700  1
  O  O49  1  0.86965000  0.14570700  0.32935300  1
  O  O50  1  0.64234500  0.74045500  0.09371800  1
  O  O51  1  0.88619300  0.32711000  0.31108400  1
  O  O52  1  0.86691300  0.88305600  0.13435400  1
  O  O53  1  0.85717700  0.12650500  0.11746000  1
  O  O54  1  0.86152800  0.64682100  0.12811100  1
  O  O55  1  0.85046600  0.41127400  0.10387500  1
loop_
_geom_bond_atom_site_label_1
_geom_bond_atom_site_label_2
_geom_bond_distance
_geom_bond_site_symmetry_2
Ca0 O35 2.342485 1_556
Ca0 O10 2.380708 1_555
Ca0 O15 2.398678 1_555
Ca0 O16 2.495686 1_565
Ca0 O9 2.507875 1_565
Ca0 O25 2.517517 1_556
Ca0 O3 2.518091 1_565
Ca0 O36 2.769605 1_556
Ca1 O21 2.329723 1_555
Ca1 O11 2.377289 1_555
Ca1 O43 2.414127 1_455
Ca1 O0 2.506935 1_545
Ca1 O31 2.507511 1_455
Ca1 O7 2.518967 1_545
Ca1 O42 2.601792 1_455
Ca1 O17 2.720495 1_545
Ca2 O34 2.329723 1_455
Ca2 O4 2.377289 1_555
Ca2 O12 2.414127 1_555
Ca2 O18 2.506935 1_555
Ca2 O24 2.507511 1_555
Ca2 O8 2.518967 1_555
Ca2 O13 2.601793 1_555
Ca2 O1 2.720495 1_555
Ca3 O13 2.422965 1_545
Ca3 O43 2.432295 1_455
Ca3 O51 2.523855 1_455
Ca3 O7 2.531792 1_545
Ca3 O28 2.562674 1_555
Ca3 O26 2.569363 1_545
Ca3 O32 2.626586 1_455
Ca3 O49 2.642805 1_455
Ca4 O20 2.342485 1_555
Ca4 O5 2.380708 1_555
Ca4 O40 2.398678 1_556
Ca4 O2 2.495686 1_555
Ca4 O6 2.507875 1_555
Ca4 O30 2.517517 1_555
Ca4 O14 2.518091 1_555
Ca4 O19 2.769605 1_555
Ca5 O6 2.422965 1_555
Ca5 O48 2.432295 1_556
Ca5 O29 2.523855 1_555
Ca5 O36 2.531792 1_556
Ca5 O27 2.562674 1_555
Ca5 O10 2.569363 1_555
Ca5 O45 2.626586 1_556
Ca5 O20 2.642805 1_555
Ca6 O22 2.329723 1_555
Ca6 O23 2.377289 1_555
Ca6 O2 2.414127 1_554
Ca6 O52 2.506935 1_455
Ca6 O0 2.507511 1_554
Ca6 O54 2.518967 1_455
Ca6 O6 2.601793 1_554
Ca6 O46 2.720495 1_455
Ca7 O37 2.422965 1_555
Ca7 O16 2.432295 1_565
Ca7 O10 2.523855 1_555
Ca7 O38 2.531792 1_565
Ca7 O27 2.562674 1_555
Ca7 O44 2.569363 1_555
Ca7 O11 2.626586 1_565
Ca7 O17 2.642805 1_555
Ca8 O17 2.342485 1_555
Ca8 O26 2.380708 1_555
Ca8 O21 2.398678 1_565
Ca8 O47 2.495686 1_555
Ca8 O37 2.507875 1_555
Ca8 O14 2.517517 1_555
Ca8 O39 2.518091 1_555
Ca8 O7 2.769605 1_555
Ca9 O1 2.342485 1_655
Ca9 O29 2.380708 1_555
Ca9 O34 2.398678 1_555
Ca9 O48 2.495686 1_556
Ca9 O55 2.507875 1_556
Ca9 O3 2.517517 1_655
Ca9 O53 2.518091 1_556
Ca9 O8 2.769605 1_655
Ca10 O55 2.422965 1_455
Ca10 O2 2.432295 1_554
Ca10 O5 2.523855 1_554
Ca10 O54 2.531792 1_455
Ca10 O28 2.562674 1_555
Ca10 O51 2.569363 1_455
Ca10 O4 2.626586 1_554
Ca10 O1 2.642805 1_554
Ca11 O33 2.329723 1_545
Ca11 O32 2.377289 1_555
Ca11 O16 2.414128 1_555
Ca11 O41 2.506935 1_555
Ca11 O18 2.507511 1_555
Ca11 O38 2.518967 1_555
Ca11 O9 2.601793 1_555
Ca11 O49 2.720496 1_555
Ca12 O9 2.422965 1_554
Ca12 O47 2.432295 1_545
Ca12 O26 2.523855 1_545
Ca12 O19 2.531792 1_554
Ca12 O28 2.562674 1_555
Ca12 O5 2.569363 1_554
Ca12 O50 2.626586 1_545
Ca12 O35 2.642805 1_545
Ca13 O15 2.329723 1_554
Ca13 O50 2.377289 1_555
Ca13 O48 2.414127 1_555
Ca13 O24 2.506935 1_555
Ca13 O41 2.507511 1_555
Ca13 O36 2.518967 1_555
Ca13 O55 2.601792 1_555
Ca13 O35 2.720495 1_555
Ca14 O46 2.342485 1_555
Ca14 O51 2.380708 1_555
Ca14 O22 2.398678 1_655
Ca14 O43 2.495686 1_555
Ca14 O42 2.507875 1_555
Ca14 O39 2.517517 1_555
Ca14 O30 2.518091 1_555
Ca14 O54 2.769605 1_555
Ca15 O42 2.422965 1_555
Ca15 O12 2.432295 1_655
Ca15 O44 2.523855 1_555
Ca15 O8 2.531792 1_655
Ca15 O27 2.562674 1_555
Ca15 O29 2.569363 1_555
Ca15 O23 2.626586 1_655
Ca15 O46 2.642805 1_555
Ca16 O49 2.342485 1_565
Ca16 O44 2.380708 1_555
Ca16 O33 2.398678 1_555
Ca16 O12 2.495686 1_655
Ca16 O13 2.507875 1_655
Ca16 O53 2.517517 1_565
Ca16 O25 2.518091 1_655
Ca16 O38 2.769605 1_565
Ca17 O40 2.329723 1_555
Ca17 O45 2.377289 1_555
Ca17 O47 2.414128 1_545
Ca17 O31 2.506935 1_554
Ca17 O52 2.507511 1_545
Ca17 O19 2.518967 1_554
Ca17 O37 2.601793 1_545
Ca17 O20 2.720496 1_554
Mn0 O53 2.074709 1_566
Mn0 O25 2.074709 1_656
Mn0 O3 2.074709 1_665
Mn0 O0 2.093573 1_655
Mn0 O31 2.093573 1_565
Mn0 O52 2.093573 1_556
Mn1 O30 2.074709 1_555
Mn1 O14 2.074709 1_555
Mn1 O39 2.074709 1_555
Mn1 O24 2.093573 1_555
Mn1 O41 2.093573 1_555
Mn1 O18 2.093573 1_555
O0 P1 1.579847 1_555
O1 P2 1.543619 1_555
O2 P0 1.563929 1_555
O3 P3 1.607579 1_555
O4 P0 1.525032 1_555
O5 P2 1.537649 1_555
O6 P1 1.549845 1_555
O7 P0 1.546848 1_555
O8 P3 1.546848 1_555
O9 P2 1.549845 1_555
O10 P1 1.537649 1_555
O11 P3 1.525032 1_555
O12 P5 1.563929 1_555
O13 P4 1.549845 1_555
O14 P0 1.607579 1_555
O15 P6 1.558221 1_555
O16 P3 1.563929 1_555
O17 P1 1.543619 1_555
O18 P2 1.579847 1_555
O19 P8 1.546848 1_555
O20 P9 1.543619 1_555
O21 P7 1.558221 1_555
O22 P7 1.558221 1_555
O23 P5 1.525032 1_555
O24 P4 1.579847 1_555
O25 P5 1.607579 1_555
O26 P4 1.537649 1_555
O27 P6 1.554389 1_555
O28 P7 1.554389 1_555
O29 P9 1.537649 1_555
O30 P8 1.607579 1_555
O31 P9 1.579847 1_555
O32 P8 1.525032 1_555
O33 P6 1.558221 1_555
O34 P6 1.558221 1_555
O35 P4 1.543619 1_555
O36 P5 1.546848 1_555
O37 P10 1.549845 1_555
O38 P11 1.546848 1_555
O39 P12 1.607579 1_555
O40 P7 1.558221 1_555
O41 P13 1.579847 1_555
O42 P9 1.549845 1_555
O43 P8 1.563929 1_555
O44 P10 1.537649 1_555
O45 P11 1.525032 1_555
O46 P10 1.543619 1_555
O47 P12 1.563929 1_555
O48 P11 1.563929 1_555
O49 P13 1.543619 1_555
O50 P12 1.525032 1_555
O51 P13 1.537649 1_555
O52 P10 1.579847 1_555
O53 P11 1.607579 1_555
O54 P12 1.546848 1_555
O55 P13 1.549845 1_555
