# generated using pymatgen
data_FeOF
_symmetry_space_group_name_H-M   'P 1'
_cell_length_a   5.59112823
_cell_length_b   5.59112823
_cell_length_c   5.59112818
_cell_angle_alpha   55.67780868
_cell_angle_beta   55.67780868
_cell_angle_gamma   55.67780510
_symmetry_Int_Tables_number   1
_chemical_formula_structural   FeOF
_chemical_formula_sum   'Fe3 O3 F3'
_cell_volume   111.19688179
_cell_formula_units_Z   3
loop_
 _symmetry_equiv_pos_site_id
 _symmetry_equiv_pos_as_xyz
  1  'x, y, z'
loop_
 _atom_site_type_symbol
 _atom_site_label
 _atom_site_symmetry_multiplicity
 _atom_site_fract_x
 _atom_site_fract_y
 _atom_site_fract_z
 _atom_site_occupancy
  Fe  Fe0  1  0.86079200  0.86079200  0.86079200  1
  Fe  Fe1  1  0.64207500  0.64207500  0.64207500  1
  Fe  Fe2  1  0.32673100  0.32673100  0.32673100  1
  O  O0  1  0.58992700  0.93586300  0.24828000  1
  O  O1  1  0.24828000  0.58992700  0.93586300  1
  O  O2  1  0.93586300  0.24828000  0.58992700  1
  F  F0  1  0.06089800  0.69277400  0.49386000  1
  F  F1  1  0.69277400  0.49386000  0.06089800  1
  F  F2  1  0.49386000  0.06089800  0.69277400  1
loop_
_geom_bond_atom_site_label_1
_geom_bond_atom_site_label_2
_geom_bond_distance
_geom_bond_site_symmetry_2
Fe0 O1 1.942177 1_655
Fe0 O0 1.942177 1_556
Fe0 O2 1.942177 1_565
Fe1 O2 1.932956 1_555
Fe1 O0 1.932956 1_555
Fe1 O1 1.932956 1_555
Fe2 O0 1.964772 1_545
Fe2 O1 1.964773 1_554
Fe2 O2 1.964773 1_455
F0 Fe2 2.104982 1_555
F0 Fe1 2.132118 1_455
F0 Fe0 2.177810 1_455
F1 Fe2 2.104982 1_555
F1 Fe1 2.132118 1_554
F1 Fe0 2.177810 1_554
F2 Fe2 2.104982 1_555
F2 Fe1 2.132118 1_545
F2 Fe0 2.177810 1_545
