# generated using pymatgen
data_Gd2P4O13
_symmetry_space_group_name_H-M   'P 1'
_cell_length_a   9.76324200
_cell_length_b   8.97906100
_cell_length_c   14.05179805
_cell_angle_alpha   73.35111143
_cell_angle_beta   90.00000000
_cell_angle_gamma   90.00000000
_symmetry_Int_Tables_number   1
_chemical_formula_structural   Gd2P4O13
_chemical_formula_sum   'Gd8 P16 O52'
_cell_volume   1180.20636054
_cell_formula_units_Z   4
loop_
 _symmetry_equiv_pos_site_id
 _symmetry_equiv_pos_as_xyz
  1  'x, y, z'
loop_
 _atom_site_type_symbol
 _atom_site_label
 _atom_site_symmetry_multiplicity
 _atom_site_fract_x
 _atom_site_fract_y
 _atom_site_fract_z
 _atom_site_occupancy
  Gd  Gd0  1  0.00488400  0.97776100  0.72089100  1
  Gd  Gd1  1  0.49511600  0.97776100  0.22089100  1
  Gd  Gd2  1  0.99911700  0.55096400  0.73636300  1
  Gd  Gd3  1  0.49911700  0.44903600  0.76363700  1
  Gd  Gd4  1  0.50088300  0.55096400  0.23636300  1
  Gd  Gd5  1  0.00088300  0.44903600  0.26363700  1
  Gd  Gd6  1  0.50488400  0.02223900  0.77910900  1
  Gd  Gd7  1  0.99511600  0.02223900  0.27910900  1
  P  P0  1  0.23935000  0.85001800  0.93847000  1
  P  P1  1  0.73287700  0.71169000  0.84714100  1
  P  P2  1  0.29271200  0.78247200  0.65622100  1
  P  P3  1  0.26065000  0.85001800  0.43847000  1
  P  P4  1  0.24843500  0.50690400  0.94152000  1
  P  P5  1  0.76712300  0.71169000  0.34714100  1
  P  P6  1  0.20728800  0.78247200  0.15622100  1
  P  P7  1  0.74843500  0.49309600  0.55848000  1
  P  P8  1  0.25156500  0.50690400  0.44152000  1
  P  P9  1  0.79271200  0.21752800  0.84377900  1
  P  P10  1  0.23287700  0.28831000  0.65285900  1
  P  P11  1  0.75156500  0.49309600  0.05848000  1
  P  P12  1  0.73935000  0.14998200  0.56153000  1
  P  P13  1  0.70728800  0.21752800  0.34377900  1
  P  P14  1  0.26712300  0.28831000  0.15285900  1
  P  P15  1  0.76065000  0.14998200  0.06153000  1
  O  O0  1  0.36496900  0.95027900  0.91405400  1
  O  O1  1  0.12423200  0.88538300  0.86479600  1
  O  O2  1  0.66902800  0.85680100  0.86253200  1
  O  O3  1  0.36874800  0.87769900  0.71223500  1
  O  O4  1  0.13503100  0.95027900  0.41405400  1
  O  O5  1  0.32258600  0.86722600  0.53992300  1
  O  O6  1  0.28963100  0.67045400  0.96292900  1
  O  O7  1  0.86369600  0.74752000  0.78149600  1
  O  O8  1  0.13468900  0.78315900  0.67063700  1
  O  O9  1  0.37576800  0.88538300  0.36479600  1
  O  O10  1  0.79364400  0.60380600  0.95221600  1
  O  O11  1  0.83097200  0.85680100  0.36253200  1
  O  O12  1  0.13125200  0.87769900  0.21223500  1
  O  O13  1  0.63043400  0.61593500  0.80886900  1
  O  O14  1  0.12225200  0.53067800  0.87816100  1
  O  O15  1  0.34629300  0.61801700  0.67598800  1
  O  O16  1  0.17741400  0.86722600  0.03992300  1
  O  O17  1  0.21036900  0.67045400  0.46292900  1
  O  O18  1  0.63630400  0.74752000  0.28149600  1
  O  O19  1  0.36531100  0.78315900  0.17063700  1
  O  O20  1  0.87340300  0.55613000  0.59595400  1
  O  O21  1  0.70635600  0.60380600  0.45221600  1
  O  O22  1  0.37340300  0.44387000  0.90404600  1
  O  O23  1  0.84629300  0.38198300  0.82401200  1
  O  O24  1  0.62225200  0.46932200  0.62183900  1
  O  O25  1  0.86956600  0.61593500  0.30886900  1
  O  O26  1  0.13043400  0.38406500  0.69113100  1
  O  O27  1  0.37774800  0.53067800  0.37816100  1
  O  O28  1  0.15370700  0.61801700  0.17598800  1
  O  O29  1  0.62659700  0.55613000  0.09595400  1
  O  O30  1  0.29364400  0.39619400  0.54778400  1
  O  O31  1  0.12659700  0.44387000  0.40404600  1
  O  O32  1  0.63468900  0.21684100  0.82936300  1
  O  O33  1  0.36369600  0.25248000  0.71850400  1
  O  O34  1  0.78963100  0.32954600  0.53707100  1
  O  O35  1  0.82258600  0.13277400  0.96007700  1
  O  O36  1  0.65370700  0.38198300  0.32401200  1
  O  O37  1  0.87774800  0.46932200  0.12183900  1
  O  O38  1  0.36956600  0.38406500  0.19113100  1
  O  O39  1  0.86874800  0.12230100  0.78776500  1
  O  O40  1  0.16902800  0.14319900  0.63746800  1
  O  O41  1  0.20635600  0.39619400  0.04778400  1
  O  O42  1  0.62423200  0.11461700  0.63520400  1
  O  O43  1  0.86531100  0.21684100  0.32936300  1
  O  O44  1  0.13630400  0.25248000  0.21850400  1
  O  O45  1  0.71036900  0.32954600  0.03707100  1
  O  O46  1  0.67741400  0.13277400  0.46007700  1
  O  O47  1  0.86496900  0.04972100  0.58594600  1
  O  O48  1  0.63125200  0.12230100  0.28776500  1
  O  O49  1  0.33097200  0.14319900  0.13746800  1
  O  O50  1  0.87576800  0.11461700  0.13520400  1
  O  O51  1  0.63503100  0.04972100  0.08594600  1
loop_
_geom_bond_atom_site_label_1
_geom_bond_atom_site_label_2
_geom_bond_distance
_geom_bond_site_symmetry_2
Gd0 O39 2.243395 1_465
Gd0 O40 2.269635 1_565
Gd0 O1 2.274564 1_555
Gd0 O47 2.275324 1_465
Gd0 O8 2.421777 1_555
Gd0 O7 2.427029 1_455
Gd1 O48 2.243395 1_565
Gd1 O49 2.269635 1_565
Gd1 O9 2.274564 1_555
Gd1 O51 2.275324 1_565
Gd1 O19 2.421777 1_555
Gd1 O18 2.427029 1_555
Gd2 O26 2.199838 1_655
Gd2 O23 2.230359 1_555
Gd2 O14 2.289238 1_655
Gd2 O20 2.312766 1_555
Gd2 O8 2.418341 1_655
Gd2 O7 2.430326 1_555
Gd3 O13 2.199838 1_555
Gd3 O15 2.230359 1_555
Gd3 O24 2.289238 1_555
Gd3 O22 2.312766 1_555
Gd3 O32 2.418341 1_555
Gd3 O33 2.430326 1_555
Gd4 O38 2.199838 1_555
Gd4 O36 2.230359 1_555
Gd4 O27 2.289238 1_555
Gd4 O29 2.312766 1_555
Gd4 O19 2.418341 1_555
Gd4 O18 2.430326 1_555
Gd5 O25 2.199838 1_455
Gd5 O28 2.230359 1_555
Gd5 O37 2.289238 1_455
Gd5 O31 2.312766 1_555
Gd5 O43 2.418341 1_455
Gd5 O44 2.430326 1_555
Gd6 O3 2.243395 1_545
Gd6 O2 2.269635 1_545
Gd6 O42 2.274564 1_555
Gd6 O0 2.275324 1_545
Gd6 O32 2.421777 1_555
Gd6 O33 2.427029 1_555
Gd7 O12 2.243395 1_645
Gd7 O11 2.269635 1_545
Gd7 O50 2.274564 1_555
Gd7 O4 2.275324 1_645
Gd7 O43 2.421777 1_555
Gd7 O44 2.427029 1_655
O0 P0 1.501783 1_555
O1 P0 1.499139 1_555
O2 P1 1.514775 1_555
O3 P2 1.512405 1_555
O4 P3 1.501783 1_555
O5 P3 1.596270 1_555
O5 P2 1.619316 1_555
O6 P0 1.625160 1_555
O6 P4 1.631559 1_555
O7 P1 1.554225 1_555
O8 P2 1.556301 1_555
O9 P3 1.499139 1_555
O10 P11 1.592500 1_556
O10 P1 1.628135 1_555
O11 P5 1.514775 1_555
O12 P6 1.512405 1_555
O13 P1 1.514517 1_555
O14 P4 1.499009 1_555
O15 P2 1.515350 1_555
O16 P0 1.596270 1_554
O16 P6 1.619316 1_555
O17 P3 1.625160 1_555
O17 P8 1.631559 1_555
O18 P5 1.554225 1_555
O19 P6 1.556301 1_555
O20 P7 1.502341 1_555
O21 P7 1.592500 1_555
O21 P5 1.628135 1_555
O22 P4 1.502341 1_555
O23 P9 1.515350 1_555
O24 P7 1.499009 1_555
O25 P5 1.514517 1_555
O26 P10 1.514517 1_555
O27 P8 1.499009 1_555
O28 P6 1.515350 1_555
O29 P11 1.502341 1_555
O30 P8 1.592500 1_555
O30 P10 1.628135 1_555
O31 P8 1.502341 1_555
O32 P9 1.556301 1_555
O33 P10 1.554225 1_555
O34 P12 1.625160 1_555
O34 P7 1.631559 1_555
O35 P15 1.596270 1_556
O35 P9 1.619316 1_555
O36 P13 1.515350 1_555
O37 P11 1.499009 1_555
O38 P14 1.514517 1_555
O39 P9 1.512405 1_555
O40 P10 1.514775 1_555
O41 P4 1.592500 1_554
O41 P14 1.628135 1_555
O42 P12 1.499139 1_555
O43 P13 1.556301 1_555
O44 P14 1.554225 1_555
O45 P15 1.625160 1_555
O45 P11 1.631559 1_555
O46 P12 1.596270 1_555
O46 P13 1.619316 1_555
O47 P12 1.501783 1_555
O48 P13 1.512405 1_555
O49 P14 1.514775 1_555
O50 P15 1.499139 1_555
O51 P15 1.501783 1_555
