# generated using pymatgen
data_NaCo11O17
_symmetry_space_group_name_H-M   'P 1'
_cell_length_a   5.71751814
_cell_length_b   5.71751814
_cell_length_c   23.00497700
_cell_angle_alpha   90.00000000
_cell_angle_beta   90.00000000
_cell_angle_gamma   120.00000166
_symmetry_Int_Tables_number   1
_chemical_formula_structural   NaCo11O17
_chemical_formula_sum   'Na2 Co22 O34'
_cell_volume   651.27968349
_cell_formula_units_Z   2
loop_
 _symmetry_equiv_pos_site_id
 _symmetry_equiv_pos_as_xyz
  1  'x, y, z'
loop_
 _atom_site_type_symbol
 _atom_site_label
 _atom_site_symmetry_multiplicity
 _atom_site_fract_x
 _atom_site_fract_y
 _atom_site_fract_z
 _atom_site_occupancy
  Na  Na0  1  0.33333300  0.66666700  0.75000000  1
  Na  Na1  1  0.66666700  0.33333300  0.25000000  1
  Co  Co0  1  0.16449900  0.83550100  0.60283200  1
  Co  Co1  1  0.16449900  0.83550100  0.89716800  1
  Co  Co2  1  0.33333300  0.66666700  0.17209300  1
  Co  Co3  1  0.33333300  0.66666700  0.02425600  1
  Co  Co4  1  0.00000000  0.00000000  0.00000000  1
  Co  Co5  1  0.00000000  0.00000000  0.50000000  1
  Co  Co6  1  0.33333300  0.66666700  0.32790700  1
  Co  Co7  1  0.33333300  0.66666700  0.47574400  1
  Co  Co8  1  0.16449900  0.32899800  0.60283200  1
  Co  Co9  1  0.16449900  0.32899800  0.89716800  1
  Co  Co10  1  0.32899800  0.16449900  0.10283200  1
  Co  Co11  1  0.32899800  0.16449900  0.39716800  1
  Co  Co12  1  0.67100200  0.83550100  0.60283200  1
  Co  Co13  1  0.67100200  0.83550100  0.89716800  1
  Co  Co14  1  0.83550100  0.67100200  0.39716800  1
  Co  Co15  1  0.83550100  0.67100200  0.10283200  1
  Co  Co16  1  0.66666700  0.33333300  0.67209300  1
  Co  Co17  1  0.66666700  0.33333300  0.82790700  1
  Co  Co18  1  0.66666700  0.33333300  0.52425600  1
  Co  Co19  1  0.66666700  0.33333300  0.97574400  1
  Co  Co20  1  0.83550100  0.16449900  0.39716800  1
  Co  Co21  1  0.83550100  0.16449900  0.10283200  1
  O  O0  1  0.14827400  0.85172600  0.05369000  1
  O  O1  1  0.98500900  0.49250500  0.35326700  1
  O  O2  1  0.01499100  0.50749500  0.64673300  1
  O  O3  1  0.98500900  0.49250500  0.14673300  1
  O  O4  1  0.14827400  0.85172600  0.44631000  1
  O  O5  1  0.01499100  0.50749500  0.85326700  1
  O  O6  1  0.14827400  0.29654700  0.44631000  1
  O  O7  1  0.33333300  0.66666700  0.25000000  1
  O  O8  1  0.00000000  0.00000000  0.14455600  1
  O  O9  1  0.00000000  0.00000000  0.35544400  1
  O  O10  1  0.00000000  0.00000000  0.64455600  1
  O  O11  1  0.00000000  0.00000000  0.85544400  1
  O  O12  1  0.33333300  0.66666700  0.55956900  1
  O  O13  1  0.33333300  0.66666700  0.94043100  1
  O  O14  1  0.14827400  0.29654700  0.05369000  1
  O  O15  1  0.29654700  0.14827400  0.55369000  1
  O  O16  1  0.29654700  0.14827400  0.94631000  1
  O  O17  1  0.50749500  0.49250500  0.14673300  1
  O  O18  1  0.50749500  0.49250500  0.35326700  1
  O  O19  1  0.49250500  0.50749500  0.64673300  1
  O  O20  1  0.49250500  0.50749500  0.85326700  1
  O  O21  1  0.70345300  0.85172600  0.05369000  1
  O  O22  1  0.70345300  0.85172600  0.44631000  1
  O  O23  1  0.50749500  0.01499100  0.14673300  1
  O  O24  1  0.50749500  0.01499100  0.35326700  1
  O  O25  1  0.49250500  0.98500900  0.64673300  1
  O  O26  1  0.66666700  0.33333300  0.44043100  1
  O  O27  1  0.49250500  0.98500900  0.85326700  1
  O  O28  1  0.66666700  0.33333300  0.75000000  1
  O  O29  1  0.66666700  0.33333300  0.05956900  1
  O  O30  1  0.85172600  0.70345300  0.94631000  1
  O  O31  1  0.85172600  0.70345300  0.55369000  1
  O  O32  1  0.85172600  0.14827400  0.94631000  1
  O  O33  1  0.85172600  0.14827400  0.55369000  1
loop_
_geom_bond_atom_site_label_1
_geom_bond_atom_site_label_2
_geom_bond_distance
_geom_bond_site_symmetry_2
Na0 O27 2.851032 1_555
Na0 O25 2.851032 1_555
Na0 O2 2.851032 1_555
Na0 O5 2.851032 1_555
Na0 O20 2.851037 1_555
Na0 O19 2.851037 1_555
Na1 O1 2.851032 1_555
Na1 O3 2.851032 1_555
Na1 O23 2.851032 1_555
Na1 O24 2.851032 1_555
Na1 O17 2.851037 1_555
Na1 O18 2.851037 1_555
Co0 O10 1.890793 1_565
Co0 O2 1.914325 1_555
Co0 O25 1.914325 1_555
Co0 O31 1.922470 1_455
Co0 O15 1.922470 1_565
Co0 O12 1.945772 1_555
Co1 O11 1.890793 1_565
Co1 O5 1.914325 1_555
Co1 O27 1.914325 1_555
Co1 O30 1.922470 1_455
Co1 O16 1.922470 1_565
Co1 O13 1.945772 1_555
Co2 O7 1.792249 1_555
Co2 O23 1.820731 1_565
Co2 O3 1.820731 1_455
Co2 O17 1.820731 1_555
Co3 O13 1.928392 1_554
Co3 O0 1.953738 1_555
Co3 O21 1.953747 1_555
Co3 O14 1.953747 1_555
Co4 O16 1.918759 1_554
Co4 O30 1.918759 1_444
Co4 O14 1.918759 1_555
Co4 O21 1.918759 1_445
Co4 O32 1.918763 1_454
Co4 O0 1.918763 1_545
Co5 O6 1.918759 1_555
Co5 O22 1.918759 1_445
Co5 O15 1.918759 1_555
Co5 O31 1.918759 1_445
Co5 O4 1.918763 1_545
Co5 O33 1.918763 1_455
Co6 O7 1.792249 1_555
Co6 O24 1.820731 1_565
Co6 O1 1.820731 1_455
Co6 O18 1.820731 1_555
Co7 O12 1.928392 1_555
Co7 O4 1.953738 1_555
Co7 O6 1.953747 1_555
Co7 O22 1.953747 1_555
Co8 O10 1.890793 1_555
Co8 O2 1.914320 1_555
Co8 O19 1.914324 1_555
Co8 O15 1.922466 1_555
Co8 O33 1.922470 1_455
Co8 O12 1.945776 1_555
Co9 O11 1.890793 1_555
Co9 O5 1.914320 1_555
Co9 O20 1.914324 1_555
Co9 O16 1.922466 1_555
Co9 O32 1.922470 1_455
Co9 O13 1.945776 1_555
Co10 O8 1.890793 1_555
Co10 O23 1.914320 1_555
Co10 O17 1.914324 1_555
Co10 O14 1.922466 1_555
Co10 O0 1.922470 1_545
Co10 O29 1.945776 1_555
Co11 O9 1.890793 1_555
Co11 O24 1.914320 1_555
Co11 O18 1.914324 1_555
Co11 O6 1.922466 1_555
Co11 O4 1.922470 1_545
Co11 O26 1.945776 1_555
Co12 O10 1.890793 1_665
Co12 O25 1.914320 1_555
Co12 O19 1.914324 1_555
Co12 O31 1.922466 1_555
Co12 O33 1.922470 1_565
Co12 O12 1.945776 1_555
Co13 O11 1.890793 1_665
Co13 O27 1.914320 1_555
Co13 O20 1.914324 1_555
Co13 O30 1.922466 1_555
Co13 O32 1.922470 1_565
Co13 O13 1.945776 1_555
Co14 O9 1.890793 1_665
Co14 O1 1.914320 1_555
Co14 O18 1.914324 1_555
Co14 O22 1.922466 1_555
Co14 O4 1.922470 1_655
Co14 O26 1.945776 1_555
Co15 O8 1.890793 1_665
Co15 O3 1.914320 1_555
Co15 O17 1.914324 1_555
Co15 O21 1.922466 1_555
Co15 O0 1.922470 1_655
Co15 O29 1.945776 1_555
Co16 O28 1.792249 1_555
Co16 O2 1.820731 1_655
Co16 O25 1.820731 1_545
Co16 O19 1.820731 1_555
Co17 O28 1.792249 1_555
Co17 O5 1.820731 1_655
Co17 O27 1.820731 1_545
Co17 O20 1.820731 1_555
Co18 O26 1.928392 1_555
Co18 O33 1.953738 1_555
Co18 O15 1.953747 1_555
Co18 O31 1.953747 1_555
Co19 O29 1.928392 1_556
Co19 O32 1.953738 1_555
Co19 O16 1.953747 1_555
Co19 O30 1.953747 1_555
Co20 O9 1.890793 1_655
Co20 O24 1.914325 1_555
Co20 O1 1.914325 1_555
Co20 O22 1.922470 1_545
Co20 O6 1.922470 1_655
Co20 O26 1.945772 1_555
Co21 O8 1.890793 1_655
Co21 O23 1.914325 1_555
Co21 O3 1.914325 1_555
Co21 O21 1.922470 1_545
Co21 O14 1.922470 1_655
Co21 O29 1.945772 1_555
