# generated using pymatgen
data_Cr2Fe3Sb(PO4)6
_symmetry_space_group_name_H-M   'P 1'
_cell_length_a   8.58032813
_cell_length_b   8.58032813
_cell_length_c   8.58032817
_cell_angle_alpha   60.66415662
_cell_angle_beta   60.66415662
_cell_angle_gamma   60.66416380
_symmetry_Int_Tables_number   1
_chemical_formula_structural   Cr2Fe3Sb(PO4)6
_chemical_formula_sum   'Cr2 Fe3 Sb1 P6 O24'
_cell_volume   453.37759816
_cell_formula_units_Z   1
loop_
 _symmetry_equiv_pos_site_id
 _symmetry_equiv_pos_as_xyz
  1  'x, y, z'
loop_
 _atom_site_type_symbol
 _atom_site_label
 _atom_site_symmetry_multiplicity
 _atom_site_fract_x
 _atom_site_fract_y
 _atom_site_fract_z
 _atom_site_occupancy
  Cr  Cr0  1  0.99582200  0.99582200  0.99582200  1
  Cr  Cr1  1  0.50176200  0.50176200  0.50176200  1
  Fe  Fe0  1  0.85357900  0.85357900  0.85357900  1
  Fe  Fe1  1  0.64372400  0.64372400  0.64372400  1
  Fe  Fe2  1  0.35550000  0.35550000  0.35550000  1
  Sb  Sb0  1  0.14387600  0.14387600  0.14387600  1
  P  P0  1  0.25350800  0.54674500  0.95088800  1
  P  P1  1  0.74563600  0.45997000  0.04924200  1
  P  P2  1  0.45997000  0.04924200  0.74563600  1
  P  P3  1  0.04924200  0.74563600  0.45997000  1
  P  P4  1  0.95088800  0.25350800  0.54674500  1
  P  P5  1  0.54674500  0.95088800  0.25350800  1
  O  O0  1  0.89953300  0.68510400  0.48536800  1
  O  O1  1  0.68510400  0.48536800  0.89953300  1
  O  O2  1  0.94066200  0.08974900  0.73919100  1
  O  O3  1  0.48536800  0.89953300  0.68510400  1
  O  O4  1  0.99037500  0.18279400  0.38896400  1
  O  O5  1  0.75322900  0.40701900  0.55600700  1
  O  O6  1  0.73919100  0.94066200  0.08974900  1
  O  O7  1  0.55600700  0.75322900  0.40701900  1
  O  O8  1  0.81878300  0.60991000  0.00869500  1
  O  O9  1  0.40701900  0.55600700  0.75322900  1
  O  O10  1  0.91142900  0.25434700  0.06862200  1
  O  O11  1  0.60991000  0.00869500  0.81878300  1
  O  O12  1  0.38896400  0.99037500  0.18279400  1
  O  O13  1  0.08974900  0.73919100  0.94066200  1
  O  O14  1  0.59297500  0.43806400  0.25283000  1
  O  O15  1  0.18279400  0.38896400  0.99037500  1
  O  O16  1  0.43806400  0.25283000  0.59297500  1
  O  O17  1  0.25434700  0.06862200  0.91142900  1
  O  O18  1  0.25283000  0.59297500  0.43806400  1
  O  O19  1  0.00869500  0.81878300  0.60991000  1
  O  O20  1  0.49703400  0.10906400  0.31999500  1
  O  O21  1  0.06862200  0.91142900  0.25434700  1
  O  O22  1  0.31999500  0.49703400  0.10906400  1
  O  O23  1  0.10906400  0.31999500  0.49703400  1
loop_
_geom_bond_atom_site_label_1
_geom_bond_atom_site_label_2
_geom_bond_distance
_geom_bond_site_symmetry_2
Cr0 O6 2.151924 1_556
Cr0 O2 2.151924 1_565
Cr0 O13 2.151924 1_655
Cr0 O17 2.275008 1_665
Cr0 O21 2.275008 1_656
Cr0 O10 2.275008 1_566
Cr1 O7 2.104190 1_555
Cr1 O9 2.104190 1_555
Cr1 O5 2.104190 1_555
Cr1 O16 2.135450 1_555
Cr1 O14 2.135450 1_555
Cr1 O18 2.135450 1_555
Fe0 O8 1.930668 1_556
Fe0 O19 1.930669 1_655
Fe0 O11 1.930669 1_565
Fe0 O2 2.108126 1_565
Fe0 O6 2.108126 1_556
Fe0 O13 2.108126 1_655
Fe1 O0 2.039262 1_555
Fe1 O1 2.039262 1_555
Fe1 O3 2.039262 1_555
Fe1 O9 2.123514 1_555
Fe1 O7 2.123514 1_555
Fe1 O5 2.123514 1_555
Fe2 O23 1.947115 1_555
Fe2 O22 1.947115 1_555
Fe2 O20 1.947115 1_555
Fe2 O14 2.115146 1_555
Fe2 O16 2.115146 1_555
Fe2 O18 2.115147 1_555
O0 P3 1.495280 1_655
O1 P1 1.495280 1_556
O2 P4 1.553719 1_555
O3 P2 1.495280 1_565
O4 P4 1.571542 1_555
O4 Sb0 1.952368 1_655
O5 P4 1.548939 1_555
O6 P5 1.553719 1_555
O7 P5 1.548939 1_555
O8 P1 1.519469 1_555
O9 P0 1.548939 1_555
O10 P1 1.627624 1_555
O10 Sb0 2.025603 1_655
O11 P2 1.519469 1_555
O12 P5 1.571542 1_555
O12 Sb0 1.952368 1_565
O13 P0 1.553719 1_555
O14 P1 1.574819 1_555
O15 P0 1.571542 1_555
O15 Sb0 1.952368 1_556
O16 P2 1.574819 1_555
O17 P2 1.627624 1_555
O17 Sb0 2.025603 1_556
O18 P3 1.574819 1_555
O19 P3 1.519469 1_555
O20 P5 1.517358 1_545
O21 P3 1.627624 1_555
O21 Sb0 2.025603 1_565
O22 P0 1.517358 1_554
O23 P4 1.517358 1_455
