# generated using pymatgen
data_Li4V3Cr2Fe3O16
_symmetry_space_group_name_H-M   'P 1'
_cell_length_a   5.90769900
_cell_length_b   5.92176247
_cell_length_c   9.58969289
_cell_angle_alpha   90.80305608
_cell_angle_beta   90.14097378
_cell_angle_gamma   119.85877982
_symmetry_Int_Tables_number   1
_chemical_formula_structural   Li4V3Cr2Fe3O16
_chemical_formula_sum   'Li4 V3 Cr2 Fe3 O16'
_cell_volume   290.90591033
_cell_formula_units_Z   1
loop_
 _symmetry_equiv_pos_site_id
 _symmetry_equiv_pos_as_xyz
  1  'x, y, z'
loop_
 _atom_site_type_symbol
 _atom_site_label
 _atom_site_symmetry_multiplicity
 _atom_site_fract_x
 _atom_site_fract_y
 _atom_site_fract_z
 _atom_site_occupancy
  Li  Li0  1  0.66683900  0.33896900  0.10624100  1
  Li  Li1  1  0.00032800  0.99634600  0.00346200  1
  Li  Li2  1  0.99809700  0.00226100  0.50389300  1
  Li  Li3  1  0.34045800  0.67841600  0.60550300  1
  V  V0  1  0.65720800  0.83938000  0.28593300  1
  V  V1  1  0.83089500  0.66146200  0.78792700  1
  V  V2  1  0.15965800  0.82460400  0.28949000  1
  Cr  Cr0  1  0.66748800  0.33223100  0.51566300  1
  Cr  Cr1  1  0.33077100  0.65616500  0.01580700  1
  Fe  Fe0  1  0.83407200  0.17167900  0.78553200  1
  Fe  Fe1  1  0.33902200  0.17004100  0.78568300  1
  Fe  Fe2  1  0.17264200  0.33759000  0.28661300  1
  O  O0  1  0.83420400  0.16306300  0.39861800  1
  O  O1  1  0.52398600  0.04534600  0.65831400  1
  O  O2  1  0.68005700  0.35680800  0.89710900  1
  O  O3  1  0.99086400  0.98134300  0.68978300  1
  O  O4  1  0.99421900  0.99231000  0.18931400  1
  O  O5  1  0.32584300  0.14400000  0.39745900  1
  O  O6  1  0.96290500  0.49697300  0.66115900  1
  O  O7  1  0.53382000  0.49529500  0.66166700  1
  O  O8  1  0.16045600  0.31957800  0.90192900  1
  O  O9  1  0.82721400  0.67297800  0.39304500  1
  O  O10  1  0.47918600  0.51834600  0.15988900  1
  O  O11  1  0.04148400  0.53761400  0.16208100  1
  O  O12  1  0.33780100  0.67232800  0.39899300  1
  O  O13  1  0.66876400  0.81600000  0.89491500  1
  O  O14  1  0.49229600  0.96168900  0.16155500  1
  O  O15  1  0.14972100  0.81718700  0.89458200  1
loop_
_geom_bond_atom_site_label_1
_geom_bond_atom_site_label_2
_geom_bond_distance
_geom_bond_site_symmetry_2
Li0 O10 1.944745 1_555
Li0 O11 1.988272 1_655
Li0 O2 2.009435 1_554
Li0 O14 2.019436 1_545
Li1 O4 1.782972 1_455
Li1 O8 1.939203 1_564
Li1 O15 1.974980 1_554
Li1 O13 1.984123 1_454
Li2 O3 1.787799 1_545
Li2 O0 1.950280 1_555
Li2 O5 1.977563 1_655
Li2 O9 1.981886 1_545
Li3 O1 1.942687 1_565
Li3 O12 1.980072 1_555
Li3 O7 2.004420 1_555
Li3 O6 2.012446 1_455
Cr0 O1 2.028048 1_555
Cr0 O0 2.046898 1_555
Cr0 O6 2.049115 1_555
Cr0 O7 2.059903 1_555
Cr0 O5 2.077074 1_555
Cr0 O9 2.126204 1_555
Cr1 O10 2.020421 1_555
Cr1 O8 2.028404 1_554
Cr1 O11 2.055717 1_555
Cr1 O14 2.083485 1_555
Cr1 O13 2.094570 1_554
Cr1 O15 2.108356 1_554
Fe0 O3 1.996560 1_545
Fe0 O1 2.000669 1_555
Fe0 O8 2.002834 1_655
Fe0 O2 2.034634 1_555
Fe0 O6 2.078822 1_555
Fe0 O13 2.123468 1_545
Fe1 O3 1.999562 1_445
Fe1 O1 2.003965 1_555
Fe1 O8 2.011956 1_555
Fe1 O2 2.040016 1_555
Fe1 O7 2.076626 1_555
Fe1 O15 2.108898 1_545
Fe2 O4 1.989474 1_445
Fe2 O10 2.004818 1_555
Fe2 O12 2.012912 1_555
Fe2 O0 2.050244 1_455
Fe2 O5 2.079865 1_555
Fe2 O11 2.092499 1_555
O0 V0 1.968705 1_545
O2 V1 1.897850 1_555
O3 V1 1.907608 1_555
O4 V2 1.962904 1_655
O4 V0 1.969722 1_555
O5 V2 1.924676 1_545
O6 V1 1.939775 1_555
O7 V1 1.936746 1_555
O9 V2 1.981988 1_655
O9 V0 2.010853 1_555
O10 V0 2.029709 1_555
O11 V2 1.903856 1_555
O12 V0 1.973874 1_555
O12 V2 1.997370 1_555
O13 V1 1.912811 1_555
O14 V0 1.901977 1_555
O14 V2 2.115946 1_555
O15 V1 1.918005 1_455
