# generated using pymatgen
data_Li2AlFeO4
_symmetry_space_group_name_H-M   'P 1'
_cell_length_a   5.03397800
_cell_length_b   10.10768600
_cell_length_c   14.28422600
_cell_angle_alpha   90.00000000
_cell_angle_beta   90.00000000
_cell_angle_gamma   90.00000000
_symmetry_Int_Tables_number   1
_chemical_formula_structural   Li2AlFeO4
_chemical_formula_sum   'Li16 Al8 Fe8 O32'
_cell_volume   726.80811545
_cell_formula_units_Z   8
loop_
 _symmetry_equiv_pos_site_id
 _symmetry_equiv_pos_as_xyz
  1  'x, y, z'
loop_
 _atom_site_type_symbol
 _atom_site_label
 _atom_site_symmetry_multiplicity
 _atom_site_fract_x
 _atom_site_fract_y
 _atom_site_fract_z
 _atom_site_occupancy
  Li  Li0  1  0.05758700  0.99032500  0.56294300  1
  Li  Li1  1  0.54482000  0.98856800  0.93822300  1
  Li  Li2  1  0.96591700  0.20808300  0.20524200  1
  Li  Li3  1  0.47423200  0.20632800  0.30880300  1
  Li  Li4  1  0.96591700  0.29191700  0.70524200  1
  Li  Li5  1  0.47423200  0.29367200  0.80880300  1
  Li  Li6  1  0.54482000  0.51143200  0.43822300  1
  Li  Li7  1  0.05758700  0.50967500  0.06294300  1
  Li  Li8  1  0.45518000  0.48856800  0.93822300  1
  Li  Li9  1  0.94241300  0.49032500  0.56294300  1
  Li  Li10  1  0.52576800  0.70632800  0.30880300  1
  Li  Li11  1  0.03408300  0.70808300  0.20524200  1
  Li  Li12  1  0.52576800  0.79367200  0.80880300  1
  Li  Li13  1  0.03408300  0.79191700  0.70524200  1
  Li  Li14  1  0.45518000  0.01143200  0.43822300  1
  Li  Li15  1  0.94241300  0.00967500  0.06294300  1
  Al  Al0  1  0.05493300  0.02099000  0.81193700  1
  Al  Al1  1  0.99067800  0.22558100  0.43084100  1
  Al  Al2  1  0.99067800  0.27441900  0.93084100  1
  Al  Al3  1  0.05493300  0.47901000  0.31193700  1
  Al  Al4  1  0.94506700  0.52099000  0.81193700  1
  Al  Al5  1  0.00932200  0.72558100  0.43084100  1
  Al  Al6  1  0.00932200  0.77441900  0.93084100  1
  Al  Al7  1  0.94506700  0.97901000  0.31193700  1
  Fe  Fe0  1  0.54916100  0.02662900  0.69169300  1
  Fe  Fe1  1  0.49025500  0.22434500  0.06272400  1
  Fe  Fe2  1  0.49025500  0.27565500  0.56272400  1
  Fe  Fe3  1  0.54916100  0.47337100  0.19169300  1
  Fe  Fe4  1  0.45083900  0.52662900  0.69169300  1
  Fe  Fe5  1  0.50974500  0.72434500  0.06272400  1
  Fe  Fe6  1  0.50974500  0.77565500  0.56272400  1
  Fe  Fe7  1  0.45083900  0.97337100  0.19169300  1
  O  O0  1  0.28804700  0.02541500  0.30654100  1
  O  O1  1  0.81848600  0.01672900  0.19791200  1
  O  O2  1  0.79048300  0.09294200  0.38999900  1
  O  O3  1  0.30298200  0.06595000  0.08801200  1
  O  O4  1  0.12986500  0.19049100  0.83177200  1
  O  O5  1  0.61603000  0.21216500  0.68206300  1
  O  O6  1  0.24432100  0.15698800  0.50474500  1
  O  O7  1  0.77537500  0.15980900  0.98814800  1
  O  O8  1  0.24432100  0.34301200  0.00474500  1
  O  O9  1  0.77537500  0.34019100  0.48814800  1
  O  O10  1  0.12986500  0.30950900  0.33177200  1
  O  O11  1  0.61603000  0.28783500  0.18206300  1
  O  O12  1  0.30298200  0.43405000  0.58801200  1
  O  O13  1  0.79048300  0.40705800  0.88999900  1
  O  O14  1  0.28804700  0.47458500  0.80654100  1
  O  O15  1  0.81848600  0.48327100  0.69791200  1
  O  O16  1  0.18151400  0.51672900  0.19791200  1
  O  O17  1  0.71195300  0.52541500  0.30654100  1
  O  O18  1  0.20951700  0.59294200  0.38999900  1
  O  O19  1  0.69701800  0.56595000  0.08801200  1
  O  O20  1  0.38397000  0.71216500  0.68206300  1
  O  O21  1  0.87013500  0.69049100  0.83177200  1
  O  O22  1  0.22462500  0.65980900  0.98814800  1
  O  O23  1  0.75567900  0.65698800  0.50474500  1
  O  O24  1  0.22462500  0.84019100  0.48814800  1
  O  O25  1  0.75567900  0.84301200  0.00474500  1
  O  O26  1  0.38397000  0.78783500  0.18206300  1
  O  O27  1  0.87013500  0.80950900  0.33177200  1
  O  O28  1  0.69701800  0.93405000  0.58801200  1
  O  O29  1  0.20951700  0.90705800  0.88999900  1
  O  O30  1  0.18151400  0.98327100  0.69791200  1
  O  O31  1  0.71195300  0.97458500  0.80654100  1
loop_
_geom_bond_atom_site_label_1
_geom_bond_atom_site_label_2
_geom_bond_distance
_geom_bond_site_symmetry_2
Li0 O28 1.935549 1_455
Li0 O30 2.027603 1_555
Li0 O24 2.037483 1_555
Li0 O6 2.100598 1_565
Li1 O29 2.000578 1_555
Li1 O25 2.047959 1_556
Li1 O31 2.065406 1_555
Li1 O7 2.202595 1_565
Li1 O3 2.582986 1_566
Li2 O11 1.965119 1_555
Li2 O1 2.074293 1_555
Li2 O10 2.235793 1_655
Li3 O10 2.049507 1_555
Li3 O0 2.055068 1_555
Li3 O11 2.113228 1_555
Li3 O2 2.278844 1_555
Li4 O5 1.965119 1_555
Li4 O15 2.074293 1_555
Li4 O4 2.235793 1_655
Li5 O4 2.049507 1_555
Li5 O14 2.055068 1_555
Li5 O5 2.113228 1_555
Li5 O13 2.278844 1_555
Li6 O18 2.000578 1_555
Li6 O23 2.047959 1_555
Li6 O17 2.065406 1_555
Li6 O9 2.202595 1_555
Li6 O12 2.582986 1_555
Li7 O19 1.935549 1_455
Li7 O16 2.027603 1_555
Li7 O22 2.037483 1_554
Li7 O8 2.100598 1_555
Li8 O13 2.000578 1_555
Li8 O8 2.047959 1_556
Li8 O14 2.065406 1_555
Li8 O22 2.202595 1_555
Li8 O19 2.582986 1_556
Li9 O12 1.935549 1_655
Li9 O15 2.027603 1_555
Li9 O9 2.037483 1_555
Li9 O23 2.100598 1_555
Li10 O27 2.049507 1_555
Li10 O17 2.055068 1_555
Li10 O26 2.113228 1_555
Li10 O18 2.278844 1_555
Li11 O26 1.965119 1_555
Li11 O16 2.074293 1_555
Li11 O27 2.235793 1_455
Li12 O21 2.049507 1_555
Li12 O31 2.055068 1_555
Li12 O20 2.113228 1_555
Li12 O29 2.278844 1_555
Li13 O20 1.965119 1_555
Li13 O30 2.074293 1_555
Li13 O21 2.235793 1_455
Li14 O2 2.000578 1_555
Li14 O6 2.047959 1_555
Li14 O0 2.065406 1_555
Li14 O24 2.202595 1_545
Li14 O28 2.582986 1_545
Li15 O3 1.935549 1_655
Li15 O1 2.027603 1_555
Li15 O7 2.037483 1_554
Li15 O25 2.100598 1_545
Al0 O4 1.777028 1_555
Al0 O29 1.781869 1_545
Al0 O30 1.790039 1_545
Al0 O31 1.790791 1_445
Al1 O2 1.775773 1_555
Al1 O9 1.785150 1_555
Al1 O10 1.792526 1_655
Al1 O6 1.795943 1_655
Al2 O13 1.775773 1_555
Al2 O7 1.785150 1_555
Al2 O4 1.792526 1_655
Al2 O8 1.795943 1_656
Al3 O10 1.777028 1_555
Al3 O18 1.781869 1_555
Al3 O16 1.790039 1_555
Al3 O17 1.790791 1_455
Al4 O21 1.777028 1_555
Al4 O13 1.781869 1_555
Al4 O15 1.790039 1_555
Al4 O14 1.790791 1_655
Al5 O18 1.775773 1_555
Al5 O24 1.785150 1_555
Al5 O27 1.792526 1_455
Al5 O23 1.795943 1_455
Al6 O29 1.775773 1_555
Al6 O22 1.785150 1_555
Al6 O21 1.792526 1_455
Al6 O25 1.795943 1_456
Al7 O27 1.777028 1_555
Al7 O2 1.781869 1_565
Al7 O1 1.790039 1_565
Al7 O0 1.790791 1_665
Fe0 O28 1.903421 1_545
Fe0 O30 1.903981 1_545
Fe0 O31 1.907768 1_545
Fe0 O5 1.910270 1_555
Fe1 O3 1.892733 1_555
Fe1 O7 1.902719 1_554
Fe1 O8 1.912401 1_555
Fe1 O11 1.928364 1_555
Fe2 O12 1.892733 1_555
Fe2 O9 1.902719 1_555
Fe2 O6 1.912401 1_555
Fe2 O5 1.928364 1_555
Fe3 O19 1.903421 1_555
Fe3 O16 1.903981 1_555
Fe3 O17 1.907768 1_555
Fe3 O11 1.910270 1_555
Fe4 O12 1.903421 1_555
Fe4 O15 1.903981 1_555
Fe4 O14 1.907768 1_555
Fe4 O20 1.910270 1_555
Fe5 O19 1.892733 1_555
Fe5 O22 1.902719 1_554
Fe5 O25 1.912401 1_555
Fe5 O26 1.928364 1_555
Fe6 O28 1.892733 1_555
Fe6 O24 1.902719 1_555
Fe6 O23 1.912401 1_555
Fe6 O20 1.928364 1_555
Fe7 O3 1.903421 1_565
Fe7 O1 1.903981 1_565
Fe7 O0 1.907768 1_565
Fe7 O26 1.910270 1_555
