# generated using pymatgen
data_WO5
_symmetry_space_group_name_H-M   'P 1'
_cell_length_a   4.00176500
_cell_length_b   8.18119800
_cell_length_c   12.47660966
_cell_angle_alpha   73.18152065
_cell_angle_beta   90.00000000
_cell_angle_gamma   90.00000000
_symmetry_Int_Tables_number   1
_chemical_formula_structural   WO5
_chemical_formula_sum   'W4 O20'
_cell_volume   391.00261573
_cell_formula_units_Z   4
loop_
 _symmetry_equiv_pos_site_id
 _symmetry_equiv_pos_as_xyz
  1  'x, y, z'
loop_
 _atom_site_type_symbol
 _atom_site_label
 _atom_site_symmetry_multiplicity
 _atom_site_fract_x
 _atom_site_fract_y
 _atom_site_fract_z
 _atom_site_occupancy
  W  W0  1  0.43650300  0.10625800  0.06262100  1
  W  W1  1  0.93650300  0.89374200  0.93737900  1
  W  W2  1  0.58404400  0.38603700  0.44528500  1
  W  W3  1  0.08404400  0.61396300  0.55471500  1
  O  O0  1  0.44694300  0.98118400  0.20142600  1
  O  O1  1  0.94694300  0.01881600  0.79857400  1
  O  O2  1  0.51791500  0.49877300  0.30433700  1
  O  O3  1  0.01791500  0.50122700  0.69566300  1
  O  O4  1  0.93985500  0.06100000  0.03177900  1
  O  O5  1  0.43985500  0.93900000  0.96822100  1
  O  O6  1  0.06599400  0.43254800  0.47256200  1
  O  O7  1  0.56599400  0.56745200  0.52743800  1
  O  O8  1  0.45744800  0.31284400  0.92090300  1
  O  O9  1  0.95744800  0.68715600  0.07909700  1
  O  O10  1  0.51426000  0.18647000  0.57192100  1
  O  O11  1  0.01426000  0.81353000  0.42807900  1
  O  O12  1  0.59761000  0.32190200  0.10440100  1
  O  O13  1  0.09761000  0.67809800  0.89559900  1
  O  O14  1  0.42905000  0.16428900  0.39889100  1
  O  O15  1  0.92905000  0.83571100  0.60110900  1
  O  O16  1  0.26024600  0.31978800  0.10183800  1
  O  O17  1  0.76024600  0.68021200  0.89816200  1
  O  O18  1  0.75013200  0.18251300  0.37882400  1
  O  O19  1  0.25013200  0.81748700  0.62117600  1
loop_
_geom_bond_atom_site_label_1
_geom_bond_atom_site_label_2
_geom_bond_distance
_geom_bond_site_symmetry_2
O0 W0 1.738536 1_565
O1 W1 1.738536 1_545
O2 W2 1.753459 1_555
O3 W3 1.753459 1_555
O4 W1 2.047547 1_544
O4 W0 2.077896 1_655
O4 W0 2.103571 1_555
O5 W0 2.047547 1_566
O5 W1 2.077896 1_555
O5 W1 2.103571 1_455
O6 W2 2.013764 1_455
O6 W3 2.034450 1_555
O6 W2 2.152523 1_555
O7 W3 2.013764 1_555
O7 W2 2.034450 1_555
O7 W3 2.152523 1_655
O8 W0 2.064120 1_556
O9 W1 2.064120 1_554
O10 W2 1.935783 1_555
O11 W3 1.935783 1_555
O12 O16 1.350659 1_555
O12 W0 2.081359 1_555
O13 O17 1.350659 1_455
O13 W1 2.081359 1_455
O14 O18 1.309300 1_555
O14 W2 2.149101 1_555
O15 O19 1.309300 1_655
O15 W3 2.149101 1_655
O16 W0 2.069618 1_555
O17 W1 2.069618 1_555
O18 W2 2.168127 1_555
O19 W3 2.168127 1_555
