# generated using pymatgen
data_LiMnBO3
_symmetry_space_group_name_H-M   'P 1'
_cell_length_a   5.83329900
_cell_length_b   6.02167400
_cell_length_c   13.02833100
_cell_angle_alpha   90.00000000
_cell_angle_beta   90.00000000
_cell_angle_gamma   90.00000000
_symmetry_Int_Tables_number   1
_chemical_formula_structural   LiMnBO3
_chemical_formula_sum   'Li8 Mn8 B8 O24'
_cell_volume   457.63608507
_cell_formula_units_Z   8
loop_
 _symmetry_equiv_pos_site_id
 _symmetry_equiv_pos_as_xyz
  1  'x, y, z'
loop_
 _atom_site_type_symbol
 _atom_site_label
 _atom_site_symmetry_multiplicity
 _atom_site_fract_x
 _atom_site_fract_y
 _atom_site_fract_z
 _atom_site_occupancy
  Li  Li0  1  0.48811300  0.78219600  0.24749000  1
  Li  Li1  1  0.98811300  0.71780400  0.24749000  1
  Li  Li2  1  0.48811300  0.28219600  0.25251000  1
  Li  Li3  1  0.98811300  0.21780400  0.25251000  1
  Li  Li4  1  0.01188700  0.78219600  0.74749000  1
  Li  Li5  1  0.51188700  0.71780400  0.74749000  1
  Li  Li6  1  0.01188700  0.28219600  0.75251000  1
  Li  Li7  1  0.51188700  0.21780400  0.75251000  1
  Mn  Mn0  1  0.74895000  0.99072800  0.06735900  1
  Mn  Mn1  1  0.24895000  0.50927200  0.06735900  1
  Mn  Mn2  1  0.24895000  0.00927200  0.43264100  1
  Mn  Mn3  1  0.74895000  0.49072800  0.43264100  1
  Mn  Mn4  1  0.75105000  0.99072800  0.56735900  1
  Mn  Mn5  1  0.25105000  0.50927200  0.56735900  1
  Mn  Mn6  1  0.75105000  0.49072800  0.93264100  1
  Mn  Mn7  1  0.25105000  0.00927200  0.93264100  1
  B  B0  1  0.74848800  0.48461900  0.14617200  1
  B  B1  1  0.24848800  0.01538100  0.14617200  1
  B  B2  1  0.74848800  0.98461900  0.35382800  1
  B  B3  1  0.24848800  0.51538100  0.35382800  1
  B  B4  1  0.75151200  0.48461900  0.64617200  1
  B  B5  1  0.25151200  0.01538100  0.64617200  1
  B  B6  1  0.75151200  0.98461900  0.85382800  1
  B  B7  1  0.25151200  0.51538100  0.85382800  1
  O  O0  1  0.58961100  0.35691100  0.09195700  1
  O  O1  1  0.08961100  0.14308900  0.09195700  1
  O  O2  1  0.39171200  0.87224000  0.09061900  1
  O  O3  1  0.89171200  0.62776000  0.09061900  1
  O  O4  1  0.76309800  0.97138300  0.24883000  1
  O  O5  1  0.26309800  0.52861700  0.24883000  1
  O  O6  1  0.76309800  0.47138300  0.25117000  1
  O  O7  1  0.26309800  0.02861700  0.25117000  1
  O  O8  1  0.39171200  0.37224000  0.40938100  1
  O  O9  1  0.89171200  0.12776000  0.40938100  1
  O  O10  1  0.58961100  0.85691100  0.40804300  1
  O  O11  1  0.08961100  0.64308900  0.40804300  1
  O  O12  1  0.91038900  0.35691100  0.59195700  1
  O  O13  1  0.41038900  0.14308900  0.59195700  1
  O  O14  1  0.10828800  0.87224000  0.59061900  1
  O  O15  1  0.60828800  0.62776000  0.59061900  1
  O  O16  1  0.73690200  0.97138300  0.74883000  1
  O  O17  1  0.23690200  0.52861700  0.74883000  1
  O  O18  1  0.73690200  0.47138300  0.75117000  1
  O  O19  1  0.23690200  0.02861700  0.75117000  1
  O  O20  1  0.10828800  0.37224000  0.90938100  1
  O  O21  1  0.60828800  0.12776000  0.90938100  1
  O  O22  1  0.91038900  0.85691100  0.90804300  1
  O  O23  1  0.41038900  0.64308900  0.90804300  1
loop_
_geom_bond_atom_site_label_1
_geom_bond_atom_site_label_2
_geom_bond_distance
_geom_bond_site_symmetry_2
Li0 O4 1.967529 1_555
Li0 O7 1.981672 1_565
Li0 O5 2.013655 1_555
Li0 O2 2.187968 1_555
Li0 O10 2.219984 1_555
Li0 O6 2.465417 1_555
Li1 O5 1.967529 1_655
Li1 O6 1.981672 1_555
Li1 O4 2.013655 1_555
Li1 O3 2.187968 1_555
Li1 O11 2.219984 1_655
Li1 O7 2.465417 1_665
Li2 O6 1.967529 1_555
Li2 O5 1.981672 1_555
Li2 O7 2.013655 1_555
Li2 O8 2.187968 1_555
Li2 O0 2.219984 1_555
Li2 O4 2.465417 1_545
Li3 O7 1.967529 1_655
Li3 O4 1.981672 1_545
Li3 O6 2.013655 1_555
Li3 O9 2.187968 1_555
Li3 O1 2.219984 1_655
Li3 O5 2.465417 1_655
Li4 O16 1.967529 1_455
Li4 O19 1.981672 1_565
Li4 O17 2.013655 1_555
Li4 O14 2.187968 1_555
Li4 O22 2.219984 1_455
Li4 O18 2.465417 1_455
Li5 O17 1.967529 1_555
Li5 O18 1.981672 1_555
Li5 O16 2.013655 1_555
Li5 O15 2.187968 1_555
Li5 O23 2.219984 1_555
Li5 O19 2.465417 1_565
Li6 O18 1.967529 1_455
Li6 O17 1.981672 1_555
Li6 O19 2.013655 1_555
Li6 O20 2.187968 1_555
Li6 O12 2.219984 1_455
Li6 O16 2.465417 1_445
Li7 O19 1.967529 1_555
Li7 O16 1.981672 1_545
Li7 O18 2.013655 1_555
Li7 O21 2.187968 1_555
Li7 O13 2.219984 1_555
Li7 O17 2.465417 1_555
Mn0 O1 2.212086 1_665
Mn0 O2 2.223387 1_555
Mn0 O3 2.358499 1_555
Mn0 O21 2.364381 1_564
Mn0 O4 2.368571 1_555
Mn0 O0 2.414290 1_565
Mn0 O22 2.417512 1_554
Mn1 O0 2.212086 1_555
Mn1 O3 2.223387 1_455
Mn1 O2 2.358499 1_555
Mn1 O20 2.364381 1_554
Mn1 O5 2.368571 1_555
Mn1 O1 2.414290 1_555
Mn1 O23 2.417512 1_554
Mn2 O10 2.212086 1_545
Mn2 O9 2.223387 1_455
Mn2 O8 2.358499 1_555
Mn2 O14 2.364381 1_545
Mn2 O7 2.368571 1_555
Mn2 O11 2.414290 1_545
Mn2 O13 2.417512 1_555
Mn3 O11 2.212086 1_655
Mn3 O8 2.223387 1_555
Mn3 O9 2.358499 1_555
Mn3 O15 2.364381 1_555
Mn3 O6 2.368571 1_555
Mn3 O10 2.414290 1_555
Mn3 O12 2.417512 1_555
Mn4 O13 2.212086 1_565
Mn4 O14 2.223387 1_655
Mn4 O15 2.358499 1_555
Mn4 O9 2.364381 1_565
Mn4 O16 2.368571 1_555
Mn4 O12 2.414290 1_565
Mn4 O10 2.417512 1_555
Mn5 O12 2.212086 1_455
Mn5 O15 2.223387 1_555
Mn5 O14 2.358499 1_555
Mn5 O8 2.364381 1_555
Mn5 O17 2.368571 1_555
Mn5 O13 2.414290 1_555
Mn5 O11 2.417512 1_555
Mn6 O23 2.212086 1_555
Mn6 O20 2.223387 1_655
Mn6 O21 2.358499 1_555
Mn6 O3 2.364381 1_556
Mn6 O18 2.368571 1_555
Mn6 O22 2.414290 1_555
Mn6 O0 2.417512 1_556
Mn7 O22 2.212086 1_445
Mn7 O21 2.223387 1_555
Mn7 O20 2.358499 1_555
Mn7 O2 2.364381 1_546
Mn7 O19 2.368571 1_555
Mn7 O23 2.414290 1_545
Mn7 O1 2.417512 1_556
B0 O6 1.372916 1_555
B0 O0 1.396139 1_555
B0 O3 1.401712 1_555
B1 O7 1.372916 1_555
B1 O1 1.396139 1_555
B1 O2 1.401712 1_545
B2 O4 1.372916 1_555
B2 O10 1.396139 1_555
B2 O9 1.401712 1_565
B3 O5 1.372916 1_555
B3 O11 1.396139 1_555
B3 O8 1.401712 1_555
B4 O18 1.372916 1_555
B4 O12 1.396139 1_555
B4 O15 1.401712 1_555
B5 O19 1.372916 1_555
B5 O13 1.396139 1_555
B5 O14 1.401712 1_545
B6 O16 1.372916 1_555
B6 O22 1.396139 1_555
B6 O21 1.401712 1_565
B7 O17 1.372916 1_555
B7 O23 1.396139 1_555
B7 O20 1.401712 1_555
