# generated using pymatgen
data_LiMnPO4
_symmetry_space_group_name_H-M   'P 1'
_cell_length_a   7.49297100
_cell_length_b   8.88510900
_cell_length_c   17.65054200
_cell_angle_alpha   60.72143653
_cell_angle_beta   90.00000000
_cell_angle_gamma   90.00000000
_symmetry_Int_Tables_number   1
_chemical_formula_structural   LiMnPO4
_chemical_formula_sum   'Li12 Mn12 P12 O48'
_cell_volume   1024.98376142
_cell_formula_units_Z   12
loop_
 _symmetry_equiv_pos_site_id
 _symmetry_equiv_pos_as_xyz
  1  'x, y, z'
loop_
 _atom_site_type_symbol
 _atom_site_label
 _atom_site_symmetry_multiplicity
 _atom_site_fract_x
 _atom_site_fract_y
 _atom_site_fract_z
 _atom_site_occupancy
  Li  Li0  1  0.98161000  0.29494900  0.92894900  1
  Li  Li1  1  0.01916600  0.64392200  0.58656800  1
  Li  Li2  1  0.00498700  0.00184400  0.23777700  1
  Li  Li3  1  0.50498700  0.99815600  0.26222300  1
  Li  Li4  1  0.51916600  0.35607800  0.91343200  1
  Li  Li5  1  0.48161000  0.70505100  0.57105100  1
  Li  Li6  1  0.51839000  0.29494900  0.42894900  1
  Li  Li7  1  0.48083400  0.64392200  0.08656800  1
  Li  Li8  1  0.49501300  0.00184400  0.73777700  1
  Li  Li9  1  0.99501300  0.99815600  0.76222300  1
  Li  Li10  1  0.98083400  0.35607800  0.41343200  1
  Li  Li11  1  0.01839000  0.70505100  0.07105100  1
  Mn  Mn0  1  0.69084000  0.65141700  0.40889500  1
  Mn  Mn1  1  0.80357500  0.31812400  0.76281000  1
  Mn  Mn2  1  0.68586700  0.01398500  0.08231500  1
  Mn  Mn3  1  0.18586700  0.98601500  0.41768500  1
  Mn  Mn4  1  0.30357500  0.68187600  0.73719000  1
  Mn  Mn5  1  0.19084000  0.34858300  0.09110500  1
  Mn  Mn6  1  0.80916000  0.65141700  0.90889500  1
  Mn  Mn7  1  0.69642500  0.31812400  0.26281000  1
  Mn  Mn8  1  0.81413300  0.01398500  0.58231500  1
  Mn  Mn9  1  0.31413300  0.98601500  0.91768500  1
  Mn  Mn10  1  0.19642500  0.68187600  0.23719000  1
  Mn  Mn11  1  0.30916000  0.34858300  0.59110500  1
  P  P0  1  0.26000300  0.64897300  0.40801000  1
  P  P1  1  0.22879400  0.31076400  0.76988900  1
  P  P2  1  0.25705100  0.03740200  0.07403500  1
  P  P3  1  0.75705100  0.96259800  0.42596500  1
  P  P4  1  0.72879400  0.68923600  0.73011100  1
  P  P5  1  0.76000300  0.35102700  0.09199000  1
  P  P6  1  0.23999700  0.64897300  0.90801000  1
  P  P7  1  0.27120600  0.31076400  0.26988900  1
  P  P8  1  0.24294900  0.03740200  0.57403500  1
  P  P9  1  0.74294900  0.96259800  0.92596500  1
  P  P10  1  0.77120600  0.68923600  0.23011100  1
  P  P11  1  0.73999700  0.35102700  0.59199000  1
  O  O0  1  0.43689200  0.56624300  0.39907800  1
  O  O1  1  0.88852200  0.41102500  0.63338800  1
  O  O2  1  0.38532400  0.25404100  0.83653700  1
  O  O3  1  0.21722800  0.59196700  0.50430900  1
  O  O4  1  0.78395400  0.09338200  0.95831800  1
  O  O5  1  0.76307100  0.79659400  0.27861500  1
  O  O6  1  0.26012700  0.94130800  0.17513400  1
  O  O7  1  0.05428700  0.26479900  0.82480500  1
  O  O8  1  0.43881400  0.12927900  0.03733000  1
  O  O9  1  0.23205400  0.50480400  0.70055200  1
  O  O10  1  0.11417200  0.18337500  0.04172100  1
  O  O11  1  0.27511200  0.84976200  0.35600000  1
  O  O12  1  0.77511200  0.15023800  0.14400000  1
  O  O13  1  0.61417200  0.81662500  0.45827900  1
  O  O14  1  0.73205400  0.49519600  0.79944800  1
  O  O15  1  0.93881400  0.87072100  0.46267000  1
  O  O16  1  0.55428700  0.73520100  0.67519500  1
  O  O17  1  0.76012700  0.05869200  0.32486600  1
  O  O18  1  0.26307100  0.20340600  0.22138500  1
  O  O19  1  0.28395400  0.90661800  0.54168200  1
  O  O20  1  0.71722800  0.40803300  0.99569100  1
  O  O21  1  0.88532400  0.74595900  0.66346300  1
  O  O22  1  0.38852200  0.58897500  0.86661200  1
  O  O23  1  0.93689200  0.43375700  0.10092200  1
  O  O24  1  0.06310800  0.56624300  0.89907800  1
  O  O25  1  0.61147800  0.41102500  0.13338800  1
  O  O26  1  0.11467600  0.25404100  0.33653700  1
  O  O27  1  0.28277200  0.59196700  0.00430900  1
  O  O28  1  0.71604600  0.09338200  0.45831800  1
  O  O29  1  0.73692900  0.79659400  0.77861500  1
  O  O30  1  0.23987300  0.94130800  0.67513400  1
  O  O31  1  0.44571300  0.26479900  0.32480500  1
  O  O32  1  0.06118600  0.12927900  0.53733000  1
  O  O33  1  0.26794600  0.50480400  0.20055200  1
  O  O34  1  0.38582800  0.18337500  0.54172100  1
  O  O35  1  0.22488800  0.84976200  0.85600000  1
  O  O36  1  0.72488800  0.15023800  0.64400000  1
  O  O37  1  0.76794600  0.49519600  0.29944800  1
  O  O38  1  0.88582800  0.81662500  0.95827900  1
  O  O39  1  0.56118600  0.87072100  0.96267000  1
  O  O40  1  0.94571300  0.73520100  0.17519500  1
  O  O41  1  0.73987300  0.05869200  0.82486600  1
  O  O42  1  0.23692900  0.20340600  0.72138500  1
  O  O43  1  0.21604600  0.90661800  0.04168200  1
  O  O44  1  0.78277200  0.40803300  0.49569100  1
  O  O45  1  0.61467600  0.74595900  0.16346300  1
  O  O46  1  0.11147800  0.58897500  0.36661200  1
  O  O47  1  0.56310800  0.43375700  0.60092200  1
loop_
_geom_bond_atom_site_label_1
_geom_bond_atom_site_label_2
_geom_bond_distance
_geom_bond_site_symmetry_2
Li0 O10 2.000336 1_656
Li0 O7 2.056438 1_655
Li0 O4 2.182105 1_555
Li0 O24 2.284339 1_655
Li1 O1 2.061703 1_455
Li1 O21 2.207566 1_455
Li1 O15 2.212526 1_455
Li1 O3 2.275786 1_555
Li1 O9 2.384887 1_555
Li2 O12 2.304423 1_455
Li2 O6 2.397571 1_545
Li2 O5 2.417717 1_445
Li2 O18 2.554185 1_555
Li2 O17 2.596858 1_455
Li3 O11 2.304423 1_555
Li3 O17 2.397571 1_565
Li3 O18 2.417717 1_565
Li3 O5 2.554185 1_555
Li3 O6 2.596858 1_555
Li4 O22 2.061703 1_555
Li4 O2 2.207566 1_555
Li4 O8 2.212526 1_556
Li4 O20 2.275786 1_555
Li4 O14 2.384887 1_555
Li5 O13 2.000336 1_555
Li5 O16 2.056438 1_555
Li5 O19 2.182105 1_555
Li5 O47 2.284339 1_555
Li6 O34 2.000336 1_555
Li6 O31 2.056438 1_555
Li6 O28 2.182105 1_555
Li6 O0 2.284339 1_555
Li7 O25 2.061703 1_555
Li7 O45 2.207566 1_555
Li7 O39 2.212526 1_554
Li7 O27 2.275786 1_555
Li7 O33 2.384887 1_555
Li8 O36 2.304423 1_555
Li8 O30 2.397571 1_545
Li8 O29 2.417717 1_545
Li8 O42 2.554185 1_555
Li8 O41 2.596858 1_555
Li9 O35 2.304423 1_655
Li9 O41 2.397571 1_565
Li9 O42 2.417717 1_665
Li9 O29 2.554185 1_555
Li9 O30 2.596858 1_655
Li10 O46 2.061703 1_655
Li10 O26 2.207566 1_655
Li10 O32 2.212526 1_655
Li10 O44 2.275786 1_555
Li10 O37 2.384887 1_555
Li11 O38 2.000336 1_454
Li11 O40 2.056438 1_455
Li11 O43 2.182105 1_555
Li11 O23 2.284339 1_455
Mn0 O44 2.063365 1_555
Mn0 O5 2.084061 1_555
Mn0 O0 2.086084 1_555
Mn0 O13 2.120375 1_555
Mn1 O14 2.043485 1_555
Mn1 O41 2.066741 1_555
Mn1 O7 2.108034 1_655
Mn1 O1 2.111988 1_555
Mn2 O8 2.076310 1_555
Mn2 O4 2.077907 1_554
Mn2 O12 2.094625 1_555
Mn2 O45 2.161253 1_545
Mn3 O15 2.076310 1_455
Mn3 O19 2.077907 1_555
Mn3 O11 2.094625 1_555
Mn3 O26 2.161253 1_565
Mn4 O9 2.043485 1_555
Mn4 O30 2.066741 1_555
Mn4 O16 2.108034 1_555
Mn4 O22 2.111988 1_555
Mn5 O27 2.063365 1_555
Mn5 O18 2.084061 1_555
Mn5 O23 2.086084 1_455
Mn5 O10 2.120375 1_555
Mn6 O20 2.063365 1_555
Mn6 O29 2.084061 1_555
Mn6 O24 2.086084 1_655
Mn6 O38 2.120375 1_555
Mn7 O37 2.043485 1_555
Mn7 O17 2.066741 1_555
Mn7 O31 2.108034 1_555
Mn7 O25 2.111988 1_555
Mn8 O32 2.076310 1_655
Mn8 O28 2.077907 1_555
Mn8 O36 2.094625 1_555
Mn8 O21 2.161253 1_545
Mn9 O39 2.076310 1_555
Mn9 O43 2.077907 1_556
Mn9 O35 2.094625 1_555
Mn9 O2 2.161253 1_565
Mn10 O33 2.043485 1_555
Mn10 O6 2.066741 1_555
Mn10 O40 2.108034 1_455
Mn10 O46 2.111988 1_555
Mn11 O3 2.063365 1_555
Mn11 O42 2.084061 1_555
Mn11 O47 2.086084 1_555
Mn11 O34 2.120375 1_555
O0 P0 1.560537 1_555
O1 P11 1.561293 1_555
O2 P1 1.559997 1_555
O3 P0 1.551218 1_555
O4 P9 1.555591 1_545
O5 P10 1.563755 1_555
O6 P2 1.556778 1_565
O7 P1 1.558488 1_555
O8 P2 1.556833 1_555
O9 P1 1.551446 1_555
O10 P2 1.558873 1_555
O11 P0 1.560903 1_555
O12 P5 1.560903 1_555
O13 P3 1.558873 1_555
O14 P4 1.551446 1_555
O15 P3 1.556833 1_555
O16 P4 1.558488 1_555
O17 P3 1.556778 1_545
O18 P7 1.563755 1_555
O19 P8 1.555591 1_565
O20 P5 1.551218 1_556
O21 P4 1.559997 1_555
O22 P6 1.561293 1_555
O23 P5 1.560537 1_555
O24 P6 1.560537 1_555
O25 P5 1.561293 1_555
O26 P7 1.559997 1_555
O27 P6 1.551218 1_554
O28 P3 1.555591 1_545
O29 P4 1.563755 1_555
O30 P8 1.556778 1_565
O31 P7 1.558488 1_555
O32 P8 1.556833 1_555
O33 P7 1.551446 1_555
O34 P8 1.558873 1_555
O35 P6 1.560903 1_555
O36 P11 1.560903 1_555
O37 P10 1.551446 1_555
O38 P9 1.558873 1_555
O39 P9 1.556833 1_555
O40 P10 1.558488 1_555
O41 P9 1.556778 1_545
O42 P1 1.563755 1_555
O43 P2 1.555591 1_565
O44 P11 1.551218 1_555
O45 P10 1.559997 1_555
O46 P0 1.561293 1_555
O47 P11 1.560537 1_555
