# generated using pymatgen
data_Li4CaNiO4
_symmetry_space_group_name_H-M   'P 1'
_cell_length_a   5.00787200
_cell_length_b   9.27622800
_cell_length_c   18.01066500
_cell_angle_alpha   90.00000000
_cell_angle_beta   90.00000000
_cell_angle_gamma   90.00000000
_symmetry_Int_Tables_number   1
_chemical_formula_structural   Li4CaNiO4
_chemical_formula_sum   'Li32 Ca8 Ni8 O32'
_cell_volume   836.67035805
_cell_formula_units_Z   8
loop_
 _symmetry_equiv_pos_site_id
 _symmetry_equiv_pos_as_xyz
  1  'x, y, z'
loop_
 _atom_site_type_symbol
 _atom_site_label
 _atom_site_symmetry_multiplicity
 _atom_site_fract_x
 _atom_site_fract_y
 _atom_site_fract_z
 _atom_site_occupancy
  Li  Li0  1  0.68880700  0.85331800  0.41101300  1
  Li  Li1  1  0.81119300  0.85331800  0.91101300  1
  Li  Li2  1  0.57578600  0.95570100  0.28669000  1
  Li  Li3  1  0.92421400  0.95570100  0.78669000  1
  Li  Li4  1  0.99646800  0.82508600  0.31898300  1
  Li  Li5  1  0.50353200  0.82508600  0.81898300  1
  Li  Li6  1  0.18929100  0.80665100  0.18738100  1
  Li  Li7  1  0.31070900  0.80665100  0.68738100  1
  Li  Li8  1  0.68929100  0.69334900  0.18738100  1
  Li  Li9  1  0.81070900  0.69334900  0.68738100  1
  Li  Li10  1  0.49646800  0.67491400  0.31898300  1
  Li  Li11  1  0.00353200  0.67491400  0.81898300  1
  Li  Li12  1  0.07578600  0.54429900  0.28669000  1
  Li  Li13  1  0.42421400  0.54429900  0.78669000  1
  Li  Li14  1  0.31119300  0.64668200  0.91101300  1
  Li  Li15  1  0.18880700  0.64668200  0.41101300  1
  Li  Li16  1  0.68880700  0.35331800  0.08898700  1
  Li  Li17  1  0.81119300  0.35331800  0.58898700  1
  Li  Li18  1  0.57578600  0.45570100  0.21331000  1
  Li  Li19  1  0.92421400  0.45570100  0.71331000  1
  Li  Li20  1  0.99646800  0.32508600  0.18101700  1
  Li  Li21  1  0.50353200  0.32508600  0.68101700  1
  Li  Li22  1  0.18929100  0.30665100  0.31261900  1
  Li  Li23  1  0.31070900  0.30665100  0.81261900  1
  Li  Li24  1  0.68929100  0.19334900  0.31261900  1
  Li  Li25  1  0.81070900  0.19334900  0.81261900  1
  Li  Li26  1  0.00353200  0.17491400  0.68101700  1
  Li  Li27  1  0.49646800  0.17491400  0.18101700  1
  Li  Li28  1  0.42421400  0.04429900  0.71331000  1
  Li  Li29  1  0.07578600  0.04429900  0.21331000  1
  Li  Li30  1  0.31119300  0.14668200  0.58898700  1
  Li  Li31  1  0.18880700  0.14668200  0.08898700  1
  Ca  Ca0  1  0.24117700  0.87671600  0.51523400  1
  Ca  Ca1  1  0.25882300  0.87671600  0.01523400  1
  Ca  Ca2  1  0.74117700  0.62328400  0.51523400  1
  Ca  Ca3  1  0.75882300  0.62328400  0.01523400  1
  Ca  Ca4  1  0.24117700  0.37671600  0.98476600  1
  Ca  Ca5  1  0.25882300  0.37671600  0.48476600  1
  Ca  Ca6  1  0.74117700  0.12328400  0.98476600  1
  Ca  Ca7  1  0.75882300  0.12328400  0.48476600  1
  Ni  Ni0  1  0.71838600  0.95094600  0.12474500  1
  Ni  Ni1  1  0.78161400  0.95094600  0.62474500  1
  Ni  Ni2  1  0.21838600  0.54905400  0.12474500  1
  Ni  Ni3  1  0.28161400  0.54905400  0.62474500  1
  Ni  Ni4  1  0.71838600  0.45094600  0.37525500  1
  Ni  Ni5  1  0.78161400  0.45094600  0.87525500  1
  Ni  Ni6  1  0.21838600  0.04905400  0.37525500  1
  Ni  Ni7  1  0.28161400  0.04905400  0.87525500  1
  O  O0  1  0.32392100  0.96681200  0.13281000  1
  O  O1  1  0.17607900  0.96681200  0.63281000  1
  O  O2  1  0.75843800  0.87610200  0.01949300  1
  O  O3  1  0.74156200  0.87610200  0.51949300  1
  O  O4  1  0.84514900  0.86815800  0.22088800  1
  O  O5  1  0.65485100  0.86815800  0.72088800  1
  O  O6  1  0.33058700  0.84111100  0.37405900  1
  O  O7  1  0.16941300  0.84111100  0.87405900  1
  O  O8  1  0.83058700  0.65888900  0.37405900  1
  O  O9  1  0.66941300  0.65888900  0.87405900  1
  O  O10  1  0.34514900  0.63184200  0.22088800  1
  O  O11  1  0.15485100  0.63184200  0.72088800  1
  O  O12  1  0.25843800  0.62389800  0.01949300  1
  O  O13  1  0.24156200  0.62389800  0.51949300  1
  O  O14  1  0.82392100  0.53318800  0.13281000  1
  O  O15  1  0.67607900  0.53318800  0.63281000  1
  O  O16  1  0.32392100  0.46681200  0.36719000  1
  O  O17  1  0.17607900  0.46681200  0.86719000  1
  O  O18  1  0.74156200  0.37610200  0.98050700  1
  O  O19  1  0.75843800  0.37610200  0.48050700  1
  O  O20  1  0.84514900  0.36815800  0.27911200  1
  O  O21  1  0.65485100  0.36815800  0.77911200  1
  O  O22  1  0.33058700  0.34111100  0.12594100  1
  O  O23  1  0.16941300  0.34111100  0.62594100  1
  O  O24  1  0.66941300  0.15888900  0.62594100  1
  O  O25  1  0.83058700  0.15888900  0.12594100  1
  O  O26  1  0.34514900  0.13184200  0.27911200  1
  O  O27  1  0.15485100  0.13184200  0.77911200  1
  O  O28  1  0.25843800  0.12389800  0.48050700  1
  O  O29  1  0.24156200  0.12389800  0.98050700  1
  O  O30  1  0.82392100  0.03318800  0.36719000  1
  O  O31  1  0.67607900  0.03318800  0.86719000  1
loop_
_geom_bond_atom_site_label_1
_geom_bond_atom_site_label_2
_geom_bond_distance
_geom_bond_site_symmetry_2
Li0 O6 1.916755 1_555
Li0 O30 1.965894 1_565
Li0 O3 1.982874 1_555
Li0 O8 2.049380 1_555
Li1 O7 1.916755 1_655
Li1 O31 1.965894 1_565
Li1 O2 1.982874 1_556
Li1 O9 2.049380 1_555
Li2 O4 1.970694 1_555
Li2 O26 2.005583 1_565
Li2 O30 2.040311 1_565
Li2 O6 2.261377 1_555
Li3 O5 1.970694 1_555
Li3 O27 2.005583 1_665
Li3 O31 2.040311 1_565
Li3 O7 2.261377 1_655
Li4 O6 1.950835 1_655
Li4 O4 1.963493 1_555
Li4 O8 2.012669 1_555
Li4 O30 2.286252 1_565
Li5 O7 1.950835 1_555
Li5 O5 1.963493 1_555
Li5 O9 2.012669 1_555
Li5 O31 2.286252 1_565
Li6 O10 1.898126 1_555
Li6 O0 1.904691 1_555
Li6 O4 1.913086 1_455
Li7 O11 1.898126 1_555
Li7 O1 1.904691 1_555
Li7 O5 1.913086 1_555
Li8 O4 1.898126 1_555
Li8 O14 1.904691 1_555
Li8 O10 1.913086 1_555
Li9 O5 1.898126 1_555
Li9 O15 1.904691 1_555
Li9 O11 1.913086 1_655
Li10 O8 1.950835 1_555
Li10 O10 1.963493 1_555
Li10 O6 2.012669 1_555
Li10 O16 2.286252 1_555
Li11 O9 1.950835 1_455
Li11 O11 1.963493 1_555
Li11 O7 2.012669 1_555
Li11 O17 2.286252 1_555
Li12 O10 1.970694 1_555
Li12 O20 2.005583 1_455
Li12 O16 2.040311 1_555
Li12 O8 2.261377 1_455
Li13 O11 1.970694 1_555
Li13 O21 2.005583 1_555
Li13 O17 2.040311 1_555
Li13 O9 2.261377 1_555
Li14 O9 1.916755 1_555
Li14 O17 1.965894 1_555
Li14 O12 1.982874 1_556
Li14 O7 2.049380 1_555
Li15 O8 1.916755 1_455
Li15 O16 1.965894 1_555
Li15 O13 1.982874 1_555
Li15 O6 2.049380 1_555
Li16 O22 1.916755 1_555
Li16 O14 1.965894 1_555
Li16 O18 1.982874 1_554
Li16 O25 2.049380 1_555
Li17 O23 1.916755 1_655
Li17 O15 1.965894 1_555
Li17 O19 1.982874 1_555
Li17 O24 2.049380 1_555
Li18 O20 1.970694 1_555
Li18 O10 2.005583 1_555
Li18 O14 2.040311 1_555
Li18 O22 2.261377 1_555
Li19 O21 1.970694 1_555
Li19 O11 2.005583 1_655
Li19 O15 2.040311 1_555
Li19 O23 2.261377 1_655
Li20 O22 1.950835 1_655
Li20 O20 1.963493 1_555
Li20 O25 2.012669 1_555
Li20 O14 2.286252 1_555
Li21 O23 1.950835 1_555
Li21 O21 1.963493 1_555
Li21 O24 2.012669 1_555
Li21 O15 2.286252 1_555
Li22 O26 1.898126 1_555
Li22 O16 1.904691 1_555
Li22 O20 1.913086 1_455
Li23 O27 1.898126 1_555
Li23 O17 1.904691 1_555
Li23 O21 1.913086 1_555
Li24 O20 1.898126 1_555
Li24 O30 1.904691 1_555
Li24 O26 1.913086 1_555
Li25 O21 1.898126 1_555
Li25 O31 1.904691 1_555
Li25 O27 1.913086 1_655
Li26 O24 1.950835 1_455
Li26 O27 1.963493 1_555
Li26 O23 2.012669 1_555
Li26 O1 2.286252 1_545
Li27 O25 1.950835 1_555
Li27 O26 1.963493 1_555
Li27 O22 2.012669 1_555
Li27 O0 2.286252 1_545
Li28 O27 1.970694 1_555
Li28 O5 2.005583 1_545
Li28 O1 2.040311 1_545
Li28 O24 2.261377 1_555
Li29 O26 1.970694 1_555
Li29 O4 2.005583 1_445
Li29 O0 2.040311 1_545
Li29 O25 2.261377 1_455
Li30 O24 1.916755 1_555
Li30 O1 1.965894 1_545
Li30 O28 1.982874 1_555
Li30 O23 2.049380 1_555
Li31 O25 1.916755 1_455
Li31 O0 1.965894 1_545
Li31 O29 1.982874 1_554
Li31 O22 2.049380 1_555
Ca0 O1 2.299800 1_555
Ca0 O13 2.346452 1_555
Ca0 O28 2.378263 1_565
Ca0 O3 2.503190 1_455
Ca0 O3 2.507044 1_555
Ca0 O6 2.602819 1_555
Ca1 O0 2.299800 1_555
Ca1 O12 2.346452 1_555
Ca1 O29 2.378263 1_564
Ca1 O2 2.503190 1_555
Ca1 O2 2.507044 1_455
Ca1 O7 2.602819 1_554
Ca2 O15 2.299800 1_555
Ca2 O3 2.346452 1_555
Ca2 O19 2.378263 1_555
Ca2 O13 2.503190 1_555
Ca2 O13 2.507044 1_655
Ca2 O8 2.602819 1_555
Ca3 O14 2.299800 1_555
Ca3 O2 2.346452 1_555
Ca3 O18 2.378263 1_554
Ca3 O12 2.503190 1_655
Ca3 O12 2.507044 1_555
Ca3 O9 2.602819 1_554
Ca4 O17 2.299800 1_555
Ca4 O29 2.346452 1_555
Ca4 O12 2.378263 1_556
Ca4 O18 2.503190 1_455
Ca4 O18 2.507044 1_555
Ca4 O22 2.602819 1_556
Ca5 O16 2.299800 1_555
Ca5 O28 2.346452 1_555
Ca5 O13 2.378263 1_555
Ca5 O19 2.503190 1_555
Ca5 O19 2.507044 1_455
Ca5 O23 2.602819 1_555
Ca6 O31 2.299800 1_555
Ca6 O18 2.346452 1_555
Ca6 O2 2.378263 1_546
Ca6 O29 2.503190 1_555
Ca6 O29 2.507044 1_655
Ca6 O25 2.602819 1_556
Ca7 O30 2.299800 1_555
Ca7 O19 2.346452 1_555
Ca7 O3 2.378263 1_545
Ca7 O28 2.503190 1_655
Ca7 O28 2.507044 1_555
Ca7 O24 2.602819 1_555
Ni0 O0 1.986224 1_555
Ni0 O4 1.997796 1_555
Ni0 O25 2.009214 1_565
Ni0 O2 2.028734 1_555
Ni1 O1 1.986224 1_655
Ni1 O5 1.997796 1_555
Ni1 O24 2.009214 1_565
Ni1 O3 2.028734 1_555
Ni2 O14 1.986224 1_455
Ni2 O10 1.997796 1_555
Ni2 O22 2.009214 1_555
Ni2 O12 2.028734 1_555
Ni3 O15 1.986224 1_555
Ni3 O11 1.997796 1_555
Ni3 O23 2.009214 1_555
Ni3 O13 2.028734 1_555
Ni4 O16 1.986224 1_555
Ni4 O20 1.997796 1_555
Ni4 O8 2.009214 1_555
Ni4 O19 2.028734 1_555
Ni5 O17 1.986224 1_655
Ni5 O21 1.997796 1_555
Ni5 O9 2.009214 1_555
Ni5 O18 2.028734 1_555
Ni6 O30 1.986224 1_455
Ni6 O26 1.997796 1_555
Ni6 O6 2.009214 1_545
Ni6 O28 2.028734 1_555
Ni7 O31 1.986224 1_555
Ni7 O27 1.997796 1_555
Ni7 O7 2.009214 1_545
Ni7 O29 2.028734 1_555
