# generated using pymatgen
data_Li2BiBO5
_symmetry_space_group_name_H-M   'P 1'
_cell_length_a   6.29804600
_cell_length_b   6.29804600
_cell_length_c   4.74691400
_cell_angle_alpha   90.00000000
_cell_angle_beta   90.00000000
_cell_angle_gamma   90.00000000
_symmetry_Int_Tables_number   1
_chemical_formula_structural   Li2BiBO5
_chemical_formula_sum   'Li4 Bi2 B2 O10'
_cell_volume   188.28816386
_cell_formula_units_Z   2
loop_
 _symmetry_equiv_pos_site_id
 _symmetry_equiv_pos_as_xyz
  1  'x, y, z'
loop_
 _atom_site_type_symbol
 _atom_site_label
 _atom_site_symmetry_multiplicity
 _atom_site_fract_x
 _atom_site_fract_y
 _atom_site_fract_z
 _atom_site_occupancy
  Li  Li0  1  0.75000000  0.25000000  0.00000000  1
  Li  Li1  1  0.25000000  0.25000000  0.00000000  1
  Li  Li2  1  0.25000000  0.75000000  0.00000000  1
  Li  Li3  1  0.75000000  0.75000000  0.00000000  1
  Bi  Bi0  1  0.00000000  0.50000000  0.54817300  1
  Bi  Bi1  1  0.50000000  0.00000000  0.45182700  1
  B  B0  1  0.50000000  0.50000000  0.50000000  1
  B  B1  1  0.00000000  0.00000000  0.50000000  1
  O  O0  1  0.50000000  0.31922400  0.29852300  1
  O  O1  1  0.00000000  0.50000000  0.11939600  1
  O  O2  1  0.31922400  0.50000000  0.70147700  1
  O  O3  1  0.68077600  0.50000000  0.70147700  1
  O  O4  1  0.50000000  0.68077600  0.29852300  1
  O  O5  1  0.00000000  0.81922400  0.70147700  1
  O  O6  1  0.81922400  0.00000000  0.29852300  1
  O  O7  1  0.18077600  0.00000000  0.29852300  1
  O  O8  1  0.50000000  0.00000000  0.88060400  1
  O  O9  1  0.00000000  0.18077600  0.70147700  1
loop_
_geom_bond_atom_site_label_1
_geom_bond_atom_site_label_2
_geom_bond_distance
_geom_bond_site_symmetry_2
Li0 O9 2.162690 1_654
Li0 O6 2.162690 1_555
Li0 O0 2.162690 1_555
Li0 O3 2.162690 1_554
Li0 O1 2.297693 1_655
Li0 O8 2.297693 1_554
Li1 O2 2.162690 1_554
Li1 O9 2.162690 1_554
Li1 O0 2.162690 1_555
Li1 O7 2.162690 1_555
Li1 O1 2.297693 1_555
Li1 O8 2.297693 1_554
Li2 O2 2.162690 1_554
Li2 O5 2.162690 1_554
Li2 O7 2.162690 1_565
Li2 O4 2.162690 1_555
Li2 O1 2.297693 1_555
Li2 O8 2.297693 1_564
Li3 O6 2.162690 1_565
Li3 O5 2.162690 1_654
Li3 O3 2.162690 1_554
Li3 O4 2.162690 1_555
Li3 O1 2.297693 1_655
Li3 O8 2.297693 1_564
Bi0 O1 2.035368 1_555
Bi0 O5 2.138139 1_555
Bi0 O2 2.138139 1_555
Bi0 O9 2.138139 1_555
Bi0 O3 2.138139 1_455
Bi1 O8 2.035368 1_555
Bi1 O7 2.138139 1_555
Bi1 O6 2.138139 1_555
Bi1 O0 2.138139 1_555
Bi1 O4 2.138139 1_545
B0 O3 1.486927 1_555
B0 O4 1.486927 1_555
B0 O0 1.486927 1_555
B0 O2 1.486927 1_555
B1 O7 1.486927 1_555
B1 O9 1.486927 1_555
B1 O5 1.486927 1_545
B1 O6 1.486927 1_455
