# generated using pymatgen
data_Sn(PO3)4
_symmetry_space_group_name_H-M   'P 1'
_cell_length_a   7.54529807
_cell_length_b   7.54529807
_cell_length_c   10.12879353
_cell_angle_alpha   67.99654384
_cell_angle_beta   67.99654384
_cell_angle_gamma   66.99573709
_symmetry_Int_Tables_number   1
_chemical_formula_structural   Sn(PO3)4
_chemical_formula_sum   'Sn2 P8 O24'
_cell_volume   474.20155232
_cell_formula_units_Z   2
loop_
 _symmetry_equiv_pos_site_id
 _symmetry_equiv_pos_as_xyz
  1  'x, y, z'
loop_
 _atom_site_type_symbol
 _atom_site_label
 _atom_site_symmetry_multiplicity
 _atom_site_fract_x
 _atom_site_fract_y
 _atom_site_fract_z
 _atom_site_occupancy
  Sn  Sn0  1  0.50000000  0.00000000  0.00000000  1
  Sn  Sn1  1  0.00000000  0.50000000  0.50000000  1
  P  P0  1  0.74843200  0.25942000  0.47009600  1
  P  P1  1  0.74058000  0.25156800  0.02990400  1
  P  P2  1  0.69060600  0.65886800  0.81592400  1
  P  P3  1  0.25942000  0.74843200  0.97009600  1
  P  P4  1  0.25156800  0.74058000  0.52990400  1
  P  P5  1  0.34113200  0.30939400  0.68407600  1
  P  P6  1  0.65886800  0.69060600  0.31592400  1
  P  P7  1  0.30939400  0.34113200  0.18407600  1
  O  O0  1  0.66255400  0.46689600  0.34823100  1
  O  O1  1  0.20281300  0.34764000  0.34201100  1
  O  O2  1  0.79718700  0.65236000  0.65798900  1
  O  O3  1  0.81337700  0.32867500  0.56606300  1
  O  O4  1  0.32867500  0.81337700  0.06606300  1
  O  O5  1  0.46689600  0.66255400  0.84823100  1
  O  O6  1  0.30371400  0.16360900  0.15004100  1
  O  O7  1  0.21027700  0.54003100  0.07549900  1
  O  O8  1  0.54003100  0.21027700  0.57549900  1
  O  O9  1  0.10108600  0.87601800  0.89815000  1
  O  O10  1  0.33744600  0.53310400  0.65176900  1
  O  O11  1  0.34764000  0.20281300  0.84201100  1
  O  O12  1  0.83639100  0.69628600  0.34995900  1
  O  O13  1  0.12398200  0.89891400  0.60185000  1
  O  O14  1  0.87601800  0.10108600  0.39815000  1
  O  O15  1  0.67132500  0.18662300  0.93393700  1
  O  O16  1  0.65236000  0.79718700  0.15798900  1
  O  O17  1  0.18662300  0.67132500  0.43393700  1
  O  O18  1  0.89891400  0.12398200  0.10185000  1
  O  O19  1  0.45996900  0.78972300  0.42450100  1
  O  O20  1  0.78972300  0.45996900  0.92450100  1
  O  O21  1  0.69628600  0.83639100  0.84995900  1
  O  O22  1  0.53310400  0.33744600  0.15176900  1
  O  O23  1  0.16360900  0.30371400  0.65004100  1
loop_
_geom_bond_atom_site_label_1
_geom_bond_atom_site_label_2
_geom_bond_distance
_geom_bond_site_symmetry_2
O0 P6 1.585337 1_555
O0 P0 1.659131 1_555
O1 P7 1.507370 1_555
O1 Sn1 2.095862 1_555
O2 P2 1.507370 1_555
O2 Sn1 2.095862 1_655
O3 P0 1.547804 1_555
O3 Sn1 2.042098 1_655
O4 P3 1.547804 1_554
O4 Sn0 2.042098 1_565
O5 P2 1.585337 1_555
O5 P3 1.659131 1_555
O6 P7 1.522100 1_555
O6 Sn0 2.077792 1_555
O7 P7 1.588506 1_555
O7 P3 1.628195 1_554
O8 P5 1.588506 1_555
O8 P0 1.628195 1_555
O9 P3 1.453553 1_555
O10 P5 1.585337 1_555
O10 P4 1.659131 1_555
O11 P5 1.507370 1_555
O11 Sn0 2.095862 1_556
O12 P6 1.522100 1_555
O12 Sn1 2.077792 1_655
O13 P4 1.453553 1_555
O14 P0 1.453553 1_555
O15 P1 1.547804 1_556
O15 Sn0 2.042098 1_556
O16 P6 1.507370 1_555
O16 Sn0 2.095862 1_565
O17 P4 1.547804 1_555
O17 Sn1 2.042098 1_555
O18 P1 1.453553 1_555
O19 P6 1.588506 1_555
O19 P4 1.628195 1_555
O20 P2 1.588506 1_555
O20 P1 1.628195 1_556
O21 P2 1.522100 1_555
O21 Sn0 2.077792 1_566
O22 P7 1.585337 1_555
O22 P1 1.659131 1_555
O23 P5 1.522100 1_555
O23 Sn1 2.077792 1_555
