# generated using pymatgen
data_LiMn(SO4)2
_symmetry_space_group_name_H-M   'P 1'
_cell_length_a   9.04087266
_cell_length_b   8.95994116
_cell_length_c   8.97004742
_cell_angle_alpha   56.76734191
_cell_angle_beta   55.13561775
_cell_angle_gamma   55.66475946
_symmetry_Int_Tables_number   1
_chemical_formula_structural   LiMn(SO4)2
_chemical_formula_sum   'Li3 Mn3 S6 O24'
_cell_volume   464.21634929
_cell_formula_units_Z   3
loop_
 _symmetry_equiv_pos_site_id
 _symmetry_equiv_pos_as_xyz
  1  'x, y, z'
loop_
 _atom_site_type_symbol
 _atom_site_label
 _atom_site_symmetry_multiplicity
 _atom_site_fract_x
 _atom_site_fract_y
 _atom_site_fract_z
 _atom_site_occupancy
  Li  Li0  1  0.35674100  0.35674000  0.34943400  1
  Li  Li1  1  0.17827200  0.43618600  0.76163400  1
  Li  Li2  1  0.75831700  0.17911200  0.43208300  1
  Mn  Mn0  1  0.16585400  0.14663800  0.15341500  1
  Mn  Mn1  1  0.64014600  0.64484400  0.64991500  1
  Mn  Mn2  1  0.84436000  0.84718400  0.85706100  1
  S  S0  1  0.03144100  0.74740900  0.46681300  1
  S  S1  1  0.45100200  0.04782600  0.75254900  1
  S  S2  1  0.75848100  0.45714500  0.04601000  1
  S  S3  1  0.26093700  0.54200700  0.95620500  1
  S  S4  1  0.54318600  0.95613300  0.25063100  1
  S  S5  1  0.95941500  0.24543600  0.54560400  1
  O  O0  1  0.10796200  0.29267200  0.50753400  1
  O  O1  1  0.31182200  0.50383900  0.10215700  1
  O  O2  1  0.99130300  0.95382800  0.35218500  1
  O  O3  1  0.51526000  0.10526100  0.29449600  1
  O  O4  1  0.01446200  0.71010800  0.66477300  1
  O  O5  1  0.22533200  0.62421000  0.38217800  1
  O  O6  1  0.35763600  0.24215300  0.63950400  1
  O  O7  1  0.33135900  0.00845300  0.96419500  1
  O  O8  1  0.64368000  0.36538900  0.24286500  1
  O  O9  1  0.06014500  0.67680800  0.97769700  1
  O  O10  1  0.28934800  0.36305500  0.94823000  1
  O  O11  1  0.35371100  0.96834000  0.28037200  1
  O  O12  1  0.64549600  0.03258200  0.70763700  1
  O  O13  1  0.72041000  0.64924600  0.03364900  1
  O  O14  1  0.97295900  0.33313900  0.00449800  1
  O  O15  1  0.38911700  0.63210100  0.75411700  1
  O  O16  1  0.67527000  0.98586900  0.03994300  1
  O  O17  1  0.62600600  0.76053500  0.37049400  1
  O  O18  1  0.75853300  0.37735400  0.62402200  1
  O  O19  1  0.96805600  0.26704600  0.35700900  1
  O  O20  1  0.47419300  0.90182900  0.70306700  1
  O  O21  1  0.97882900  0.04431500  0.67563100  1
  O  O22  1  0.71259600  0.47892900  0.90103500  1
  O  O23  1  0.88286500  0.69627700  0.49765800  1
loop_
_geom_bond_atom_site_label_1
_geom_bond_atom_site_label_2
_geom_bond_distance
_geom_bond_site_symmetry_2
Li0 O1 2.010888 1_555
Li0 O3 2.034869 1_555
Li0 O0 2.077739 1_555
Li0 O5 2.098043 1_555
Li0 O6 2.216055 1_555
Li0 O8 2.227108 1_555
Li1 O6 1.930939 1_555
Li1 O4 2.001347 1_555
Li1 O14 2.037009 1_456
Li1 O10 2.053436 1_555
Li2 O8 1.922345 1_555
Li2 O12 1.986182 1_555
Li2 O2 2.021980 1_545
Li2 O19 2.076969 1_555
Mn0 O11 1.972305 1_545
Mn0 O19 1.986574 1_455
Mn0 O7 1.990658 1_554
Mn0 O14 2.132440 1_455
Mn0 O10 2.138969 1_554
Mn0 O2 2.266339 1_445
Mn1 O15 1.946155 1_555
Mn1 O23 1.979275 1_555
Mn1 O20 2.066052 1_555
Mn1 O18 2.091854 1_555
Mn1 O22 2.151986 1_555
Mn1 O17 2.177632 1_555
Mn2 O16 1.948460 1_556
Mn2 O4 2.001802 1_655
Mn2 O13 2.010873 1_556
Mn2 O21 2.062985 1_565
Mn2 O9 2.133228 1_655
Mn2 O12 2.175763 1_565
O0 S5 1.434512 1_455
O1 S3 1.436298 1_554
O2 S0 1.481433 1_655
O3 S4 1.444322 1_545
O4 S0 1.544073 1_555
O5 S0 1.442890 1_555
O6 S1 1.468948 1_555
O7 S1 1.499102 1_555
O8 S2 1.465350 1_555
O9 S3 1.474158 1_555
O10 S3 1.510663 1_555
O11 S4 1.521751 1_555
O12 S1 1.500802 1_555
O13 S2 1.503158 1_555
O14 S2 1.526681 1_555
O15 S3 1.526532 1_555
O16 S4 1.515090 1_555
O17 S4 1.470655 1_555
O18 S5 1.489786 1_555
O19 S5 1.553192 1_555
O20 S1 1.474033 1_565
O21 S5 1.487281 1_555
O22 S2 1.465786 1_556
O23 S0 1.490354 1_655
