# generated using pymatgen
data_Li3Sn2(PO4)3
_symmetry_space_group_name_H-M   'P 1'
_cell_length_a   9.38908100
_cell_length_b   8.90706700
_cell_length_c   12.54289796
_cell_angle_alpha   85.96329431
_cell_angle_beta   90.00000000
_cell_angle_gamma   90.00000000
_symmetry_Int_Tables_number   1
_chemical_formula_structural   Li3Sn2(PO4)3
_chemical_formula_sum   'Li12 Sn8 P12 O48'
_cell_volume   1046.34990449
_cell_formula_units_Z   4
loop_
 _symmetry_equiv_pos_site_id
 _symmetry_equiv_pos_as_xyz
  1  'x, y, z'
loop_
 _atom_site_type_symbol
 _atom_site_label
 _atom_site_symmetry_multiplicity
 _atom_site_fract_x
 _atom_site_fract_y
 _atom_site_fract_z
 _atom_site_occupancy
  Li  Li0  1  0.23055100  0.70729200  0.91138900  1
  Li  Li1  1  0.57211900  0.50000000  0.75000000  1
  Li  Li2  1  0.23055100  0.29270800  0.58861100  1
  Li  Li3  1  0.50000000  0.50000000  0.50000000  1
  Li  Li4  1  0.00000000  0.00000000  0.50000000  1
  Li  Li5  1  0.76944900  0.70729200  0.41138900  1
  Li  Li6  1  0.86784200  0.00000000  0.75000000  1
  Li  Li7  1  0.42788100  0.50000000  0.25000000  1
  Li  Li8  1  0.13215800  0.00000000  0.25000000  1
  Li  Li9  1  0.00000000  0.00000000  0.00000000  1
  Li  Li10  1  0.50000000  0.50000000  0.00000000  1
  Li  Li11  1  0.76944900  0.29270800  0.08861100  1
  Sn  Sn0  1  0.99048700  0.70685400  0.64070200  1
  Sn  Sn1  1  0.51160900  0.82442500  0.83359800  1
  Sn  Sn2  1  0.99048700  0.29314600  0.85929800  1
  Sn  Sn3  1  0.48839100  0.82442500  0.33359800  1
  Sn  Sn4  1  0.00951300  0.70685400  0.14070200  1
  Sn  Sn5  1  0.51160900  0.17557500  0.66640200  1
  Sn  Sn6  1  0.00951300  0.29314600  0.35929800  1
  Sn  Sn7  1  0.48839100  0.17557500  0.16640200  1
  P  P0  1  0.27253800  0.50000000  0.75000000  1
  P  P1  1  0.84841500  0.65798800  0.89636400  1
  P  P2  1  0.65487600  0.79604600  0.59057400  1
  P  P3  1  0.15158500  0.65798800  0.39636400  1
  P  P4  1  0.65487600  0.20395400  0.90942600  1
  P  P5  1  0.15082700  0.00000000  0.75000000  1
  P  P6  1  0.84841500  0.34201200  0.60363600  1
  P  P7  1  0.34512400  0.79604600  0.09057400  1
  P  P8  1  0.34512400  0.20395400  0.40942600  1
  P  P9  1  0.15158500  0.34201200  0.10363600  1
  P  P10  1  0.72746200  0.50000000  0.25000000  1
  P  P11  1  0.84917300  0.00000000  0.25000000  1
  O  O0  1  0.23474600  0.87726100  0.81064200  1
  O  O1  1  0.62154400  0.04060800  0.88860300  1
  O  O2  1  0.04369000  0.93599200  0.66226600  1
  O  O3  1  0.36508800  0.56492100  0.83675200  1
  O  O4  1  0.17575300  0.37337700  0.80226000  1
  O  O5  1  0.68655100  0.64490000  0.91023200  1
  O  O6  1  0.91775100  0.74911900  0.98589200  1
  O  O7  1  0.17575300  0.62662300  0.69774000  1
  O  O8  1  0.58120800  0.26405400  0.00858200  1
  O  O9  1  0.08224900  0.74911900  0.48589200  1
  O  O10  1  0.04369000  0.06400800  0.83773400  1
  O  O11  1  0.62677700  0.68401900  0.68489800  1
  O  O12  1  0.37845600  0.04060800  0.38860300  1
  O  O13  1  0.92084900  0.50176100  0.89654200  1
  O  O14  1  0.88969700  0.74996800  0.78839300  1
  O  O15  1  0.36508800  0.43507900  0.66324800  1
  O  O16  1  0.62677700  0.31598100  0.81510200  1
  O  O17  1  0.11030300  0.74996800  0.28839300  1
  O  O18  1  0.82067700  0.79771100  0.55686400  1
  O  O19  1  0.58120800  0.73594600  0.49141800  1
  O  O20  1  0.07915100  0.50176100  0.39654200  1
  O  O21  1  0.23474600  0.12273900  0.68935800  1
  O  O22  1  0.82067700  0.20228900  0.94313600  1
  O  O23  1  0.31344900  0.64490000  0.41023200  1
  O  O24  1  0.68655100  0.35510000  0.58976800  1
  O  O25  1  0.17932300  0.79771100  0.05686400  1
  O  O26  1  0.92084900  0.49823900  0.60345800  1
  O  O27  1  0.76525400  0.87726100  0.31064200  1
  O  O28  1  0.41879200  0.26405400  0.50858200  1
  O  O29  1  0.17932300  0.20228900  0.44313600  1
  O  O30  1  0.37322300  0.68401900  0.18489800  1
  O  O31  1  0.88969700  0.25003200  0.71160700  1
  O  O32  1  0.63491200  0.56492100  0.33675200  1
  O  O33  1  0.11030300  0.25003200  0.21160700  1
  O  O34  1  0.62154400  0.95939200  0.61139700  1
  O  O35  1  0.07915100  0.49823900  0.10345800  1
  O  O36  1  0.37322300  0.31598100  0.31510200  1
  O  O37  1  0.95631000  0.93599200  0.16226600  1
  O  O38  1  0.91775100  0.25088100  0.51410800  1
  O  O39  1  0.41879200  0.73594600  0.99141800  1
  O  O40  1  0.82424700  0.37337700  0.30226000  1
  O  O41  1  0.31344900  0.35510000  0.08976800  1
  O  O42  1  0.08224900  0.25088100  0.01410800  1
  O  O43  1  0.82424700  0.62662300  0.19774000  1
  O  O44  1  0.63491200  0.43507900  0.16324800  1
  O  O45  1  0.95631000  0.06400800  0.33773400  1
  O  O46  1  0.37845600  0.95939200  0.11139700  1
  O  O47  1  0.76525400  0.12273900  0.18935800  1
loop_
_geom_bond_atom_site_label_1
_geom_bond_atom_site_label_2
_geom_bond_distance
_geom_bond_site_symmetry_2
Li0 O0 1.902895 1_555
Li0 O39 2.057317 1_555
Li0 O3 2.060889 1_555
Li0 O25 2.101502 1_556
Li1 O11 1.851556 1_555
Li1 O16 1.851556 1_555
Li1 O3 2.320658 1_555
Li1 O15 2.320658 1_555
Li2 O21 1.902895 1_555
Li2 O28 2.057317 1_555
Li2 O15 2.060889 1_555
Li2 O29 2.101502 1_555
Li3 O19 2.231090 1_555
Li3 O28 2.231090 1_555
Li3 O24 2.407656 1_555
Li3 O23 2.407656 1_555
Li3 O32 2.442311 1_555
Li3 O15 2.442311 1_555
Li4 O45 2.114789 1_455
Li4 O2 2.114789 1_545
Li4 O38 2.382613 1_455
Li4 O9 2.382613 1_545
Li4 O29 2.531608 1_555
Li4 O18 2.531608 1_445
Li5 O27 1.902895 1_555
Li5 O19 2.057317 1_555
Li5 O32 2.060889 1_555
Li5 O18 2.101502 1_555
Li6 O10 2.085739 1_655
Li6 O2 2.085739 1_645
Li6 O14 2.254501 1_545
Li6 O31 2.254501 1_555
Li7 O30 1.851556 1_555
Li7 O36 1.851556 1_555
Li7 O44 2.320658 1_555
Li7 O32 2.320658 1_555
Li8 O45 2.085739 1_455
Li8 O37 2.085739 1_445
Li8 O33 2.254501 1_555
Li8 O17 2.254501 1_545
Li9 O10 2.114789 1_554
Li9 O37 2.114789 1_445
Li9 O42 2.382613 1_555
Li9 O6 2.382613 1_444
Li9 O25 2.531608 1_545
Li9 O22 2.531608 1_454
Li10 O39 2.231090 1_554
Li10 O8 2.231090 1_555
Li10 O41 2.407656 1_555
Li10 O5 2.407656 1_554
Li10 O44 2.442311 1_555
Li10 O3 2.442311 1_554
Li11 O47 1.902895 1_555
Li11 O8 2.057317 1_555
Li11 O44 2.060889 1_555
Li11 O22 2.101502 1_554
O0 P5 1.509133 1_565
O0 Sn1 2.653799 1_555
O1 P4 1.528558 1_555
O1 Sn1 2.331569 1_545
O2 P5 1.623640 1_565
O2 Sn0 2.136790 1_455
O3 P0 1.536901 1_555
O3 Sn1 2.687730 1_555
O4 P0 1.556722 1_555
O4 Sn2 1.994070 1_455
O5 P1 1.533181 1_555
O5 Sn1 2.441806 1_555
O6 P1 1.572260 1_555
O6 Sn4 2.133435 1_656
O7 P0 1.556722 1_555
O7 Sn0 1.994070 1_455
O8 P4 1.550970 1_554
O8 Sn7 2.253752 1_555
O9 P3 1.572260 1_555
O9 Sn0 2.133435 1_455
O10 P5 1.623640 1_555
O10 Sn2 2.136790 1_455
O11 P2 1.516173 1_555
O11 Sn1 2.557416 1_555
O12 P8 1.528558 1_555
O12 Sn3 2.331569 1_545
O13 P1 1.548686 1_555
O13 Sn2 2.054423 1_555
O14 P1 1.580910 1_555
O14 Sn0 2.138882 1_555
O15 P0 1.536901 1_555
O15 Sn5 2.687730 1_555
O16 P4 1.516173 1_555
O16 Sn5 2.557416 1_555
O17 P3 1.580910 1_555
O17 Sn4 2.138882 1_555
O18 P2 1.612913 1_555
O18 Sn0 2.045211 1_555
O19 P2 1.550970 1_555
O19 Sn3 2.253752 1_555
O20 P3 1.548686 1_555
O20 Sn6 2.054423 1_555
O21 P5 1.509133 1_555
O21 Sn5 2.653799 1_555
O22 P4 1.612913 1_555
O22 Sn2 2.045211 1_555
O23 P3 1.533181 1_555
O23 Sn3 2.441806 1_555
O24 P6 1.533181 1_555
O24 Sn5 2.441806 1_555
O25 P7 1.612913 1_555
O25 Sn4 2.045211 1_555
O26 P6 1.548686 1_555
O26 Sn0 2.054423 1_555
O27 P11 1.509133 1_565
O27 Sn3 2.653799 1_555
O28 P8 1.550970 1_555
O28 Sn5 2.253752 1_555
O29 P8 1.612913 1_555
O29 Sn6 2.045211 1_555
O30 P7 1.516173 1_555
O30 Sn3 2.557416 1_555
O31 P6 1.580910 1_555
O31 Sn2 2.138882 1_555
O32 P10 1.536901 1_555
O32 Sn3 2.687730 1_555
O33 P9 1.580910 1_555
O33 Sn6 2.138882 1_555
O34 P2 1.528558 1_555
O34 Sn5 2.331569 1_565
O35 P9 1.548686 1_555
O35 Sn4 2.054423 1_555
O36 P8 1.516173 1_555
O36 Sn7 2.557416 1_555
O37 P11 1.623640 1_565
O37 Sn4 2.136790 1_655
O38 P6 1.572260 1_555
O38 Sn6 2.133435 1_655
O39 P7 1.550970 1_556
O39 Sn1 2.253752 1_555
O40 P10 1.556722 1_555
O40 Sn6 1.994070 1_655
O41 P9 1.533181 1_555
O41 Sn7 2.441806 1_555
O42 P9 1.572260 1_555
O42 Sn2 2.133435 1_454
O43 P10 1.556722 1_555
O43 Sn4 1.994070 1_655
O44 P10 1.536901 1_555
O44 Sn7 2.687730 1_555
O45 P11 1.623640 1_555
O45 Sn6 2.136790 1_655
O46 P7 1.528558 1_555
O46 Sn7 2.331569 1_565
O47 P11 1.509133 1_555
O47 Sn7 2.653799 1_555
