# generated using pymatgen
data_LiFe2(BO3)2
_symmetry_space_group_name_H-M   'P 1'
_cell_length_a   5.25863300
_cell_length_b   9.11930639
_cell_length_c   10.09415935
_cell_angle_alpha   88.89722614
_cell_angle_beta   89.25334048
_cell_angle_gamma   89.04324430
_symmetry_Int_Tables_number   1
_chemical_formula_structural   LiFe2(BO3)2
_chemical_formula_sum   'Li4 Fe8 B8 O24'
_cell_volume   483.87002938
_cell_formula_units_Z   4
loop_
 _symmetry_equiv_pos_site_id
 _symmetry_equiv_pos_as_xyz
  1  'x, y, z'
loop_
 _atom_site_type_symbol
 _atom_site_label
 _atom_site_symmetry_multiplicity
 _atom_site_fract_x
 _atom_site_fract_y
 _atom_site_fract_z
 _atom_site_occupancy
  Li  Li0  1  0.18128400  0.16910100  0.15552000  1
  Li  Li1  1  0.32599900  0.32875100  0.41694300  1
  Li  Li2  1  0.32890200  0.32935700  0.90575800  1
  Li  Li3  1  0.82876800  0.82720800  0.90005000  1
  Fe  Fe0  1  0.16707900  0.83642300  0.63152800  1
  Fe  Fe1  1  0.18065100  0.50757200  0.12830300  1
  Fe  Fe2  1  0.31447900  0.00328400  0.87424300  1
  Fe  Fe3  1  0.33251100  0.66922700  0.37577200  1
  Fe  Fe4  1  0.67913400  0.33519000  0.63311300  1
  Fe  Fe5  1  0.66854000  0.99644300  0.13305400  1
  Fe  Fe6  1  0.83942000  0.14914100  0.38427800  1
  Fe  Fe7  1  0.82178100  0.50390000  0.88106700  1
  B  B0  1  0.16689000  0.50059400  0.62212700  1
  B  B1  1  0.16567900  0.83994600  0.13069400  1
  B  B2  1  0.34483000  0.99843300  0.37543800  1
  B  B3  1  0.33317000  0.66635900  0.87640700  1
  B  B4  1  0.66179500  0.99956600  0.63313200  1
  B  B5  1  0.67608800  0.32420100  0.12261900  1
  B  B6  1  0.82966900  0.49586400  0.37960600  1
  B  B7  1  0.82258800  0.16704800  0.88070300  1
  O  O0  1  0.09489600  0.49636800  0.34989500  1
  O  O1  1  0.08075700  0.17528300  0.88792100  1
  O  O2  1  0.18398400  0.79026900  0.83657100  1
  O  O3  1  0.23281300  0.87232100  0.42809500  1
  O  O4  1  0.21460000  0.13042300  0.36396300  1
  O  O5  1  0.20805700  0.53814700  0.91383800  1
  O  O6  1  0.32537400  0.37973500  0.61534600  1
  O  O7  1  0.30890400  0.96423600  0.09616100  1
  O  O8  1  0.25439400  0.63718300  0.57845500  1
  O  O9  1  0.28204100  0.71505600  0.18193500  1
  O  O10  1  0.41277200  0.32563600  0.11579400  1
  O  O11  1  0.40458000  0.99067600  0.66573100  1
  O  O12  1  0.59409100  0.98869800  0.32829000  1
  O  O13  1  0.58999700  0.67586500  0.87994500  1
  O  O14  1  0.67581300  0.28815000  0.83350900  1
  O  O15  1  0.72219700  0.36291900  0.42385500  1
  O  O16  1  0.68028000  0.61760800  0.36785000  1
  O  O17  1  0.69218400  0.04103600  0.92346400  1
  O  O18  1  0.82081600  0.44074700  0.08478900  1
  O  O19  1  0.82033600  0.88166000  0.64596500  1
  O  O20  1  0.75466300  0.13413000  0.58829600  1
  O  O21  1  0.80380200  0.19264800  0.16430300  1
  O  O22  1  0.91074900  0.84525400  0.10632100  1
  O  O23  1  0.91901700  0.48715400  0.66744600  1
loop_
_geom_bond_atom_site_label_1
_geom_bond_atom_site_label_2
_geom_bond_distance
_geom_bond_site_symmetry_2
Li0 O10 1.924487 1_555
Li0 O21 1.994057 1_455
Li0 O7 2.071330 1_545
Li0 O4 2.135682 1_555
Li1 O4 1.995252 1_555
Li1 O0 2.047197 1_555
Li1 O6 2.064619 1_555
Li1 O15 2.114016 1_555
Li2 O1 1.945878 1_555
Li2 O14 1.988479 1_555
Li2 O5 1.999999 1_555
Li2 O10 2.170657 1_556
Li3 O13 1.896794 1_555
Li3 O2 1.992334 1_655
Li3 O17 2.083419 1_565
Li3 O22 2.141767 1_556
Fe0 O19 1.867205 1_455
Fe0 O11 1.935556 1_555
Fe0 O8 1.949939 1_555
Fe0 O3 2.098299 1_555
Fe0 O2 2.106864 1_555
Fe1 O10 2.048177 1_555
Fe1 O18 2.053130 1_455
Fe1 O9 2.058659 1_555
Fe1 O5 2.180605 1_554
Fe1 O0 2.276721 1_555
Fe2 O1 1.982274 1_555
Fe2 O17 2.089391 1_555
Fe2 O2 2.113943 1_545
Fe2 O11 2.156202 1_545
Fe2 O7 2.261312 1_546
Fe3 O16 1.881845 1_555
Fe3 O3 1.995497 1_555
Fe3 O9 2.012915 1_555
Fe3 O0 2.050508 1_555
Fe3 O8 2.097379 1_555
Fe4 O6 1.907492 1_555
Fe4 O23 1.928756 1_555
Fe4 O20 1.930585 1_555
Fe4 O14 2.059633 1_555
Fe4 O15 2.132100 1_555
Fe5 O22 1.882216 1_555
Fe5 O7 1.960275 1_555
Fe5 O21 1.968994 1_565
Fe5 O12 2.004382 1_555
Fe5 O17 2.149060 1_564
Fe6 O4 1.985752 1_655
Fe6 O12 2.058727 1_545
Fe6 O15 2.079325 1_555
Fe6 O20 2.103745 1_555
Fe6 O21 2.257742 1_555
Fe7 O13 1.969991 1_555
Fe7 O5 2.091830 1_655
Fe7 O18 2.124789 1_556
Fe7 O14 2.187937 1_555
Fe7 O23 2.217170 1_555
B0 O6 1.372856 1_555
B0 O23 1.382377 1_455
B0 O8 1.396532 1_555
B1 O22 1.366018 1_455
B1 O9 1.378904 1_555
B1 O7 1.407094 1_555
B2 O4 1.378541 1_565
B2 O12 1.390678 1_555
B2 O3 1.393940 1_555
B3 O13 1.355760 1_555
B3 O5 1.394585 1_555
B3 O2 1.419550 1_555
B4 O19 1.354794 1_555
B4 O11 1.391191 1_555
B4 O20 1.393574 1_565
B5 O18 1.363249 1_555
B5 O10 1.387122 1_555
B5 O21 1.424195 1_555
B6 O16 1.353530 1_555
B6 O15 1.408614 1_555
B6 O0 1.422850 1_655
B7 O1 1.363915 1_655
B7 O17 1.405915 1_555
B7 O14 1.415332 1_555
