# generated using pymatgen
data_Li6V3P8O29
_symmetry_space_group_name_H-M   'P 1'
_cell_length_a   9.80242100
_cell_length_b   9.80799801
_cell_length_c   13.84811368
_cell_angle_alpha   89.78790116
_cell_angle_beta   89.78780248
_cell_angle_gamma   60.08199774
_symmetry_Int_Tables_number   1
_chemical_formula_structural   Li6V3P8O29
_chemical_formula_sum   'Li12 V6 P16 O58'
_cell_volume   1153.95599554
_cell_formula_units_Z   2
loop_
 _symmetry_equiv_pos_site_id
 _symmetry_equiv_pos_as_xyz
  1  'x, y, z'
loop_
 _atom_site_type_symbol
 _atom_site_label
 _atom_site_symmetry_multiplicity
 _atom_site_fract_x
 _atom_site_fract_y
 _atom_site_fract_z
 _atom_site_occupancy
  Li  Li0  1  0.23635500  0.10198300  0.93634900  1
  Li  Li1  1  0.08974700  0.22908900  0.44102300  1
  Li  Li2  1  0.67662000  0.09683100  0.44320000  1
  Li  Li3  1  0.66242400  0.23680600  0.93617800  1
  Li  Li4  1  0.10196200  0.66210000  0.93687300  1
  Li  Li5  1  0.22891300  0.67543300  0.44130300  1
  Li  Li6  1  0.89855300  0.33727600  0.06076600  1
  Li  Li7  1  0.33813700  0.76333900  0.06118200  1
  Li  Li8  1  0.32248000  0.90580200  0.56116200  1
  Li  Li9  1  0.90347100  0.77244700  0.56124000  1
  Li  Li10  1  0.76412200  0.89845200  0.06131400  1
  Li  Li11  1  0.99923900  0.00132500  0.99737600  1
  V  V0  1  0.56778000  0.43476400  0.74643600  1
  V  V1  1  0.43550400  0.56524600  0.25180900  1
  V  V2  1  0.99847400  0.43331500  0.25113700  1
  V  V3  1  0.00093600  0.56421400  0.74856700  1
  V  V4  1  0.43386000  0.00127700  0.74872500  1
  V  V5  1  0.56689700  0.00029000  0.25102300  1
  P  P0  1  0.22825200  0.08800900  0.15700200  1
  P  P1  1  0.08766900  0.22968100  0.65664000  1
  P  P2  1  0.68351200  0.08879800  0.65796900  1
  P  P3  1  0.33400900  0.33444400  0.87361000  1
  P  P4  1  0.33233100  0.33281700  0.37260900  1
  P  P5  1  0.68476300  0.22866900  0.15629000  1
  P  P6  1  0.76989900  0.31498000  0.34318400  1
  P  P7  1  0.08869600  0.68397400  0.15736500  1
  P  P8  1  0.91271900  0.31348100  0.84276800  1
  P  P9  1  0.23054500  0.68125100  0.65789900  1
  P  P10  1  0.31521300  0.77228100  0.84235800  1
  P  P11  1  0.66511700  0.66875500  0.62739600  1
  P  P12  1  0.66724700  0.66733800  0.12590200  1
  P  P13  1  0.31846400  0.91196700  0.34220900  1
  P  P14  1  0.91182900  0.76929300  0.34242600  1
  P  P15  1  0.77334500  0.91032700  0.84250600  1
  O  O0  1  0.24214100  0.00215200  0.43271400  1
  O  O1  1  0.25467100  0.08246300  0.65933600  1
  O  O2  1  0.00145700  0.22285800  0.93292000  1
  O  O3  1  0.08106600  0.25487200  0.15879100  1
  O  O4  1  0.38052800  0.09186700  0.16925600  1
  O  O5  1  0.32441600  0.18963200  0.83370500  1
  O  O6  1  0.52372200  0.09487000  0.67778100  1
  O  O7  1  0.77907000  0.99629800  0.93256900  1
  O  O8  1  0.66494200  0.08111200  0.15937300  1
  O  O9  1  0.18609400  0.32531600  0.33085900  1
  O  O10  1  0.09798200  0.38054200  0.67783700  1
  O  O11  1  0.48658500  0.18663800  0.33130500  1
  O  O12  1  0.33690000  0.33397400  0.98177300  1
  O  O13  1  0.33138900  0.33187800  0.48028800  1
  O  O14  1  0.48818400  0.32746700  0.83157300  1
  O  O15  1  0.09174300  0.52786700  0.17003200  1
  O  O16  1  0.18884000  0.48912400  0.83364000  1
  O  O17  1  0.66091100  0.25322900  0.65937600  1
  O  O18  1  0.79516700  0.21036300  0.24634900  1
  O  O19  1  0.75981800  0.23080000  0.42907400  1
  O  O20  1  0.77409700  0.22321300  0.06488500  1
  O  O21  1  0.52796200  0.37999900  0.16941600  1
  O  O22  1  0.32529500  0.48737900  0.33214900  1
  O  O23  1  0.74787800  0.33161300  0.84265800  1
  O  O24  1  0.37717300  0.52034700  0.67481100  1
  O  O25  1  0.08020800  0.66722200  0.65780100  1
  O  O26  1  0.00162700  0.20621600  0.74978600  1
  O  O27  1  0.00379600  0.24164600  0.56552200  1
  O  O28  1  0.00182500  0.75611000  0.43280100  1
  O  O29  1  0.91596700  0.33692100  0.34196400  1
  O  O30  1  0.61898200  0.47654900  0.32377400  1
  O  O31  1  0.25578800  0.66356700  0.15968900  1
  O  O32  1  0.66548300  0.52142000  0.67519000  1
  O  O33  1  0.47093600  0.61919600  0.83214000  1
  O  O34  1  0.22282000  0.77910400  0.93275600  1
  O  O35  1  0.24249000  0.76009800  0.56757200  1
  O  O36  1  0.20668800  0.79340800  0.74982700  1
  O  O37  1  0.33469200  0.74723700  0.34256900  1
  O  O38  1  0.81142200  0.51144600  0.16683600  1
  O  O39  1  0.90865500  0.47018700  0.83042500  1
  O  O40  1  0.51209700  0.67732600  0.16660500  1
  O  O41  1  0.66881900  0.66737400  0.01774900  1
  O  O42  1  0.66325000  0.67001300  0.52001900  1
  O  O43  1  0.51101900  0.81576600  0.66790600  1
  O  O44  1  0.90111500  0.61980000  0.32342600  1
  O  O45  1  0.81341100  0.67296700  0.66775700  1
  O  O46  1  0.33603200  0.91921700  0.84051400  1
  O  O47  1  0.20724600  0.00005600  0.25027100  1
  O  O48  1  0.22388000  0.00157700  0.06718500  1
  O  O49  1  0.47904100  0.90085600  0.32277900  1
  O  O50  1  0.67797000  0.81155000  0.16697100  1
  O  O51  1  0.62069500  0.90698100  0.83110200  1
  O  O52  1  0.91953200  0.74294100  0.84084400  1
  O  O53  1  0.00294000  0.77461600  0.06723100  1
  O  O54  1  0.00014000  0.79264300  0.25020800  1
  O  O55  1  0.74686100  0.91729300  0.34270800  1
  O  O56  1  0.75730000  0.99584300  0.56818400  1
  O  O57  1  0.79481600  0.99733700  0.74972700  1
loop_
_geom_bond_atom_site_label_1
_geom_bond_atom_site_label_2
_geom_bond_distance
_geom_bond_site_symmetry_2
Li0 O2 1.996737 1_555
Li0 O46 2.046983 1_545
Li0 O5 2.055893 1_555
Li0 O48 2.091114 1_556
Li1 O27 1.893348 1_555
Li1 O0 1.970494 1_555
Li1 O29 2.027695 1_455
Li1 O9 2.231111 1_555
Li2 O19 1.869690 1_555
Li2 O56 1.954027 1_545
Li2 O55 2.076801 1_545
Li2 O11 2.240867 1_555
Li3 O23 2.000891 1_555
Li3 O7 2.045544 1_545
Li3 O20 2.063964 1_556
Li3 O14 2.073660 1_555
Li4 O34 2.019622 1_555
Li4 O52 2.047044 1_455
Li4 O16 2.053033 1_555
Li4 O53 2.086158 1_556
Li5 O28 1.959423 1_555
Li5 O35 1.971685 1_555
Li5 O37 2.037489 1_555
Li5 O22 2.202546 1_555
Li6 O20 2.025730 1_555
Li6 O3 2.064989 1_655
Li6 O2 2.069677 1_654
Li6 O38 2.087844 1_555
Li7 O48 2.027657 1_565
Li7 O31 2.059120 1_555
Li7 O34 2.074391 1_554
Li7 O40 2.079702 1_555
Li8 O35 1.944531 1_555
Li8 O0 1.983123 1_565
Li8 O1 2.038195 1_565
Li8 O43 2.182452 1_555
Li9 O56 1.931819 1_555
Li9 O28 1.988477 1_655
Li9 O25 2.019401 1_655
Li9 O45 2.178544 1_555
Li10 O53 2.031400 1_655
Li10 O7 2.060765 1_554
Li10 O8 2.066291 1_565
Li10 O50 2.068837 1_555
Li11 O2 2.356026 1_655
Li11 O7 2.363569 1_545
Li11 O34 2.364202 1_645
Li11 O20 2.385272 1_556
Li11 O53 2.405243 1_646
Li11 O48 2.409293 1_656
O0 P13 1.501362 1_545
O1 P1 1.551877 1_555
O1 V4 1.966023 1_555
O2 P8 1.527692 1_455
O3 P0 1.550906 1_555
O3 V2 1.987309 1_455
O4 P0 1.522027 1_555
O4 V5 1.948672 1_555
O5 P3 1.571922 1_555
O5 V4 1.994595 1_555
O6 P2 1.560799 1_555
O6 V4 1.837735 1_555
O7 P15 1.524848 1_555
O8 P5 1.553720 1_555
O8 V5 1.976447 1_555
O9 P4 1.583094 1_555
O9 V2 1.945852 1_455
O10 P1 1.561530 1_555
O10 V3 1.845609 1_555
O11 P4 1.583105 1_555
O11 V5 1.941526 1_555
O12 P3 1.498173 1_555
O13 P4 1.491168 1_555
O14 P3 1.586875 1_555
O14 V0 1.977198 1_555
O15 P7 1.525894 1_555
O15 V2 1.946224 1_455
O16 P3 1.574498 1_555
O16 V3 1.994856 1_555
O17 P2 1.514656 1_555
O17 V0 1.960464 1_555
O18 P5 1.604163 1_555
O18 P6 1.632984 1_555
O19 P6 1.476277 1_555
O20 P5 1.522320 1_555
O21 P5 1.524054 1_555
O21 V1 1.946659 1_555
O22 P4 1.583185 1_555
O22 V1 1.948320 1_555
O23 P8 1.534907 1_555
O23 V0 2.035073 1_555
O24 P9 1.532433 1_555
O24 V0 1.903278 1_555
O25 P9 1.546904 1_555
O25 V3 1.992712 1_555
O26 P8 1.615997 1_455
O26 P1 1.616022 1_555
O27 P1 1.480619 1_555
O28 P14 1.501488 1_455
O29 P6 1.550438 1_555
O29 V2 1.968849 1_555
O30 P6 1.559881 1_555
O30 V1 1.852241 1_555
O31 P7 1.548276 1_555
O31 V1 1.993406 1_555
O32 P11 1.585571 1_555
O32 V0 1.847105 1_555
O33 P10 1.522571 1_555
O33 V0 1.968888 1_555
O34 P10 1.524335 1_555
O35 P9 1.502823 1_555
O36 P10 1.613940 1_555
O36 P9 1.623860 1_555
O37 P13 1.542497 1_555
O37 V1 1.997551 1_555
O38 P12 1.581285 1_555
O38 V2 1.979815 1_555
O39 P8 1.526472 1_555
O39 V3 1.941792 1_655
O40 P12 1.576618 1_555
O40 V1 1.992846 1_555
O41 P12 1.497738 1_555
O42 P11 1.487079 1_555
O43 P11 1.581944 1_555
O43 V4 1.941971 1_565
O44 P14 1.544910 1_555
O44 V2 1.877120 1_555
O45 P11 1.579007 1_555
O45 V3 1.954373 1_655
O46 P10 1.553149 1_555
O46 V4 1.984026 1_565
O47 P13 1.618185 1_545
O47 P0 1.619181 1_555
O48 P0 1.520508 1_555
O49 P13 1.545269 1_555
O49 V5 1.872025 1_565
O50 P12 1.577916 1_555
O50 V5 1.990755 1_565
O51 P15 1.521783 1_555
O51 V4 1.956760 1_565
O52 P15 1.550011 1_555
O52 V3 1.989028 1_655
O53 P7 1.519553 1_555
O54 P14 1.618663 1_455
O54 P7 1.619108 1_555
O55 P14 1.542906 1_555
O55 V5 1.990769 1_565
O56 P2 1.498073 1_565
O57 P15 1.610084 1_555
O57 P2 1.623340 1_565
