# generated using pymatgen
data_Li2SbP3O10
_symmetry_space_group_name_H-M   'P 1'
_cell_length_a   7.86768300
_cell_length_b   10.05672000
_cell_length_c   12.91996788
_cell_angle_alpha   77.33504591
_cell_angle_beta   90.00000000
_cell_angle_gamma   90.00000000
_symmetry_Int_Tables_number   1
_chemical_formula_structural   Li2SbP3O10
_chemical_formula_sum   'Li8 Sb4 P12 O40'
_cell_volume   997.39475125
_cell_formula_units_Z   4
loop_
 _symmetry_equiv_pos_site_id
 _symmetry_equiv_pos_as_xyz
  1  'x, y, z'
loop_
 _atom_site_type_symbol
 _atom_site_label
 _atom_site_symmetry_multiplicity
 _atom_site_fract_x
 _atom_site_fract_y
 _atom_site_fract_z
 _atom_site_occupancy
  Li  Li0  1  0.47751000  0.57026700  0.14384500  1
  Li  Li1  1  0.02249000  0.07026700  0.14384500  1
  Li  Li2  1  0.90785800  0.10908400  0.42870000  1
  Li  Li3  1  0.59214200  0.60908400  0.42870000  1
  Li  Li4  1  0.40785800  0.39091600  0.57130000  1
  Li  Li5  1  0.09214200  0.89091600  0.57130000  1
  Li  Li6  1  0.97751000  0.92973300  0.85615500  1
  Li  Li7  1  0.52249000  0.42973300  0.85615500  1
  Sb  Sb0  1  0.08916100  0.38045300  0.17974400  1
  Sb  Sb1  1  0.41083900  0.88045300  0.17974400  1
  Sb  Sb2  1  0.58916100  0.11954700  0.82025600  1
  Sb  Sb3  1  0.91083900  0.61954700  0.82025600  1
  P  P0  1  0.42908300  0.22979300  0.07890400  1
  P  P1  1  0.07091700  0.72979300  0.07890400  1
  P  P2  1  0.59095000  0.11966300  0.28282900  1
  P  P3  1  0.90905000  0.61966300  0.28282900  1
  P  P4  1  0.22525800  0.05485300  0.34031800  1
  P  P5  1  0.27474200  0.55485300  0.34031800  1
  P  P6  1  0.72525800  0.44514700  0.65968200  1
  P  P7  1  0.77474200  0.94514700  0.65968200  1
  P  P8  1  0.09095000  0.38033700  0.71717100  1
  P  P9  1  0.40905000  0.88033700  0.71717100  1
  P  P10  1  0.92908300  0.27020700  0.92109600  1
  P  P11  1  0.57091700  0.77020700  0.92109600  1
  O  O0  1  0.33574500  0.09097600  0.09917300  1
  O  O1  1  0.99598600  0.22469400  0.03273300  1
  O  O2  1  0.32824600  0.34659300  0.11159800  1
  O  O3  1  0.16425500  0.59097600  0.09917300  1
  O  O4  1  0.50401400  0.72469400  0.03273300  1
  O  O5  1  0.17175400  0.84659300  0.11159800  1
  O  O6  1  0.58955400  0.20901100  0.16109500  1
  O  O7  1  0.91044600  0.70901100  0.16109500  1
  O  O8  1  0.09552200  0.14428200  0.26612300  1
  O  O9  1  0.89052000  0.47128000  0.27568200  1
  O  O10  1  0.24229700  0.41969600  0.30222800  1
  O  O11  1  0.40447800  0.64428200  0.26612300  1
  O  O12  1  0.60948000  0.97128000  0.27568200  1
  O  O13  1  0.40250000  0.13999600  0.32864700  1
  O  O14  1  0.25770300  0.91969600  0.30222800  1
  O  O15  1  0.71925000  0.18092600  0.34246700  1
  O  O16  1  0.09750000  0.63999600  0.32864700  1
  O  O17  1  0.78075000  0.68092600  0.34246700  1
  O  O18  1  0.16347600  0.03074600  0.45316500  1
  O  O19  1  0.33652400  0.53074600  0.45316500  1
  O  O20  1  0.66347600  0.46925400  0.54683500  1
  O  O21  1  0.83652400  0.96925400  0.54683500  1
  O  O22  1  0.21925000  0.31907400  0.65753300  1
  O  O23  1  0.90250000  0.36000400  0.67135300  1
  O  O24  1  0.28075000  0.81907400  0.65753300  1
  O  O25  1  0.74229700  0.08030400  0.69777200  1
  O  O26  1  0.59750000  0.86000400  0.67135300  1
  O  O27  1  0.39052000  0.02872000  0.72431800  1
  O  O28  1  0.59552200  0.35571800  0.73387700  1
  O  O29  1  0.75770300  0.58030400  0.69777200  1
  O  O30  1  0.10948000  0.52872000  0.72431800  1
  O  O31  1  0.90447800  0.85571800  0.73387700  1
  O  O32  1  0.08955400  0.29098900  0.83890500  1
  O  O33  1  0.41044600  0.79098900  0.83890500  1
  O  O34  1  0.82824600  0.15340700  0.88840200  1
  O  O35  1  0.49598600  0.27530600  0.96726700  1
  O  O36  1  0.83574500  0.40902400  0.90082700  1
  O  O37  1  0.67175400  0.65340700  0.88840200  1
  O  O38  1  0.00401400  0.77530600  0.96726700  1
  O  O39  1  0.66425500  0.90902400  0.90082700  1
loop_
_geom_bond_atom_site_label_1
_geom_bond_atom_site_label_2
_geom_bond_distance
_geom_bond_site_symmetry_2
Li0 O4 1.881118 1_555
Li0 O11 1.973757 1_555
Li0 O3 2.529425 1_555
Li1 O1 1.881118 1_455
Li1 O8 1.973757 1_555
Li1 O0 2.529425 1_555
Li2 O15 1.900603 1_555
Li2 O21 1.918567 1_545
Li2 O18 2.157774 1_655
Li2 O8 2.528105 1_655
Li3 O17 1.900603 1_555
Li3 O20 1.918567 1_555
Li3 O19 2.157774 1_555
Li3 O11 2.528105 1_555
Li4 O22 1.900603 1_555
Li4 O19 1.918567 1_555
Li4 O20 2.157774 1_555
Li4 O28 2.528105 1_555
Li5 O24 1.900603 1_555
Li5 O18 1.918567 1_565
Li5 O21 2.157774 1_455
Li5 O31 2.528105 1_455
Li6 O38 1.881118 1_655
Li6 O31 1.973757 1_555
Li6 O39 2.529425 1_555
Li7 O35 1.881118 1_555
Li7 O28 1.973757 1_555
Li7 O36 2.529425 1_555
O0 P0 1.548057 1_555
O0 Sb1 2.224564 1_545
O1 P10 1.509120 1_554
O2 P0 1.550854 1_555
O2 Sb0 2.135634 1_555
O3 P1 1.548057 1_555
O3 Sb0 2.224564 1_555
O4 P11 1.509120 1_554
O5 P1 1.550854 1_555
O5 Sb1 2.135634 1_555
O6 P2 1.631412 1_555
O6 P0 1.633401 1_555
O7 P3 1.631412 1_555
O7 P1 1.633401 1_655
O8 P4 1.546477 1_555
O8 Sb0 2.393076 1_555
O9 P3 1.522170 1_555
O9 Sb0 2.304277 1_655
O10 P5 1.564667 1_555
O10 Sb0 2.094156 1_555
O11 P5 1.546477 1_555
O11 Sb1 2.393076 1_555
O12 P2 1.522170 1_565
O12 Sb1 2.304277 1_555
O13 P2 1.625919 1_555
O13 P4 1.626003 1_555
O14 P4 1.564667 1_565
O14 Sb1 2.094156 1_555
O15 P2 1.483371 1_555
O16 P3 1.625919 1_455
O16 P5 1.626003 1_555
O17 P3 1.483371 1_555
O18 P4 1.505244 1_555
O19 P5 1.505244 1_555
O20 P6 1.505244 1_555
O21 P7 1.505244 1_555
O22 P8 1.483371 1_555
O23 P8 1.625919 1_655
O23 P6 1.626003 1_555
O24 P9 1.483371 1_555
O25 P7 1.564667 1_545
O25 Sb2 2.094156 1_555
O26 P9 1.625919 1_555
O26 P7 1.626003 1_555
O27 P9 1.522170 1_545
O27 Sb2 2.304277 1_555
O28 P6 1.546477 1_555
O28 Sb2 2.393076 1_555
O29 P6 1.564667 1_555
O29 Sb3 2.094156 1_555
O30 P8 1.522170 1_555
O30 Sb3 2.304277 1_455
O31 P7 1.546477 1_555
O31 Sb3 2.393076 1_555
O32 P8 1.631412 1_555
O32 P10 1.633401 1_455
O33 P9 1.631412 1_555
O33 P11 1.633401 1_555
O34 P10 1.550854 1_555
O34 Sb2 2.135634 1_555
O35 P0 1.509120 1_556
O36 P10 1.548057 1_555
O36 Sb3 2.224564 1_555
O37 P11 1.550854 1_555
O37 Sb3 2.135634 1_555
O38 P1 1.509120 1_556
O39 P11 1.548057 1_555
O39 Sb2 2.224564 1_565
