# generated using pymatgen
data_B5H4NO10
_symmetry_space_group_name_H-M   'P 1'
_cell_length_a   7.71731600
_cell_length_b   9.37775600
_cell_length_c   11.68681567
_cell_angle_alpha   83.37571419
_cell_angle_beta   90.00000000
_cell_angle_gamma   90.00000000
_symmetry_Int_Tables_number   1
_chemical_formula_structural   B5H4NO10
_chemical_formula_sum   'B20 H16 N4 O40'
_cell_volume   840.14126602
_cell_formula_units_Z   4
loop_
 _symmetry_equiv_pos_site_id
 _symmetry_equiv_pos_as_xyz
  1  'x, y, z'
loop_
 _atom_site_type_symbol
 _atom_site_label
 _atom_site_symmetry_multiplicity
 _atom_site_fract_x
 _atom_site_fract_y
 _atom_site_fract_z
 _atom_site_occupancy
  B  B0  1  0.81086000  0.43469400  0.57350700  1
  B  B1  1  0.31086000  0.56530600  0.92649300  1
  B  B2  1  0.18914000  0.56530600  0.42649300  1
  B  B3  1  0.68914000  0.43469400  0.07350700  1
  B  B4  1  0.01513500  0.24918200  0.54138200  1
  B  B5  1  0.51513500  0.75081800  0.95861800  1
  B  B6  1  0.98486500  0.75081800  0.45861800  1
  B  B7  1  0.48486500  0.24918200  0.04138200  1
  B  B8  1  0.95186400  0.29542700  0.74441400  1
  B  B9  1  0.45186400  0.70457300  0.75558600  1
  B  B10  1  0.04813600  0.70457300  0.25558600  1
  B  B11  1  0.54813600  0.29542700  0.24441400  1
  B  B12  1  0.09453800  0.36810200  0.92147100  1
  B  B13  1  0.59453800  0.63189800  0.57852900  1
  B  B14  1  0.90546200  0.63189800  0.07852900  1
  B  B15  1  0.40546200  0.36810200  0.42147100  1
  B  B16  1  0.88767900  0.17411100  0.94269500  1
  B  B17  1  0.38767900  0.82588900  0.55730500  1
  B  B18  1  0.11232100  0.82588900  0.05730500  1
  B  B19  1  0.61232100  0.17411100  0.44269500  1
  H  H0  1  0.59144400  0.95176900  0.77016200  1
  H  H1  1  0.09144400  0.04823100  0.72983800  1
  H  H2  1  0.40855600  0.04823100  0.22983800  1
  H  H3  1  0.90855600  0.95176900  0.27016200  1
  H  H4  1  0.70371600  0.09675800  0.77060100  1
  H  H5  1  0.20371600  0.90324200  0.72939900  1
  H  H6  1  0.29628400  0.90324200  0.22939900  1
  H  H7  1  0.79628400  0.09675800  0.27060100  1
  H  H8  1  0.84166900  0.06040900  0.09531600  1
  H  H9  1  0.34166900  0.93959100  0.40468400  1
  H  H10  1  0.15833100  0.93959100  0.90468400  1
  H  H11  1  0.65833100  0.06040900  0.59531600  1
  H  H12  1  0.16669500  0.09313200  0.49290600  1
  H  H13  1  0.66669500  0.90686800  0.00709400  1
  H  H14  1  0.83330500  0.90686800  0.50709400  1
  H  H15  1  0.33330500  0.09313200  0.99290600  1
  N  N0  1  0.93895900  0.67611600  0.76422900  1
  N  N1  1  0.43895900  0.32388400  0.73577100  1
  N  N2  1  0.06104100  0.32388400  0.23577100  1
  N  N3  1  0.56104100  0.67611600  0.26422900  1
  O  O0  1  0.70228400  0.54249100  0.52525000  1
  O  O1  1  0.20228400  0.45750900  0.97475000  1
  O  O2  1  0.29771600  0.45750900  0.47475000  1
  O  O3  1  0.79771600  0.54249100  0.02525000  1
  O  O4  1  0.90451000  0.36020900  0.49806400  1
  O  O5  1  0.40451000  0.63979100  0.00193600  1
  O  O6  1  0.09549000  0.63979100  0.50193600  1
  O  O7  1  0.59549000  0.36020900  0.99806400  1
  O  O8  1  0.09400500  0.17530600  0.46249100  1
  O  O9  1  0.59400500  0.82469400  0.03750900  1
  O  O10  1  0.90599500  0.82469400  0.53750900  1
  O  O11  1  0.40599500  0.17530600  0.96249100  1
  O  O12  1  0.82539500  0.39918200  0.68965900  1
  O  O13  1  0.32539500  0.60081800  0.81034100  1
  O  O14  1  0.17460500  0.60081800  0.31034100  1
  O  O15  1  0.67460500  0.39918200  0.18965900  1
  O  O16  1  0.04056000  0.21641100  0.65872200  1
  O  O17  1  0.54056000  0.78358900  0.84127800  1
  O  O18  1  0.95944000  0.78358900  0.34127800  1
  O  O19  1  0.45944000  0.21641100  0.15872200  1
  O  O20  1  0.07847800  0.37763500  0.80394700  1
  O  O21  1  0.57847800  0.62236500  0.69605300  1
  O  O22  1  0.92152200  0.62236500  0.19605300  1
  O  O23  1  0.42152200  0.37763500  0.30394700  1
  O  O24  1  0.85955300  0.18914000  0.82591000  1
  O  O25  1  0.35955300  0.81086000  0.67409000  1
  O  O26  1  0.14044700  0.81086000  0.17409000  1
  O  O27  1  0.64044700  0.18914000  0.32591000  1
  O  O28  1  0.00213100  0.26554600  0.99177700  1
  O  O29  1  0.50213100  0.73445400  0.50822300  1
  O  O30  1  0.99786900  0.73445400  0.00822300  1
  O  O31  1  0.49786900  0.26554600  0.49177700  1
  O  O32  1  0.80586400  0.06702600  0.01084500  1
  O  O33  1  0.30586400  0.93297400  0.48915500  1
  O  O34  1  0.19413600  0.93297400  0.98915500  1
  O  O35  1  0.69413600  0.06702600  0.51084500  1
  O  O36  1  0.61533400  0.04735000  0.72601200  1
  O  O37  1  0.11533400  0.95265000  0.77398800  1
  O  O38  1  0.38466600  0.95265000  0.27398800  1
  O  O39  1  0.88466600  0.04735000  0.22601200  1
loop_
_geom_bond_atom_site_label_1
_geom_bond_atom_site_label_2
_geom_bond_distance
_geom_bond_site_symmetry_2
B0 O12 1.364497 1_555
B0 O0 1.382222 1_555
B0 O4 1.389137 1_555
B1 O13 1.364497 1_555
B1 O1 1.382222 1_555
B1 O5 1.389137 1_556
B2 O14 1.364497 1_555
B2 O2 1.382222 1_555
B2 O6 1.389137 1_555
B3 O15 1.364497 1_555
B3 O3 1.382222 1_555
B3 O7 1.389137 1_554
B4 O8 1.359359 1_555
B4 O16 1.384291 1_555
B4 O4 1.395562 1_455
B5 O9 1.359359 1_556
B5 O17 1.384291 1_555
B5 O5 1.395562 1_556
B6 O10 1.359359 1_555
B6 O18 1.384291 1_555
B6 O6 1.395562 1_655
B7 O11 1.359359 1_554
B7 O19 1.384291 1_555
B7 O7 1.395562 1_554
B8 O20 1.468643 1_655
B8 O12 1.471436 1_555
B8 O24 1.479554 1_555
B8 O16 1.480456 1_655
B9 O21 1.468643 1_555
B9 O13 1.471436 1_555
B9 O25 1.479554 1_555
B9 O17 1.480456 1_555
B10 O22 1.468643 1_455
B10 O14 1.471436 1_555
B10 O26 1.479554 1_555
B10 O18 1.480456 1_455
B11 O23 1.468643 1_555
B11 O15 1.471436 1_555
B11 O27 1.479554 1_555
B11 O19 1.480456 1_555
B12 O20 1.371669 1_555
B12 O1 1.379327 1_555
B12 O28 1.387916 1_555
B13 O21 1.371669 1_555
B13 O0 1.379327 1_555
B13 O29 1.387916 1_555
B14 O22 1.371669 1_555
B14 O3 1.379327 1_555
B14 O30 1.387916 1_555
B15 O23 1.371669 1_555
B15 O2 1.379327 1_555
B15 O31 1.387916 1_555
B16 O32 1.362689 1_556
B16 O24 1.373098 1_555
B16 O28 1.399246 1_655
B17 O33 1.362689 1_555
B17 O25 1.373098 1_555
B17 O29 1.399246 1_555
B18 O34 1.362689 1_554
B18 O26 1.373098 1_555
B18 O30 1.399246 1_455
B19 O35 1.362689 1_555
B19 O27 1.373098 1_555
B19 O31 1.399246 1_555
H0 O36 0.998465 1_565
H1 O37 0.998465 1_545
H2 O38 0.998465 1_545
H3 O39 0.998465 1_565
H4 O36 1.003572 1_555
H4 O24 1.656473 1_555
H5 O37 1.003572 1_555
H5 O25 1.656473 1_555
H6 O38 1.003572 1_555
H6 O26 1.656473 1_555
H7 O39 1.003572 1_555
H7 O27 1.656473 1_555
H8 O32 1.020111 1_555
H8 O39 1.554014 1_555
H9 O33 1.020111 1_555
H9 O38 1.554014 1_555
H10 O34 1.020111 1_555
H10 O37 1.554014 1_555
H11 O35 1.020111 1_555
H11 O36 1.554014 1_555
H12 O8 0.985737 1_555
H13 O9 0.985737 1_555
H14 O10 0.985737 1_555
H15 O11 0.985737 1_555
