# generated using pymatgen
data_Li5VCr3O8
_symmetry_space_group_name_H-M   'P 1'
_cell_length_a   6.14073863
_cell_length_b   6.14073863
_cell_length_c   6.14073936
_cell_angle_alpha   58.63429314
_cell_angle_beta   58.63429314
_cell_angle_gamma   58.63428895
_symmetry_Int_Tables_number   1
_chemical_formula_structural   Li5VCr3O8
_chemical_formula_sum   'Li5 V1 Cr3 O8'
_cell_volume   158.62546737
_cell_formula_units_Z   1
loop_
 _symmetry_equiv_pos_site_id
 _symmetry_equiv_pos_as_xyz
  1  'x, y, z'
loop_
 _atom_site_type_symbol
 _atom_site_label
 _atom_site_symmetry_multiplicity
 _atom_site_fract_x
 _atom_site_fract_y
 _atom_site_fract_z
 _atom_site_occupancy
  Li  Li0  1  0.06543800  0.06543800  0.06543800  1
  Li  Li1  1  0.00000000  0.50000000  0.00000000  1
  Li  Li2  1  0.93456200  0.93456200  0.93456200  1
  Li  Li3  1  0.00000000  0.00000000  0.50000000  1
  Li  Li4  1  0.50000000  0.00000000  0.00000000  1
  V  V0  1  0.50000000  0.50000000  0.50000000  1
  Cr  Cr0  1  0.00000000  0.50000000  0.50000000  1
  Cr  Cr1  1  0.50000000  0.50000000  0.00000000  1
  Cr  Cr2  1  0.50000000  0.00000000  0.50000000  1
  O  O0  1  0.25850200  0.25850200  0.25850200  1
  O  O1  1  0.72583300  0.25241600  0.25241600  1
  O  O2  1  0.25241600  0.25241600  0.72583300  1
  O  O3  1  0.25241600  0.72583300  0.25241600  1
  O  O4  1  0.74758400  0.27416700  0.74758400  1
  O  O5  1  0.74758400  0.74758400  0.27416700  1
  O  O6  1  0.27416700  0.74758400  0.74758400  1
  O  O7  1  0.74149800  0.74149800  0.74149800  1
loop_
_geom_bond_atom_site_label_1
_geom_bond_atom_site_label_2
_geom_bond_distance
_geom_bond_site_symmetry_2
Li0 O3 1.836515 1_545
Li0 O1 1.836515 1_455
Li0 O2 1.836515 1_554
Li1 O0 2.227290 1_555
Li1 O7 2.227290 1_454
Li1 O6 2.245730 1_554
Li1 O1 2.245730 1_455
Li1 O5 2.245730 1_455
Li1 O2 2.245730 1_554
Li2 O4 1.836515 1_565
Li2 O6 1.836515 1_655
Li2 O5 1.836515 1_556
Li3 O7 2.227290 1_445
Li3 O0 2.227290 1_555
Li3 O6 2.245730 1_545
Li3 O3 2.245730 1_545
Li3 O4 2.245730 1_455
Li3 O1 2.245730 1_455
Li4 O7 2.227290 1_544
Li4 O0 2.227290 1_555
Li4 O4 2.245730 1_554
Li4 O3 2.245730 1_545
Li4 O5 2.245730 1_545
Li4 O2 2.245730 1_554
Cr0 O5 2.055927 1_455
Cr0 O2 2.055927 1_555
Cr0 O3 2.055927 1_555
Cr0 O4 2.055927 1_455
Cr0 O7 2.075206 1_455
Cr0 O0 2.075206 1_555
Cr1 O3 2.055927 1_555
Cr1 O1 2.055927 1_555
Cr1 O4 2.055927 1_554
Cr1 O6 2.055927 1_554
Cr1 O0 2.075206 1_555
Cr1 O7 2.075206 1_554
Cr2 O5 2.055927 1_545
Cr2 O2 2.055927 1_555
Cr2 O1 2.055927 1_555
Cr2 O6 2.055927 1_545
Cr2 O7 2.075206 1_545
Cr2 O0 2.075206 1_555
O1 V0 2.136035 1_555
O2 V0 2.136035 1_555
O3 V0 2.136035 1_555
O4 V0 2.136035 1_555
O5 V0 2.136035 1_555
O6 V0 2.136035 1_555
