# generated using pymatgen
data_Li3Mn4(BO3)4
_symmetry_space_group_name_H-M   'P 1'
_cell_length_a   9.10429500
_cell_length_b   9.12614009
_cell_length_c   10.45568462
_cell_angle_alpha   92.02628180
_cell_angle_beta   89.76139486
_cell_angle_gamma   119.79971066
_symmetry_Int_Tables_number   1
_chemical_formula_structural   Li3Mn4(BO3)4
_chemical_formula_sum   'Li9 Mn12 B12 O36'
_cell_volume   753.29656871
_cell_formula_units_Z   3
loop_
 _symmetry_equiv_pos_site_id
 _symmetry_equiv_pos_as_xyz
  1  'x, y, z'
loop_
 _atom_site_type_symbol
 _atom_site_label
 _atom_site_symmetry_multiplicity
 _atom_site_fract_x
 _atom_site_fract_y
 _atom_site_fract_z
 _atom_site_occupancy
  Li  Li0  1  0.96353100  0.89584400  0.34064100  1
  Li  Li1  1  0.39388700  0.78007300  0.09073100  1
  Li  Li2  1  0.72796000  0.44429300  0.59565100  1
  Li  Li3  1  0.62806600  0.22791300  0.33808400  1
  Li  Li4  1  0.28946600  0.56304600  0.32625500  1
  Li  Li5  1  0.27520700  0.56852200  0.84072400  1
  Li  Li6  1  0.59437600  0.22932100  0.83264300  1
  Li  Li7  1  0.03686600  0.09891600  0.07843100  1
  Li  Li8  1  0.04654200  0.10615400  0.58803300  1
  Mn  Mn0  1  0.65204700  0.90381500  0.87639200  1
  Mn  Mn1  1  0.72221700  0.74848600  0.12139600  1
  Mn  Mn2  1  0.94853500  0.58036700  0.86675700  1
  Mn  Mn3  1  0.29595300  0.90190900  0.36617100  1
  Mn  Mn4  1  0.61712300  0.55284800  0.36931700  1
  Mn  Mn5  1  0.94676300  0.22810200  0.37190800  1
  Mn  Mn6  1  0.38984700  0.45168400  0.62466400  1
  Mn  Mn7  1  0.07094200  0.78483700  0.61750100  1
  Mn  Mn8  1  0.68784200  0.08703300  0.61326100  1
  Mn  Mn9  1  0.40311500  0.13289200  0.11674800  1
  Mn  Mn10  1  0.04036300  0.44391700  0.11545700  1
  Mn  Mn11  1  0.24669600  0.20069100  0.86172700  1
  B  B0  1  0.61653200  0.88348500  0.36344000  1
  B  B1  1  0.95236100  0.55820200  0.37699600  1
  B  B2  1  0.72990300  0.77963000  0.63324700  1
  B  B3  1  0.29769800  0.89039500  0.87527500  1
  B  B4  1  0.92388900  0.22153100  0.87664600  1
  B  B5  1  0.60006800  0.54661700  0.86265900  1
  B  B6  1  0.07453000  0.79714600  0.11471300  1
  B  B7  1  0.73248000  0.10281500  0.12831900  1
  B  B8  1  0.37703200  0.43786300  0.12159200  1
  B  B9  1  0.28164300  0.22854800  0.38832700  1
  B  B10  1  0.38470100  0.12245700  0.61838000  1
  B  B11  1  0.03800400  0.43019300  0.64141400  1
  O  O0  1  0.98526800  0.87869900  0.14124100  1
  O  O1  1  0.89907800  0.87048700  0.61705500  1
  O  O2  1  0.99262600  0.63508700  0.05181800  1
  O  O3  1  0.65961100  0.93954200  0.06748700  1
  O  O4  1  0.71974700  0.81433100  0.33104200  1
  O  O5  1  0.64015800  0.85403300  0.68990400  1
  O  O6  1  0.94927900  0.51898000  0.67692000  1
  O  O7  1  0.67032500  0.70778400  0.91799400  1
  O  O8  1  0.31480800  0.95956600  0.56881600  1
  O  O9  1  0.63658800  0.60868600  0.58996800  1
  O  O10  1  0.44488800  0.79051300  0.35059700  1
  O  O11  1  0.78103300  0.45752900  0.40066300  1
  O  O12  1  0.94891600  0.26822100  0.58766500  1
  O  O13  1  0.37966200  0.80186300  0.89678300  1
  O  O14  1  0.24244500  0.86584000  0.15362500  1
  O  O15  1  0.69178300  0.46577100  0.86013600  1
  O  O16  1  0.90454900  0.18416500  0.16070600  1
  O  O17  1  0.54119400  0.49934500  0.16898400  1
  O  O18  1  0.13060500  0.80895400  0.82554900  1
  O  O19  1  0.43144600  0.46979000  0.81464700  1
  O  O20  1  0.75001900  0.14530300  0.84309500  1
  O  O21  1  0.30151300  0.53681300  0.12968500  1
  O  O22  1  0.63806000  0.17557300  0.15861600  1
  O  O23  1  0.03421400  0.73132400  0.40552600  1
  O  O24  1  0.36039000  0.40323700  0.43300100  1
  O  O25  1  0.55717500  0.21989500  0.63797000  1
  O  O26  1  0.69105100  0.05238400  0.40984400  1
  O  O27  1  0.20940600  0.51182200  0.65934800  1
  O  O28  1  0.28741200  0.27204600  0.06965700  1
  O  O29  1  0.38457600  0.16985900  0.33848700  1
  O  O30  1  0.04543300  0.48567800  0.32720200  1
  O  O31  1  0.27831100  0.18917100  0.65235400  1
  O  O32  1  0.37260700  0.06443200  0.90274900  1
  O  O33  1  0.01533700  0.39507700  0.90424400  1
  O  O34  1  0.10929500  0.13021400  0.39573400  1
  O  O35  1  0.99273600  0.11927100  0.88740500  1
loop_
_geom_bond_atom_site_label_1
_geom_bond_atom_site_label_2
_geom_bond_distance
_geom_bond_site_symmetry_2
Li0 O34 1.940562 1_665
Li0 O4 1.960885 1_555
Li0 O23 2.040754 1_655
Li0 O0 2.101089 1_555
Li1 O14 1.993692 1_555
Li1 O21 2.001759 1_555
Li1 O13 2.055440 1_554
Li1 O3 2.133167 1_555
Li2 O25 1.923721 1_555
Li2 O6 1.963384 1_555
Li2 O9 2.047820 1_555
Li2 O11 2.087030 1_555
Li3 O22 1.932857 1_555
Li3 O11 1.941329 1_555
Li3 O29 2.006902 1_555
Li3 O26 2.111744 1_555
Li4 O10 1.849973 1_555
Li4 O30 1.968732 1_555
Li4 O21 2.069522 1_555
Li4 O24 2.201548 1_555
Li5 O13 1.919957 1_555
Li5 O27 1.963408 1_555
Li5 O19 2.040314 1_555
Li5 O33 2.209797 1_555
Li6 O15 1.892543 1_555
Li6 O20 1.922226 1_555
Li6 O32 1.980936 1_555
Li6 O25 2.056581 1_555
Li7 O16 1.916260 1_455
Li7 O0 1.960451 1_445
Li7 O28 2.033295 1_555
Li7 O35 2.071779 1_454
Li8 O1 1.921707 1_445
Li8 O31 1.966111 1_555
Li8 O12 2.069939 1_455
Li8 O34 2.077058 1_555
Mn0 O7 1.941385 1_555
Mn0 O20 1.967638 1_565
Mn0 O5 1.977450 1_555
Mn0 O3 2.008963 1_556
Mn0 O13 2.185678 1_555
Mn1 O0 2.085360 1_555
Mn1 O17 2.117094 1_555
Mn1 O7 2.159199 1_554
Mn1 O3 2.177779 1_555
Mn1 O4 2.255284 1_555
Mn2 O2 1.973171 1_556
Mn2 O18 1.976311 1_655
Mn2 O15 2.032005 1_555
Mn2 O6 2.044176 1_555
Mn2 O33 2.110448 1_655
Mn3 O10 2.062813 1_555
Mn3 O23 2.149702 1_555
Mn3 O8 2.151751 1_555
Mn3 O29 2.191246 1_565
Mn3 O14 2.254385 1_555
Mn4 O11 2.098939 1_555
Mn4 O4 2.139162 1_555
Mn4 O24 2.156434 1_555
Mn4 O17 2.169782 1_555
Mn4 O9 2.333261 1_555
Mn5 O34 2.093430 1_655
Mn5 O26 2.115524 1_555
Mn5 O30 2.127554 1_655
Mn5 O16 2.230737 1_555
Mn5 O12 2.271187 1_555
Mn6 O27 2.002145 1_555
Mn6 O19 2.009325 1_555
Mn6 O9 2.015363 1_555
Mn6 O24 2.026637 1_555
Mn6 O31 2.117329 1_555
Mn7 O8 2.064061 1_555
Mn7 O1 2.067668 1_455
Mn7 O6 2.220193 1_455
Mn7 O18 2.220926 1_555
Mn7 O23 2.242724 1_555
Mn8 O25 2.088339 1_555
Mn8 O5 2.133599 1_545
Mn8 O12 2.138920 1_555
Mn8 O26 2.141378 1_555
Mn8 O20 2.449438 1_555
Mn9 O22 2.021467 1_555
Mn9 O28 2.083983 1_555
Mn9 O14 2.178637 1_545
Mn9 O32 2.282052 1_554
Mn9 O29 2.348502 1_555
Mn10 O21 2.093884 1_555
Mn10 O2 2.124514 1_455
Mn10 O16 2.129138 1_455
Mn10 O33 2.227364 1_554
Mn10 O30 2.229934 1_555
Mn11 O35 2.066751 1_455
Mn11 O32 2.122036 1_555
Mn11 O31 2.212415 1_555
Mn11 O28 2.225900 1_556
Mn11 O19 2.252886 1_555
B0 O10 1.362271 1_555
B0 O4 1.402773 1_555
B0 O26 1.407848 1_565
B1 O11 1.388107 1_555
B1 O23 1.392405 1_655
B1 O30 1.398758 1_655
B2 O1 1.351611 1_555
B2 O9 1.412888 1_555
B2 O5 1.413695 1_555
B3 O13 1.368840 1_555
B3 O32 1.401077 1_565
B3 O18 1.411530 1_555
B4 O35 1.365978 1_555
B4 O33 1.394246 1_655
B4 O20 1.416197 1_555
B5 O15 1.361274 1_555
B5 O7 1.383846 1_555
B5 O19 1.418473 1_555
B6 O0 1.369667 1_455
B6 O14 1.389309 1_555
B6 O2 1.419508 1_455
B7 O22 1.352920 1_555
B7 O16 1.396649 1_555
B7 O3 1.420875 1_545
B8 O21 1.380787 1_555
B8 O17 1.395392 1_555
B8 O28 1.403187 1_555
B9 O34 1.370308 1_555
B9 O29 1.382654 1_555
B9 O24 1.444942 1_555
B10 O8 1.375285 1_545
B10 O25 1.378524 1_555
B10 O31 1.415295 1_555
B11 O27 1.364686 1_555
B11 O12 1.382782 1_455
B11 O6 1.440026 1_455
