# generated using pymatgen
data_V12O29
_symmetry_space_group_name_H-M   'P 1'
_cell_length_a   14.34338971
_cell_length_b   14.34338971
_cell_length_c   10.32680936
_cell_angle_alpha   77.77068477
_cell_angle_beta   77.77068477
_cell_angle_gamma   14.70484920
_symmetry_Int_Tables_number   1
_chemical_formula_structural   V12O29
_chemical_formula_sum   'V12 O29'
_cell_volume   526.85471703
_cell_formula_units_Z   1
loop_
 _symmetry_equiv_pos_site_id
 _symmetry_equiv_pos_as_xyz
  1  'x, y, z'
loop_
 _atom_site_type_symbol
 _atom_site_label
 _atom_site_symmetry_multiplicity
 _atom_site_fract_x
 _atom_site_fract_y
 _atom_site_fract_z
 _atom_site_occupancy
  V  V0  1  0.93750400  0.93750400  0.08623200  1
  V  V1  1  0.85122900  0.85122900  0.34316300  1
  V  V2  1  0.82150300  0.82150300  0.02664700  1
  V  V3  1  0.69753700  0.69753700  0.20738900  1
  V  V4  1  0.60792900  0.60792900  0.46785400  1
  V  V5  1  0.58627700  0.58627700  0.14429600  1
  V  V6  1  0.41372300  0.41372300  0.85570400  1
  V  V7  1  0.39207100  0.39207100  0.53214600  1
  V  V8  1  0.30246300  0.30246300  0.79261100  1
  V  V9  1  0.17849700  0.17849700  0.97335300  1
  V  V10  1  0.14877100  0.14877100  0.65683700  1
  V  V11  1  0.06249600  0.06249600  0.91376800  1
  O  O0  1  0.90069100  0.90069100  0.90262000  1
  O  O1  1  0.94159600  0.94159600  0.24060600  1
  O  O2  1  0.87541900  0.87541900  0.51492300  1
  O  O3  1  0.86154300  0.86154300  0.16103300  1
  O  O4  1  0.80682600  0.80682600  0.83985100  1
  O  O5  1  0.79395600  0.79395600  0.38804700  1
  O  O6  1  0.76350500  0.76350500  0.12229900  1
  O  O7  1  0.70157300  0.70157300  0.36136800  1
  O  O8  1  0.63091600  0.63091600  0.63544800  1
  O  O9  1  0.66656000  0.66656000  0.02471700  1
  O  O10  1  0.62334700  0.62334700  0.27858800  1
  O  O11  1  0.57108600  0.57108600  0.96103000  1
  O  O12  1  0.55057600  0.55057600  0.50251800  1
  O  O13  1  0.53280200  0.53280200  0.23362100  1
  O  O14  1  0.46719800  0.46719800  0.76637900  1
  O  O15  1  0.00000000  0.00000000  0.00000000  1
  O  O16  1  0.44942400  0.44942400  0.49748200  1
  O  O17  1  0.42891400  0.42891400  0.03897000  1
  O  O18  1  0.37665300  0.37665300  0.72141200  1
  O  O19  1  0.33344000  0.33344000  0.97528300  1
  O  O20  1  0.36908400  0.36908400  0.36455200  1
  O  O21  1  0.29842700  0.29842700  0.63863200  1
  O  O22  1  0.23649500  0.23649500  0.87770100  1
  O  O23  1  0.20604400  0.20604400  0.61195300  1
  O  O24  1  0.19317400  0.19317400  0.16014900  1
  O  O25  1  0.13845700  0.13845700  0.83896700  1
  O  O26  1  0.12458100  0.12458100  0.48507700  1
  O  O27  1  0.05840400  0.05840400  0.75939400  1
  O  O28  1  0.09930900  0.09930900  0.09738000  1
loop_
_geom_bond_atom_site_label_1
_geom_bond_atom_site_label_2
_geom_bond_distance
_geom_bond_site_symmetry_2
O0 V6 1.914348 1_655
O0 V6 1.914348 1_565
O0 V2 2.341732 1_556
O0 V0 2.353844 1_556
O1 V0 1.623046 1_555
O2 V7 1.913463 1_655
O2 V7 1.913463 1_565
O2 V1 2.035003 1_555
O3 V1 1.840609 1_555
O3 V2 1.974578 1_555
O3 V0 2.134056 1_555
O4 V8 1.910110 1_655
O4 V8 1.910110 1_565
O4 V2 2.059008 1_556
O5 V1 1.596053 1_555
O6 V2 1.732709 1_555
O6 V3 1.894786 1_555
O7 V3 1.618529 1_555
O8 V10 1.929775 1_655
O8 V10 1.929775 1_565
O8 V4 1.976507 1_555
O9 V9 1.920677 1_564
O9 V9 1.920677 1_654
O9 V3 2.246216 1_555
O9 V5 2.353142 1_555
O10 V4 1.909532 1_555
O10 V5 1.913206 1_555
O10 V3 2.081593 1_555
O11 V11 1.928250 1_655
O11 V11 1.928250 1_565
O11 V5 2.029274 1_556
O12 V4 1.594121 1_555
O13 V5 1.601908 1_555
O14 V6 1.601908 1_555
O15 V0 1.810570 1_445
O15 V11 1.810570 1_554
O16 V7 1.594121 1_555
O17 V0 1.928250 1_545
O17 V0 1.928250 1_455
O17 V6 2.029274 1_554
O18 V7 1.909532 1_555
O18 V6 1.913206 1_555
O18 V8 2.081593 1_555
O19 V2 1.920677 1_456
O19 V2 1.920677 1_546
O19 V8 2.246216 1_555
O19 V6 2.353142 1_555
O20 V1 1.929775 1_545
O20 V1 1.929775 1_455
O20 V7 1.976507 1_555
O21 V8 1.618529 1_555
O22 V9 1.732709 1_555
O22 V8 1.894786 1_555
O23 V10 1.596053 1_555
O24 V3 1.910110 1_545
O24 V3 1.910110 1_455
O24 V9 2.059008 1_554
O25 V10 1.840609 1_555
O25 V9 1.974578 1_555
O25 V11 2.134056 1_555
O26 V4 1.913463 1_455
O26 V4 1.913463 1_545
O26 V10 2.035003 1_555
O27 V11 1.623046 1_555
O28 V5 1.914348 1_545
O28 V5 1.914348 1_455
O28 V9 2.341732 1_554
O28 V11 2.353844 1_554
