# generated using pymatgen
data_Li3Mn5(NiO6)2
_symmetry_space_group_name_H-M   'P 1'
_cell_length_a   5.09276500
_cell_length_b   5.12237654
_cell_length_c   28.73153908
_cell_angle_alpha   89.32015226
_cell_angle_beta   91.56838090
_cell_angle_gamma   119.68856766
_symmetry_Int_Tables_number   1
_chemical_formula_structural   Li3Mn5(NiO6)2
_chemical_formula_sum   'Li9 Mn15 Ni6 O36'
_cell_volume   650.88681230
_cell_formula_units_Z   3
loop_
 _symmetry_equiv_pos_site_id
 _symmetry_equiv_pos_as_xyz
  1  'x, y, z'
loop_
 _atom_site_type_symbol
 _atom_site_label
 _atom_site_symmetry_multiplicity
 _atom_site_fract_x
 _atom_site_fract_y
 _atom_site_fract_z
 _atom_site_occupancy
  Li  Li0  1  0.33151100  0.16060400  0.50536200  1
  Li  Li1  1  0.99729000  0.15945600  0.83861000  1
  Li  Li2  1  0.99638300  0.16151200  0.32793400  1
  Li  Li3  1  0.99431500  0.83345900  0.66325000  1
  Li  Li4  1  0.01588000  0.84819500  0.91735200  1
  Li  Li5  1  0.00355800  0.83314100  0.17035700  1
  Li  Li6  1  0.34879700  0.84745400  0.58404700  1
  Li  Li7  1  0.66274100  0.83323900  0.99614900  1
  Li  Li8  1  0.66561300  0.84798100  0.24927200  1
  Mn  Mn0  1  0.33237000  0.14688500  0.75017400  1
  Mn  Mn1  1  0.33336400  0.15647900  0.25023200  1
  Mn  Mn2  1  0.65505000  0.14336700  0.41664000  1
  Mn  Mn3  1  0.65625800  0.15664600  0.91641400  1
  Mn  Mn4  1  0.99186600  0.15012000  0.08331400  1
  Mn  Mn5  1  0.98939400  0.15641900  0.58309300  1
  Mn  Mn6  1  0.67805800  0.51833200  0.32892700  1
  Mn  Mn7  1  0.67242900  0.51694000  0.83779100  1
  Mn  Mn8  1  0.00498400  0.51870900  0.99560600  1
  Mn  Mn9  1  0.00655300  0.51753600  0.50429900  1
  Mn  Mn10  1  0.33815900  0.51835400  0.66244600  1
  Mn  Mn11  1  0.99710900  0.82719900  0.41664800  1
  Mn  Mn12  1  0.34704200  0.51779900  0.17093200  1
  Mn  Mn13  1  0.33236800  0.83070900  0.08333800  1
  Mn  Mn14  1  0.66450500  0.82987200  0.74972800  1
  Ni  Ni0  1  0.65780600  0.48263500  0.08326800  1
  Ni  Ni1  1  0.67257800  0.51183700  0.58315500  1
  Ni  Ni2  1  0.99292000  0.49026000  0.74994700  1
  Ni  Ni3  1  0.00568100  0.51186200  0.25022300  1
  Ni  Ni4  1  0.33173900  0.49736800  0.41667100  1
  Ni  Ni5  1  0.33907300  0.51181200  0.91646900  1
  O  O0  1  0.32845800  0.14989800  0.38200200  1
  O  O1  1  0.30926500  0.14282700  0.11892800  1
  O  O2  1  0.31274900  0.19667000  0.62406400  1
  O  O3  1  0.36833800  0.20838500  0.87623000  1
  O  O4  1  0.66640400  0.14193000  0.04781900  1
  O  O5  1  0.66132800  0.15087200  0.78527400  1
  O  O6  1  0.67382700  0.20851600  0.29040800  1
  O  O7  1  0.70168400  0.20859600  0.54295500  1
  O  O8  1  0.00412100  0.14260800  0.71483100  1
  O  O9  1  0.63970700  0.49428200  0.21014400  1
  O  O10  1  0.68855300  0.49580000  0.95666600  1
  O  O11  1  0.65043800  0.52766800  0.70878400  1
  O  O12  1  0.98837600  0.15099800  0.45141400  1
  O  O13  1  0.97942000  0.19683800  0.95734100  1
  O  O14  1  0.69959900  0.49895500  0.45607700  1
  O  O15  1  0.05097800  0.19720000  0.20933300  1
  O  O16  1  0.95898200  0.46868600  0.87593000  1
  O  O17  1  0.02231900  0.49483500  0.62339000  1
  O  O18  1  0.96673800  0.49972000  0.37713400  1
  O  O19  1  0.04277000  0.51741900  0.12318700  1
  O  O20  1  0.29141700  0.46807100  0.54258000  1
  O  O21  1  0.95943600  0.81066800  0.79065000  1
  O  O22  1  0.99718200  0.80577400  0.04456000  1
  O  O23  1  0.34369100  0.46917000  0.29093700  1
  O  O24  1  0.30881000  0.51768600  0.04337700  1
  O  O25  1  0.01440500  0.85380100  0.54639700  1
  O  O26  1  0.00628200  0.85446900  0.28700200  1
  O  O27  1  0.36438200  0.48872100  0.78821300  1
  O  O28  1  0.32909500  0.81252900  0.71182300  1
  O  O29  1  0.30113300  0.81702600  0.45686200  1
  O  O30  1  0.35105500  0.84124400  0.95384800  1
  O  O31  1  0.32270700  0.84024600  0.21288200  1
  O  O32  1  0.68196500  0.81754400  0.37671900  1
  O  O33  1  0.64144900  0.80515900  0.12233200  1
  O  O34  1  0.68003700  0.85378700  0.87967900  1
  O  O35  1  0.68355500  0.84086300  0.62038900  1
loop_
_geom_bond_atom_site_label_1
_geom_bond_atom_site_label_2
_geom_bond_distance
_geom_bond_site_symmetry_2
Li0 O25 2.003520 1_545
Li0 O20 2.009015 1_555
Li0 O7 2.053489 1_555
Li0 O29 2.199951 1_545
Li0 O12 2.286283 1_455
Li0 O14 2.322028 1_555
Li1 O34 2.002245 1_545
Li1 O16 2.013630 1_555
Li1 O3 2.056067 1_655
Li1 O21 2.197880 1_545
Li1 O5 2.249722 1_555
Li1 O27 2.324483 1_655
Li2 O26 1.996236 1_645
Li2 O23 2.010973 1_655
Li2 O6 2.051241 1_555
Li2 O32 2.214194 1_545
Li2 O0 2.287032 1_655
Li2 O18 2.313272 1_555
Li3 O35 1.993568 1_555
Li3 O2 2.102498 1_665
Li3 O11 2.142794 1_555
Li3 O17 2.154469 1_655
Li3 O8 2.163295 1_665
Li3 O28 2.216590 1_655
Li4 O30 1.993960 1_555
Li4 O34 2.011028 1_455
Li4 O10 2.094546 1_455
Li4 O16 2.181162 1_455
Li4 O3 2.192221 1_565
Li4 O13 2.220985 1_465
Li5 O31 1.992400 1_555
Li5 O15 2.092525 1_565
Li5 O9 2.153160 1_455
Li5 O1 2.178901 1_565
Li5 O19 2.208814 1_555
Li5 O33 2.220109 1_455
Li6 O35 1.989131 1_555
Li6 O25 2.006124 1_555
Li6 O17 2.093880 1_555
Li6 O20 2.180547 1_555
Li6 O7 2.194754 1_565
Li6 O2 2.222870 1_565
Li7 O30 1.989010 1_555
Li7 O13 2.094485 1_565
Li7 O10 2.138131 1_555
Li7 O4 2.174747 1_566
Li7 O24 2.213305 1_556
Li7 O22 2.226765 1_556
Li8 O31 1.994222 1_555
Li8 O26 2.006758 1_655
Li8 O9 2.089792 1_555
Li8 O6 2.186746 1_565
Li8 O23 2.187961 1_555
Li8 O15 2.228306 1_665
Mn0 O8 1.922895 1_555
Mn0 O5 1.923072 1_555
Mn0 O27 2.009970 1_555
Mn0 O28 2.040402 1_545
Mn0 O21 2.181503 1_445
Mn0 O11 2.182489 1_555
Mn1 O15 1.921296 1_555
Mn1 O31 1.931185 1_545
Mn1 O26 1.946531 1_545
Mn1 O6 1.962098 1_555
Mn1 O23 1.973243 1_555
Mn1 O9 2.032659 1_555
Mn2 O0 1.929168 1_555
Mn2 O12 1.929711 1_555
Mn2 O14 2.068480 1_555
Mn2 O18 2.078300 1_555
Mn2 O32 2.097748 1_545
Mn2 O29 2.112389 1_545
Mn3 O13 1.922994 1_555
Mn3 O30 1.935374 1_545
Mn3 O34 1.940956 1_545
Mn3 O3 1.959157 1_555
Mn3 O16 1.974256 1_555
Mn3 O10 2.033937 1_555
Mn4 O4 1.904920 1_555
Mn4 O1 1.905169 1_655
Mn4 O22 2.108869 1_545
Mn4 O19 2.114523 1_655
Mn4 O33 2.121958 1_545
Mn4 O24 2.122899 1_655
Mn5 O2 1.924418 1_655
Mn5 O35 1.934779 1_545
Mn5 O25 1.942278 1_645
Mn5 O7 1.958674 1_555
Mn5 O20 1.972518 1_655
Mn5 O17 2.030438 1_655
Mn6 O23 1.906441 1_555
Mn6 O6 1.936575 1_555
Mn6 O18 2.028091 1_555
Mn6 O32 2.062338 1_555
Mn6 O26 2.102330 1_655
Mn6 O0 2.410177 1_555
Mn7 O16 1.911779 1_555
Mn7 O3 1.934875 1_555
Mn7 O21 2.028860 1_555
Mn7 O27 2.041826 1_555
Mn7 O34 2.099437 1_555
Mn7 O5 2.398659 1_555
Mn8 O10 1.891971 1_455
Mn8 O13 1.940765 1_455
Mn8 O24 2.041976 1_556
Mn8 O22 2.062072 1_456
Mn8 O30 2.111783 1_555
Mn8 O4 2.392694 1_456
Mn9 O20 1.910169 1_555
Mn9 O7 1.940960 1_455
Mn9 O14 2.027207 1_455
Mn9 O29 2.060160 1_555
Mn9 O25 2.100018 1_555
Mn9 O12 2.393817 1_455
Mn10 O17 1.890352 1_555
Mn10 O2 1.942200 1_555
Mn10 O11 2.028423 1_555
Mn10 O28 2.099682 1_555
Mn10 O35 2.115158 1_555
Mn10 O8 2.385763 1_555
Mn11 O29 1.927578 1_655
Mn11 O32 1.927789 1_555
Mn11 O0 1.964858 1_665
Mn11 O12 1.966108 1_565
Mn11 O18 1.976184 1_555
Mn11 O14 1.982759 1_555
Mn12 O9 1.894205 1_555
Mn12 O15 1.944976 1_555
Mn12 O19 2.040523 1_555
Mn12 O33 2.060140 1_555
Mn12 O31 2.110536 1_555
Mn12 O1 2.375943 1_555
Mn13 O24 1.936278 1_555
Mn13 O19 1.940544 1_555
Mn13 O4 1.961346 1_565
Mn13 O1 1.961453 1_565
Mn13 O33 1.963186 1_555
Mn13 O22 1.963382 1_455
Mn14 O21 1.922254 1_555
Mn14 O11 1.927193 1_555
Mn14 O5 1.952965 1_565
Mn14 O28 1.965180 1_555
Mn14 O8 1.968562 1_665
Mn14 O27 2.003361 1_555
Ni0 O33 2.044871 1_555
Ni0 O22 2.047332 1_555
Ni0 O4 2.050702 1_555
Ni0 O1 2.055957 1_555
Ni0 O24 2.168998 1_555
Ni0 O19 2.174080 1_655
Ni1 O35 1.983511 1_555
Ni1 O7 2.012169 1_555
Ni1 O25 2.061643 1_655
Ni1 O2 2.118560 1_555
Ni1 O17 2.134245 1_655
Ni1 O20 2.151435 1_555
Ni2 O5 2.011996 1_555
Ni2 O28 2.028844 1_655
Ni2 O8 2.082999 1_655
Ni2 O21 2.103359 1_555
Ni2 O27 2.165256 1_655
Ni2 O11 2.165727 1_555
Ni3 O31 1.987217 1_555
Ni3 O6 2.016605 1_455
Ni3 O26 2.057927 1_555
Ni3 O15 2.111752 1_555
Ni3 O9 2.127599 1_455
Ni3 O23 2.153145 1_555
Ni4 O0 2.042579 1_555
Ni4 O12 2.045098 1_455
Ni4 O29 2.084799 1_555
Ni4 O32 2.087695 1_555
Ni4 O18 2.156895 1_455
Ni4 O14 2.158860 1_555
Ni5 O30 1.985471 1_555
Ni5 O3 2.013984 1_555
Ni5 O34 2.060231 1_555
Ni5 O13 2.117181 1_455
Ni5 O10 2.130297 1_555
Ni5 O16 2.147448 1_455
