# generated using pymatgen
data_LuGaO3
_symmetry_space_group_name_H-M   'P 1'
_cell_length_a   5.20806200
_cell_length_b   5.53821300
_cell_length_c   7.58419400
_cell_angle_alpha   90.00000000
_cell_angle_beta   90.00000000
_cell_angle_gamma   90.00000000
_symmetry_Int_Tables_number   1
_chemical_formula_structural   LuGaO3
_chemical_formula_sum   'Lu4 Ga4 O12'
_cell_volume   218.75361262
_cell_formula_units_Z   4
loop_
 _symmetry_equiv_pos_site_id
 _symmetry_equiv_pos_as_xyz
  1  'x, y, z'
loop_
 _atom_site_type_symbol
 _atom_site_label
 _atom_site_symmetry_multiplicity
 _atom_site_fract_x
 _atom_site_fract_y
 _atom_site_fract_z
 _atom_site_occupancy
  Lu  Lu0  1  0.02209300  0.07160300  0.75000000  1
  Lu  Lu1  1  0.47790700  0.57160300  0.75000000  1
  Lu  Lu2  1  0.52209300  0.42839700  0.25000000  1
  Lu  Lu3  1  0.97790700  0.92839700  0.25000000  1
  Ga  Ga0  1  0.00000000  0.50000000  0.50000000  1
  Ga  Ga1  1  0.50000000  0.00000000  0.50000000  1
  Ga  Ga2  1  0.50000000  0.00000000  0.00000000  1
  Ga  Ga3  1  0.00000000  0.50000000  0.00000000  1
  O  O0  1  0.12451700  0.54878200  0.25000000  1
  O  O1  1  0.19031500  0.80670900  0.56334600  1
  O  O2  1  0.19031500  0.80670900  0.93665400  1
  O  O3  1  0.30968500  0.30670900  0.93665400  1
  O  O4  1  0.30968500  0.30670900  0.56334600  1
  O  O5  1  0.37548300  0.04878200  0.25000000  1
  O  O6  1  0.62451700  0.95121800  0.75000000  1
  O  O7  1  0.69031500  0.69329100  0.06334600  1
  O  O8  1  0.69031500  0.69329100  0.43665400  1
  O  O9  1  0.80968500  0.19329100  0.43665400  1
  O  O10  1  0.80968500  0.19329100  0.06334600  1
  O  O11  1  0.87548300  0.45121800  0.75000000  1
loop_
_geom_bond_atom_site_label_1
_geom_bond_atom_site_label_2
_geom_bond_distance
_geom_bond_site_symmetry_2
Lu0 O6 2.175293 1_445
Lu0 O1 2.218954 1_545
Lu0 O2 2.218954 1_545
Lu0 O11 2.236751 1_455
Lu0 O4 2.437777 1_555
Lu0 O3 2.437777 1_555
Lu0 O10 2.706581 1_456
Lu0 O9 2.706581 1_455
Lu1 O11 2.175293 1_555
Lu1 O4 2.218954 1_555
Lu1 O3 2.218954 1_555
Lu1 O6 2.236751 1_555
Lu1 O1 2.437777 1_555
Lu1 O2 2.437777 1_555
Lu1 O7 2.706581 1_556
Lu1 O8 2.706581 1_555
Lu2 O0 2.175293 1_555
Lu2 O7 2.218954 1_555
Lu2 O8 2.218954 1_555
Lu2 O5 2.236751 1_555
Lu2 O10 2.437777 1_555
Lu2 O9 2.437777 1_555
Lu2 O3 2.706581 1_554
Lu2 O4 2.706581 1_555
Lu3 O5 2.175293 1_665
Lu3 O9 2.218954 1_565
Lu3 O10 2.218954 1_565
Lu3 O0 2.236751 1_655
Lu3 O8 2.437777 1_555
Lu3 O7 2.437777 1_555
Lu3 O2 2.706581 1_654
Lu3 O1 2.706581 1_655
Ga0 O4 1.994509 1_555
Ga0 O8 1.994509 1_455
Ga0 O11 2.022012 1_455
Ga0 O0 2.022012 1_555
Ga0 O1 2.024486 1_555
Ga0 O9 2.024486 1_455
Ga1 O1 1.994509 1_545
Ga1 O9 1.994509 1_555
Ga1 O6 2.022012 1_545
Ga1 O5 2.022012 1_555
Ga1 O8 2.024486 1_545
Ga1 O4 2.024486 1_555
Ga2 O10 1.994509 1_555
Ga2 O2 1.994509 1_544
Ga2 O6 2.022012 1_544
Ga2 O5 2.022012 1_555
Ga2 O7 2.024486 1_545
Ga2 O3 2.024486 1_554
Ga3 O3 1.994509 1_554
Ga3 O7 1.994509 1_455
Ga3 O11 2.022012 1_454
Ga3 O0 2.022012 1_555
Ga3 O2 2.024486 1_554
Ga3 O10 2.024486 1_455
