# generated using pymatgen
data_LiMn2(BO3)2
_symmetry_space_group_name_H-M   'P 1'
_cell_length_a   5.30009400
_cell_length_b   5.80270498
_cell_length_c   18.01444641
_cell_angle_alpha   83.85873955
_cell_angle_beta   82.19576857
_cell_angle_gamma   65.86495076
_symmetry_Int_Tables_number   1
_chemical_formula_structural   LiMn2(BO3)2
_chemical_formula_sum   'Li4 Mn8 B8 O24'
_cell_volume   500.10610540
_cell_formula_units_Z   4
loop_
 _symmetry_equiv_pos_site_id
 _symmetry_equiv_pos_as_xyz
  1  'x, y, z'
loop_
 _atom_site_type_symbol
 _atom_site_label
 _atom_site_symmetry_multiplicity
 _atom_site_fract_x
 _atom_site_fract_y
 _atom_site_fract_z
 _atom_site_occupancy
  Li  Li0  1  0.82000900  0.77915200  0.38980400  1
  Li  Li1  1  0.17999100  0.22084800  0.61019600  1
  Li  Li2  1  0.32483200  0.02481400  0.14057500  1
  Li  Li3  1  0.67516800  0.97518600  0.85942500  1
  Mn  Mn0  1  0.28590400  0.77301700  0.47330400  1
  Mn  Mn1  1  0.71578800  0.71732400  0.02983800  1
  Mn  Mn2  1  0.71409600  0.22698300  0.52669600  1
  Mn  Mn3  1  0.21709100  0.46553000  0.28023600  1
  Mn  Mn4  1  0.28421200  0.28267600  0.97016200  1
  Mn  Mn5  1  0.78290900  0.53447000  0.71976400  1
  Mn  Mn6  1  0.78533800  0.01921600  0.22326400  1
  Mn  Mn7  1  0.21466200  0.98078400  0.77673600  1
  B  B0  1  0.69890000  0.56204700  0.19394700  1
  B  B1  1  0.20020400  0.81978400  0.93776900  1
  B  B2  1  0.80740700  0.68479500  0.55389900  1
  B  B3  1  0.19259300  0.31520500  0.44610100  1
  B  B4  1  0.30110000  0.43795300  0.80605300  1
  B  B5  1  0.70462200  0.06180600  0.69035400  1
  B  B6  1  0.29537800  0.93819400  0.30964600  1
  B  B7  1  0.79979600  0.18021600  0.06223100  1
  O  O0  1  0.44383100  0.86832700  0.36995000  1
  O  O1  1  0.60974900  0.60010700  0.53857600  1
  O  O2  1  0.07340100  0.87160700  0.30420800  1
  O  O3  1  0.85816000  0.85653200  0.49703000  1
  O  O4  1  0.55017800  0.65908600  0.13417500  1
  O  O5  1  0.95642800  0.59092000  0.61273800  1
  O  O6  1  0.65178400  0.37667400  0.24428000  1
  O  O7  1  0.12982200  0.66014200  0.99209500  1
  O  O8  1  0.39025100  0.39989300  0.46142400  1
  O  O9  1  0.88657100  0.65529300  0.21277800  1
  O  O10  1  0.34821600  0.62332600  0.75572000  1
  O  O11  1  0.04357200  0.40908000  0.38726200  1
  O  O12  1  0.44982200  0.34091400  0.86582500  1
  O  O13  1  0.14184000  0.14346800  0.50297000  1
  O  O14  1  0.58619700  0.10556400  0.05164500  1
  O  O15  1  0.11342900  0.34470700  0.78722200  1
  O  O16  1  0.37194000  0.07559500  0.24721200  1
  O  O17  1  0.87017800  0.33985800  0.00790500  1
  O  O18  1  0.55616900  0.13167300  0.63005000  1
  O  O19  1  0.94962900  0.09305200  0.12312600  1
  O  O20  1  0.62806000  0.92440500  0.75278800  1
  O  O21  1  0.41380300  0.89443600  0.94835500  1
  O  O22  1  0.92659900  0.12839300  0.69579200  1
  O  O23  1  0.05037100  0.90694800  0.87687400  1
loop_
_geom_bond_atom_site_label_1
_geom_bond_atom_site_label_2
_geom_bond_distance
_geom_bond_site_symmetry_2
Li0 O0 1.918646 1_555
Li0 O11 1.985695 1_655
Li0 O2 2.078207 1_655
Li0 O3 2.083155 1_555
Li1 O18 1.918646 1_555
Li1 O5 1.985695 1_455
Li1 O22 2.078207 1_455
Li1 O13 2.083155 1_555
Li2 O19 1.925971 1_455
Li2 O4 1.971221 1_545
Li2 O16 2.037393 1_555
Li2 O14 2.114827 1_555
Li3 O23 1.925971 1_655
Li3 O12 1.971221 1_565
Li3 O20 2.037393 1_555
Li3 O21 2.114827 1_555
Mn0 O8 2.031556 1_555
Mn0 O0 2.051351 1_555
Mn0 O1 2.054921 1_555
Mn0 O13 2.069346 1_565
Mn0 O3 2.107108 1_455
Mn1 O4 2.018926 1_555
Mn1 O17 2.062734 1_555
Mn1 O7 2.106059 1_654
Mn1 O14 2.133557 1_565
Mn1 O21 2.177777 1_554
Mn2 O1 2.031556 1_555
Mn2 O18 2.051351 1_555
Mn2 O8 2.054921 1_555
Mn2 O3 2.069346 1_545
Mn2 O13 2.107108 1_655
Mn3 O11 2.073646 1_555
Mn3 O9 2.114803 1_455
Mn3 O6 2.165214 1_555
Mn3 O16 2.187233 1_555
Mn3 O2 2.231529 1_555
Mn4 O12 2.018926 1_555
Mn4 O7 2.062734 1_555
Mn4 O17 2.106059 1_456
Mn4 O21 2.133557 1_545
Mn4 O14 2.177777 1_556
Mn5 O5 2.073646 1_555
Mn5 O15 2.114803 1_655
Mn5 O10 2.165214 1_555
Mn5 O20 2.187233 1_555
Mn5 O22 2.231529 1_555
Mn6 O6 1.959932 1_555
Mn6 O19 1.977141 1_555
Mn6 O9 1.978446 1_545
Mn6 O16 2.069092 1_555
Mn6 O2 2.111595 1_645
Mn7 O10 1.959932 1_555
Mn7 O23 1.977141 1_555
Mn7 O15 1.978446 1_565
Mn7 O20 2.069092 1_555
Mn7 O22 2.111595 1_465
B0 O4 1.354846 1_555
B0 O9 1.402945 1_555
B0 O6 1.411046 1_555
B1 O23 1.370857 1_555
B1 O7 1.394461 1_555
B1 O21 1.408191 1_555
B2 O5 1.340161 1_555
B2 O1 1.394176 1_555
B2 O3 1.428606 1_555
B3 O11 1.340161 1_555
B3 O8 1.394176 1_555
B3 O13 1.428606 1_555
B4 O12 1.354846 1_555
B4 O15 1.402945 1_555
B4 O10 1.411046 1_555
B5 O18 1.356694 1_555
B5 O22 1.397922 1_555
B5 O20 1.419187 1_545
B6 O0 1.356694 1_555
B6 O2 1.397922 1_555
B6 O16 1.419187 1_565
B7 O19 1.370857 1_555
B7 O17 1.394461 1_555
B7 O14 1.408191 1_555
