# generated using pymatgen
data_SbRu
_symmetry_space_group_name_H-M   'P 1'
_cell_length_a   3.78917608
_cell_length_b   5.89756158
_cell_length_c   6.61654518
_cell_angle_alpha   90.00000000
_cell_angle_beta   90.00000000
_cell_angle_gamma   90.00000000
_symmetry_Int_Tables_number   1
_chemical_formula_structural   SbRu
_chemical_formula_sum   'Sb4 Ru4'
_cell_volume   147.85926865
_cell_formula_units_Z   4
loop_
 _symmetry_equiv_pos_site_id
 _symmetry_equiv_pos_as_xyz
  1  'x, y, z'
loop_
 _atom_site_type_symbol
 _atom_site_label
 _atom_site_symmetry_multiplicity
 _atom_site_fract_x
 _atom_site_fract_y
 _atom_site_fract_z
 _atom_site_occupancy
  Sb  Sb0  1  0.75000000  0.79974093  0.41892979  1
  Sb  Sb1  1  0.25000000  0.20025907  0.58107021  1
  Sb  Sb2  1  0.75000000  0.29974093  0.08107021  1
  Sb  Sb3  1  0.25000000  0.70025907  0.91892979  1
  Ru  Ru0  1  0.75000000  0.99473707  0.79266432  1
  Ru  Ru1  1  0.25000000  0.00526293  0.20733568  1
  Ru  Ru2  1  0.75000000  0.49473707  0.70733568  1
  Ru  Ru3  1  0.25000000  0.50526293  0.29266432  1
loop_
_geom_bond_atom_site_label_1
_geom_bond_atom_site_label_2
_geom_bond_distance
_geom_bond_site_symmetry_2
Ru0 Sb2 2.622409 1_566
Ru0 Sb1 2.649275 1_565
Ru0 Sb1 2.649275 1_665
Ru0 Sb3 2.702510 1_655
Ru0 Sb3 2.702510 1_555
Ru0 Sb0 2.727160 1_555
Ru1 Sb3 2.622409 1_544
Ru1 Sb0 2.649275 1_545
Ru1 Sb0 2.649275 1_445
Ru1 Sb2 2.702510 1_455
Ru1 Sb2 2.702510 1_555
Ru1 Sb1 2.727160 1_555
Ru2 Sb0 2.622409 1_555
Ru2 Sb3 2.649275 1_555
Ru2 Sb3 2.649275 1_655
Ru2 Sb1 2.702510 1_555
Ru2 Sb1 2.702510 1_655
Ru2 Sb2 2.727160 1_556
Ru3 Sb1 2.622409 1_555
Ru3 Sb2 2.649275 1_455
Ru3 Sb2 2.649275 1_555
Ru3 Sb0 2.702510 1_455
Ru3 Sb0 2.702510 1_555
Ru3 Sb3 2.727160 1_554
