# generated using pymatgen
data_CrH12N3(OF2)3
_symmetry_space_group_name_H-M   'P 1'
_cell_length_a   6.86241800
_cell_length_b   7.10065833
_cell_length_c   9.53353051
_cell_angle_alpha   80.23057933
_cell_angle_beta   82.82832006
_cell_angle_gamma   69.34562514
_symmetry_Int_Tables_number   1
_chemical_formula_structural   CrH12N3(OF2)3
_chemical_formula_sum   'Cr2 H24 N6 O6 F12'
_cell_volume   427.31942957
_cell_formula_units_Z   2
loop_
 _symmetry_equiv_pos_site_id
 _symmetry_equiv_pos_as_xyz
  1  'x, y, z'
loop_
 _atom_site_type_symbol
 _atom_site_label
 _atom_site_symmetry_multiplicity
 _atom_site_fract_x
 _atom_site_fract_y
 _atom_site_fract_z
 _atom_site_occupancy
  Cr  Cr0  1  0.50000000  0.50000000  0.50000000  1
  Cr  Cr1  1  0.00000000  0.00000000  0.00000000  1
  H  H0  1  0.28015000  0.90632400  0.64407700  1
  H  H1  1  0.71985000  0.09367600  0.35592300  1
  H  H2  1  0.22669600  0.16155700  0.62766200  1
  H  H3  1  0.77330400  0.83844300  0.37233800  1
  H  H4  1  0.03091600  0.06968200  0.62825000  1
  H  H5  1  0.96908400  0.93031800  0.37175000  1
  H  H6  1  0.33396900  0.93399600  0.42224200  1
  H  H7  1  0.66603100  0.06600400  0.57775800  1
  H  H8  1  0.88074400  0.69393300  0.80865900  1
  H  H9  1  0.11925600  0.30606700  0.19134100  1
  H  H10  1  0.76049100  0.56971600  0.72804300  1
  H  H11  1  0.23950900  0.43028400  0.27195700  1
  H  H12  1  0.09888900  0.53784200  0.62568700  1
  H  H13  1  0.90111100  0.46215800  0.37431300  1
  H  H14  1  0.88305900  0.45849200  0.88715500  1
  H  H15  1  0.11694100  0.54150800  0.11284500  1
  H  H16  1  0.59186700  0.19091800  0.85955500  1
  H  H17  1  0.40813300  0.80908200  0.14044500  1
  H  H18  1  0.33765200  0.19125000  0.90260700  1
  H  H19  1  0.66234800  0.80875000  0.09739300  1
  H  H20  1  0.39060400  0.51560500  0.81340400  1
  H  H21  1  0.60939600  0.48439500  0.18659600  1
  H  H22  1  0.50189200  0.18967000  0.02669100  1
  H  H23  1  0.49810800  0.81033000  0.97330900  1
  N  N0  1  0.18693400  0.04732300  0.59621600  1
  N  N1  1  0.81306600  0.95267700  0.40378400  1
  N  N2  1  0.88275400  0.55479500  0.78788000  1
  N  N3  1  0.11724600  0.44520500  0.21212000  1
  N  N4  1  0.45258200  0.24535000  0.92424900  1
  N  N5  1  0.54741800  0.75465000  0.07575100  1
  O  O0  1  0.21268300  0.06084300  0.44505000  1
  O  O1  1  0.78731700  0.93915700  0.55495000  1
  O  O2  1  0.07662600  0.45244600  0.71926500  1
  O  O3  1  0.92337400  0.54755400  0.28073500  1
  O  O4  1  0.37604500  0.45868500  0.91596700  1
  O  O5  1  0.62395500  0.54131500  0.08403300  1
  F  F0  1  0.80032800  0.39389000  0.51609400  1
  F  F1  1  0.19967200  0.60611000  0.48390600  1
  F  F2  1  0.51907500  0.74888700  0.38203400  1
  F  F3  1  0.48092500  0.25111300  0.61796600  1
  F  F4  1  0.54012500  0.35844800  0.33246100  1
  F  F5  1  0.45987500  0.64155200  0.66753900  1
  F  F6  1  0.84521700  0.07227400  0.82654700  1
  F  F7  1  0.15478300  0.92772600  0.17345300  1
  F  F8  1  0.00964000  0.72519700  0.99609400  1
  F  F9  1  0.99036000  0.27480300  0.00390600  1
  F  F10  1  0.73430300  0.03648700  0.11890000  1
  F  F11  1  0.26569700  0.96351300  0.88110000  1
loop_
_geom_bond_atom_site_label_1
_geom_bond_atom_site_label_2
_geom_bond_distance
_geom_bond_site_symmetry_2
Cr0 F0 1.945021 1_555
Cr0 F1 1.945021 1_555
Cr0 F2 1.963947 1_555
Cr0 F3 1.963947 1_555
Cr0 F4 1.969011 1_555
Cr0 F5 1.969011 1_555
Cr1 F9 1.935522 1_455
Cr1 F8 1.935522 1_544
Cr1 F7 1.972835 1_545
Cr1 F6 1.972835 1_454
Cr1 F11 1.981641 1_544
Cr1 F10 1.981641 1_455
H0 N0 1.042020 1_565
H1 N1 1.042020 1_545
H2 N0 1.039885 1_555
H3 N1 1.039885 1_555
H4 N0 1.039079 1_555
H5 N1 1.039079 1_555
H6 O0 1.021618 1_565
H7 O1 1.021618 1_545
H8 N2 1.035202 1_555
H9 N3 1.035202 1_555
H10 N2 1.037731 1_555
H11 N3 1.037731 1_555
H12 O2 1.017180 1_555
H13 O3 1.017180 1_555
H14 N2 1.069209 1_555
H15 N3 1.069209 1_555
H16 N4 1.056636 1_555
H17 N5 1.056636 1_555
H18 N4 1.045680 1_555
H19 N5 1.045680 1_555
H20 O4 0.999692 1_555
H21 O5 0.999692 1_555
H22 N4 1.040062 1_554
H23 N5 1.040062 1_556
N0 O0 1.420835 1_555
N1 O1 1.420835 1_555
N2 O2 1.409980 1_655
N3 O3 1.409980 1_455
N4 O4 1.408992 1_555
N5 O5 1.408992 1_555
F0 H13 1.523505 1_555
F1 H12 1.523505 1_555
F2 H6 1.536136 1_555
F3 H7 1.536136 1_555
F4 H21 1.634734 1_555
F5 H20 1.634734 1_555
F6 H16 1.658779 1_555
F7 H17 1.658779 1_555
F8 H15 1.586421 1_556
F9 H14 1.586421 1_554
