# generated using pymatgen
data_Li2Co(CO3)2
_symmetry_space_group_name_H-M   'P 1'
_cell_length_a   9.68583100
_cell_length_b   7.57659700
_cell_length_c   7.93469514
_cell_angle_alpha   69.75187282
_cell_angle_beta   90.00000000
_cell_angle_gamma   90.00000000
_symmetry_Int_Tables_number   1
_chemical_formula_structural   Li2Co(CO3)2
_chemical_formula_sum   'Li8 Co4 C8 O24'
_cell_volume   546.30852174
_cell_formula_units_Z   4
loop_
 _symmetry_equiv_pos_site_id
 _symmetry_equiv_pos_as_xyz
  1  'x, y, z'
loop_
 _atom_site_type_symbol
 _atom_site_label
 _atom_site_symmetry_multiplicity
 _atom_site_fract_x
 _atom_site_fract_y
 _atom_site_fract_z
 _atom_site_occupancy
  Li  Li0  1  0.63070000  0.43496700  0.23469000  1
  Li  Li1  1  0.67675100  0.07795000  0.10216800  1
  Li  Li2  1  0.13070000  0.56503300  0.76531000  1
  Li  Li3  1  0.17675100  0.92205000  0.89783200  1
  Li  Li4  1  0.86689500  0.02544200  0.70243000  1
  Li  Li5  1  0.37265400  0.28261700  0.40650300  1
  Li  Li6  1  0.87265400  0.71738300  0.59349700  1
  Li  Li7  1  0.36689500  0.97455800  0.29757000  1
  Co  Co0  1  0.38704200  0.80905700  0.68482800  1
  Co  Co1  1  0.88704200  0.19094300  0.31517200  1
  Co  Co2  1  0.12853700  0.32519800  0.18353700  1
  Co  Co3  1  0.62853700  0.67480200  0.81646300  1
  C  C0  1  0.39314700  0.45436100  0.00704000  1
  C  C1  1  0.89314700  0.54563900  0.99296000  1
  C  C2  1  0.98927700  0.07630200  0.02239700  1
  C  C3  1  0.48927700  0.92369800  0.97760300  1
  C  C4  1  0.50334300  0.58085300  0.50495800  1
  C  C5  1  0.00334300  0.41914700  0.49504200  1
  C  C6  1  0.12134300  0.96329700  0.52386300  1
  C  C7  1  0.62134300  0.03670300  0.47613700  1
  O  O0  1  0.33418900  0.34256000  0.15071500  1
  O  O1  1  0.82189200  0.45844900  0.13564800  1
  O  O2  1  0.02597900  0.52302000  0.98813500  1
  O  O3  1  0.52597900  0.47698000  0.01186500  1
  O  O4  1  0.32189200  0.54155100  0.86435200  1
  O  O5  1  0.83418900  0.65744000  0.84928500  1
  O  O6  1  0.87750100  0.09907700  0.10601900  1
  O  O7  1  0.10836800  0.13219600  0.05987400  1
  O  O8  1  0.48314300  0.00438400  0.09537000  1
  O  O9  1  0.98314300  0.99561600  0.90463000  1
  O  O10  1  0.60836800  0.86780400  0.94012600  1
  O  O11  1  0.37750100  0.90092300  0.89398100  1
  O  O12  1  0.60327800  0.56777300  0.61837200  1
  O  O13  1  0.00249300  0.52208200  0.59368900  1
  O  O14  1  0.40141000  0.70043900  0.48980200  1
  O  O15  1  0.90141000  0.29956100  0.51019800  1
  O  O16  1  0.50249300  0.47791800  0.40631100  1
  O  O17  1  0.10327800  0.43222700  0.38162800  1
  O  O18  1  0.17303900  0.84542600  0.67134800  1
  O  O19  1  0.48808500  0.04001700  0.49955200  1
  O  O20  1  0.70199600  0.92114200  0.59177900  1
  O  O21  1  0.20199600  0.07885800  0.40822100  1
  O  O22  1  0.98808500  0.95998300  0.50044800  1
  O  O23  1  0.67303900  0.15457400  0.32865200  1
loop_
_geom_bond_atom_site_label_1
_geom_bond_atom_site_label_2
_geom_bond_distance
_geom_bond_site_symmetry_2
Li0 O16 1.951684 1_555
Li0 O3 1.966365 1_555
Li0 O1 1.995451 1_555
Li0 O23 2.034918 1_555
Li1 O6 1.952115 1_555
Li1 O8 1.962389 1_555
Li1 O23 2.071225 1_555
Li1 O10 2.458441 1_544
Li2 O13 1.951684 1_555
Li2 O2 1.966365 1_555
Li2 O4 1.995451 1_555
Li2 O18 2.034918 1_555
Li3 O11 1.952115 1_555
Li3 O9 1.962389 1_455
Li3 O18 2.071225 1_555
Li3 O7 2.458441 1_566
Li4 O9 1.908397 1_545
Li4 O20 2.103941 1_545
Li4 O15 2.135194 1_555
Li4 O22 2.177740 1_545
Li5 O16 1.941535 1_555
Li5 O0 1.956098 1_555
Li5 O19 2.057752 1_555
Li5 O21 2.258590 1_555
Li6 O13 1.941535 1_655
Li6 O5 1.956098 1_555
Li6 O22 2.057752 1_555
Li6 O20 2.258590 1_555
Li7 O8 1.908397 1_565
Li7 O21 2.103941 1_565
Li7 O14 2.135194 1_555
Li7 O19 2.177740 1_565
Co0 O14 1.993182 1_555
Co0 O11 2.011639 1_555
Co0 O18 2.088889 1_555
Co0 O19 2.097743 1_565
Co0 O4 2.129977 1_555
Co1 O15 1.993182 1_555
Co1 O6 2.011639 1_555
Co1 O23 2.088889 1_555
Co1 O22 2.097743 1_545
Co1 O1 2.129977 1_555
Co2 O2 2.007143 1_554
Co2 O0 2.007268 1_555
Co2 O17 2.017475 1_555
Co2 O7 2.032843 1_555
Co2 O21 2.205668 1_555
Co3 O3 2.007143 1_556
Co3 O5 2.007268 1_555
Co3 O12 2.017475 1_555
Co3 O10 2.032843 1_555
Co3 O20 2.205668 1_555
C0 O0 1.294164 1_555
C0 O4 1.294942 1_554
C0 O3 1.300264 1_555
C1 O5 1.294164 1_555
C1 O1 1.294942 1_556
C1 O2 1.300264 1_655
C2 O9 1.282903 1_544
C2 O7 1.298263 1_655
C2 O6 1.312019 1_555
C3 O8 1.282903 1_566
C3 O10 1.298263 1_555
C3 O11 1.312019 1_555
C4 O16 1.281997 1_555
C4 O12 1.301866 1_555
C4 O14 1.317099 1_555
C5 O13 1.281997 1_555
C5 O17 1.301866 1_555
C5 O15 1.317099 1_455
C6 O21 1.289470 1_565
C6 O18 1.301678 1_555
C6 O22 1.305497 1_455
C7 O20 1.289470 1_545
C7 O23 1.301678 1_555
C7 O19 1.305497 1_555
