# generated using pymatgen
data_Ba2Nd2Fe4O11
_symmetry_space_group_name_H-M   'P 1'
_cell_length_a   8.88909052
_cell_length_b   8.88909052
_cell_length_c   3.96157900
_cell_angle_alpha   90.00000000
_cell_angle_beta   90.00000000
_cell_angle_gamma   125.89138485
_symmetry_Int_Tables_number   1
_chemical_formula_structural   Ba2Nd2Fe4O11
_chemical_formula_sum   'Ba2 Nd2 Fe4 O11'
_cell_volume   253.59318961
_cell_formula_units_Z   1
loop_
 _symmetry_equiv_pos_site_id
 _symmetry_equiv_pos_as_xyz
  1  'x, y, z'
loop_
 _atom_site_type_symbol
 _atom_site_label
 _atom_site_symmetry_multiplicity
 _atom_site_fract_x
 _atom_site_fract_y
 _atom_site_fract_z
 _atom_site_occupancy
  Ba  Ba0  1  0.00000000  0.50000000  0.50000000  1
  Ba  Ba1  1  0.50000000  0.00000000  0.50000000  1
  Nd  Nd0  1  0.73193600  0.73193600  0.50000000  1
  Nd  Nd1  1  0.26806400  0.26806400  0.50000000  1
  Fe  Fe0  1  0.12553100  0.87446900  0.00000000  1
  Fe  Fe1  1  0.87446900  0.12553100  0.00000000  1
  Fe  Fe2  1  0.37721800  0.62278200  0.00000000  1
  Fe  Fe3  1  0.62278200  0.37721800  0.00000000  1
  O  O0  1  0.86412500  0.65564800  0.00000000  1
  O  O1  1  0.34435200  0.13587500  0.00000000  1
  O  O2  1  0.13587500  0.34435200  0.00000000  1
  O  O3  1  0.65564800  0.86412500  0.00000000  1
  O  O4  1  0.09133600  0.90866400  0.50000000  1
  O  O5  1  0.90866400  0.09133600  0.50000000  1
  O  O6  1  0.38151600  0.61848400  0.50000000  1
  O  O7  1  0.61848400  0.38151600  0.50000000  1
  O  O8  1  0.24758000  0.75242000  0.00000000  1
  O  O9  1  0.75242000  0.24758000  0.00000000  1
  O  O10  1  0.50000000  0.50000000  0.00000000  1
loop_
_geom_bond_atom_site_label_1
_geom_bond_atom_site_label_2
_geom_bond_distance
_geom_bond_site_symmetry_2
Ba0 O9 2.830476 1_456
Ba0 O9 2.830476 1_455
Ba0 O8 2.830476 1_555
Ba0 O8 2.830476 1_556
Ba0 O6 2.902145 1_555
Ba0 O7 2.902145 1_455
Ba0 O2 3.042356 1_556
Ba0 O2 3.042356 1_555
Ba0 O0 3.042356 1_456
Ba0 O0 3.042356 1_455
Ba0 O4 3.224475 1_555
Ba0 O5 3.224475 1_455
Ba1 O8 2.830476 1_546
Ba1 O8 2.830476 1_545
Ba1 O9 2.830476 1_556
Ba1 O9 2.830476 1_555
Ba1 O7 2.902145 1_555
Ba1 O6 2.902145 1_545
Ba1 O1 3.042356 1_555
Ba1 O1 3.042356 1_556
Ba1 O3 3.042356 1_545
Ba1 O3 3.042356 1_546
Ba1 O5 3.224475 1_555
Ba1 O4 3.224475 1_545
Nd0 O3 2.588125 1_555
Nd0 O3 2.588125 1_556
Nd0 O0 2.588125 1_555
Nd0 O0 2.588125 1_556
Nd0 O5 2.605709 1_565
Nd0 O4 2.605709 1_655
Nd0 O6 2.652642 1_555
Nd0 O7 2.652642 1_555
Nd0 O10 2.727801 1_556
Nd0 O10 2.727801 1_555
Nd1 O2 2.588125 1_556
Nd1 O2 2.588125 1_555
Nd1 O1 2.588125 1_555
Nd1 O1 2.588125 1_556
Nd1 O4 2.605709 1_545
Nd1 O5 2.605709 1_455
Nd1 O6 2.652642 1_555
Nd1 O7 2.652642 1_555
Nd1 O10 2.727801 1_556
Nd1 O10 2.727801 1_555
Fe0 O8 1.932380 1_555
Fe0 O0 1.970640 1_455
Fe0 O1 1.970640 1_565
Fe0 O4 2.053447 1_555
Fe0 O4 2.053447 1_554
Fe1 O9 1.932380 1_555
Fe1 O3 1.970640 1_545
Fe1 O2 1.970640 1_655
Fe1 O5 2.053447 1_554
Fe1 O5 2.053447 1_555
Fe2 O10 1.943985 1_555
Fe2 O6 1.981958 1_555
Fe2 O6 1.981958 1_554
Fe2 O8 2.052535 1_555
Fe2 O3 2.121888 1_555
Fe2 O2 2.121888 1_555
Fe3 O10 1.943985 1_555
Fe3 O7 1.981958 1_554
Fe3 O7 1.981958 1_555
Fe3 O9 2.052535 1_555
Fe3 O0 2.121888 1_555
Fe3 O1 2.121888 1_555
