# generated using pymatgen
data_CoPHO5
_symmetry_space_group_name_H-M   'P 1'
_cell_length_a   5.29999062
_cell_length_b   7.15113194
_cell_length_c   10.01710491
_cell_angle_alpha   104.80683474
_cell_angle_beta   82.18144596
_cell_angle_gamma   70.78260872
_symmetry_Int_Tables_number   1
_chemical_formula_structural   CoPHO5
_chemical_formula_sum   'Co4 P4 H4 O20'
_cell_volume   336.36771512
_cell_formula_units_Z   4
loop_
 _symmetry_equiv_pos_site_id
 _symmetry_equiv_pos_as_xyz
  1  'x, y, z'
loop_
 _atom_site_type_symbol
 _atom_site_label
 _atom_site_symmetry_multiplicity
 _atom_site_fract_x
 _atom_site_fract_y
 _atom_site_fract_z
 _atom_site_occupancy
  Co  Co0  1  0.25000400  0.74998900  0.24999400  1
  Co  Co1  1  0.74999300  0.25001300  0.75000900  1
  Co  Co2  1  0.00018600  0.99971800  0.00070600  1
  Co  Co3  1  0.49984700  0.50026600  0.49929200  1
  P  P0  1  0.88442000  0.45301800  0.22070700  1
  P  P1  1  0.38316600  0.95063500  0.72080900  1
  P  P2  1  0.11682600  0.54937900  0.77919500  1
  P  P3  1  0.61559000  0.04697400  0.27929800  1
  H  H0  1  0.67881600  0.33100600  0.01773300  1
  H  H1  1  0.17951300  0.83053100  0.51647300  1
  H  H2  1  0.32051200  0.66942100  0.98352200  1
  H  H3  1  0.82111300  0.16903500  0.48228300  1
  O  O0  1  0.24065200  0.80570900  0.06308700  1
  O  O1  1  0.73483600  0.30408200  0.56268900  1
  O  O2  1  0.76513500  0.19595600  0.93733700  1
  O  O3  1  0.25935300  0.69425800  0.43688300  1
  O  O4  1  0.63388600  0.53980600  0.15955700  1
  O  O5  1  0.13344900  0.03643300  0.65847000  1
  O  O6  1  0.36655300  0.46356800  0.84152400  1
  O  O7  1  0.86609700  0.96019500  0.34044700  1
  O  O8  1  0.89575600  0.46436200  0.81827200  1
  O  O9  1  0.38744300  0.96755600  0.31806600  1
  O  O10  1  0.11258900  0.53242800  0.18194300  1
  O  O11  1  0.60423400  0.03564400  0.68170000  1
  O  O12  1  0.01861400  0.20976800  0.15468800  1
  O  O13  1  0.51595700  0.70769500  0.65539400  1
  O  O14  1  0.98403200  0.79235700  0.84460800  1
  O  O15  1  0.48142500  0.29017900  0.34531200  1
  O  O16  1  0.80570500  0.51149500  0.38579900  1
  O  O17  1  0.30527800  0.01204300  0.88589500  1
  O  O18  1  0.19473500  0.48793200  0.61407200  1
  O  O19  1  0.69428500  0.98854600  0.11423600  1
loop_
_geom_bond_atom_site_label_1
_geom_bond_atom_site_label_2
_geom_bond_distance
_geom_bond_site_symmetry_2
Co0 O10 1.937668 1_555
Co0 O9 1.937833 1_555
Co0 O4 2.002184 1_555
Co0 O7 2.002347 1_455
Co0 O3 2.014841 1_555
Co0 O0 2.014986 1_555
Co1 O8 1.949754 1_555
Co1 O11 1.949951 1_555
Co1 O6 2.009238 1_555
Co1 O5 2.009383 1_655
Co1 O1 2.016988 1_555
Co1 O2 2.017023 1_555
Co2 O0 1.853473 1_555
Co2 O2 1.855744 1_464
Co2 O19 1.886344 1_455
Co2 O17 1.893343 1_564
Co2 O14 1.893698 1_454
Co2 O12 1.896927 1_565
Co3 O3 1.853645 1_555
Co3 O1 1.855525 1_555
Co3 O16 1.886174 1_555
Co3 O18 1.893301 1_555
Co3 O13 1.893912 1_555
Co3 O15 1.897061 1_555
H0 O2 1.000963 1_554
H0 O4 1.701226 1_555
H1 O3 1.001992 1_555
H1 O5 1.687977 1_565
H2 O0 1.001936 1_556
H2 O6 1.687800 1_555
H3 O1 1.000993 1_555
H3 O7 1.701399 1_545
O4 P0 1.548102 1_555
O5 P1 1.550535 1_545
O6 P2 1.550535 1_555
O7 P3 1.547971 1_565
O8 P2 1.536701 1_655
O9 P3 1.540295 1_565
O10 P0 1.540347 1_455
O11 P1 1.536732 1_545
O12 P0 1.561631 1_455
O13 P1 1.559057 1_555
O14 P2 1.559289 1_655
O15 P3 1.561347 1_555
O16 P0 1.558127 1_555
O17 P1 1.556174 1_545
O18 P2 1.556510 1_555
O19 P3 1.557868 1_565
