# generated using pymatgen
data_MgV3O8
_symmetry_space_group_name_H-M   'P 1'
_cell_length_a   6.83340120
_cell_length_b   6.83340120
_cell_length_c   13.95579085
_cell_angle_alpha   81.44545130
_cell_angle_beta   81.44545130
_cell_angle_gamma   78.98429535
_symmetry_Int_Tables_number   1
_chemical_formula_structural   MgV3O8
_chemical_formula_sum   'Mg4 V12 O32'
_cell_volume   627.66810048
_cell_formula_units_Z   4
loop_
 _symmetry_equiv_pos_site_id
 _symmetry_equiv_pos_as_xyz
  1  'x, y, z'
loop_
 _atom_site_type_symbol
 _atom_site_label
 _atom_site_symmetry_multiplicity
 _atom_site_fract_x
 _atom_site_fract_y
 _atom_site_fract_z
 _atom_site_occupancy
  Mg  Mg0  1  0.14931800  0.28663900  0.14547700  1
  Mg  Mg1  1  0.71336100  0.85068200  0.35452300  1
  Mg  Mg2  1  0.28663900  0.14931800  0.64547700  1
  Mg  Mg3  1  0.85068200  0.71336100  0.85452300  1
  V  V0  1  0.26641600  0.76493700  0.11155100  1
  V  V1  1  0.23506300  0.73358400  0.38844900  1
  V  V2  1  0.17088500  0.67167800  0.64645200  1
  V  V3  1  0.78715800  0.65118200  0.13373300  1
  V  V4  1  0.32832200  0.82911500  0.85354800  1
  V  V5  1  0.34881800  0.21284200  0.36626700  1
  V  V6  1  0.65118200  0.78715800  0.63373300  1
  V  V7  1  0.67167800  0.17088500  0.14645200  1
  V  V8  1  0.21284200  0.34881800  0.86626700  1
  V  V9  1  0.82911500  0.32832200  0.35354800  1
  V  V10  1  0.76493700  0.26641600  0.61155100  1
  V  V11  1  0.73358400  0.23506300  0.88844900  1
  O  O0  1  0.08955100  0.59814000  0.14198700  1
  O  O1  1  0.01205200  0.82985100  0.35111600  1
  O  O2  1  0.33318000  0.50845600  0.34682500  1
  O  O3  1  0.18297600  0.67316600  0.52048900  1
  O  O4  1  0.49154400  0.66682000  0.15317500  1
  O  O5  1  0.17014900  0.98794800  0.14888400  1
  O  O6  1  0.16740200  0.65659900  0.84209500  1
  O  O7  1  0.08276700  0.24837800  0.31243700  1
  O  O8  1  0.75397900  0.57190200  0.30660200  1
  O  O9  1  0.40186000  0.91044900  0.35801300  1
  O  O10  1  0.19413200  0.30588700  0.98795800  1
  O  O11  1  0.80586800  0.69411300  0.01204200  1
  O  O12  1  0.34340100  0.83259800  0.65790500  1
  O  O13  1  0.32683400  0.81702400  0.97951100  1
  O  O14  1  0.24837800  0.08276700  0.81243700  1
  O  O15  1  0.57190200  0.75397900  0.80660200  1
  O  O16  1  0.30588700  0.19413200  0.48795800  1
  O  O17  1  0.69411300  0.80586800  0.51204200  1
  O  O18  1  0.75162200  0.91723300  0.18756300  1
  O  O19  1  0.42809800  0.24602100  0.19339800  1
  O  O20  1  0.67316600  0.18297600  0.02048900  1
  O  O21  1  0.65659900  0.16740200  0.34209500  1
  O  O22  1  0.59814000  0.08955100  0.64198700  1
  O  O23  1  0.24602100  0.42809800  0.69339800  1
  O  O24  1  0.91723300  0.75162200  0.68756300  1
  O  O25  1  0.83259800  0.34340100  0.15790500  1
  O  O26  1  0.50845600  0.33318000  0.84682500  1
  O  O27  1  0.82985100  0.01205200  0.85111600  1
  O  O28  1  0.81702400  0.32683400  0.47951100  1
  O  O29  1  0.66682000  0.49154400  0.65317500  1
  O  O30  1  0.98794800  0.17014900  0.64888400  1
  O  O31  1  0.91044900  0.40186000  0.85801300  1
loop_
_geom_bond_atom_site_label_1
_geom_bond_atom_site_label_2
_geom_bond_distance
_geom_bond_site_symmetry_2
Mg0 O5 2.012616 1_545
Mg0 O19 2.067636 1_555
Mg0 O0 2.083988 1_555
Mg0 O25 2.110011 1_455
Mg0 O10 2.161645 1_554
Mg0 O7 2.292008 1_555
Mg1 O1 2.012616 1_655
Mg1 O8 2.067636 1_555
Mg1 O9 2.083988 1_555
Mg1 O21 2.110011 1_565
Mg1 O17 2.161645 1_555
Mg1 O18 2.292008 1_555
Mg2 O30 2.012616 1_455
Mg2 O23 2.067636 1_555
Mg2 O22 2.083988 1_555
Mg2 O12 2.110011 1_545
Mg2 O16 2.161645 1_555
Mg2 O14 2.292008 1_555
Mg3 O27 2.012616 1_565
Mg3 O15 2.067636 1_555
Mg3 O31 2.083988 1_555
Mg3 O6 2.110011 1_655
Mg3 O11 2.161645 1_556
Mg3 O24 2.292008 1_555
O0 V0 1.780424 1_555
O0 V3 2.046145 1_455
O1 V1 1.666637 1_555
O2 V1 1.705706 1_555
O2 V5 1.982097 1_555
O3 V2 1.746133 1_555
O3 V1 1.824134 1_555
O4 V0 1.705706 1_555
O4 V3 1.982097 1_555
O5 V0 1.666637 1_555
O6 V4 1.796724 1_555
O6 V8 2.050401 1_555
O7 V9 1.751424 1_455
O7 V5 2.027785 1_555
O8 V9 1.706578 1_555
O8 V3 2.379191 1_555
O9 V1 1.780424 1_555
O9 V5 2.046145 1_565
O10 V8 1.669769 1_555
O11 V3 1.669769 1_555
O12 V2 1.796724 1_555
O12 V6 2.050401 1_555
O13 V4 1.746133 1_555
O13 V0 1.824134 1_556
O14 V4 1.751424 1_545
O14 V8 2.027785 1_555
O15 V4 1.706578 1_555
O15 V6 2.379191 1_555
O16 V5 1.669769 1_555
O17 V6 1.669769 1_555
O18 V7 1.751424 1_565
O18 V3 2.027785 1_555
O19 V7 1.706578 1_555
O19 V5 2.379191 1_555
O20 V7 1.746133 1_555
O20 V11 1.824134 1_554
O21 V9 1.796724 1_555
O21 V5 2.050401 1_555
O22 V10 1.780424 1_555
O22 V6 2.046145 1_545
O23 V2 1.706578 1_555
O23 V8 2.379191 1_555
O24 V2 1.751424 1_655
O24 V6 2.027785 1_555
O25 V7 1.796724 1_555
O25 V3 2.050401 1_555
O26 V11 1.705706 1_555
O26 V8 1.982097 1_555
O27 V11 1.666637 1_555
O28 V9 1.746133 1_555
O28 V10 1.824134 1_555
O29 V10 1.705706 1_555
O29 V6 1.982097 1_555
O30 V10 1.666637 1_555
O31 V11 1.780424 1_555
O31 V8 2.046145 1_655
