# generated using pymatgen
data_Na4Al3Si3ClO16
_symmetry_space_group_name_H-M   'P 1'
_cell_length_a   9.13087300
_cell_length_b   9.19587500
_cell_length_c   9.20327670
_cell_angle_alpha   89.93085864
_cell_angle_beta   90.00000000
_cell_angle_gamma   90.00000000
_symmetry_Int_Tables_number   1
_chemical_formula_structural   Na4Al3Si3ClO16
_chemical_formula_sum   'Na8 Al6 Si6 Cl2 O32'
_cell_volume   772.76514411
_cell_formula_units_Z   2
loop_
 _symmetry_equiv_pos_site_id
 _symmetry_equiv_pos_as_xyz
  1  'x, y, z'
loop_
 _atom_site_type_symbol
 _atom_site_label
 _atom_site_symmetry_multiplicity
 _atom_site_fract_x
 _atom_site_fract_y
 _atom_site_fract_z
 _atom_site_occupancy
  Na  Na0  1  0.78963200  0.78308400  0.21781300  1
  Na  Na1  1  0.78963200  0.21691600  0.78218700  1
  Na  Na2  1  0.71287500  0.71156300  0.71321600  1
  Na  Na3  1  0.71287500  0.28843700  0.28678400  1
  Na  Na4  1  0.28370700  0.28303900  0.71698000  1
  Na  Na5  1  0.28370700  0.71696100  0.28302000  1
  Na  Na6  1  0.21123600  0.78815800  0.78367900  1
  Na  Na7  1  0.21123600  0.21184200  0.21632100  1
  Al  Al0  1  0.00054200  0.50036100  0.74959500  1
  Al  Al1  1  0.75070000  0.00000000  0.50000000  1
  Al  Al2  1  0.50090300  0.75030400  0.00054600  1
  Al  Al3  1  0.50090300  0.24969600  0.99945400  1
  Al  Al4  1  0.24978700  0.00000000  0.50000000  1
  Al  Al5  1  0.00054200  0.49963900  0.25040500  1
  Si  Si0  1  0.99977700  0.25092600  0.50124200  1
  Si  Si1  1  0.99977700  0.74907400  0.49875800  1
  Si  Si2  1  0.75133700  0.50000000  0.00000000  1
  Si  Si3  1  0.50054800  0.00073400  0.24964600  1
  Si  Si4  1  0.50054800  0.99926600  0.75035400  1
  Si  Si5  1  0.25066000  0.50000000  0.00000000  1
  Cl  Cl0  1  0.98496600  0.00000000  0.00000000  1
  Cl  Cl1  1  0.48486300  0.50000000  0.50000000  1
  O  O0  1  0.95445000  0.35145800  0.36125400  1
  O  O1  1  0.95445000  0.64854200  0.63874600  1
  O  O2  1  0.85385900  0.15508800  0.54440800  1
  O  O3  1  0.85385900  0.84491200  0.45559200  1
  O  O4  1  0.84901900  0.45508300  0.85798300  1
  O  O5  1  0.84901900  0.54491700  0.14201700  1
  O  O6  1  0.65562400  0.64490300  0.95712400  1
  O  O7  1  0.65562400  0.35509700  0.04287600  1
  O  O8  1  0.64410300  0.95536600  0.65289400  1
  O  O9  1  0.64410300  0.04463400  0.34710600  1
  O  O10  1  0.57663600  0.49913900  0.63080800  1
  O  O11  1  0.57663600  0.50086100  0.36919200  1
  O  O12  1  0.54742200  0.14124400  0.84841100  1
  O  O13  1  0.54742200  0.85875600  0.15158900  1
  O  O14  1  0.45695900  0.85686400  0.84837100  1
  O  O15  1  0.45695900  0.14313600  0.15162900  1
  O  O16  1  0.39368600  0.36968500  0.49887200  1
  O  O17  1  0.39368600  0.63031500  0.50112800  1
  O  O18  1  0.35696200  0.04222800  0.65373500  1
  O  O19  1  0.35696200  0.95777200  0.34626500  1
  O  O20  1  0.34865300  0.35736300  0.95512200  1
  O  O21  1  0.34865300  0.64263700  0.04487800  1
  O  O22  1  0.15380000  0.54357100  0.85653300  1
  O  O23  1  0.15380000  0.45642900  0.14346700  1
  O  O24  1  0.14316900  0.15371400  0.46038000  1
  O  O25  1  0.14316900  0.84628600  0.53962000  1
  O  O26  1  0.07666400  0.86735900  0.04151500  1
  O  O27  1  0.07666400  0.13264100  0.95848500  1
  O  O28  1  0.04244900  0.34663700  0.64528600  1
  O  O29  1  0.04244900  0.65336300  0.35471400  1
  O  O30  1  0.00016900  0.93114900  0.82585400  1
  O  O31  1  0.00016900  0.06885100  0.17414600  1
loop_
_geom_bond_atom_site_label_1
_geom_bond_atom_site_label_2
_geom_bond_distance
_geom_bond_site_symmetry_2
Na0 O3 2.336460 1_555
Na0 O5 2.362437 1_555
Na0 O13 2.397040 1_555
Na1 O2 2.336460 1_555
Na1 O4 2.362437 1_555
Na1 O12 2.397040 1_555
Na2 O1 2.381609 1_555
Na2 O6 2.384246 1_555
Na2 O8 2.392906 1_555
Na2 O10 2.437650 1_555
Na3 O0 2.381609 1_555
Na3 O7 2.384246 1_555
Na3 O9 2.392906 1_555
Na3 O11 2.437650 1_555
Na4 O20 2.371900 1_555
Na4 O28 2.372598 1_555
Na4 O16 2.380907 1_555
Na4 O18 2.386038 1_555
Na5 O21 2.371900 1_555
Na5 O29 2.372598 1_555
Na5 O17 2.380907 1_555
Na5 O19 2.386038 1_555
Na6 O30 2.365402 1_555
Na6 O25 2.390453 1_555
Na6 O22 2.404127 1_555
Na6 O14 2.405952 1_555
Na6 O26 2.770433 1_556
Na7 O31 2.365402 1_555
Na7 O24 2.390453 1_555
Na7 O23 2.404127 1_555
Na7 O15 2.405952 1_555
Na7 O27 2.770433 1_554
Al0 O28 1.752029 1_555
Al0 O1 1.752526 1_455
Al0 O4 1.755447 1_455
Al0 O22 1.756618 1_555
Al1 O2 1.757736 1_555
Al1 O3 1.757736 1_545
Al1 O8 1.759101 1_545
Al1 O9 1.759101 1_555
Al2 O21 1.754525 1_555
Al2 O14 1.754805 1_554
Al2 O6 1.759522 1_554
Al2 O13 1.763731 1_555
Al3 O20 1.754525 1_555
Al3 O15 1.754805 1_556
Al3 O7 1.759522 1_556
Al3 O12 1.763731 1_555
Al4 O24 1.754288 1_555
Al4 O25 1.754288 1_545
Al4 O18 1.763980 1_555
Al4 O19 1.763980 1_545
Al5 O29 1.752029 1_555
Al5 O0 1.752526 1_455
Al5 O5 1.755447 1_455
Al5 O23 1.756618 1_555
Cl0 O26 1.527641 1_645
Cl0 O27 1.527641 1_654
Cl0 O31 1.729533 1_655
Cl0 O30 1.729533 1_644
Cl1 O17 1.459214 1_555
Cl1 O16 1.459214 1_555
Cl1 O11 1.466804 1_555
Cl1 O10 1.466804 1_555
O0 Si0 1.637963 1_555
O1 Si1 1.637963 1_555
O2 Si0 1.645865 1_555
O3 Si1 1.645865 1_555
O4 Si2 1.635770 1_556
O5 Si2 1.635770 1_555
O6 Si2 1.641280 1_556
O7 Si2 1.641280 1_555
O8 Si4 1.639060 1_555
O9 Si3 1.639060 1_555
O12 Si4 1.644706 1_545
O13 Si3 1.644706 1_565
O14 Si4 1.638329 1_555
O15 Si3 1.638329 1_555
O18 Si4 1.632429 1_545
O19 Si3 1.632429 1_565
O20 Si5 1.641030 1_556
O21 Si5 1.641030 1_555
O22 Si5 1.638543 1_556
O23 Si5 1.638543 1_555
O24 Si0 1.629611 1_455
O25 Si1 1.629611 1_455
O28 Si0 1.639118 1_455
O29 Si1 1.639118 1_455
