# generated using pymatgen
data_Li5Mn5(SbO6)2
_symmetry_space_group_name_H-M   'P 1'
_cell_length_a   5.49690216
_cell_length_b   5.49690216
_cell_length_c   10.41466981
_cell_angle_alpha   84.08613564
_cell_angle_beta   84.08613564
_cell_angle_gamma   120.98103243
_symmetry_Int_Tables_number   1
_chemical_formula_structural   Li5Mn5(SbO6)2
_chemical_formula_sum   'Li5 Mn5 Sb2 O12'
_cell_volume   263.82634840
_cell_formula_units_Z   1
loop_
 _symmetry_equiv_pos_site_id
 _symmetry_equiv_pos_as_xyz
  1  'x, y, z'
loop_
 _atom_site_type_symbol
 _atom_site_label
 _atom_site_symmetry_multiplicity
 _atom_site_fract_x
 _atom_site_fract_y
 _atom_site_fract_z
 _atom_site_occupancy
  Li  Li0  1  0.83968200  0.65818700  0.25243700  1
  Li  Li1  1  0.66985700  0.84634100  0.74614900  1
  Li  Li2  1  0.34181300  0.16031800  0.74756300  1
  Li  Li3  1  0.15365900  0.33014300  0.25385100  1
  Li  Li4  1  0.07998300  0.92001700  0.50000000  1
  Mn  Mn0  1  0.92099100  0.07900900  0.00000000  1
  Mn  Mn1  1  0.00403400  0.51141600  0.74449900  1
  Mn  Mn2  1  0.48858400  0.99596600  0.25550100  1
  Mn  Mn3  1  0.58125900  0.41874100  0.00000000  1
  Mn  Mn4  1  0.42072400  0.57927600  0.50000000  1
  Sb  Sb0  1  0.74922700  0.25077300  0.50000000  1
  Sb  Sb1  1  0.25180100  0.74819900  0.00000000  1
  O  O0  1  0.00958100  0.21388100  0.61550800  1
  O  O1  1  0.78611900  0.99041900  0.38449200  1
  O  O2  1  0.87624900  0.37485800  0.12011500  1
  O  O3  1  0.62514200  0.12375100  0.87988500  1
  O  O4  1  0.70786000  0.51105600  0.61419500  1
  O  O5  1  0.48894400  0.29214000  0.38580500  1
  O  O6  1  0.52600200  0.70621400  0.12420400  1
  O  O7  1  0.29378600  0.47399800  0.87579600  1
  O  O8  1  0.39933100  0.89547500  0.61766800  1
  O  O9  1  0.10452500  0.60066900  0.38233200  1
  O  O10  1  0.20659100  0.02573900  0.12535900  1
  O  O11  1  0.97426100  0.79340900  0.87464100  1
loop_
_geom_bond_atom_site_label_1
_geom_bond_atom_site_label_2
_geom_bond_distance
_geom_bond_site_symmetry_2
Li0 O5 2.138565 1_555
Li0 O10 2.145964 1_665
Li0 O9 2.200235 1_655
Li0 O2 2.252246 1_555
Li0 O6 2.386813 1_555
Li0 O1 2.510187 1_555
Li1 O0 2.108565 1_665
Li1 O7 2.187485 1_555
Li1 O8 2.196315 1_555
Li1 O3 2.253585 1_565
Li1 O11 2.357481 1_555
Li1 O4 2.487591 1_555
Li2 O4 2.138565 1_555
Li2 O11 2.145964 1_445
Li2 O8 2.200235 1_545
Li2 O3 2.252246 1_555
Li2 O7 2.386813 1_555
Li2 O0 2.510187 1_555
Li3 O1 2.108565 1_445
Li3 O6 2.187485 1_555
Li3 O9 2.196315 1_555
Li3 O2 2.253585 1_455
Li3 O10 2.357481 1_555
Li3 O5 2.487591 1_555
Li4 O4 2.205876 1_455
Li4 O5 2.205876 1_565
Li4 O0 2.270313 1_565
Li4 O1 2.270313 1_455
Li4 O9 2.292277 1_555
Li4 O8 2.292277 1_555
Mn0 O6 2.209334 1_545
Mn0 O7 2.209334 1_654
Mn0 O2 2.244475 1_555
Mn0 O3 2.244475 1_554
Mn0 O11 2.252054 1_544
Mn0 O10 2.252054 1_655
Mn1 O11 2.216987 1_455
Mn1 O4 2.223663 1_455
Mn1 O0 2.230748 1_555
Mn1 O8 2.243758 1_555
Mn1 O3 2.252414 1_455
Mn1 O7 2.275314 1_555
Mn2 O10 2.216987 1_565
Mn2 O5 2.223663 1_565
Mn2 O1 2.230748 1_555
Mn2 O9 2.243758 1_555
Mn2 O2 2.252414 1_565
Mn2 O6 2.275314 1_555
Mn3 O11 2.212977 1_554
Mn3 O10 2.212977 1_555
Mn3 O2 2.238516 1_555
Mn3 O3 2.238516 1_554
Mn3 O6 2.257647 1_555
Mn3 O7 2.257647 1_554
Mn4 O0 2.204002 1_555
Mn4 O1 2.204002 1_555
Mn4 O4 2.224982 1_555
Mn4 O5 2.224982 1_555
Mn4 O8 2.270751 1_555
Mn4 O9 2.270751 1_555
O0 Sb0 2.034633 1_455
O1 Sb0 2.034633 1_565
O2 Sb1 2.148347 1_655
O3 Sb1 2.148347 1_546
O4 Sb0 2.035448 1_555
O5 Sb0 2.035448 1_555
O6 Sb1 2.167189 1_555
O7 Sb1 2.167189 1_556
O8 Sb0 2.041883 1_565
O9 Sb0 2.041883 1_455
O10 Sb1 2.197197 1_545
O11 Sb1 2.197197 1_656
