# generated using pymatgen
data_Li8Fe7O15
_symmetry_space_group_name_H-M   'P 1'
_cell_length_a   7.94267429
_cell_length_b   7.94267429
_cell_length_c   9.01141482
_cell_angle_alpha   78.88114709
_cell_angle_beta   78.88114709
_cell_angle_gamma   29.53578689
_symmetry_Int_Tables_number   1
_chemical_formula_structural   Li8Fe7O15
_chemical_formula_sum   'Li8 Fe7 O15'
_cell_volume   274.61943375
_cell_formula_units_Z   1
loop_
 _symmetry_equiv_pos_site_id
 _symmetry_equiv_pos_as_xyz
  1  'x, y, z'
loop_
 _atom_site_type_symbol
 _atom_site_label
 _atom_site_symmetry_multiplicity
 _atom_site_fract_x
 _atom_site_fract_y
 _atom_site_fract_z
 _atom_site_occupancy
  Li  Li0  1  0.40131000  0.40131000  0.86271600  1
  Li  Li1  1  0.59335600  0.59335600  0.80072800  1
  Li  Li2  1  0.40664400  0.40664400  0.19927200  1
  Li  Li3  1  0.40176000  0.40176000  0.53519400  1
  Li  Li4  1  0.59824000  0.59824000  0.46480600  1
  Li  Li5  1  0.79983300  0.79983300  0.73305300  1
  Li  Li6  1  0.59869000  0.59869000  0.13728400  1
  Li  Li7  1  0.20016700  0.20016700  0.26694700  1
  Fe  Fe0  1  0.80099400  0.80099400  0.39817200  1
  Fe  Fe1  1  0.80010300  0.80010300  0.06821300  1
  Fe  Fe2  1  0.99393800  0.99393800  0.66604100  1
  Fe  Fe3  1  0.00606200  0.00606200  0.33395900  1
  Fe  Fe4  1  0.19900600  0.19900600  0.60182800  1
  Fe  Fe5  1  0.00000000  0.00000000  0.00000000  1
  Fe  Fe6  1  0.19989700  0.19989700  0.93178700  1
  O  O0  1  0.49632700  0.49632700  0.66898800  1
  O  O1  1  0.50367300  0.50367300  0.33101200  1
  O  O2  1  0.50000000  0.50000000  0.00000000  1
  O  O3  1  0.71508800  0.71508800  0.26163900  1
  O  O4  1  0.70431000  0.70431000  0.94345500  1
  O  O5  1  0.70400700  0.70400700  0.58699900  1
  O  O6  1  0.90501100  0.90501100  0.87255200  1
  O  O7  1  0.90641600  0.90641600  0.52194300  1
  O  O8  1  0.90225400  0.90225400  0.20024400  1
  O  O9  1  0.09358400  0.09358400  0.47805700  1
  O  O10  1  0.28491200  0.28491200  0.73836100  1
  O  O11  1  0.09774600  0.09774600  0.79975600  1
  O  O12  1  0.09498900  0.09498900  0.12744800  1
  O  O13  1  0.29599300  0.29599300  0.41300100  1
  O  O14  1  0.29569000  0.29569000  0.05654500  1
loop_
_geom_bond_atom_site_label_1
_geom_bond_atom_site_label_2
_geom_bond_distance
_geom_bond_site_symmetry_2
Li0 O6 2.027851 1_455
Li0 O6 2.027851 1_545
Li0 O0 2.039996 1_555
Li0 O14 2.133708 1_556
Li0 O2 2.139293 1_556
Li0 O10 2.291655 1_555
Li1 O11 2.025702 1_655
Li1 O11 2.025702 1_565
Li1 O2 2.062493 1_556
Li1 O0 2.082418 1_555
Li1 O5 2.300572 1_555
Li1 O4 2.330939 1_555
Li2 O8 2.025702 1_455
Li2 O8 2.025702 1_545
Li2 O2 2.062493 1_555
Li2 O1 2.082418 1_555
Li2 O13 2.300572 1_555
Li2 O14 2.330939 1_555
Li3 O7 2.028558 1_545
Li3 O7 2.028558 1_455
Li3 O0 2.064527 1_555
Li3 O13 2.136705 1_555
Li3 O1 2.164999 1_555
Li3 O10 2.294061 1_555
Li4 O9 2.028558 1_565
Li4 O9 2.028558 1_655
Li4 O1 2.064527 1_555
Li4 O5 2.136705 1_555
Li4 O0 2.164999 1_555
Li4 O3 2.294061 1_555
Li5 O10 2.037039 1_655
Li5 O10 2.037039 1_565
Li5 O4 2.153644 1_555
Li5 O5 2.161390 1_555
Li5 O6 2.236176 1_555
Li5 O7 2.248818 1_555
Li6 O12 2.027851 1_565
Li6 O12 2.027851 1_655
Li6 O1 2.039996 1_555
Li6 O4 2.133708 1_554
Li6 O2 2.139293 1_555
Li6 O3 2.291655 1_555
Li7 O3 2.037039 1_455
Li7 O3 2.037039 1_545
Li7 O14 2.153644 1_555
Li7 O13 2.161390 1_555
Li7 O12 2.236176 1_555
Li7 O9 2.248818 1_555
Fe0 O3 1.975502 1_555
Fe0 O5 2.025772 1_555
Fe0 O13 2.029469 1_565
Fe0 O13 2.029469 1_655
Fe0 O8 2.119912 1_555
Fe0 O7 2.141657 1_555
Fe1 O3 1.958474 1_555
Fe1 O4 2.022099 1_554
Fe1 O14 2.029181 1_655
Fe1 O14 2.029181 1_565
Fe1 O6 2.138292 1_554
Fe1 O8 2.149955 1_555
Fe2 O0 2.025222 1_655
Fe2 O0 2.025222 1_565
Fe2 O9 2.044074 1_665
Fe2 O7 2.046917 1_555
Fe2 O6 2.077286 1_555
Fe2 O11 2.181949 1_665
Fe3 O1 2.025222 1_455
Fe3 O1 2.025222 1_545
Fe3 O7 2.044074 1_445
Fe3 O9 2.046917 1_555
Fe3 O12 2.077286 1_555
Fe3 O8 2.181949 1_445
Fe4 O10 1.975502 1_555
Fe4 O13 2.025772 1_555
Fe4 O5 2.029469 1_545
Fe4 O5 2.029469 1_455
Fe4 O11 2.119912 1_555
Fe4 O9 2.141657 1_555
Fe5 O2 2.024619 1_545
Fe5 O2 2.024619 1_455
Fe5 O12 2.028880 1_555
Fe5 O6 2.028880 1_444
Fe5 O8 2.104712 1_445
Fe5 O11 2.104712 1_554
Fe6 O10 1.958474 1_555
Fe6 O14 2.022099 1_556
Fe6 O4 2.029181 1_545
Fe6 O4 2.029181 1_455
Fe6 O12 2.138292 1_556
Fe6 O11 2.149955 1_555
