# generated using pymatgen
data_NbO2
_symmetry_space_group_name_H-M   'P 1'
_cell_length_a   5.05623800
_cell_length_b   5.35745500
_cell_length_c   9.95467100
_cell_angle_alpha   90.00000000
_cell_angle_beta   90.00000000
_cell_angle_gamma   90.00000000
_symmetry_Int_Tables_number   1
_chemical_formula_structural   NbO2
_chemical_formula_sum   'Nb8 O16'
_cell_volume   269.65777786
_cell_formula_units_Z   8
loop_
 _symmetry_equiv_pos_site_id
 _symmetry_equiv_pos_as_xyz
  1  'x, y, z'
loop_
 _atom_site_type_symbol
 _atom_site_label
 _atom_site_symmetry_multiplicity
 _atom_site_fract_x
 _atom_site_fract_y
 _atom_site_fract_z
 _atom_site_occupancy
  Nb  Nb0  1  0.05403900  0.35406400  0.64273100  1
  Nb  Nb1  1  0.44596100  0.85406400  0.64273100  1
  Nb  Nb2  1  0.94596100  0.85406400  0.85726900  1
  Nb  Nb3  1  0.55403900  0.35406400  0.85726900  1
  Nb  Nb4  1  0.44596100  0.64593600  0.14273100  1
  Nb  Nb5  1  0.05403900  0.14593600  0.14273100  1
  Nb  Nb6  1  0.94596100  0.64593600  0.35726900  1
  Nb  Nb7  1  0.55403900  0.14593600  0.35726900  1
  O  O0  1  0.32371600  0.15649300  0.53128100  1
  O  O1  1  0.17628400  0.65649300  0.53128100  1
  O  O2  1  0.74272100  0.60090100  0.71419300  1
  O  O3  1  0.75727900  0.10090100  0.71419300  1
  O  O4  1  0.24272100  0.60090100  0.78580700  1
  O  O5  1  0.25727900  0.10090100  0.78580700  1
  O  O6  1  0.67628400  0.65649300  0.96871900  1
  O  O7  1  0.82371600  0.15649300  0.96871900  1
  O  O8  1  0.17628400  0.84350700  0.03128100  1
  O  O9  1  0.32371600  0.34350700  0.03128100  1
  O  O10  1  0.74272100  0.89909900  0.21419300  1
  O  O11  1  0.75727900  0.39909900  0.21419300  1
  O  O12  1  0.24272100  0.89909900  0.28580700  1
  O  O13  1  0.25727900  0.39909900  0.28580700  1
  O  O14  1  0.67628400  0.84350700  0.46871900  1
  O  O15  1  0.82371600  0.34350700  0.46871900  1
loop_
_geom_bond_atom_site_label_1
_geom_bond_atom_site_label_2
_geom_bond_distance
_geom_bond_site_symmetry_2
Nb0 O0 2.051956 1_555
Nb0 O1 2.058672 1_555
Nb0 O15 2.088072 1_455
Nb0 O3 2.144086 1_455
Nb0 O4 2.165064 1_555
Nb0 O2 2.175462 1_455
Nb0 O5 2.219044 1_555
Nb1 O1 2.051956 1_555
Nb1 O0 2.058672 1_565
Nb1 O14 2.088072 1_555
Nb1 O2 2.144086 1_555
Nb1 O5 2.165064 1_565
Nb1 O3 2.175462 1_565
Nb1 O4 2.219044 1_555
Nb2 O6 2.051956 1_555
Nb2 O7 2.058672 1_565
Nb2 O8 2.088072 1_656
Nb2 O4 2.144086 1_655
Nb2 O3 2.165064 1_565
Nb2 O5 2.175462 1_665
Nb2 O2 2.219044 1_555
Nb3 O7 2.051956 1_555
Nb3 O6 2.058672 1_555
Nb3 O9 2.088072 1_556
Nb3 O5 2.144086 1_555
Nb3 O2 2.165064 1_555
Nb3 O4 2.175462 1_555
Nb3 O3 2.219044 1_555
Nb4 O8 2.051956 1_555
Nb4 O9 2.058672 1_555
Nb4 O6 2.088072 1_554
Nb4 O10 2.144086 1_555
Nb4 O13 2.165064 1_555
Nb4 O11 2.175462 1_555
Nb4 O12 2.219044 1_555
Nb5 O9 2.051956 1_555
Nb5 O8 2.058672 1_545
Nb5 O7 2.088072 1_454
Nb5 O11 2.144086 1_455
Nb5 O12 2.165064 1_545
Nb5 O10 2.175462 1_445
Nb5 O13 2.219044 1_555
Nb6 O14 2.051956 1_555
Nb6 O15 2.058672 1_555
Nb6 O1 2.088072 1_655
Nb6 O12 2.144086 1_655
Nb6 O11 2.165064 1_555
Nb6 O13 2.175462 1_655
Nb6 O10 2.219044 1_555
Nb7 O15 2.051956 1_555
Nb7 O14 2.058672 1_545
Nb7 O0 2.088072 1_555
Nb7 O13 2.144086 1_555
Nb7 O10 2.165064 1_545
Nb7 O12 2.175462 1_545
Nb7 O11 2.219044 1_555
