# generated using pymatgen
data_Fe3(O2F)2
_symmetry_space_group_name_H-M   'P 1'
_cell_length_a   5.61211000
_cell_length_b   5.61977896
_cell_length_c   7.40541344
_cell_angle_alpha   70.74297751
_cell_angle_beta   70.63184413
_cell_angle_gamma   70.68391251
_symmetry_Int_Tables_number   1
_chemical_formula_structural   Fe3(O2F)2
_chemical_formula_sum   'Fe6 O8 F4'
_cell_volume   201.48195756
_cell_formula_units_Z   2
loop_
 _symmetry_equiv_pos_site_id
 _symmetry_equiv_pos_as_xyz
  1  'x, y, z'
loop_
 _atom_site_type_symbol
 _atom_site_label
 _atom_site_symmetry_multiplicity
 _atom_site_fract_x
 _atom_site_fract_y
 _atom_site_fract_z
 _atom_site_occupancy
  Fe  Fe0  1  0.30690300  0.32100900  0.15651600  1
  Fe  Fe1  1  0.65548300  0.66519900  0.33197300  1
  Fe  Fe2  1  0.34608200  0.35771500  0.68406900  1
  Fe  Fe3  1  0.66895800  0.68781100  0.82978300  1
  Fe  Fe4  1  0.99756700  0.00520700  0.50434400  1
  Fe  Fe5  1  0.02128100  0.96979500  0.99657500  1
  O  O0  1  0.34807900  0.96670400  0.33437300  1
  O  O1  1  0.03492900  0.65508400  0.66714800  1
  O  O2  1  0.76885500  0.76198400  0.04604100  1
  O  O3  1  0.22860300  0.21614000  0.96236300  1
  O  O4  1  0.57268700  0.58368500  0.61967500  1
  O  O5  1  0.64822100  0.04872400  0.66399500  1
  O  O6  1  0.95710800  0.35583000  0.33793800  1
  O  O7  1  0.31633500  0.67506400  0.99690700  1
  F  F0  1  0.10851600  0.11355900  0.69950500  1
  F  F1  1  0.42432200  0.42821600  0.37103800  1
  F  F2  1  0.89300600  0.89920600  0.29830600  1
  F  F3  1  0.70306600  0.28906900  0.99945000  1
loop_
_geom_bond_atom_site_label_1
_geom_bond_atom_site_label_2
_geom_bond_distance
_geom_bond_site_symmetry_2
Fe0 O3 1.938283 1_554
Fe0 O7 1.958500 1_554
Fe0 O6 1.966459 1_455
Fe0 O0 1.979987 1_545
Fe1 O2 1.939049 1_555
Fe1 O4 1.950750 1_555
Fe1 O0 1.978191 1_555
Fe1 O6 1.985451 1_555
Fe2 O3 1.918118 1_555
Fe2 O4 1.929786 1_555
Fe2 O1 1.983478 1_555
Fe2 O5 1.991924 1_555
Fe3 O7 1.965689 1_555
Fe3 O5 1.982611 1_565
Fe3 O1 1.989534 1_655
Fe3 O2 2.059913 1_556
Fe3 O4 2.102989 1_555
Fe4 O5 1.907227 1_555
Fe4 O1 1.923280 1_645
Fe4 O6 1.934078 1_555
Fe4 O0 1.938163 1_645
Fe5 O7 1.915963 1_555
Fe5 O2 1.993254 1_456
Fe5 O3 1.993307 1_565
F0 Fe5 2.026581 1_545
F0 Fe4 2.067705 1_455
F0 Fe2 2.163090 1_555
F1 Fe1 2.044575 1_555
F1 Fe2 2.134859 1_555
F1 Fe0 2.215687 1_555
F2 Fe5 2.050776 1_654
F2 Fe1 2.071587 1_555
F2 Fe4 2.109956 1_565
F3 Fe5 2.071047 1_645
F3 Fe0 2.118179 1_556
F3 Fe3 2.157614 1_555
