# generated using pymatgen
data_Li4CuNi3O8
_symmetry_space_group_name_H-M   'P 1'
_cell_length_a   5.57439794
_cell_length_b   5.95081429
_cell_length_c   5.72596483
_cell_angle_alpha   61.90640058
_cell_angle_beta   89.99880493
_cell_angle_gamma   117.92568077
_symmetry_Int_Tables_number   1
_chemical_formula_structural   Li4CuNi3O8
_chemical_formula_sum   'Li4 Cu1 Ni3 O8'
_cell_volume   142.00086481
_cell_formula_units_Z   1
loop_
 _symmetry_equiv_pos_site_id
 _symmetry_equiv_pos_as_xyz
  1  'x, y, z'
loop_
 _atom_site_type_symbol
 _atom_site_label
 _atom_site_symmetry_multiplicity
 _atom_site_fract_x
 _atom_site_fract_y
 _atom_site_fract_z
 _atom_site_occupancy
  Li  Li0  1  0.49998500  0.00000500  0.49999100  1
  Li  Li1  1  0.99999500  0.00001200  0.49998800  1
  Li  Li2  1  0.50003100  0.50008900  0.99995400  1
  Li  Li3  1  0.99994800  0.49993300  0.00002600  1
  Cu  Cu0  1  0.00011300  0.00000100  0.00001200  1
  Ni  Ni0  1  0.50000200  0.49998500  0.50001000  1
  Ni  Ni1  1  0.00001300  0.50001600  0.49998100  1
  Ni  Ni2  1  0.49995000  0.00000000  0.00000000  1
  O  O0  1  0.72609000  0.45215900  0.30031500  1
  O  O1  1  0.27389900  0.54784400  0.69968100  1
  O  O2  1  0.25307500  0.50612800  0.26715200  1
  O  O3  1  0.74692200  0.49387200  0.73284400  1
  O  O4  1  0.75854900  0.00706400  0.77354200  1
  O  O5  1  0.24854400  0.00704400  0.77357000  1
  O  O6  1  0.75147400  0.99296400  0.22645000  1
  O  O7  1  0.24145100  0.99292700  0.22640800  1
loop_
_geom_bond_atom_site_label_1
_geom_bond_atom_site_label_2
_geom_bond_distance
_geom_bond_site_symmetry_2
Li0 O0 2.015354 1_555
Li0 O1 2.015381 1_545
Li0 O5 2.130015 1_555
Li0 O6 2.130039 1_545
Li0 O4 2.130260 1_555
Li0 O7 2.130290 1_545
Li1 O4 2.093194 1_555
Li1 O6 2.093252 1_545
Li1 O7 2.093475 1_645
Li1 O5 2.093539 1_655
Li1 O2 2.253225 1_655
Li1 O3 2.253330 1_545
Li2 O2 2.082123 1_556
Li2 O3 2.082219 1_555
Li2 O1 2.121640 1_555
Li2 O0 2.121781 1_556
Li2 O4 2.259036 1_565
Li2 O7 2.259880 1_546
Li3 O3 2.082221 1_554
Li3 O2 2.082397 1_655
Li3 O0 2.121507 1_555
Li3 O1 2.121610 1_654
Li3 O6 2.259001 1_545
Li3 O5 2.259640 1_664
Cu0 O7 1.869184 1_545
Cu0 O5 1.869525 1_554
Cu0 O6 1.870379 1_445
Cu0 O4 1.870391 1_454
Cu0 O0 2.444203 1_445
Cu0 O1 2.444220 1_554
Ni0 O0 1.902430 1_555
Ni0 O1 1.902545 1_555
Ni0 O3 1.916925 1_555
Ni0 O2 1.917053 1_555
Ni0 O5 2.200969 1_555
Ni0 O6 2.201128 1_555
Ni1 O1 1.902390 1_555
Ni1 O0 1.902420 1_455
Ni1 O2 1.916989 1_555
Ni1 O3 1.917116 1_455
Ni1 O7 2.200849 1_555
Ni1 O4 2.201014 1_455
Ni2 O7 1.910646 1_545
Ni2 O5 1.910677 1_554
Ni2 O6 1.911241 1_545
Ni2 O4 1.911287 1_554
Ni2 O2 2.201970 1_545
Ni2 O3 2.201972 1_554
