# generated using pymatgen
data_Na2Ti2O5
_symmetry_space_group_name_H-M   'P 1'
_cell_length_a   6.15536547
_cell_length_b   6.15536547
_cell_length_c   5.73205024
_cell_angle_alpha   81.26688221
_cell_angle_beta   81.26688221
_cell_angle_gamma   34.48353335
_symmetry_Int_Tables_number   1
_chemical_formula_structural   Na2Ti2O5
_chemical_formula_sum   'Na2 Ti2 O5'
_cell_volume   121.39629876
_cell_formula_units_Z   1
loop_
 _symmetry_equiv_pos_site_id
 _symmetry_equiv_pos_as_xyz
  1  'x, y, z'
loop_
 _atom_site_type_symbol
 _atom_site_label
 _atom_site_symmetry_multiplicity
 _atom_site_fract_x
 _atom_site_fract_y
 _atom_site_fract_z
 _atom_site_occupancy
  Na  Na0  1  0.40161191  0.40161191  0.35090750  1
  Na  Na1  1  0.59838809  0.59838809  0.64909250  1
  Ti  Ti0  1  0.85415612  0.85415612  0.89864442  1
  Ti  Ti1  1  0.14584388  0.14584388  0.10135558  1
  O  O0  1  0.87455696  0.87455696  0.59517208  1
  O  O1  1  0.32144783  0.32144783  0.01045031  1
  O  O2  1  0.67855217  0.67855217  0.98954969  1
  O  O3  1  0.12544304  0.12544304  0.40482792  1
  O  O4  1  0.00000000  0.00000000  -0.00000000  1
loop_
_geom_bond_atom_site_label_1
_geom_bond_atom_site_label_2
_geom_bond_distance
_geom_bond_site_symmetry_2
Na0 O0 2.290999 1_455
Na0 O0 2.290999 1_545
Na0 O1 2.298177 1_555
Na0 O4 2.823632 1_655
Na0 O4 2.823632 1_565
Na1 O3 2.290999 1_565
Na1 O3 2.290999 1_655
Na1 O2 2.298177 1_555
Na1 O4 2.823632 1_656
Na1 O4 2.823632 1_566
O0 Ti0 1.717788 1_555
O1 Ti0 1.951658 1_454
O1 Ti0 1.951658 1_544
O1 Ti1 2.047510 1_555
O2 Ti1 1.951658 1_566
O2 Ti1 1.951658 1_656
O2 Ti0 2.047510 1_555
O3 Ti1 1.717788 1_555
O4 Ti1 1.895968 1_555
O4 Ti0 1.895968 1_444
