# generated using pymatgen
data_TiMn5O12
_symmetry_space_group_name_H-M   'P 1'
_cell_length_a   5.08281479
_cell_length_b   5.08281479
_cell_length_c   9.71485909
_cell_angle_alpha   89.99607377
_cell_angle_beta   89.99607377
_cell_angle_gamma   120.07770242
_symmetry_Int_Tables_number   1
_chemical_formula_structural   TiMn5O12
_chemical_formula_sum   'Ti1 Mn5 O12'
_cell_volume   217.18764997
_cell_formula_units_Z   1
loop_
 _symmetry_equiv_pos_site_id
 _symmetry_equiv_pos_as_xyz
  1  'x, y, z'
loop_
 _atom_site_type_symbol
 _atom_site_label
 _atom_site_symmetry_multiplicity
 _atom_site_fract_x
 _atom_site_fract_y
 _atom_site_fract_z
 _atom_site_occupancy
  Ti  Ti0  1  0.00000000  0.00000000  0.00000000  1
  Mn  Mn0  1  0.83328800  0.16671200  0.50000000  1
  Mn  Mn1  1  0.33332800  0.66667200  0.00000000  1
  Mn  Mn2  1  0.66667200  0.33332800  0.00000000  1
  Mn  Mn3  1  0.16671200  0.83328800  0.50000000  1
  Mn  Mn4  1  0.50000000  0.50000000  0.50000000  1
  O  O0  1  0.99991100  0.33938600  0.89992300  1
  O  O1  1  0.66061400  0.00008900  0.10007700  1
  O  O2  1  0.83319700  0.49996900  0.59831600  1
  O  O3  1  0.49996900  0.83319700  0.59831600  1
  O  O4  1  0.50003100  0.16680300  0.40168400  1
  O  O5  1  0.83359000  0.83359000  0.40152800  1
  O  O6  1  0.16680300  0.50003100  0.40168400  1
  O  O7  1  0.33938600  0.99991100  0.89992300  1
  O  O8  1  0.66043300  0.66043300  0.89986500  1
  O  O9  1  0.00008900  0.66061400  0.10007700  1
  O  O10  1  0.33956700  0.33956700  0.10013500  1
  O  O11  1  0.16641000  0.16641000  0.59847200  1
loop_
_geom_bond_atom_site_label_1
_geom_bond_atom_site_label_2
_geom_bond_distance
_geom_bond_site_symmetry_2
Mn0 O3 1.943470 1_545
Mn0 O6 1.943470 1_655
Mn0 O4 1.944869 1_555
Mn0 O2 1.944869 1_555
Mn0 O5 1.945485 1_545
Mn0 O11 1.945485 1_655
Mn1 O1 1.938872 1_565
Mn1 O0 1.938872 1_454
Mn1 O9 1.939745 1_555
Mn1 O7 1.939745 1_554
Mn1 O10 1.940169 1_555
Mn1 O8 1.940169 1_554
Mn2 O9 1.938872 1_655
Mn2 O7 1.938872 1_544
Mn2 O1 1.939745 1_555
Mn2 O0 1.939745 1_554
Mn2 O10 1.940169 1_555
Mn2 O8 1.940169 1_554
Mn3 O2 1.943470 1_455
Mn3 O4 1.943470 1_565
Mn3 O6 1.944869 1_555
Mn3 O3 1.944869 1_555
Mn3 O5 1.945485 1_455
Mn3 O11 1.945485 1_565
Mn4 O3 1.944470 1_555
Mn4 O2 1.944470 1_555
Mn4 O4 1.944470 1_555
Mn4 O6 1.944470 1_555
Mn4 O11 1.944980 1_555
Mn4 O5 1.944980 1_555
O0 Ti0 1.980288 1_656
O1 Ti0 1.980288 1_655
O7 Ti0 1.980288 1_566
O8 Ti0 1.979577 1_666
O9 Ti0 1.980288 1_565
O10 Ti0 1.979577 1_555
