# generated using pymatgen
data_Rb2Na2Sb2O3F10
_symmetry_space_group_name_H-M   'P 1'
_cell_length_a   18.97228600
_cell_length_b   6.09828700
_cell_length_c   6.10956697
_cell_angle_alpha   89.71805739
_cell_angle_beta   90.00000000
_cell_angle_gamma   90.00000000
_symmetry_Int_Tables_number   1
_chemical_formula_structural   Rb2Na2Sb2O3F10
_chemical_formula_sum   'Rb4 Na4 Sb4 O6 F20'
_cell_volume   706.85884029
_cell_formula_units_Z   2
loop_
 _symmetry_equiv_pos_site_id
 _symmetry_equiv_pos_as_xyz
  1  'x, y, z'
loop_
 _atom_site_type_symbol
 _atom_site_label
 _atom_site_symmetry_multiplicity
 _atom_site_fract_x
 _atom_site_fract_y
 _atom_site_fract_z
 _atom_site_occupancy
  Rb  Rb0  1  0.00013000  0.25380400  0.25293800  1
  Rb  Rb1  1  0.50013000  0.74619600  0.74706200  1
  Rb  Rb2  1  0.99987000  0.74619600  0.74706200  1
  Rb  Rb3  1  0.49987000  0.25380400  0.25293800  1
  Na  Na0  1  0.87905900  0.25375700  0.74565600  1
  Na  Na1  1  0.37905900  0.74624300  0.25434400  1
  Na  Na2  1  0.12094100  0.74624300  0.25434400  1
  Na  Na3  1  0.62094100  0.25375700  0.74565600  1
  Sb  Sb0  1  0.86891300  0.75857100  0.24251700  1
  Sb  Sb1  1  0.36891300  0.24142900  0.75748300  1
  Sb  Sb2  1  0.13108700  0.24142900  0.75748300  1
  Sb  Sb3  1  0.63108700  0.75857100  0.24251700  1
  O  O0  1  0.75000000  0.09946300  0.91183500  1
  O  O1  1  0.25000000  0.90053700  0.08816500  1
  O  O2  1  0.75000000  0.89662000  0.84264400  1
  O  O3  1  0.25000000  0.10338000  0.15735600  1
  O  O4  1  0.75000000  0.12705700  0.12404300  1
  O  O5  1  0.25000000  0.87294300  0.87595700  1
  F  F0  1  0.97558700  0.73815000  0.25873300  1
  F  F1  1  0.47558700  0.26185000  0.74126700  1
  F  F2  1  0.02441300  0.26185000  0.74126700  1
  F  F3  1  0.52441300  0.73815000  0.25873300  1
  F  F4  1  0.88909200  0.51430100  0.00978500  1
  F  F5  1  0.38909200  0.48569900  0.99021500  1
  F  F6  1  0.11090800  0.48569900  0.99021500  1
  F  F7  1  0.61090800  0.51430100  0.00978500  1
  F  F8  1  0.89123600  0.99203400  0.48412100  1
  F  F9  1  0.39123600  0.00796600  0.51587900  1
  F  F10  1  0.10876400  0.00796600  0.51587900  1
  F  F11  1  0.60876400  0.99203400  0.48412100  1
  F  F12  1  0.88206900  0.51706000  0.48481800  1
  F  F13  1  0.38206900  0.48294000  0.51518200  1
  F  F14  1  0.11793100  0.48294000  0.51518200  1
  F  F15  1  0.61793100  0.51706000  0.48481800  1
  F  F16  1  0.90032400  0.99181000  0.00701200  1
  F  F17  1  0.40032400  0.00819000  0.99298800  1
  F  F18  1  0.09967600  0.00819000  0.99298800  1
  F  F19  1  0.59967600  0.99181000  0.00701200  1
loop_
_geom_bond_atom_site_label_1
_geom_bond_atom_site_label_2
_geom_bond_distance
_geom_bond_site_symmetry_2
Na0 O0 2.811070 1_555
Na1 O1 2.811070 1_555
Na2 O1 2.811070 1_555
Na3 O0 2.811070 1_555
O0 O4 1.308195 1_556
O0 O2 1.309198 1_545
O1 O5 1.308195 1_554
O1 O3 1.309198 1_565
F0 Sb0 2.030066 1_555
F0 Na2 2.758267 1_655
F0 Rb0 2.990540 1_655
F0 Rb2 3.019477 1_555
F0 Rb2 3.159996 1_554
F0 Rb0 3.178919 1_665
F1 Sb1 2.030066 1_555
F1 Na3 2.758267 1_555
F1 Rb1 2.990540 1_555
F1 Rb3 3.019477 1_555
F1 Rb3 3.159996 1_556
F1 Rb1 3.178919 1_545
F2 Sb2 2.030066 1_555
F2 Na0 2.758267 1_455
F2 Rb2 2.990540 1_455
F2 Rb0 3.019477 1_555
F2 Rb0 3.159996 1_556
F2 Rb2 3.178919 1_445
F3 Sb3 2.030066 1_555
F3 Na1 2.758267 1_555
F3 Rb3 2.990540 1_555
F3 Rb1 3.019477 1_555
F3 Rb1 3.159996 1_554
F3 Rb3 3.178919 1_565
F4 Sb0 2.099567 1_555
F4 Na0 2.278169 1_554
F4 Rb2 2.995185 1_554
F4 Rb0 3.024106 1_655
F5 Sb1 2.099567 1_555
F5 Na1 2.278169 1_556
F5 Rb3 2.995185 1_556
F5 Rb1 3.024106 1_555
F6 Sb2 2.099567 1_555
F6 Na2 2.278169 1_556
F6 Rb0 2.995185 1_556
F6 Rb2 3.024106 1_455
F7 Sb3 2.099567 1_555
F7 Na3 2.278169 1_554
F7 Rb1 2.995185 1_554
F7 Rb3 3.024106 1_555
F8 Sb0 2.099024 1_555
F8 Na0 2.275755 1_565
F8 Rb0 2.964678 1_665
F8 Rb2 3.008727 1_555
F9 Sb1 2.099024 1_555
F9 Na1 2.275755 1_545
F9 Rb1 2.964678 1_545
F9 Rb3 3.008727 1_555
F10 Sb2 2.099024 1_555
F10 Na2 2.275755 1_545
F10 Rb2 2.964678 1_445
F10 Rb0 3.008727 1_555
F11 Sb3 2.099024 1_555
F11 Na3 2.275755 1_565
F11 Rb3 2.964678 1_565
F11 Rb1 3.008727 1_555
F12 Sb0 2.097961 1_555
F12 Na0 2.257416 1_555
F12 Rb2 3.088145 1_555
F12 Rb0 3.102228 1_655
F13 Sb1 2.097961 1_555
F13 Na1 2.257416 1_555
F13 Rb3 3.088145 1_555
F13 Rb1 3.102228 1_555
F14 Sb2 2.097961 1_555
F14 Na2 2.257416 1_555
F14 Rb0 3.088145 1_555
F14 Rb2 3.102228 1_455
F15 Sb3 2.097961 1_555
F15 Na3 2.257416 1_555
F15 Rb1 3.088145 1_555
F15 Rb3 3.102228 1_555
F16 Sb0 2.104364 1_555
F16 Na0 2.288913 1_564
F16 Rb2 2.890688 1_554
F16 Rb0 2.901612 1_665
F17 Sb1 2.104364 1_555
F17 Na1 2.288913 1_546
F17 Rb3 2.890688 1_556
F17 Rb1 2.901612 1_545
F18 Sb2 2.104364 1_555
F18 Na2 2.288913 1_546
F18 Rb0 2.890688 1_556
F18 Rb2 2.901612 1_445
F19 Sb3 2.104364 1_555
F19 Na3 2.288913 1_564
F19 Rb1 2.890688 1_554
F19 Rb3 2.901612 1_565
