# generated using pymatgen
data_Na2MnPCO7
_symmetry_space_group_name_H-M   'P 1'
_cell_length_a   8.46700100
_cell_length_b   8.55763605
_cell_length_c   10.17536815
_cell_angle_alpha   107.77455363
_cell_angle_beta   106.65094738
_cell_angle_gamma   105.05854986
_symmetry_Int_Tables_number   1
_chemical_formula_structural   Na2MnPCO7
_chemical_formula_sum   'Na8 Mn4 P4 C4 O28'
_cell_volume   622.01087981
_cell_formula_units_Z   4
loop_
 _symmetry_equiv_pos_site_id
 _symmetry_equiv_pos_as_xyz
  1  'x, y, z'
loop_
 _atom_site_type_symbol
 _atom_site_label
 _atom_site_symmetry_multiplicity
 _atom_site_fract_x
 _atom_site_fract_y
 _atom_site_fract_z
 _atom_site_occupancy
  Na  Na0  1  0.76268000  0.75558400  0.75970500  1
  Na  Na1  1  0.25571800  0.23907000  0.74208100  1
  Na  Na2  1  0.98566000  0.50452000  0.74253600  1
  Na  Na3  1  0.50591000  0.01277200  0.76228400  1
  Na  Na4  1  0.51536800  0.00883900  0.24892100  1
  Na  Na5  1  0.75206200  0.75135300  0.24510300  1
  Na  Na6  1  0.22805400  0.24750700  0.25158000  1
  Na  Na7  1  0.28768000  0.54998900  0.08535800  1
  Mn  Mn0  1  0.81103300  0.06013900  0.64874800  1
  Mn  Mn1  1  0.30626400  0.55764400  0.64514600  1
  Mn  Mn2  1  0.70124000  0.44146100  0.34685500  1
  Mn  Mn3  1  0.19215600  0.93567300  0.35003300  1
  P  P0  1  0.05944200  0.80878400  0.57947400  1
  P  P1  1  0.55981600  0.31134400  0.57697500  1
  P  P2  1  0.44171400  0.68993500  0.42166800  1
  P  P3  1  0.93579300  0.18329900  0.41864900  1
  C  C0  1  0.98008400  0.22835200  0.92840200  1
  C  C1  1  0.47108700  0.72150500  0.92861500  1
  C  C2  1  0.52412200  0.27950900  0.07229700  1
  C  C3  1  0.02715500  0.77690100  0.07207600  1
  O  O0  1  0.95742200  0.70441200  0.93108400  1
  O  O1  1  0.44266600  0.20345500  0.93209100  1
  O  O2  1  0.32232800  0.57533900  0.85015200  1
  O  O3  1  0.83092600  0.08449200  0.85445500  1
  O  O4  1  0.03534000  0.28883600  0.83842500  1
  O  O5  1  0.53521000  0.78550300  0.84717300  1
  O  O6  1  0.16220500  0.72318100  0.66842300  1
  O  O7  1  0.98368100  0.91824500  0.67729300  1
  O  O8  1  0.66384800  0.22979800  0.66914800  1
  O  O9  1  0.47442500  0.41464400  0.66959300  1
  O  O10  1  0.58667000  0.83371300  0.57599800  1
  O  O11  1  0.69436300  0.44664500  0.54487600  1
  O  O12  1  0.19616600  0.94177200  0.54675500  1
  O  O13  1  0.07727800  0.33057300  0.57276900  1
  O  O14  1  0.91016200  0.66930100  0.42739600  1
  O  O15  1  0.31128500  0.55515700  0.45650500  1
  O  O16  1  0.80569300  0.04379300  0.45337100  1
  O  O17  1  0.41527500  0.16529600  0.42390600  1
  O  O18  1  0.34075500  0.77214100  0.32804500  1
  O  O19  1  0.51643000  0.58372200  0.32089900  1
  O  O20  1  0.81842200  0.25196300  0.32590000  1
  O  O21  1  0.02324300  0.08290600  0.32889000  1
  O  O22  1  0.47400900  0.22663800  0.16737000  1
  O  O23  1  0.96766500  0.72390400  0.16088300  1
  O  O24  1  0.66963500  0.42442300  0.14036700  1
  O  O25  1  0.17958100  0.91927400  0.14684000  1
  O  O26  1  0.06060100  0.29860400  0.06772800  1
  O  O27  1  0.53368400  0.78219800  0.07043400  1
loop_
_geom_bond_atom_site_label_1
_geom_bond_atom_site_label_2
_geom_bond_distance
_geom_bond_site_symmetry_2
Na0 O0 2.268297 1_555
Na0 O5 2.380458 1_555
Na0 O10 2.417958 1_555
Na0 O3 2.522819 1_565
Na0 O7 2.529977 1_555
Na0 O11 2.656108 1_555
Na1 O1 2.278848 1_555
Na1 O13 2.410525 1_555
Na1 O4 2.414640 1_555
Na1 O9 2.498866 1_555
Na1 O12 2.519740 1_545
Na1 O2 2.584091 1_555
Na1 O7 2.831354 1_445
Na2 O0 2.266232 1_555
Na2 O13 2.366359 1_655
Na2 O4 2.409039 1_655
Na2 O11 2.507574 1_555
Na2 O6 2.521665 1_655
Na2 O2 2.569130 1_655
Na2 O8 2.818268 1_555
Na3 O1 2.279871 1_555
Na3 O5 2.396627 1_545
Na3 O10 2.433618 1_545
Na3 O3 2.474097 1_555
Na3 O8 2.577996 1_555
Na3 O12 2.668178 1_545
Na4 O27 2.291571 1_545
Na4 O22 2.324230 1_555
Na4 O17 2.383288 1_555
Na4 O25 2.537492 1_545
Na4 O20 2.570135 1_555
Na4 O16 2.601410 1_555
Na4 O18 2.656827 1_545
Na5 O23 2.262412 1_555
Na5 O27 2.303064 1_555
Na5 O14 2.363529 1_555
Na5 O24 2.487769 1_555
Na5 O16 2.565190 1_565
Na5 O19 2.589068 1_555
Na5 O21 2.839957 1_665
Na6 O26 2.236676 1_555
Na6 O21 2.408164 1_555
Na6 O17 2.412932 1_555
Na6 O22 2.495069 1_555
Na6 O25 2.552797 1_545
Na6 O15 2.572565 1_555
Na7 O26 2.402978 1_555
Na7 O18 2.442957 1_555
Na7 O19 2.491121 1_555
Na7 O27 2.554446 1_555
Na7 O2 2.558776 1_554
Na7 O4 2.624260 1_554
Mn0 O16 1.936311 1_555
Mn0 O3 1.991593 1_555
Mn0 O10 2.077745 1_545
Mn0 O7 2.142445 1_545
Mn0 O8 2.146742 1_555
Mn0 O4 2.196375 1_655
Mn1 O15 1.925877 1_555
Mn1 O2 2.006668 1_555
Mn1 O6 2.099810 1_555
Mn1 O13 2.104219 1_555
Mn1 O9 2.115404 1_555
Mn1 O5 2.256264 1_555
Mn2 O24 1.994473 1_555
Mn2 O14 2.000963 1_555
Mn2 O11 2.019735 1_555
Mn2 O20 2.099005 1_555
Mn2 O22 2.124926 1_555
Mn2 O19 2.224803 1_555
Mn3 O12 1.976638 1_555
Mn3 O25 1.998694 1_555
Mn3 O17 2.085835 1_565
Mn3 O18 2.115803 1_555
Mn3 O23 2.141382 1_455
Mn3 O21 2.145865 1_565
C0 O26 1.244522 1_656
C0 O4 1.316815 1_655
C0 O3 1.326165 1_555
C1 O27 1.262592 1_556
C1 O5 1.289148 1_555
C1 O2 1.335593 1_555
C2 O1 1.253221 1_554
C2 O22 1.312758 1_555
C2 O24 1.314618 1_555
C3 O0 1.254002 1_454
C3 O23 1.291643 1_455
C3 O25 1.335363 1_555
O6 P0 1.548416 1_555
O7 P0 1.545486 1_655
O8 P1 1.545336 1_555
O9 P1 1.551225 1_555
O10 P2 1.554799 1_555
O11 P1 1.582356 1_555
O12 P0 1.585495 1_555
O13 P3 1.554018 1_455
O14 P0 1.544147 1_655
O15 P2 1.577224 1_555
O16 P3 1.600232 1_555
O17 P1 1.552434 1_555
O18 P2 1.545353 1_555
O19 P2 1.542476 1_555
O20 P3 1.525801 1_555
O21 P3 1.536081 1_455
