# generated using pymatgen
data_Ba2Nb8O11
_symmetry_space_group_name_H-M   'P 1'
_cell_length_a   9.28345010
_cell_length_b   9.28345010
_cell_length_c   9.28345010
_cell_angle_alpha   142.26550538
_cell_angle_beta   142.26550538
_cell_angle_gamma   54.42906357
_symmetry_Int_Tables_number   1
_chemical_formula_structural   Ba2Nb8O11
_chemical_formula_sum   'Ba2 Nb8 O11'
_cell_volume   297.61425896
_cell_formula_units_Z   1
loop_
 _symmetry_equiv_pos_site_id
 _symmetry_equiv_pos_as_xyz
  1  'x, y, z'
loop_
 _atom_site_type_symbol
 _atom_site_label
 _atom_site_symmetry_multiplicity
 _atom_site_fract_x
 _atom_site_fract_y
 _atom_site_fract_z
 _atom_site_occupancy
  Ba  Ba0  1  0.50000000  0.00000000  0.50000000  1
  Ba  Ba1  1  0.00000000  0.50000000  0.50000000  1
  Nb  Nb0  1  0.00000000  0.50000000  0.00000000  1
  Nb  Nb1  1  0.00000000  0.00000000  0.50000000  1
  Nb  Nb2  1  0.50000000  0.50000000  0.50000000  1
  Nb  Nb3  1  0.12686500  0.12686500  0.00000000  1
  Nb  Nb4  1  0.62665200  0.62665200  0.00000000  1
  Nb  Nb5  1  0.50000000  0.00000000  0.00000000  1
  Nb  Nb6  1  0.87313500  0.87313500  0.00000000  1
  Nb  Nb7  1  0.37334800  0.37334800  0.00000000  1
  O  O0  1  0.50000000  0.50000000  0.00000000  1
  O  O1  1  0.87165800  0.37002700  0.00000000  1
  O  O2  1  0.87165800  0.87165800  0.50163100  1
  O  O3  1  0.25000000  0.75000000  0.50000000  1
  O  O4  1  0.37002700  0.37002700  0.49836900  1
  O  O5  1  0.62997300  0.12834200  0.00000000  1
  O  O6  1  0.37002700  0.87165800  0.00000000  1
  O  O7  1  0.75000000  0.25000000  0.50000000  1
  O  O8  1  0.12834200  0.12834200  0.49836900  1
  O  O9  1  0.62997300  0.62997300  0.50163100  1
  O  O10  1  0.12834200  0.62997300  0.00000000  1
loop_
_geom_bond_atom_site_label_1
_geom_bond_atom_site_label_2
_geom_bond_distance
_geom_bond_site_symmetry_2
Ba0 O2 2.913316 1_545
Ba0 O9 2.913316 1_545
Ba0 O6 2.913316 1_545
Ba0 O1 2.913316 1_556
Ba0 O4 2.913316 1_555
Ba0 O5 2.913316 1_556
Ba0 O8 2.913316 1_555
Ba0 O10 2.913316 1_545
Ba0 O0 3.002050 1_556
Ba0 O0 3.002050 1_545
Ba1 O9 2.913316 1_455
Ba1 O6 2.913316 1_556
Ba1 O1 2.913316 1_455
Ba1 O2 2.913316 1_455
Ba1 O4 2.913316 1_555
Ba1 O5 2.913316 1_455
Ba1 O8 2.913316 1_555
Ba1 O10 2.913316 1_556
Ba1 O0 3.002050 1_455
Ba1 O0 3.002050 1_556
Nb0 O7 2.122770 1_454
Nb0 O3 2.122770 1_555
Nb0 O10 2.132602 1_555
Nb0 O1 2.132602 1_455
Nb1 O3 2.122770 1_545
Nb1 O7 2.122770 1_455
Nb1 O8 2.132602 1_555
Nb1 O2 2.132602 1_445
Nb2 O7 2.122770 1_555
Nb2 O3 2.122770 1_555
Nb2 O4 2.132602 1_555
Nb2 O9 2.132602 1_555
Nb3 O4 2.118181 1_555
Nb3 O1 2.118181 1_455
Nb3 O6 2.118181 1_545
Nb3 O2 2.118181 1_444
Nb4 O0 2.091221 1_555
Nb4 O1 2.131854 1_555
Nb4 O2 2.131854 1_555
Nb4 O6 2.131854 1_555
Nb4 O4 2.131854 1_554
Nb5 O7 2.122770 1_555
Nb5 O3 2.122770 1_544
Nb5 O5 2.132602 1_555
Nb5 O6 2.132602 1_545
Nb6 O5 2.118181 1_565
Nb6 O10 2.118181 1_655
Nb6 O8 2.118181 1_665
Nb6 O9 2.118181 1_554
Nb7 O0 2.091221 1_555
Nb7 O9 2.131854 1_555
Nb7 O8 2.131854 1_554
Nb7 O5 2.131854 1_555
Nb7 O10 2.131854 1_555
