# generated using pymatgen
data_Gd3SbO7
_symmetry_space_group_name_H-M   'P 1'
_cell_length_a   6.46094696
_cell_length_b   6.50553320
_cell_length_c   7.59576358
_cell_angle_alpha   106.84242333
_cell_angle_beta   89.85274281
_cell_angle_gamma   97.98475309
_symmetry_Int_Tables_number   1
_chemical_formula_structural   Gd3SbO7
_chemical_formula_sum   'Gd6 Sb2 O14'
_cell_volume   302.36797947
_cell_formula_units_Z   2
loop_
 _symmetry_equiv_pos_site_id
 _symmetry_equiv_pos_as_xyz
  1  'x, y, z'
loop_
 _atom_site_type_symbol
 _atom_site_label
 _atom_site_symmetry_multiplicity
 _atom_site_fract_x
 _atom_site_fract_y
 _atom_site_fract_z
 _atom_site_occupancy
  Gd  Gd0  1  0.73717067  0.46605092  0.11747439  1
  Gd  Gd1  1  0.74138447  0.47649859  0.61580985  1
  Gd  Gd2  1  0.54024112  0.99551192  0.74801090  1
  Gd  Gd3  1  0.45975888  0.00448808  0.25198910  1
  Gd  Gd4  1  0.25861553  0.52350141  0.38419015  1
  Gd  Gd5  1  0.26282933  0.53394908  0.88252561  1
  Sb  Sb0  1  0.00000000  0.00000000  0.00000000  1
  Sb  Sb1  1  0.00000000  0.00000000  0.50000000  1
  O  O0  1  0.71418746  0.06335667  0.48446566  1
  O  O1  1  0.92471190  0.68202855  0.95272923  1
  O  O2  1  0.71225072  0.06496587  0.04616177  1
  O  O3  1  0.92799162  0.67386877  0.39027911  1
  O  O4  1  0.90700786  0.93637955  0.73342473  1
  O  O5  1  0.56020142  0.35480415  0.83431989  1
  O  O6  1  0.54816547  0.36249444  0.34405976  1
  O  O7  1  0.45183453  0.63750556  0.65594024  1
  O  O8  1  0.43979858  0.64519585  0.16568011  1
  O  O9  1  0.09299214  0.06362045  0.26657527  1
  O  O10  1  0.07200838  0.32613123  0.60972089  1
  O  O11  1  0.28774928  0.93503413  0.95383823  1
  O  O12  1  0.07528810  0.31797145  0.04727077  1
  O  O13  1  0.28581254  0.93664333  0.51553434  1
loop_
_geom_bond_atom_site_label_1
_geom_bond_atom_site_label_2
_geom_bond_distance
_geom_bond_site_symmetry_2
Gd0 O5 2.310344 1_554
Gd0 O6 2.310791 1_555
Gd0 O1 2.355072 1_554
Gd0 O8 2.356884 1_555
Gd0 O3 2.359727 1_555
Gd0 O2 2.488442 1_555
Gd0 O12 2.503131 1_655
Gd1 O7 2.246385 1_555
Gd1 O6 2.288693 1_555
Gd1 O5 2.290384 1_555
Gd1 O10 2.464949 1_655
Gd1 O0 2.562390 1_555
Gd1 O3 2.621226 1_555
Gd1 O1 2.707909 1_555
Gd1 O4 2.908704 1_555
Gd2 O7 2.219977 1_555
Gd2 O5 2.222279 1_565
Gd2 O13 2.327064 1_555
Gd2 O11 2.329237 1_555
Gd2 O0 2.414083 1_565
Gd2 O2 2.418368 1_566
Gd2 O4 2.450052 1_555
Gd3 O6 2.219977 1_555
Gd3 O8 2.222279 1_545
Gd3 O0 2.327064 1_555
Gd3 O2 2.329237 1_555
Gd3 O13 2.414083 1_545
Gd3 O11 2.418368 1_544
Gd3 O9 2.450052 1_555
Gd4 O6 2.246385 1_555
Gd4 O7 2.288693 1_555
Gd4 O8 2.290384 1_555
Gd4 O3 2.464949 1_455
Gd4 O13 2.562390 1_555
Gd4 O10 2.621226 1_555
Gd4 O12 2.707909 1_555
Gd4 O9 2.908704 1_555
Gd5 O8 2.310344 1_556
Gd5 O7 2.310791 1_555
Gd5 O12 2.355072 1_556
Gd5 O5 2.356884 1_555
Gd5 O10 2.359727 1_555
Gd5 O11 2.488442 1_555
Gd5 O1 2.503131 1_455
O0 Sb1 1.958205 1_655
O1 Sb0 1.983806 1_666
O2 Sb0 1.971550 1_655
O3 Sb1 2.028687 1_665
O4 Sb1 2.006647 1_665
O4 Sb0 2.020842 1_666
O9 Sb1 2.006647 1_555
O9 Sb0 2.020842 1_555
O10 Sb1 2.028687 1_555
O11 Sb0 1.971550 1_566
O12 Sb0 1.983806 1_555
O13 Sb1 1.958205 1_565
