# generated using pymatgen
data_Li2Mn3CuO8
_symmetry_space_group_name_H-M   'P 1'
_cell_length_a   5.95459422
_cell_length_b   5.95459422
_cell_length_c   5.95459457
_cell_angle_alpha   59.08037154
_cell_angle_beta   59.08037154
_cell_angle_gamma   59.08037789
_symmetry_Int_Tables_number   1
_chemical_formula_structural   Li2Mn3CuO8
_chemical_formula_sum   'Li2 Mn3 Cu1 O8'
_cell_volume   146.16344387
_cell_formula_units_Z   1
loop_
 _symmetry_equiv_pos_site_id
 _symmetry_equiv_pos_as_xyz
  1  'x, y, z'
loop_
 _atom_site_type_symbol
 _atom_site_label
 _atom_site_symmetry_multiplicity
 _atom_site_fract_x
 _atom_site_fract_y
 _atom_site_fract_z
 _atom_site_occupancy
  Li  Li0  1  0.11980400  0.11980400  0.11980400  1
  Li  Li1  1  0.88019600  0.88019600  0.88019600  1
  Mn  Mn0  1  0.50000000  0.00000000  0.50000000  1
  Mn  Mn1  1  0.50000000  0.50000000  0.00000000  1
  Mn  Mn2  1  0.00000000  0.50000000  0.50000000  1
  Cu  Cu0  1  0.50000000  0.50000000  0.50000000  1
  O  O0  1  0.26307600  0.26307600  0.26307600  1
  O  O1  1  0.70812000  0.25358300  0.25358300  1
  O  O2  1  0.25358300  0.25358300  0.70812000  1
  O  O3  1  0.25358300  0.70812000  0.25358300  1
  O  O4  1  0.74641700  0.29188000  0.74641700  1
  O  O5  1  0.74641700  0.74641700  0.29188000  1
  O  O6  1  0.29188000  0.74641700  0.74641700  1
  O  O7  1  0.73692400  0.73692400  0.73692400  1
loop_
_geom_bond_atom_site_label_1
_geom_bond_atom_site_label_2
_geom_bond_distance
_geom_bond_site_symmetry_2
Li0 O2 1.979150 1_554
Li0 O1 1.979150 1_455
Li0 O3 1.979150 1_545
Li0 O0 2.104131 1_555
Li1 O5 1.979150 1_556
Li1 O6 1.979150 1_655
Li1 O4 1.979150 1_565
Li1 O7 2.104131 1_555
Mn0 O6 1.935528 1_545
Mn0 O1 1.935528 1_555
Mn0 O5 1.935528 1_545
Mn0 O2 1.935528 1_555
Mn0 O7 1.984353 1_545
Mn0 O0 1.984353 1_555
Mn1 O4 1.935528 1_554
Mn1 O6 1.935528 1_554
Mn1 O1 1.935528 1_555
Mn1 O3 1.935528 1_555
Mn1 O7 1.984352 1_554
Mn1 O0 1.984352 1_555
Mn2 O4 1.935528 1_455
Mn2 O3 1.935528 1_555
Mn2 O5 1.935528 1_455
Mn2 O2 1.935528 1_555
Mn2 O7 1.984353 1_455
Mn2 O0 1.984353 1_555
Cu0 O2 2.077730 1_555
Cu0 O5 2.077730 1_555
Cu0 O6 2.077730 1_555
Cu0 O3 2.077730 1_555
Cu0 O1 2.077730 1_555
Cu0 O4 2.077730 1_555
