# generated using pymatgen
data_LiVPH2O5
_symmetry_space_group_name_H-M   'P 1'
_cell_length_a   5.21707300
_cell_length_b   10.61094600
_cell_length_c   16.47620500
_cell_angle_alpha   90.00000000
_cell_angle_beta   90.00000000
_cell_angle_gamma   90.00000000
_symmetry_Int_Tables_number   1
_chemical_formula_structural   LiVPH2O5
_chemical_formula_sum   'Li8 V8 P8 H16 O40'
_cell_volume   912.09107253
_cell_formula_units_Z   8
loop_
 _symmetry_equiv_pos_site_id
 _symmetry_equiv_pos_as_xyz
  1  'x, y, z'
loop_
 _atom_site_type_symbol
 _atom_site_label
 _atom_site_symmetry_multiplicity
 _atom_site_fract_x
 _atom_site_fract_y
 _atom_site_fract_z
 _atom_site_occupancy
  Li  Li0  1  0.47356300  0.16732700  0.50088300  1
  Li  Li1  1  0.52643700  0.16732700  0.00088300  1
  Li  Li2  1  0.91678900  0.40645000  0.25179000  1
  Li  Li3  1  0.08321100  0.40645000  0.75179000  1
  Li  Li4  1  0.47356300  0.66732700  0.99911700  1
  Li  Li5  1  0.52643700  0.66732700  0.49911700  1
  Li  Li6  1  0.08321100  0.90645000  0.74821000  1
  Li  Li7  1  0.91678900  0.90645000  0.24821000  1
  V  V0  1  0.40872100  0.14950400  0.68243900  1
  V  V1  1  0.59127900  0.14950400  0.18243900  1
  V  V2  1  0.16075200  0.42144600  0.93359300  1
  V  V3  1  0.83924800  0.42144600  0.43359300  1
  V  V4  1  0.40872100  0.64950400  0.81756100  1
  V  V5  1  0.59127900  0.64950400  0.31756100  1
  V  V6  1  0.16075200  0.92144600  0.56640700  1
  V  V7  1  0.83924800  0.92144600  0.06640700  1
  P  P0  1  0.02303800  0.23677800  0.09574000  1
  P  P1  1  0.97696200  0.23677800  0.59574000  1
  P  P2  1  0.40559400  0.33497300  0.34404200  1
  P  P3  1  0.59440600  0.33497300  0.84404200  1
  P  P4  1  0.02303800  0.73677800  0.40426000  1
  P  P5  1  0.97696200  0.73677800  0.90426000  1
  P  P6  1  0.59440600  0.83497300  0.65595800  1
  P  P7  1  0.40559400  0.83497300  0.15595800  1
  H  H0  1  0.07930900  0.00237800  0.37048200  1
  H  H1  1  0.92069100  0.00237800  0.87048200  1
  H  H2  1  0.62080500  0.05415000  0.38236100  1
  H  H3  1  0.37919500  0.05415000  0.88236100  1
  H  H4  1  0.14010500  0.11126000  0.30834700  1
  H  H5  1  0.85989500  0.11126000  0.80834700  1
  H  H6  1  0.65458600  0.44959600  0.05248400  1
  H  H7  1  0.34541400  0.44959600  0.55248400  1
  H  H8  1  0.07930900  0.50237800  0.12951800  1
  H  H9  1  0.92069100  0.50237800  0.62951800  1
  H  H10  1  0.62080500  0.55415000  0.11763900  1
  H  H11  1  0.37919500  0.55415000  0.61763900  1
  H  H12  1  0.14010500  0.61126000  0.19165300  1
  H  H13  1  0.85989500  0.61126000  0.69165300  1
  H  H14  1  0.65458600  0.94959600  0.44751600  1
  H  H15  1  0.34541400  0.94959600  0.94751600  1
  O  O0  1  0.53897800  0.01852600  0.43099700  1
  O  O1  1  0.46102200  0.01852600  0.93099700  1
  O  O2  1  0.01157400  0.04550500  0.32217400  1
  O  O3  1  0.98842600  0.04550500  0.82217400  1
  O  O4  1  0.83989900  0.12622000  0.06629300  1
  O  O5  1  0.16010100  0.12622000  0.56629300  1
  O  O6  1  0.30235300  0.19027900  0.09623800  1
  O  O7  1  0.69764700  0.19027900  0.59623800  1
  O  O8  1  0.57752000  0.21641500  0.79053200  1
  O  O9  1  0.42248000  0.21641500  0.29053200  1
  O  O10  1  0.91903600  0.26643300  0.18237600  1
  O  O11  1  0.08096400  0.26643300  0.68237600  1
  O  O12  1  0.48869000  0.30521800  0.93076400  1
  O  O13  1  0.51131000  0.30521800  0.43076400  1
  O  O14  1  0.98874200  0.35450900  0.04171000  1
  O  O15  1  0.01125800  0.35450900  0.54171000  1
  O  O16  1  0.12835900  0.38385900  0.34791300  1
  O  O17  1  0.87164100  0.38385900  0.84791300  1
  O  O18  1  0.58965600  0.44358600  0.31258100  1
  O  O19  1  0.41034400  0.44358600  0.81258100  1
  O  O20  1  0.46102200  0.51852600  0.56900300  1
  O  O21  1  0.53897800  0.51852600  0.06900300  1
  O  O22  1  0.01157400  0.54550500  0.17782600  1
  O  O23  1  0.98842600  0.54550500  0.67782600  1
  O  O24  1  0.16010100  0.62622000  0.93370700  1
  O  O25  1  0.83989900  0.62622000  0.43370700  1
  O  O26  1  0.30235300  0.69027900  0.40376200  1
  O  O27  1  0.69764700  0.69027900  0.90376200  1
  O  O28  1  0.42248000  0.71641500  0.20946800  1
  O  O29  1  0.57752000  0.71641500  0.70946800  1
  O  O30  1  0.91903600  0.76643300  0.31762400  1
  O  O31  1  0.08096400  0.76643300  0.81762400  1
  O  O32  1  0.48869000  0.80521800  0.56923600  1
  O  O33  1  0.51131000  0.80521800  0.06923600  1
  O  O34  1  0.98874200  0.85450900  0.45829000  1
  O  O35  1  0.01125800  0.85450900  0.95829000  1
  O  O36  1  0.87164100  0.88385900  0.65208700  1
  O  O37  1  0.12835900  0.88385900  0.15208700  1
  O  O38  1  0.41034400  0.94358600  0.68741900  1
  O  O39  1  0.58965600  0.94358600  0.18741900  1
loop_
_geom_bond_atom_site_label_1
_geom_bond_atom_site_label_2
_geom_bond_distance
_geom_bond_site_symmetry_2
Li0 O13 1.874649 1_555
Li0 O7 1.973408 1_555
Li0 O0 1.983761 1_555
Li0 O5 2.006513 1_555
Li1 O12 1.874649 1_554
Li1 O6 1.973408 1_555
Li1 O1 1.983761 1_554
Li1 O4 2.006513 1_555
Li2 O10 1.874962 1_555
Li2 O16 1.945257 1_655
Li2 O22 1.976548 1_655
Li2 O18 2.017729 1_555
Li3 O11 1.874962 1_555
Li3 O17 1.945257 1_455
Li3 O23 1.976548 1_455
Li3 O19 2.017729 1_555
Li4 O33 1.874649 1_556
Li4 O27 1.973408 1_555
Li4 O21 1.983761 1_556
Li4 O24 2.006513 1_555
Li5 O32 1.874649 1_555
Li5 O26 1.973408 1_555
Li5 O20 1.983761 1_555
Li5 O25 2.006513 1_555
Li6 O31 1.874962 1_555
Li6 O36 1.945257 1_455
Li6 O3 1.976548 1_465
Li6 O38 2.017729 1_555
Li7 O30 1.874962 1_555
Li7 O37 1.945257 1_655
Li7 O2 1.976548 1_665
Li7 O39 2.017729 1_555
H0 O2 0.983768 1_555
H1 O3 0.983768 1_555
H2 O0 0.983498 1_555
H3 O1 0.983498 1_555
H4 O2 0.994164 1_555
H5 O3 0.994164 1_555
H6 O21 0.986313 1_555
H7 O20 0.986313 1_555
H8 O22 0.983768 1_555
H9 O23 0.983768 1_555
H10 O21 0.983498 1_555
H11 O20 0.983498 1_555
H12 O22 0.994164 1_555
H13 O23 0.994164 1_555
H14 O0 0.986313 1_565
H15 O1 0.986313 1_565
O4 P0 1.588868 1_655
O4 V7 2.172849 1_545
O4 V1 2.324966 1_555
O5 P1 1.588868 1_455
O5 V6 2.172849 1_545
O5 V0 2.324966 1_555
O6 P0 1.538493 1_555
O6 V1 2.115762 1_555
O7 P1 1.538493 1_555
O7 V0 2.115762 1_555
O8 P3 1.538717 1_555
O8 V0 2.109842 1_555
O9 P2 1.538717 1_555
O9 V1 2.109842 1_555
O10 P0 1.559160 1_655
O10 V1 2.112646 1_555
O11 P1 1.559160 1_455
O11 V0 2.112646 1_555
O12 P3 1.563803 1_555
O12 V2 2.109567 1_555
O13 P2 1.563803 1_555
O13 V3 2.109567 1_555
O14 P0 1.544371 1_655
O14 V2 2.117314 1_654
O15 P1 1.544371 1_455
O15 V3 2.117314 1_455
O16 P2 1.537884 1_555
O16 V3 2.104025 1_455
O17 P3 1.537884 1_555
O17 V2 2.104025 1_655
O18 P2 1.587145 1_555
O18 V5 2.186541 1_555
O18 V3 2.392921 1_555
O19 P3 1.587145 1_555
O19 V4 2.186541 1_555
O19 V2 2.392921 1_555
O24 P5 1.588868 1_455
O24 V2 2.172849 1_555
O24 V4 2.324966 1_555
O25 P4 1.588868 1_655
O25 V3 2.172849 1_555
O25 V5 2.324966 1_555
O26 P4 1.538493 1_555
O26 V5 2.115762 1_555
O27 P5 1.538493 1_555
O27 V4 2.115762 1_555
O28 P7 1.538717 1_555
O28 V5 2.109842 1_555
O29 P6 1.538717 1_555
O29 V4 2.109842 1_555
O30 P4 1.559160 1_655
O30 V5 2.112646 1_555
O31 P5 1.559160 1_455
O31 V4 2.112646 1_555
O32 P6 1.563803 1_555
O32 V6 2.109567 1_555
O33 P7 1.563803 1_555
O33 V7 2.109567 1_555
O34 P4 1.544371 1_655
O34 V6 2.117314 1_655
O35 P5 1.544371 1_455
O35 V7 2.117314 1_456
O36 P6 1.537884 1_555
O36 V6 2.104025 1_655
O37 P7 1.537884 1_555
O37 V7 2.104025 1_455
O38 P6 1.587145 1_555
O38 V0 2.186541 1_565
O38 V6 2.392921 1_555
O39 P7 1.587145 1_555
O39 V1 2.186541 1_565
O39 V7 2.392921 1_555
