# generated using pymatgen
data_InH12S2NO12
_symmetry_space_group_name_H-M   'P 1'
_cell_length_a   10.95729500
_cell_length_b   9.26740300
_cell_length_c   10.71385027
_cell_angle_alpha   77.87456034
_cell_angle_beta   90.00000000
_cell_angle_gamma   90.00000000
_symmetry_Int_Tables_number   1
_chemical_formula_structural   InH12S2NO12
_chemical_formula_sum   'In4 H48 S8 N4 O48'
_cell_volume   1063.67310762
_cell_formula_units_Z   4
loop_
 _symmetry_equiv_pos_site_id
 _symmetry_equiv_pos_as_xyz
  1  'x, y, z'
loop_
 _atom_site_type_symbol
 _atom_site_label
 _atom_site_symmetry_multiplicity
 _atom_site_fract_x
 _atom_site_fract_y
 _atom_site_fract_z
 _atom_site_occupancy
  In  In0  1  0.86828200  0.84655800  0.28911500  1
  In  In1  1  0.13568700  0.65185700  0.70913200  1
  In  In2  1  0.63568700  0.34814300  0.29086800  1
  In  In3  1  0.36828200  0.15344200  0.71088500  1
  H  H0  1  0.52449100  0.92806100  0.83177200  1
  H  H1  1  0.81228600  0.92410200  0.91211800  1
  H  H2  1  0.92720000  0.92800700  0.82934900  1
  H  H3  1  0.31775100  0.85720200  0.58962800  1
  H  H4  1  0.68961700  0.79807600  0.63382300  1
  H  H5  1  0.03805400  0.94086800  0.09304400  1
  H  H6  1  0.79192100  0.77106300  0.75053900  1
  H  H7  1  0.29942700  0.87120300  0.26794900  1
  H  H8  1  0.18513000  0.81937800  0.36911100  1
  H  H9  1  0.59449200  0.71166500  0.91277400  1
  H  H10  1  0.62924800  0.81151000  0.39818400  1
  H  H11  1  0.46026000  0.69188100  0.87127300  1
  H  H12  1  0.37274100  0.69247400  0.60663600  1
  H  H13  1  0.81205300  0.69121800  0.62321000  1
  H  H14  1  0.53733200  0.81395100  0.15847300  1
  H  H15  1  0.41935500  0.79450200  0.08201600  1
  H  H16  1  0.70294100  0.62550200  0.72809900  1
  H  H17  1  0.21051400  0.72434800  0.25121100  1
  H  H18  1  0.30658000  0.70636700  0.37361400  1
  H  H19  1  0.96953200  0.55880200  0.90869100  1
  H  H20  1  0.68301600  0.64599800  0.41778200  1
  H  H21  1  0.69944200  0.43880300  0.90417500  1
  H  H22  1  0.98027000  0.42984300  0.82974500  1
  H  H23  1  0.57970000  0.43695200  0.82937200  1
  H  H24  1  0.07970000  0.56304800  0.17062800  1
  H  H25  1  0.48027000  0.57015700  0.17025500  1
  H  H26  1  0.19944200  0.56119700  0.09582500  1
  H  H27  1  0.18301600  0.35400200  0.58221800  1
  H  H28  1  0.46953200  0.44119800  0.09130900  1
  H  H29  1  0.80658000  0.29363300  0.62638600  1
  H  H30  1  0.71051400  0.27565200  0.74878900  1
  H  H31  1  0.20294100  0.37449800  0.27190100  1
  H  H32  1  0.91935500  0.20549800  0.91798400  1
  H  H33  1  0.03733200  0.18604900  0.84152700  1
  H  H34  1  0.31205300  0.30878200  0.37679000  1
  H  H35  1  0.87274100  0.30752600  0.39336400  1
  H  H36  1  0.96026000  0.30811900  0.12872700  1
  H  H37  1  0.12924800  0.18849000  0.60181600  1
  H  H38  1  0.09449200  0.28833500  0.08722600  1
  H  H39  1  0.68513000  0.18062200  0.63088900  1
  H  H40  1  0.79942700  0.12879700  0.73205100  1
  H  H41  1  0.29192100  0.22893700  0.24946100  1
  H  H42  1  0.53805400  0.05913200  0.90695600  1
  H  H43  1  0.18961700  0.20192400  0.36617700  1
  H  H44  1  0.81775100  0.14279800  0.41037200  1
  H  H45  1  0.42720000  0.07199300  0.17065100  1
  H  H46  1  0.31228600  0.07589800  0.08788200  1
  H  H47  1  0.02449100  0.07193900  0.16822800  1
  S  S0  1  0.20056800  0.88719400  0.89704100  1
  S  S1  1  0.01723200  0.96813100  0.52720900  1
  S  S2  1  0.98533400  0.52984000  0.47259700  1
  S  S3  1  0.80751000  0.61037900  0.10073200  1
  S  S4  1  0.30751000  0.38962100  0.89926800  1
  S  S5  1  0.48533400  0.47016000  0.52740300  1
  S  S6  1  0.51723200  0.03186900  0.47279100  1
  S  S7  1  0.70056800  0.11280600  0.10295900  1
  N  N0  1  0.74866600  0.72139900  0.68407400  1
  N  N1  1  0.25058200  0.78037800  0.31525500  1
  N  N2  1  0.75058200  0.21962200  0.68474500  1
  N  N3  1  0.24866600  0.27860100  0.31592600  1
  O  O0  1  0.08403200  0.95287500  0.92849900  1
  O  O1  1  0.24359000  0.96875900  0.76706600  1
  O  O2  1  0.29373000  0.88771900  0.99438300  1
  O  O3  1  0.83795400  0.92773400  0.82375200  1
  O  O4  1  0.12968100  0.97415100  0.45224100  1
  O  O5  1  0.90545100  0.96937100  0.44160200  1
  O  O6  1  0.50415700  0.90733300  0.40857800  1
  O  O7  1  0.02572800  0.95904900  0.18043000  1
  O  O8  1  0.00918200  0.82449300  0.62617000  1
  O  O9  1  0.53049500  0.75801400  0.85259100  1
  O  O10  1  0.17804000  0.72990800  0.88306900  1
  O  O11  1  0.29523600  0.75159500  0.60014900  1
  O  O12  1  0.70648200  0.75174500  0.40059700  1
  O  O13  1  0.47213700  0.74387100  0.15236900  1
  O  O14  1  0.82997000  0.76843600  0.11320500  1
  O  O15  1  0.99387300  0.67348500  0.37331600  1
  O  O16  1  0.98064500  0.54159900  0.82074200  1
  O  O17  1  0.49925100  0.59534700  0.59077300  1
  O  O18  1  0.42411700  0.45820200  0.92663800  1
  O  O19  1  0.09745700  0.52864800  0.55831500  1
  O  O20  1  0.26011700  0.46741700  0.77051500  1
  O  O21  1  0.87274400  0.52462600  0.54670600  1
  O  O22  1  0.21784600  0.38994300  0.00072200  1
  O  O23  1  0.16862700  0.56585800  0.18087400  1
  O  O24  1  0.66862700  0.43414200  0.81912600  1
  O  O25  1  0.71784600  0.61005700  0.99927800  1
  O  O26  1  0.37274400  0.47537400  0.45329400  1
  O  O27  1  0.76011700  0.53258300  0.22948500  1
  O  O28  1  0.59745700  0.47135200  0.44168500  1
  O  O29  1  0.92411700  0.54179800  0.07336200  1
  O  O30  1  0.99925100  0.40465300  0.40922700  1
  O  O31  1  0.48064500  0.45840100  0.17925800  1
  O  O32  1  0.49387300  0.32651500  0.62668400  1
  O  O33  1  0.32997000  0.23156400  0.88679500  1
  O  O34  1  0.97213700  0.25612900  0.84763100  1
  O  O35  1  0.20648200  0.24825500  0.59940300  1
  O  O36  1  0.79523600  0.24840500  0.39985100  1
  O  O37  1  0.67804000  0.27009200  0.11693100  1
  O  O38  1  0.03049500  0.24198600  0.14740900  1
  O  O39  1  0.50918200  0.17550700  0.37383000  1
  O  O40  1  0.52572800  0.04095100  0.81957000  1
  O  O41  1  0.00415700  0.09266700  0.59142200  1
  O  O42  1  0.40545100  0.03062900  0.55839800  1
  O  O43  1  0.62968100  0.02584900  0.54775900  1
  O  O44  1  0.33795400  0.07226600  0.17624800  1
  O  O45  1  0.79373000  0.11228100  0.00561700  1
  O  O46  1  0.74359000  0.03124100  0.23293400  1
  O  O47  1  0.58403200  0.04712500  0.07150100  1
loop_
_geom_bond_atom_site_label_1
_geom_bond_atom_site_label_2
_geom_bond_distance
_geom_bond_site_symmetry_2
In0 O15 2.161554 1_555
In0 O46 2.173843 1_565
In0 O14 2.196726 1_555
In0 O12 2.213798 1_555
In0 O7 2.215625 1_655
In0 O5 2.216186 1_555
In1 O8 2.161872 1_555
In1 O20 2.177338 1_555
In1 O10 2.185776 1_555
In1 O11 2.195586 1_555
In1 O16 2.201526 1_455
In1 O19 2.205731 1_555
In2 O39 2.161872 1_555
In2 O27 2.177338 1_555
In2 O37 2.185776 1_555
In2 O36 2.195586 1_555
In2 O31 2.201526 1_555
In2 O28 2.205731 1_555
In3 O32 2.161554 1_555
In3 O1 2.173843 1_545
In3 O33 2.196726 1_555
In3 O35 2.213798 1_555
In3 O40 2.215625 1_555
In3 O42 2.216186 1_555
H0 O40 1.026813 1_565
H0 O9 1.545915 1_555
H1 O3 0.981410 1_555
H2 O3 0.979767 1_555
H3 O11 0.992513 1_555
H4 N0 1.026018 1_555
H5 O7 0.994710 1_555
H6 N0 1.039827 1_555
H7 N1 1.035657 1_555
H8 N1 1.032240 1_555
H9 O9 0.987741 1_555
H10 O12 1.008763 1_555
H10 O6 1.649621 1_555
H11 O9 0.977964 1_555
H12 O11 1.005108 1_555
H12 O17 1.680753 1_555
H13 N0 1.030763 1_555
H14 O13 0.976847 1_555
H15 O13 0.987022 1_555
H16 N0 1.042697 1_555
H17 N1 1.040610 1_555
H18 N1 1.028449 1_555
H19 O16 0.995606 1_555
H20 O12 0.992275 1_555
H21 O24 0.981171 1_555
H22 O16 1.019805 1_555
H22 O34 1.583277 1_555
H23 O24 0.981521 1_555
H24 O23 0.981521 1_555
H25 O31 1.019805 1_555
H25 O13 1.583277 1_555
H26 O23 0.981171 1_555
H27 O35 0.992275 1_555
H28 O31 0.995606 1_555
H29 N2 1.028449 1_555
H30 N2 1.040610 1_555
H31 N3 1.042697 1_555
H32 O34 0.987022 1_555
H33 O34 0.976847 1_455
H34 N3 1.030763 1_555
H35 O36 1.005108 1_555
H35 O30 1.680753 1_555
H36 O38 0.977964 1_655
H37 O35 1.008763 1_555
H37 O41 1.649621 1_555
H38 O38 0.987741 1_555
H39 N2 1.032240 1_555
H40 N2 1.035657 1_555
H41 N3 1.039827 1_555
H42 O40 0.994710 1_555
H43 N3 1.026018 1_555
H44 O36 0.992513 1_555
H45 O44 0.979767 1_555
H46 O44 0.981410 1_555
H47 O7 1.026813 1_545
H47 O38 1.545915 1_555
O0 S0 1.483512 1_555
O1 S0 1.513453 1_555
O2 S0 1.460086 1_555
O4 S1 1.465460 1_555
O5 S1 1.528758 1_655
O6 S6 1.469488 1_565
O8 S1 1.520185 1_555
O10 S0 1.516476 1_555
O14 S3 1.518628 1_555
O15 S2 1.522315 1_555
O17 S5 1.470062 1_555
O18 S4 1.483490 1_555
O19 S2 1.532526 1_455
O20 S4 1.508149 1_555
O21 S2 1.462400 1_555
O22 S4 1.465646 1_554
O25 S3 1.465646 1_556
O26 S5 1.462400 1_555
O27 S3 1.508149 1_555
O28 S5 1.532526 1_555
O29 S3 1.483490 1_555
O30 S2 1.470062 1_555
O32 S5 1.522315 1_555
O33 S4 1.518628 1_555
O37 S7 1.516476 1_555
O39 S6 1.520185 1_555
O41 S1 1.469488 1_545
O42 S6 1.528758 1_555
O43 S6 1.465460 1_555
O45 S7 1.460086 1_555
O46 S7 1.513453 1_555
O47 S7 1.483512 1_555
