# generated using pymatgen
data_Li4Fe5Sn3O16
_symmetry_space_group_name_H-M   'P 1'
_cell_length_a   6.10138100
_cell_length_b   6.10536873
_cell_length_c   9.69811982
_cell_angle_alpha   90.19545933
_cell_angle_beta   90.18947346
_cell_angle_gamma   119.83825532
_symmetry_Int_Tables_number   1
_chemical_formula_structural   Li4Fe5Sn3O16
_chemical_formula_sum   'Li4 Fe5 Sn3 O16'
_cell_volume   313.36753030
_cell_formula_units_Z   1
loop_
 _symmetry_equiv_pos_site_id
 _symmetry_equiv_pos_as_xyz
  1  'x, y, z'
loop_
 _atom_site_type_symbol
 _atom_site_label
 _atom_site_symmetry_multiplicity
 _atom_site_fract_x
 _atom_site_fract_y
 _atom_site_fract_z
 _atom_site_occupancy
  Li  Li0  1  0.31646200  0.66683200  0.88820100  1
  Li  Li1  1  0.02206600  0.98351900  0.99141700  1
  Li  Li2  1  0.01129400  0.98785900  0.49968300  1
  Li  Li3  1  0.66386000  0.33406000  0.39831900  1
  Fe  Fe0  1  0.34183200  0.67950500  0.49460000  1
  Fe  Fe1  1  0.17064200  0.83238900  0.21947400  1
  Fe  Fe2  1  0.65655300  0.33413900  0.98789700  1
  Fe  Fe3  1  0.34027900  0.17029300  0.71351800  1
  Fe  Fe4  1  0.82402500  0.66027300  0.71691600  1
  Sn  Sn0  1  0.16556400  0.33930700  0.21416700  1
  Sn  Sn1  1  0.65936100  0.82942000  0.21092700  1
  Sn  Sn2  1  0.83546800  0.17546200  0.71315800  1
  O  O0  1  0.17673800  0.32514200  0.59931400  1
  O  O1  1  0.48305100  0.51960600  0.34329200  1
  O  O2  1  0.32399200  0.66923900  0.09678300  1
  O  O3  1  0.00045200  0.99834000  0.31464100  1
  O  O4  1  0.01679700  0.00401500  0.80759300  1
  O  O5  1  0.68003300  0.83771700  0.59634200  1
  O  O6  1  0.03871300  0.52592700  0.34658300  1
  O  O7  1  0.48158500  0.96564400  0.34227400  1
  O  O8  1  0.83538000  0.15914000  0.09056700  1
  O  O9  1  0.18008700  0.84779800  0.60582300  1
  O  O10  1  0.50803900  0.03948300  0.83620200  1
  O  O11  1  0.95298600  0.48610000  0.84449700  1
  O  O12  1  0.65282600  0.33366100  0.60543000  1
  O  O13  1  0.32841800  0.16240900  0.10013800  1
  O  O14  1  0.49869100  0.46343700  0.83410200  1
  O  O15  1  0.83450800  0.66898400  0.09598100  1
loop_
_geom_bond_atom_site_label_1
_geom_bond_atom_site_label_2
_geom_bond_distance
_geom_bond_site_symmetry_2
Li0 O11 1.967462 1_455
Li0 O2 2.023060 1_556
Li0 O10 2.040180 1_565
Li0 O14 2.104019 1_555
Li1 O4 1.788862 1_565
Li1 O13 1.935464 1_566
Li1 O15 1.964638 1_456
Li1 O8 2.141789 1_466
Li2 O3 1.798089 1_555
Li2 O9 1.930492 1_555
Li2 O5 1.994693 1_455
Li2 O0 2.025957 1_565
Li3 O1 2.007221 1_555
Li3 O12 2.009907 1_555
Li3 O7 2.022387 1_545
Li3 O6 2.049493 1_655
Fe0 O5 2.039904 1_555
Fe0 O9 2.049794 1_555
Fe0 O7 2.122492 1_555
Fe0 O0 2.140062 1_555
Fe0 O6 2.146594 1_555
Fe0 O1 2.164339 1_555
Fe1 O3 2.000886 1_555
Fe1 O7 2.030275 1_555
Fe1 O6 2.047431 1_555
Fe1 O2 2.051861 1_555
Fe1 O13 2.102153 1_565
Fe1 O15 2.139004 1_455
Fe2 O13 2.055686 1_556
Fe2 O15 2.055733 1_556
Fe2 O11 2.102781 1_555
Fe2 O8 2.117449 1_556
Fe2 O14 2.128538 1_555
Fe2 O10 2.138388 1_555
Fe3 O14 1.939546 1_555
Fe3 O4 1.944942 1_555
Fe3 O12 1.964133 1_555
Fe3 O10 1.978143 1_555
Fe3 O9 1.996776 1_545
Fe3 O0 2.013636 1_555
Fe4 O4 2.021235 1_665
Fe4 O11 2.028788 1_555
Fe4 O12 2.035082 1_555
Fe4 O5 2.064427 1_555
Fe4 O14 2.080007 1_555
Fe4 O9 2.177155 1_655
O0 Sn2 2.125628 1_455
O1 Sn1 2.093758 1_555
O1 Sn0 2.094026 1_555
O2 Sn1 2.086892 1_555
O2 Sn0 2.091240 1_555
O3 Sn0 2.057033 1_565
O3 Sn1 2.061474 1_455
O4 Sn2 2.076228 1_455
O5 Sn2 2.113261 1_565
O6 Sn0 2.102492 1_555
O7 Sn1 2.095348 1_555
O8 Sn1 2.107433 1_545
O8 Sn0 2.115471 1_655
O10 Sn2 2.115741 1_555
O11 Sn2 2.087518 1_555
O12 Sn2 2.082421 1_555
O13 Sn0 2.108016 1_555
O15 Sn1 2.094326 1_555
