# generated using pymatgen
data_LiCrP2O7
_symmetry_space_group_name_H-M   'P 1'
_cell_length_a   7.95038200
_cell_length_b   7.18109100
_cell_length_c   9.52197391
_cell_angle_alpha   69.15386242
_cell_angle_beta   90.00000000
_cell_angle_gamma   90.00000000
_symmetry_Int_Tables_number   1
_chemical_formula_structural   LiCrP2O7
_chemical_formula_sum   'Li4 Cr4 P8 O28'
_cell_volume   508.04600414
_cell_formula_units_Z   4
loop_
 _symmetry_equiv_pos_site_id
 _symmetry_equiv_pos_as_xyz
  1  'x, y, z'
loop_
 _atom_site_type_symbol
 _atom_site_label
 _atom_site_symmetry_multiplicity
 _atom_site_fract_x
 _atom_site_fract_y
 _atom_site_fract_z
 _atom_site_occupancy
  Li  Li0  1  0.02021000  0.30225100  0.22078300  1
  Li  Li1  1  0.52021000  0.69774900  0.27921700  1
  Li  Li2  1  0.47979000  0.30225100  0.72078300  1
  Li  Li3  1  0.97979000  0.69774900  0.77921700  1
  Cr  Cr0  1  0.99549400  0.74042500  0.24734700  1
  Cr  Cr1  1  0.50450600  0.74042500  0.74734700  1
  Cr  Cr2  1  0.49549400  0.25957500  0.25265300  1
  Cr  Cr3  1  0.00450600  0.25957500  0.75265300  1
  P  P0  1  0.28975600  0.66915000  0.04792300  1
  P  P1  1  0.21024400  0.66915000  0.54792300  1
  P  P2  1  0.78975600  0.33085000  0.45207700  1
  P  P3  1  0.74086300  0.91606700  0.45465300  1
  P  P4  1  0.71024400  0.33085000  0.95207700  1
  P  P5  1  0.24086300  0.08393300  0.04534700  1
  P  P6  1  0.75913700  0.91606700  0.95465300  1
  P  P7  1  0.25913700  0.08393300  0.54534700  1
  O  O0  1  0.60755200  0.37876300  0.39560800  1
  O  O1  1  0.79937100  0.31564400  0.61564800  1
  O  O2  1  0.34073500  0.87991700  0.06395100  1
  O  O3  1  0.92155200  0.45851600  0.34341700  1
  O  O4  1  0.65926500  0.12008300  0.93604900  1
  O  O5  1  0.86551400  0.79975900  0.39955500  1
  O  O6  1  0.71268000  0.80646300  0.62271700  1
  O  O7  1  0.07984700  0.02701500  0.14162800  1
  O  O8  1  0.20062900  0.68435600  0.38435200  1
  O  O9  1  0.07844800  0.54148400  0.65658300  1
  O  O10  1  0.78732000  0.80646300  0.12271700  1
  O  O11  1  0.89244800  0.37876300  0.89560800  1
  O  O12  1  0.63448600  0.79975900  0.89955500  1
  O  O13  1  0.57844800  0.45851600  0.84341700  1
  O  O14  1  0.13448600  0.20024100  0.60044500  1
  O  O15  1  0.36551400  0.20024100  0.10044500  1
  O  O16  1  0.42015300  0.02701500  0.64162800  1
  O  O17  1  0.42155200  0.54148400  0.15658300  1
  O  O18  1  0.29937100  0.68435600  0.88435200  1
  O  O19  1  0.15926500  0.87991700  0.56395100  1
  O  O20  1  0.28732000  0.19353700  0.37728300  1
  O  O21  1  0.21268000  0.19353700  0.87728300  1
  O  O22  1  0.57984700  0.97298500  0.35837200  1
  O  O23  1  0.70062900  0.31564400  0.11564800  1
  O  O24  1  0.92015300  0.97298500  0.85837200  1
  O  O25  1  0.39244800  0.62123700  0.60439200  1
  O  O26  1  0.10755200  0.62123700  0.10439200  1
  O  O27  1  0.84073500  0.12008300  0.43604900  1
loop_
_geom_bond_atom_site_label_1
_geom_bond_atom_site_label_2
_geom_bond_distance
_geom_bond_site_symmetry_2
Li0 O3 2.042213 1_455
Li0 O26 2.269535 1_555
Li0 O7 2.399932 1_555
Li0 O27 2.457725 1_455
Li0 O20 2.551848 1_555
Li1 O17 2.042213 1_555
Li1 O0 2.269535 1_555
Li1 O22 2.399932 1_555
Li1 O2 2.457725 1_555
Li1 O10 2.551848 1_555
Li2 O13 2.042213 1_555
Li2 O25 2.269535 1_555
Li2 O16 2.399932 1_555
Li2 O4 2.457725 1_555
Li2 O21 2.551848 1_555
Li3 O9 2.042213 1_655
Li3 O11 2.269535 1_555
Li3 O24 2.399932 1_555
Li3 O19 2.457725 1_655
Li3 O6 2.551848 1_555
Cr0 O5 1.946659 1_555
Cr0 O3 1.990636 1_555
Cr0 O10 1.992962 1_555
Cr0 O8 2.037152 1_655
Cr0 O26 2.051432 1_655
Cr0 O7 2.055263 1_665
Cr1 O12 1.946659 1_555
Cr1 O13 1.990636 1_555
Cr1 O6 1.992962 1_555
Cr1 O18 2.037152 1_555
Cr1 O25 2.051432 1_555
Cr1 O16 2.055263 1_565
Cr2 O15 1.946659 1_555
Cr2 O17 1.990636 1_555
Cr2 O20 1.992962 1_555
Cr2 O23 2.037152 1_555
Cr2 O0 2.051432 1_555
Cr2 O22 2.055263 1_545
Cr3 O14 1.946659 1_555
Cr3 O9 1.990636 1_555
Cr3 O21 1.992962 1_555
Cr3 O1 2.037152 1_455
Cr3 O11 2.051432 1_455
Cr3 O24 2.055263 1_445
O0 P2 1.540859 1_555
O1 P2 1.524004 1_555
O2 P5 1.619732 1_565
O2 P0 1.625657 1_555
O3 P2 1.527692 1_555
O4 P6 1.619732 1_545
O4 P4 1.625657 1_555
O5 P3 1.505601 1_555
O6 P3 1.527811 1_555
O7 P5 1.542601 1_555
O8 P1 1.524004 1_555
O9 P1 1.527692 1_555
O10 P6 1.527811 1_554
O11 P4 1.540859 1_555
O12 P6 1.505601 1_555
O13 P4 1.527692 1_555
O14 P7 1.505601 1_555
O15 P5 1.505601 1_555
O16 P7 1.542601 1_555
O17 P0 1.527692 1_555
O18 P0 1.524004 1_556
O19 P7 1.619732 1_565
O19 P1 1.625657 1_555
O20 P7 1.527811 1_555
O21 P5 1.527811 1_556
O22 P3 1.542601 1_555
O23 P4 1.524004 1_554
O24 P6 1.542601 1_555
O25 P1 1.540859 1_555
O26 P0 1.540859 1_555
O27 P3 1.619732 1_545
O27 P2 1.625657 1_555
