# generated using pymatgen
data_Li5V6O5F19
_symmetry_space_group_name_H-M   'P 1'
_cell_length_a   5.16091000
_cell_length_b   5.35601158
_cell_length_c   16.69498458
_cell_angle_alpha   81.17088237
_cell_angle_beta   89.68286878
_cell_angle_gamma   89.70172106
_symmetry_Int_Tables_number   1
_chemical_formula_structural   Li5V6O5F19
_chemical_formula_sum   'Li5 V6 O5 F19'
_cell_volume   456.00125680
_cell_formula_units_Z   1
loop_
 _symmetry_equiv_pos_site_id
 _symmetry_equiv_pos_as_xyz
  1  'x, y, z'
loop_
 _atom_site_type_symbol
 _atom_site_label
 _atom_site_symmetry_multiplicity
 _atom_site_fract_x
 _atom_site_fract_y
 _atom_site_fract_z
 _atom_site_occupancy
  Li  Li0  1  0.79272900  0.28902800  0.84484100  1
  Li  Li1  1  0.04544100  0.79090100  0.21550900  1
  Li  Li2  1  0.45478400  0.62371700  0.54857800  1
  Li  Li3  1  0.45701800  0.29047600  0.21512100  1
  Li  Li4  1  0.04400900  0.12572900  0.54878800  1
  V  V0  1  0.52092500  0.80209300  0.33789200  1
  V  V1  1  0.97882600  0.63615500  0.66922200  1
  V  V2  1  0.50148600  0.49889100  0.00181100  1
  V  V3  1  0.97745700  0.30182900  0.33790000  1
  V  V4  1  0.52038500  0.13598200  0.67010700  1
  V  V5  1  0.97453800  0.01786900  0.00227300  1
  O  O0  1  0.80612300  0.39094200  0.64064800  1
  O  O1  1  0.71501100  0.22204000  0.98317300  1
  O  O2  1  0.80335400  0.05922300  0.30900200  1
  O  O3  1  0.69460400  0.89168800  0.64193600  1
  O  O4  1  0.69496400  0.55911400  0.30798100  1
  F  F0  1  0.31207000  0.46255000  0.69099900  1
  F  F1  1  0.91892200  0.91704000  0.11454700  1
  F  F2  1  0.59126800  0.76485000  0.44809500  1
  F  F3  1  0.90532800  0.58331800  0.78031500  1
  F  F4  1  0.37425700  0.93690200  0.23113700  1
  F  F5  1  0.12379000  0.76939000  0.56212300  1
  F  F6  1  0.42440100  0.55063800  0.89780700  1
  F  F7  1  0.80476900  0.70905400  0.98008800  1
  F  F8  1  0.20956000  0.27858400  0.03177800  1
  F  F9  1  0.30636000  0.12174900  0.36188900  1
  F  F10  1  0.18921100  0.95757900  0.69256800  1
  F  F11  1  0.57979200  0.44568400  0.11067900  1
  F  F12  1  0.90846400  0.26857400  0.44836600  1
  F  F13  1  0.59055900  0.11250400  0.78059700  1
  F  F14  1  0.12689100  0.43289200  0.23084300  1
  F  F15  1  0.37503600  0.26708200  0.56338400  1
  F  F16  1  0.07580000  0.07916400  0.89372400  1
  F  F17  1  0.29284000  0.78926700  0.02041100  1
  F  F18  1  0.19160600  0.62295900  0.36037000  1
loop_
_geom_bond_atom_site_label_1
_geom_bond_atom_site_label_2
_geom_bond_distance
_geom_bond_site_symmetry_2
Li0 O1 2.315178 1_555
Li2 O0 2.573695 1_555
Li4 O0 2.550825 1_455
O0 V1 1.719344 1_555
O0 V4 2.021900 1_555
O1 V5 1.724509 1_556
O1 V2 1.905456 1_556
O2 V3 1.714046 1_555
O2 V0 2.015705 1_545
O3 V4 1.706934 1_565
O3 V1 2.006844 1_555
O4 V0 1.712344 1_555
O4 V3 2.012417 1_555
F0 V1 1.959877 1_455
F0 V4 2.121412 1_555
F1 Li1 1.838997 1_655
F1 V5 1.890072 1_565
F2 V0 1.857570 1_555
F2 Li2 1.866805 1_555
F3 Li0 1.861187 1_555
F3 V1 1.869778 1_555
F4 Li1 1.908060 1_555
F4 Li3 1.921437 1_565
F4 V0 1.971041 1_555
F5 Li2 1.901039 1_555
F5 Li4 1.929787 1_565
F5 V1 1.965967 1_455
F6 V2 1.763164 1_556
F7 V2 1.932674 1_556
F7 V5 1.961466 1_566
F8 V2 1.934276 1_555
F8 V5 1.974625 1_455
F9 V3 1.960580 1_455
F9 V0 2.122230 1_545
F10 V4 1.968449 1_565
F10 V1 2.127132 1_455
F11 V2 1.842810 1_555
F11 Li3 1.918637 1_555
F12 V3 1.858021 1_555
F12 Li4 1.870602 1_655
F13 Li0 1.861953 1_555
F13 V4 1.866908 1_555
F14 Li3 1.896442 1_555
F14 Li1 1.939369 1_555
F14 V3 1.971615 1_455
F15 Li4 1.904181 1_555
F15 Li2 1.934231 1_555
F15 V4 1.963567 1_555
F16 V5 1.863791 1_456
F16 Li0 1.943764 1_455
F17 V2 1.949839 1_555
F17 V5 2.039643 1_465
F18 V0 1.961974 1_555
F18 V3 2.131425 1_455
