# generated using pymatgen
data_Li4Fe(PO4)2
_symmetry_space_group_name_H-M   'P 1'
_cell_length_a   6.61016555
_cell_length_b   7.64585885
_cell_length_c   7.79749881
_cell_angle_alpha   60.06051325
_cell_angle_beta   110.45294236
_cell_angle_gamma   107.24613744
_symmetry_Int_Tables_number   1
_chemical_formula_structural   Li4Fe(PO4)2
_chemical_formula_sum   'Li8 Fe2 P4 O16'
_cell_volume   316.33299832
_cell_formula_units_Z   2
loop_
 _symmetry_equiv_pos_site_id
 _symmetry_equiv_pos_as_xyz
  1  'x, y, z'
loop_
 _atom_site_type_symbol
 _atom_site_label
 _atom_site_symmetry_multiplicity
 _atom_site_fract_x
 _atom_site_fract_y
 _atom_site_fract_z
 _atom_site_occupancy
  Li  Li0  1  0.03248700  0.19223700  0.32668500  1
  Li  Li1  1  0.53249800  0.69243200  0.82660800  1
  Li  Li2  1  0.46755100  0.30774500  0.17336400  1
  Li  Li3  1  0.96753100  0.80756100  0.67338300  1
  Li  Li4  1  0.62642700  0.96187000  0.23808700  1
  Li  Li5  1  0.12671400  0.46177800  0.73805500  1
  Li  Li6  1  0.87365000  0.53811700  0.26196100  1
  Li  Li7  1  0.37335600  0.03820600  0.76193100  1
  Fe  Fe0  1  0.50000400  0.49998400  0.50006000  1
  Fe  Fe1  1  0.99986100  0.99997100  0.99995700  1
  P  P0  1  0.77064300  0.13671300  0.59295800  1
  P  P1  1  0.27057500  0.63668500  0.09295900  1
  P  P2  1  0.72939700  0.36332100  0.90702400  1
  P  P3  1  0.22937700  0.86331500  0.40703500  1
  O  O0  1  0.00267800  0.22130100  0.69067500  1
  O  O1  1  0.50265700  0.72124500  0.19071900  1
  O  O2  1  0.49728200  0.27890000  0.80925400  1
  O  O3  1  0.99733100  0.77857700  0.30933300  1
  O  O4  1  0.79247500  0.03701300  0.47084600  1
  O  O5  1  0.29249200  0.53715900  0.97076300  1
  O  O6  1  0.70754000  0.46297200  0.02911300  1
  O  O7  1  0.20751900  0.96290400  0.52925800  1
  O  O8  1  0.86481100  0.18363100  0.05688800  1
  O  O9  1  0.36504800  0.68370400  0.55698100  1
  O  O10  1  0.63515200  0.31638600  0.44296700  1
  O  O11  1  0.13492300  0.81626500  0.94316000  1
  O  O12  1  0.17013800  0.47250200  0.27666600  1
  O  O13  1  0.67009200  0.97267400  0.77669500  1
  O  O14  1  0.32983800  0.02752800  0.22320600  1
  O  O15  1  0.82995500  0.52730300  0.72341200  1
loop_
_geom_bond_atom_site_label_1
_geom_bond_atom_site_label_2
_geom_bond_distance
_geom_bond_site_symmetry_2
Li0 O12 1.956924 1_555
Li0 O4 1.996850 1_455
Li0 O7 2.017258 1_545
Li0 O8 2.030735 1_455
Li1 O13 1.956847 1_555
Li1 O5 1.996822 1_555
Li1 O6 2.017846 1_556
Li1 O9 2.029695 1_555
Li2 O14 1.956951 1_555
Li2 O6 1.997110 1_555
Li2 O5 2.017791 1_554
Li2 O10 2.029449 1_555
Li3 O15 1.956760 1_555
Li3 O7 1.996639 1_655
Li3 O4 2.017895 1_565
Li3 O11 2.030565 1_655
Li4 O1 1.940403 1_555
Li4 O4 2.025713 1_565
Li4 O14 2.115539 1_565
Li4 O8 2.221409 1_565
Li5 O0 1.939544 1_555
Li5 O5 2.026157 1_555
Li5 O15 2.116864 1_455
Li5 O9 2.220984 1_555
Li6 O3 1.939217 1_555
Li6 O6 2.026370 1_555
Li6 O12 2.115258 1_655
Li6 O10 2.221130 1_555
Li7 O2 1.940783 1_555
Li7 O7 2.025637 1_545
Li7 O13 2.116376 1_545
Li7 O11 2.222080 1_545
Fe0 O9 2.146637 1_555
Fe0 O10 2.147591 1_555
Fe0 O2 2.148179 1_555
Fe0 O1 2.149246 1_555
Fe0 O15 2.296080 1_555
Fe0 O12 2.296100 1_555
Fe1 O11 2.146364 1_655
Fe1 O8 2.146709 1_566
Fe1 O0 2.149209 1_665
Fe1 O3 2.149539 1_556
Fe1 O13 2.294926 1_555
Fe1 O14 2.296156 1_666
O0 P0 1.561504 1_455
O1 P1 1.561758 1_555
O2 P2 1.561546 1_555
O3 P3 1.561934 1_655
O4 P0 1.547354 1_555
O5 P1 1.547095 1_556
O6 P2 1.546959 1_554
O7 P3 1.547504 1_555
O8 P2 1.565238 1_554
O9 P3 1.565871 1_555
O10 P0 1.565549 1_555
O11 P1 1.565515 1_556
O12 P1 1.563359 1_555
O13 P0 1.563655 1_565
O14 P3 1.564122 1_545
O15 P2 1.562936 1_555
