# generated using pymatgen
data_Ti3NiSn2(PO4)6
_symmetry_space_group_name_H-M   'P 1'
_cell_length_a   9.02905786
_cell_length_b   9.02905786
_cell_length_c   9.02905799
_cell_angle_alpha   57.00993510
_cell_angle_beta   57.00993510
_cell_angle_gamma   57.00993516
_symmetry_Int_Tables_number   1
_chemical_formula_structural   Ti3NiSn2(PO4)6
_chemical_formula_sum   'Ti3 Ni1 Sn2 P6 O24'
_cell_volume   484.60700416
_cell_formula_units_Z   1
loop_
 _symmetry_equiv_pos_site_id
 _symmetry_equiv_pos_as_xyz
  1  'x, y, z'
loop_
 _atom_site_type_symbol
 _atom_site_label
 _atom_site_symmetry_multiplicity
 _atom_site_fract_x
 _atom_site_fract_y
 _atom_site_fract_z
 _atom_site_occupancy
  Ti  Ti0  1  0.85559800  0.85559800  0.85559800  1
  Ti  Ti1  1  0.64796400  0.64796400  0.64796400  1
  Ti  Ti2  1  0.34802500  0.34802500  0.34802500  1
  Ni  Ni0  1  0.15027900  0.15027900  0.15027900  1
  Sn  Sn0  1  0.01410000  0.01410000  0.01410000  1
  Sn  Sn1  1  0.49657600  0.49657600  0.49657600  1
  P  P0  1  0.53541800  0.95800500  0.24983600  1
  P  P1  1  0.24983600  0.53541800  0.95800500  1
  P  P2  1  0.03806100  0.74709700  0.46599400  1
  P  P3  1  0.74709700  0.46599400  0.03806100  1
  P  P4  1  0.46599400  0.03806100  0.74709700  1
  P  P5  1  0.95800500  0.24983600  0.53541800  1
  O  O0  1  0.50374900  0.87516100  0.70347900  1
  O  O1  1  0.87516100  0.70347900  0.50374900  1
  O  O2  1  0.71761100  0.93673100  0.07376000  1
  O  O3  1  0.70347900  0.50374900  0.87516100  1
  O  O4  1  0.37064700  0.97390600  0.23264700  1
  O  O5  1  0.57753500  0.77813400  0.42186800  1
  O  O6  1  0.07376000  0.71761100  0.93673100  1
  O  O7  1  0.42186800  0.57753500  0.77813400  1
  O  O8  1  0.00600800  0.78346900  0.63069600  1
  O  O9  1  0.77813400  0.42186800  0.57753500  1
  O  O10  1  0.05774500  0.91900200  0.28149900  1
  O  O11  1  0.78346900  0.63069600  0.00600800  1
  O  O12  1  0.23264700  0.37064700  0.97390600  1
  O  O13  1  0.93673100  0.07376000  0.71761100  1
  O  O14  1  0.22231800  0.57106900  0.44197200  1
  O  O15  1  0.97390600  0.23264700  0.37064700  1
  O  O16  1  0.57106900  0.44197200  0.22231800  1
  O  O17  1  0.91900200  0.28149900  0.05774500  1
  O  O18  1  0.44197200  0.22231800  0.57106900  1
  O  O19  1  0.63069600  0.00600800  0.78346900  1
  O  O20  1  0.27973000  0.50294400  0.13136400  1
  O  O21  1  0.28149900  0.05774500  0.91900200  1
  O  O22  1  0.13136400  0.27973000  0.50294400  1
  O  O23  1  0.50294400  0.13136400  0.27973000  1
loop_
_geom_bond_atom_site_label_1
_geom_bond_atom_site_label_2
_geom_bond_distance
_geom_bond_site_symmetry_2
Ni0 O12 1.979704 1_554
Ni0 O4 1.979704 1_545
Ni0 O15 1.979704 1_455
Ni0 O10 2.142458 1_545
Ni0 O17 2.142458 1_455
Ni0 O21 2.142459 1_554
O0 P4 1.540536 1_565
O0 Ti1 1.911819 1_555
O1 P2 1.540536 1_655
O1 Ti1 1.911819 1_555
O2 P0 1.552720 1_555
O2 Ti0 1.968231 1_554
O3 P3 1.540536 1_556
O3 Ti1 1.911820 1_555
O4 P0 1.500869 1_555
O5 P0 1.555142 1_555
O5 Ti1 1.984979 1_555
O5 Sn1 2.659218 1_555
O6 P1 1.552720 1_555
O6 Ti0 1.968230 1_455
O7 P1 1.555142 1_555
O7 Ti1 1.984979 1_555
O7 Sn1 2.659218 1_555
O8 P2 1.537120 1_555
O8 Ti0 1.966182 1_455
O9 P5 1.555142 1_555
O9 Ti1 1.984979 1_555
O9 Sn1 2.659218 1_555
O10 P2 1.542078 1_555
O10 Sn0 2.265341 1_565
O11 P3 1.537120 1_555
O11 Ti0 1.966182 1_554
O12 P1 1.500869 1_555
O13 P5 1.552720 1_555
O13 Ti0 1.968230 1_545
O14 P2 1.563296 1_555
O14 Ti2 2.094312 1_555
O14 Sn1 2.445834 1_555
O15 P5 1.500869 1_555
O16 P3 1.563296 1_555
O16 Ti2 2.094312 1_555
O16 Sn1 2.445834 1_555
O17 P3 1.542078 1_555
O17 Sn0 2.265341 1_655
O18 P4 1.563296 1_555
O18 Ti2 2.094312 1_555
O18 Sn1 2.445834 1_555
O19 P4 1.537120 1_555
O19 Ti0 1.966182 1_545
O20 P1 1.575754 1_554
O20 Ti2 1.886322 1_555
O21 P4 1.542078 1_555
O21 Sn0 2.265341 1_556
O22 P5 1.575754 1_455
O22 Ti2 1.886322 1_555
O23 P0 1.575754 1_545
O23 Ti2 1.886322 1_555
