# generated using pymatgen
data_Li4Mn3Ni3(PO4)6
_symmetry_space_group_name_H-M   'P 1'
_cell_length_a   8.33421600
_cell_length_b   8.42504029
_cell_length_c   8.43495083
_cell_angle_alpha   63.15748519
_cell_angle_beta   64.10239826
_cell_angle_gamma   64.73170338
_symmetry_Int_Tables_number   1
_chemical_formula_structural   Li4Mn3Ni3(PO4)6
_chemical_formula_sum   'Li4 Mn3 Ni3 P6 O24'
_cell_volume   455.51184053
_cell_formula_units_Z   1
loop_
 _symmetry_equiv_pos_site_id
 _symmetry_equiv_pos_as_xyz
  1  'x, y, z'
loop_
 _atom_site_type_symbol
 _atom_site_label
 _atom_site_symmetry_multiplicity
 _atom_site_fract_x
 _atom_site_fract_y
 _atom_site_fract_z
 _atom_site_occupancy
  Li  Li0  1  0.75246900  0.13878200  0.35531800  1
  Li  Li1  1  0.23793400  0.84721200  0.65938600  1
  Li  Li2  1  0.65199400  0.24380200  0.84878400  1
  Li  Li3  1  0.85516900  0.64863400  0.24067500  1
  Mn  Mn0  1  0.35655900  0.35627700  0.35481200  1
  Mn  Mn1  1  0.14603200  0.14262600  0.14725400  1
  Mn  Mn2  1  0.65263400  0.65967600  0.65123600  1
  Ni  Ni0  1  0.00336300  0.00262700  0.99591900  1
  Ni  Ni1  1  0.84920000  0.85152700  0.85290200  1
  Ni  Ni2  1  0.49390400  0.50756800  0.50047900  1
  P  P0  1  0.06470200  0.75051400  0.44456000  1
  P  P1  1  0.43348100  0.06066400  0.75230200  1
  P  P2  1  0.74688600  0.44215500  0.05598900  1
  P  P3  1  0.24755500  0.54309400  0.95854200  1
  P  P4  1  0.56303800  0.94964800  0.24924000  1
  P  P5  1  0.94779700  0.24745700  0.54433300  1
  O  O0  1  0.45322500  0.90658000  0.69028400  1
  O  O1  1  0.67553400  0.47047000  0.90462700  1
  O  O2  1  0.91204600  0.68211000  0.46287500  1
  O  O3  1  0.06614900  0.91846600  0.25148700  1
  O  O4  1  0.02223400  0.81534200  0.60515500  1
  O  O5  1  0.25944400  0.60933600  0.42253300  1
  O  O6  1  0.24172600  0.08057500  0.90608000  1
  O  O7  1  0.42648100  0.25458500  0.58782100  1
  O  O8  1  0.16946800  0.38736000  0.00595400  1
  O  O9  1  0.59727300  0.41952800  0.25881300  1
  O  O10  1  0.09769200  0.73827900  0.94226200  1
  O  O11  1  0.39798900  0.00773500  0.18372800  1
  O  O12  1  0.59873500  0.03095000  0.80852600  1
  O  O13  1  0.89020400  0.24389900  0.08103100  1
  O  O14  1  0.39318400  0.56384600  0.75952900  1
  O  O15  1  0.81323500  0.59970700  0.02469100  1
  O  O16  1  0.57639400  0.74902700  0.39721900  1
  O  O17  1  0.75642800  0.92783400  0.09044000  1
  O  O18  1  0.75304300  0.39611900  0.57136400  1
  O  O19  1  0.96536200  0.18100800  0.39395500  1
  O  O20  1  0.94032700  0.09296100  0.74131100  1
  O  O21  1  0.11393200  0.31519100  0.48857500  1
  O  O22  1  0.32434900  0.50134900  0.11255900  1
  O  O23  1  0.55283100  0.09248300  0.32045100  1
loop_
_geom_bond_atom_site_label_1
_geom_bond_atom_site_label_2
_geom_bond_distance
_geom_bond_site_symmetry_2
Li0 O23 2.022891 1_555
Li0 O13 2.037732 1_555
Li0 O9 2.121166 1_555
Li0 O19 2.128285 1_555
Li0 O3 2.524326 1_645
Li1 O10 2.098494 1_555
Li1 O14 2.140944 1_555
Li1 O4 2.180450 1_555
Li1 O0 2.197712 1_555
Li1 O20 2.515350 1_465
Li2 O18 2.078722 1_555
Li2 O20 2.177553 1_555
Li2 O12 2.211189 1_555
Li2 O1 2.262782 1_555
Li2 O17 2.582704 1_546
Li3 O17 2.093482 1_555
Li3 O16 2.123223 1_555
Li3 O15 2.228995 1_555
Li3 O2 2.276978 1_555
Li3 O10 2.476658 1_654
Mn0 O22 1.919632 1_555
Mn0 O21 1.932266 1_555
Mn0 O7 1.997514 1_555
Mn0 O9 2.017006 1_555
Mn0 O5 2.179388 1_555
Mn0 O23 2.182447 1_555
Mn1 O8 1.905582 1_555
Mn1 O3 1.960990 1_545
Mn1 O11 2.001721 1_555
Mn1 O19 2.038867 1_455
Mn1 O6 2.057898 1_554
Mn1 O13 2.154728 1_455
Mn2 O1 2.040944 1_555
Mn2 O2 2.076383 1_555
Mn2 O0 2.094471 1_555
Mn2 O16 2.210323 1_555
Mn2 O14 2.293658 1_555
Mn2 O18 2.314489 1_555
Ni0 O6 2.073960 1_555
Ni0 O17 2.118549 1_446
Ni0 O13 2.150964 1_456
Ni0 O20 2.153044 1_455
Ni0 O3 2.170682 1_546
Ni0 O10 2.210832 1_545
Ni1 O15 2.019380 1_556
Ni1 O4 2.026602 1_655
Ni1 O12 2.064032 1_565
Ni1 O17 2.100306 1_556
Ni1 O20 2.136737 1_565
Ni1 O10 2.189672 1_655
Ni2 O5 2.041698 1_555
Ni2 O16 2.107232 1_555
Ni2 O7 2.155024 1_555
Ni2 O14 2.167397 1_555
Ni2 O9 2.175662 1_555
Ni2 O18 2.189360 1_555
O0 P1 1.530254 1_565
O1 P2 1.519085 1_556
O2 P0 1.532490 1_655
O3 P0 1.603412 1_555
O4 P0 1.530640 1_555
O5 P0 1.539984 1_555
O6 P1 1.556117 1_555
O7 P1 1.593689 1_555
O8 P3 1.527333 1_554
O9 P2 1.600926 1_555
O10 P3 1.573364 1_555
O11 P4 1.510651 1_545
O12 P1 1.534087 1_555
O13 P2 1.568371 1_555
O14 P3 1.567783 1_555
O15 P2 1.523172 1_555
O16 P4 1.575680 1_555
O17 P4 1.584071 1_555
O18 P5 1.566620 1_555
O19 P5 1.533911 1_555
O20 P5 1.576222 1_555
O21 P5 1.525554 1_455
O22 P3 1.530543 1_554
O23 P4 1.528700 1_545
