# generated using pymatgen
data_Li4FeTe2WO12
_symmetry_space_group_name_H-M   'P 1'
_cell_length_a   5.20719800
_cell_length_b   5.48864581
_cell_length_c   7.54618865
_cell_angle_alpha   94.23955721
_cell_angle_beta   90.11158966
_cell_angle_gamma   90.07589130
_symmetry_Int_Tables_number   1
_chemical_formula_structural   Li4FeTe2WO12
_chemical_formula_sum   'Li4 Fe1 Te2 W1 O12'
_cell_volume   215.08279045
_cell_formula_units_Z   1
loop_
 _symmetry_equiv_pos_site_id
 _symmetry_equiv_pos_as_xyz
  1  'x, y, z'
loop_
 _atom_site_type_symbol
 _atom_site_label
 _atom_site_symmetry_multiplicity
 _atom_site_fract_x
 _atom_site_fract_y
 _atom_site_fract_z
 _atom_site_occupancy
  Li  Li0  1  0.99510700  0.44531400  0.30395300  1
  Li  Li1  1  0.49833400  0.91957000  0.76334500  1
  Li  Li2  1  0.00875100  0.47986700  0.74612200  1
  Li  Li3  1  0.49605500  0.90366900  0.31057000  1
  Fe  Fe0  1  0.50033500  0.48752100  0.50091900  1
  Te  Te0  1  0.00280400  0.00104100  0.50379800  1
  Te  Te1  1  0.50039900  0.48916100  0.00050800  1
  W  W0  1  0.00083900  0.99934700  0.00415300  1
  O  O0  1  0.29353900  0.18812100  0.42841100  1
  O  O1  1  0.12765100  0.01704700  0.75302100  1
  O  O2  1  0.31095300  0.83856200  0.06068600  1
  O  O3  1  0.19142800  0.70923300  0.43431100  1
  O  O4  1  0.82617500  0.69736300  0.93009200  1
  O  O5  1  0.38305600  0.52817300  0.75279500  1
  O  O6  1  0.62021900  0.51747000  0.24762000  1
  O  O7  1  0.16055800  0.32163700  0.05984400  1
  O  O8  1  0.82870500  0.31089500  0.54829800  1
  O  O9  1  0.68810500  0.17570000  0.92740200  1
  O  O10  1  0.87008800  0.00310900  0.24406200  1
  O  O11  1  0.69689900  0.82480300  0.55128900  1
loop_
_geom_bond_atom_site_label_1
_geom_bond_atom_site_label_2
_geom_bond_distance
_geom_bond_site_symmetry_2
Li0 O3 1.972951 1_655
Li0 O6 2.042553 1_555
Li0 O7 2.102188 1_655
Li0 O8 2.213742 1_555
Li0 O0 2.342188 1_655
Li0 O10 2.520196 1_555
Li1 O11 1.945541 1_555
Li1 O1 2.006583 1_565
Li1 O9 2.054184 1_565
Li1 O5 2.225469 1_555
Li1 O4 2.491816 1_555
Li1 O2 2.517781 1_556
Li2 O8 1.937819 1_455
Li2 O5 1.966728 1_555
Li2 O4 2.004825 1_455
Li3 O0 2.035457 1_565
Li3 O10 2.093958 1_565
Li3 O2 2.122467 1_555
Li3 O3 2.162325 1_555
Li3 O11 2.165852 1_555
Li3 O6 2.234456 1_555
Fe0 O5 1.994389 1_555
Fe0 O0 2.004857 1_555
Fe0 O8 2.011121 1_555
Fe0 O6 2.030065 1_555
Fe0 O3 2.100799 1_555
Fe0 O11 2.123341 1_555
O0 Te0 1.937917 1_555
O1 Te0 1.984435 1_555
O1 W0 2.017119 1_546
O2 W0 1.903996 1_555
O2 Te1 2.176025 1_555
O3 Te0 1.920130 1_565
O4 W0 1.934908 1_656
O4 Te1 2.134031 1_556
O5 Te1 1.992115 1_556
O6 Te1 1.960384 1_555
O7 W0 1.970350 1_545
O7 Te1 2.058430 1_555
O8 Te0 1.935916 1_655
O9 W0 2.001912 1_646
O9 Te1 2.021375 1_556
O10 W0 1.934123 1_645
O10 Te0 2.077840 1_655
O11 Te0 1.910725 1_665
