# generated using pymatgen
data_Li8Mn13Cr3O32
_symmetry_space_group_name_H-M   'P 1'
_cell_length_a   8.28513528
_cell_length_b   8.28513528
_cell_length_c   10.35795694
_cell_angle_alpha   66.62814131
_cell_angle_beta   66.62814131
_cell_angle_gamma   89.30470752
_symmetry_Int_Tables_number   1
_chemical_formula_structural   Li8Mn13Cr3O32
_chemical_formula_sum   'Li8 Mn13 Cr3 O32'
_cell_volume   590.14998128
_cell_formula_units_Z   1
loop_
 _symmetry_equiv_pos_site_id
 _symmetry_equiv_pos_as_xyz
  1  'x, y, z'
loop_
 _atom_site_type_symbol
 _atom_site_label
 _atom_site_symmetry_multiplicity
 _atom_site_fract_x
 _atom_site_fract_y
 _atom_site_fract_z
 _atom_site_occupancy
  Li  Li0  1  0.18478800  0.18478800  0.88388600  1
  Li  Li1  1  0.68228800  0.68228800  0.88738000  1
  Li  Li2  1  0.56609100  0.06581500  0.61648100  1
  Li  Li3  1  0.06581500  0.56609100  0.61648100  1
  Li  Li4  1  0.43390900  0.93418500  0.38351900  1
  Li  Li5  1  0.93418500  0.43390900  0.38351900  1
  Li  Li6  1  0.81521200  0.81521200  0.11611400  1
  Li  Li7  1  0.31771200  0.31771200  0.11262000  1
  Mn  Mn0  1  0.00000000  0.50000000  0.00000000  1
  Mn  Mn1  1  0.50000000  0.00000000  0.00000000  1
  Mn  Mn2  1  0.12121900  0.87327500  0.75488200  1
  Mn  Mn3  1  0.87327500  0.12121900  0.75488200  1
  Mn  Mn4  1  0.37491800  0.62558600  0.74987100  1
  Mn  Mn5  1  0.62558600  0.37491800  0.74987100  1
  Mn  Mn6  1  0.00000000  0.00000000  0.50000000  1
  Mn  Mn7  1  0.24868700  0.24868700  0.50107400  1
  Mn  Mn8  1  0.75131300  0.75131300  0.49892600  1
  Mn  Mn9  1  0.62508200  0.37441400  0.25012900  1
  Mn  Mn10  1  0.12672500  0.87878100  0.24511800  1
  Mn  Mn11  1  0.87878100  0.12672500  0.24511800  1
  Mn  Mn12  1  0.37441400  0.62508200  0.25012900  1
  Cr  Cr0  1  0.74858300  0.25141700  0.00000000  1
  Cr  Cr1  1  0.25141700  0.74858300  0.00000000  1
  Cr  Cr2  1  0.50000000  0.50000000  0.50000000  1
  O  O0  1  0.02004000  0.74580300  0.97979600  1
  O  O1  1  0.74580300  0.02004000  0.97979600  1
  O  O2  1  0.24780100  0.51898000  0.97593100  1
  O  O3  1  0.51898000  0.24780100  0.97593100  1
  O  O4  1  0.85451200  0.35520400  0.76357200  1
  O  O5  1  0.35520400  0.85451200  0.76357200  1
  O  O6  1  0.14361200  0.64493100  0.74480200  1
  O  O7  1  0.64493100  0.14361200  0.74480200  1
  O  O8  1  0.39565800  0.39565800  0.73573500  1
  O  O9  1  0.88845400  0.88845400  0.75388000  1
  O  O10  1  0.10509000  0.10509000  0.75793800  1
  O  O11  1  0.60583200  0.60583200  0.75618400  1
  O  O12  1  0.50343000  0.73176400  0.52297900  1
  O  O13  1  0.73176400  0.50343000  0.52297900  1
  O  O14  1  0.99952800  0.22509400  0.52581100  1
  O  O15  1  0.22509400  0.99952800  0.52581100  1
  O  O16  1  0.49657000  0.26823600  0.47702100  1
  O  O17  1  0.26823600  0.49657000  0.47702100  1
  O  O18  1  0.00047200  0.77490600  0.47418900  1
  O  O19  1  0.77490600  0.00047200  0.47418900  1
  O  O20  1  0.60434200  0.60434200  0.26426500  1
  O  O21  1  0.39416800  0.39416800  0.24381600  1
  O  O22  1  0.89491000  0.89491000  0.24206200  1
  O  O23  1  0.11154600  0.11154600  0.24612000  1
  O  O24  1  0.35506900  0.85638800  0.25519800  1
  O  O25  1  0.64479600  0.14548800  0.23642800  1
  O  O26  1  0.14548800  0.64479600  0.23642800  1
  O  O27  1  0.85638800  0.35506900  0.25519800  1
  O  O28  1  0.48102000  0.75219900  0.02406900  1
  O  O29  1  0.97996000  0.25419700  0.02020400  1
  O  O30  1  0.75219900  0.48102000  0.02406900  1
  O  O31  1  0.25419700  0.97996000  0.02020400  1
loop_
_geom_bond_atom_site_label_1
_geom_bond_atom_site_label_2
_geom_bond_distance
_geom_bond_site_symmetry_2
Li0 O31 1.980835 1_546
Li0 O29 1.980835 1_456
Li0 O10 1.987805 1_555
Li0 O8 2.068665 1_555
Li1 O28 1.968442 1_556
Li1 O30 1.968442 1_556
Li1 O11 2.006201 1_555
Li1 O9 2.017495 1_555
Li2 O16 1.986364 1_555
Li2 O7 1.996872 1_555
Li2 O19 2.011399 1_555
Li2 O5 2.070007 1_545
Li3 O17 1.986364 1_555
Li3 O6 1.996872 1_555
Li3 O18 2.011399 1_555
Li3 O4 2.070007 1_455
Li4 O12 1.986364 1_555
Li4 O24 1.996872 1_555
Li4 O15 2.011399 1_555
Li4 O25 2.070007 1_565
Li5 O13 1.986364 1_555
Li5 O27 1.996872 1_555
Li5 O14 2.011399 1_555
Li5 O26 2.070007 1_655
Li6 O0 1.980835 1_654
Li6 O1 1.980835 1_564
Li6 O22 1.987805 1_555
Li6 O20 2.068665 1_555
Li7 O2 1.968442 1_554
Li7 O3 1.968442 1_554
Li7 O21 2.006201 1_555
Li7 O23 2.017495 1_555
Mn0 O29 1.965005 1_455
Mn0 O0 1.965005 1_554
Mn0 O2 1.967891 1_554
Mn0 O30 1.967891 1_455
Mn0 O27 2.205866 1_455
Mn0 O6 2.205866 1_554
Mn1 O1 1.965005 1_554
Mn1 O31 1.965005 1_545
Mn1 O3 1.967891 1_554
Mn1 O28 1.967891 1_545
Mn1 O24 2.205866 1_545
Mn1 O7 2.205866 1_554
Mn2 O9 1.934930 1_455
Mn2 O10 1.935532 1_565
Mn2 O6 1.938373 1_555
Mn2 O0 1.940459 1_555
Mn2 O15 1.974128 1_555
Mn2 O5 1.977487 1_555
Mn3 O9 1.934930 1_545
Mn3 O10 1.935532 1_655
Mn3 O7 1.938373 1_555
Mn3 O1 1.940459 1_555
Mn3 O14 1.974128 1_555
Mn3 O4 1.977487 1_555
Mn4 O6 1.940809 1_555
Mn4 O11 1.942777 1_555
Mn4 O2 1.948643 1_555
Mn4 O12 1.956489 1_555
Mn4 O5 1.957516 1_555
Mn4 O8 1.968077 1_555
Mn5 O7 1.940809 1_555
Mn5 O11 1.942777 1_555
Mn5 O3 1.948643 1_555
Mn5 O13 1.956489 1_555
Mn5 O4 1.957516 1_555
Mn5 O8 1.968077 1_555
Mn6 O19 1.985961 1_455
Mn6 O18 1.985961 1_545
Mn6 O14 1.985961 1_455
Mn6 O15 1.985961 1_545
Mn6 O9 2.188102 1_445
Mn6 O23 2.188102 1_555
Mn7 O16 1.968825 1_555
Mn7 O17 1.968825 1_555
Mn7 O15 1.978805 1_545
Mn7 O14 1.978805 1_455
Mn7 O10 2.218377 1_555
Mn7 O21 2.223713 1_555
Mn8 O13 1.968825 1_555
Mn8 O12 1.968825 1_555
Mn8 O19 1.978805 1_565
Mn8 O18 1.978805 1_655
Mn8 O22 2.218377 1_555
Mn8 O11 2.223713 1_555
Mn9 O27 1.940809 1_555
Mn9 O21 1.942777 1_555
Mn9 O30 1.948643 1_555
Mn9 O16 1.956489 1_555
Mn9 O25 1.957516 1_555
Mn9 O20 1.968077 1_555
Mn10 O23 1.934930 1_565
Mn10 O22 1.935532 1_455
Mn10 O24 1.938373 1_555
Mn10 O31 1.940459 1_555
Mn10 O18 1.974128 1_555
Mn10 O26 1.977487 1_555
Mn11 O23 1.934930 1_655
Mn11 O22 1.935532 1_545
Mn11 O27 1.938373 1_555
Mn11 O29 1.940459 1_555
Mn11 O19 1.974128 1_555
Mn11 O25 1.977487 1_555
Mn12 O24 1.940809 1_555
Mn12 O21 1.942777 1_555
Mn12 O28 1.948643 1_555
Mn12 O17 1.956489 1_555
Mn12 O26 1.957516 1_555
Mn12 O20 1.968077 1_555
Cr0 O1 2.010562 1_554
Cr0 O29 2.010562 1_555
Cr0 O30 2.016270 1_555
Cr0 O3 2.016270 1_554
Cr0 O4 2.036960 1_554
Cr0 O25 2.036960 1_555
Cr1 O0 2.010562 1_554
Cr1 O31 2.010562 1_555
Cr1 O2 2.016270 1_554
Cr1 O28 2.016270 1_555
Cr1 O5 2.036960 1_554
Cr1 O26 2.036960 1_555
Cr2 O12 2.028278 1_555
Cr2 O13 2.028278 1_555
Cr2 O16 2.028278 1_555
Cr2 O17 2.028278 1_555
Cr2 O20 2.031110 1_555
Cr2 O8 2.031110 1_555
