# generated using pymatgen
data_K2Li2CoO4
_symmetry_space_group_name_H-M   'P 1'
_cell_length_a   9.12620100
_cell_length_b   5.50888900
_cell_length_c   11.16134841
_cell_angle_alpha   68.25051216
_cell_angle_beta   90.00000000
_cell_angle_gamma   90.00000000
_symmetry_Int_Tables_number   1
_chemical_formula_structural   K2Li2CoO4
_chemical_formula_sum   'K8 Li8 Co4 O16'
_cell_volume   521.19343785
_cell_formula_units_Z   4
loop_
 _symmetry_equiv_pos_site_id
 _symmetry_equiv_pos_as_xyz
  1  'x, y, z'
loop_
 _atom_site_type_symbol
 _atom_site_label
 _atom_site_symmetry_multiplicity
 _atom_site_fract_x
 _atom_site_fract_y
 _atom_site_fract_z
 _atom_site_occupancy
  K  K0  1  0.49849200  0.70380800  0.64150600  1
  K  K1  1  0.25393200  0.21089700  0.14371400  1
  K  K2  1  0.99849200  0.29619200  0.85849400  1
  K  K3  1  0.24606800  0.21089700  0.64371400  1
  K  K4  1  0.75393200  0.78910300  0.35628600  1
  K  K5  1  0.00150800  0.70380800  0.14150600  1
  K  K6  1  0.74606800  0.78910300  0.85628600  1
  K  K7  1  0.50150800  0.29619200  0.35849400  1
  Li  Li0  1  0.24334200  0.60638200  0.81368000  1
  Li  Li1  1  0.98262600  0.65177300  0.56924700  1
  Li  Li2  1  0.48262600  0.34822700  0.93075300  1
  Li  Li3  1  0.74334200  0.39361800  0.68632000  1
  Li  Li4  1  0.25665800  0.60638200  0.31368000  1
  Li  Li5  1  0.51737400  0.65177300  0.06924700  1
  Li  Li6  1  0.01737400  0.34822700  0.43075300  1
  Li  Li7  1  0.75665800  0.39361800  0.18632000  1
  Co  Co0  1  0.21370900  0.87104700  0.45291100  1
  Co  Co1  1  0.71370900  0.12895300  0.04708900  1
  Co  Co2  1  0.28629100  0.87104700  0.95291100  1
  Co  Co3  1  0.78629100  0.12895300  0.54708900  1
  O  O0  1  0.79209000  0.77329000  0.60740500  1
  O  O1  1  0.18802100  0.72325000  0.62756000  1
  O  O2  1  0.57344500  0.27561900  0.11557400  1
  O  O3  1  0.88518500  0.22969300  0.09218700  1
  O  O4  1  0.68802100  0.27675000  0.87244000  1
  O  O5  1  0.29209000  0.22671000  0.89259500  1
  O  O6  1  0.38518500  0.77030700  0.40781300  1
  O  O7  1  0.07344500  0.72438100  0.38442600  1
  O  O8  1  0.92655500  0.27561900  0.61557400  1
  O  O9  1  0.61481500  0.22969300  0.59218700  1
  O  O10  1  0.70791000  0.77329000  0.10740500  1
  O  O11  1  0.31197900  0.72325000  0.12756000  1
  O  O12  1  0.11481500  0.77030700  0.90781300  1
  O  O13  1  0.42655500  0.72438100  0.88442600  1
  O  O14  1  0.81197900  0.27675000  0.37244000  1
  O  O15  1  0.20791000  0.22671000  0.39259500  1
loop_
_geom_bond_atom_site_label_1
_geom_bond_atom_site_label_2
_geom_bond_distance
_geom_bond_site_symmetry_2
K0 O6 2.701616 1_555
K0 O0 2.713444 1_555
K0 O13 2.832456 1_555
K0 O1 2.837537 1_555
K0 O9 2.939555 1_565
K0 O9 3.052413 1_555
K1 O5 2.793519 1_554
K1 O11 2.808702 1_545
K1 O11 2.811135 1_555
K1 O15 2.842493 1_555
K1 O2 2.940321 1_555
K2 O3 2.701616 1_556
K2 O5 2.713444 1_655
K2 O8 2.832456 1_555
K2 O4 2.837537 1_555
K2 O12 2.939555 1_645
K2 O12 3.052413 1_655
K3 O15 2.793519 1_555
K3 O1 2.808702 1_545
K3 O1 2.811135 1_555
K3 O5 2.842493 1_555
K3 O8 2.940321 1_455
K4 O0 2.793519 1_555
K4 O14 2.808702 1_565
K4 O14 2.811135 1_555
K4 O10 2.842493 1_555
K4 O7 2.940321 1_655
K5 O12 2.701616 1_554
K5 O10 2.713444 1_455
K5 O7 2.832456 1_555
K5 O11 2.837537 1_555
K5 O3 2.939555 1_465
K5 O3 3.052413 1_455
K6 O10 2.793519 1_556
K6 O4 2.808702 1_565
K6 O4 2.811135 1_555
K6 O0 2.842493 1_555
K6 O13 2.940321 1_555
K7 O9 2.701616 1_555
K7 O15 2.713444 1_555
K7 O2 2.832456 1_555
K7 O14 2.837537 1_555
K7 O6 2.939555 1_545
K7 O6 3.052413 1_555
Li0 O5 1.995772 1_555
Li0 O1 1.998402 1_555
Li0 O12 1.999586 1_555
Li0 O13 2.054791 1_555
Li1 O0 1.965826 1_555
Li1 O8 2.007268 1_555
Li1 O1 2.069358 1_655
Li1 O7 2.119155 1_655
Li2 O5 1.965826 1_555
Li2 O13 2.007268 1_555
Li2 O4 2.069358 1_555
Li2 O2 2.119155 1_556
Li3 O0 1.995772 1_555
Li3 O4 1.998402 1_555
Li3 O9 1.999586 1_555
Li3 O8 2.054791 1_555
Li4 O15 1.995772 1_555
Li4 O11 1.998402 1_555
Li4 O6 1.999586 1_555
Li4 O7 2.054791 1_555
Li5 O10 1.965826 1_555
Li5 O2 2.007268 1_555
Li5 O11 2.069358 1_555
Li5 O13 2.119155 1_554
Li6 O15 1.965826 1_555
Li6 O7 2.007268 1_555
Li6 O14 2.069358 1_455
Li6 O8 2.119155 1_455
Li7 O10 1.995772 1_555
Li7 O14 1.998402 1_555
Li7 O3 1.999586 1_555
Li7 O2 2.054791 1_555
Co0 O6 1.793701 1_555
Co0 O15 1.821366 1_565
Co0 O7 1.825758 1_555
Co0 O1 1.827977 1_555
Co1 O3 1.793701 1_555
Co1 O10 1.821366 1_545
Co1 O2 1.825758 1_555
Co1 O4 1.827977 1_554
Co2 O12 1.793701 1_555
Co2 O5 1.821366 1_565
Co2 O13 1.825758 1_555
Co2 O11 1.827977 1_556
Co3 O9 1.793701 1_555
Co3 O0 1.821366 1_545
Co3 O8 1.825758 1_555
Co3 O14 1.827977 1_555
