# generated using pymatgen
data_CaAl2Si3H6O13
_symmetry_space_group_name_H-M   'P 1'
_cell_length_a   10.13741558
_cell_length_b   10.13741558
_cell_length_c   9.90454824
_cell_angle_alpha   83.88378729
_cell_angle_beta   83.88378729
_cell_angle_gamma   142.16123228
_symmetry_Int_Tables_number   1
_chemical_formula_structural   CaAl2Si3H6O13
_chemical_formula_sum   'Ca2 Al4 Si6 H12 O26'
_cell_volume   589.72516858
_cell_formula_units_Z   2
loop_
 _symmetry_equiv_pos_site_id
 _symmetry_equiv_pos_as_xyz
  1  'x, y, z'
loop_
 _atom_site_type_symbol
 _atom_site_label
 _atom_site_symmetry_multiplicity
 _atom_site_fract_x
 _atom_site_fract_y
 _atom_site_fract_z
 _atom_site_occupancy
  Ca  Ca0  1  0.15784500  0.37167200  0.94790600  1
  Ca  Ca1  1  0.37167200  0.15784500  0.44790600  1
  Al  Al0  1  0.41739100  0.48453900  0.56659500  1
  Al  Al1  1  0.48453900  0.41739100  0.06659500  1
  Al  Al2  1  0.32758200  0.75050200  0.39994800  1
  Al  Al3  1  0.75050200  0.32758200  0.89994800  1
  Si  Si0  1  0.75153300  0.99323600  0.50260500  1
  Si  Si1  1  0.99323600  0.75153300  0.00260500  1
  Si  Si2  1  0.42639200  0.26314900  0.80077000  1
  Si  Si3  1  0.26314900  0.42639200  0.30077000  1
  Si  Si4  1  0.33272500  0.99723900  0.16866800  1
  Si  Si5  1  0.99723900  0.33272500  0.66866800  1
  H  H0  1  0.87019200  0.81162500  0.55092100  1
  H  H1  1  0.81162500  0.87019200  0.05092100  1
  H  H2  1  0.89536400  0.68824900  0.62539100  1
  H  H3  1  0.68824900  0.89536400  0.12539100  1
  H  H4  1  0.88083700  0.56534500  0.30884700  1
  H  H5  1  0.56534500  0.88083700  0.80884700  1
  H  H6  1  0.83561100  0.43750900  0.45470600  1
  H  H7  1  0.43750900  0.83561100  0.95470600  1
  H  H8  1  0.29635400  0.91523100  0.72439400  1
  H  H9  1  0.91523100  0.29635400  0.22439400  1
  H  H10  1  0.44517400  0.95675800  0.59230200  1
  H  H11  1  0.95675800  0.44517400  0.09230200  1
  O  O0  1  0.67854800  0.77790900  0.53093300  1
  O  O1  1  0.77790900  0.67854800  0.03093300  1
  O  O2  1  0.55295500  0.92740200  0.47328300  1
  O  O3  1  0.92740200  0.55295500  0.97328300  1
  O  O4  1  0.42472200  0.32690400  0.64341600  1
  O  O5  1  0.32690400  0.42472200  0.14341600  1
  O  O6  1  0.30844800  0.89807200  0.32411000  1
  O  O7  1  0.89807200  0.30844800  0.82411000  1
  O  O8  1  0.20756600  0.40684200  0.68438500  1
  O  O9  1  0.40684200  0.20756600  0.18438500  1
  O  O10  1  0.37444200  0.66318900  0.28377600  1
  O  O11  1  0.66318900  0.37444200  0.78377600  1
  O  O12  1  0.39649300  0.35447300  0.91112000  1
  O  O13  1  0.35447300  0.39649300  0.41112000  1
  O  O14  1  0.50546600  0.06850900  0.03618100  1
  O  O15  1  0.06850900  0.50546600  0.53618100  1
  O  O16  1  0.20585600  0.98349400  0.86638700  1
  O  O17  1  0.98349400  0.20585600  0.36638700  1
  O  O18  1  0.07682400  0.79902700  0.14713100  1
  O  O19  1  0.79902700  0.07682400  0.64713100  1
  O  O20  1  0.98122200  0.83068000  0.55924400  1
  O  O21  1  0.83068000  0.98122200  0.05924400  1
  O  O22  1  0.76081300  0.42190700  0.38885200  1
  O  O23  1  0.42190700  0.76081300  0.88885200  1
  O  O24  1  0.36807600  0.97876600  0.62115800  1
  O  O25  1  0.97876600  0.36807600  0.12115800  1
loop_
_geom_bond_atom_site_label_1
_geom_bond_atom_site_label_2
_geom_bond_distance
_geom_bond_site_symmetry_2
Ca0 O21 2.332082 1_446
Ca0 O25 2.336647 1_456
Ca0 O23 2.359085 1_555
Ca0 O8 2.535959 1_555
Ca0 O5 2.539591 1_556
Ca0 O12 2.551074 1_555
Ca0 O7 2.653068 1_455
Ca1 O20 2.332082 1_445
Ca1 O24 2.336647 1_545
Ca1 O22 2.359085 1_555
Ca1 O9 2.535959 1_555
Ca1 O4 2.539591 1_555
Ca1 O13 2.551074 1_555
Ca1 O6 2.653068 1_545
Al0 O4 1.754603 1_555
Al0 O0 1.766149 1_555
Al0 O8 1.770621 1_555
Al0 O13 1.782636 1_555
Al1 O5 1.754603 1_555
Al1 O1 1.766149 1_555
Al1 O9 1.770621 1_555
Al1 O12 1.782636 1_554
Al2 O6 1.757757 1_555
Al2 O10 1.760040 1_555
Al2 O15 1.764930 1_555
Al2 O2 1.767252 1_555
Al3 O7 1.757757 1_555
Al3 O11 1.760040 1_555
Al3 O14 1.764930 1_556
Al3 O3 1.767252 1_555
H0 O20 0.995359 1_555
H1 O21 0.995359 1_555
H2 O20 0.981593 1_555
H3 O21 0.981593 1_555
H4 O22 0.988571 1_555
H5 O23 0.988571 1_555
H6 O22 0.981506 1_555
H7 O23 0.981506 1_555
H8 O24 0.974976 1_555
H9 O25 0.974976 1_555
H10 O24 0.991829 1_555
H10 O2 1.727973 1_555
H11 O25 0.991829 1_555
H11 O3 1.727973 1_554
O0 Si0 1.632584 1_555
O1 Si1 1.632584 1_555
O2 Si0 1.620509 1_555
O3 Si1 1.620509 1_556
O4 Si2 1.629494 1_555
O5 Si3 1.629494 1_555
O6 Si4 1.624862 1_555
O7 Si5 1.624862 1_555
O8 Si5 1.643235 1_455
O9 Si4 1.643235 1_545
O10 Si3 1.630759 1_555
O11 Si2 1.630759 1_555
O12 Si2 1.652806 1_555
O13 Si3 1.652806 1_555
O14 Si4 1.618769 1_545
O15 Si5 1.618769 1_455
O16 Si1 1.641455 1_456
O16 Si2 1.656686 1_565
O17 Si0 1.641455 1_545
O17 Si3 1.656686 1_655
O18 Si1 1.661287 1_455
O18 Si4 1.669964 1_555
O19 Si0 1.661287 1_545
O19 Si5 1.669964 1_555
