# generated using pymatgen
data_BaNb5O8
_symmetry_space_group_name_H-M   'P 1'
_cell_length_a   6.67130460
_cell_length_b   7.86027176
_cell_length_c   4.15107491
_cell_angle_alpha   58.13478954
_cell_angle_beta   89.99865987
_cell_angle_gamma   89.99868137
_symmetry_Int_Tables_number   1
_chemical_formula_structural   BaNb5O8
_chemical_formula_sum   'Ba1 Nb5 O8'
_cell_volume   184.86987051
_cell_formula_units_Z   1
loop_
 _symmetry_equiv_pos_site_id
 _symmetry_equiv_pos_as_xyz
  1  'x, y, z'
loop_
 _atom_site_type_symbol
 _atom_site_label
 _atom_site_symmetry_multiplicity
 _atom_site_fract_x
 _atom_site_fract_y
 _atom_site_fract_z
 _atom_site_occupancy
  Ba  Ba0  1  0.00000000  -0.00000000  0.99415100  1
  Nb  Nb0  1  0.21186242  0.40161557  0.09247828  1
  Nb  Nb1  1  0.40193794  0.78800845  0.70630013  1
  Nb  Nb2  1  0.50000000  0.50000000  0.49415100  1
  Nb  Nb3  1  0.59806206  0.21199155  0.28200087  1
  Nb  Nb4  1  0.78813758  0.59838443  0.89582372  1
  O  O0  1  0.09914033  0.69897034  0.79527611  1
  O  O1  1  0.20370829  0.38680720  0.60732537  1
  O  O2  1  0.30069163  0.09873229  0.39549701  1
  O  O3  1  0.38708429  0.79615707  0.19815496  1
  O  O4  1  0.61291571  0.20384293  0.79014604  1
  O  O5  1  0.69930837  0.90126771  0.59280399  1
  O  O6  1  0.79629171  0.61319280  0.38097663  1
  O  O7  1  0.90085967  0.30102966  0.19302489  1
loop_
_geom_bond_atom_site_label_1
_geom_bond_atom_site_label_2
_geom_bond_distance
_geom_bond_site_symmetry_2
Ba0 O1 2.917998 1_555
Ba0 O6 2.917998 1_446
Ba0 O3 2.918942 1_546
Ba0 O4 2.918943 1_455
Ba0 O5 2.960642 1_446
Ba0 O2 2.960645 1_555
Ba0 O2 2.960965 1_556
Ba0 O5 2.960967 1_445
Ba0 O7 2.963125 1_456
Ba0 O0 2.963127 1_545
Ba0 O0 2.964319 1_546
Ba0 O7 2.964322 1_455
Nb0 O1 2.078422 1_554
Nb0 O1 2.078783 1_555
Nb0 O2 2.106995 1_555
Nb0 O0 2.122702 1_554
Nb0 O7 2.180754 1_455
Nb1 O3 2.078613 1_555
Nb1 O3 2.078614 1_556
Nb1 O0 2.105695 1_555
Nb1 O5 2.123053 1_555
Nb1 O2 2.181483 1_565
Nb2 O3 2.115686 1_555
Nb2 O4 2.115686 1_555
Nb2 O6 2.116171 1_555
Nb2 O1 2.116171 1_555
Nb3 O4 2.078613 1_555
Nb3 O4 2.078614 1_554
Nb3 O7 2.105695 1_555
Nb3 O2 2.123053 1_555
Nb3 O5 2.181483 1_545
Nb4 O6 2.078422 1_556
Nb4 O6 2.078783 1_555
Nb4 O5 2.106995 1_555
Nb4 O7 2.122702 1_556
Nb4 O0 2.180754 1_655
