# generated using pymatgen
data_BaLa3Mn4O12
_symmetry_space_group_name_H-M   'P 1'
_cell_length_a   7.93640449
_cell_length_b   7.93640449
_cell_length_c   7.93640445
_cell_angle_alpha   90.41006164
_cell_angle_beta   90.41006164
_cell_angle_gamma   90.41005386
_symmetry_Int_Tables_number   1
_chemical_formula_structural   BaLa3Mn4O12
_chemical_formula_sum   'Ba2 La6 Mn8 O24'
_cell_volume   499.84787598
_cell_formula_units_Z   2
loop_
 _symmetry_equiv_pos_site_id
 _symmetry_equiv_pos_as_xyz
  1  'x, y, z'
loop_
 _atom_site_type_symbol
 _atom_site_label
 _atom_site_symmetry_multiplicity
 _atom_site_fract_x
 _atom_site_fract_y
 _atom_site_fract_z
 _atom_site_occupancy
  Ba  Ba0  1  0.75000000  0.75000000  0.75000000  1
  Ba  Ba1  1  0.25000000  0.25000000  0.25000000  1
  La  La0  1  0.25415200  0.75000000  0.24584800  1
  La  La1  1  0.75000000  0.24584800  0.25415200  1
  La  La2  1  0.74584800  0.25000000  0.75415200  1
  La  La3  1  0.24584800  0.25415200  0.75000000  1
  La  La4  1  0.25000000  0.75415200  0.74584800  1
  La  La5  1  0.75415200  0.74584800  0.25000000  1
  Mn  Mn0  1  0.00000000  0.50000000  0.00000000  1
  Mn  Mn1  1  0.50000000  0.00000000  0.00000000  1
  Mn  Mn2  1  0.50000000  0.00000000  0.50000000  1
  Mn  Mn3  1  0.00000000  0.00000000  0.50000000  1
  Mn  Mn4  1  0.00000000  0.50000000  0.50000000  1
  Mn  Mn5  1  0.50000000  0.50000000  0.50000000  1
  Mn  Mn6  1  0.50000000  0.50000000  0.00000000  1
  Mn  Mn7  1  0.00000000  0.00000000  0.00000000  1
  O  O0  1  0.25000000  0.01290700  0.48709300  1
  O  O1  1  0.53531100  0.25085200  0.47854500  1
  O  O2  1  0.74914800  0.52145500  0.46468900  1
  O  O3  1  0.02707800  0.75000000  0.47292200  1
  O  O4  1  0.52145500  0.46468900  0.74914800  1
  O  O5  1  0.98709300  0.51290700  0.75000000  1
  O  O6  1  0.25000000  0.52707800  0.97292200  1
  O  O7  1  0.03531100  0.97854500  0.75085200  1
  O  O8  1  0.51290700  0.75000000  0.98709300  1
  O  O9  1  0.47292200  0.02707800  0.75000000  1
  O  O10  1  0.97854500  0.75085200  0.03531100  1
  O  O11  1  0.24914800  0.96468900  0.02145500  1
  O  O12  1  0.75085200  0.03531100  0.97854500  1
  O  O13  1  0.02145500  0.24914800  0.96468900  1
  O  O14  1  0.52707800  0.97292200  0.25000000  1
  O  O15  1  0.48709300  0.25000000  0.01290700  1
  O  O16  1  0.96468900  0.02145500  0.24914800  1
  O  O17  1  0.75000000  0.47292200  0.02707800  1
  O  O18  1  0.01290700  0.48709300  0.25000000  1
  O  O19  1  0.47854500  0.53531100  0.25085200  1
  O  O20  1  0.97292200  0.25000000  0.52707800  1
  O  O21  1  0.25085200  0.47854500  0.53531100  1
  O  O22  1  0.46468900  0.74914800  0.52145500  1
  O  O23  1  0.75000000  0.98709300  0.51290700  1
loop_
_geom_bond_atom_site_label_1
_geom_bond_atom_site_label_2
_geom_bond_distance
_geom_bond_site_symmetry_2
Ba0 O5 2.670583 1_555
Ba0 O23 2.670583 1_555
Ba0 O8 2.670583 1_555
Ba0 O10 2.891034 1_556
Ba0 O2 2.891034 1_555
Ba0 O12 2.891034 1_565
Ba0 O22 2.891034 1_555
Ba0 O7 2.891034 1_655
Ba0 O4 2.891034 1_555
Ba0 O9 3.120968 1_565
Ba0 O3 3.120969 1_655
Ba0 O17 3.120969 1_556
Ba1 O18 2.670583 1_555
Ba1 O15 2.670583 1_555
Ba1 O0 2.670583 1_555
Ba1 O21 2.891034 1_555
Ba1 O13 2.891034 1_554
Ba1 O1 2.891034 1_555
Ba1 O11 2.891034 1_545
Ba1 O19 2.891034 1_555
Ba1 O16 2.891034 1_455
Ba1 O14 3.120968 1_545
Ba1 O6 3.120969 1_554
Ba1 O20 3.120969 1_455
La0 O19 2.473785 1_555
La0 O11 2.473785 1_555
La0 O3 2.557730 1_555
La0 O22 2.743071 1_555
La0 O10 2.743071 1_455
La0 O6 2.786794 1_554
La0 O14 2.786794 1_555
La0 O0 2.822266 1_565
La0 O18 2.822266 1_555
La0 O8 2.914581 1_554
La0 O16 3.160773 1_465
La0 O21 3.160773 1_555
La1 O16 2.473785 1_555
La1 O1 2.473785 1_555
La1 O17 2.557730 1_555
La1 O12 2.743071 1_554
La1 O2 2.743071 1_555
La1 O20 2.786794 1_555
La1 O14 2.786794 1_545
La1 O15 2.822266 1_555
La1 O18 2.822266 1_655
La1 O23 2.914581 1_545
La1 O19 3.160773 1_555
La1 O13 3.160773 1_654
La2 O4 2.473785 1_555
La2 O12 2.473785 1_555
La2 O20 2.557730 1_555
La2 O1 2.743071 1_555
La2 O13 2.743071 1_655
La2 O17 2.786794 1_556
La2 O9 2.786794 1_555
La2 O23 2.822266 1_545
La2 O5 2.822266 1_555
La2 O15 2.914581 1_556
La2 O7 3.160773 1_645
La2 O2 3.160773 1_555
La3 O13 2.473785 1_555
La3 O21 2.473785 1_555
La3 O9 2.557730 1_555
La3 O7 2.743072 1_545
La3 O4 2.743072 1_555
La3 O6 2.786794 1_555
La3 O20 2.786794 1_455
La3 O0 2.822266 1_555
La3 O15 2.822266 1_556
La3 O5 2.914581 1_455
La3 O11 3.160773 1_546
La3 O1 3.160773 1_555
La4 O7 2.473785 1_555
La4 O22 2.473785 1_555
La4 O6 2.557730 1_555
La4 O11 2.743071 1_556
La4 O21 2.743071 1_555
La4 O3 2.786794 1_555
La4 O9 2.786794 1_565
La4 O8 2.822266 1_555
La4 O5 2.822266 1_455
La4 O0 2.914581 1_565
La4 O4 3.160773 1_555
La4 O10 3.160773 1_456
La5 O2 2.473785 1_555
La5 O10 2.473785 1_555
La5 O14 2.557730 1_555
La5 O19 2.743072 1_555
La5 O16 2.743072 1_565
La5 O3 2.786794 1_655
La5 O17 2.786794 1_555
La5 O8 2.822266 1_554
La5 O23 2.822266 1_555
La5 O18 2.914581 1_655
La5 O12 3.160773 1_564
La5 O22 3.160773 1_555
Mn0 O5 1.989420 1_454
Mn0 O18 1.989420 1_555
Mn0 O6 2.007407 1_554
Mn0 O17 2.007407 1_455
Mn0 O10 2.017081 1_455
Mn0 O13 2.017081 1_554
Mn1 O15 1.989420 1_555
Mn1 O8 1.989420 1_544
Mn1 O14 2.007407 1_545
Mn1 O9 2.007407 1_554
Mn1 O12 2.017081 1_554
Mn1 O11 2.017081 1_545
Mn2 O0 1.989420 1_555
Mn2 O23 1.989420 1_545
Mn2 O14 2.007407 1_545
Mn2 O9 2.007407 1_555
Mn2 O1 2.017081 1_555
Mn2 O22 2.017081 1_545
Mn3 O0 1.989420 1_555
Mn3 O23 1.989420 1_445
Mn3 O20 2.007407 1_455
Mn3 O3 2.007407 1_545
Mn3 O7 2.017081 1_545
Mn3 O16 2.017081 1_455
Mn4 O5 1.989420 1_455
Mn4 O18 1.989420 1_555
Mn4 O20 2.007407 1_455
Mn4 O3 2.007407 1_555
Mn4 O21 2.017081 1_555
Mn4 O2 2.017081 1_455
Mn5 O22 2.005292 1_555
Mn5 O1 2.005292 1_555
Mn5 O4 2.005292 1_555
Mn5 O19 2.005292 1_555
Mn5 O2 2.005292 1_555
Mn5 O21 2.005292 1_555
Mn6 O15 1.989420 1_555
Mn6 O8 1.989420 1_554
Mn6 O6 2.007407 1_554
Mn6 O17 2.007407 1_555
Mn6 O19 2.017081 1_555
Mn6 O4 2.017081 1_554
Mn7 O11 2.005292 1_545
Mn7 O12 2.005292 1_454
Mn7 O16 2.005292 1_455
Mn7 O7 2.005292 1_544
Mn7 O13 2.005292 1_554
Mn7 O10 2.005292 1_445
