# generated using pymatgen
data_Li4Fe3Co3(NiO8)2
_symmetry_space_group_name_H-M   'P 1'
_cell_length_a   5.77423015
_cell_length_b   5.77423015
_cell_length_c   9.56036706
_cell_angle_alpha   89.76839680
_cell_angle_beta   89.76839680
_cell_angle_gamma   59.91715336
_symmetry_Int_Tables_number   1
_chemical_formula_structural   Li4Fe3Co3(NiO8)2
_chemical_formula_sum   'Li4 Fe3 Co3 Ni2 O16'
_cell_volume   275.81983199
_cell_formula_units_Z   1
loop_
 _symmetry_equiv_pos_site_id
 _symmetry_equiv_pos_as_xyz
  1  'x, y, z'
loop_
 _atom_site_type_symbol
 _atom_site_label
 _atom_site_symmetry_multiplicity
 _atom_site_fract_x
 _atom_site_fract_y
 _atom_site_fract_z
 _atom_site_occupancy
  Li  Li0  1  0.66411300  0.66411300  0.10502200  1
  Li  Li1  1  0.00507700  0.00507700  0.00059100  1
  Li  Li2  1  0.00571800  0.00571800  0.50250700  1
  Li  Li3  1  0.33060400  0.33060400  0.60921700  1
  Fe  Fe0  1  0.82998400  0.82998400  0.78477900  1
  Fe  Fe1  1  0.16808600  0.66073300  0.28487100  1
  Fe  Fe2  1  0.66073300  0.16808600  0.28487100  1
  Co  Co0  1  0.33665800  0.83039300  0.78685200  1
  Co  Co1  1  0.83039300  0.33665800  0.78685200  1
  Co  Co2  1  0.16900100  0.16900100  0.28791400  1
  Ni  Ni0  1  0.66801500  0.66801500  0.51245200  1
  Ni  Ni1  1  0.33260000  0.33260000  0.01038300  1
  O  O0  1  0.32300500  0.84879400  0.39248400  1
  O  O1  1  0.51871900  0.51871900  0.67506200  1
  O  O2  1  0.65913600  0.65913600  0.89424200  1
  O  O3  1  0.00691800  0.00691800  0.68810000  1
  O  O4  1  0.00679300  0.00679300  0.18633900  1
  O  O5  1  0.84879400  0.32300500  0.39248400  1
  O  O6  1  0.50944100  0.96237500  0.67021200  1
  O  O7  1  0.96237500  0.50944100  0.67021200  1
  O  O8  1  0.15927000  0.15927000  0.88601700  1
  O  O9  1  0.84035700  0.84035700  0.39730600  1
  O  O10  1  0.03445600  0.47177100  0.16810000  1
  O  O11  1  0.47177100  0.03445600  0.16810000  1
  O  O12  1  0.32879800  0.32879800  0.39878900  1
  O  O13  1  0.16690600  0.68110500  0.89197300  1
  O  O14  1  0.48082800  0.48082800  0.16440400  1
  O  O15  1  0.68110500  0.16690600  0.89197300  1
loop_
_geom_bond_atom_site_label_1
_geom_bond_atom_site_label_2
_geom_bond_distance
_geom_bond_site_symmetry_2
Li0 O14 1.917179 1_555
Li0 O11 1.947860 1_565
Li0 O10 1.947860 1_655
Li0 O2 2.015982 1_554
Li1 O4 1.775982 1_555
Li1 O8 1.887908 1_554
Li1 O13 1.925208 1_544
Li1 O15 1.925208 1_454
Li2 O3 1.774434 1_555
Li2 O0 1.900497 1_545
Li2 O5 1.900497 1_455
Li2 O9 1.940226 1_445
Li3 O6 1.928987 1_545
Li3 O7 1.928987 1_455
Li3 O1 1.987436 1_555
Li3 O12 2.011934 1_555
Fe0 O6 1.949622 1_555
Fe0 O7 1.949622 1_555
Fe0 O13 1.976478 1_655
Fe0 O15 1.976478 1_565
Fe0 O3 1.993239 1_665
Fe0 O2 2.000140 1_555
Fe1 O14 1.943931 1_555
Fe1 O9 1.958883 1_455
Fe1 O4 1.968215 1_565
Fe1 O10 1.973075 1_555
Fe1 O12 1.982199 1_555
Fe1 O0 2.007026 1_555
Fe2 O14 1.943931 1_555
Fe2 O9 1.958883 1_545
Fe2 O4 1.968215 1_655
Fe2 O11 1.973075 1_555
Fe2 O12 1.982199 1_555
Fe2 O5 2.007026 1_555
Co0 O13 1.883071 1_555
Co0 O6 1.888396 1_555
Co0 O1 1.896318 1_555
Co0 O8 1.900241 1_565
Co0 O3 1.901750 1_565
Co0 O2 1.913251 1_555
Co1 O15 1.883071 1_555
Co1 O7 1.888396 1_555
Co1 O1 1.896318 1_555
Co1 O8 1.900241 1_655
Co1 O3 1.901750 1_655
Co1 O2 1.913251 1_555
Co2 O5 1.884883 1_455
Co2 O0 1.884883 1_545
Co2 O4 1.895187 1_555
Co2 O10 1.897754 1_555
Co2 O11 1.897754 1_555
Co2 O12 1.922423 1_555
Ni0 O9 2.041454 1_555
Ni0 O5 2.073134 1_555
Ni0 O0 2.073134 1_555
Ni0 O7 2.109865 1_555
Ni0 O6 2.109865 1_555
Ni0 O1 2.150930 1_555
Ni1 O13 2.075245 1_554
Ni1 O15 2.075245 1_554
Ni1 O14 2.094795 1_555
Ni1 O8 2.107254 1_554
Ni1 O10 2.117777 1_555
Ni1 O11 2.117777 1_555
