# generated using pymatgen
data_Li2TiFe3O8
_symmetry_space_group_name_H-M   'P 1'
_cell_length_a   8.39792500
_cell_length_b   8.40734447
_cell_length_c   8.61238032
_cell_angle_alpha   90.06248353
_cell_angle_beta   90.01226097
_cell_angle_gamma   90.14909803
_symmetry_Int_Tables_number   1
_chemical_formula_structural   Li2TiFe3O8
_chemical_formula_sum   'Li8 Ti4 Fe12 O32'
_cell_volume   608.06820390
_cell_formula_units_Z   4
loop_
 _symmetry_equiv_pos_site_id
 _symmetry_equiv_pos_as_xyz
  1  'x, y, z'
loop_
 _atom_site_type_symbol
 _atom_site_label
 _atom_site_symmetry_multiplicity
 _atom_site_fract_x
 _atom_site_fract_y
 _atom_site_fract_z
 _atom_site_occupancy
  Li  Li0  1  0.99934900  0.00215400  0.99940700  1
  Li  Li1  1  0.74785800  0.74726500  0.25114700  1
  Li  Li2  1  0.25014500  0.75039600  0.75059200  1
  Li  Li3  1  0.50188700  0.50100700  0.99924100  1
  Li  Li4  1  0.99618800  0.50120000  0.50002900  1
  Li  Li5  1  0.25135900  0.24707200  0.24974300  1
  Li  Li6  1  0.75250900  0.24922800  0.75048700  1
  Li  Li7  1  0.49764700  0.99940600  0.49831200  1
  Ti  Ti0  1  0.62456700  0.87593500  0.87341600  1
  Ti  Ti1  1  0.12756800  0.62773100  0.13318800  1
  Ti  Ti2  1  0.37414300  0.38111500  0.61864800  1
  Ti  Ti3  1  0.87750300  0.12105700  0.37065500  1
  Fe  Fe0  1  0.37669500  0.87474000  0.12340600  1
  Fe  Fe1  1  0.12793400  0.87682700  0.37649900  1
  Fe  Fe2  1  0.87424700  0.87414600  0.62644500  1
  Fe  Fe3  1  0.37827300  0.62612800  0.37352000  1
  Fe  Fe4  1  0.62630600  0.62525500  0.62601000  1
  Fe  Fe5  1  0.87466700  0.62570000  0.87334000  1
  Fe  Fe6  1  0.62856700  0.37309000  0.37760600  1
  Fe  Fe7  1  0.87743700  0.37615400  0.12818300  1
  Fe  Fe8  1  0.12339800  0.37544500  0.87606200  1
  Fe  Fe9  1  0.62392900  0.12333300  0.12289800  1
  Fe  Fe10  1  0.37313200  0.12592600  0.87780500  1
  Fe  Fe11  1  0.12442400  0.12873900  0.62267300  1
  O  O0  1  0.61801500  0.88380900  0.10641100  1
  O  O1  1  0.38878500  0.88498600  0.88516200  1
  O  O2  1  0.11518000  0.89637600  0.61520100  1
  O  O3  1  0.13189200  0.85602400  0.13139400  1
  O  O4  1  0.88493500  0.89075000  0.38455100  1
  O  O5  1  0.36499200  0.86204700  0.36036500  1
  O  O6  1  0.63434200  0.86733100  0.64147000  1
  O  O7  1  0.86084700  0.86715200  0.86496600  1
  O  O8  1  0.35805500  0.62918300  0.13510700  1
  O  O9  1  0.13343800  0.63442600  0.35870500  1
  O  O10  1  0.86611700  0.63710600  0.63836800  1
  O  O11  1  0.38038600  0.60899900  0.61420200  1
  O  O12  1  0.63348600  0.64030500  0.86416200  1
  O  O13  1  0.61483300  0.60926100  0.38876600  1
  O  O14  1  0.88793600  0.60876500  0.11424100  1
  O  O15  1  0.11772200  0.60324900  0.89076100  1
  O  O16  1  0.38584000  0.38245900  0.39206100  1
  O  O17  1  0.60556900  0.38140900  0.62016700  1
  O  O18  1  0.89730300  0.38369600  0.88573100  1
  O  O19  1  0.86518600  0.35910600  0.36815900  1
  O  O20  1  0.10673600  0.38765300  0.12057300  1
  O  O21  1  0.64742900  0.36437800  0.13446700  1
  O  O22  1  0.35181200  0.36847800  0.86104700  1
  O  O23  1  0.13707900  0.36012400  0.63074100  1
  O  O24  1  0.64087700  0.13526100  0.36431000  1
  O  O25  1  0.86932100  0.13982100  0.14133000  1
  O  O26  1  0.13103100  0.14959600  0.86523000  1
  O  O27  1  0.61570800  0.11157200  0.88462600  1
  O  O28  1  0.35568100  0.13880100  0.63674900  1
  O  O29  1  0.38659800  0.11513200  0.11237500  1
  O  O30  1  0.11088000  0.11543700  0.38179900  1
  O  O31  1  0.89211400  0.11825600  0.60762800  1
loop_
_geom_bond_atom_site_label_1
_geom_bond_atom_site_label_2
_geom_bond_distance
_geom_bond_site_symmetry_2
Li0 O7 1.992846 1_545
Li0 O25 2.007502 1_556
Li0 O3 2.012484 1_646
Li0 O26 2.022727 1_655
Li1 O13 1.998936 1_555
Li1 O0 2.017352 1_555
Li1 O4 2.022280 1_555
Li1 O14 2.033390 1_555
Li2 O1 1.992203 1_555
Li2 O11 1.998383 1_555
Li2 O2 2.039699 1_555
Li2 O15 2.054544 1_555
Li3 O12 1.985720 1_555
Li3 O8 1.998523 1_556
Li3 O21 2.044341 1_556
Li3 O22 2.058049 1_555
Li4 O19 1.979136 1_555
Li4 O10 1.980484 1_555
Li4 O9 2.015284 1_655
Li4 O23 2.020806 1_655
Li5 O30 1.976504 1_555
Li5 O29 1.980974 1_555
Li5 O16 2.015705 1_555
Li5 O20 2.029615 1_555
Li6 O27 1.997603 1_555
Li6 O17 2.006657 1_555
Li6 O18 2.025516 1_555
Li6 O31 2.026115 1_555
Li7 O5 1.993963 1_555
Li7 O24 2.019801 1_565
Li7 O6 2.019881 1_555
Li7 O28 2.054551 1_565
Fe0 O29 2.024887 1_565
Fe0 O0 2.033135 1_555
Fe0 O5 2.046055 1_555
Fe0 O1 2.056268 1_554
Fe0 O3 2.062610 1_555
Fe0 O8 2.072565 1_555
Fe1 O5 1.999846 1_555
Fe1 O30 2.012023 1_565
Fe1 O9 2.044179 1_555
Fe1 O4 2.045532 1_455
Fe1 O2 2.064998 1_555
Fe1 O3 2.118255 1_555
Fe2 O10 1.996624 1_555
Fe2 O6 2.019551 1_555
Fe2 O2 2.033803 1_655
Fe2 O7 2.058233 1_555
Fe2 O31 2.063956 1_565
Fe2 O4 2.090039 1_555
Fe3 O5 1.990225 1_555
Fe3 O13 1.996341 1_555
Fe3 O16 2.056143 1_555
Fe3 O8 2.060469 1_555
Fe3 O9 2.061401 1_555
Fe3 O11 2.078073 1_555
Fe4 O10 2.018898 1_555
Fe4 O6 2.040362 1_555
Fe4 O13 2.049738 1_555
Fe4 O12 2.055679 1_555
Fe4 O17 2.057589 1_555
Fe4 O11 2.071848 1_555
Fe5 O10 2.027309 1_555
Fe5 O12 2.030985 1_555
Fe5 O7 2.034943 1_555
Fe5 O18 2.046862 1_555
Fe5 O15 2.055821 1_655
Fe5 O14 2.082745 1_556
Fe6 O13 1.991435 1_555
Fe6 O19 1.992563 1_555
Fe6 O24 2.005598 1_555
Fe6 O16 2.043945 1_555
Fe6 O17 2.099084 1_555
Fe6 O21 2.101234 1_555
Fe7 O20 1.928941 1_655
Fe7 O21 1.934640 1_555
Fe7 O14 1.961209 1_555
Fe7 O25 1.991270 1_555
Fe7 O19 2.074441 1_555
Fe7 O18 2.095794 1_554
Fe8 O18 1.902014 1_455
Fe8 O26 1.902227 1_555
Fe8 O15 1.919984 1_555
Fe8 O22 1.923625 1_555
Fe8 O20 2.112896 1_556
Fe8 O23 2.119739 1_555
Fe9 O29 1.996136 1_555
Fe9 O0 2.019087 1_545
Fe9 O21 2.037951 1_555
Fe9 O27 2.055499 1_554
Fe9 O25 2.071128 1_555
Fe9 O24 2.086252 1_555
Fe10 O29 2.025491 1_556
Fe10 O1 2.031324 1_545
Fe10 O27 2.041856 1_555
Fe10 O26 2.046234 1_555
Fe10 O22 2.052761 1_555
Fe10 O28 2.084151 1_555
Fe11 O28 1.947446 1_555
Fe11 O23 1.949120 1_555
Fe11 O2 1.955884 1_545
Fe11 O31 1.956943 1_455
Fe11 O30 2.080460 1_555
Fe11 O26 2.096860 1_555
O0 Ti0 2.008431 1_554
O1 Ti0 1.984337 1_555
O3 Ti1 1.919666 1_555
O4 Ti3 1.941260 1_565
O6 Ti0 2.000548 1_555
O7 Ti0 1.987173 1_555
O8 Ti1 1.935686 1_555
O9 Ti1 1.943603 1_555
O11 Ti2 1.916905 1_555
O12 Ti0 1.984148 1_555
O14 Ti1 2.024842 1_655
O15 Ti1 2.099361 1_556
O16 Ti2 1.953989 1_555
O17 Ti2 1.943535 1_555
O19 Ti3 2.004438 1_555
O20 Ti1 2.028324 1_555
O22 Ti2 2.098860 1_555
O23 Ti2 2.000939 1_555
O24 Ti3 1.991804 1_555
O25 Ti3 1.982686 1_555
O27 Ti0 1.984916 1_545
O28 Ti2 2.048818 1_555
O30 Ti3 1.962905 1_455
O31 Ti3 2.044726 1_555
