# generated using pymatgen
data_Li2CoP2O7
_symmetry_space_group_name_H-M   'P 1'
_cell_length_a   5.11947900
_cell_length_b   8.11099900
_cell_length_c   14.17029054
_cell_angle_alpha   67.75143257
_cell_angle_beta   90.00000000
_cell_angle_gamma   90.00000000
_symmetry_Int_Tables_number   1
_chemical_formula_structural   Li2CoP2O7
_chemical_formula_sum   'Li8 Co4 P8 O28'
_cell_volume   544.60138340
_cell_formula_units_Z   4
loop_
 _symmetry_equiv_pos_site_id
 _symmetry_equiv_pos_as_xyz
  1  'x, y, z'
loop_
 _atom_site_type_symbol
 _atom_site_label
 _atom_site_symmetry_multiplicity
 _atom_site_fract_x
 _atom_site_fract_y
 _atom_site_fract_z
 _atom_site_occupancy
  Li  Li0  1  0.18293000  0.97592400  0.67842400  1
  Li  Li1  1  0.31707000  0.97592400  0.17842400  1
  Li  Li2  1  0.71917700  0.42541200  0.83821300  1
  Li  Li3  1  0.21917700  0.57458800  0.66178700  1
  Li  Li4  1  0.78082300  0.42541200  0.33821300  1
  Li  Li5  1  0.28082300  0.57458800  0.16178700  1
  Li  Li6  1  0.68293000  0.02407600  0.82157600  1
  Li  Li7  1  0.81707000  0.02407600  0.32157600  1
  Co  Co0  1  0.28676500  0.72345000  0.87814200  1
  Co  Co1  1  0.21323500  0.72345000  0.37814200  1
  Co  Co2  1  0.78676500  0.27655000  0.62185800  1
  Co  Co3  1  0.71323500  0.27655000  0.12185800  1
  P  P0  1  0.70656400  0.81241000  0.69243100  1
  P  P1  1  0.71137000  0.69883200  0.52134200  1
  P  P2  1  0.79343600  0.81241000  0.19243100  1
  P  P3  1  0.21137000  0.30116800  0.97865800  1
  P  P4  1  0.78863000  0.69883200  0.02134200  1
  P  P5  1  0.20656400  0.18759000  0.80756900  1
  P  P6  1  0.28863000  0.30116800  0.47865800  1
  P  P7  1  0.29343600  0.18759000  0.30756900  1
  O  O0  1  0.27052000  0.00274700  0.80647000  1
  O  O1  1  0.22948000  0.00274700  0.30647000  1
  O  O2  1  0.65574000  0.78362300  0.91778600  1
  O  O3  1  0.75213800  0.84608600  0.57274400  1
  O  O4  1  0.41670800  0.76294000  0.71606900  1
  O  O5  1  0.89620800  0.67001000  0.75706600  1
  O  O6  1  0.41524000  0.67624800  0.51328300  1
  O  O7  1  0.84426000  0.78362300  0.41778600  1
  O  O8  1  0.74786200  0.84608600  0.07274400  1
  O  O9  1  0.35507000  0.46698600  0.90667600  1
  O  O10  1  0.08329200  0.76294000  0.21606900  1
  O  O11  1  0.60379200  0.67001000  0.25706600  1
  O  O12  1  0.85507000  0.53301400  0.59332400  1
  O  O13  1  0.08476000  0.67624800  0.01328300  1
  O  O14  1  0.91524000  0.32375200  0.98671700  1
  O  O15  1  0.14493000  0.46698600  0.40667600  1
  O  O16  1  0.39620800  0.32999000  0.74293400  1
  O  O17  1  0.91670800  0.23706000  0.78393100  1
  O  O18  1  0.64493000  0.53301400  0.09332400  1
  O  O19  1  0.25213800  0.15391400  0.92725600  1
  O  O20  1  0.15574000  0.21637700  0.58221400  1
  O  O21  1  0.58476000  0.32375200  0.48671700  1
  O  O22  1  0.10379200  0.32999000  0.24293400  1
  O  O23  1  0.58329200  0.23706000  0.28393100  1
  O  O24  1  0.24786200  0.15391400  0.42725600  1
  O  O25  1  0.34426000  0.21637700  0.08221400  1
  O  O26  1  0.77052000  0.99725300  0.69353000  1
  O  O27  1  0.72948000  0.99725300  0.19353000  1
loop_
_geom_bond_atom_site_label_1
_geom_bond_atom_site_label_2
_geom_bond_distance
_geom_bond_site_symmetry_2
Li0 O20 1.915278 1_565
Li0 O0 1.959480 1_565
Li0 O4 2.000854 1_555
Li0 O26 2.135763 1_455
Li1 O25 1.915278 1_565
Li1 O1 1.959480 1_565
Li1 O10 2.000854 1_555
Li1 O27 2.135763 1_555
Li2 O5 2.086169 1_555
Li2 O9 2.185691 1_555
Li2 O14 2.191281 1_555
Li2 O17 2.199565 1_555
Li2 O16 2.438650 1_555
Li3 O16 2.086169 1_555
Li3 O12 2.185691 1_455
Li3 O6 2.191281 1_555
Li3 O4 2.199565 1_555
Li3 O5 2.438650 1_455
Li4 O11 2.086169 1_555
Li4 O15 2.185691 1_655
Li4 O21 2.191281 1_555
Li4 O23 2.199565 1_555
Li4 O22 2.438650 1_655
Li5 O22 2.086169 1_555
Li5 O18 2.185691 1_555
Li5 O13 2.191281 1_555
Li5 O10 2.199565 1_555
Li5 O11 2.438650 1_555
Li6 O2 1.915278 1_545
Li6 O26 1.959480 1_545
Li6 O17 2.000854 1_555
Li6 O0 2.135763 1_555
Li7 O7 1.915278 1_545
Li7 O27 1.959480 1_545
Li7 O23 2.000854 1_555
Li7 O1 2.135763 1_655
Co0 O9 1.993990 1_555
Co0 O13 2.080397 1_556
Co0 O2 2.080764 1_555
Co0 O0 2.104300 1_565
Co0 O4 2.294028 1_555
Co1 O15 1.993990 1_555
Co1 O6 2.080397 1_555
Co1 O7 2.080764 1_455
Co1 O1 2.104300 1_565
Co1 O10 2.294028 1_555
Co2 O12 1.993990 1_555
Co2 O21 2.080397 1_555
Co2 O20 2.080764 1_655
Co2 O26 2.104300 1_545
Co2 O17 2.294028 1_555
Co3 O18 1.993990 1_555
Co3 O14 2.080397 1_554
Co3 O25 2.080764 1_555
Co3 O27 2.104300 1_545
Co3 O23 2.294028 1_555
O0 P5 1.540426 1_555
O1 P7 1.540426 1_555
O2 P4 1.524772 1_556
O3 P0 1.629312 1_555
O3 P1 1.630771 1_555
O4 P0 1.540590 1_555
O5 P0 1.521329 1_555
O6 P1 1.536485 1_555
O7 P1 1.524772 1_555
O8 P2 1.629312 1_555
O8 P4 1.630771 1_555
O9 P3 1.533516 1_555
O10 P2 1.540590 1_455
O11 P2 1.521329 1_555
O12 P1 1.533516 1_555
O13 P4 1.536485 1_455
O14 P3 1.536485 1_655
O15 P6 1.533516 1_555
O16 P5 1.521329 1_555
O17 P5 1.540590 1_655
O18 P4 1.533516 1_555
O19 P5 1.629312 1_555
O19 P3 1.630771 1_555
O20 P6 1.524772 1_555
O21 P6 1.536485 1_555
O22 P7 1.521329 1_555
O23 P7 1.540590 1_555
O24 P7 1.629312 1_555
O24 P6 1.630771 1_555
O25 P3 1.524772 1_554
O26 P0 1.540426 1_555
O27 P2 1.540426 1_555
