# generated using pymatgen
data_Na2NiPCO7
_symmetry_space_group_name_H-M   'P 1'
_cell_length_a   10.10938065
_cell_length_b   10.35833806
_cell_length_c   8.49061971
_cell_angle_alpha   108.58873439
_cell_angle_beta   72.61374093
_cell_angle_gamma   60.96234466
_symmetry_Int_Tables_number   1
_chemical_formula_structural   Na2NiPCO7
_chemical_formula_sum   'Na8 Ni4 P4 C4 O28'
_cell_volume   616.65098285
_cell_formula_units_Z   4
loop_
 _symmetry_equiv_pos_site_id
 _symmetry_equiv_pos_as_xyz
  1  'x, y, z'
loop_
 _atom_site_type_symbol
 _atom_site_label
 _atom_site_symmetry_multiplicity
 _atom_site_fract_x
 _atom_site_fract_y
 _atom_site_fract_z
 _atom_site_occupancy
  Na  Na0  1  0.74941500  0.98678300  0.48593600  1
  Na  Na1  1  0.99360400  0.75324500  0.00783700  1
  Na  Na2  1  0.74547500  0.51999500  0.51033300  1
  Na  Na3  1  0.50305800  0.75993200  0.98894600  1
  Na  Na4  1  0.76598100  0.30973600  0.76942800  1
  Na  Na5  1  0.25636900  0.48134900  0.46513300  1
  Na  Na6  1  0.01940400  0.23836400  0.98998000  1
  Na  Na7  1  0.25661500  0.00008700  0.51161500  1
  Ni  Ni0  1  0.83495000  0.81703500  0.75522200  1
  Ni  Ni1  1  0.65982300  0.68827600  0.24666000  1
  Ni  Ni2  1  0.33945600  0.31261300  0.75943900  1
  Ni  Ni3  1  0.16032400  0.19011400  0.25128800  1
  P  P0  1  0.47409600  0.94812000  0.75284100  1
  P  P1  1  0.97734400  0.44334500  0.74907600  1
  P  P2  1  0.02264100  0.55826900  0.24984400  1
  P  P3  1  0.52648900  0.05138100  0.24903600  1
  C  C0  1  0.94525700  0.98278600  0.74918200  1
  C  C1  1  0.55561400  0.52095200  0.25225800  1
  C  C2  1  0.45022400  0.47734800  0.74427600  1
  C  C3  1  0.05308200  0.02223200  0.25129800  1
  O  O0  1  0.99408300  0.94019100  0.25478500  1
  O  O1  1  0.70237200  0.96589000  0.06123500  1
  O  O2  1  0.98327600  0.58843600  0.74623900  1
  O  O3  1  0.84995700  0.68928000  0.25499700  1
  O  O4  1  0.64329100  0.81541200  0.75021600  1
  O  O5  1  0.51907400  0.90441700  0.25115600  1
  O  O6  1  0.48651600  0.83865800  0.56715200  1
  O  O7  1  0.79956500  0.52124200  0.93279600  1
  O  O8  1  0.98295800  0.33540600  0.56709300  1
  O  O9  1  0.19823600  0.97545800  0.25240400  1
  O  O10  1  0.70351500  0.47634100  0.24749200  1
  O  O11  1  0.47435600  0.66229600  0.24782400  1
  O  O12  1  0.97347100  0.16524300  0.25017500  1
  O  O13  1  0.50823800  0.56190500  0.74743800  1
  O  O14  1  0.50264100  0.43526600  0.25561200  1
  O  O15  1  0.02139100  0.84274000  0.75497600  1
  O  O16  1  0.53385600  0.33293700  0.74203700  1
  O  O17  1  0.30463100  0.52421900  0.74507200  1
  O  O18  1  0.80371100  0.03091700  0.74295300  1
  O  O19  1  0.00893400  0.66569900  0.43729500  1
  O  O20  1  0.18652300  0.48940800  0.06336700  1
  O  O21  1  0.51800500  0.15547000  0.43281100  1
  O  O22  1  0.48073500  0.09146300  0.74460600  1
  O  O23  1  0.35300900  0.18346700  0.26028500  1
  O  O24  1  0.14312500  0.31187700  0.75077800  1
  O  O25  1  0.02130200  0.40845200  0.24930200  1
  O  O26  1  0.30149500  0.02677100  0.93990700  1
  O  O27  1  0.00333000  0.06811000  0.75052600  1
loop_
_geom_bond_atom_site_label_1
_geom_bond_atom_site_label_2
_geom_bond_distance
_geom_bond_site_symmetry_2
Na0 O22 2.331205 1_565
Na0 O0 2.353481 1_555
Na0 O18 2.365553 1_565
Na0 O21 2.427824 1_565
Na0 O3 2.508040 1_555
Na0 O16 2.635460 1_565
Na0 O19 2.849803 1_655
Na1 O0 2.360672 1_555
Na1 O17 2.384128 1_654
Na1 O2 2.398510 1_554
Na1 O1 2.448582 1_555
Na1 O15 2.590156 1_654
Na1 O3 2.636472 1_555
Na1 O20 2.773373 1_655
Na2 O10 2.339529 1_555
Na2 O13 2.353694 1_555
Na2 O25 2.359847 1_655
Na2 O4 2.505931 1_555
Na2 O8 2.544542 1_555
Na2 O12 2.693531 1_555
Na2 O6 2.796953 1_555
Na3 O9 2.345635 1_556
Na3 O5 2.355632 1_556
Na3 O13 2.359023 1_555
Na3 O4 2.502971 1_555
Na3 O7 2.554450 1_555
Na3 O11 2.694316 1_556
Na3 O26 2.781812 1_565
Na4 O16 2.330854 1_555
Na4 O27 2.393997 1_655
Na4 O7 2.430062 1_555
Na4 O8 2.537498 1_555
Na4 O18 2.646243 1_555
Na4 O13 2.764333 1_555
Na5 O14 2.291071 1_555
Na5 O2 2.439330 1_455
Na5 O19 2.442024 1_555
Na5 O23 2.477276 1_555
Na5 O17 2.512993 1_555
Na5 O15 2.777206 1_555
Na5 O21 2.962086 1_555
Na6 O27 2.336617 1_555
Na6 O25 2.353136 1_556
Na6 O26 2.393905 1_555
Na6 O10 2.409197 1_456
Na6 O12 2.542653 1_456
Na6 O24 2.580988 1_555
Na7 O27 2.323991 1_555
Na7 O5 2.335857 1_545
Na7 O6 2.409367 1_545
Na7 O9 2.412806 1_545
Na7 O11 2.585535 1_545
Na7 O24 2.588386 1_555
Ni0 O4 1.958721 1_555
Ni0 O15 2.026959 1_655
Ni0 O2 2.056917 1_555
Ni0 O1 2.069586 1_556
Ni0 O18 2.122840 1_565
Ni0 O19 2.150781 1_655
Ni1 O3 1.949353 1_555
Ni1 O5 1.964456 1_555
Ni1 O11 2.017033 1_555
Ni1 O10 2.021114 1_555
Ni1 O7 2.128078 1_554
Ni1 O6 2.167911 1_555
Ni2 O22 1.958501 1_555
Ni2 O24 2.011565 1_555
Ni2 O16 2.043611 1_555
Ni2 O20 2.063348 1_556
Ni2 O17 2.095282 1_555
Ni2 O21 2.208366 1_555
Ni3 O23 1.940895 1_555
Ni3 O25 2.010790 1_555
Ni3 O12 2.028840 1_455
Ni3 O9 2.068616 1_545
Ni3 O26 2.106742 1_554
Ni3 O8 2.145721 1_455
C0 O27 1.275618 1_665
C0 O18 1.291680 1_565
C0 O15 1.297469 1_655
C1 O14 1.242492 1_555
C1 O11 1.306086 1_555
C1 O10 1.316036 1_555
C2 O13 1.266855 1_555
C2 O16 1.302805 1_555
C2 O17 1.303985 1_555
C3 O0 1.255520 1_445
C3 O12 1.303249 1_455
C3 O9 1.307324 1_545
O1 P3 1.537898 1_565
O2 P1 1.540324 1_555
O3 P2 1.583598 1_655
O4 P0 1.578271 1_555
O5 P3 1.565500 1_565
O6 P0 1.546246 1_555
O7 P1 1.558440 1_555
O8 P1 1.557357 1_555
O19 P2 1.542718 1_555
O20 P2 1.524988 1_555
O21 P3 1.536960 1_555
O22 P0 1.540823 1_545
O23 P3 1.563336 1_555
O24 P1 1.573187 1_455
O25 P2 1.557028 1_555
O26 P0 1.539430 1_545
