# generated using pymatgen
data_LiV6O7F5
_symmetry_space_group_name_H-M   'P 1'
_cell_length_a   5.67593800
_cell_length_b   5.69250903
_cell_length_c   7.56164558
_cell_angle_alpha   71.37583412
_cell_angle_beta   71.13983753
_cell_angle_gamma   72.15435085
_symmetry_Int_Tables_number   1
_chemical_formula_structural   LiV6O7F5
_chemical_formula_sum   'Li1 V6 O7 F5'
_cell_volume   213.39481685
_cell_formula_units_Z   1
loop_
 _symmetry_equiv_pos_site_id
 _symmetry_equiv_pos_as_xyz
  1  'x, y, z'
loop_
 _atom_site_type_symbol
 _atom_site_label
 _atom_site_symmetry_multiplicity
 _atom_site_fract_x
 _atom_site_fract_y
 _atom_site_fract_z
 _atom_site_occupancy
  Li  Li0  1  0.43168600  0.92655300  0.57224300  1
  V  V0  1  0.67865400  0.66293100  0.84887500  1
  V  V1  1  0.37482800  0.33869500  0.69035300  1
  V  V2  1  0.66845400  0.65498800  0.32020300  1
  V  V3  1  0.98990500  0.02446700  0.48392900  1
  V  V4  1  0.32043700  0.30624500  0.15916800  1
  V  V5  1  0.97092200  0.02415700  0.99764800  1
  O  O0  1  0.22181400  0.22275100  0.96842700  1
  O  O1  1  0.57650800  0.57931700  0.62968700  1
  O  O2  1  0.64319500  0.02508200  0.66771600  1
  O  O3  1  0.96585100  0.36447900  0.32908800  1
  O  O4  1  0.35818300  0.94886800  0.34347900  1
  O  O5  1  0.77191400  0.77227700  0.03439900  1
  O  O6  1  0.68048600  0.31157800  0.00234100  1
  F  F0  1  0.05021800  0.63583000  0.66376100  1
  F  F1  1  0.11063700  0.10851900  0.69260500  1
  F  F2  1  0.88873500  0.90423700  0.29578000  1
  F  F3  1  0.43037300  0.41519000  0.37374600  1
  F  F4  1  0.29095500  0.70205300  0.00208100  1
loop_
_geom_bond_atom_site_label_1
_geom_bond_atom_site_label_2
_geom_bond_distance
_geom_bond_site_symmetry_2
Li0 O1 1.859589 1_555
Li0 O4 1.864473 1_555
Li0 O2 1.873140 1_565
O0 V4 1.934537 1_556
O0 V1 1.973699 1_555
O0 V5 1.994615 1_455
O1 V1 1.901896 1_555
O1 V0 2.145696 1_555
O1 V2 2.153788 1_555
O2 V1 1.973967 1_555
O2 V3 2.008672 1_555
O2 V0 2.070552 1_545
O3 V3 1.905176 1_555
O3 V2 1.969800 1_555
O3 V4 2.000663 1_655
O4 V3 1.996965 1_465
O4 V2 2.028049 1_555
O4 V4 2.059589 1_565
O5 V0 1.968621 1_554
O5 V5 1.986003 1_564
O5 V2 1.989817 1_555
O6 V5 1.934403 1_554
O6 V0 1.964605 1_554
O6 V4 2.007932 1_555
F0 V1 2.099595 1_555
F0 V0 2.112075 1_455
F0 V3 2.185396 1_465
F1 Li0 1.896029 1_545
F1 V5 2.126808 1_455
F1 V3 2.137912 1_455
F1 V1 2.266980 1_555
F2 V3 2.052629 1_565
F2 V5 2.073192 1_564
F2 V2 2.093119 1_555
F3 V2 2.068154 1_555
F3 V4 2.222873 1_555
F3 V1 2.225058 1_555
F4 V0 2.109591 1_554
F4 V5 2.149762 1_464
F4 V4 2.168774 1_555
