# generated using pymatgen
data_Li10Fe2Co3Ni3O16
_symmetry_space_group_name_H-M   'P 1'
_cell_length_a   5.83187600
_cell_length_b   5.91235601
_cell_length_c   9.58018738
_cell_angle_alpha   90.84411599
_cell_angle_beta   90.37280067
_cell_angle_gamma   119.24404975
_symmetry_Int_Tables_number   1
_chemical_formula_structural   Li10Fe2Co3Ni3O16
_chemical_formula_sum   'Li10 Fe2 Co3 Ni3 O16'
_cell_volume   288.15811382
_cell_formula_units_Z   1
loop_
 _symmetry_equiv_pos_site_id
 _symmetry_equiv_pos_as_xyz
  1  'x, y, z'
loop_
 _atom_site_type_symbol
 _atom_site_label
 _atom_site_symmetry_multiplicity
 _atom_site_fract_x
 _atom_site_fract_y
 _atom_site_fract_z
 _atom_site_occupancy
  Li  Li0  1  0.19033100  0.81046900  0.05202500  1
  Li  Li1  1  0.81710700  0.62802800  0.54729700  1
  Li  Li2  1  0.62894600  0.81042600  0.05091500  1
  Li  Li3  1  0.34848400  0.67414100  0.26667600  1
  Li  Li4  1  0.01502800  0.99839100  0.47292800  1
  Li  Li5  1  0.41547200  0.22182000  0.54383800  1
  Li  Li6  1  0.68340300  0.35251600  0.76992000  1
  Li  Li7  1  0.21144900  0.41346500  0.04093800  1
  Li  Li8  1  0.82675900  0.20284000  0.55159300  1
  Li  Li9  1  0.00992300  0.01199200  0.97545900  1
  Fe  Fe0  1  0.66411600  0.31747700  0.02836900  1
  Fe  Fe1  1  0.33962900  0.66702400  0.52298700  1
  Co  Co0  1  0.83854500  0.65817000  0.28000600  1
  Co  Co1  1  0.17746300  0.84069300  0.77978800  1
  Co  Co2  1  0.67153600  0.84018800  0.78006800  1
  Ni  Ni0  1  0.17845000  0.34532200  0.77861400  1
  Ni  Ni1  1  0.34440600  0.16885000  0.27916300  1
  Ni  Ni2  1  0.84280300  0.16772100  0.28053000  1
  O  O0  1  0.99516900  0.97447400  0.17092800  1
  O  O1  1  0.99620700  0.98932900  0.67206500  1
  O  O2  1  0.16480300  0.81741800  0.39798000  1
  O  O3  1  0.84971400  0.68805500  0.89225900  1
  O  O4  1  0.52520600  0.49952800  0.15522100  1
  O  O5  1  0.49440100  0.98278900  0.66043100  1
  O  O6  1  0.98707600  0.49698900  0.15466600  1
  O  O7  1  0.68580900  0.35019100  0.39351700  1
  O  O8  1  0.03033000  0.52939600  0.66063100  1
  O  O9  1  0.67767600  0.82031300  0.40165500  1
  O  O10  1  0.35209000  0.69267600  0.89011300  1
  O  O11  1  0.33956900  0.16643100  0.89997200  1
  O  O12  1  0.51368900  0.01504800  0.15520800  1
  O  O13  1  0.51028800  0.52957400  0.66157600  1
  O  O14  1  0.18008700  0.33155700  0.41044200  1
  O  O15  1  0.83386900  0.16658600  0.89935900  1
loop_
_geom_bond_atom_site_label_1
_geom_bond_atom_site_label_2
_geom_bond_distance
_geom_bond_site_symmetry_2
Li0 O12 1.925677 1_565
Li0 O6 1.931169 1_455
Li0 O10 2.100032 1_554
Li0 O0 2.143795 1_455
Li0 O3 2.309877 1_454
Li0 O11 2.371885 1_564
Li1 O13 1.940556 1_555
Li1 O8 1.942883 1_655
Li1 O7 2.034743 1_555
Li1 O1 2.193473 1_555
Li1 O9 2.199010 1_555
Li1 O2 2.297446 1_655
Li2 O12 1.918688 1_565
Li2 O4 1.928405 1_555
Li2 O10 2.074252 1_554
Li2 O0 2.176086 1_555
Li2 O3 2.322616 1_554
Li2 O15 2.371571 1_564
Li3 O4 2.071113 1_555
Li3 O12 2.076190 1_565
Li3 O2 2.078501 1_555
Li3 O9 2.101998 1_555
Li3 O6 2.114565 1_455
Li3 O14 2.262799 1_555
Li4 O2 1.822642 1_555
Li4 O14 1.831573 1_565
Li4 O9 1.839251 1_455
Li4 O1 1.911673 1_455
Li5 O13 1.958868 1_555
Li5 O7 2.007022 1_555
Li5 O5 2.032777 1_545
Li5 O14 2.193248 1_555
Li5 O1 2.486362 1_445
Li5 O2 2.503247 1_545
Li6 O13 2.059968 1_555
Li6 O8 2.067817 1_655
Li6 O3 2.070423 1_555
Li6 O15 2.117700 1_555
Li6 O5 2.157963 1_545
Li6 O11 2.168171 1_555
Li7 O6 1.943506 1_455
Li7 O4 1.963050 1_555
Li7 O10 2.061179 1_554
Li7 O11 2.352991 1_554
Li7 O15 2.362508 1_454
Li8 O8 1.978175 1_655
Li8 O5 2.034485 1_545
Li8 O7 2.109605 1_555
Li8 O1 2.269152 1_545
Li8 O14 2.277738 1_655
Li8 O9 2.429207 1_545
Li9 O15 1.829730 1_455
Li9 O3 1.836661 1_445
Li9 O11 1.837116 1_555
Li9 O0 1.886541 1_446
Fe0 O12 1.997151 1_555
Fe0 O6 2.029093 1_555
Fe0 O4 2.029261 1_555
Fe0 O15 2.037116 1_554
Fe0 O11 2.044212 1_554
Fe0 O3 2.336183 1_554
Fe1 O14 2.020631 1_555
Fe1 O2 2.040992 1_555
Fe1 O13 2.053925 1_555
Fe1 O8 2.069570 1_555
Fe1 O5 2.073533 1_555
Fe1 O9 2.091469 1_555
Co0 O7 1.943659 1_555
Co0 O0 1.955662 1_555
Co0 O6 1.971468 1_555
Co0 O4 1.977875 1_555
Co0 O2 1.993596 1_655
Co0 O9 2.004350 1_555
Co1 O10 1.950421 1_555
Co1 O8 1.951704 1_555
Co1 O1 1.968461 1_455
Co1 O5 1.992054 1_555
Co1 O3 1.999727 1_455
Co1 O11 2.017429 1_565
Co2 O13 1.944956 1_555
Co2 O10 1.951379 1_555
Co2 O1 1.963240 1_555
Co2 O5 1.988887 1_555
Co2 O3 1.992778 1_555
Co2 O15 2.015510 1_565
Ni0 O8 2.037217 1_555
Ni0 O13 2.047794 1_555
Ni0 O10 2.067222 1_555
Ni0 O1 2.082896 1_445
Ni0 O11 2.084779 1_555
Ni0 O15 2.117665 1_455
Ni1 O12 2.017989 1_555
Ni1 O7 2.040873 1_555
Ni1 O0 2.048058 1_445
Ni1 O14 2.075144 1_555
Ni1 O4 2.101082 1_555
Ni1 O2 2.160743 1_545
Ni2 O7 2.029133 1_555
Ni2 O0 2.041139 1_545
Ni2 O12 2.045842 1_555
Ni2 O14 2.104125 1_655
Ni2 O6 2.105633 1_555
Ni2 O9 2.155215 1_545
