# generated using pymatgen
data_LiP2WO7
_symmetry_space_group_name_H-M   'P 1'
_cell_length_a   8.58250100
_cell_length_b   7.23915300
_cell_length_c   9.11082793
_cell_angle_alpha   66.53656027
_cell_angle_beta   90.00000000
_cell_angle_gamma   90.00000000
_symmetry_Int_Tables_number   1
_chemical_formula_structural   LiP2WO7
_chemical_formula_sum   'Li4 P8 W4 O28'
_cell_volume   519.25135652
_cell_formula_units_Z   4
loop_
 _symmetry_equiv_pos_site_id
 _symmetry_equiv_pos_as_xyz
  1  'x, y, z'
loop_
 _atom_site_type_symbol
 _atom_site_label
 _atom_site_symmetry_multiplicity
 _atom_site_fract_x
 _atom_site_fract_y
 _atom_site_fract_z
 _atom_site_occupancy
  Li  Li0  1  0.95245600  0.71296600  0.16779200  1
  Li  Li1  1  0.45245600  0.28703400  0.33220800  1
  Li  Li2  1  0.54754400  0.71296600  0.66779200  1
  Li  Li3  1  0.04754400  0.28703400  0.83220800  1
  P  P0  1  0.72650800  0.45941700  0.47093800  1
  P  P1  1  0.22650800  0.54058300  0.02906200  1
  P  P2  1  0.73387200  0.06204400  0.75334900  1
  P  P3  1  0.23387200  0.93795600  0.74665100  1
  P  P4  1  0.76612800  0.06204400  0.25334900  1
  P  P5  1  0.26612800  0.93795600  0.24665100  1
  P  P6  1  0.77349200  0.45941700  0.97093800  1
  P  P7  1  0.27349200  0.54058300  0.52906200  1
  W  W0  1  0.57679800  0.75797100  0.11344900  1
  W  W1  1  0.07679800  0.24202900  0.38655100  1
  W  W2  1  0.92320200  0.75797100  0.61344900  1
  W  W3  1  0.42320200  0.24202900  0.88655100  1
  O  O0  1  0.59575400  0.51209800  0.34595800  1
  O  O1  1  0.88620600  0.43097400  0.40862400  1
  O  O2  1  0.76661400  0.60982700  0.05155500  1
  O  O3  1  0.26661400  0.39017300  0.44844500  1
  O  O4  1  0.38620600  0.56902600  0.09137600  1
  O  O5  1  0.66280500  0.24925400  0.60186100  1
  O  O6  1  0.09575400  0.48790200  0.15404200  1
  O  O7  1  0.23562500  0.11306000  0.80223900  1
  O  O8  1  0.88381300  0.11470700  0.80855200  1
  O  O9  1  0.59652200  0.02089900  0.87812400  1
  O  O10  1  0.83719500  0.24925400  0.10186100  1
  O  O11  1  0.09652200  0.97910100  0.62187600  1
  O  O12  1  0.26437500  0.11306000  0.30223900  1
  O  O13  1  0.61618700  0.11470700  0.30855200  1
  O  O14  1  0.38381300  0.88529300  0.69144800  1
  O  O15  1  0.73562500  0.88694000  0.69776100  1
  O  O16  1  0.90347800  0.02089900  0.37812400  1
  O  O17  1  0.16280500  0.75074600  0.89813900  1
  O  O18  1  0.40347800  0.97910100  0.12187600  1
  O  O19  1  0.11618700  0.88529300  0.19144800  1
  O  O20  1  0.76437500  0.88694000  0.19776100  1
  O  O21  1  0.90424600  0.51209800  0.84595800  1
  O  O22  1  0.33719500  0.75074600  0.39813900  1
  O  O23  1  0.61379400  0.43097400  0.90862400  1
  O  O24  1  0.73338600  0.60982700  0.55155500  1
  O  O25  1  0.23338600  0.39017300  0.94844500  1
  O  O26  1  0.11379400  0.56902600  0.59137600  1
  O  O27  1  0.40424600  0.48790200  0.65404200  1
loop_
_geom_bond_atom_site_label_1
_geom_bond_atom_site_label_2
_geom_bond_distance
_geom_bond_site_symmetry_2
Li0 O19 1.947169 1_655
Li0 O6 2.084539 1_655
Li0 O20 2.130774 1_555
Li0 O2 2.202869 1_555
Li0 O1 2.395430 1_555
Li1 O13 1.947169 1_555
Li1 O0 2.084539 1_555
Li1 O12 2.130774 1_555
Li1 O3 2.202869 1_555
Li1 O4 2.395430 1_555
Li2 O14 1.947169 1_555
Li2 O27 2.084539 1_555
Li2 O15 2.130774 1_555
Li2 O24 2.202869 1_555
Li2 O23 2.395430 1_555
Li3 O8 1.947169 1_455
Li3 O21 2.084539 1_455
Li3 O7 2.130774 1_555
Li3 O25 2.202869 1_555
Li3 O26 2.395430 1_555
O0 P0 1.534774 1_555
O0 W0 2.163198 1_555
O1 P0 1.528520 1_555
O1 W1 2.192274 1_655
O2 P6 1.537981 1_554
O2 W0 2.145611 1_555
O3 P7 1.537981 1_555
O3 W1 2.145611 1_555
O4 P1 1.528520 1_555
O4 W0 2.192274 1_555
O5 P0 1.609737 1_555
O5 P2 1.619902 1_555
O6 P1 1.534774 1_555
O6 W1 2.163198 1_555
O7 P3 1.541029 1_545
O7 W3 2.150472 1_555
O8 P2 1.485602 1_555
O9 P2 1.581451 1_555
O9 W3 2.208851 1_555
O9 W0 2.235747 1_546
O10 P6 1.609737 1_554
O10 P4 1.619902 1_555
O11 P3 1.581451 1_555
O11 W2 2.208851 1_455
O11 W1 2.235747 1_565
O12 P5 1.541029 1_545
O12 W1 2.150472 1_555
O13 P4 1.485602 1_555
O14 P3 1.485602 1_555
O15 P2 1.541029 1_565
O15 W2 2.150472 1_555
O16 P4 1.581451 1_555
O16 W1 2.208851 1_655
O16 W2 2.235747 1_545
O17 P1 1.609737 1_556
O17 P3 1.619902 1_555
O18 P5 1.581451 1_555
O18 W0 2.208851 1_555
O18 W3 2.235747 1_564
O19 P5 1.485602 1_555
O20 P4 1.541029 1_565
O20 W0 2.150472 1_555
O21 P6 1.534774 1_555
O21 W2 2.163198 1_555
O22 P7 1.609737 1_555
O22 P5 1.619902 1_555
O23 P6 1.528520 1_555
O23 W3 2.192274 1_555
O24 P0 1.537981 1_555
O24 W2 2.145611 1_555
O25 P1 1.537981 1_556
O25 W3 2.145611 1_555
O26 P7 1.528520 1_555
O26 W2 2.192274 1_455
O27 P7 1.534774 1_555
O27 W3 2.163198 1_555
