# generated using pymatgen
data_Li4Ti3Mn3(WO8)2
_symmetry_space_group_name_H-M   'P 1'
_cell_length_a   6.15143785
_cell_length_b   6.04086671
_cell_length_c   9.86907192
_cell_angle_alpha   90.23716336
_cell_angle_beta   91.54654732
_cell_angle_gamma   119.71010629
_symmetry_Int_Tables_number   1
_chemical_formula_structural   Li4Ti3Mn3(WO8)2
_chemical_formula_sum   'Li4 Ti3 Mn3 W2 O16'
_cell_volume   318.34458318
_cell_formula_units_Z   1
loop_
 _symmetry_equiv_pos_site_id
 _symmetry_equiv_pos_as_xyz
  1  'x, y, z'
loop_
 _atom_site_type_symbol
 _atom_site_label
 _atom_site_symmetry_multiplicity
 _atom_site_fract_x
 _atom_site_fract_y
 _atom_site_fract_z
 _atom_site_occupancy
  Li  Li0  1  0.31283000  0.65789600  0.90522200  1
  Li  Li1  1  0.00334300  0.00116000  0.98445500  1
  Li  Li2  1  0.02106600  0.00971300  0.49260300  1
  Li  Li3  1  0.65132800  0.32817400  0.40899500  1
  Ti  Ti0  1  0.19186700  0.85247900  0.21466500  1
  Ti  Ti1  1  0.16914500  0.34114900  0.21725300  1
  Ti  Ti2  1  0.34486200  0.18979600  0.72292500  1
  Mn  Mn0  1  0.66451900  0.82530000  0.20833400  1
  Mn  Mn1  1  0.84570200  0.65997400  0.70511400  1
  Mn  Mn2  1  0.83194200  0.17006300  0.70832800  1
  W  W0  1  0.34096500  0.67123200  0.48867800  1
  W  W1  1  0.68131500  0.34013300  0.98469200  1
  O  O0  1  0.18144800  0.83515000  0.58914300  1
  O  O1  1  0.04675600  0.52103200  0.34034900  1
  O  O2  1  0.30108000  0.65105300  0.10987600  1
  O  O3  1  0.02040400  0.00668300  0.30404500  1
  O  O4  1  0.02382800  0.01022700  0.79900400  1
  O  O5  1  0.18765400  0.34723400  0.59624900  1
  O  O6  1  0.45907600  0.96271800  0.34131200  1
  O  O7  1  0.45400300  0.49454000  0.34046800  1
  O  O8  1  0.33226900  0.16312500  0.10723500  1
  O  O9  1  0.66425400  0.82973600  0.56905400  1
  O  O10  1  0.49781000  0.46772500  0.85381800  1
  O  O11  1  0.49644400  0.04053000  0.86049300  1
  O  O12  1  0.62314800  0.30816200  0.60806100  1
  O  O13  1  0.84627400  0.65814200  0.09326200  1
  O  O14  1  0.95396200  0.47491000  0.85749000  1
  O  O15  1  0.85271100  0.18226100  0.09671600  1
loop_
_geom_bond_atom_site_label_1
_geom_bond_atom_site_label_2
_geom_bond_distance
_geom_bond_site_symmetry_2
Li0 O14 1.959044 1_455
Li0 O2 2.022848 1_556
Li0 O10 2.047919 1_555
Li0 O11 2.064193 1_565
Li1 O4 1.837132 1_555
Li1 O15 2.081612 1_456
Li1 O8 2.101217 1_556
Li1 O13 2.114298 1_446
Li2 O3 1.860781 1_555
Li2 O0 1.995469 1_545
Li2 O5 2.026997 1_555
Li2 O9 2.073575 1_445
Li3 O12 1.975824 1_555
Li3 O6 2.018864 1_545
Li3 O7 2.027631 1_555
Li3 O1 2.240437 1_655
Mn0 O3 2.094649 1_665
Mn0 O2 2.142903 1_555
Mn0 O13 2.176588 1_555
Mn0 O15 2.194896 1_565
Mn0 O7 2.217603 1_555
Mn0 O6 2.264711 1_555
Mn1 O4 2.041299 1_665
Mn1 O12 2.082480 1_555
Mn1 O14 2.156982 1_555
Mn1 O0 2.160222 1_655
Mn1 O9 2.272810 1_555
Mn1 O10 2.408811 1_555
Mn2 O4 2.050911 1_655
Mn2 O12 2.079686 1_555
Mn2 O14 2.160904 1_555
Mn2 O5 2.230701 1_655
Mn2 O9 2.231124 1_545
Mn2 O11 2.388099 1_555
O0 W0 1.983420 1_555
O0 Ti2 2.261350 1_565
O1 Ti1 2.018124 1_555
O1 W0 2.111844 1_555
O1 Ti0 2.157085 1_555
O2 Ti0 1.959282 1_555
O2 Ti1 1.960407 1_555
O3 Ti0 1.943100 1_545
O3 Ti1 1.969093 1_555
O4 Ti2 1.898351 1_555
O5 W0 2.022082 1_555
O5 Ti2 2.063709 1_555
O6 Ti0 1.872088 1_555
O6 W0 2.133941 1_555
O7 Ti1 1.916776 1_555
O7 W0 2.130710 1_555
O8 Ti0 1.962378 1_545
O8 Ti1 2.112141 1_555
O8 W1 2.256389 1_554
O9 W0 1.876706 1_555
O10 Ti2 1.929617 1_555
O10 W1 2.080510 1_555
O11 W1 1.984320 1_555
O11 Ti2 2.073881 1_555
O12 Ti2 1.903930 1_555
O13 W1 1.964745 1_554
O13 Ti0 2.170298 1_655
O14 W1 1.954561 1_555
O15 Ti1 2.034447 1_655
O15 W1 2.045948 1_554
