# generated using pymatgen
data_CaClO
_symmetry_space_group_name_H-M   'P 1'
_cell_length_a   3.99366582
_cell_length_b   3.99366582
_cell_length_c   9.32063400
_cell_angle_alpha   90.00000000
_cell_angle_beta   90.00000000
_cell_angle_gamma   119.99999698
_symmetry_Int_Tables_number   1
_chemical_formula_structural   CaClO
_chemical_formula_sum   'Ca2 Cl2 O2'
_cell_volume   128.74178958
_cell_formula_units_Z   2
loop_
 _symmetry_equiv_pos_site_id
 _symmetry_equiv_pos_as_xyz
  1  'x, y, z'
loop_
 _atom_site_type_symbol
 _atom_site_label
 _atom_site_symmetry_multiplicity
 _atom_site_fract_x
 _atom_site_fract_y
 _atom_site_fract_z
 _atom_site_occupancy
  Ca  Ca0  1  0.33333300  0.66666700  0.18908200  1
  Ca  Ca1  1  0.66666700  0.33333300  0.68908200  1
  Cl  Cl0  1  0.33333300  0.66666700  0.49541700  1
  Cl  Cl1  1  0.66666700  0.33333300  0.99541700  1
  O  O0  1  0.00000000  0.00000000  0.73250100  1
  O  O1  1  0.00000000  0.00000000  0.23250100  1
loop_
_geom_bond_atom_site_label_1
_geom_bond_atom_site_label_2
_geom_bond_distance
_geom_bond_site_symmetry_2
Ca0 O1 2.340987 1_565
Ca0 O1 2.340991 1_555
Ca0 O1 2.340991 1_665
Ca0 Cl0 2.855236 1_555
Ca0 Cl1 2.928269 1_454
Ca0 Cl1 2.928269 1_564
Ca0 Cl1 2.928275 1_554
Ca1 O0 2.340987 1_655
Ca1 O0 2.340991 1_665
Ca1 O0 2.340991 1_555
Ca1 Cl1 2.855236 1_555
Ca1 Cl0 2.928269 1_545
Ca1 Cl0 2.928269 1_655
Ca1 Cl0 2.928275 1_555
