# generated using pymatgen
data_LiMo2PO8
_symmetry_space_group_name_H-M   'P 1'
_cell_length_a   5.36580800
_cell_length_b   6.78948700
_cell_length_c   17.91956623
_cell_angle_alpha   89.08115643
_cell_angle_beta   90.00000000
_cell_angle_gamma   90.00000000
_symmetry_Int_Tables_number   1
_chemical_formula_structural   LiMo2PO8
_chemical_formula_sum   'Li4 Mo8 P4 O32'
_cell_volume   652.74527089
_cell_formula_units_Z   4
loop_
 _symmetry_equiv_pos_site_id
 _symmetry_equiv_pos_as_xyz
  1  'x, y, z'
loop_
 _atom_site_type_symbol
 _atom_site_label
 _atom_site_symmetry_multiplicity
 _atom_site_fract_x
 _atom_site_fract_y
 _atom_site_fract_z
 _atom_site_occupancy
  Li  Li0  1  0.78891200  0.74122600  0.78218200  1
  Li  Li1  1  0.28891200  0.25877400  0.21781800  1
  Li  Li2  1  0.78770600  0.75365000  0.29186600  1
  Li  Li3  1  0.28770600  0.24635000  0.70813400  1
  Mo  Mo0  1  0.72870400  0.84201700  0.45283500  1
  Mo  Mo1  1  0.22984200  0.33979700  0.04812600  1
  Mo  Mo2  1  0.22870400  0.15798300  0.54716500  1
  Mo  Mo3  1  0.73742900  0.99386300  0.12225300  1
  Mo  Mo4  1  0.72984200  0.66020300  0.95187400  1
  Mo  Mo5  1  0.23742900  0.00613700  0.87774700  1
  Mo  Mo6  1  0.22472500  0.49848200  0.37453000  1
  Mo  Mo7  1  0.72472500  0.50151800  0.62547000  1
  P  P0  1  0.21885400  0.69701600  0.18998800  1
  P  P1  1  0.72706100  0.19587400  0.30559300  1
  P  P2  1  0.71885400  0.30298400  0.81001200  1
  P  P3  1  0.22706100  0.80412600  0.69440700  1
  O  O0  1  0.46148300  0.52848600  0.99126600  1
  O  O1  1  0.45832700  0.32776600  0.60704900  1
  O  O2  1  0.74495700  0.00190500  0.35226500  1
  O  O3  1  0.68426400  0.13390900  0.22420900  1
  O  O4  1  0.40507200  0.84520800  0.15988200  1
  O  O5  1  0.74079800  0.83755600  0.04230200  1
  O  O6  1  0.71817900  0.66083800  0.54453500  1
  O  O7  1  0.01897800  0.79645700  0.91591500  1
  O  O8  1  0.24079800  0.16244400  0.95769800  1
  O  O9  1  0.96148300  0.47151400  0.00873400  1
  O  O10  1  0.44725400  0.21837400  0.81003800  1
  O  O11  1  0.21817900  0.33916200  0.45546500  1
  O  O12  1  0.94725400  0.78162600  0.18996200  1
  O  O13  1  0.28016500  0.64629300  0.27281900  1
  O  O14  1  0.23074400  0.49616800  0.14889300  1
  O  O15  1  0.46960000  0.68279400  0.68907000  1
  O  O16  1  0.95832700  0.67223400  0.39295100  1
  O  O17  1  0.02907100  0.14620000  0.10920400  1
  O  O18  1  0.73074400  0.50383200  0.85110700  1
  O  O19  1  0.24495700  0.99809500  0.64773500  1
  O  O20  1  0.52907100  0.85380000  0.89079600  1
  O  O21  1  0.99006400  0.68944200  0.67522000  1
  O  O22  1  0.96960000  0.31720600  0.31093000  1
  O  O23  1  0.46911100  0.68530300  0.41165400  1
  O  O24  1  0.96911100  0.31469700  0.58834600  1
  O  O25  1  0.51897800  0.20354300  0.08408500  1
  O  O26  1  0.90507200  0.15479200  0.84011800  1
  O  O27  1  0.78016500  0.35370700  0.72718100  1
  O  O28  1  0.47389900  0.01275000  0.50304300  1
  O  O29  1  0.97389900  0.98725000  0.49695700  1
  O  O30  1  0.49006400  0.31055800  0.32478000  1
  O  O31  1  0.18426400  0.86609100  0.77579100  1
loop_
_geom_bond_atom_site_label_1
_geom_bond_atom_site_label_2
_geom_bond_distance
_geom_bond_site_symmetry_2
Li0 O18 2.038849 1_555
Li0 O21 2.232486 1_555
Li0 O31 2.286696 1_655
Li0 O15 2.428627 1_555
Li0 O20 2.522696 1_555
Li1 O14 2.038849 1_555
Li1 O30 2.232486 1_555
Li1 O3 2.286696 1_555
Li1 O22 2.428627 1_455
Li1 O17 2.522696 1_555
Li2 O12 2.022973 1_555
Li2 O2 2.030651 1_565
Li2 O16 2.095898 1_555
Li3 O10 2.022973 1_555
Li3 O19 2.030651 1_545
Li3 O1 2.095898 1_555
Mo0 O29 1.831235 1_555
Mo0 O23 1.908429 1_555
Mo0 O16 2.009507 1_555
Mo0 O28 2.013944 1_565
Mo0 O6 2.037578 1_555
Mo0 O2 2.090721 1_565
Mo1 O9 1.830650 1_455
Mo1 O25 1.912821 1_555
Mo1 O17 2.009989 1_555
Mo1 O8 2.035135 1_554
Mo1 O0 2.045099 1_554
Mo1 O14 2.109319 1_555
Mo2 O28 1.831235 1_555
Mo2 O24 1.908429 1_455
Mo2 O1 2.009507 1_555
Mo2 O29 2.013944 1_445
Mo2 O11 2.037578 1_555
Mo2 O19 2.090721 1_545
Mo3 O5 1.796642 1_555
Mo3 O17 1.888273 1_665
Mo3 O25 1.958885 1_565
Mo3 O3 2.092642 1_565
Mo3 O4 2.152185 1_555
Mo3 O12 2.181764 1_555
Mo4 O0 1.830650 1_555
Mo4 O7 1.912821 1_655
Mo4 O20 2.009989 1_555
Mo4 O5 2.035135 1_556
Mo4 O9 2.045099 1_556
Mo4 O18 2.109319 1_555
Mo5 O8 1.796642 1_555
Mo5 O20 1.888273 1_545
Mo5 O7 1.958885 1_545
Mo5 O31 2.092642 1_545
Mo5 O26 2.152185 1_455
Mo5 O10 2.181764 1_555
Mo6 O11 1.795668 1_555
Mo6 O16 1.885846 1_455
Mo6 O23 1.948867 1_555
Mo6 O13 2.087797 1_555
Mo6 O30 2.118084 1_555
Mo6 O22 2.175476 1_455
Mo7 O6 1.795668 1_555
Mo7 O1 1.885846 1_555
Mo7 O24 1.948867 1_555
Mo7 O27 2.087797 1_555
Mo7 O21 2.118084 1_555
Mo7 O15 2.175476 1_555
O2 P1 1.551683 1_555
O3 P1 1.541506 1_555
O4 P0 1.511420 1_555
O10 P2 1.566484 1_555
O12 P0 1.566484 1_655
O13 P0 1.553566 1_555
O14 P0 1.561449 1_555
O15 P3 1.544014 1_555
O18 P2 1.561449 1_555
O19 P3 1.551683 1_555
O21 P3 1.533056 1_655
O22 P1 1.544014 1_555
O26 P2 1.511420 1_555
O27 P2 1.553566 1_555
O30 P1 1.533056 1_555
O31 P3 1.541506 1_555
