# generated using pymatgen
data_Li8Mn5Fe3(BO3)8
_symmetry_space_group_name_H-M   'P 1'
_cell_length_a   5.23191400
_cell_length_b   6.04379049
_cell_length_c   16.25217848
_cell_angle_alpha   82.25366668
_cell_angle_beta   88.79368791
_cell_angle_gamma   89.19839290
_symmetry_Int_Tables_number   1
_chemical_formula_structural   Li8Mn5Fe3(BO3)8
_chemical_formula_sum   'Li8 Mn5 Fe3 B8 O24'
_cell_volume   509.06877357
_cell_formula_units_Z   1
loop_
 _symmetry_equiv_pos_site_id
 _symmetry_equiv_pos_as_xyz
  1  'x, y, z'
loop_
 _atom_site_type_symbol
 _atom_site_label
 _atom_site_symmetry_multiplicity
 _atom_site_fract_x
 _atom_site_fract_y
 _atom_site_fract_z
 _atom_site_occupancy
  Li  Li0  1  0.84967400  0.06275600  0.39093600  1
  Li  Li1  1  0.15064400  0.43639200  0.10974900  1
  Li  Li2  1  0.65134700  0.18868300  0.85843800  1
  Li  Li3  1  0.34959900  0.31186000  0.63971000  1
  Li  Li4  1  0.65164300  0.68720600  0.35886000  1
  Li  Li5  1  0.34952100  0.81233400  0.14180600  1
  Li  Li6  1  0.84749600  0.56312200  0.89009800  1
  Li  Li7  1  0.15119500  0.93748700  0.60842400  1
  Mn  Mn0  1  0.66815700  0.27385700  0.04094500  1
  Mn  Mn1  1  0.16634000  0.02452100  0.78992800  1
  Mn  Mn2  1  0.16645200  0.52404400  0.29074200  1
  Mn  Mn3  1  0.66708700  0.77407600  0.54094200  1
  Mn  Mn4  1  0.33277800  0.72514000  0.96045600  1
  Fe  Fe0  1  0.32783200  0.22594100  0.46131500  1
  Fe  Fe1  1  0.83844100  0.47560700  0.71051600  1
  Fe  Fe2  1  0.83665400  0.97429200  0.21088100  1
  B  B0  1  0.32917800  0.03669000  0.29797500  1
  B  B1  1  0.82879400  0.28546400  0.54776600  1
  B  B2  1  0.67064400  0.46344800  0.20217000  1
  B  B3  1  0.16956400  0.21541300  0.95166000  1
  B  B4  1  0.83041100  0.78586100  0.04925700  1
  B  B5  1  0.32841900  0.53727200  0.79660800  1
  B  B6  1  0.17046500  0.71393800  0.45199600  1
  B  B7  1  0.67034900  0.96361600  0.70209600  1
  O  O0  1  0.58991200  0.01341900  0.30851400  1
  O  O1  1  0.18530300  0.16959500  0.34623600  1
  O  O2  1  0.70778000  0.16928900  0.49193700  1
  O  O3  1  0.28581300  0.33356300  0.00820300  1
  O  O4  1  0.78560800  0.08320500  0.75842300  1
  O  O5  1  0.82083700  0.32655500  0.15659800  1
  O  O6  1  0.32056800  0.08025000  0.90549600  1
  O  O7  1  0.09098100  0.26418300  0.55811900  1
  O  O8  1  0.41084200  0.48534400  0.18843100  1
  O  O9  1  0.90984000  0.23639000  0.93797100  1
  O  O10  1  0.68406300  0.41889800  0.59657300  1
  O  O11  1  0.20786500  0.42177500  0.73948100  1
  O  O12  1  0.78634300  0.58246200  0.25848900  1
  O  O13  1  0.32077800  0.57799100  0.40633900  1
  O  O14  1  0.09034200  0.76500000  0.06261800  1
  O  O15  1  0.58871400  0.51370500  0.80835700  1
  O  O16  1  0.91014200  0.73586700  0.43832000  1
  O  O17  1  0.68026300  0.91998900  0.09586800  1
  O  O18  1  0.18091400  0.66946700  0.84418100  1
  O  O19  1  0.20608500  0.92065000  0.24154000  1
  O  O20  1  0.71479200  0.66837300  0.99209600  1
  O  O21  1  0.28713100  0.83189800  0.50853700  1
  O  O22  1  0.82142000  0.82733900  0.65649800  1
  O  O23  1  0.41097700  0.98577600  0.68789900  1
loop_
_geom_bond_atom_site_label_1
_geom_bond_atom_site_label_2
_geom_bond_distance
_geom_bond_site_symmetry_2
Li0 O1 1.969705 1_655
Li0 O2 1.969870 1_555
Li0 O0 1.981404 1_555
Li0 O16 2.044247 1_545
Li1 O8 1.939723 1_555
Li1 O3 1.955771 1_555
Li1 O5 1.959159 1_455
Li1 O14 2.052598 1_555
Li2 O4 1.939245 1_555
Li2 O9 1.941112 1_555
Li2 O6 1.962214 1_555
Li2 O15 2.047143 1_555
Li3 O10 1.957003 1_555
Li3 O11 1.961223 1_555
Li3 O7 1.965105 1_555
Li3 O23 2.043838 1_545
Li4 O16 1.941741 1_555
Li4 O12 1.943160 1_555
Li4 O13 1.966241 1_555
Li4 O0 2.054095 1_565
Li5 O14 1.939195 1_555
Li5 O17 1.954796 1_555
Li5 O19 1.959618 1_555
Li5 O8 2.042431 1_555
Li6 O20 1.964197 1_555
Li6 O18 1.964747 1_655
Li6 O15 1.970064 1_555
Li6 O9 2.046868 1_555
Li7 O21 1.940718 1_555
Li7 O23 1.946139 1_555
Li7 O22 1.966120 1_455
Li7 O7 2.055362 1_565
Mn0 O3 2.094707 1_555
Mn0 O9 2.110917 1_554
Mn0 O5 2.122310 1_555
Mn0 O17 2.204267 1_545
Mn0 O20 2.423401 1_554
Mn1 O4 2.080884 1_455
Mn1 O23 2.109398 1_545
Mn1 O6 2.129379 1_555
Mn1 O18 2.208217 1_545
Mn1 O11 2.441364 1_555
Mn2 O12 2.080552 1_455
Mn2 O8 2.112197 1_555
Mn2 O13 2.126998 1_555
Mn2 O1 2.211161 1_555
Mn2 O19 2.432749 1_555
Mn3 O21 2.079964 1_555
Mn3 O16 2.111486 1_555
Mn3 O22 2.125260 1_555
Mn3 O10 2.215438 1_555
Mn3 O2 2.424714 1_565
Mn4 O20 2.086461 1_555
Mn4 O14 2.105770 1_556
Mn4 O18 2.134869 1_555
Mn4 O6 2.211317 1_565
Mn4 O3 2.403447 1_556
Fe0 O7 2.017949 1_555
Fe0 O2 2.071993 1_555
Fe0 O1 2.099411 1_555
Fe0 O13 2.193982 1_555
Fe0 O21 2.412581 1_545
Fe1 O11 2.010615 1_655
Fe1 O15 2.071572 1_555
Fe1 O10 2.107344 1_555
Fe1 O22 2.189191 1_555
Fe1 O4 2.412175 1_555
Fe2 O19 2.017100 1_655
Fe2 O0 2.060719 1_565
Fe2 O17 2.123309 1_555
Fe2 O5 2.193087 1_565
Fe2 O12 2.406440 1_555
B0 O0 1.381291 1_555
B0 O1 1.398246 1_555
B0 O19 1.399555 1_545
B1 O7 1.387614 1_655
B1 O2 1.387622 1_555
B1 O10 1.408192 1_555
B2 O8 1.383742 1_555
B2 O12 1.390894 1_555
B2 O5 1.404648 1_555
B3 O9 1.382880 1_455
B3 O3 1.391710 1_556
B3 O6 1.405911 1_555
B4 O14 1.383015 1_655
B4 O20 1.395223 1_554
B4 O17 1.403840 1_555
B5 O15 1.381864 1_555
B5 O18 1.398514 1_555
B5 O11 1.399556 1_555
B6 O16 1.386265 1_455
B6 O21 1.391989 1_555
B6 O13 1.402089 1_555
B7 O23 1.382904 1_555
B7 O4 1.392072 1_565
B7 O22 1.404964 1_555
