# generated using pymatgen
data_Li6NiOF6
_symmetry_space_group_name_H-M   'P 1'
_cell_length_a   2.90337549
_cell_length_b   14.59594513
_cell_length_c   5.80674109
_cell_angle_alpha   95.70700386
_cell_angle_beta   90.00012559
_cell_angle_gamma   84.29285349
_symmetry_Int_Tables_number   1
_chemical_formula_structural   Li6NiOF6
_chemical_formula_sum   'Li12 Ni2 O2 F12'
_cell_volume   243.62968091
_cell_formula_units_Z   2
loop_
 _symmetry_equiv_pos_site_id
 _symmetry_equiv_pos_as_xyz
  1  'x, y, z'
loop_
 _atom_site_type_symbol
 _atom_site_label
 _atom_site_symmetry_multiplicity
 _atom_site_fract_x
 _atom_site_fract_y
 _atom_site_fract_z
 _atom_site_occupancy
  Li  Li0  1  0.42732600  0.14534200  0.28633700  1
  Li  Li1  1  0.42732700  0.14534200  0.78633800  1
  Li  Li2  1  0.57267100  0.85465700  0.71366500  1
  Li  Li3  1  0.57267200  0.85465700  0.21366400  1
  Li  Li4  1  0.85520500  0.28956900  0.57239600  1
  Li  Li5  1  0.85520500  0.28957000  0.07239700  1
  Li  Li6  1  0.14479300  0.71042900  0.42760500  1
  Li  Li7  1  0.14479200  0.71042900  0.92760400  1
  Li  Li8  1  0.28534000  0.42931900  0.35733000  1
  Li  Li9  1  0.28534200  0.42931900  0.85732800  1
  Li  Li10  1  0.71465600  0.57068000  0.64267200  1
  Li  Li11  1  0.71465700  0.57068000  0.14267300  1
  Ni  Ni0  1  0.00002100  0.00000300  0.49998900  1
  Ni  Ni1  1  0.00000300  0.00001000  0.99999000  1
  O  O0  1  0.49999000  0.00000100  0.24999900  1
  O  O1  1  0.50000700  0.99999900  0.75000300  1
  F  F0  1  0.92511200  0.14977500  0.53744500  1
  F  F1  1  0.92510300  0.14977500  0.03744000  1
  F  F2  1  0.07488600  0.85022400  0.46255700  1
  F  F3  1  0.07489800  0.85022400  0.96256100  1
  F  F4  1  0.35564000  0.28874300  0.32218000  1
  F  F5  1  0.35564000  0.28874300  0.82218000  1
  F  F6  1  0.64435700  0.71125600  0.67782200  1
  F  F7  1  0.64435900  0.71125600  0.17782200  1
  F  F8  1  0.78524700  0.42955800  0.60737600  1
  F  F9  1  0.78524900  0.42955900  0.10737600  1
  F  F10  1  0.21475100  0.57044000  0.39262500  1
  F  F11  1  0.21475000  0.57044100  0.89262500  1
loop_
_geom_bond_atom_site_label_1
_geom_bond_atom_site_label_2
_geom_bond_distance
_geom_bond_site_symmetry_2
Li0 O0 2.100306 1_555
Li1 O1 2.100335 1_545
Li2 O1 2.100321 1_555
Li3 O0 2.100350 1_565
Ni0 O0 2.052888 1_555
Ni0 O0 2.053015 1_455
Ni0 O1 2.053021 1_545
Ni0 O1 2.053091 1_445
Ni1 O1 2.052929 1_545
Ni1 O1 2.052931 1_445
Ni1 O0 2.053003 1_556
Ni1 O0 2.053079 1_456
F0 Li4 2.020147 1_555
F0 Li0 2.053992 1_655
F0 Li1 2.053994 1_655
F0 Li0 2.053996 1_555
F0 Li1 2.054003 1_555
F0 Ni0 2.164338 1_655
F1 Li5 2.020162 1_555
F1 Li1 2.053951 1_554
F1 Li1 2.053987 1_654
F1 Li0 2.054003 1_555
F1 Li0 2.054026 1_655
F1 Ni1 2.164237 1_654
F2 Li6 2.020162 1_555
F2 Li3 2.053992 1_455
F2 Li2 2.053994 1_455
F2 Li2 2.053994 1_555
F2 Li3 2.054005 1_555
F2 Ni0 2.164440 1_565
F3 Li7 2.020162 1_555
F3 Li3 2.053951 1_556
F3 Li2 2.053991 1_555
F3 Li3 2.053996 1_456
F3 Li2 2.054031 1_455
F3 Ni1 2.164541 1_565
F4 Li8 2.031448 1_555
F4 Li5 2.052945 1_555
F4 Li4 2.053021 1_555
F4 Li5 2.053029 1_455
F4 Li4 2.053116 1_455
F4 Li0 2.072272 1_555
F5 Li9 2.031448 1_555
F5 Li4 2.052947 1_555
F5 Li5 2.053025 1_556
F5 Li4 2.053033 1_455
F5 Li5 2.053118 1_456
F5 Li1 2.072272 1_555
F6 Li10 2.031448 1_555
F6 Li7 2.052941 1_555
F6 Li6 2.053023 1_555
F6 Li7 2.053025 1_655
F6 Li6 2.053120 1_655
F6 Li2 2.072272 1_555
F7 Li11 2.031448 1_555
F7 Li6 2.052947 1_555
F7 Li6 2.053027 1_655
F7 Li7 2.053033 1_554
F7 Li7 2.053118 1_654
F7 Li3 2.072272 1_555
F8 Li4 2.022965 1_555
F8 Li10 2.039338 1_555
F8 Li8 2.052889 1_655
F8 Li9 2.052993 1_655
F8 Li8 2.052993 1_555
F8 Li9 2.053098 1_555
F9 Li5 2.022965 1_555
F9 Li11 2.039324 1_555
F9 Li9 2.052895 1_654
F9 Li8 2.052993 1_655
F9 Li9 2.053002 1_554
F9 Li8 2.053117 1_555
F10 Li6 2.022965 1_555
F10 Li8 2.039324 1_555
F10 Li10 2.052895 1_455
F10 Li11 2.052991 1_455
F10 Li10 2.052993 1_555
F10 Li11 2.053103 1_555
F11 Li7 2.022951 1_555
F11 Li9 2.039338 1_555
F11 Li11 2.052897 1_456
F11 Li10 2.052995 1_455
F11 Li11 2.053002 1_556
F11 Li10 2.053105 1_555
