# generated using pymatgen
data_LiMnF3
_symmetry_space_group_name_H-M   'P 1'
_cell_length_a   7.02957900
_cell_length_b   8.00754214
_cell_length_c   12.27668265
_cell_angle_alpha   106.02747982
_cell_angle_beta   93.87285877
_cell_angle_gamma   91.75172213
_symmetry_Int_Tables_number   1
_chemical_formula_structural   LiMnF3
_chemical_formula_sum   'Li10 Mn10 F30'
_cell_volume   661.79848872
_cell_formula_units_Z   10
loop_
 _symmetry_equiv_pos_site_id
 _symmetry_equiv_pos_as_xyz
  1  'x, y, z'
loop_
 _atom_site_type_symbol
 _atom_site_label
 _atom_site_symmetry_multiplicity
 _atom_site_fract_x
 _atom_site_fract_y
 _atom_site_fract_z
 _atom_site_occupancy
  Li  Li0  1  0.84701100  0.91389100  0.34938300  1
  Li  Li1  1  0.74218900  0.73667900  0.08569800  1
  Li  Li2  1  0.37127900  0.74061600  0.52797100  1
  Li  Li3  1  0.49949200  0.80208100  0.86183500  1
  Li  Li4  1  0.30268300  0.54134400  0.25886500  1
  Li  Li5  1  0.69731700  0.45865600  0.74113500  1
  Li  Li6  1  0.50050800  0.19791900  0.13816500  1
  Li  Li7  1  0.62872100  0.25938400  0.47202900  1
  Li  Li8  1  0.25781100  0.26332100  0.91430200  1
  Li  Li9  1  0.15298900  0.08610900  0.65061700  1
  Mn  Mn0  1  0.95811200  0.90173400  0.84556800  1
  Mn  Mn1  1  0.42643000  0.93258400  0.32316100  1
  Mn  Mn2  1  0.87838100  0.68871600  0.55943100  1
  Mn  Mn3  1  0.80729800  0.48584000  0.26605200  1
  Mn  Mn4  1  0.24137500  0.72209000  0.02438100  1
  Mn  Mn5  1  0.75862500  0.27791000  0.97561900  1
  Mn  Mn6  1  0.19270200  0.51416000  0.73394800  1
  Mn  Mn7  1  0.12161900  0.31128400  0.44056900  1
  Mn  Mn8  1  0.57357000  0.06741600  0.67683900  1
  Mn  Mn9  1  0.04188800  0.09826600  0.15443200  1
  F  F0  1  0.96087900  0.84514300  0.02805000  1
  F  F1  1  0.96587000  0.93697000  0.67987400  1
  F  F2  1  0.66511000  0.85494200  0.22506600  1
  F  F3  1  0.90311700  0.71317300  0.39303800  1
  F  F4  1  0.52485000  0.73079300  0.99384200  1
  F  F5  1  0.83332800  0.51946700  0.10025900  1
  F  F6  1  0.68052400  0.97364200  0.85309800  1
  F  F7  1  0.61673700  0.78575900  0.60805200  1
  F  F8  1  0.90818100  0.62011100  0.72953900  1
  F  F9  1  0.32637300  0.97397500  0.55772900  1
  F  F10  1  0.23455200  0.71409400  0.18718800  1
  F  F11  1  0.82858400  0.41267200  0.44205400  1
  F  F12  1  0.40376200  0.71392000  0.38041200  1
  F  F13  1  0.77592600  0.19381600  0.13740100  1
  F  F14  1  0.52420300  0.41883700  0.24023800  1
  F  F15  1  0.47579700  0.58116300  0.75976200  1
  F  F16  1  0.22407400  0.80618400  0.86259900  1
  F  F17  1  0.59623800  0.28608000  0.61958800  1
  F  F18  1  0.17141600  0.58732800  0.55794600  1
  F  F19  1  0.76544800  0.28590600  0.81281200  1
  F  F20  1  0.67362700  0.02602500  0.44227100  1
  F  F21  1  0.09181900  0.37988900  0.27046100  1
  F  F22  1  0.38326300  0.21424100  0.39194800  1
  F  F23  1  0.31947600  0.02635800  0.14690200  1
  F  F24  1  0.16667200  0.48053300  0.89974100  1
  F  F25  1  0.47515000  0.26920700  0.00615800  1
  F  F26  1  0.09688300  0.28682700  0.60696200  1
  F  F27  1  0.33489000  0.14505800  0.77493400  1
  F  F28  1  0.03413000  0.06303000  0.32012600  1
  F  F29  1  0.03912100  0.15485700  0.97195000  1
loop_
_geom_bond_atom_site_label_1
_geom_bond_atom_site_label_2
_geom_bond_distance
_geom_bond_site_symmetry_2
F0 Li1 2.005810 1_555
F0 Mn9 2.216621 1_665
F0 Mn4 2.228697 1_655
F0 Mn0 2.404120 1_554
F1 Li9 1.868167 1_665
F1 Mn0 2.133406 1_555
F1 Mn2 2.166949 1_555
F2 Li1 1.838399 1_555
F2 Li0 1.867835 1_555
F2 Mn1 2.138969 1_555
F3 Li0 1.874012 1_555
F3 Mn3 2.100941 1_555
F3 Mn2 2.123262 1_555
F4 Li1 1.828001 1_556
F4 Li3 1.860657 1_555
F4 Mn4 2.055036 1_556
F5 Li1 1.921469 1_555
F5 Mn5 2.133912 1_554
F5 Mn3 2.144465 1_555
F6 Li3 1.873810 1_555
F6 Mn0 2.052180 1_555
F6 Mn5 2.506614 1_565
F6 Mn8 2.554106 1_565
F7 Li2 1.900242 1_555
F7 Mn2 2.079068 1_555
F7 Mn8 2.217362 1_565
F8 Li5 1.975321 1_555
F8 Mn6 2.199421 1_655
F8 Mn2 2.299648 1_555
F8 Mn0 2.312579 1_555
F9 Li9 1.811470 1_565
F9 Li2 1.843793 1_555
F9 Mn8 2.165816 1_565
F10 Li4 1.890227 1_555
F10 Mn4 2.021077 1_555
F10 Mn1 2.367639 1_555
F11 Li7 1.956989 1_555
F11 Mn7 2.236481 1_655
F11 Mn2 2.282699 1_555
F11 Mn3 2.386445 1_555
F12 Li2 1.795695 1_555
F12 Li4 1.816386 1_555
F12 Mn1 2.064679 1_555
F13 Li6 1.937967 1_555
F13 Mn9 2.060951 1_655
F13 Mn5 2.263609 1_554
F13 Mn3 2.427603 1_555
F14 Li4 1.859324 1_555
F14 Li6 1.859338 1_555
F14 Mn3 2.025880 1_555
F15 Li5 1.859324 1_555
F15 Li3 1.859338 1_555
F15 Mn6 2.025880 1_555
F16 Li3 1.937967 1_555
F16 Mn0 2.060951 1_455
F16 Mn4 2.263609 1_556
F16 Mn6 2.427603 1_555
F17 Li7 1.795695 1_555
F17 Li5 1.816386 1_555
F17 Mn8 2.064679 1_555
F18 Li2 1.956989 1_555
F18 Mn2 2.236481 1_455
F18 Mn7 2.282699 1_555
F18 Mn6 2.386445 1_555
F19 Li5 1.890227 1_555
F19 Mn5 2.021077 1_555
F19 Mn8 2.367639 1_555
F20 Li0 1.811470 1_545
F20 Li7 1.843793 1_555
F20 Mn1 2.165816 1_545
F21 Li4 1.975321 1_555
F21 Mn3 2.199421 1_455
F21 Mn7 2.299648 1_555
F21 Mn9 2.312579 1_555
F22 Li7 1.900242 1_555
F22 Mn7 2.079068 1_555
F22 Mn1 2.217362 1_545
F23 Li6 1.873810 1_555
F23 Mn9 2.052180 1_555
F23 Mn4 2.506614 1_545
F23 Mn1 2.554106 1_545
F24 Li8 1.921469 1_555
F24 Mn4 2.133912 1_556
F24 Mn6 2.144465 1_555
F25 Li8 1.828001 1_554
F25 Li6 1.860657 1_555
F25 Mn5 2.055036 1_554
F26 Li9 1.874012 1_555
F26 Mn6 2.100941 1_555
F26 Mn7 2.123262 1_555
F27 Li8 1.838399 1_555
F27 Li9 1.867835 1_555
F27 Mn8 2.138969 1_555
F28 Li0 1.868167 1_445
F28 Mn9 2.133406 1_555
F28 Mn7 2.166949 1_555
F29 Li8 2.005810 1_555
F29 Mn0 2.216621 1_445
F29 Mn5 2.228697 1_455
F29 Mn9 2.404120 1_556
