# generated using pymatgen
data_KRb2YF6
_symmetry_space_group_name_H-M   'P 1'
_cell_length_a   6.75063200
_cell_length_b   6.58136500
_cell_length_c   11.42318791
_cell_angle_alpha   55.08607246
_cell_angle_beta   90.00000000
_cell_angle_gamma   90.00000000
_symmetry_Int_Tables_number   1
_chemical_formula_structural   KRb2YF6
_chemical_formula_sum   'K2 Rb4 Y2 F12'
_cell_volume   416.16768005
_cell_formula_units_Z   2
loop_
 _symmetry_equiv_pos_site_id
 _symmetry_equiv_pos_as_xyz
  1  'x, y, z'
loop_
 _atom_site_type_symbol
 _atom_site_label
 _atom_site_symmetry_multiplicity
 _atom_site_fract_x
 _atom_site_fract_y
 _atom_site_fract_z
 _atom_site_occupancy
  K  K0  1  0.00000000  0.50000000  0.50000000  1
  K  K1  1  0.50000000  0.50000000  0.00000000  1
  Rb  Rb0  1  0.95622100  0.26266300  0.24813800  1
  Rb  Rb1  1  0.54377900  0.26266300  0.74813800  1
  Rb  Rb2  1  0.45622100  0.73733700  0.25186200  1
  Rb  Rb3  1  0.04377900  0.73733700  0.75186200  1
  Y  Y0  1  0.00000000  0.00000000  0.00000000  1
  Y  Y1  1  0.50000000  0.00000000  0.50000000  1
  F  F0  1  0.26711100  0.23061300  0.94616900  1
  F  F1  1  0.76711100  0.76938700  0.55383100  1
  F  F2  1  0.73288900  0.76938700  0.05383100  1
  F  F3  1  0.23288900  0.23061300  0.44616900  1
  F  F4  1  0.18185500  0.68792400  0.04111500  1
  F  F5  1  0.68185500  0.31207600  0.45888500  1
  F  F6  1  0.81814500  0.31207600  0.95888500  1
  F  F7  1  0.31814500  0.68792400  0.54111500  1
  F  F8  1  0.46118700  0.86469300  0.72493300  1
  F  F9  1  0.96118700  0.13530700  0.77506700  1
  F  F10  1  0.53881300  0.13530700  0.27506700  1
  F  F11  1  0.03881300  0.86469300  0.22493300  1
loop_
_geom_bond_atom_site_label_1
_geom_bond_atom_site_label_2
_geom_bond_distance
_geom_bond_site_symmetry_2
F0 Y0 2.205622 1_556
F0 K1 2.690917 1_556
F0 Rb1 2.846724 1_555
F0 Rb3 3.138172 1_555
F0 Rb2 3.374352 1_546
F1 Y1 2.205622 1_565
F1 K0 2.690917 1_655
F1 Rb3 2.846724 1_655
F1 Rb1 3.138172 1_555
F1 Rb0 3.374352 1_565
F2 Y0 2.205622 1_665
F2 K1 2.690917 1_555
F2 Rb2 2.846724 1_555
F2 Rb0 3.138172 1_555
F2 Rb1 3.374352 1_564
F3 Y1 2.205622 1_555
F3 K0 2.690917 1_555
F3 Rb0 2.846724 1_455
F3 Rb2 3.138172 1_555
F3 Rb3 3.374352 1_545
F4 Y0 2.200435 1_565
F4 K1 2.650982 1_555
F4 Rb0 2.858225 1_455
F4 Rb2 3.198118 1_555
F4 Rb3 3.265308 1_554
F5 Y1 2.200435 1_555
F5 K0 2.650982 1_655
F5 Rb2 2.858225 1_555
F5 Rb0 3.198118 1_555
F5 Rb1 3.265308 1_555
F6 Y0 2.200435 1_656
F6 K1 2.650982 1_556
F6 Rb3 2.858225 1_655
F6 Rb1 3.198118 1_555
F6 Rb0 3.265308 1_556
F7 Y1 2.200435 1_565
F7 K0 2.650982 1_555
F7 Rb1 2.858225 1_555
F7 Rb3 3.198118 1_555
F7 Rb2 3.265308 1_555
F8 Y1 2.201035 1_565
F8 K1 2.658881 1_556
F8 Rb1 2.834783 1_565
F8 Rb3 2.905484 1_555
F9 Y0 2.201035 1_656
F9 K0 2.658881 1_655
F9 Rb3 2.834783 1_645
F9 Rb1 2.905484 1_555
F10 Y1 2.201035 1_555
F10 K1 2.658881 1_555
F10 Rb2 2.834783 1_545
F10 Rb0 2.905484 1_555
F11 Y0 2.201035 1_565
F11 K0 2.658881 1_555
F11 Rb0 2.834783 1_465
F11 Rb2 2.905484 1_555
