# generated using pymatgen
data_Li4Co5NiO12
_symmetry_space_group_name_H-M   'P 1'
_cell_length_a   4.93469724
_cell_length_b   11.12362311
_cell_length_c   8.45925728
_cell_angle_alpha   112.34712568
_cell_angle_beta   90.00040093
_cell_angle_gamma   77.14211229
_symmetry_Int_Tables_number   1
_chemical_formula_structural   Li4Co5NiO12
_chemical_formula_sum   'Li8 Co10 Ni2 O24'
_cell_volume   416.85367142
_cell_formula_units_Z   2
loop_
 _symmetry_equiv_pos_site_id
 _symmetry_equiv_pos_as_xyz
  1  'x, y, z'
loop_
 _atom_site_type_symbol
 _atom_site_label
 _atom_site_symmetry_multiplicity
 _atom_site_fract_x
 _atom_site_fract_y
 _atom_site_fract_z
 _atom_site_occupancy
  Li  Li0  1  0.03398400  0.75175200  0.12773100  1
  Li  Li1  1  0.53812000  0.75130200  0.62724800  1
  Li  Li2  1  0.46602100  0.24824900  0.87598400  1
  Li  Li3  1  0.96187200  0.24870100  0.37595400  1
  Li  Li4  1  0.53812800  0.75130100  0.12404400  1
  Li  Li5  1  0.03397800  0.75175300  0.62401000  1
  Li  Li6  1  0.96187700  0.24869900  0.87274900  1
  Li  Li7  1  0.46601800  0.24824500  0.37226300  1
  Co  Co0  1  0.74999900  0.50000000  0.75000200  1
  Co  Co1  1  0.49976600  0.00014000  0.16428600  1
  Co  Co2  1  0.00022700  0.99986200  0.66414200  1
  Co  Co3  1  0.49977300  0.00013700  0.83585700  1
  Co  Co4  1  0.00023500  0.99985800  0.33571400  1
  Co  Co5  1  0.25000000  0.50000100  0.25000000  1
  Co  Co6  1  0.25000300  0.49999800  0.91363400  1
  Co  Co7  1  0.74999700  0.50000100  0.41705200  1
  Co  Co8  1  0.75000300  0.50000000  0.08295000  1
  Co  Co9  1  0.24999600  0.50000200  0.58637000  1
  Ni  Ni0  1  0.99987400  0.00024200  0.00012100  1
  Ni  Ni1  1  0.50012800  0.99975600  0.49987800  1
  O  O0  1  0.87495300  0.59538200  0.29768800  1
  O  O1  1  0.37046400  0.59663800  0.79832500  1
  O  O2  1  0.12953400  0.40336200  0.70167800  1
  O  O3  1  0.62504800  0.40461900  0.20231300  1
  O  O4  1  0.28016100  0.09874600  0.04936600  1
  O  O5  1  0.78062200  0.09817400  0.54907800  1
  O  O6  1  0.71937700  0.90182600  0.95092200  1
  O  O7  1  0.21983800  0.90125300  0.45063400  1
  O  O8  1  0.28467100  0.10106600  0.71779100  1
  O  O9  1  0.78464900  0.10135400  0.21837700  1
  O  O10  1  0.21533900  0.89892300  0.11671800  1
  O  O11  1  0.71535400  0.89864000  0.61702000  1
  O  O12  1  0.78464700  0.10136000  0.88298000  1
  O  O13  1  0.28466100  0.10107600  0.38328200  1
  O  O14  1  0.71535400  0.89864600  0.28162200  1
  O  O15  1  0.21532900  0.89893400  0.78220800  1
  O  O16  1  0.13460900  0.39424000  0.01594900  1
  O  O17  1  0.63173600  0.39767100  0.53131900  1
  O  O18  1  0.63174700  0.39767400  0.86635700  1
  O  O19  1  0.13462600  0.39424900  0.37827500  1
  O  O20  1  0.36537600  0.60575300  0.12172700  1
  O  O21  1  0.86825100  0.60232600  0.63364600  1
  O  O22  1  0.86826400  0.60233000  0.96868300  1
  O  O23  1  0.36539000  0.60575900  0.48405200  1
loop_
_geom_bond_atom_site_label_1
_geom_bond_atom_site_label_2
_geom_bond_distance
_geom_bond_site_symmetry_2
Li0 O20 2.017327 1_555
Li0 O14 2.018887 1_455
Li0 O22 2.036167 1_454
Li0 O10 2.063402 1_555
Li1 O23 1.984384 1_555
Li1 O15 2.037460 1_555
Li1 O11 2.050438 1_555
Li1 O21 2.066328 1_555
Li2 O16 2.017308 1_556
Li2 O12 2.018805 1_555
Li2 O18 2.036197 1_555
Li2 O8 2.063519 1_555
Li3 O19 1.984555 1_655
Li3 O13 2.037373 1_655
Li3 O9 2.050523 1_555
Li3 O17 2.066323 1_555
Li4 O20 1.984559 1_555
Li4 O10 2.037346 1_555
Li4 O14 2.050520 1_555
Li4 O22 2.066316 1_554
Li5 O23 2.017305 1_555
Li5 O11 2.018768 1_455
Li5 O21 2.036247 1_455
Li5 O15 2.063523 1_555
Li6 O16 1.984385 1_656
Li6 O8 2.037468 1_655
Li6 O12 2.050445 1_555
Li6 O18 2.066301 1_555
Li7 O19 2.017342 1_555
Li7 O9 2.018862 1_555
Li7 O17 2.036214 1_555
Li7 O13 2.063406 1_555
Co0 O1 1.897413 1_555
Co0 O2 1.897413 1_655
Co0 O18 1.937128 1_555
Co0 O21 1.937134 1_555
Co0 O22 1.937199 1_555
Co0 O17 1.937203 1_555
Co1 O6 1.897274 1_544
Co1 O4 1.898505 1_555
Co1 O13 1.925403 1_555
Co1 O14 1.925921 1_545
Co1 O10 1.938648 1_545
Co1 O9 1.940600 1_555
Co2 O5 1.897288 1_465
Co2 O7 1.898455 1_555
Co2 O15 1.925329 1_555
Co2 O12 1.926005 1_465
Co2 O8 1.938625 1_565
Co2 O11 1.940616 1_455
Co3 O6 1.897285 1_545
Co3 O4 1.898464 1_556
Co3 O8 1.925337 1_555
Co3 O11 1.926000 1_545
Co3 O15 1.938618 1_545
Co3 O12 1.940628 1_555
Co4 O5 1.897280 1_465
Co4 O7 1.898494 1_555
Co4 O10 1.925400 1_555
Co4 O9 1.925938 1_465
Co4 O13 1.938651 1_565
Co4 O14 1.940577 1_455
Co5 O0 1.874640 1_455
Co5 O3 1.874647 1_555
Co5 O20 2.038165 1_555
Co5 O19 2.038174 1_555
Co5 O23 2.038415 1_555
Co5 O16 2.038419 1_555
Co6 O16 1.878758 1_556
Co6 O20 1.878848 1_556
Co6 O1 1.882073 1_555
Co6 O2 1.882149 1_555
Co6 O18 1.924501 1_555
Co6 O22 1.924507 1_455
Co7 O3 1.905574 1_555
Co7 O0 1.905597 1_555
Co7 O21 1.924282 1_555
Co7 O17 1.924302 1_555
Co7 O23 1.951037 1_555
Co7 O19 1.951092 1_655
Co8 O0 1.905570 1_555
Co8 O3 1.905588 1_555
Co8 O18 1.924283 1_554
Co8 O22 1.924302 1_554
Co8 O16 1.951040 1_655
Co8 O20 1.951087 1_555
Co9 O23 1.878766 1_555
Co9 O19 1.878846 1_555
Co9 O2 1.882069 1_555
Co9 O1 1.882141 1_555
Co9 O21 1.924506 1_455
Co9 O17 1.924509 1_555
Ni0 O4 1.901209 1_655
Ni0 O6 1.901455 1_544
Ni0 O15 1.919765 1_644
Ni0 O10 1.919770 1_645
Ni0 O12 1.921195 1_554
Ni0 O9 1.921212 1_555
Ni1 O7 1.901214 1_555
Ni1 O5 1.901457 1_565
Ni1 O8 1.919771 1_565
Ni1 O13 1.919775 1_565
Ni1 O11 1.921184 1_555
Ni1 O14 1.921212 1_555
