# generated using pymatgen
data_Li2Fe2Si8O19
_symmetry_space_group_name_H-M   'P 1'
_cell_length_a   4.94696498
_cell_length_b   7.18915326
_cell_length_c   12.50521430
_cell_angle_alpha   72.89904881
_cell_angle_beta   89.96882253
_cell_angle_gamma   70.19702371
_symmetry_Int_Tables_number   1
_chemical_formula_structural   Li2Fe2Si8O19
_chemical_formula_sum   'Li2 Fe2 Si8 O19'
_cell_volume   397.50606369
_cell_formula_units_Z   1
loop_
 _symmetry_equiv_pos_site_id
 _symmetry_equiv_pos_as_xyz
  1  'x, y, z'
loop_
 _atom_site_type_symbol
 _atom_site_label
 _atom_site_symmetry_multiplicity
 _atom_site_fract_x
 _atom_site_fract_y
 _atom_site_fract_z
 _atom_site_occupancy
  Li  Li0  1  0.75796600  0.80364100  0.63705800  1
  Li  Li1  1  0.56429400  0.19873600  0.36391700  1
  Fe  Fe0  1  0.68450200  0.60003400  0.40434300  1
  Fe  Fe1  1  0.29798300  0.40550600  0.59337800  1
  Si  Si0  1  0.46659600  0.75833900  0.92673100  1
  Si  Si1  1  0.86605800  0.98075100  0.16896200  1
  Si  Si2  1  0.08114200  0.86486100  0.41864900  1
  Si  Si3  1  0.32851500  0.43890500  0.82964900  1
  Si  Si4  1  0.76704200  0.55850100  0.16888800  1
  Si  Si5  1  0.95197300  0.13552700  0.58039300  1
  Si  Si6  1  0.84963500  0.01934600  0.82970100  1
  Si  Si7  1  0.22545000  0.24055500  0.07261900  1
  O  O0  1  0.17256200  0.96799800  0.88857200  1
  O  O1  1  0.74082900  0.83422800  0.90009100  1
  O  O2  1  0.87318500  0.99881200  0.29657000  1
  O  O3  1  0.40572200  0.86600800  0.41516900  1
  O  O4  1  0.45264300  0.61244600  0.85058400  1
  O  O5  1  0.04843500  0.63685700  0.45754200  1
  O  O6  1  0.12193900  0.52851400  0.71181500  1
  O  O7  1  0.86364200  0.75546300  0.17261200  1
  O  O8  1  0.15490500  0.36566700  0.93808200  1
  O  O9  1  0.52060300  0.63210100  0.06111200  1
  O  O10  1  0.62200900  0.24476600  0.82558100  1
  O  O11  1  0.65549700  0.46610400  0.28811200  1
  O  O12  1  0.69413900  0.36296500  0.54214100  1
  O  O13  1  0.06364700  0.38430600  0.14879300  1
  O  O14  1  0.27561800  0.13635500  0.58315800  1
  O  O15  1  0.87537200  0.00007100  0.70234900  1
  O  O16  1  0.89207900  0.00030600  0.49970600  1
  O  O17  1  0.57327800  0.16806300  0.09970100  1
  O  O18  1  0.13981000  0.02987700  0.10926800  1
loop_
_geom_bond_atom_site_label_1
_geom_bond_atom_site_label_2
_geom_bond_distance
_geom_bond_site_symmetry_2
Li0 O15 2.057311 1_565
Li0 O6 2.128250 1_655
Li0 O16 2.143710 1_565
Li1 O11 2.076628 1_555
Li1 O2 2.081448 1_545
Li1 O16 2.135152 1_555
Fe0 O3 1.985388 1_555
Fe0 O11 1.994290 1_555
Fe0 O12 2.023416 1_555
Fe0 O5 2.044940 1_655
Fe1 O6 1.995273 1_555
Fe1 O12 2.013090 1_555
Fe1 O14 2.015734 1_555
Fe1 O5 2.031067 1_555
O0 Si6 1.634674 1_465
O0 Si0 1.645473 1_555
O1 Si6 1.622219 1_565
O1 Si0 1.625784 1_555
O2 Si1 1.639997 1_555
O2 Si2 1.667970 1_655
O3 Si2 1.608998 1_555
O4 Si0 1.627298 1_555
O4 Si3 1.647270 1_555
O5 Si2 1.631049 1_555
O6 Si3 1.621094 1_555
O7 Si1 1.610921 1_555
O7 Si4 1.653137 1_555
O8 Si7 1.630739 1_556
O8 Si3 1.654919 1_555
O9 Si0 1.630412 1_554
O9 Si4 1.651668 1_555
O10 Si6 1.615987 1_555
O10 Si3 1.651426 1_555
O11 Si4 1.622838 1_555
O12 Si5 1.629964 1_555
O13 Si7 1.622879 1_555
O13 Si4 1.650460 1_455
O14 Si5 1.603516 1_455
O15 Si6 1.639904 1_555
O15 Si5 1.671458 1_555
O16 Si2 1.677123 1_645
O16 Si5 1.680259 1_555
O17 Si7 1.623669 1_555
O17 Si1 1.629483 1_545
O18 Si1 1.638251 1_445
O18 Si7 1.646166 1_555
