# generated using pymatgen
data_Li4Mn3Co3(WO8)2
_symmetry_space_group_name_H-M   'P 1'
_cell_length_a   5.99537134
_cell_length_b   5.99537134
_cell_length_c   9.86266800
_cell_angle_alpha   88.52573282
_cell_angle_beta   88.52573282
_cell_angle_gamma   58.95311784
_symmetry_Int_Tables_number   1
_chemical_formula_structural   Li4Mn3Co3(WO8)2
_chemical_formula_sum   'Li4 Mn3 Co3 W2 O16'
_cell_volume   303.59088167
_cell_formula_units_Z   1
loop_
 _symmetry_equiv_pos_site_id
 _symmetry_equiv_pos_as_xyz
  1  'x, y, z'
loop_
 _atom_site_type_symbol
 _atom_site_label
 _atom_site_symmetry_multiplicity
 _atom_site_fract_x
 _atom_site_fract_y
 _atom_site_fract_z
 _atom_site_occupancy
  Li  Li0  1  0.66215300  0.66215300  0.09279900  1
  Li  Li1  1  0.99789000  0.99789000  0.01000100  1
  Li  Li2  1  0.00156000  0.00156000  0.51559300  1
  Li  Li3  1  0.33233800  0.33233800  0.59284000  1
  Mn  Mn0  1  0.83216700  0.83216700  0.78935000  1
  Mn  Mn1  1  0.16819800  0.65823400  0.28561800  1
  Mn  Mn2  1  0.65823400  0.16819800  0.28561800  1
  Co  Co0  1  0.35085400  0.81331500  0.78339200  1
  Co  Co1  1  0.81331500  0.35085400  0.78339200  1
  Co  Co2  1  0.16916800  0.16916800  0.28679800  1
  W  W0  1  0.66656600  0.66656600  0.51416800  1
  W  W1  1  0.32038200  0.32038200  0.01268800  1
  O  O0  1  0.35176200  0.83384600  0.41727100  1
  O  O1  1  0.51730700  0.51730700  0.64478900  1
  O  O2  1  0.66868900  0.66868900  0.88698800  1
  O  O3  1  0.99877100  0.99877100  0.70452500  1
  O  O4  1  0.99671700  0.99671700  0.19895400  1
  O  O5  1  0.83384600  0.35176200  0.41727100  1
  O  O6  1  0.52197400  0.96018300  0.64775800  1
  O  O7  1  0.96018300  0.52197400  0.64775800  1
  O  O8  1  0.17115300  0.17115300  0.91121900  1
  O  O9  1  0.83363200  0.83363200  0.40797500  1
  O  O10  1  0.03282600  0.47973900  0.14263600  1
  O  O11  1  0.47973900  0.03282600  0.14263600  1
  O  O12  1  0.33799900  0.33799900  0.38577000  1
  O  O13  1  0.17540200  0.65198500  0.91361700  1
  O  O14  1  0.47655300  0.47655300  0.15714900  1
  O  O15  1  0.65198500  0.17540200  0.91361700  1
loop_
_geom_bond_atom_site_label_1
_geom_bond_atom_site_label_2
_geom_bond_distance
_geom_bond_site_symmetry_2
Li0 O10 1.974331 1_655
Li0 O11 1.974331 1_565
Li0 O14 2.020810 1_555
Li0 O2 2.028976 1_554
Li1 O4 1.863259 1_555
Li1 O15 2.027283 1_564
Li1 O13 2.027283 1_654
Li1 O8 2.028831 1_664
Li2 O3 1.862741 1_445
Li2 O0 2.031619 1_545
Li2 O5 2.031619 1_455
Li2 O9 2.075894 1_445
Li3 O6 1.979189 1_545
Li3 O7 1.979189 1_455
Li3 O1 2.012226 1_555
Li3 O12 2.041371 1_555
Mn0 O3 1.907467 1_555
Mn0 O2 1.934497 1_555
Mn0 O7 2.145689 1_555
Mn0 O6 2.145689 1_555
Mn0 O15 2.161570 1_565
Mn0 O13 2.161570 1_655
Mn1 O12 1.906903 1_555
Mn1 O4 1.926055 1_455
Mn1 O14 2.020637 1_555
Mn1 O9 2.085801 1_455
Mn1 O10 2.196577 1_555
Mn1 O0 2.311864 1_555
Mn2 O12 1.906903 1_555
Mn2 O4 1.926055 1_545
Mn2 O14 2.020637 1_555
Mn2 O9 2.085801 1_545
Mn2 O11 2.196577 1_555
Mn2 O5 2.311864 1_555
Co0 O2 1.943495 1_555
Co0 O3 1.978926 1_455
Co0 O1 2.059589 1_555
Co0 O6 2.101881 1_555
Co0 O13 2.146543 1_555
Co0 O8 2.244530 1_565
Co1 O2 1.943495 1_555
Co1 O3 1.978926 1_545
Co1 O1 2.059589 1_555
Co1 O7 2.101881 1_555
Co1 O15 2.146543 1_555
Co1 O8 2.244530 1_655
Co2 O4 2.020727 1_445
Co2 O12 2.039714 1_555
Co2 O10 2.123769 1_555
Co2 O11 2.123769 1_555
Co2 O5 2.136636 1_455
Co2 O0 2.136636 1_545
O0 W0 1.890059 1_555
O1 W0 1.992122 1_555
O5 W0 1.890059 1_555
O6 W0 2.018110 1_555
O7 W0 2.018110 1_555
O8 W1 1.876226 1_556
O9 W0 2.007561 1_555
O10 W1 1.943687 1_555
O11 W1 1.943687 1_555
O13 W1 1.955510 1_556
O14 W1 2.196553 1_555
O15 W1 1.955510 1_556
