# generated using pymatgen
data_LiFePO4
_symmetry_space_group_name_H-M   'P 1'
_cell_length_a   5.15377600
_cell_length_b   11.26452100
_cell_length_c   6.20647400
_cell_angle_alpha   89.99952732
_cell_angle_beta   89.99949296
_cell_angle_gamma   89.99806696
_symmetry_Int_Tables_number   1
_chemical_formula_structural   LiFePO4
_chemical_formula_sum   'Li4 Fe4 P4 O16'
_cell_volume   360.31571826
_cell_formula_units_Z   4
loop_
 _symmetry_equiv_pos_site_id
 _symmetry_equiv_pos_as_xyz
  1  'x, y, z'
loop_
 _atom_site_type_symbol
 _atom_site_label
 _atom_site_symmetry_multiplicity
 _atom_site_fract_x
 _atom_site_fract_y
 _atom_site_fract_z
 _atom_site_occupancy
  Li  Li0  1  0.24795900  0.17344700  0.52403700  1
  Li  Li1  1  0.74792900  0.32656000  0.02399700  1
  Li  Li2  1  0.24795800  0.67341000  0.97599500  1
  Li  Li3  1  0.74791300  0.82658400  0.47599500  1
  Fe  Fe0  1  0.74205900  0.58310400  0.71753700  1
  Fe  Fe1  1  0.24206100  0.91690200  0.21754000  1
  Fe  Fe2  1  0.74206200  0.08309400  0.78242400  1
  Fe  Fe3  1  0.24205700  0.41690300  0.28244500  1
  P  P0  1  0.25044800  0.17101800  0.02621600  1
  P  P1  1  0.75045000  0.32898200  0.52620000  1
  P  P2  1  0.25041700  0.67103900  0.47379300  1
  P  P3  1  0.75045500  0.82896100  0.97380100  1
  O  O0  1  0.18888400  0.09314700  0.22948500  1
  O  O1  1  0.68884200  0.40686100  0.72944700  1
  O  O2  1  0.18883900  0.59315400  0.27054700  1
  O  O3  1  0.68885900  0.90684300  0.77055600  1
  O  O4  1  0.13651700  0.11150700  0.81945800  1
  O  O5  1  0.63651400  0.38848000  0.31942700  1
  O  O6  1  0.13650000  0.61153200  0.68055900  1
  O  O7  1  0.63651800  0.88846700  0.18056100  1
  O  O8  1  0.63107900  0.20322800  0.55414400  1
  O  O9  1  0.13103900  0.29677300  0.05414500  1
  O  O10  1  0.63106800  0.70320600  0.94586600  1
  O  O11  1  0.13100800  0.79678900  0.44584900  1
  O  O12  1  0.54899700  0.18048100  0.00353200  1
  O  O13  1  0.04900400  0.31952600  0.50354000  1
  O  O14  1  0.54896500  0.68050900  0.49645100  1
  O  O15  1  0.04900700  0.81949300  0.99645600  1
loop_
_geom_bond_atom_site_label_1
_geom_bond_atom_site_label_2
_geom_bond_distance
_geom_bond_site_symmetry_2
Li0 O13 1.942976 1_555
Li0 O8 2.011521 1_555
Li0 O4 2.044135 1_555
Li0 O0 2.062281 1_555
Li1 O12 1.942960 1_555
Li1 O9 2.011482 1_655
Li1 O5 2.044066 1_555
Li1 O1 2.062262 1_554
Li2 O15 1.942989 1_555
Li2 O10 2.011507 1_555
Li2 O6 2.044023 1_555
Li2 O2 2.062079 1_556
Li3 O14 1.942959 1_555
Li3 O11 2.011418 1_655
Li3 O7 2.043916 1_555
Li3 O3 2.062098 1_555
Fe0 O1 2.005520 1_555
Fe0 O14 2.019159 1_555
Fe0 O10 2.041008 1_555
Fe0 O6 2.070694 1_655
Fe1 O0 2.005505 1_565
Fe1 O15 2.019123 1_554
Fe1 O11 2.041104 1_555
Fe1 O7 2.070767 1_555
Fe2 O3 2.005591 1_545
Fe2 O12 2.019069 1_556
Fe2 O8 2.041016 1_555
Fe2 O4 2.070782 1_655
Fe3 O2 2.005589 1_555
Fe3 O13 2.018946 1_555
Fe3 O9 2.041164 1_555
Fe3 O5 2.070752 1_555
O0 P0 1.568981 1_555
O1 P1 1.568967 1_555
O2 P2 1.568985 1_555
O3 P3 1.568957 1_555
O4 P0 1.562343 1_556
O5 P1 1.562340 1_555
O6 P2 1.562319 1_555
O7 P3 1.562315 1_554
O8 P1 1.554109 1_555
O9 P0 1.554151 1_555
O10 P3 1.554150 1_555
O11 P2 1.554109 1_555
O12 P0 1.548757 1_555
O13 P1 1.548757 1_455
O14 P2 1.548746 1_555
O15 P3 1.548755 1_455
