# generated using pymatgen
data_Fe10O11F9
_symmetry_space_group_name_H-M   'P 1'
_cell_length_a   4.77428500
_cell_length_b   4.77803762
_cell_length_c   15.30077055
_cell_angle_alpha   89.91365737
_cell_angle_beta   89.89312061
_cell_angle_gamma   84.99000196
_symmetry_Int_Tables_number   1
_chemical_formula_structural   Fe10O11F9
_chemical_formula_sum   'Fe10 O11 F9'
_cell_volume   347.70236581
_cell_formula_units_Z   1
loop_
 _symmetry_equiv_pos_site_id
 _symmetry_equiv_pos_as_xyz
  1  'x, y, z'
loop_
 _atom_site_type_symbol
 _atom_site_label
 _atom_site_symmetry_multiplicity
 _atom_site_fract_x
 _atom_site_fract_y
 _atom_site_fract_z
 _atom_site_occupancy
  Fe  Fe0  1  0.99345300  0.98445000  0.99486300  1
  Fe  Fe1  1  0.99063300  0.98920500  0.80421000  1
  Fe  Fe2  1  0.00170400  0.99907300  0.60108400  1
  Fe  Fe3  1  0.99462300  0.98361200  0.39536800  1
  Fe  Fe4  1  0.96069700  0.01575500  0.20409600  1
  Fe  Fe5  1  0.53051200  0.52924300  0.89905400  1
  Fe  Fe6  1  0.49646000  0.49306600  0.50104300  1
  Fe  Fe7  1  0.49728000  0.49505100  0.70057500  1
  Fe  Fe8  1  0.54312300  0.52289100  0.30710600  1
  Fe  Fe9  1  0.49736200  0.47995000  0.09335300  1
  O  O0  1  0.81387200  0.80904800  0.89763000  1
  O  O1  1  0.80887000  0.81282800  0.29889300  1
  O  O2  1  0.70415500  0.30004700  0.99821800  1
  O  O3  1  0.69703700  0.30487500  0.79463100  1
  O  O4  1  0.69502000  0.29804600  0.60320900  1
  O  O5  1  0.70644900  0.30055000  0.40513800  1
  O  O6  1  0.67986400  0.32183100  0.19922700  1
  O  O7  1  0.30625000  0.69722800  0.00049000  1
  O  O8  1  0.30710000  0.69530600  0.79464300  1
  O  O9  1  0.30117600  0.69210800  0.60307200  1
  O  O10  1  0.30840700  0.69640200  0.40299700  1
  F  F0  1  0.80772500  0.80566700  0.69878500  1
  F  F1  1  0.81061100  0.80346100  0.50288500  1
  F  F2  1  0.80181300  0.80951800  0.10155900  1
  F  F3  1  0.29171600  0.71184600  0.19781900  1
  F  F4  1  0.19648300  0.19126000  0.89794700  1
  F  F5  1  0.19261400  0.18569000  0.50153900  1
  F  F6  1  0.18943300  0.18762900  0.70038000  1
  F  F7  1  0.18537400  0.18953000  0.10207900  1
  F  F8  1  0.19018200  0.19483500  0.29810900  1
loop_
_geom_bond_atom_site_label_1
_geom_bond_atom_site_label_2
_geom_bond_distance
_geom_bond_site_symmetry_2
Fe0 O7 1.939880 1_656
Fe0 O0 1.945468 1_555
Fe0 O2 1.954581 1_565
Fe1 O0 1.901315 1_555
Fe1 O3 1.972824 1_565
Fe1 O8 1.976215 1_655
Fe2 O4 1.954532 1_465
Fe2 O9 1.957063 1_555
Fe3 O1 1.940686 1_555
Fe3 O10 1.944793 1_655
Fe3 O5 1.960737 1_565
Fe4 O6 1.897246 1_555
Fe4 O1 1.919372 1_545
Fe5 O0 1.983357 1_555
Fe5 O2 2.007438 1_555
Fe5 O7 2.011696 1_556
Fe5 O8 2.043091 1_555
Fe5 O3 2.045904 1_555
Fe6 O5 1.960116 1_555
Fe6 O10 1.961836 1_555
Fe6 O9 2.013703 1_555
Fe6 O4 2.014312 1_555
Fe7 O3 1.912101 1_555
Fe7 O8 1.912875 1_555
Fe7 O9 1.958513 1_555
Fe7 O4 1.959720 1_555
Fe8 O5 1.959949 1_555
Fe8 O1 1.962277 1_555
Fe8 O10 1.982680 1_555
Fe8 O6 1.991205 1_555
Fe9 O2 1.919034 1_554
Fe9 O7 1.940137 1_555
Fe9 O6 1.959802 1_555
F0 Fe2 2.021514 1_655
F0 Fe1 2.068074 1_555
F0 Fe7 2.187261 1_555
F1 Fe2 2.030210 1_655
F1 Fe3 2.083622 1_555
F1 Fe6 2.199693 1_555
F2 Fe4 2.036548 1_565
F2 Fe0 2.079610 1_554
F2 Fe9 2.238129 1_555
F3 Fe4 2.052906 1_465
F3 Fe9 2.134486 1_555
F3 Fe8 2.205819 1_555
F4 Fe1 2.032274 1_445
F4 Fe0 2.067002 1_445
F4 Fe5 2.366726 1_555
F5 Fe2 2.019499 1_545
F5 Fe6 2.152537 1_555
F5 Fe3 2.152823 1_445
F6 Fe2 2.018292 1_545
F6 Fe1 2.114379 1_445
F6 Fe7 2.166762 1_555
F7 Fe4 2.102847 1_455
F7 Fe9 2.126438 1_555
F7 Fe0 2.158289 1_444
F8 Fe4 2.043297 1_455
F8 Fe3 2.063899 1_445
F8 Fe8 2.403766 1_555
