# generated using pymatgen
data_MnH8(NO5)2
_symmetry_space_group_name_H-M   'P 1'
_cell_length_a   27.69944400
_cell_length_b   5.45637300
_cell_length_c   6.22066706
_cell_angle_alpha   59.99643205
_cell_angle_beta   90.00000000
_cell_angle_gamma   90.00000000
_symmetry_Int_Tables_number   1
_chemical_formula_structural   MnH8(NO5)2
_chemical_formula_sum   'Mn4 H32 N8 O40'
_cell_volume   814.19246123
_cell_formula_units_Z   4
loop_
 _symmetry_equiv_pos_site_id
 _symmetry_equiv_pos_as_xyz
  1  'x, y, z'
loop_
 _atom_site_type_symbol
 _atom_site_label
 _atom_site_symmetry_multiplicity
 _atom_site_fract_x
 _atom_site_fract_y
 _atom_site_fract_z
 _atom_site_occupancy
  Mn  Mn0  1  0.62589100  0.30021100  0.22019000  1
  Mn  Mn1  1  0.87410900  0.30021100  0.72019000  1
  Mn  Mn2  1  0.37410900  0.69978900  0.77981000  1
  Mn  Mn3  1  0.12589100  0.69978900  0.27981000  1
  H  H0  1  0.63066300  0.24494800  0.79257100  1
  H  H1  1  0.86933700  0.24494800  0.29257100  1
  H  H2  1  0.36933700  0.75505200  0.20742900  1
  H  H3  1  0.13066300  0.75505200  0.70742900  1
  H  H4  1  0.68201200  0.32544300  0.84681500  1
  H  H5  1  0.81798800  0.32544300  0.34681500  1
  H  H6  1  0.31798800  0.67455700  0.15318500  1
  H  H7  1  0.18201200  0.67455700  0.65318500  1
  H  H8  1  0.55234300  0.68535300  0.88782300  1
  H  H9  1  0.94765700  0.68535300  0.38782300  1
  H  H10  1  0.44765700  0.31464700  0.11217700  1
  H  H11  1  0.05234300  0.31464700  0.61217700  1
  H  H12  1  0.60513300  0.75195000  0.76204400  1
  H  H13  1  0.89486700  0.75195000  0.26204400  1
  H  H14  1  0.39486700  0.24805000  0.23795600  1
  H  H15  1  0.10513300  0.24805000  0.73795600  1
  H  H16  1  0.58574700  0.58306400  0.43342300  1
  H  H17  1  0.91425300  0.58306400  0.93342300  1
  H  H18  1  0.41425300  0.41693600  0.56657700  1
  H  H19  1  0.08574700  0.41693600  0.06657700  1
  H  H20  1  0.55764700  0.29463400  0.56819900  1
  H  H21  1  0.94235300  0.29463400  0.06819900  1
  H  H22  1  0.44235300  0.70536600  0.43180100  1
  H  H23  1  0.05764700  0.70536600  0.93180100  1
  H  H24  1  0.71269000  0.60533400  0.17113200  1
  H  H25  1  0.78731000  0.60533400  0.67113200  1
  H  H26  1  0.28731000  0.39466600  0.82886800  1
  H  H27  1  0.21269000  0.39466600  0.32886800  1
  H  H28  1  0.66835700  0.81940400  0.07907600  1
  H  H29  1  0.83164300  0.81940400  0.57907600  1
  H  H30  1  0.33164300  0.18059600  0.92092400  1
  H  H31  1  0.16835700  0.18059600  0.42092400  1
  N  N0  1  0.52699500  0.99305300  0.26427700  1
  N  N1  1  0.97300500  0.99305300  0.76427700  1
  N  N2  1  0.47300500  0.00694700  0.73572300  1
  N  N3  1  0.02699500  0.00694700  0.23572300  1
  N  N4  1  0.70512700  0.87779500  0.51870700  1
  N  N5  1  0.79487300  0.87779500  0.01870700  1
  N  N6  1  0.29487300  0.12220500  0.48129300  1
  N  N7  1  0.20512700  0.12220500  0.98129300  1
  O  O0  1  0.57327200  0.95020100  0.30133600  1
  O  O1  1  0.92672800  0.95020100  0.80133600  1
  O  O2  1  0.42672800  0.04979900  0.69866400  1
  O  O3  1  0.07327200  0.04979900  0.19866400  1
  O  O4  1  0.51024600  0.22728500  0.22079000  1
  O  O5  1  0.98975400  0.22728500  0.72079000  1
  O  O6  1  0.48975400  0.77271500  0.77921000  1
  O  O7  1  0.01024600  0.77271500  0.27921000  1
  O  O8  1  0.50161100  0.79791200  0.27577400  1
  O  O9  1  0.99838900  0.79791200  0.77577400  1
  O  O10  1  0.49838900  0.20208800  0.72422600  1
  O  O11  1  0.00161100  0.20208800  0.22422600  1
  O  O12  1  0.65928500  0.92377600  0.52983000  1
  O  O13  1  0.84071500  0.92377600  0.02983000  1
  O  O14  1  0.34071500  0.07622400  0.47017000  1
  O  O15  1  0.15928500  0.07622400  0.97017000  1
  O  O16  1  0.72175200  0.63745700  0.67528400  1
  O  O17  1  0.77824800  0.63745700  0.17528400  1
  O  O18  1  0.27824800  0.36254300  0.32471600  1
  O  O19  1  0.22175200  0.36254300  0.82471600  1
  O  O20  1  0.73058100  0.06660700  0.35704800  1
  O  O21  1  0.76941900  0.06660700  0.85704800  1
  O  O22  1  0.26941900  0.93339300  0.64295200  1
  O  O23  1  0.23058100  0.93339300  0.14295200  1
  O  O24  1  0.65370000  0.20120800  0.92923200  1
  O  O25  1  0.84630000  0.20120800  0.42923200  1
  O  O26  1  0.34630000  0.79879200  0.07076800  1
  O  O27  1  0.15370000  0.79879200  0.57076800  1
  O  O28  1  0.58741900  0.65472000  0.91955100  1
  O  O29  1  0.91258100  0.65472000  0.41955100  1
  O  O30  1  0.41258100  0.34528000  0.08044900  1
  O  O31  1  0.08741900  0.34528000  0.58044900  1
  O  O32  1  0.59045900  0.37409500  0.51268600  1
  O  O33  1  0.90954100  0.37409500  0.01268600  1
  O  O34  1  0.40954100  0.62590500  0.48731400  1
  O  O35  1  0.09045900  0.62590500  0.98731400  1
  O  O36  1  0.67707400  0.61685200  0.17745200  1
  O  O37  1  0.82292600  0.61685200  0.67745200  1
  O  O38  1  0.32292600  0.38314800  0.82254800  1
  O  O39  1  0.17707400  0.38314800  0.32254800  1
loop_
_geom_bond_atom_site_label_1
_geom_bond_atom_site_label_2
_geom_bond_distance
_geom_bond_site_symmetry_2
Mn0 O36 2.146224 1_555
Mn0 O28 2.181028 1_554
Mn0 O12 2.197228 1_545
Mn0 O0 2.249958 1_545
Mn0 O24 2.266921 1_554
Mn0 O32 2.273766 1_555
Mn1 O37 2.146224 1_555
Mn1 O29 2.181028 1_555
Mn1 O13 2.197228 1_546
Mn1 O1 2.249958 1_545
Mn1 O25 2.266921 1_555
Mn1 O33 2.273766 1_556
Mn2 O38 2.146224 1_555
Mn2 O30 2.181028 1_556
Mn2 O14 2.197228 1_565
Mn2 O2 2.249958 1_565
Mn2 O26 2.266921 1_556
Mn2 O34 2.273766 1_555
Mn3 O39 2.146224 1_555
Mn3 O31 2.181028 1_555
Mn3 O15 2.197228 1_564
Mn3 O3 2.249958 1_565
Mn3 O27 2.266921 1_555
Mn3 O35 2.273766 1_554
H0 O24 0.991938 1_555
H1 O25 0.991938 1_555
H2 O26 0.991938 1_555
H3 O27 0.991938 1_555
H4 O24 0.994886 1_555
H5 O25 0.994886 1_555
H6 O26 0.994886 1_555
H7 O27 0.994886 1_555
H8 O28 0.988877 1_555
H9 O29 0.988877 1_555
H10 O30 0.988877 1_555
H11 O31 0.988877 1_555
H12 O28 0.980996 1_555
H13 O29 0.980996 1_555
H14 O30 0.980996 1_555
H15 O31 0.980996 1_555
H16 O32 0.998986 1_555
H17 O33 0.998986 1_556
H18 O34 0.998986 1_555
H19 O35 0.998986 1_554
H20 O32 0.991739 1_555
H21 O33 0.991739 1_555
H22 O34 0.991739 1_555
H23 O35 0.991739 1_555
H24 O36 0.990573 1_555
H25 O37 0.990573 1_555
H26 O38 0.990573 1_555
H27 O39 0.990573 1_555
H28 O36 0.988864 1_555
H29 O37 0.988864 1_555
H30 O38 0.988864 1_555
H31 O39 0.988864 1_555
N0 O8 1.247820 1_555
N0 O4 1.255418 1_565
N0 O0 1.302705 1_555
N1 O9 1.247820 1_555
N1 O5 1.255418 1_565
N1 O1 1.302705 1_555
N2 O10 1.247820 1_555
N2 O6 1.255418 1_545
N2 O2 1.302705 1_555
N3 O11 1.247820 1_555
N3 O7 1.255418 1_545
N3 O3 1.302705 1_555
N4 O20 1.238399 1_565
N4 O16 1.266109 1_555
N4 O12 1.302874 1_555
N5 O21 1.238399 1_564
N5 O17 1.266109 1_555
N5 O13 1.302874 1_555
N6 O22 1.238399 1_545
N6 O18 1.266109 1_555
N6 O14 1.302874 1_555
N7 O23 1.238399 1_546
N7 O19 1.266109 1_555
N7 O15 1.302874 1_555
