# generated using pymatgen
data_Li2V2FeO6
_symmetry_space_group_name_H-M   'P 1'
_cell_length_a   6.54901100
_cell_length_b   6.67625348
_cell_length_c   8.43005033
_cell_angle_alpha   71.88341859
_cell_angle_beta   69.53140746
_cell_angle_gamma   81.39040766
_symmetry_Int_Tables_number   1
_chemical_formula_structural   Li2V2FeO6
_chemical_formula_sum   'Li6 V6 Fe3 O18'
_cell_volume   327.84866474
_cell_formula_units_Z   3
loop_
 _symmetry_equiv_pos_site_id
 _symmetry_equiv_pos_as_xyz
  1  'x, y, z'
loop_
 _atom_site_type_symbol
 _atom_site_label
 _atom_site_symmetry_multiplicity
 _atom_site_fract_x
 _atom_site_fract_y
 _atom_site_fract_z
 _atom_site_occupancy
  Li  Li0  1  0.66984400  0.00658300  0.83055500  1
  Li  Li1  1  0.67396400  0.32910200  0.50027400  1
  Li  Li2  1  0.00356000  0.65823700  0.83898100  1
  Li  Li3  1  0.99644000  0.34176300  0.16101900  1
  Li  Li4  1  0.33015600  0.99341700  0.16944500  1
  Li  Li5  1  0.32603600  0.67089800  0.49972600  1
  V  V0  1  0.33962900  0.66196900  0.00347900  1
  V  V1  1  0.31532300  0.33757400  0.34246300  1
  V  V2  1  0.32135300  0.00834500  0.67398800  1
  V  V3  1  0.68467700  0.66242600  0.65753700  1
  V  V4  1  0.66037100  0.33803100  0.99652100  1
  V  V5  1  0.67864700  0.99165500  0.32601200  1
  Fe  Fe0  1  0.00000000  0.00000000  0.00000000  1
  Fe  Fe1  1  0.99255300  0.67255000  0.33272300  1
  Fe  Fe2  1  0.00744700  0.32745000  0.66727700  1
  O  O0  1  0.68099700  0.34949900  0.75029200  1
  O  O1  1  0.67904200  0.01699500  0.08473200  1
  O  O2  1  0.66349500  0.68068000  0.42785400  1
  O  O3  1  0.01872900  0.00165900  0.76015100  1
  O  O4  1  0.02689700  0.68858000  0.07254600  1
  O  O5  1  0.35576600  0.69171500  0.74864000  1
  O  O6  1  0.97310300  0.31142000  0.92745400  1
  O  O7  1  0.98127100  0.99834100  0.23984900  1
  O  O8  1  0.32095800  0.98300500  0.91526800  1
  O  O9  1  0.01671200  0.34730400  0.40959900  1
  O  O10  1  0.34143200  0.33986800  0.09710600  1
  O  O11  1  0.35652700  0.01604000  0.41915700  1
  O  O12  1  0.98328800  0.65269600  0.59040100  1
  O  O13  1  0.31900300  0.65050100  0.24970800  1
  O  O14  1  0.33650500  0.31932000  0.57214600  1
  O  O15  1  0.65856800  0.66013200  0.90289400  1
  O  O16  1  0.64423400  0.30828500  0.25136000  1
  O  O17  1  0.64347300  0.98396000  0.58084300  1
loop_
_geom_bond_atom_site_label_1
_geom_bond_atom_site_label_2
_geom_bond_distance
_geom_bond_site_symmetry_2
Li0 O3 2.148278 1_655
Li0 O8 2.156833 1_545
Li0 O0 2.180967 1_555
Li0 O1 2.187210 1_556
Li0 O15 2.206745 1_545
Li0 O17 2.223472 1_545
Li1 O14 2.082708 1_555
Li1 O9 2.112215 1_655
Li1 O0 2.170525 1_555
Li1 O17 2.209158 1_545
Li1 O16 2.221606 1_555
Li1 O2 2.230871 1_555
Li2 O4 2.099764 1_556
Li2 O15 2.130598 1_455
Li2 O12 2.157440 1_455
Li2 O5 2.184096 1_555
Li2 O3 2.186951 1_565
Li2 O6 2.217556 1_455
Li3 O6 2.099764 1_554
Li3 O10 2.130598 1_655
Li3 O9 2.157440 1_655
Li3 O16 2.184096 1_555
Li3 O7 2.186951 1_545
Li3 O4 2.217556 1_655
Li4 O7 2.148278 1_455
Li4 O1 2.156833 1_565
Li4 O13 2.180967 1_555
Li4 O8 2.187210 1_554
Li4 O10 2.206745 1_565
Li4 O11 2.223472 1_565
Li5 O2 2.082708 1_555
Li5 O12 2.112215 1_455
Li5 O13 2.170525 1_555
Li5 O11 2.209158 1_565
Li5 O5 2.221606 1_555
Li5 O14 2.230871 1_555
Fe0 O1 1.967293 1_455
Fe0 O8 1.967293 1_544
Fe0 O6 1.975527 1_454
Fe0 O4 1.975527 1_545
Fe0 O3 1.978998 1_554
Fe0 O7 1.978998 1_445
Fe1 O13 2.001395 1_655
Fe1 O2 2.018286 1_555
Fe1 O9 2.062474 1_655
Fe1 O7 2.069451 1_555
Fe1 O4 2.094956 1_655
Fe1 O12 2.114482 1_555
Fe2 O0 2.001395 1_455
Fe2 O14 2.018286 1_555
Fe2 O12 2.062474 1_455
Fe2 O3 2.069451 1_555
Fe2 O6 2.094956 1_455
Fe2 O9 2.114482 1_555
O0 V3 1.990635 1_555
O0 V4 2.010198 1_555
O1 V5 1.987019 1_545
O1 V4 2.038544 1_554
O2 V3 1.954268 1_555
O2 V5 1.987689 1_555
O3 V2 1.859296 1_555
O4 V0 1.920053 1_555
O5 V2 2.011130 1_565
O5 V3 2.019466 1_555
O5 V0 2.061067 1_556
O6 V4 1.920053 1_555
O7 V5 1.859296 1_555
O8 V2 1.987019 1_565
O8 V0 2.038544 1_556
O9 V1 1.832943 1_555
O10 V4 1.960118 1_554
O10 V1 2.010315 1_555
O10 V0 2.047147 1_555
O11 V5 1.977752 1_545
O11 V1 2.045570 1_555
O11 V2 2.063841 1_555
O12 V3 1.832943 1_555
O13 V1 1.990635 1_555
O13 V0 2.010198 1_555
O14 V1 1.954268 1_555
O14 V2 1.987689 1_555
O15 V0 1.960118 1_556
O15 V3 2.010315 1_555
O15 V4 2.047147 1_555
O16 V5 2.011130 1_545
O16 V1 2.019466 1_555
O16 V4 2.061067 1_554
O17 V2 1.977752 1_565
O17 V3 2.045570 1_555
O17 V5 2.063841 1_555
