# generated using pymatgen
data_Li3V2(PO4)3
_symmetry_space_group_name_H-M   'P 1'
_cell_length_a   9.81814790
_cell_length_b   9.81814790
_cell_length_c   9.79098611
_cell_angle_alpha   86.33123025
_cell_angle_beta   86.33123025
_cell_angle_gamma   85.41769404
_symmetry_Int_Tables_number   1
_chemical_formula_structural   Li3V2(PO4)3
_chemical_formula_sum   'Li12 V8 P12 O48'
_cell_volume   937.22146511
_cell_formula_units_Z   4
loop_
 _symmetry_equiv_pos_site_id
 _symmetry_equiv_pos_as_xyz
  1  'x, y, z'
loop_
 _atom_site_type_symbol
 _atom_site_label
 _atom_site_symmetry_multiplicity
 _atom_site_fract_x
 _atom_site_fract_y
 _atom_site_fract_z
 _atom_site_occupancy
  Li  Li0  1  0.01456700  0.49515800  0.75956100  1
  Li  Li1  1  0.37914600  0.24997500  0.19445500  1
  Li  Li2  1  0.21839200  0.43645600  0.53261900  1
  Li  Li3  1  0.23470400  0.26597700  0.82024300  1
  Li  Li4  1  0.70255700  0.07562700  0.02456800  1
  Li  Li5  1  0.99750900  0.74358300  0.61240100  1
  Li  Li6  1  0.25641700  0.00249100  0.38759900  1
  Li  Li7  1  0.92437300  0.29744300  0.97543200  1
  Li  Li8  1  0.73402300  0.76529600  0.17975700  1
  Li  Li9  1  0.56354400  0.78160800  0.46738100  1
  Li  Li10  1  0.75002500  0.62085400  0.80554500  1
  Li  Li11  1  0.50484200  0.98543300  0.24043900  1
  V  V0  1  0.02950400  0.75086400  0.21755500  1
  V  V1  1  0.74653300  0.03383400  0.71908000  1
  V  V2  1  0.74849300  0.25150700  0.50000000  1
  V  V3  1  0.53143200  0.46856800  0.50000000  1
  V  V4  1  0.24874800  0.75125200  0.00000000  1
  V  V5  1  0.46819300  0.53180700  0.00000000  1
  V  V6  1  0.96616600  0.25346700  0.28092000  1
  V  V7  1  0.24913600  0.97049600  0.78244500  1
  P  P0  1  0.17407700  0.05452500  0.09711500  1
  P  P1  1  0.05027000  0.17855700  0.59514300  1
  P  P2  1  0.15619900  0.44758400  0.07139300  1
  P  P3  1  0.44226300  0.16216200  0.57077000  1
  P  P4  1  0.65180900  0.31856200  0.19651000  1
  P  P5  1  0.34080900  0.68100700  0.30222100  1
  P  P6  1  0.31899300  0.65919100  0.69777900  1
  P  P7  1  0.68143800  0.34819100  0.80349000  1
  P  P8  1  0.83783800  0.55773700  0.42923000  1
  P  P9  1  0.55241600  0.84380100  0.92860700  1
  P  P10  1  0.82144300  0.94973000  0.40485700  1
  P  P11  1  0.94547500  0.82592300  0.90288500  1
  O  O0  1  0.03208100  0.12764000  0.13130300  1
  O  O1  1  0.11161200  0.03959500  0.65564300  1
  O  O2  1  0.08144500  0.17925900  0.43682800  1
  O  O3  1  0.20839000  0.09170900  0.94179500  1
  O  O4  1  0.28503900  0.08844500  0.18940600  1
  O  O5  1  0.10305400  0.30238100  0.65748800  1
  O  O6  1  0.09035800  0.38762900  0.20749700  1
  O  O7  1  0.40313900  0.09267200  0.44741300  1
  O  O8  1  0.37060600  0.11965500  0.71034800  1
  O  O9  1  0.09778600  0.39740700  0.94314900  1
  O  O10  1  0.12311000  0.60854300  0.07511900  1
  O  O11  1  0.31307000  0.40990600  0.07265500  1
  O  O12  1  0.57804200  0.19688100  0.15542500  1
  O  O13  1  0.40647600  0.32223800  0.55512300  1
  O  O14  1  0.60349500  0.12953100  0.58283700  1
  O  O15  1  0.19353000  0.59544300  0.65116700  1
  O  O16  1  0.18317100  0.68788000  0.33115800  1
  O  O17  1  0.70305800  0.19193600  0.84431600  1
  O  O18  1  0.39387300  0.54250800  0.36971400  1
  O  O19  1  0.62234800  0.32878200  0.35760400  1
  O  O20  1  0.82398000  0.11047700  0.37009800  1
  O  O21  1  0.16378200  0.89406800  0.12439700  1
  O  O22  1  0.54133900  0.40200900  0.86612900  1
  O  O23  1  0.37859100  0.67331600  0.14048800  1
  O  O24  1  0.32668400  0.62140900  0.85951200  1
  O  O25  1  0.59799100  0.45866100  0.13387100  1
  O  O26  1  0.10593200  0.83621800  0.87560300  1
  O  O27  1  0.88952300  0.17602000  0.62990200  1
  O  O28  1  0.67121800  0.37765200  0.64239600  1
  O  O29  1  0.45749200  0.60612700  0.63028600  1
  O  O30  1  0.80806400  0.29694200  0.15568400  1
  O  O31  1  0.31212000  0.81682900  0.66884200  1
  O  O32  1  0.40455700  0.80647000  0.34883300  1
  O  O33  1  0.87046900  0.39650500  0.41716300  1
  O  O34  1  0.67776200  0.59352400  0.44487700  1
  O  O35  1  0.80311900  0.42195800  0.84457500  1
  O  O36  1  0.59009400  0.68693000  0.92734500  1
  O  O37  1  0.39145700  0.87689000  0.92488100  1
  O  O38  1  0.60259300  0.90221400  0.05685100  1
  O  O39  1  0.88034500  0.62939400  0.28965200  1
  O  O40  1  0.90732800  0.59686100  0.55258700  1
  O  O41  1  0.61237100  0.90964200  0.79250300  1
  O  O42  1  0.69761900  0.89694600  0.34251200  1
  O  O43  1  0.91155500  0.71496100  0.81059400  1
  O  O44  1  0.90829100  0.79161000  0.05820500  1
  O  O45  1  0.82074100  0.91855500  0.56317200  1
  O  O46  1  0.96040500  0.88838800  0.34435700  1
  O  O47  1  0.87236000  0.96791900  0.86869700  1
loop_
_geom_bond_atom_site_label_1
_geom_bond_atom_site_label_2
_geom_bond_distance
_geom_bond_site_symmetry_2
Li0 O9 2.159071 1_555
Li0 O15 2.255480 1_555
Li0 O5 2.281261 1_555
Li0 O35 2.336651 1_455
Li0 O43 2.377890 1_455
Li0 O40 2.461377 1_455
Li1 O4 1.902974 1_555
Li1 O12 1.999625 1_555
Li1 O11 2.001308 1_555
Li2 O15 1.994525 1_555
Li2 O5 2.089242 1_555
Li2 O13 2.098986 1_555
Li2 O18 2.513760 1_555
Li3 O3 2.044820 1_555
Li3 O5 2.110614 1_555
Li3 O9 2.152872 1_555
Li3 O8 2.170199 1_555
Li4 O38 2.029884 1_545
Li4 O17 2.039754 1_554
Li4 O12 2.077382 1_555
Li4 O47 2.413709 1_544
Li5 O40 1.892141 1_555
Li5 O43 2.077316 1_555
Li5 O15 2.353515 1_655
Li5 O45 2.391712 1_555
Li6 O7 1.892141 1_555
Li6 O4 2.077316 1_555
Li6 O32 2.353515 1_545
Li6 O2 2.391712 1_555
Li7 O9 2.029884 1_655
Li7 O30 2.039754 1_556
Li7 O35 2.077382 1_555
Li7 O0 2.413709 1_656
Li8 O44 2.044820 1_555
Li8 O42 2.110614 1_555
Li8 O38 2.152872 1_555
Li8 O39 2.170199 1_555
Li9 O32 1.994525 1_555
Li9 O42 2.089242 1_555
Li9 O34 2.098986 1_555
Li9 O29 2.513760 1_555
Li10 O43 1.902974 1_555
Li10 O35 1.999625 1_555
Li10 O36 2.001308 1_555
Li11 O38 2.159071 1_555
Li11 O32 2.255480 1_555
Li11 O42 2.281261 1_555
Li11 O12 2.336651 1_565
Li11 O4 2.377890 1_565
Li11 O7 2.461377 1_565
O0 P0 1.543406 1_555
O0 V6 2.018282 1_455
O1 P1 1.544666 1_555
O1 V7 1.945539 1_545
O2 P1 1.560343 1_555
O2 V6 2.022143 1_455
O3 P0 1.562834 1_556
O3 V7 2.022925 1_545
O4 P0 1.528657 1_555
O5 P1 1.534696 1_555
O6 P2 1.546078 1_555
O6 V6 1.939566 1_455
O7 P3 1.509466 1_555
O8 P3 1.545196 1_555
O8 V7 2.025908 1_545
O9 P2 1.537757 1_556
O10 P2 1.590003 1_555
O10 V4 2.013431 1_555
O10 V0 2.149932 1_555
O11 P2 1.555627 1_555
O11 V5 2.074055 1_555
O12 P4 1.533188 1_555
O13 P3 1.582671 1_555
O13 V3 1.989510 1_555
O14 P3 1.600170 1_555
O14 V2 2.029536 1_555
O14 V1 2.122024 1_555
O15 P6 1.532668 1_555
O16 P5 1.552380 1_555
O16 V0 1.968120 1_555
O17 P7 1.561651 1_555
O17 V1 2.041078 1_555
O18 P5 1.540470 1_555
O18 V3 1.980808 1_555
O19 P4 1.593343 1_555
O19 V2 1.997194 1_555
O19 V3 2.124623 1_555
O20 P10 1.594909 1_545
O20 V2 2.006235 1_555
O20 V6 2.163887 1_555
O21 P0 1.591087 1_565
O21 V4 2.011745 1_555
O21 V0 2.127208 1_555
O22 P7 1.537774 1_555
O22 V5 1.950606 1_556
O23 P5 1.608263 1_555
O23 V4 2.009120 1_555
O23 V5 2.119125 1_555
O24 P6 1.608263 1_555
O24 V4 2.009120 1_556
O24 V5 2.119125 1_556
O25 P4 1.537774 1_555
O25 V5 1.950606 1_555
O26 P11 1.591087 1_455
O26 V4 2.011745 1_556
O26 V7 2.127208 1_555
O27 P1 1.594909 1_655
O27 V2 2.006235 1_555
O27 V1 2.163887 1_555
O28 P7 1.593343 1_555
O28 V2 1.997194 1_555
O28 V3 2.124623 1_555
O29 P6 1.540470 1_555
O29 V3 1.980808 1_555
O30 P4 1.561651 1_555
O30 V6 2.041078 1_555
O31 P6 1.552380 1_555
O31 V7 1.968120 1_555
O32 P5 1.532668 1_555
O33 P8 1.600170 1_555
O33 V2 2.029536 1_555
O33 V6 2.122024 1_555
O34 P8 1.582671 1_555
O34 V3 1.989510 1_555
O35 P7 1.533188 1_555
O36 P9 1.555627 1_555
O36 V5 2.074055 1_556
O37 P9 1.590003 1_555
O37 V4 2.013431 1_556
O37 V7 2.149932 1_555
O38 P9 1.537757 1_554
O39 P8 1.545196 1_555
O39 V0 2.025908 1_655
O40 P8 1.509466 1_555
O41 P9 1.546078 1_555
O41 V1 1.939566 1_565
O42 P10 1.534696 1_555
O43 P11 1.528657 1_555
O44 P11 1.562834 1_554
O44 V0 2.022925 1_655
O45 P10 1.560343 1_555
O45 V1 2.022143 1_565
O46 P10 1.544666 1_555
O46 V0 1.945539 1_655
O47 P11 1.543406 1_555
O47 V1 2.018282 1_565
