# generated using pymatgen
data_V3Cu(PO4)4
_symmetry_space_group_name_H-M   'P 1'
_cell_length_a   4.91528685
_cell_length_b   9.98487933
_cell_length_c   5.91257000
_cell_angle_alpha   90.00000000
_cell_angle_beta   90.00000000
_cell_angle_gamma   91.53557054
_symmetry_Int_Tables_number   1
_chemical_formula_structural   V3Cu(PO4)4
_chemical_formula_sum   'V3 Cu1 P4 O16'
_cell_volume   290.07612997
_cell_formula_units_Z   1
loop_
 _symmetry_equiv_pos_site_id
 _symmetry_equiv_pos_as_xyz
  1  'x, y, z'
loop_
 _atom_site_type_symbol
 _atom_site_label
 _atom_site_symmetry_multiplicity
 _atom_site_fract_x
 _atom_site_fract_y
 _atom_site_fract_z
 _atom_site_occupancy
  V  V0  1  0.47981000  0.22944100  0.75000000  1
  V  V1  1  0.54257300  0.78060000  0.25000000  1
  V  V2  1  0.97735800  0.26804700  0.25000000  1
  Cu  Cu0  1  0.08926200  0.71060500  0.75000000  1
  P  P0  1  0.09666600  0.60074500  0.25000000  1
  P  P1  1  0.40444400  0.09450000  0.25000000  1
  P  P2  1  0.56172300  0.90245400  0.75000000  1
  P  P3  1  0.92143900  0.40380100  0.75000000  1
  O  O0  1  0.14050200  0.45025100  0.25000000  1
  O  O1  1  0.26084800  0.67317300  0.05408300  1
  O  O2  1  0.26084800  0.67317300  0.44591700  1
  O  O3  1  0.22418900  0.37558200  0.75000000  1
  O  O4  1  0.25344700  0.88339600  0.75000000  1
  O  O5  1  0.26236700  0.16908500  0.04753900  1
  O  O6  1  0.26236700  0.16908500  0.45246100  1
  O  O7  1  0.32851300  0.94471100  0.25000000  1
  O  O8  1  0.64295500  0.05117200  0.75000000  1
  O  O9  1  0.69202400  0.83238100  0.53721600  1
  O  O10  1  0.69202400  0.83238100  0.96278400  1
  O  O11  1  0.71156600  0.11775600  0.25000000  1
  O  O12  1  0.79389900  0.63047800  0.25000000  1
  O  O13  1  0.76905100  0.32772900  0.54768600  1
  O  O14  1  0.76905100  0.32772900  0.95231400  1
  O  O15  1  0.86307500  0.55172700  0.75000000  1
loop_
_geom_bond_atom_site_label_1
_geom_bond_atom_site_label_2
_geom_bond_distance
_geom_bond_site_symmetry_2
Cu0 O4 1.885021 1_555
Cu0 O15 1.912619 1_455
Cu0 O2 2.024942 1_555
Cu0 O1 2.024942 1_556
O0 P0 1.523738 1_555
O0 V2 1.968413 1_455
O1 P0 1.576324 1_555
O1 V1 2.080949 1_555
O2 P0 1.576324 1_555
O2 V1 2.080949 1_555
O3 P3 1.521944 1_455
O3 V0 1.950947 1_555
O4 P2 1.522099 1_555
O5 P1 1.582132 1_555
O5 V2 2.108570 1_455
O5 V0 2.136783 1_554
O6 P1 1.582132 1_555
O6 V2 2.108570 1_455
O6 V0 2.136783 1_555
O7 P1 1.531755 1_565
O7 V1 1.970929 1_555
O8 P2 1.527307 1_545
O8 V0 1.971784 1_555
O9 P2 1.583215 1_555
O9 V1 1.915834 1_555
O10 P2 1.583215 1_555
O10 V1 1.915834 1_556
O11 P1 1.521185 1_555
O11 V2 1.963068 1_555
O12 P0 1.525292 1_655
O12 V1 1.967780 1_555
O13 P3 1.593231 1_555
O13 V0 2.083381 1_555
O13 V2 2.129338 1_555
O14 P3 1.593231 1_555
O14 V0 2.083381 1_555
O14 V2 2.129338 1_556
O15 P3 1.512152 1_555
