# generated using pymatgen
data_SmF3
_symmetry_space_group_name_H-M   'P 1'
_cell_length_a   4.37738984
_cell_length_b   6.64583764
_cell_length_c   7.02451377
_cell_angle_alpha   90.00000000
_cell_angle_beta   90.00000000
_cell_angle_gamma   90.00000000
_symmetry_Int_Tables_number   1
_chemical_formula_structural   SmF3
_chemical_formula_sum   'Sm4 F12'
_cell_volume   204.35309558
_cell_formula_units_Z   4
loop_
 _symmetry_equiv_pos_site_id
 _symmetry_equiv_pos_as_xyz
  1  'x, y, z'
loop_
 _atom_site_type_symbol
 _atom_site_label
 _atom_site_symmetry_multiplicity
 _atom_site_fract_x
 _atom_site_fract_y
 _atom_site_fract_z
 _atom_site_occupancy
  Sm  Sm0  1  0.93422798  0.63183677  0.75000000  1
  Sm  Sm1  1  0.43422798  0.86816323  0.25000000  1
  Sm  Sm2  1  0.56577202  0.13183677  0.75000000  1
  Sm  Sm3  1  0.06577202  0.36816323  0.25000000  1
  F  F0  1  0.07481283  0.98138921  0.75000000  1
  F  F1  1  0.57481283  0.51861079  0.25000000  1
  F  F2  1  0.42518717  0.48138921  0.75000000  1
  F  F3  1  0.92518717  0.01861079  0.25000000  1
  F  F4  1  0.39395352  0.16560295  0.06482613  1
  F  F5  1  0.89395352  0.33439705  0.93517287  1
  F  F6  1  0.10604648  0.66560295  0.43517287  1
  F  F7  1  0.60604648  0.83439705  0.56482713  1
  F  F8  1  0.60604648  0.83439705  0.93517287  1
  F  F9  1  0.10604648  0.66560295  0.06482613  1
  F  F10  1  0.89395352  0.33439705  0.56482713  1
  F  F11  1  0.39395352  0.16560295  0.43517287  1
loop_
_geom_bond_atom_site_label_1
_geom_bond_atom_site_label_2
_geom_bond_distance
_geom_bond_site_symmetry_2
F0 Sm2 2.370320 1_565
F0 Sm0 2.403198 1_455
F0 Sm2 2.442312 1_465
F1 Sm3 2.370320 1_655
F1 Sm1 2.403198 1_555
F1 Sm3 2.442312 1_555
F2 Sm0 2.370320 1_455
F2 Sm2 2.403198 1_555
F2 Sm0 2.442312 1_555
F3 Sm1 2.370320 1_545
F3 Sm3 2.403198 1_655
F3 Sm1 2.442312 1_645
F4 Sm2 2.346651 1_554
F4 Sm3 2.359647 1_555
F4 Sm1 2.372875 1_545
F5 Sm3 2.346658 1_656
F5 Sm2 2.359643 1_555
F5 Sm0 2.372871 1_555
F6 Sm0 2.346658 1_455
F6 Sm1 2.359643 1_555
F6 Sm3 2.372871 1_555
F7 Sm1 2.346658 1_555
F7 Sm0 2.359643 1_555
F7 Sm2 2.372871 1_565
F8 Sm1 2.346658 1_556
F8 Sm0 2.359643 1_555
F8 Sm2 2.372871 1_565
F9 Sm0 2.346651 1_454
F9 Sm1 2.359647 1_555
F9 Sm3 2.372875 1_555
F10 Sm3 2.346658 1_655
F10 Sm2 2.359643 1_555
F10 Sm0 2.372871 1_555
F11 Sm2 2.346658 1_555
F11 Sm3 2.359643 1_555
F11 Sm1 2.372871 1_545
