# generated using pymatgen
data_LiTiVO4
_symmetry_space_group_name_H-M   'P 1'
_cell_length_a   7.88263591
_cell_length_b   7.95023336
_cell_length_c   8.12294377
_cell_angle_alpha   67.93373004
_cell_angle_beta   97.34083693
_cell_angle_gamma   85.94387322
_symmetry_Int_Tables_number   1
_chemical_formula_structural   LiTiVO4
_chemical_formula_sum   'Li6 Ti6 V6 O24'
_cell_volume   463.97965943
_cell_formula_units_Z   6
loop_
 _symmetry_equiv_pos_site_id
 _symmetry_equiv_pos_as_xyz
  1  'x, y, z'
loop_
 _atom_site_type_symbol
 _atom_site_label
 _atom_site_symmetry_multiplicity
 _atom_site_fract_x
 _atom_site_fract_y
 _atom_site_fract_z
 _atom_site_occupancy
  Li  Li0  1  0.75484700  0.00803100  0.23934100  1
  Li  Li1  1  0.25483900  0.00831600  0.73908500  1
  Li  Li2  1  0.50129300  0.33115100  0.16945800  1
  Li  Li3  1  0.00138300  0.33115800  0.66968600  1
  Li  Li4  1  0.74187900  0.65955600  0.59547600  1
  Li  Li5  1  0.24205000  0.65917600  0.09552000  1
  Ti  Ti0  1  0.85887500  0.00411800  0.62045600  1
  Ti  Ti1  1  0.35861800  0.00406200  0.11990500  1
  Ti  Ti2  1  0.89764500  0.34549500  0.29880200  1
  Ti  Ti3  1  0.39757400  0.34548900  0.79872000  1
  Ti  Ti4  1  0.62557100  0.67125600  0.20453100  1
  Ti  Ti5  1  0.12582200  0.67158100  0.70449900  1
  V  V0  1  0.12875200  0.00221100  0.37666600  1
  V  V1  1  0.61135700  0.32607600  0.53148300  1
  V  V2  1  0.87280900  0.66526500  0.95591200  1
  V  V3  1  0.62871000  0.00212400  0.87657900  1
  V  V4  1  0.11137800  0.32623300  0.03169500  1
  V  V5  1  0.37260200  0.66506600  0.45578900  1
  O  O0  1  0.79937700  0.15899700  0.74187400  1
  O  O1  1  0.29924100  0.15899700  0.24166500  1
  O  O2  1  0.04478300  0.16312300  0.51669700  1
  O  O3  1  0.54462000  0.16299700  0.01658700  1
  O  O4  1  0.05026900  0.49308400  0.16760400  1
  O  O5  1  0.55018400  0.49303000  0.66723700  1
  O  O6  1  0.79577000  0.48724400  0.42776200  1
  O  O7  1  0.29589700  0.48720200  0.92772100  1
  O  O8  1  0.78926300  0.82518100  0.09084300  1
  O  O9  1  0.28939400  0.82535900  0.59089300  1
  O  O10  1  0.55568500  0.82095100  0.33481600  1
  O  O11  1  0.05583500  0.82125800  0.83476400  1
  O  O12  1  0.70999200  0.16870700  0.40328200  1
  O  O13  1  0.20982900  0.16883500  0.90296400  1
  O  O14  1  0.94796600  0.17647800  0.17823100  1
  O  O15  1  0.44794700  0.17648200  0.67811200  1
  O  O16  1  0.70814600  0.50030800  0.09986800  1
  O  O17  1  0.20813300  0.50050200  0.59979200  1
  O  O18  1  0.45048200  0.51119800  0.31177400  1
  O  O19  1  0.95062200  0.51143900  0.81217000  1
  O  O20  1  0.44899400  0.84033700  0.00103700  1
  O  O21  1  0.94919800  0.84040800  0.50112100  1
  O  O22  1  0.70961600  0.83997300  0.73929400  1
  O  O23  1  0.20958500  0.83992300  0.23927300  1
loop_
_geom_bond_atom_site_label_1
_geom_bond_atom_site_label_2
_geom_bond_distance
_geom_bond_site_symmetry_2
Li0 O14 2.083081 1_555
Li0 O3 2.192708 1_555
Li0 O12 2.205617 1_555
Li0 O8 2.233205 1_545
Li0 O10 2.247898 1_545
Li0 O21 2.322535 1_545
Li1 O15 2.081559 1_555
Li1 O2 2.190096 1_555
Li1 O13 2.204441 1_555
Li1 O9 2.232095 1_545
Li1 O11 2.247121 1_545
Li1 O20 2.323140 1_546
Li2 O1 2.167464 1_555
Li2 O3 2.176444 1_555
Li2 O16 2.182057 1_555
Li2 O18 2.196882 1_555
Li2 O12 2.244920 1_555
Li2 O7 2.255956 1_554
Li3 O0 2.167182 1_455
Li3 O2 2.176566 1_555
Li3 O17 2.182543 1_555
Li3 O19 2.199442 1_455
Li3 O13 2.241180 1_555
Li3 O6 2.257844 1_455
Li4 O5 2.074635 1_555
Li4 O19 2.149609 1_555
Li4 O22 2.184065 1_555
Li4 O21 2.269341 1_555
Li4 O10 2.276356 1_555
Li4 O6 2.319676 1_555
Li5 O4 2.073527 1_555
Li5 O18 2.146037 1_555
Li5 O23 2.186094 1_555
Li5 O20 2.268524 1_555
Li5 O11 2.277859 1_554
Li5 O7 2.318032 1_554
O0 Ti0 1.912544 1_555
O0 V3 2.037339 1_555
O0 V1 2.061619 1_555
O1 Ti1 1.914849 1_555
O1 V0 2.036883 1_555
O1 V4 2.059579 1_555
O2 Ti2 1.972178 1_455
O2 Ti0 2.057443 1_455
O2 V0 2.129425 1_555
O3 Ti3 1.972089 1_554
O3 Ti1 2.056794 1_555
O3 V3 2.129355 1_554
O4 Ti2 1.883541 1_455
O4 V2 2.033061 1_454
O4 V4 2.087160 1_555
O5 Ti3 1.884243 1_555
O5 V5 2.032219 1_555
O5 V1 2.086955 1_555
O6 Ti2 1.996527 1_555
O6 V1 2.056723 1_555
O6 Ti4 2.082228 1_555
O7 Ti3 1.995910 1_555
O7 V4 2.057122 1_556
O7 Ti5 2.082682 1_555
O8 Ti4 1.921995 1_555
O8 V3 1.988832 1_564
O8 V2 2.089110 1_554
O9 Ti5 1.920453 1_555
O9 V0 1.988765 1_565
O9 V5 2.091673 1_555
O10 Ti4 1.960202 1_555
O10 V5 2.069949 1_555
O10 Ti1 2.158122 1_565
O11 Ti5 1.960203 1_555
O11 V2 2.070475 1_455
O11 Ti0 2.154736 1_465
O12 Ti0 1.928954 1_555
O12 V1 2.074243 1_555
O12 Ti2 2.145325 1_555
O13 Ti1 1.927952 1_556
O13 V4 2.077191 1_556
O13 Ti3 2.144849 1_555
O14 Ti2 1.983640 1_555
O14 V0 2.001062 1_655
O14 V4 2.009363 1_655
O15 Ti3 1.983893 1_555
O15 V3 2.001324 1_555
O15 V1 2.009162 1_555
O16 Ti4 1.969260 1_555
O16 Ti2 1.996524 1_555
O16 V2 2.061176 1_554
O17 Ti5 1.969686 1_555
O17 Ti3 1.996639 1_555
O17 V5 2.058730 1_555
O18 Ti4 2.001442 1_555
O18 V1 2.035533 1_555
O18 V5 2.096257 1_555
O19 Ti5 2.003473 1_655
O19 V4 2.034551 1_656
O19 V2 2.094022 1_555
O20 Ti4 1.988594 1_555
O20 Ti1 2.030525 1_565
O20 V3 2.080880 1_564
O21 Ti5 1.987703 1_655
O21 Ti0 2.033167 1_565
O21 V0 2.079929 1_665
O22 Ti0 1.892102 1_565
O22 V2 2.003157 1_555
O22 V3 2.111342 1_565
O23 Ti1 1.892193 1_565
O23 V5 2.002424 1_555
O23 V0 2.112711 1_565
