# generated using pymatgen
data_Li4Nb3Fe3(SnO8)2
_symmetry_space_group_name_H-M   'P 1'
_cell_length_a   6.19607481
_cell_length_b   6.19607481
_cell_length_c   10.02095710
_cell_angle_alpha   89.19619045
_cell_angle_beta   89.19619045
_cell_angle_gamma   59.33228456
_symmetry_Int_Tables_number   1
_chemical_formula_structural   Li4Nb3Fe3(SnO8)2
_chemical_formula_sum   'Li4 Nb3 Fe3 Sn2 O16'
_cell_volume   330.86813996
_cell_formula_units_Z   1
loop_
 _symmetry_equiv_pos_site_id
 _symmetry_equiv_pos_as_xyz
  1  'x, y, z'
loop_
 _atom_site_type_symbol
 _atom_site_label
 _atom_site_symmetry_multiplicity
 _atom_site_fract_x
 _atom_site_fract_y
 _atom_site_fract_z
 _atom_site_occupancy
  Li  Li0  1  0.66969400  0.66969400  0.90438000  1
  Li  Li1  1  0.00287900  0.00287900  0.99722000  1
  Li  Li2  1  0.00712700  0.00712700  0.48225100  1
  Li  Li3  1  0.34021900  0.34021900  0.38904900  1
  Nb  Nb0  1  0.82480000  0.82480000  0.21774200  1
  Nb  Nb1  1  0.65125500  0.17366400  0.71406000  1
  Nb  Nb2  1  0.17366400  0.65125500  0.71406000  1
  Fe  Fe0  1  0.82928300  0.34254200  0.21127900  1
  Fe  Fe1  1  0.34254200  0.82928300  0.21127900  1
  Fe  Fe2  1  0.16806200  0.16806200  0.71386300  1
  Sn  Sn0  1  0.65877700  0.65877700  0.48296800  1
  Sn  Sn1  1  0.32567300  0.32567300  0.00270300  1
  O  O0  1  0.82368000  0.32411400  0.60106000  1
  O  O1  1  0.52155700  0.52155700  0.34321500  1
  O  O2  1  0.68426000  0.68426000  0.09499000  1
  O  O3  1  0.98875400  0.98875400  0.30244200  1
  O  O4  1  0.99129900  0.99129900  0.80933600  1
  O  O5  1  0.32411400  0.82368000  0.60106000  1
  O  O6  1  0.96930800  0.53183000  0.35044600  1
  O  O7  1  0.53183000  0.96930800  0.35044600  1
  O  O8  1  0.15788300  0.15788300  0.09360700  1
  O  O9  1  0.83014700  0.83014700  0.60722900  1
  O  O10  1  0.48929000  0.04612000  0.83953100  1
  O  O11  1  0.04612000  0.48929000  0.83953100  1
  O  O12  1  0.33980400  0.33980400  0.59358700  1
  O  O13  1  0.66462700  0.15307800  0.09854800  1
  O  O14  1  0.48397800  0.48397800  0.84294200  1
  O  O15  1  0.15307800  0.66462700  0.09854800  1
loop_
_geom_bond_atom_site_label_1
_geom_bond_atom_site_label_2
_geom_bond_distance
_geom_bond_site_symmetry_2
Li0 O2 1.919045 1_556
Li0 O14 2.101866 1_555
Li0 O11 2.104755 1_655
Li0 O10 2.104755 1_565
Li1 O4 1.888910 1_445
Li1 O8 1.941843 1_556
Li1 O13 2.065613 1_456
Li1 O15 2.065613 1_546
Li2 O3 1.815859 1_445
Li2 O5 2.077814 1_545
Li2 O0 2.077814 1_455
Li2 O9 2.263427 1_445
Li3 O1 1.998679 1_555
Li3 O6 2.017309 1_455
Li3 O7 2.017309 1_545
Li3 O12 2.049599 1_555
Nb0 O2 1.965540 1_555
Nb0 O3 1.971179 1_555
Nb0 O7 2.042778 1_555
Nb0 O6 2.042778 1_555
Nb0 O15 2.110627 1_655
Nb0 O13 2.110627 1_565
Nb1 O10 1.989545 1_555
Nb1 O4 2.055500 1_545
Nb1 O0 2.060350 1_555
Nb1 O12 2.060384 1_555
Nb1 O14 2.106741 1_555
Nb1 O9 2.128134 1_545
Nb2 O11 1.989545 1_555
Nb2 O4 2.055500 1_455
Nb2 O5 2.060350 1_555
Nb2 O12 2.060384 1_555
Nb2 O14 2.106741 1_555
Nb2 O9 2.128134 1_455
Fe0 O3 2.091828 1_545
Fe0 O1 2.103992 1_555
Fe0 O8 2.106914 1_655
Fe0 O2 2.160496 1_555
Fe0 O13 2.233034 1_555
Fe0 O6 2.278386 1_555
Fe1 O3 2.091828 1_455
Fe1 O1 2.103992 1_555
Fe1 O8 2.106914 1_565
Fe1 O2 2.160496 1_555
Fe1 O15 2.233034 1_555
Fe1 O7 2.278386 1_555
Fe2 O4 2.116435 1_445
Fe2 O10 2.151230 1_555
Fe2 O11 2.151230 1_555
Fe2 O5 2.167527 1_545
Fe2 O0 2.167527 1_455
Fe2 O12 2.191028 1_555
O0 Sn0 2.132594 1_555
O1 Sn0 2.052143 1_555
O5 Sn0 2.132594 1_555
O6 Sn0 2.120868 1_555
O7 Sn0 2.120868 1_555
O8 Sn1 2.010217 1_555
O9 Sn0 2.242728 1_555
O10 Sn1 2.223363 1_556
O11 Sn1 2.223363 1_556
O13 Sn1 2.052689 1_555
O14 Sn1 2.319616 1_556
O15 Sn1 2.052689 1_555
