# generated using pymatgen
data_Li2MnVP2(O4F)2
_symmetry_space_group_name_H-M   'P 1'
_cell_length_a   5.19032700
_cell_length_b   7.53938413
_cell_length_c   14.92904658
_cell_angle_alpha   93.56459084
_cell_angle_beta   92.63797641
_cell_angle_gamma   108.76266781
_symmetry_Int_Tables_number   1
_chemical_formula_structural   Li2MnVP2(O4F)2
_chemical_formula_sum   'Li6 Mn3 V3 P6 O24 F6'
_cell_volume   550.73729513
_cell_formula_units_Z   3
loop_
 _symmetry_equiv_pos_site_id
 _symmetry_equiv_pos_as_xyz
  1  'x, y, z'
loop_
 _atom_site_type_symbol
 _atom_site_label
 _atom_site_symmetry_multiplicity
 _atom_site_fract_x
 _atom_site_fract_y
 _atom_site_fract_z
 _atom_site_occupancy
  Li  Li0  1  0.76953900  0.84965000  0.03895400  1
  Li  Li1  1  0.56548200  0.48522600  0.29460000  1
  Li  Li2  1  0.23046100  0.15035000  0.96104600  1
  Li  Li3  1  0.43451800  0.51477400  0.70540000  1
  Li  Li4  1  0.10305300  0.18576500  0.37243300  1
  Li  Li5  1  0.89694700  0.81423500  0.62756700  1
  Mn  Mn0  1  0.83427300  0.83359200  0.83289100  1
  Mn  Mn1  1  0.50000000  0.00000000  0.50000000  1
  Mn  Mn2  1  0.16572700  0.16640800  0.16710900  1
  V  V0  1  0.83296300  0.33282600  0.83349800  1
  V  V1  1  0.50000000  0.50000000  0.50000000  1
  V  V2  1  0.16703700  0.66717400  0.16650200  1
  P  P0  1  0.72275800  0.28390600  0.04913200  1
  P  P1  1  0.60819800  0.04911600  0.28552300  1
  P  P2  1  0.39180200  0.95088400  0.71447700  1
  P  P3  1  0.27724200  0.71609400  0.95086800  1
  P  P4  1  0.06307000  0.62138200  0.38111300  1
  P  P5  1  0.93693000  0.37861800  0.61888700  1
  O  O0  1  0.81759100  0.18060100  0.57027600  1
  O  O1  1  0.69285900  0.04818200  0.38698600  1
  O  O2  1  0.59587300  0.83514100  0.72331600  1
  O  O3  1  0.49230900  0.85308500  0.23746200  1
  O  O4  1  0.63869300  0.28600900  0.94812700  1
  O  O5  1  0.79182100  0.50471600  0.41843900  1
  O  O6  1  0.73335900  0.49317000  0.61168400  1
  O  O7  1  0.44753800  0.16674400  0.08571000  1
  O  O8  1  0.50769100  0.14691500  0.76253800  1
  O  O9  1  0.40412700  0.16485900  0.27668400  1
  O  O10  1  0.30714100  0.95181800  0.61301400  1
  O  O11  1  0.55246200  0.83325600  0.91429000  1
  O  O12  1  0.11506500  0.83452500  0.75044600  1
  O  O13  1  0.36130700  0.71399100  0.05187300  1
  O  O14  1  0.26664100  0.50683000  0.38831600  1
  O  O15  1  0.15923600  0.51958200  0.90357400  1
  O  O16  1  0.20817900  0.49528400  0.58156100  1
  O  O17  1  0.92798600  0.16839400  0.05748600  1
  O  O18  1  0.88493500  0.16547500  0.24955400  1
  O  O19  1  0.02540100  0.37264500  0.71926200  1
  O  O20  1  0.18240900  0.81939900  0.42972400  1
  O  O21  1  0.07201400  0.83160600  0.94251400  1
  O  O22  1  0.97459900  0.62735500  0.28073800  1
  O  O23  1  0.84076400  0.48041800  0.09642600  1
  F  F0  1  0.67238800  0.53527800  0.80828600  1
  F  F1  1  0.65973400  0.78082700  0.52517300  1
  F  F2  1  0.34026600  0.21917300  0.47482700  1
  F  F3  1  0.32761200  0.46472200  0.19171400  1
  F  F4  1  0.00497000  0.86865400  0.14108200  1
  F  F5  1  0.99503000  0.13134600  0.85891800  1
loop_
_geom_bond_atom_site_label_1
_geom_bond_atom_site_label_2
_geom_bond_distance
_geom_bond_site_symmetry_2
Li0 O13 2.059339 1_555
Li0 O11 2.106482 1_554
Li0 O21 2.208446 1_654
Li0 O17 2.270010 1_565
Li1 O22 2.074700 1_555
Li1 O5 2.115416 1_555
Li1 O14 2.173427 1_555
Li1 O9 2.281380 1_555
Li2 O4 2.059339 1_555
Li2 O7 2.106482 1_556
Li2 O17 2.208446 1_456
Li2 O21 2.270010 1_545
Li3 O19 2.074700 1_555
Li3 O16 2.115416 1_555
Li3 O6 2.173427 1_555
Li3 O2 2.281380 1_555
Li4 O1 2.075069 1_455
Li4 O18 2.081551 1_455
Li4 O9 2.201395 1_555
Li4 O14 2.285725 1_555
Li5 O10 2.075069 1_655
Li5 O12 2.081551 1_655
Li5 O2 2.201395 1_555
Li5 O6 2.285725 1_555
Mn0 O11 1.943662 1_555
Mn0 O12 1.949001 1_655
Mn0 O21 2.007550 1_655
Mn0 O2 2.008130 1_555
Mn1 O0 1.972625 1_555
Mn1 O20 1.972625 1_545
Mn1 O1 1.994575 1_555
Mn1 O10 1.994575 1_545
Mn2 O7 1.943662 1_555
Mn2 O18 1.949001 1_455
Mn2 O17 2.007550 1_455
Mn2 O9 2.008130 1_555
O0 P5 1.538889 1_555
O1 P1 1.558730 1_555
O2 P2 1.580138 1_555
O3 P1 1.522329 1_565
O3 V2 2.016331 1_555
O4 P0 1.552829 1_556
O4 V0 2.018627 1_555
O5 P4 1.550108 1_655
O5 V1 1.979530 1_555
O6 P5 1.569070 1_555
O6 V1 2.028446 1_555
O7 P0 1.561758 1_555
O8 P2 1.522329 1_545
O8 V0 2.016331 1_555
O9 P1 1.580138 1_555
O10 P2 1.558730 1_555
O11 P3 1.561758 1_555
O12 P2 1.562066 1_555
O13 P3 1.552829 1_554
O13 V2 2.018627 1_555
O14 P4 1.569070 1_555
O14 V1 2.028446 1_555
O15 P3 1.521541 1_555
O15 V0 2.016102 1_455
O16 P5 1.550108 1_455
O16 V1 1.979530 1_555
O17 P0 1.583256 1_555
O18 P1 1.562066 1_555
O19 P5 1.554591 1_455
O19 V0 2.005950 1_455
O20 P4 1.538889 1_555
O21 P3 1.583256 1_555
O22 P4 1.554591 1_655
O22 V2 2.005950 1_655
O23 P0 1.521541 1_555
O23 V2 2.016102 1_655
F0 Li3 1.892245 1_555
F0 V0 2.006737 1_555
F0 Mn0 2.133674 1_555
F1 Li5 1.869616 1_555
F1 V1 2.013592 1_555
F1 Mn1 2.118717 1_565
F2 Li4 1.869616 1_555
F2 V1 2.013592 1_555
F2 Mn1 2.118717 1_555
F3 Li1 1.892245 1_555
F3 V2 2.006737 1_555
F3 Mn2 2.133674 1_555
F4 Li0 1.878048 1_455
F4 V2 2.005832 1_555
F4 Mn2 2.131526 1_565
F5 Li2 1.878048 1_655
F5 V0 2.005832 1_555
F5 Mn0 2.131526 1_545
