# generated using pymatgen
data_Tl8Os8O27
_symmetry_space_group_name_H-M   'P 1'
_cell_length_a   7.37423800
_cell_length_b   7.37423800
_cell_length_c   10.44277200
_cell_angle_alpha   90.00000000
_cell_angle_beta   90.00000000
_cell_angle_gamma   90.00000000
_symmetry_Int_Tables_number   1
_chemical_formula_structural   Tl8Os8O27
_chemical_formula_sum   'Tl8 Os8 O27'
_cell_volume   567.87153034
_cell_formula_units_Z   1
loop_
 _symmetry_equiv_pos_site_id
 _symmetry_equiv_pos_as_xyz
  1  'x, y, z'
loop_
 _atom_site_type_symbol
 _atom_site_label
 _atom_site_symmetry_multiplicity
 _atom_site_fract_x
 _atom_site_fract_y
 _atom_site_fract_z
 _atom_site_occupancy
  Tl  Tl0  1  0.24907100  0.50000000  0.62740100  1
  Tl  Tl1  1  0.75092900  0.50000000  0.62740100  1
  Tl  Tl2  1  0.00000000  0.76326300  0.88241300  1
  Tl  Tl3  1  0.00000000  0.23673700  0.88241300  1
  Tl  Tl4  1  0.76326300  0.00000000  0.11758700  1
  Tl  Tl5  1  0.23673700  0.00000000  0.11758700  1
  Tl  Tl6  1  0.50000000  0.24907100  0.37259900  1
  Tl  Tl7  1  0.50000000  0.75092900  0.37259900  1
  Os  Os0  1  0.24975500  0.00000000  0.62394600  1
  Os  Os1  1  0.75024500  0.00000000  0.62394600  1
  Os  Os2  1  0.50000000  0.75019000  0.87401300  1
  Os  Os3  1  0.50000000  0.24981000  0.87401300  1
  Os  Os4  1  0.75019000  0.50000000  0.12598700  1
  Os  Os5  1  0.24981000  0.50000000  0.12598700  1
  Os  Os6  1  0.00000000  0.75024500  0.37605400  1
  Os  Os7  1  0.00000000  0.24975500  0.37605400  1
  O  O0  1  0.00000000  0.00000000  0.67353000  1
  O  O1  1  0.00000000  0.50000000  0.74845300  1
  O  O2  1  0.68745900  0.19450500  0.74608300  1
  O  O3  1  0.31254100  0.80549500  0.74608300  1
  O  O4  1  0.31254100  0.19450500  0.74608300  1
  O  O5  1  0.68745900  0.80549500  0.74608300  1
  O  O6  1  0.50000000  0.50000000  0.79922200  1
  O  O7  1  0.50000000  0.00000000  0.93047500  1
  O  O8  1  0.68369800  0.31630200  0.00000000  1
  O  O9  1  0.31630200  0.31630200  0.00000000  1
  O  O10  1  0.31630200  0.68369800  0.00000000  1
  O  O11  1  0.68369800  0.68369800  0.00000000  1
  O  O12  1  0.00000000  0.50000000  0.06952500  1
  O  O13  1  0.50000000  0.50000000  0.20077800  1
  O  O14  1  0.50000000  0.00000000  0.25154700  1
  O  O15  1  0.80549500  0.68745900  0.25391700  1
  O  O16  1  0.19450500  0.31254100  0.25391700  1
  O  O17  1  0.80549500  0.31254100  0.25391700  1
  O  O18  1  0.19450500  0.68745900  0.25391700  1
  O  O19  1  0.00000000  0.00000000  0.32647000  1
  O  O20  1  0.00000000  0.50000000  0.44797000  1
  O  O21  1  0.50000000  0.50000000  0.50000000  1
  O  O22  1  0.19875000  0.19875000  0.50000000  1
  O  O23  1  0.19875000  0.80125000  0.50000000  1
  O  O24  1  0.80125000  0.19875000  0.50000000  1
  O  O25  1  0.80125000  0.80125000  0.50000000  1
  O  O26  1  0.50000000  0.00000000  0.55203000  1
loop_
_geom_bond_atom_site_label_1
_geom_bond_atom_site_label_2
_geom_bond_distance
_geom_bond_site_symmetry_2
O0 Os0 1.913156 1_555
O0 Os1 1.913156 1_455
O0 Tl3 2.793887 1_555
O0 Tl2 2.793887 1_545
O1 Tl0 2.229685 1_555
O1 Tl1 2.229685 1_455
O1 Tl2 2.392876 1_555
O1 Tl3 2.392876 1_555
O2 Os3 1.965200 1_555
O2 Os1 1.974444 1_555
O2 Tl1 2.613460 1_555
O2 Tl3 2.726845 1_655
O3 Os2 1.965200 1_555
O3 Os0 1.974444 1_565
O3 Tl0 2.613460 1_555
O3 Tl2 2.726845 1_555
O4 Os3 1.965200 1_555
O4 Os0 1.974444 1_555
O4 Tl0 2.613460 1_555
O4 Tl3 2.726845 1_555
O5 Os2 1.965200 1_555
O5 Os1 1.974444 1_565
O5 Tl1 2.613460 1_555
O5 Tl2 2.726845 1_655
O6 Os3 2.003467 1_555
O6 Os2 2.003467 1_555
O6 Tl1 2.577496 1_555
O6 Tl0 2.577496 1_555
O7 Os2 1.934218 1_545
O7 Os3 1.934218 1_555
O7 Tl4 2.754430 1_556
O7 Tl5 2.754430 1_556
O8 Os3 1.950999 1_554
O8 Os4 1.950999 1_555
O8 Tl4 2.700476 1_555
O8 Tl3 2.700476 1_654
O9 Os5 1.950999 1_555
O9 Os3 1.950999 1_554
O9 Tl5 2.700476 1_555
O9 Tl3 2.700476 1_554
O10 Os5 1.950999 1_555
O10 Os2 1.950999 1_554
O10 Tl2 2.700476 1_554
O10 Tl5 2.700476 1_565
O11 Os4 1.950999 1_555
O11 Os2 1.950999 1_554
O11 Tl4 2.700476 1_565
O11 Tl2 2.700476 1_654
O12 Os4 1.934218 1_455
O12 Os5 1.934218 1_555
O12 Tl2 2.754430 1_554
O12 Tl3 2.754430 1_554
O13 Os5 2.003467 1_555
O13 Os4 2.003467 1_555
O13 Tl7 2.577496 1_555
O13 Tl6 2.577496 1_555
O14 Tl6 2.229685 1_555
O14 Tl7 2.229685 1_545
O14 Tl4 2.392876 1_555
O14 Tl5 2.392876 1_555
O15 Os4 1.965200 1_555
O15 Os6 1.974444 1_655
O15 Tl7 2.613460 1_555
O15 Tl4 2.726845 1_565
O16 Os5 1.965200 1_555
O16 Os7 1.974444 1_555
O16 Tl6 2.613460 1_555
O16 Tl5 2.726845 1_555
O17 Os4 1.965200 1_555
O17 Os7 1.974444 1_655
O17 Tl6 2.613460 1_555
O17 Tl4 2.726845 1_555
O18 Os5 1.965200 1_555
O18 Os6 1.974444 1_555
O18 Tl7 2.613460 1_555
O18 Tl5 2.726845 1_565
O19 Os7 1.913156 1_555
O19 Os6 1.913156 1_545
O19 Tl5 2.793887 1_555
O19 Tl4 2.793887 1_455
O20 Os6 1.992331 1_555
O20 Os7 1.992331 1_555
O20 Tl0 2.623826 1_555
O20 Tl1 2.623826 1_455
O21 Tl0 2.279042 1_555
O21 Tl1 2.279042 1_555
O21 Tl7 2.279042 1_555
O21 Tl6 2.279042 1_555
O22 Os0 1.991194 1_555
O22 Os7 1.991194 1_555
O22 Tl0 2.615861 1_555
O22 Tl6 2.615861 1_555
O23 Os0 1.991194 1_565
O23 Os6 1.991194 1_555
O23 Tl0 2.615861 1_555
O23 Tl7 2.615861 1_555
O24 Os7 1.991194 1_655
O24 Os1 1.991194 1_555
O24 Tl1 2.615861 1_555
O24 Tl6 2.615861 1_555
O25 Os1 1.991194 1_565
O25 Os6 1.991194 1_655
O25 Tl1 2.615861 1_555
O25 Tl7 2.615861 1_555
O26 Os1 1.992331 1_555
O26 Os0 1.992331 1_555
O26 Tl6 2.623826 1_555
O26 Tl7 2.623826 1_545
