# generated using pymatgen
data_Fe3OF5
_symmetry_space_group_name_H-M   'P 1'
_cell_length_a   7.42558807
_cell_length_b   5.76338346
_cell_length_c   5.76971250
_cell_angle_alpha   71.24032618
_cell_angle_beta   73.23816362
_cell_angle_gamma   73.86053637
_symmetry_Int_Tables_number   1
_chemical_formula_structural   Fe3OF5
_chemical_formula_sum   'Fe6 O2 F10'
_cell_volume   219.15005702
_cell_formula_units_Z   2
loop_
 _symmetry_equiv_pos_site_id
 _symmetry_equiv_pos_as_xyz
  1  'x, y, z'
loop_
 _atom_site_type_symbol
 _atom_site_label
 _atom_site_symmetry_multiplicity
 _atom_site_fract_x
 _atom_site_fract_y
 _atom_site_fract_z
 _atom_site_occupancy
  Fe  Fe0  1  0.84239900  0.64010800  0.66802800  1
  Fe  Fe1  1  0.66788000  0.31134600  0.32237400  1
  Fe  Fe2  1  0.33223600  0.66800200  0.67666500  1
  Fe  Fe3  1  0.16206800  0.32768800  0.35405300  1
  Fe  Fe4  1  0.51178200  0.00477900  0.00408100  1
  Fe  Fe5  1  0.98168600  0.02965800  0.98501800  1
  O  O0  1  0.72294500  0.08835000  0.08753600  1
  O  O1  1  0.99151300  0.31724900  0.70627400  1
  F  F0  1  0.67658900  0.00232700  0.62691600  1
  F  F1  1  0.33117200  0.36850800  0.97437400  1
  F  F2  1  0.27654000  0.91918600  0.91270200  1
  F  F3  1  0.97467500  0.23021500  0.22448000  1
  F  F4  1  0.63843300  0.56346200  0.55748100  1
  F  F5  1  0.02037600  0.78232200  0.77331000  1
  F  F6  1  0.37016600  0.43826200  0.43289600  1
  F  F7  1  0.33506500  0.96523900  0.37520800  1
  F  F8  1  0.67047500  0.62433200  0.01296700  1
  F  F9  1  0.99399900  0.71896700  0.30563500  1
loop_
_geom_bond_atom_site_label_1
_geom_bond_atom_site_label_2
_geom_bond_distance
_geom_bond_site_symmetry_2
Fe0 O1 1.862396 1_555
Fe1 O0 2.040390 1_555
Fe3 O1 2.053455 1_455
Fe4 O0 1.981672 1_555
Fe5 O0 1.807647 1_556
Fe5 O1 1.903716 1_555
F0 Fe1 2.062102 1_555
F0 Fe0 2.085971 1_545
F0 Fe4 2.169682 1_556
F1 Fe2 2.005663 1_555
F1 Fe4 2.135648 1_556
F1 Fe3 2.162673 1_556
F2 Fe5 2.059652 1_465
F2 Fe2 2.175277 1_555
F2 Fe4 2.179502 1_566
F3 Fe3 2.028676 1_655
F3 Fe5 2.049372 1_554
F3 Fe1 2.136126 1_555
F4 Fe0 2.001560 1_555
F4 Fe2 2.146771 1_555
F4 Fe1 2.217947 1_555
F5 Fe0 2.042761 1_455
F5 Fe5 2.072794 1_465
F5 Fe2 2.179670 1_555
F6 Fe3 2.034760 1_555
F6 Fe1 2.101613 1_555
F6 Fe2 2.138386 1_555
F7 Fe2 2.010673 1_555
F7 Fe3 2.112656 1_565
F7 Fe4 2.142595 1_565
F8 Fe0 2.020302 1_554
F8 Fe1 2.090314 1_555
F8 Fe4 2.173720 1_565
F9 Fe0 2.039919 1_555
F9 Fe5 2.124315 1_564
F9 Fe3 2.225362 1_655
