# generated using pymatgen
data_LiCr(PO3)4
_symmetry_space_group_name_H-M   'P 1'
_cell_length_a   12.99766300
_cell_length_b   7.34562300
_cell_length_c   11.46786133
_cell_angle_alpha   52.83888434
_cell_angle_beta   90.00000000
_cell_angle_gamma   90.00000000
_symmetry_Int_Tables_number   1
_chemical_formula_structural   LiCr(PO3)4
_chemical_formula_sum   'Li4 Cr4 P16 O48'
_cell_volume   872.57344933
_cell_formula_units_Z   4
loop_
 _symmetry_equiv_pos_site_id
 _symmetry_equiv_pos_as_xyz
  1  'x, y, z'
loop_
 _atom_site_type_symbol
 _atom_site_label
 _atom_site_symmetry_multiplicity
 _atom_site_fract_x
 _atom_site_fract_y
 _atom_site_fract_z
 _atom_site_occupancy
  Li  Li0  1  0.22656500  0.93207900  0.05249900  1
  Li  Li1  1  0.72656500  0.06792100  0.44750100  1
  Li  Li2  1  0.27343500  0.93207900  0.55249900  1
  Li  Li3  1  0.77343500  0.06792100  0.94750100  1
  Cr  Cr0  1  0.29794100  0.52334700  0.43668400  1
  Cr  Cr1  1  0.79794100  0.47665300  0.06331600  1
  Cr  Cr2  1  0.20205900  0.52334700  0.93668400  1
  Cr  Cr3  1  0.70205900  0.47665300  0.56331600  1
  P  P0  1  0.61401100  0.83192900  0.24111500  1
  P  P1  1  0.13023800  0.41899100  0.69459900  1
  P  P2  1  0.91127300  0.46891300  0.70300500  1
  P  P3  1  0.89954100  0.07142200  0.22620100  1
  P  P4  1  0.39954100  0.92857800  0.27379900  1
  P  P5  1  0.41127300  0.53108700  0.79699500  1
  P  P6  1  0.63023800  0.58100900  0.80540100  1
  P  P7  1  0.11401100  0.16807100  0.25888500  1
  P  P8  1  0.88598900  0.83192900  0.74111500  1
  P  P9  1  0.36976200  0.41899100  0.19459900  1
  P  P10  1  0.58872700  0.46891300  0.20300500  1
  P  P11  1  0.60045900  0.07142200  0.72620100  1
  P  P12  1  0.10045900  0.92857800  0.77379900  1
  P  P13  1  0.08872700  0.53108700  0.29699500  1
  P  P14  1  0.86976200  0.58100900  0.30540100  1
  P  P15  1  0.38598900  0.16807100  0.75888500  1
  O  O0  1  0.87840900  0.83817900  0.25283800  1
  O  O1  1  0.89534400  0.22328400  0.82112300  1
  O  O2  1  0.42824700  0.39645600  0.72936200  1
  O  O3  1  0.31439500  0.86584800  0.21291500  1
  O  O4  1  0.68565600  0.96035200  0.11550100  1
  O  O5  1  0.13783000  0.40890300  0.82897900  1
  O  O6  1  0.64816500  0.76559300  0.38857300  1
  O  O7  1  0.90574700  0.27198200  0.06472100  1
  O  O8  1  0.50792200  0.97964600  0.19412300  1
  O  O9  1  0.02094200  0.52316100  0.61851800  1
  O  O10  1  0.21349600  0.54802700  0.58098400  1
  O  O11  1  0.33344000  0.40218700  0.92050300  1
  O  O12  1  0.83344000  0.59781300  0.57949700  1
  O  O13  1  0.00792200  0.02035400  0.30587700  1
  O  O14  1  0.71349600  0.45197300  0.91901600  1
  O  O15  1  0.40574700  0.72801800  0.43527900  1
  O  O16  1  0.52094200  0.47683900  0.88148200  1
  O  O17  1  0.14816500  0.23440700  0.11142700  1
  O  O18  1  0.63783000  0.59109700  0.67102100  1
  O  O19  1  0.18565600  0.03964800  0.38449900  1
  O  O20  1  0.81439500  0.13415200  0.28708500  1
  O  O21  1  0.92824700  0.60354400  0.77063800  1
  O  O22  1  0.37840900  0.16182100  0.24716200  1
  O  O23  1  0.39534400  0.77671600  0.67887700  1
  O  O24  1  0.60465600  0.22328400  0.32112300  1
  O  O25  1  0.62159100  0.83817900  0.75283800  1
  O  O26  1  0.07175300  0.39645600  0.22936200  1
  O  O27  1  0.18560500  0.86584800  0.71291500  1
  O  O28  1  0.81434400  0.96035200  0.61550100  1
  O  O29  1  0.36217000  0.40890300  0.32897900  1
  O  O30  1  0.85183500  0.76559300  0.88857300  1
  O  O31  1  0.47905800  0.52316100  0.11851800  1
  O  O32  1  0.59425300  0.27198200  0.56472100  1
  O  O33  1  0.28650400  0.54802700  0.08098400  1
  O  O34  1  0.99207800  0.97964600  0.69412300  1
  O  O35  1  0.16656000  0.40218700  0.42050300  1
  O  O36  1  0.66656000  0.59781300  0.07949700  1
  O  O37  1  0.78650400  0.45197300  0.41901600  1
  O  O38  1  0.97905800  0.47683900  0.38148200  1
  O  O39  1  0.49207800  0.02035400  0.80587700  1
  O  O40  1  0.09425300  0.72801800  0.93527900  1
  O  O41  1  0.35183500  0.23440700  0.61142700  1
  O  O42  1  0.86217000  0.59109700  0.17102100  1
  O  O43  1  0.31434400  0.03964800  0.88449900  1
  O  O44  1  0.68560500  0.13415200  0.78708500  1
  O  O45  1  0.57175300  0.60354400  0.27063800  1
  O  O46  1  0.10465600  0.77671600  0.17887700  1
  O  O47  1  0.12159100  0.16182100  0.74716200  1
loop_
_geom_bond_atom_site_label_1
_geom_bond_atom_site_label_2
_geom_bond_distance
_geom_bond_site_symmetry_2
Li0 O43 1.949026 1_564
Li0 O3 1.960327 1_555
Li0 O46 1.978735 1_555
Li1 O28 1.949026 1_545
Li1 O20 1.960327 1_555
Li1 O24 1.978735 1_555
Li2 O19 1.949026 1_565
Li2 O27 1.960327 1_555
Li2 O23 1.978735 1_555
Li3 O4 1.949026 1_546
Li3 O44 1.960327 1_555
Li3 O1 1.978735 1_555
Cr0 O41 1.967943 1_555
Cr0 O35 1.985472 1_555
Cr0 O29 2.045403 1_555
Cr0 O15 2.048109 1_555
Cr0 O10 2.082884 1_555
Cr0 O3 2.271733 1_555
Cr1 O30 1.967943 1_554
Cr1 O36 1.985472 1_555
Cr1 O42 2.045403 1_555
Cr1 O7 2.048109 1_555
Cr1 O14 2.082884 1_554
Cr1 O20 2.271733 1_555
Cr2 O17 1.967943 1_556
Cr2 O11 1.985472 1_555
Cr2 O5 2.045403 1_555
Cr2 O40 2.048109 1_555
Cr2 O33 2.082884 1_556
Cr2 O27 2.271733 1_555
Cr3 O6 1.967943 1_555
Cr3 O12 1.985472 1_555
Cr3 O18 2.045403 1_555
Cr3 O32 2.048109 1_555
Cr3 O37 2.082884 1_555
Cr3 O44 2.271733 1_555
O0 P3 1.572233 1_565
O0 P14 1.602776 1_555
O1 P2 1.476657 1_555
O2 P15 1.595166 1_555
O2 P5 1.598413 1_555
O3 P4 1.520951 1_555
O4 P0 1.480018 1_555
O5 P1 1.500702 1_555
O6 P0 1.516111 1_555
O7 P3 1.519949 1_555
O8 P4 1.595599 1_555
O8 P0 1.631792 1_555
O9 P1 1.599460 1_555
O9 P2 1.631862 1_455
O10 P1 1.508343 1_555
O11 P5 1.518509 1_555
O12 P2 1.518509 1_555
O13 P3 1.595599 1_455
O13 P7 1.631792 1_555
O14 P6 1.508343 1_555
O15 P4 1.519949 1_555
O16 P6 1.599460 1_555
O16 P5 1.631862 1_555
O17 P7 1.516111 1_555
O18 P6 1.500702 1_555
O19 P7 1.480018 1_555
O20 P3 1.520951 1_555
O21 P8 1.595166 1_555
O21 P2 1.598413 1_555
O22 P4 1.572233 1_545
O22 P9 1.602776 1_555
O23 P5 1.476657 1_555
O24 P10 1.476657 1_555
O25 P11 1.572233 1_565
O25 P6 1.602776 1_555
O26 P7 1.595166 1_555
O26 P13 1.598413 1_555
O27 P12 1.520951 1_555
O28 P8 1.480018 1_555
O29 P9 1.500702 1_555
O30 P8 1.516111 1_555
O31 P9 1.599460 1_555
O31 P10 1.631862 1_555
O32 P11 1.519949 1_555
O33 P9 1.508343 1_555
O34 P12 1.595599 1_655
O34 P8 1.631792 1_555
O35 P13 1.518509 1_555
O36 P10 1.518509 1_555
O37 P14 1.508343 1_555
O38 P14 1.599460 1_555
O38 P13 1.631862 1_655
O39 P11 1.595599 1_555
O39 P15 1.631792 1_555
O40 P12 1.519949 1_555
O41 P15 1.516111 1_555
O42 P14 1.500702 1_555
O43 P15 1.480018 1_555
O44 P11 1.520951 1_555
O45 P0 1.595166 1_555
O45 P10 1.598413 1_555
O46 P13 1.476657 1_555
O47 P12 1.572233 1_545
O47 P1 1.602776 1_555
