# generated using pymatgen
data_Li4Fe3Ni3(WO8)2
_symmetry_space_group_name_H-M   'P 1'
_cell_length_a   5.94818918
_cell_length_b   5.94818918
_cell_length_c   9.70643671
_cell_angle_alpha   89.81588944
_cell_angle_beta   89.81588944
_cell_angle_gamma   59.84488687
_symmetry_Int_Tables_number   1
_chemical_formula_structural   Li4Fe3Ni3(WO8)2
_chemical_formula_sum   'Li4 Fe3 Ni3 W2 O16'
_cell_volume   296.94504486
_cell_formula_units_Z   1
loop_
 _symmetry_equiv_pos_site_id
 _symmetry_equiv_pos_as_xyz
  1  'x, y, z'
loop_
 _atom_site_type_symbol
 _atom_site_label
 _atom_site_symmetry_multiplicity
 _atom_site_fract_x
 _atom_site_fract_y
 _atom_site_fract_z
 _atom_site_occupancy
  Li  Li0  1  0.66559200  0.66559200  0.90639700  1
  Li  Li1  1  0.00026500  0.00026500  0.98610300  1
  Li  Li2  1  0.99976100  0.99976100  0.48954000  1
  Li  Li3  1  0.33282400  0.33282400  0.40824200  1
  Fe  Fe0  1  0.83422600  0.34323500  0.21698100  1
  Fe  Fe1  1  0.34323500  0.83422600  0.21698100  1
  Fe  Fe2  1  0.17249000  0.17249000  0.71800100  1
  Ni  Ni0  1  0.83009300  0.83009300  0.21141100  1
  Ni  Ni1  1  0.66037400  0.16953500  0.71304800  1
  Ni  Ni2  1  0.16953500  0.66037400  0.71304800  1
  W  W0  1  0.67064100  0.67064100  0.48832900  1
  W  W1  1  0.33851700  0.33851700  0.98504500  1
  O  O0  1  0.82999800  0.34604800  0.58814400  1
  O  O1  1  0.51971900  0.51971900  0.34950900  1
  O  O2  1  0.66011200  0.66011200  0.10988400  1
  O  O3  1  0.00315500  0.00315500  0.30088700  1
  O  O4  1  0.00355500  0.00355500  0.79868600  1
  O  O5  1  0.34604800  0.82999800  0.58814400  1
  O  O6  1  0.96079100  0.51590500  0.35193500  1
  O  O7  1  0.51590500  0.96079100  0.35193500  1
  O  O8  1  0.17235400  0.17235400  0.08997600  1
  O  O9  1  0.82828200  0.82828200  0.58735400  1
  O  O10  1  0.47500500  0.03710200  0.85068700  1
  O  O11  1  0.03710200  0.47500500  0.85068700  1
  O  O12  1  0.32946600  0.32946600  0.61202600  1
  O  O13  1  0.65535800  0.17247100  0.08658000  1
  O  O14  1  0.47950800  0.47950800  0.85217800  1
  O  O15  1  0.17247100  0.65535800  0.08658000  1
loop_
_geom_bond_atom_site_label_1
_geom_bond_atom_site_label_2
_geom_bond_distance
_geom_bond_site_symmetry_2
Li0 O2 1.975732 1_556
Li0 O11 1.984995 1_655
Li0 O10 1.984995 1_565
Li0 O14 1.991388 1_555
Li1 O4 1.819342 1_555
Li1 O13 2.022767 1_456
Li1 O15 2.022767 1_546
Li1 O8 2.044039 1_556
Li2 O3 1.831353 1_665
Li2 O9 2.003739 1_555
Li2 O5 2.023652 1_655
Li2 O0 2.023652 1_565
Li3 O12 1.978191 1_555
Li3 O6 1.991090 1_455
Li3 O7 1.991090 1_545
Li3 O1 2.007533 1_555
Fe0 O3 1.928071 1_655
Fe0 O2 1.933643 1_555
Fe0 O6 2.032082 1_555
Fe0 O1 2.068001 1_555
Fe0 O8 2.129838 1_655
Fe0 O13 2.206451 1_555
Fe1 O3 1.928071 1_565
Fe1 O2 1.933643 1_555
Fe1 O7 2.032082 1_555
Fe1 O1 2.068001 1_555
Fe1 O8 2.129838 1_565
Fe1 O15 2.206451 1_555
Fe2 O4 1.907138 1_555
Fe2 O12 1.914512 1_555
Fe2 O10 2.024224 1_555
Fe2 O11 2.024224 1_555
Fe2 O0 2.167917 1_455
Fe2 O5 2.167917 1_545
Ni0 O3 1.987401 1_665
Ni0 O2 2.013848 1_555
Ni0 O6 2.118534 1_555
Ni0 O7 2.118534 1_555
Ni0 O15 2.135762 1_655
Ni0 O13 2.135762 1_565
Ni1 O4 1.952808 1_655
Ni1 O12 1.966185 1_555
Ni1 O14 2.096292 1_555
Ni1 O10 2.116019 1_555
Ni1 O9 2.139516 1_545
Ni1 O0 2.153707 1_555
Ni2 O4 1.952808 1_565
Ni2 O12 1.966185 1_555
Ni2 O14 2.096292 1_555
Ni2 O11 2.116019 1_555
Ni2 O9 2.139516 1_455
Ni2 O5 2.153707 1_555
O0 W0 1.928755 1_555
O1 W0 2.062184 1_555
O5 W0 1.928755 1_555
O6 W0 1.993911 1_555
O7 W0 1.993911 1_555
O8 W1 1.989877 1_554
O9 W0 1.891373 1_555
O10 W1 2.029810 1_555
O11 W1 2.029810 1_555
O13 W1 1.906354 1_554
O14 W1 1.939739 1_555
O15 W1 1.906354 1_554
