# generated using pymatgen
data_Li5Mn4O8
_symmetry_space_group_name_H-M   'P 1'
_cell_length_a   5.80729500
_cell_length_b   10.53845122
_cell_length_c   6.33200774
_cell_angle_alpha   95.60849302
_cell_angle_beta   62.70483078
_cell_angle_gamma   105.99194066
_symmetry_Int_Tables_number   1
_chemical_formula_structural   Li5Mn4O8
_chemical_formula_sum   'Li10 Mn8 O16'
_cell_volume   330.85768969
_cell_formula_units_Z   2
loop_
 _symmetry_equiv_pos_site_id
 _symmetry_equiv_pos_as_xyz
  1  'x, y, z'
loop_
 _atom_site_type_symbol
 _atom_site_label
 _atom_site_symmetry_multiplicity
 _atom_site_fract_x
 _atom_site_fract_y
 _atom_site_fract_z
 _atom_site_occupancy
  Li  Li0  1  0.99998900  0.24996400  0.24998100  1
  Li  Li1  1  0.00001200  0.75003600  0.75001800  1
  Li  Li2  1  0.91743500  0.40654400  0.57167500  1
  Li  Li3  1  0.91745200  0.90658200  0.07166900  1
  Li  Li4  1  0.08256400  0.59345600  0.42832500  1
  Li  Li5  1  0.08254900  0.09341800  0.92833000  1
  Li  Li6  1  0.50000200  0.24997500  0.75000500  1
  Li  Li7  1  0.49999800  0.75002500  0.24999500  1
  Li  Li8  1  0.00003100  0.75001800  0.24999000  1
  Li  Li9  1  0.99996900  0.24998200  0.75001000  1
  Mn  Mn0  1  0.49998600  0.49999800  0.50002000  1
  Mn  Mn1  1  0.49997300  0.74924000  0.74931200  1
  Mn  Mn2  1  0.50003600  0.25076300  0.25068800  1
  Mn  Mn3  1  0.50000200  0.99999700  0.99999400  1
  Mn  Mn4  1  0.50000300  0.00000100  0.49999400  1
  Mn  Mn5  1  0.50000400  0.50000100  0.99999600  1
  Mn  Mn6  1  0.00000000  0.00000100  0.49999400  1
  Mn  Mn7  1  0.99999700  0.50000100  0.00000300  1
  O  O0  1  0.75330600  0.11776000  0.61105200  1
  O  O1  1  0.75335000  0.61763100  0.11091400  1
  O  O2  1  0.24669400  0.88224000  0.38894800  1
  O  O3  1  0.24665100  0.38237000  0.88908600  1
  O  O4  1  0.73904700  0.87664100  0.39841600  1
  O  O5  1  0.73904200  0.37662400  0.89847800  1
  O  O6  1  0.26095300  0.12335900  0.60158400  1
  O  O7  1  0.26096000  0.62337500  0.10152200  1
  O  O8  1  0.26115000  0.88314100  0.88005700  1
  O  O9  1  0.26088300  0.38314900  0.38025200  1
  O  O10  1  0.74188700  0.88313200  0.88006900  1
  O  O11  1  0.74199600  0.38314500  0.38023900  1
  O  O12  1  0.25811400  0.11686800  0.11993000  1
  O  O13  1  0.25800100  0.61685500  0.61976300  1
  O  O14  1  0.73884700  0.11685900  0.11994200  1
  O  O15  1  0.73911700  0.61684900  0.61974900  1
loop_
_geom_bond_atom_site_label_1
_geom_bond_atom_site_label_2
_geom_bond_distance
_geom_bond_site_symmetry_2
Li0 O14 2.166300 1_555
Li0 O12 2.166361 1_655
Li0 O11 2.166545 1_555
Li0 O9 2.166588 1_655
Li0 O0 2.395716 1_555
Li0 O3 2.395981 1_654
Li1 O8 2.166284 1_555
Li1 O10 2.166361 1_455
Li1 O13 2.166529 1_555
Li1 O15 2.166592 1_455
Li1 O2 2.395711 1_555
Li1 O1 2.395981 1_456
Li2 O5 1.853683 1_555
Li2 O9 1.871713 1_655
Li2 O11 1.871897 1_555
Li3 O4 1.853400 1_555
Li3 O8 1.873232 1_654
Li3 O10 1.873361 1_554
Li4 O7 1.853682 1_555
Li4 O15 1.871701 1_455
Li4 O13 1.871899 1_555
Li5 O6 1.853395 1_555
Li5 O14 1.873250 1_456
Li5 O12 1.873361 1_556
Li6 O6 2.126419 1_555
Li6 O5 2.126748 1_555
Li6 O0 2.140584 1_555
Li6 O3 2.142313 1_555
Li6 O11 2.442180 1_555
Li6 O12 2.442611 1_556
Li7 O4 2.126419 1_555
Li7 O7 2.126744 1_555
Li7 O2 2.140584 1_555
Li7 O1 2.142309 1_555
Li7 O13 2.442189 1_555
Li7 O10 2.442616 1_554
Li8 O7 2.126896 1_555
Li8 O4 2.126935 1_455
Li8 O2 2.141078 1_555
Li8 O1 2.142380 1_455
Li8 O15 2.442139 1_455
Li8 O8 2.442730 1_554
Li9 O5 2.126880 1_555
Li9 O6 2.126935 1_655
Li9 O0 2.141078 1_555
Li9 O3 2.142388 1_655
Li9 O9 2.442124 1_655
Li9 O14 2.442726 1_556
Mn0 O13 1.964713 1_555
Mn0 O11 1.964782 1_555
Mn0 O15 1.964818 1_555
Mn0 O9 1.964854 1_555
Mn0 O3 2.457268 1_555
Mn0 O1 2.457488 1_555
Mn1 O13 2.084989 1_555
Mn1 O15 2.085015 1_555
Mn1 O10 2.096740 1_555
Mn1 O8 2.096926 1_555
Mn1 O7 2.320439 1_556
Mn1 O4 2.322431 1_555
Mn2 O11 2.084936 1_555
Mn2 O9 2.085007 1_555
Mn2 O12 2.096789 1_555
Mn2 O14 2.096906 1_555
Mn2 O5 2.320418 1_554
Mn2 O6 2.322447 1_555
Mn3 O10 1.964363 1_555
Mn3 O12 1.964425 1_566
Mn3 O8 1.964542 1_555
Mn3 O14 1.964583 1_566
Mn3 O0 2.457281 1_565
Mn3 O2 2.457312 1_556
Mn4 O2 1.992658 1_545
Mn4 O0 1.992672 1_555
Mn4 O4 2.010698 1_545
Mn4 O6 2.010701 1_555
Mn4 O14 2.410063 1_555
Mn4 O8 2.410126 1_545
Mn5 O1 1.991772 1_556
Mn5 O3 1.991774 1_555
Mn5 O7 2.010836 1_556
Mn5 O5 2.010840 1_555
Mn5 O15 2.410948 1_555
Mn5 O9 2.411011 1_556
Mn6 O0 1.993005 1_455
Mn6 O2 1.993024 1_545
Mn6 O4 2.011288 1_445
Mn6 O6 2.011325 1_555
Mn6 O12 2.410170 1_555
Mn6 O10 2.410232 1_445
Mn7 O1 1.991773 1_555
Mn7 O3 1.991809 1_654
Mn7 O7 2.011165 1_655
Mn7 O5 2.011167 1_554
Mn7 O11 2.410935 1_555
Mn7 O13 2.410946 1_654
