# generated using pymatgen
data_LiNi2OF3
_symmetry_space_group_name_H-M   'P 1'
_cell_length_a   5.98368397
_cell_length_b   10.68328395
_cell_length_c   5.98373630
_cell_angle_alpha   73.73100558
_cell_angle_beta   120.00609044
_cell_angle_gamma   90.00631868
_symmetry_Int_Tables_number   1
_chemical_formula_structural   LiNi2OF3
_chemical_formula_sum   'Li4 Ni8 O4 F12'
_cell_volume   313.44024113
_cell_formula_units_Z   4
loop_
 _symmetry_equiv_pos_site_id
 _symmetry_equiv_pos_as_xyz
  1  'x, y, z'
loop_
 _atom_site_type_symbol
 _atom_site_label
 _atom_site_symmetry_multiplicity
 _atom_site_fract_x
 _atom_site_fract_y
 _atom_site_fract_z
 _atom_site_occupancy
  Li  Li0  1  0.48921200  0.53234600  0.97842400  1
  Li  Li1  1  0.98921100  0.03234300  0.97842500  1
  Li  Li2  1  0.63578400  0.09265700  0.27157400  1
  Li  Li3  1  0.13578500  0.59265700  0.27157400  1
  Ni  Ni0  1  0.31252700  0.06244200  0.62504300  1
  Ni  Ni1  1  0.81248800  0.56256200  0.62497000  1
  Ni  Ni2  1  0.06248800  0.31250400  0.12499500  1
  Ni  Ni3  1  0.56250500  0.31249600  0.62501300  1
  Ni  Ni4  1  0.06249900  0.31248600  0.62498500  1
  Ni  Ni5  1  0.56251200  0.81250100  0.12500500  1
  Ni  Ni6  1  0.06249800  0.81249700  0.62500600  1
  Ni  Ni7  1  0.56251500  0.81249900  0.62499800  1
  O  O0  1  0.42609400  0.72166200  0.85221900  1
  O  O1  1  0.92612700  0.22156700  0.85231200  1
  O  O2  1  0.69890100  0.90334000  0.39777700  1
  O  O3  1  0.19887200  0.40343500  0.39769100  1
  F  F0  1  0.93333100  0.67938700  0.38721000  1
  F  F1  1  0.43327000  0.17922100  0.38740900  1
  F  F2  1  0.19167500  0.94560100  0.38332800  1
  F  F3  1  0.69175900  0.44577100  0.38345500  1
  F  F4  1  0.95412900  0.17923200  0.38744600  1
  F  F5  1  0.45386300  0.67940500  0.38719400  1
  F  F6  1  0.19166700  0.94561300  0.86279000  1
  F  F7  1  0.69172500  0.44578100  0.86258700  1
  F  F8  1  0.67113300  0.94559600  0.86280500  1
  F  F9  1  0.17087000  0.44576900  0.86255200  1
  F  F10  1  0.43323800  0.17923100  0.86654400  1
  F  F11  1  0.93332200  0.67939900  0.86667100  1
loop_
_geom_bond_atom_site_label_1
_geom_bond_atom_site_label_2
_geom_bond_distance
_geom_bond_site_symmetry_2
Li0 O0 1.913802 1_555
Li1 O1 1.912872 1_555
Li2 O2 1.913812 1_545
Li3 O3 1.912852 1_555
Ni2 O1 1.956607 1_454
Ni2 O3 1.956619 1_555
Ni3 O1 1.956520 1_555
Ni3 O3 1.956603 1_555
Ni4 O3 1.956827 1_555
Ni4 O1 1.956877 1_455
Ni5 O2 1.956250 1_555
Ni5 O0 1.956314 1_554
Ni6 O0 1.956098 1_555
Ni6 O2 1.956129 1_455
Ni7 O2 1.956205 1_555
Ni7 O0 1.956352 1_555
F0 Li3 2.000668 1_655
F0 Ni1 2.034317 1_555
F0 Ni5 2.162396 1_555
F0 Ni6 2.162820 1_655
F1 Li2 2.000882 1_555
F1 Ni0 2.033158 1_555
F1 Ni2 2.163106 1_555
F1 Ni3 2.163554 1_555
F2 Li1 2.000767 1_464
F2 Ni0 2.034270 1_565
F2 Ni7 2.162452 1_555
F2 Ni6 2.162498 1_555
F3 Li0 2.001143 1_554
F3 Ni1 2.032992 1_555
F3 Ni4 2.162982 1_655
F3 Ni3 2.163201 1_555
F4 Li2 2.000666 1_555
F4 Ni0 2.033297 1_655
F4 Ni4 2.163113 1_655
F4 Ni2 2.163163 1_655
F5 Li3 2.000457 1_555
F5 Ni1 2.034491 1_555
F5 Ni5 2.162374 1_555
F5 Ni7 2.162722 1_555
F6 Li1 2.000673 1_465
F6 Ni0 2.034352 1_565
F6 Ni5 2.162491 1_556
F6 Ni6 2.162827 1_555
F7 Li0 2.000893 1_555
F7 Ni1 2.033180 1_555
F7 Ni2 2.163000 1_656
F7 Ni3 2.163523 1_555
F8 Li1 2.000451 1_565
F8 Ni0 2.034424 1_565
F8 Ni5 2.162304 1_556
F8 Ni7 2.162767 1_555
F9 Li0 2.000664 1_555
F9 Ni1 2.033243 1_455
F9 Ni2 2.163187 1_556
F9 Ni4 2.163490 1_555
F10 Li2 2.001137 1_556
F10 Ni0 2.032915 1_555
F10 Ni4 2.162822 1_555
F10 Ni3 2.163097 1_555
F11 Li3 2.000767 1_656
F11 Ni1 2.034176 1_555
F11 Ni7 2.162304 1_555
F11 Ni6 2.162412 1_655
