# generated using pymatgen
data_La12Cu6O25
_symmetry_space_group_name_H-M   'P 1'
_cell_length_a   8.91079677
_cell_length_b   8.91079677
_cell_length_c   7.67581589
_cell_angle_alpha   77.53921555
_cell_angle_beta   77.53921555
_cell_angle_gamma   94.15589936
_symmetry_Int_Tables_number   1
_chemical_formula_structural   La12Cu6O25
_chemical_formula_sum   'La12 Cu6 O25'
_cell_volume   576.55579404
_cell_formula_units_Z   1
loop_
 _symmetry_equiv_pos_site_id
 _symmetry_equiv_pos_as_xyz
  1  'x, y, z'
loop_
 _atom_site_type_symbol
 _atom_site_label
 _atom_site_symmetry_multiplicity
 _atom_site_fract_x
 _atom_site_fract_y
 _atom_site_fract_z
 _atom_site_occupancy
  La  La0  1  0.35718200  0.97336200  0.91733800  1
  La  La1  1  0.97377100  0.03087800  0.25172700  1
  La  La2  1  0.68911400  0.30982200  0.24718700  1
  La  La3  1  0.35484300  0.96824600  0.42130600  1
  La  La4  1  0.02663800  0.64281800  0.08266200  1
  La  La5  1  0.31114700  0.36291200  0.08179800  1
  La  La6  1  0.96912200  0.02622900  0.74827300  1
  La  La7  1  0.69017800  0.31088600  0.75281300  1
  La  La8  1  0.64707600  0.68613200  0.41772300  1
  La  La9  1  0.31386800  0.35292400  0.58227700  1
  La  La10  1  0.63708800  0.68885300  0.91820200  1
  La  La11  1  0.03175400  0.64515700  0.57869400  1
  Cu  Cu0  1  0.00066400  0.33357200  0.91597900  1
  Cu  Cu1  1  0.66642800  0.99933600  0.08402000  1
  Cu  Cu2  1  0.33706000  0.66424300  0.24903000  1
  Cu  Cu3  1  0.00101100  0.33624200  0.41613300  1
  Cu  Cu4  1  0.66375800  0.99898900  0.58386700  1
  Cu  Cu5  1  0.33575700  0.66294000  0.75097000  1
  O  O0  1  0.83969100  0.16030900  0.00000000  1
  O  O1  1  0.48562000  0.17339100  0.08560700  1
  O  O2  1  0.84900300  0.82521300  0.07565900  1
  O  O3  1  0.17478700  0.15099700  0.92434100  1
  O  O4  1  0.99327700  0.33885500  0.16819300  1
  O  O5  1  0.82845500  0.17154500  0.50000000  1
  O  O6  1  0.31506500  0.68493500  0.00000000  1
  O  O7  1  0.66586800  0.00591200  0.33323900  1
  O  O8  1  0.50457600  0.82800100  0.16954500  1
  O  O9  1  0.43239400  0.12497300  0.60954900  1
  O  O10  1  0.15256000  0.85319800  0.26069300  1
  O  O11  1  0.51214300  0.49004600  0.18962900  1
  O  O12  1  0.17410500  0.14978400  0.41391000  1
  O  O13  1  0.85021600  0.82589500  0.58609000  1
  O  O14  1  0.87502700  0.56760600  0.39045100  1
  O  O15  1  0.18144800  0.48935000  0.33551600  1
  O  O16  1  0.99408800  0.33413200  0.66676100  1
  O  O17  1  0.59214500  0.40785500  0.50000000  1
  O  O18  1  0.51065000  0.81855200  0.66448400  1
  O  O19  1  0.66114500  0.00672300  0.83180700  1
  O  O20  1  0.34386900  0.65613100  0.50000000  1
  O  O21  1  0.82660900  0.51438000  0.91439300  1
  O  O22  1  0.14680200  0.84744000  0.73930700  1
  O  O23  1  0.50995400  0.48785700  0.81037100  1
  O  O24  1  0.17199900  0.49542400  0.83045500  1
loop_
_geom_bond_atom_site_label_1
_geom_bond_atom_site_label_2
_geom_bond_distance
_geom_bond_site_symmetry_2
La0 O3 2.349853 1_565
La0 O9 2.379909 1_565
La0 O6 2.490508 1_556
La0 O19 2.624375 1_565
La0 O8 2.722530 1_556
La0 O1 2.736937 1_566
La0 O18 2.797046 1_555
La0 O10 2.800457 1_556
La0 O22 2.846595 1_555
La1 O10 2.327124 1_645
La1 O0 2.593324 1_555
La1 O7 2.660695 1_555
La1 O5 2.660965 1_555
La1 O4 2.663840 1_555
La1 O12 2.667053 1_655
La1 O3 2.699618 1_654
La1 O13 2.757090 1_545
La1 O2 2.800535 1_545
La2 O17 2.322235 1_555
La2 O11 2.371191 1_555
La2 O7 2.626904 1_555
La2 O4 2.627161 1_555
La2 O5 2.656179 1_555
La2 O0 2.725180 1_555
La2 O1 2.757881 1_555
La2 O21 2.768618 1_554
La3 O12 2.364575 1_565
La3 O9 2.382760 1_565
La3 O10 2.656393 1_555
La3 O22 2.679105 1_555
La3 O7 2.685049 1_565
La3 O8 2.692127 1_555
La3 O20 2.705473 1_555
La3 O18 2.739212 1_555
La3 O1 2.775249 1_565
La4 O2 2.349853 1_455
La4 O14 2.379909 1_455
La4 O6 2.490508 1_555
La4 O4 2.624375 1_455
La4 O24 2.722530 1_554
La4 O21 2.736937 1_454
La4 O15 2.797046 1_555
La4 O22 2.800457 1_554
La4 O10 2.846595 1_555
La5 O1 2.376714 1_555
La5 O23 2.416382 1_554
La5 O11 2.434450 1_555
La5 O15 2.561659 1_555
La5 O24 2.629667 1_554
La5 O4 2.747488 1_455
La5 O3 2.790882 1_554
La5 O12 2.797811 1_555
La5 O6 2.797837 1_555
La6 O22 2.327124 1_645
La6 O0 2.593324 1_556
La6 O16 2.660695 1_555
La6 O5 2.660965 1_555
La6 O19 2.663840 1_555
La6 O13 2.667053 1_545
La6 O2 2.699618 1_546
La6 O12 2.757090 1_655
La6 O3 2.800535 1_655
La7 O17 2.322235 1_555
La7 O23 2.371191 1_555
La7 O16 2.626904 1_555
La7 O19 2.627161 1_555
La7 O5 2.656179 1_555
La7 O0 2.725180 1_556
La7 O21 2.757881 1_555
La7 O1 2.768618 1_556
La8 O14 2.346919 1_555
La8 O17 2.408749 1_555
La8 O18 2.576137 1_555
La8 O20 2.618440 1_555
La8 O8 2.660201 1_555
La8 O7 2.766721 1_565
La8 O13 2.806269 1_555
La8 O2 2.810904 1_555
La8 O11 3.080274 1_555
La8 O23 3.081889 1_555
La9 O9 2.346919 1_555
La9 O17 2.408749 1_555
La9 O15 2.576137 1_555
La9 O20 2.618440 1_555
La9 O24 2.660201 1_555
La9 O16 2.766721 1_455
La9 O12 2.806269 1_555
La9 O3 2.810904 1_555
La9 O23 3.080274 1_555
La9 O11 3.081889 1_555
La10 O21 2.376714 1_555
La10 O11 2.416382 1_556
La10 O23 2.434450 1_555
La10 O18 2.561659 1_555
La10 O8 2.629667 1_556
La10 O19 2.747488 1_565
La10 O2 2.790882 1_556
La10 O13 2.797811 1_555
La10 O6 2.797837 1_556
La11 O13 2.364575 1_455
La11 O14 2.382760 1_455
La11 O22 2.656393 1_555
La11 O10 2.679105 1_555
La11 O16 2.685049 1_455
La11 O24 2.692127 1_555
La11 O20 2.705473 1_555
La11 O15 2.739212 1_555
La11 O21 2.775249 1_455
Cu0 O24 1.918763 1_555
Cu0 O16 1.925393 1_455
Cu0 O0 1.925410 1_456
Cu0 O4 1.933709 1_456
Cu0 O21 2.315881 1_455
Cu0 O3 2.328530 1_555
Cu1 O8 1.918763 1_555
Cu1 O7 1.925401 1_565
Cu1 O0 1.925410 1_565
Cu1 O19 1.933701 1_564
Cu1 O1 2.315881 1_565
Cu1 O2 2.328530 1_555
Cu2 O15 1.906631 1_555
Cu2 O8 1.907036 1_555
Cu2 O20 1.926371 1_555
Cu2 O6 1.934190 1_555
Cu2 O11 2.323956 1_555
Cu2 O10 2.438979 1_555
Cu3 O16 1.907374 1_455
Cu3 O4 1.914406 1_455
Cu3 O15 1.928156 1_555
Cu3 O5 1.941785 1_455
Cu3 O12 2.347801 1_555
Cu3 O14 2.409368 1_455
Cu4 O7 1.907374 1_565
Cu4 O19 1.914406 1_565
Cu4 O18 1.928156 1_555
Cu4 O5 1.941785 1_565
Cu4 O13 2.347801 1_555
Cu4 O9 2.409368 1_565
Cu5 O18 1.906631 1_555
Cu5 O24 1.907036 1_555
Cu5 O20 1.926371 1_555
Cu5 O6 1.934190 1_556
Cu5 O23 2.323956 1_555
Cu5 O22 2.438979 1_555
