# generated using pymatgen
data_Li2MnSiO4
_symmetry_space_group_name_H-M   'P 1'
_cell_length_a   5.07201300
_cell_length_b   6.32404900
_cell_length_c   10.97156900
_cell_angle_alpha   90.00000000
_cell_angle_beta   90.00000000
_cell_angle_gamma   90.00000000
_symmetry_Int_Tables_number   1
_chemical_formula_structural   Li2MnSiO4
_chemical_formula_sum   'Li8 Mn4 Si4 O16'
_cell_volume   351.92030309
_cell_formula_units_Z   4
loop_
 _symmetry_equiv_pos_site_id
 _symmetry_equiv_pos_as_xyz
  1  'x, y, z'
loop_
 _atom_site_type_symbol
 _atom_site_label
 _atom_site_symmetry_multiplicity
 _atom_site_fract_x
 _atom_site_fract_y
 _atom_site_fract_z
 _atom_site_occupancy
  Li  Li0  1  0.75849800  0.00210100  0.17362100  1
  Li  Li1  1  0.75953400  0.25583100  0.90775900  1
  Li  Li2  1  0.75953400  0.24416900  0.40775900  1
  Li  Li3  1  0.75849800  0.49789900  0.67362100  1
  Li  Li4  1  0.25849800  0.50210100  0.32637900  1
  Li  Li5  1  0.25953400  0.75583100  0.59224100  1
  Li  Li6  1  0.25953400  0.74416900  0.09224100  1
  Li  Li7  1  0.25849800  0.99789900  0.82637900  1
  Mn  Mn0  1  0.25658600  0.24671100  0.58249400  1
  Mn  Mn1  1  0.25658600  0.25328900  0.08249400  1
  Mn  Mn2  1  0.75658600  0.74671100  0.91750600  1
  Mn  Mn3  1  0.75658600  0.75328900  0.41750600  1
  Si  Si0  1  0.26424800  0.00199700  0.33191600  1
  Si  Si1  1  0.26424800  0.49800300  0.83191600  1
  Si  Si2  1  0.76424800  0.50199700  0.16808400  1
  Si  Si3  1  0.76424800  0.99800300  0.66808400  1
  O  O0  1  0.08898700  0.99115500  0.66917000  1
  O  O1  1  0.15324700  0.99547400  0.18968600  1
  O  O2  1  0.15275200  0.28103800  0.90040500  1
  O  O3  1  0.66931700  0.21424000  0.59291000  1
  O  O4  1  0.66931700  0.28576000  0.09291000  1
  O  O5  1  0.15275200  0.21896200  0.40040500  1
  O  O6  1  0.15324700  0.50452600  0.68968600  1
  O  O7  1  0.08898700  0.50884500  0.16917000  1
  O  O8  1  0.58898700  0.49115500  0.83083000  1
  O  O9  1  0.65324700  0.49547400  0.31031400  1
  O  O10  1  0.65275200  0.78103800  0.59959500  1
  O  O11  1  0.16931700  0.71424000  0.90709000  1
  O  O12  1  0.16931700  0.78576000  0.40709000  1
  O  O13  1  0.65275200  0.71896200  0.09959500  1
  O  O14  1  0.65324700  0.00452600  0.81031400  1
  O  O15  1  0.58898700  0.00884500  0.33083000  1
loop_
_geom_bond_atom_site_label_1
_geom_bond_atom_site_label_2
_geom_bond_distance
_geom_bond_site_symmetry_2
Li0 O15 1.927705 1_555
Li0 O1 2.010352 1_645
Li0 O13 2.038013 1_545
Li0 O4 2.051034 1_555
Li1 O8 1.917129 1_555
Li1 O14 1.989826 1_555
Li1 O2 2.002394 1_655
Li1 O4 2.090880 1_556
Li2 O15 1.917129 1_555
Li2 O9 1.989826 1_555
Li2 O5 2.002394 1_655
Li2 O3 2.090880 1_555
Li3 O8 1.927705 1_555
Li3 O6 2.010352 1_655
Li3 O10 2.038013 1_555
Li3 O3 2.051034 1_555
Li4 O7 1.927705 1_555
Li4 O9 2.010352 1_555
Li4 O5 2.038013 1_555
Li4 O12 2.051034 1_555
Li5 O0 1.917129 1_555
Li5 O6 1.989826 1_555
Li5 O10 2.002394 1_555
Li5 O12 2.090880 1_555
Li6 O7 1.917129 1_555
Li6 O1 1.989826 1_555
Li6 O13 2.002394 1_555
Li6 O11 2.090880 1_554
Li7 O0 1.927705 1_555
Li7 O14 2.010352 1_565
Li7 O2 2.038013 1_565
Li7 O11 2.051034 1_555
Mn0 O0 2.058857 1_545
Mn0 O5 2.073491 1_555
Mn0 O6 2.077538 1_555
Mn0 O3 2.106527 1_555
Mn1 O7 2.058857 1_555
Mn1 O2 2.073491 1_554
Mn1 O1 2.077538 1_545
Mn1 O4 2.106527 1_555
Mn2 O8 2.058857 1_555
Mn2 O13 2.073491 1_556
Mn2 O14 2.077538 1_565
Mn2 O11 2.106527 1_655
Mn3 O15 2.058857 1_565
Mn3 O10 2.073491 1_555
Mn3 O9 2.077538 1_555
Mn3 O12 2.106527 1_655
O0 Si3 1.647693 1_455
O1 Si0 1.659454 1_565
O2 Si1 1.663461 1_555
O3 Si3 1.667971 1_545
O4 Si2 1.667971 1_555
O5 Si0 1.663461 1_555
O6 Si1 1.659454 1_555
O7 Si2 1.647693 1_455
O8 Si1 1.647693 1_555
O9 Si2 1.659454 1_555
O10 Si3 1.663461 1_555
O11 Si1 1.667971 1_555
O12 Si0 1.667971 1_565
O13 Si2 1.663461 1_555
O14 Si3 1.659454 1_545
O15 Si0 1.647693 1_555
