# generated using pymatgen
data_ZnC8(NCl2)2
_symmetry_space_group_name_H-M   'P 1'
_cell_length_a   9.69208900
_cell_length_b   11.93502200
_cell_length_c   15.94776400
_cell_angle_alpha   90.00000000
_cell_angle_beta   90.00000000
_cell_angle_gamma   90.00000000
_symmetry_Int_Tables_number   1
_chemical_formula_structural   ZnC8(NCl2)2
_chemical_formula_sum   'Zn4 C32 N8 Cl16'
_cell_volume   1844.76231232
_cell_formula_units_Z   4
loop_
 _symmetry_equiv_pos_site_id
 _symmetry_equiv_pos_as_xyz
  1  'x, y, z'
loop_
 _atom_site_type_symbol
 _atom_site_label
 _atom_site_symmetry_multiplicity
 _atom_site_fract_x
 _atom_site_fract_y
 _atom_site_fract_z
 _atom_site_occupancy
  Zn  Zn0  1  0.25000000  0.75530800  0.08775000  1
  Zn  Zn1  1  0.25000000  0.25530800  0.41225000  1
  Zn  Zn2  1  0.75000000  0.24469200  0.91225000  1
  Zn  Zn3  1  0.75000000  0.74469200  0.58775000  1
  C  C0  1  0.25000000  0.63596600  0.36317500  1
  C  C1  1  0.25000000  0.13596600  0.13682500  1
  C  C2  1  0.75000000  0.36403400  0.63682500  1
  C  C3  1  0.75000000  0.86403400  0.86317500  1
  C  C4  1  0.25000000  0.63948000  0.52075100  1
  C  C5  1  0.25000000  0.13948000  0.97924900  1
  C  C6  1  0.75000000  0.36052000  0.47924900  1
  C  C7  1  0.75000000  0.86052000  0.02075100  1
  C  C8  1  0.32001500  0.63884800  0.28734800  1
  C  C9  1  0.17998500  0.13884800  0.21265200  1
  C  C10  1  0.82001500  0.36115200  0.71265200  1
  C  C11  1  0.67998500  0.86115200  0.78734800  1
  C  C12  1  0.67998500  0.36115200  0.71265200  1
  C  C13  1  0.82001500  0.86115200  0.78734800  1
  C  C14  1  0.17998500  0.63884800  0.28734800  1
  C  C15  1  0.32001500  0.13884800  0.21265200  1
  C  C16  1  0.25000000  0.99598400  0.71251700  1
  C  C17  1  0.25000000  0.49598400  0.78748300  1
  C  C18  1  0.75000000  0.00401600  0.28748300  1
  C  C19  1  0.75000000  0.50401600  0.21251700  1
  C  C20  1  0.25000000  0.97561400  0.62555100  1
  C  C21  1  0.25000000  0.47561400  0.87444900  1
  C  C22  1  0.75000000  0.02438600  0.37444900  1
  C  C23  1  0.75000000  0.52438600  0.12555100  1
  C  C24  1  0.35657800  0.93759200  0.57285800  1
  C  C25  1  0.14342200  0.43759200  0.92714200  1
  C  C26  1  0.85657800  0.06240800  0.42714200  1
  C  C27  1  0.64342200  0.56240800  0.07285800  1
  C  C28  1  0.64342200  0.06240800  0.42714200  1
  C  C29  1  0.85657800  0.56240800  0.07285800  1
  C  C30  1  0.14342200  0.93759200  0.57285800  1
  C  C31  1  0.35657800  0.43759200  0.92714200  1
  N  N0  1  0.25000000  0.63233400  0.44573000  1
  N  N1  1  0.25000000  0.13233400  0.05427000  1
  N  N2  1  0.75000000  0.36766600  0.55427000  1
  N  N3  1  0.75000000  0.86766600  0.94573000  1
  N  N4  1  0.25000000  0.02030700  0.78346000  1
  N  N5  1  0.25000000  0.52030700  0.71654000  1
  N  N6  1  0.75000000  0.97969300  0.21654000  1
  N  N7  1  0.75000000  0.47969300  0.28346000  1
  Cl  Cl0  1  0.25000000  0.46169500  0.02961500  1
  Cl  Cl1  1  0.25000000  0.96169500  0.47038500  1
  Cl  Cl2  1  0.75000000  0.53830500  0.97038500  1
  Cl  Cl3  1  0.75000000  0.03830500  0.52961500  1
  Cl  Cl4  1  0.07251500  0.73352500  0.17805500  1
  Cl  Cl5  1  0.42748500  0.23352500  0.32194500  1
  Cl  Cl6  1  0.57251500  0.26647500  0.82194500  1
  Cl  Cl7  1  0.92748500  0.76647500  0.67805500  1
  Cl  Cl8  1  0.92748500  0.26647500  0.82194500  1
  Cl  Cl9  1  0.57251500  0.76647500  0.67805500  1
  Cl  Cl10  1  0.42748500  0.73352500  0.17805500  1
  Cl  Cl11  1  0.07251500  0.23352500  0.32194500  1
  Cl  Cl12  1  0.25000000  0.80200200  0.95893000  1
  Cl  Cl13  1  0.25000000  0.30200200  0.54107000  1
  Cl  Cl14  1  0.75000000  0.19799800  0.04107000  1
  Cl  Cl15  1  0.75000000  0.69799800  0.45893000  1
loop_
_geom_bond_atom_site_label_1
_geom_bond_atom_site_label_2
_geom_bond_distance
_geom_bond_site_symmetry_2
C0 N0 1.317281 1_555
C0 C8 1.387086 1_555
C0 C14 1.387086 1_555
C1 N1 1.317281 1_555
C1 C9 1.387086 1_555
C1 C15 1.387086 1_555
C2 N2 1.317281 1_555
C3 N3 1.317281 1_555
C4 N0 1.199453 1_555
C5 N1 1.199453 1_556
C6 N2 1.199453 1_555
C7 N3 1.199453 1_554
C8 Cl10 2.323739 1_555
C9 Cl11 2.323739 1_555
C10 C12 1.357183 1_555
C10 C2 1.387086 1_555
C10 Cl8 2.323739 1_555
C11 C13 1.357183 1_555
C11 C3 1.387086 1_555
C11 Cl9 2.323739 1_555
C12 C2 1.387086 1_555
C12 Cl6 2.323739 1_555
C13 C3 1.387086 1_555
C13 Cl7 2.323739 1_555
C14 C8 1.357183 1_555
C14 Cl4 2.323739 1_555
C15 C9 1.357183 1_555
C15 Cl5 2.323739 1_555
C16 N4 1.168031 1_565
C16 C20 1.408060 1_555
C17 N5 1.168031 1_555
C17 C21 1.408060 1_555
C18 N6 1.168031 1_545
C18 C22 1.408060 1_555
C19 N7 1.168031 1_555
C19 C23 1.408060 1_555
C20 C30 1.406807 1_555
C20 C24 1.406807 1_555
C21 C31 1.406807 1_555
C21 C25 1.406807 1_555
C22 C26 1.406807 1_555
C22 C28 1.406807 1_555
C23 C29 1.406807 1_555
C23 C27 1.406807 1_555
C24 Cl1 1.954591 1_555
C25 Cl0 1.954591 1_556
C26 Cl3 1.954591 1_555
C27 Cl2 1.954591 1_554
C28 Cl3 1.954591 1_555
C29 Cl2 1.954591 1_554
C30 Cl1 1.954591 1_555
C31 Cl0 1.954591 1_556
Cl4 Zn0 2.258484 1_555
Cl5 Zn1 2.258484 1_555
Cl6 Zn2 2.258484 1_555
Cl7 Zn3 2.258484 1_555
Cl8 Zn2 2.258484 1_555
Cl9 Zn3 2.258484 1_555
Cl10 Zn0 2.258484 1_555
Cl11 Zn1 2.258484 1_555
Cl12 Zn0 2.128638 1_556
Cl13 Zn1 2.128638 1_555
Cl14 Zn2 2.128638 1_554
Cl15 Zn3 2.128638 1_555
