# generated using pymatgen
data_V6Cu2O15
_symmetry_space_group_name_H-M   'P 1'
_cell_length_a   3.70228000
_cell_length_b   7.87674359
_cell_length_c   10.19622921
_cell_angle_alpha   105.45595424
_cell_angle_beta   90.37638414
_cell_angle_gamma   103.35422779
_symmetry_Int_Tables_number   1
_chemical_formula_structural   V6Cu2O15
_chemical_formula_sum   'V6 Cu2 O15'
_cell_volume   278.10251864
_cell_formula_units_Z   1
loop_
 _symmetry_equiv_pos_site_id
 _symmetry_equiv_pos_as_xyz
  1  'x, y, z'
loop_
 _atom_site_type_symbol
 _atom_site_label
 _atom_site_symmetry_multiplicity
 _atom_site_fract_x
 _atom_site_fract_y
 _atom_site_fract_z
 _atom_site_occupancy
  V  V0  1  0.33197400  0.66254100  0.08839500  1
  V  V1  1  0.88507800  0.77445400  0.88173200  1
  V  V2  1  0.28504700  0.57239500  0.40615300  1
  V  V3  1  0.71495300  0.42760500  0.59384700  1
  V  V4  1  0.11492200  0.22554600  0.11826800  1
  V  V5  1  0.66802600  0.33745900  0.91160500  1
  Cu  Cu0  1  0.51740800  0.93902800  0.64566800  1
  Cu  Cu1  1  0.48259200  0.06097200  0.35433200  1
  O  O0  1  0.43246100  0.86541200  0.20408600  1
  O  O1  1  0.00000000  0.00000000  0.00000000  1
  O  O2  1  0.40189500  0.80107000  0.46526100  1
  O  O3  1  0.81024500  0.62053700  0.03663600  1
  O  O4  1  0.89164400  0.81017000  0.72629100  1
  O  O5  1  0.25835600  0.51785400  0.22595600  1
  O  O6  1  0.36761900  0.73832700  0.91392700  1
  O  O7  1  0.75745100  0.51620200  0.42847700  1
  O  O8  1  0.24254900  0.48379800  0.57152300  1
  O  O9  1  0.63238100  0.26167300  0.08607300  1
  O  O10  1  0.74164400  0.48214600  0.77404400  1
  O  O11  1  0.10835600  0.18983000  0.27370900  1
  O  O12  1  0.18975500  0.37946300  0.96336400  1
  O  O13  1  0.59810500  0.19893000  0.53473900  1
  O  O14  1  0.56753900  0.13458800  0.79591400  1
loop_
_geom_bond_atom_site_label_1
_geom_bond_atom_site_label_2
_geom_bond_distance
_geom_bond_site_symmetry_2
Cu0 O14 1.833169 1_565
Cu0 O2 1.859294 1_555
Cu0 O4 2.169103 1_555
Cu0 O4 2.541023 1_455
Cu0 O13 2.552557 1_565
Cu1 O0 1.833169 1_545
Cu1 O13 1.859294 1_555
Cu1 O11 2.169103 1_555
Cu1 O11 2.541023 1_655
Cu1 O2 2.552557 1_545
O0 V0 1.672814 1_555
O1 V4 1.814832 1_555
O1 V1 1.814832 1_444
O2 V2 1.689015 1_555
O3 V0 1.926959 1_555
O3 V0 1.928039 1_655
O3 V5 2.192704 1_554
O3 V1 2.216394 1_554
O4 V1 1.681273 1_555
O5 V2 1.768447 1_555
O5 V0 2.013439 1_555
O5 V4 2.206560 1_555
O6 V1 1.912393 1_455
O6 V1 1.914461 1_555
O6 V0 2.017670 1_556
O7 V2 1.926835 1_555
O7 V2 1.929584 1_655
O7 V3 1.983632 1_555
O8 V3 1.926835 1_555
O8 V3 1.929584 1_455
O8 V2 1.983632 1_555
O9 V4 1.912393 1_655
O9 V4 1.914461 1_555
O9 V5 2.017670 1_554
O10 V3 1.768447 1_555
O10 V5 2.013439 1_555
O10 V1 2.206560 1_555
O11 V4 1.681273 1_555
O12 V5 1.926959 1_555
O12 V5 1.928039 1_455
O12 V0 2.192704 1_556
O12 V4 2.216394 1_556
O13 V3 1.689015 1_555
O14 V5 1.672814 1_555
