# generated using pymatgen
data_CrFe3Cu2(PO4)6
_symmetry_space_group_name_H-M   'P 1'
_cell_length_a   8.58136175
_cell_length_b   8.58136175
_cell_length_c   8.58136188
_cell_angle_alpha   60.34596830
_cell_angle_beta   60.34596830
_cell_angle_gamma   60.34597477
_symmetry_Int_Tables_number   1
_chemical_formula_structural   CrFe3Cu2(PO4)6
_chemical_formula_sum   'Cr1 Fe3 Cu2 P6 O24'
_cell_volume   450.33894704
_cell_formula_units_Z   1
loop_
 _symmetry_equiv_pos_site_id
 _symmetry_equiv_pos_as_xyz
  1  'x, y, z'
loop_
 _atom_site_type_symbol
 _atom_site_label
 _atom_site_symmetry_multiplicity
 _atom_site_fract_x
 _atom_site_fract_y
 _atom_site_fract_z
 _atom_site_occupancy
  Cr  Cr0  1  0.85872700  0.85872700  0.85872700  1
  Fe  Fe0  1  0.14389300  0.14389300  0.14389300  1
  Fe  Fe1  1  0.35567600  0.35567600  0.35567600  1
  Fe  Fe2  1  0.64427800  0.64427800  0.64427800  1
  Cu  Cu0  1  0.00068900  0.00068900  0.00068900  1
  Cu  Cu1  1  0.50013200  0.50013200  0.50013200  1
  P  P0  1  0.45805600  0.75034900  0.04271500  1
  P  P1  1  0.75034900  0.04271500  0.45805600  1
  P  P2  1  0.04271500  0.45805600  0.75034900  1
  P  P3  1  0.95526600  0.54383900  0.24884300  1
  P  P4  1  0.24884300  0.95526600  0.54383900  1
  P  P5  1  0.54383900  0.24884300  0.95526600  1
  O  O0  1  0.50920500  0.30922500  0.11309800  1
  O  O1  1  0.11309800  0.50920500  0.30922500  1
  O  O2  1  0.26260200  0.91374600  0.05614100  1
  O  O3  1  0.30922500  0.11309800  0.50920500  1
  O  O4  1  0.61920000  0.81227800  0.00186100  1
  O  O5  1  0.44715200  0.58645900  0.23989300  1
  O  O6  1  0.91374600  0.05614100  0.26260200  1
  O  O7  1  0.58645900  0.23989300  0.44715200  1
  O  O8  1  0.99262700  0.38655700  0.18654000  1
  O  O9  1  0.23989300  0.44715200  0.58645900  1
  O  O10  1  0.93981300  0.74100500  0.08344500  1
  O  O11  1  0.18654000  0.99262700  0.38655700  1
  O  O12  1  0.81227800  0.00186100  0.61920000  1
  O  O13  1  0.05614100  0.26260200  0.91374600  1
  O  O14  1  0.75662200  0.56098300  0.41122200  1
  O  O15  1  0.00186100  0.61920000  0.81227800  1
  O  O16  1  0.41122200  0.75662200  0.56098300  1
  O  O17  1  0.08344500  0.93981300  0.74100500  1
  O  O18  1  0.56098300  0.41122200  0.75662200  1
  O  O19  1  0.38655700  0.18654000  0.99262700  1
  O  O20  1  0.68644300  0.88637500  0.49504500  1
  O  O21  1  0.74100500  0.08344500  0.93981300  1
  O  O22  1  0.88637500  0.49504500  0.68644300  1
  O  O23  1  0.49504500  0.68644300  0.88637500  1
loop_
_geom_bond_atom_site_label_1
_geom_bond_atom_site_label_2
_geom_bond_distance
_geom_bond_site_symmetry_2
Cr0 O4 1.928864 1_556
Cr0 O12 1.928865 1_565
Cr0 O15 1.928865 1_655
Cr0 O17 1.981895 1_655
Cr0 O10 1.981895 1_556
Cr0 O21 1.981895 1_565
Fe0 O19 1.940237 1_554
Fe0 O11 1.940237 1_545
Fe0 O8 1.940237 1_455
Fe0 O6 2.055985 1_455
Fe0 O13 2.055985 1_554
Fe0 O2 2.055985 1_545
Fe1 O3 1.953338 1_555
Fe1 O0 1.953338 1_555
Fe1 O1 1.953338 1_555
Fe1 O5 2.084460 1_555
Fe1 O9 2.084460 1_555
Fe1 O7 2.084460 1_555
Fe2 O20 1.933828 1_555
Fe2 O23 1.933828 1_555
Fe2 O22 1.933828 1_555
Fe2 O18 2.065161 1_555
Fe2 O14 2.065161 1_555
Fe2 O16 2.065161 1_555
Cu0 O13 2.209601 1_554
Cu0 O6 2.209601 1_455
Cu0 O2 2.209601 1_545
Cu0 O10 2.227567 1_445
Cu0 O17 2.227567 1_544
Cu0 O21 2.227567 1_454
Cu1 O9 2.185648 1_555
Cu1 O5 2.185648 1_555
Cu1 O7 2.185648 1_555
Cu1 O14 2.186478 1_555
Cu1 O18 2.186478 1_555
Cu1 O16 2.186478 1_555
O0 P5 1.528070 1_554
O1 P3 1.528070 1_455
O2 P0 1.560138 1_555
O3 P4 1.528069 1_545
O4 P0 1.542943 1_555
O5 P0 1.571160 1_555
O6 P1 1.560138 1_555
O7 P1 1.571160 1_555
O8 P3 1.525303 1_555
O9 P2 1.571160 1_555
O10 P3 1.575673 1_555
O11 P4 1.525303 1_555
O12 P1 1.542943 1_555
O13 P2 1.560138 1_555
O14 P3 1.572695 1_555
O15 P2 1.542943 1_555
O16 P4 1.572695 1_555
O17 P4 1.575673 1_555
O18 P5 1.572695 1_555
O19 P5 1.525303 1_555
O20 P1 1.528336 1_565
O21 P5 1.575674 1_555
O22 P2 1.528336 1_655
O23 P0 1.528336 1_556
