# generated using pymatgen
data_NbV3O8
_symmetry_space_group_name_H-M   'P 1'
_cell_length_a   6.07009550
_cell_length_b   6.07009550
_cell_length_c   9.33194500
_cell_angle_alpha   90.00000000
_cell_angle_beta   90.00000000
_cell_angle_gamma   121.62254898
_symmetry_Int_Tables_number   1
_chemical_formula_structural   NbV3O8
_chemical_formula_sum   'Nb2 V6 O16'
_cell_volume   292.79145903
_cell_formula_units_Z   2
loop_
 _symmetry_equiv_pos_site_id
 _symmetry_equiv_pos_as_xyz
  1  'x, y, z'
loop_
 _atom_site_type_symbol
 _atom_site_label
 _atom_site_symmetry_multiplicity
 _atom_site_fract_x
 _atom_site_fract_y
 _atom_site_fract_z
 _atom_site_occupancy
  Nb  Nb0  1  0.67108900  0.32891100  0.50126000  1
  Nb  Nb1  1  0.32891100  0.67108900  0.00126000  1
  V  V0  1  0.33797400  0.17177200  0.78136000  1
  V  V1  1  0.82822800  0.66202600  0.78136000  1
  V  V2  1  0.83067100  0.16932900  0.79219700  1
  V  V3  1  0.16932900  0.83067100  0.29219700  1
  V  V4  1  0.17177200  0.33797400  0.28136000  1
  V  V5  1  0.66202600  0.82822800  0.28136000  1
  O  O0  1  0.34030200  0.17117300  0.39938700  1
  O  O1  1  0.52208300  0.47791700  0.66300600  1
  O  O2  1  0.65287200  0.34712800  0.89351000  1
  O  O3  1  0.00819400  0.99180600  0.69650200  1
  O  O4  1  0.99180600  0.00819400  0.19650200  1
  O  O5  1  0.82882700  0.65969800  0.39938700  1
  O  O6  1  0.51205300  0.04757300  0.66507500  1
  O  O7  1  0.95242700  0.48794700  0.66507500  1
  O  O8  1  0.16993900  0.83006100  0.90119900  1
  O  O9  1  0.83006100  0.16993900  0.40119900  1
  O  O10  1  0.04757300  0.51205300  0.16507500  1
  O  O11  1  0.48794700  0.95242700  0.16507500  1
  O  O12  1  0.34712800  0.65287200  0.39351000  1
  O  O13  1  0.17117300  0.34030200  0.89938700  1
  O  O14  1  0.47791700  0.52208300  0.16300600  1
  O  O15  1  0.65969800  0.82882700  0.89938700  1
loop_
_geom_bond_atom_site_label_1
_geom_bond_atom_site_label_2
_geom_bond_distance
_geom_bond_site_symmetry_2
Nb0 O9 1.926328 1_555
Nb0 O5 1.958621 1_555
Nb0 O0 1.958621 1_555
Nb0 O7 2.111043 1_555
Nb0 O6 2.111043 1_555
Nb0 O1 2.184571 1_555
Nb1 O8 1.926328 1_554
Nb1 O15 1.958621 1_554
Nb1 O13 1.958621 1_554
Nb1 O10 2.111043 1_555
Nb1 O11 2.111043 1_555
Nb1 O14 2.184571 1_555
O0 V3 2.024909 1_545
O0 V4 2.090684 1_555
O1 V1 1.935039 1_555
O1 V0 1.935039 1_555
O2 V1 1.936087 1_555
O2 V0 1.936087 1_555
O2 V2 2.108297 1_555
O3 V0 1.880023 1_565
O3 V1 1.880023 1_455
O3 V2 2.082670 1_465
O4 V5 1.880023 1_545
O4 V4 1.880023 1_655
O4 V3 2.082670 1_645
O5 V3 2.024909 1_655
O5 V5 2.090684 1_555
O6 V0 1.922990 1_555
O6 V2 2.048199 1_555
O7 V1 1.922990 1_555
O7 V2 2.048199 1_555
O8 V0 2.091610 1_565
O8 V1 2.091610 1_455
O9 V4 2.091610 1_655
O9 V5 2.091610 1_545
O10 V4 1.922990 1_555
O10 V3 2.048199 1_555
O11 V5 1.922990 1_555
O11 V3 2.048199 1_555
O12 V5 1.936087 1_555
O12 V4 1.936087 1_555
O12 V3 2.108297 1_555
O13 V2 2.024909 1_455
O13 V0 2.090684 1_555
O14 V5 1.935039 1_555
O14 V4 1.935039 1_555
O15 V2 2.024909 1_565
O15 V1 2.090684 1_555
