# generated using pymatgen
data_Na11Ti8(PO4)12
_symmetry_space_group_name_H-M   'P 1'
_cell_length_a   8.88197600
_cell_length_b   9.08770384
_cell_length_c   12.59910295
_cell_angle_alpha   89.82029285
_cell_angle_beta   89.87846054
_cell_angle_gamma   89.74665506
_symmetry_Int_Tables_number   1
_chemical_formula_structural   Na11Ti8(PO4)12
_chemical_formula_sum   'Na11 Ti8 P12 O48'
_cell_volume   1016.94166025
_cell_formula_units_Z   1
loop_
 _symmetry_equiv_pos_site_id
 _symmetry_equiv_pos_as_xyz
  1  'x, y, z'
loop_
 _atom_site_type_symbol
 _atom_site_label
 _atom_site_symmetry_multiplicity
 _atom_site_fract_x
 _atom_site_fract_y
 _atom_site_fract_z
 _atom_site_occupancy
  Na  Na0  1  0.28565400  0.79577000  0.82980900  1
  Na  Na1  1  0.72489200  0.28737600  0.82708300  1
  Na  Na2  1  0.43474500  0.46892500  0.69120400  1
  Na  Na3  1  0.16744100  0.27603400  0.68550100  1
  Na  Na4  1  0.78621800  0.78640200  0.67477900  1
  Na  Na5  1  0.22645100  0.21121500  0.32966000  1
  Na  Na6  1  0.82900800  0.71683200  0.32449300  1
  Na  Na7  1  0.56362000  0.53585300  0.30870300  1
  Na  Na8  1  0.93821300  0.03347100  0.19123600  1
  Na  Na9  1  0.27586400  0.71620300  0.17083900  1
  Na  Na10  1  0.67243600  0.21516900  0.17324100  1
  Ti  Ti0  1  0.24054300  0.46533700  0.89666100  1
  Ti  Ti1  1  0.75060400  0.96127000  0.89346000  1
  Ti  Ti2  1  0.75967200  0.45853300  0.60487300  1
  Ti  Ti3  1  0.25602600  0.96436100  0.60741400  1
  Ti  Ti4  1  0.23971600  0.53987700  0.39576600  1
  Ti  Ti5  1  0.73999100  0.03547600  0.39935700  1
  Ti  Ti6  1  0.26130700  0.04151700  0.10082600  1
  Ti  Ti7  1  0.75906000  0.53694300  0.10142000  1
  P  P0  1  0.03031600  0.75415900  0.99966800  1
  P  P1  1  0.96823700  0.24996100  0.99913900  1
  P  P2  1  0.61020600  0.61016500  0.85403000  1
  P  P3  1  0.39399100  0.11412500  0.84923300  1
  P  P4  1  0.11028400  0.61041700  0.64856800  1
  P  P5  1  0.88738400  0.10288600  0.64745100  1
  P  P6  1  0.46616600  0.25139700  0.50092000  1
  P  P7  1  0.53140100  0.74939900  0.50166400  1
  P  P8  1  0.11581600  0.89603700  0.35585600  1
  P  P9  1  0.88894300  0.38600700  0.34938400  1
  P  P10  1  0.38675500  0.39560900  0.14512500  1
  P  P11  1  0.61292300  0.88606300  0.14863300  1
  O  O0  1  0.68006800  0.55259000  0.95816600  1
  O  O1  1  0.32782900  0.05737800  0.95661100  1
  O  O2  1  0.86562600  0.14606200  0.93594600  1
  O  O3  1  0.13631500  0.65405400  0.93350700  1
  O  O4  1  0.05883900  0.34456500  0.91969100  1
  O  O5  1  0.93125500  0.84172900  0.92132600  1
  O  O6  1  0.43613600  0.59232800  0.85591200  1
  O  O7  1  0.56659200  0.09521600  0.85416900  1
  O  O8  1  0.35317500  0.27972300  0.83030300  1
  O  O9  1  0.64798000  0.77433400  0.83407200  1
  O  O10  1  0.32367200  0.01850900  0.76122800  1
  O  O11  1  0.67164300  0.51135900  0.76196500  1
  O  O12  1  0.81687700  0.01439100  0.73959800  1
  O  O13  1  0.18573400  0.51289100  0.73595100  1
  O  O14  1  0.86483700  0.27210400  0.66485600  1
  O  O15  1  0.15194900  0.77335200  0.66572000  1
  O  O16  1  0.05874300  0.07128700  0.64189100  1
  O  O17  1  0.93806800  0.58967100  0.64945600  1
  O  O18  1  0.57074300  0.33648900  0.57624600  1
  O  O19  1  0.43990200  0.84760600  0.57880300  1
  O  O20  1  0.62953500  0.64332900  0.56960800  1
  O  O21  1  0.35394900  0.16175700  0.56942100  1
  O  O22  1  0.17464200  0.55082500  0.54166700  1
  O  O23  1  0.81322200  0.05214700  0.54359900  1
  O  O24  1  0.18989400  0.94941600  0.45784900  1
  O  O25  1  0.82325600  0.44258300  0.45641000  1
  O  O26  1  0.37219700  0.35912400  0.43133700  1
  O  O27  1  0.64144200  0.83980600  0.43089100  1
  O  O28  1  0.42825200  0.66206400  0.42630100  1
  O  O29  1  0.55708000  0.15341000  0.42192900  1
  O  O30  1  0.06174600  0.40554800  0.34906200  1
  O  O31  1  0.94245200  0.92352500  0.35916100  1
  O  O32  1  0.14028300  0.72841400  0.33541900  1
  O  O33  1  0.84764700  0.22244800  0.32870300  1
  O  O34  1  0.17733000  0.98849700  0.26049200  1
  O  O35  1  0.81309500  0.48550200  0.26334400  1
  O  O36  1  0.32297300  0.49066900  0.23824100  1
  O  O37  1  0.68905600  0.98381200  0.23490500  1
  O  O38  1  0.36130400  0.22863500  0.16520700  1
  O  O39  1  0.65082100  0.72154400  0.17163300  1
  O  O40  1  0.43975200  0.90742500  0.14851700  1
  O  O41  1  0.55883300  0.42323100  0.14288500  1
  O  O42  1  0.07274100  0.16349700  0.07572800  1
  O  O43  1  0.93642000  0.66181600  0.07945400  1
  O  O44  1  0.12993800  0.85849700  0.06619200  1
  O  O45  1  0.86104200  0.34433800  0.07028600  1
  O  O46  1  0.31423100  0.44860600  0.04136400  1
  O  O47  1  0.67849800  0.93961000  0.04139000  1
loop_
_geom_bond_atom_site_label_1
_geom_bond_atom_site_label_2
_geom_bond_distance
_geom_bond_site_symmetry_2
Na0 O10 2.225261 1_565
Na0 O3 2.263221 1_555
Na0 O6 2.299768 1_555
Na0 O15 2.396049 1_555
Na1 O11 2.241132 1_555
Na1 O2 2.252767 1_555
Na1 O7 2.271304 1_555
Na1 O14 2.394023 1_555
Na2 O18 2.235180 1_555
Na2 O13 2.314616 1_555
Na2 O11 2.321238 1_555
Na2 O6 2.361985 1_555
Na2 O8 2.557214 1_555
Na2 O20 2.801807 1_555
Na3 O16 2.172711 1_555
Na3 O13 2.252938 1_555
Na3 O21 2.438372 1_555
Na3 O8 2.462635 1_555
Na3 O14 2.701232 1_455
Na4 O12 2.247308 1_565
Na4 O17 2.257794 1_555
Na4 O20 2.327585 1_555
Na4 O9 2.353037 1_555
Na5 O34 2.250961 1_545
Na5 O26 2.270858 1_555
Na5 O30 2.301541 1_555
Na5 O38 2.396206 1_555
Na6 O31 2.181298 1_555
Na6 O35 2.246390 1_555
Na6 O27 2.409312 1_555
Na6 O39 2.495501 1_555
Na6 O32 2.770935 1_655
Na7 O28 2.224248 1_555
Na7 O41 2.329821 1_555
Na7 O35 2.330917 1_555
Na7 O36 2.354440 1_555
Na7 O39 2.533286 1_555
Na7 O26 2.802653 1_555
Na8 O42 2.221757 1_655
Na8 O37 2.325054 1_545
Na8 O34 2.331742 1_645
Na8 O31 2.337238 1_545
Na8 O33 2.568392 1_555
Na8 O44 2.809042 1_645
Na9 O44 2.252142 1_555
Na9 O36 2.253893 1_555
Na9 O40 2.288103 1_555
Na9 O32 2.398291 1_555
Na10 O41 2.172503 1_555
Na10 O37 2.243524 1_545
Na10 O45 2.421857 1_555
Na10 O33 2.505451 1_555
Na10 O38 2.767687 1_555
O0 P2 1.541581 1_555
O0 Ti7 1.942398 1_556
O1 P3 1.560915 1_555
O1 Ti6 1.914640 1_556
O2 P1 1.539951 1_555
O2 Ti1 2.042924 1_545
O3 P0 1.550057 1_555
O3 Ti0 2.000722 1_555
O4 P1 1.544660 1_455
O4 Ti0 1.976135 1_555
O5 P0 1.540868 1_655
O5 Ti1 1.965337 1_555
O6 P2 1.555395 1_555
O6 Ti0 2.150280 1_555
O7 P3 1.543246 1_555
O7 Ti1 2.092862 1_545
O8 P3 1.564078 1_555
O8 Ti0 2.129661 1_555
O9 P2 1.550269 1_555
O9 Ti1 2.073944 1_555
O10 P3 1.545416 1_555
O10 Ti3 2.090982 1_545
O11 P2 1.564927 1_555
O11 Ti2 2.180635 1_555
O12 P5 1.543472 1_555
O12 Ti1 2.080676 1_545
O13 P4 1.561551 1_555
O13 Ti0 2.126123 1_555
O14 P5 1.565962 1_555
O14 Ti2 2.072425 1_555
O15 P4 1.543803 1_555
O15 Ti3 2.100143 1_555
O16 P5 1.549091 1_455
O16 Ti3 2.046386 1_545
O17 P4 1.542033 1_655
O17 Ti2 2.066666 1_555
O18 P6 1.541465 1_555
O18 Ti2 2.048809 1_555
O19 P7 1.548294 1_555
O19 Ti3 1.976764 1_555
O20 P7 1.553141 1_555
O20 Ti2 2.081844 1_555
O21 P6 1.549521 1_555
O21 Ti3 2.051886 1_545
O22 P4 1.559690 1_555
O22 Ti4 1.928511 1_555
O23 P5 1.539043 1_555
O23 Ti5 1.938114 1_555
O24 P8 1.526375 1_555
O24 Ti3 1.980247 1_555
O25 P9 1.556073 1_555
O25 Ti2 1.958372 1_555
O26 P6 1.553737 1_555
O26 Ti4 2.064998 1_555
O27 P7 1.556979 1_555
O27 Ti5 2.023323 1_565
O28 P7 1.544568 1_555
O28 Ti4 2.051107 1_555
O29 P6 1.559245 1_555
O29 Ti5 1.963017 1_555
O30 P9 1.545846 1_455
O30 Ti4 2.088221 1_555
O31 P8 1.559345 1_655
O31 Ti5 2.123308 1_565
O32 P8 1.559900 1_555
O32 Ti4 2.067604 1_555
O33 P9 1.555441 1_555
O33 Ti5 2.143618 1_555
O34 P8 1.563036 1_555
O34 Ti6 2.196807 1_565
O35 P9 1.561431 1_555
O35 Ti7 2.146407 1_555
O36 P10 1.562938 1_555
O36 Ti4 2.163831 1_555
O37 P11 1.562789 1_555
O37 Ti5 2.174863 1_565
O38 P10 1.555003 1_555
O38 Ti6 2.088893 1_555
O39 P11 1.557513 1_555
O39 Ti7 2.124282 1_555
O40 P11 1.549455 1_555
O40 Ti6 2.083365 1_565
O41 P10 1.550148 1_555
O41 Ti7 2.124258 1_555
O42 P1 1.550066 1_454
O42 Ti6 2.029167 1_555
O43 P0 1.551641 1_654
O43 Ti7 1.964170 1_555
O44 P0 1.549208 1_554
O44 Ti6 2.083766 1_565
O45 P1 1.561919 1_554
O45 Ti7 2.006690 1_555
O46 P10 1.533883 1_555
O46 Ti0 1.943636 1_554
O47 P11 1.548135 1_555
O47 Ti1 1.978979 1_554
