# generated using pymatgen
data_MnSn3(PO4)4
_symmetry_space_group_name_H-M   'P 1'
_cell_length_a   5.14642150
_cell_length_b   21.92839226
_cell_length_c   12.44413404
_cell_angle_alpha   73.52579158
_cell_angle_beta   90.00110844
_cell_angle_gamma   90.50979899
_symmetry_Int_Tables_number   1
_chemical_formula_structural   MnSn3(PO4)4
_chemical_formula_sum   'Mn4 Sn12 P16 O64'
_cell_volume   1346.64455026
_cell_formula_units_Z   4
loop_
 _symmetry_equiv_pos_site_id
 _symmetry_equiv_pos_as_xyz
  1  'x, y, z'
loop_
 _atom_site_type_symbol
 _atom_site_label
 _atom_site_symmetry_multiplicity
 _atom_site_fract_x
 _atom_site_fract_y
 _atom_site_fract_z
 _atom_site_occupancy
  Mn  Mn0  1  0.05072200  0.36340600  0.69324900  1
  Mn  Mn1  1  0.05058100  0.86341500  0.94323900  1
  Mn  Mn2  1  0.05086200  0.36341200  0.19326600  1
  Mn  Mn3  1  0.05074500  0.86340500  0.44322800  1
  Sn  Sn0  1  0.45008200  0.10549100  0.32233700  1
  Sn  Sn1  1  0.45004100  0.10549500  0.82231100  1
  Sn  Sn2  1  0.45003000  0.60549500  0.57232100  1
  Sn  Sn3  1  0.45000700  0.60550500  0.07232200  1
  Sn  Sn4  1  0.55085700  0.39334600  0.92825200  1
  Sn  Sn5  1  0.55073800  0.39336400  0.42824700  1
  Sn  Sn6  1  0.55081600  0.89337600  0.17823200  1
  Sn  Sn7  1  0.55080200  0.89338000  0.67822100  1
  Sn  Sn8  1  0.95829800  0.14028600  0.05493100  1
  Sn  Sn9  1  0.95827400  0.14028300  0.55490300  1
  Sn  Sn10  1  0.95825800  0.64029000  0.30492600  1
  Sn  Sn11  1  0.95840400  0.64027000  0.80498400  1
  P  P0  1  0.11405600  0.30926900  0.97033100  1
  P  P1  1  0.11396800  0.30927000  0.47034400  1
  P  P2  1  0.11398400  0.80928500  0.22032300  1
  P  P3  1  0.11396800  0.80929400  0.72028900  1
  P  P4  1  0.43095100  0.04122000  0.10441400  1
  P  P5  1  0.43091700  0.04122900  0.60445400  1
  P  P6  1  0.43088500  0.54123400  0.35440400  1
  P  P7  1  0.43095000  0.54121400  0.85445000  1
  P  P8  1  0.58407200  0.45289500  0.14851900  1
  P  P9  1  0.58405100  0.45288600  0.64852200  1
  P  P10  1  0.58409900  0.95288600  0.39851200  1
  P  P11  1  0.58400100  0.95290200  0.89851200  1
  P  P12  1  0.87095700  0.19766700  0.27622900  1
  P  P13  1  0.87089600  0.19766900  0.77616300  1
  P  P14  1  0.87092900  0.69765100  0.52620800  1
  P  P15  1  0.87088400  0.69766800  0.02619000  1
  O  O0  1  0.16277200  0.23914800  0.00540000  1
  O  O1  1  0.16259500  0.23914400  0.50542300  1
  O  O2  1  0.16262200  0.73915900  0.25540300  1
  O  O3  1  0.16266800  0.73917300  0.75536400  1
  O  O4  1  0.14846600  0.16901600  0.29054400  1
  O  O5  1  0.14830800  0.16899200  0.79053100  1
  O  O6  1  0.14841200  0.66899700  0.54053100  1
  O  O7  1  0.14834000  0.66901000  0.04049300  1
  O  O8  1  0.29268400  0.44560100  0.15219300  1
  O  O9  1  0.29265800  0.44559400  0.65222000  1
  O  O10  1  0.29266800  0.94562400  0.40217000  1
  O  O11  1  0.29260300  0.94561200  0.90218800  1
  O  O12  1  0.32555400  0.47162300  0.88918800  1
  O  O13  1  0.32547200  0.47165300  0.38909700  1
  O  O14  1  0.32544100  0.97164900  0.13911800  1
  O  O15  1  0.32540500  0.97165100  0.63916600  1
  O  O16  1  0.67210000  0.02447000  0.36277500  1
  O  O17  1  0.67199800  0.02447200  0.86276700  1
  O  O18  1  0.67193000  0.52446600  0.61275500  1
  O  O19  1  0.67190500  0.52447600  0.11277500  1
  O  O20  1  0.72339700  0.04374400  0.10319000  1
  O  O21  1  0.72338700  0.04374800  0.60318200  1
  O  O22  1  0.72335600  0.54377000  0.35314100  1
  O  O23  1  0.72341400  0.54375100  0.85319300  1
  O  O24  1  0.81653500  0.32256300  0.96368900  1
  O  O25  1  0.81648500  0.32259200  0.46367100  1
  O  O26  1  0.81646800  0.82259000  0.21367100  1
  O  O27  1  0.81645500  0.82258600  0.71364500  1
  O  O28  1  0.88119000  0.26906200  0.24045800  1
  O  O29  1  0.88106600  0.26906500  0.74050400  1
  O  O30  1  0.88117600  0.76904400  0.49052000  1
  O  O31  1  0.88102500  0.76906200  0.99046000  1
  O  O32  1  0.25625100  0.34472900  0.85611100  1
  O  O33  1  0.25624200  0.34472300  0.35612800  1
  O  O34  1  0.25618000  0.84474400  0.10610300  1
  O  O35  1  0.25623000  0.84475300  0.60607800  1
  O  O36  1  0.25633400  0.34474000  0.04907600  1
  O  O37  1  0.25625000  0.34473700  0.54909500  1
  O  O38  1  0.25625400  0.84475100  0.29906800  1
  O  O39  1  0.25621900  0.84476500  0.79904800  1
  O  O40  1  0.30356500  0.07629000  0.98729400  1
  O  O41  1  0.30371600  0.07631600  0.48729300  1
  O  O42  1  0.30356700  0.57630600  0.23726500  1
  O  O43  1  0.30365700  0.57629300  0.73731400  1
  O  O44  1  0.30361200  0.07630000  0.18649600  1
  O  O45  1  0.30355600  0.07627600  0.68653800  1
  O  O46  1  0.30357700  0.57629500  0.43650100  1
  O  O47  1  0.30355200  0.57626100  0.93653900  1
  O  O48  1  0.72166700  0.41815500  0.06768100  1
  O  O49  1  0.72159600  0.41816100  0.56766700  1
  O  O50  1  0.72164800  0.91815300  0.31768300  1
  O  O51  1  0.72159100  0.91816500  0.81766900  1
  O  O52  1  0.72166500  0.41815500  0.26407600  1
  O  O53  1  0.72170200  0.41814900  0.76407000  1
  O  O54  1  0.72169100  0.91814300  0.51405100  1
  O  O55  1  0.72163100  0.91815200  0.01406000  1
  O  O56  1  0.70259800  0.16632000  0.19708900  1
  O  O57  1  0.70251500  0.16638300  0.69693800  1
  O  O58  1  0.70254100  0.66635800  0.44699200  1
  O  O59  1  0.70243500  0.66635900  0.94701500  1
  O  O60  1  0.70266500  0.16639300  0.38673200  1
  O  O61  1  0.70249800  0.16636900  0.88665500  1
  O  O62  1  0.70258400  0.66635000  0.63669600  1
  O  O63  1  0.70257000  0.66638400  0.13670500  1
loop_
_geom_bond_atom_site_label_1
_geom_bond_atom_site_label_2
_geom_bond_distance
_geom_bond_site_symmetry_2
Mn0 O9 2.120678 1_555
Mn0 O29 2.160037 1_455
Mn0 O37 2.220059 1_555
Mn0 O32 2.220545 1_555
Mn0 O53 2.391896 1_455
Mn0 O49 2.392648 1_455
Mn1 O11 2.121087 1_555
Mn1 O31 2.160064 1_455
Mn1 O39 2.220552 1_555
Mn1 O34 2.220748 1_556
Mn1 O55 2.391558 1_456
Mn1 O51 2.392037 1_455
Mn2 O8 2.120355 1_555
Mn2 O28 2.160242 1_455
Mn2 O33 2.220160 1_555
Mn2 O36 2.220334 1_555
Mn2 O52 2.392475 1_455
Mn2 O48 2.392835 1_455
Mn3 O10 2.121167 1_555
Mn3 O30 2.160245 1_455
Mn3 O38 2.219939 1_555
Mn3 O35 2.220347 1_555
Mn3 O54 2.391966 1_455
Mn3 O50 2.392257 1_455
O0 P0 1.497970 1_554
O0 Sn8 2.321327 1_455
O1 P1 1.497992 1_555
O1 Sn9 2.320958 1_455
O2 P2 1.498002 1_555
O2 Sn10 2.321207 1_455
O3 P3 1.497955 1_555
O3 Sn11 2.321616 1_455
O4 P12 1.555195 1_455
O4 Sn0 2.057259 1_555
O5 P13 1.554951 1_455
O5 Sn1 2.057331 1_555
O6 P14 1.555096 1_455
O6 Sn2 2.056949 1_555
O7 P15 1.555002 1_455
O7 Sn3 2.057183 1_555
O8 P8 1.506013 1_555
O9 P9 1.506035 1_555
O10 P10 1.506171 1_555
O11 P11 1.506057 1_555
O12 P7 1.555940 1_555
O12 Sn4 2.022186 1_555
O13 P6 1.555772 1_555
O13 Sn5 2.022282 1_555
O14 P4 1.555745 1_565
O14 Sn6 2.022332 1_555
O15 P5 1.555886 1_565
O15 Sn7 2.022364 1_555
O16 P10 1.567909 1_545
O16 Sn0 2.060172 1_555
O17 P11 1.567621 1_545
O17 Sn1 2.060030 1_555
O18 P9 1.567652 1_555
O18 Sn2 2.059971 1_555
O19 P8 1.567606 1_555
O19 Sn3 2.059965 1_555
O20 P4 1.505494 1_555
O20 Sn8 2.353134 1_555
O21 P5 1.505615 1_555
O21 Sn9 2.352971 1_555
O22 P6 1.505629 1_555
O22 Sn10 2.352740 1_555
O23 P7 1.505594 1_555
O23 Sn11 2.352951 1_555
O24 P0 1.559026 1_655
O24 Sn4 2.030437 1_555
O25 P1 1.558945 1_655
O25 Sn5 2.030507 1_555
O26 P2 1.559044 1_655
O26 Sn6 2.030392 1_555
O27 P3 1.558978 1_655
O27 Sn7 2.030520 1_555
O28 P12 1.501742 1_555
O29 P13 1.501755 1_555
O30 P14 1.501702 1_555
O31 P15 1.501709 1_556
O32 P0 1.588556 1_555
O32 Sn4 2.180651 1_555
O33 P1 1.588669 1_555
O33 Sn5 2.180425 1_555
O34 P2 1.588553 1_555
O34 Sn6 2.180873 1_555
O35 P3 1.588624 1_555
O35 Sn7 2.180675 1_555
O36 P0 1.588559 1_554
O36 Sn4 2.180960 1_554
O37 P1 1.588566 1_555
O37 Sn5 2.181132 1_555
O38 P2 1.588467 1_555
O38 Sn6 2.181301 1_555
O39 P3 1.588627 1_555
O39 Sn7 2.181251 1_555
O40 P4 1.587014 1_556
O40 Sn1 2.106949 1_555
O40 Sn8 2.559189 1_456
O41 P5 1.587100 1_555
O41 Sn0 2.106433 1_555
O41 Sn9 2.559244 1_455
O42 P6 1.587062 1_555
O42 Sn3 2.106438 1_555
O42 Sn10 2.559314 1_455
O43 P7 1.587014 1_555
O43 Sn2 2.106870 1_555
O43 Sn11 2.559068 1_455
O44 P4 1.587197 1_555
O44 Sn0 2.107263 1_555
O44 Sn8 2.559052 1_455
O45 P5 1.586778 1_555
O45 Sn1 2.106863 1_555
O45 Sn9 2.559531 1_455
O46 P6 1.586997 1_555
O46 Sn2 2.107104 1_555
O46 Sn10 2.559204 1_455
O47 P7 1.586907 1_555
O47 Sn3 2.107208 1_556
O47 Sn11 2.558583 1_455
O48 P8 1.593105 1_555
O48 Sn4 2.146154 1_554
O49 P9 1.592934 1_555
O49 Sn5 2.146030 1_555
O50 P10 1.592811 1_555
O50 Sn6 2.146105 1_555
O51 P11 1.593097 1_555
O51 Sn7 2.146066 1_555
O52 P8 1.593067 1_555
O52 Sn5 2.145857 1_555
O53 P9 1.593100 1_555
O53 Sn4 2.145800 1_555
O54 P10 1.592908 1_555
O54 Sn7 2.145779 1_555
O55 P11 1.593116 1_554
O55 Sn6 2.145640 1_555
O56 P12 1.602011 1_555
O56 Sn0 2.165045 1_555
O56 Sn8 2.402776 1_555
O57 P13 1.602051 1_555
O57 Sn1 2.166291 1_555
O57 Sn9 2.402367 1_555
O58 P14 1.602079 1_555
O58 Sn2 2.165882 1_555
O58 Sn10 2.402241 1_555
O59 P15 1.602082 1_556
O59 Sn3 2.165399 1_556
O59 Sn11 2.402812 1_555
O60 P12 1.601872 1_555
O60 Sn0 2.165972 1_555
O60 Sn9 2.402409 1_555
O61 P13 1.602166 1_555
O61 Sn1 2.164801 1_555
O61 Sn8 2.404001 1_556
O62 P14 1.601987 1_555
O62 Sn2 2.165009 1_555
O62 Sn11 2.404178 1_555
O63 P15 1.602082 1_555
O63 Sn3 2.165468 1_555
O63 Sn10 2.403133 1_555
