# generated using pymatgen
data_AlPdO3
_symmetry_space_group_name_H-M   'P 1'
_cell_length_a   6.63104832
_cell_length_b   6.63104832
_cell_length_c   5.34455237
_cell_angle_alpha   81.56858531
_cell_angle_beta   98.43141469
_cell_angle_gamma   92.49529873
_symmetry_Int_Tables_number   1
_chemical_formula_structural   AlPdO3
_chemical_formula_sum   'Al4 Pd4 O12'
_cell_volume   229.89356276
_cell_formula_units_Z   4
loop_
 _symmetry_equiv_pos_site_id
 _symmetry_equiv_pos_as_xyz
  1  'x, y, z'
loop_
 _atom_site_type_symbol
 _atom_site_label
 _atom_site_symmetry_multiplicity
 _atom_site_fract_x
 _atom_site_fract_y
 _atom_site_fract_z
 _atom_site_occupancy
  Al  Al0  1  0.22242600  0.60677600  0.70657900  1
  Al  Al1  1  0.39322400  0.77757400  0.20657900  1
  Al  Al2  1  0.60677600  0.22242600  0.79342100  1
  Al  Al3  1  0.77757400  0.39322400  0.29342100  1
  Pd  Pd0  1  0.09618700  0.09618700  0.75000000  1
  Pd  Pd1  1  0.71882300  0.71882300  0.75000000  1
  Pd  Pd2  1  0.28117700  0.28117700  0.25000000  1
  Pd  Pd3  1  0.90381300  0.90381300  0.25000000  1
  O  O0  1  0.02438800  0.80185000  0.63252300  1
  O  O1  1  0.19815000  0.97561200  0.13252300  1
  O  O2  1  0.42291500  0.71530700  0.90417200  1
  O  O3  1  0.14451500  0.37515700  0.88860400  1
  O  O4  1  0.28469300  0.57708500  0.40417200  1
  O  O5  1  0.62484300  0.85548500  0.38860400  1
  O  O6  1  0.37515700  0.14451500  0.61139600  1
  O  O7  1  0.71530700  0.42291500  0.59582800  1
  O  O8  1  0.85548500  0.62484300  0.11139600  1
  O  O9  1  0.57708500  0.28469300  0.09582800  1
  O  O10  1  0.80185000  0.02438800  0.86747700  1
  O  O11  1  0.97561200  0.19815000  0.36747700  1
loop_
_geom_bond_atom_site_label_1
_geom_bond_atom_site_label_2
_geom_bond_distance
_geom_bond_site_symmetry_2
Al0 O4 1.765654 1_555
Al0 O2 1.768744 1_555
Al0 O3 1.792311 1_555
Al0 O0 1.843844 1_555
Al1 O2 1.765654 1_554
Al1 O4 1.768744 1_555
Al1 O5 1.792311 1_555
Al1 O1 1.843844 1_555
Al2 O9 1.765654 1_556
Al2 O7 1.768744 1_555
Al2 O6 1.792311 1_555
Al2 O10 1.843844 1_555
Al3 O7 1.765654 1_555
Al3 O9 1.768744 1_555
Al3 O8 1.792311 1_555
Al3 O11 1.843844 1_555
O0 Pd3 2.106753 1_455
O0 Pd0 2.149663 1_565
O0 Pd1 2.231018 1_455
O1 Pd0 2.106753 1_564
O1 Pd3 2.149663 1_455
O1 Pd2 2.231018 1_565
O2 Pd1 2.234759 1_555
O3 Pd2 2.030560 1_556
O3 Pd0 2.086638 1_555
O4 Pd2 2.234759 1_555
O5 Pd1 2.030560 1_555
O5 Pd3 2.086638 1_555
O6 Pd2 2.030560 1_555
O6 Pd0 2.086638 1_555
O7 Pd1 2.234759 1_555
O8 Pd1 2.030560 1_554
O8 Pd3 2.086638 1_555
O9 Pd2 2.234759 1_555
O10 Pd3 2.106753 1_546
O10 Pd0 2.149663 1_655
O10 Pd1 2.231018 1_545
O11 Pd0 2.106753 1_655
O11 Pd3 2.149663 1_545
O11 Pd2 2.231018 1_655
