# generated using pymatgen
data_Li24Ti11CrO36
_symmetry_space_group_name_H-M   'P 1'
_cell_length_a   8.84157632
_cell_length_b   8.84157632
_cell_length_c   10.28269471
_cell_angle_alpha   72.98463437
_cell_angle_beta   72.98463437
_cell_angle_gamma   59.79939604
_symmetry_Int_Tables_number   1
_chemical_formula_structural   Li24Ti11CrO36
_chemical_formula_sum   'Li24 Ti11 Cr1 O36'
_cell_volume   653.95203769
_cell_formula_units_Z   1
loop_
 _symmetry_equiv_pos_site_id
 _symmetry_equiv_pos_as_xyz
  1  'x, y, z'
loop_
 _atom_site_type_symbol
 _atom_site_label
 _atom_site_symmetry_multiplicity
 _atom_site_fract_x
 _atom_site_fract_y
 _atom_site_fract_z
 _atom_site_occupancy
  Li  Li0  1  0.00450900  0.66112300  0.24982400  1
  Li  Li1  1  0.16768600  0.50000800  0.49962400  1
  Li  Li2  1  0.00464100  0.66203100  0.75103800  1
  Li  Li3  1  0.32833900  0.33882000  0.74900900  1
  Li  Li4  1  0.00006800  0.33325000  0.74997900  1
  Li  Li5  1  0.16672700  0.49995600  0.99996800  1
  Li  Li6  1  0.32802300  0.33918000  0.25006600  1
  Li  Li7  1  0.00133800  0.33274600  0.24919500  1
  Li  Li8  1  0.66725400  0.99866200  0.75080500  1
  Li  Li9  1  0.66675000  0.99993200  0.25002100  1
  Li  Li10  1  0.33796900  0.99535900  0.24896200  1
  Li  Li11  1  0.49999200  0.83231400  0.50037600  1
  Li  Li12  1  0.33887700  0.99549100  0.75017600  1
  Li  Li13  1  0.66082000  0.67197700  0.74993400  1
  Li  Li14  1  0.33480900  0.66570400  0.74891200  1
  Li  Li15  1  0.50004400  0.83327300  0.00003200  1
  Li  Li16  1  0.66118000  0.67166100  0.25099100  1
  Li  Li17  1  0.33429600  0.66519100  0.25108800  1
  Li  Li18  1  0.67026800  0.32897600  0.25042500  1
  Li  Li19  1  0.83309400  0.16690600  0.50000000  1
  Li  Li20  1  0.67102400  0.32973200  0.74957500  1
  Li  Li21  1  0.99474400  0.00444200  0.74933900  1
  Li  Li22  1  0.83336400  0.16663600  0.00000000  1
  Li  Li23  1  0.99555800  0.00525600  0.25066100  1
  Ti  Ti0  1  0.49770800  0.16984900  0.49780800  1
  Ti  Ti1  1  0.16659400  0.16603700  0.50019900  1
  Ti  Ti2  1  0.49902600  0.16788000  0.99991400  1
  Ti  Ti3  1  0.16741800  0.16593500  0.99976000  1
  Ti  Ti4  1  0.83396300  0.83340600  0.49980100  1
  Ti  Ti5  1  0.16856000  0.83144000  0.50000000  1
  Ti  Ti6  1  0.83406500  0.83258200  0.00024000  1
  Ti  Ti7  1  0.16590300  0.83409700  0.00000000  1
  Ti  Ti8  1  0.83015100  0.50229200  0.50219200  1
  Ti  Ti9  1  0.83212000  0.50097400  0.00008600  1
  Ti  Ti10  1  0.50066900  0.49933100  0.00000000  1
  Cr  Cr0  1  0.50317300  0.49682700  0.50000000  1
  O  O0  1  0.07201200  0.40629300  0.38422600  1
  O  O1  1  0.56979400  0.26533200  0.61183700  1
  O  O2  1  0.07339800  0.40695800  0.88429900  1
  O  O3  1  0.25981400  0.23730100  0.61336500  1
  O  O4  1  0.57042400  0.25999900  0.11343400  1
  O  O5  1  0.25981000  0.23724300  0.11324000  1
  O  O6  1  0.40710700  0.09707700  0.38640300  1
  O  O7  1  0.74061600  0.07353200  0.38447300  1
  O  O8  1  0.09753900  0.07202700  0.38641700  1
  O  O9  1  0.40689100  0.09632500  0.88642500  1
  O  O10  1  0.59370700  0.92798800  0.61577400  1
  O  O11  1  0.23722400  0.92657500  0.61323000  1
  O  O12  1  0.73995100  0.07341600  0.88443900  1
  O  O13  1  0.09609600  0.07348200  0.88685500  1
  O  O14  1  0.92797300  0.90246100  0.61358300  1
  O  O15  1  0.59304200  0.92660200  0.11570100  1
  O  O16  1  0.23741100  0.92660700  0.11331300  1
  O  O17  1  0.92651800  0.90390400  0.11314600  1
  O  O18  1  0.07342500  0.76277600  0.38677000  1
  O  O19  1  0.76269900  0.74018600  0.38663500  1
  O  O20  1  0.40927000  0.73671900  0.38625200  1
  O  O21  1  0.07339300  0.76258900  0.88668700  1
  O  O22  1  0.90292300  0.59289300  0.61359700  1
  O  O23  1  0.26328100  0.59073000  0.61374800  1
  O  O24  1  0.76275700  0.74019000  0.88676000  1
  O  O25  1  0.40673900  0.74015700  0.88445100  1
  O  O26  1  0.59323300  0.57152200  0.61284700  1
  O  O27  1  0.90367500  0.59310900  0.11357500  1
  O  O28  1  0.25984300  0.59326100  0.11554900  1
  O  O29  1  0.59321200  0.57068700  0.11303100  1
  O  O30  1  0.73466800  0.43020600  0.38816300  1
  O  O31  1  0.42847800  0.40676700  0.38715300  1
  O  O32  1  0.74000100  0.42957600  0.88656600  1
  O  O33  1  0.92646800  0.25938400  0.61552700  1
  O  O34  1  0.42931300  0.40678800  0.88696900  1
  O  O35  1  0.92658400  0.26004900  0.11556100  1
loop_
_geom_bond_atom_site_label_1
_geom_bond_atom_site_label_2
_geom_bond_distance
_geom_bond_site_symmetry_2
Li0 O19 2.085751 1_455
Li0 O17 2.090659 1_455
Li0 O0 2.156413 1_555
Li0 O28 2.158878 1_555
Li0 O27 2.209690 1_455
Li0 O18 2.226180 1_555
Li1 O31 2.102091 1_555
Li1 O18 2.116367 1_555
Li1 O3 2.119129 1_555
Li1 O23 2.132687 1_555
Li1 O22 2.133395 1_455
Li1 O0 2.162911 1_555
Li2 O14 2.080557 1_455
Li2 O24 2.080809 1_455
Li2 O2 2.152432 1_555
Li2 O23 2.191088 1_555
Li2 O21 2.207109 1_555
Li2 O22 2.232126 1_455
Li3 O1 2.085130 1_555
Li3 O9 2.092615 1_555
Li3 O23 2.142988 1_555
Li3 O2 2.160601 1_555
Li3 O3 2.211915 1_555
Li3 O34 2.224972 1_555
Li4 O2 2.056373 1_555
Li4 O33 2.060078 1_455
Li4 O22 2.193512 1_455
Li4 O3 2.194657 1_555
Li4 O13 2.196025 1_555
Li4 O32 2.196579 1_455
Li5 O34 2.115686 1_555
Li5 O21 2.116985 1_555
Li5 O5 2.117481 1_556
Li5 O27 2.120880 1_456
Li5 O28 2.144911 1_556
Li5 O2 2.145002 1_555
Li6 O6 2.085166 1_555
Li6 O4 2.088348 1_555
Li6 O28 2.151808 1_555
Li6 O0 2.163119 1_555
Li6 O31 2.211946 1_555
Li6 O5 2.222870 1_555
Li7 O0 2.046020 1_555
Li7 O35 2.052810 1_455
Li7 O5 2.183954 1_555
Li7 O27 2.194484 1_455
Li7 O8 2.203275 1_555
Li7 O30 2.246867 1_455
Li8 O10 2.046020 1_555
Li8 O12 2.052810 1_565
Li8 O24 2.183954 1_555
Li8 O9 2.194484 1_565
Li8 O14 2.203275 1_555
Li8 O1 2.246867 1_565
Li9 O15 2.056373 1_555
Li9 O7 2.060078 1_565
Li9 O6 2.193512 1_565
Li9 O19 2.194657 1_555
Li9 O17 2.196020 1_555
Li9 O4 2.196579 1_565
Li10 O8 2.080557 1_565
Li10 O5 2.080809 1_565
Li10 O15 2.152432 1_555
Li10 O20 2.191088 1_555
Li10 O16 2.207109 1_555
Li10 O6 2.232126 1_565
Li11 O26 2.102091 1_555
Li11 O11 2.116367 1_555
Li11 O19 2.119129 1_555
Li11 O20 2.132687 1_555
Li11 O6 2.133395 1_565
Li11 O10 2.162911 1_555
Li12 O3 2.085751 1_565
Li12 O13 2.090664 1_565
Li12 O10 2.156413 1_555
Li12 O25 2.158878 1_555
Li12 O9 2.209690 1_565
Li12 O11 2.226180 1_555
Li13 O22 2.085166 1_555
Li13 O32 2.088348 1_555
Li13 O25 2.151808 1_555
Li13 O10 2.163119 1_555
Li13 O26 2.211946 1_555
Li13 O24 2.222870 1_555
Li14 O23 2.060692 1_555
Li14 O25 2.063273 1_555
Li14 O26 2.183650 1_555
Li14 O34 2.195872 1_555
Li14 O11 2.197721 1_555
Li14 O21 2.210204 1_555
Li15 O29 2.115686 1_555
Li15 O16 2.116985 1_555
Li15 O24 2.117481 1_554
Li15 O9 2.120880 1_564
Li15 O25 2.144911 1_554
Li15 O15 2.145002 1_555
Li16 O30 2.085130 1_555
Li16 O27 2.092615 1_555
Li16 O20 2.142988 1_555
Li16 O15 2.160601 1_555
Li16 O19 2.211915 1_555
Li16 O29 2.224972 1_555
Li17 O20 2.060692 1_555
Li17 O28 2.063273 1_555
Li17 O31 2.183650 1_555
Li17 O29 2.195872 1_555
Li17 O18 2.197721 1_555
Li17 O16 2.210204 1_555
Li18 O31 2.085072 1_555
Li18 O29 2.087772 1_555
Li18 O7 2.157370 1_555
Li18 O35 2.167069 1_555
Li18 O30 2.204053 1_555
Li18 O4 2.215329 1_555
Li19 O1 2.116604 1_555
Li19 O30 2.116604 1_555
Li19 O14 2.129905 1_545
Li19 O8 2.129905 1_655
Li19 O33 2.140762 1_555
Li19 O7 2.140762 1_555
Li20 O26 2.085072 1_555
Li20 O34 2.087772 1_555
Li20 O33 2.157370 1_555
Li20 O12 2.167069 1_555
Li20 O1 2.204053 1_555
Li20 O32 2.215329 1_555
Li21 O11 2.086144 1_645
Li21 O21 2.088555 1_645
Li21 O33 2.154193 1_555
Li21 O12 2.158432 1_555
Li21 O14 2.205602 1_545
Li21 O13 2.229846 1_655
Li22 O13 2.117156 1_654
Li22 O17 2.117160 1_545
Li22 O32 2.119534 1_554
Li22 O4 2.119534 1_555
Li22 O12 2.146137 1_554
Li22 O35 2.146137 1_555
Li23 O18 2.086144 1_645
Li23 O16 2.088555 1_645
Li23 O7 2.154193 1_555
Li23 O35 2.158432 1_555
Li23 O8 2.205602 1_655
Li23 O17 2.229837 1_545
Cr0 O1 1.914339 1_555
Cr0 O30 1.914339 1_555
Cr0 O23 1.975063 1_555
Cr0 O20 1.975063 1_555
Cr0 O26 1.983681 1_555
Cr0 O31 1.983681 1_555
O0 Ti1 1.986889 1_555
O0 Ti8 2.005768 1_455
O1 Ti0 2.012900 1_555
O2 Ti3 1.989101 1_555
O2 Ti9 1.992007 1_456
O3 Ti0 1.970204 1_555
O3 Ti1 1.985778 1_555
O4 Ti10 1.970316 1_555
O4 Ti2 1.982271 1_554
O5 Ti2 1.969334 1_554
O5 Ti3 1.983182 1_554
O6 Ti0 1.963394 1_555
O6 Ti1 1.979862 1_555
O7 Ti4 1.982785 1_545
O7 Ti0 1.992955 1_555
O8 Ti5 1.978540 1_545
O8 Ti1 1.982505 1_555
O9 Ti3 1.970938 1_555
O9 Ti2 1.983089 1_555
O10 Ti4 1.986889 1_555
O10 Ti0 2.005768 1_565
O11 Ti1 1.969236 1_565
O11 Ti5 1.983007 1_555
O12 Ti2 1.988780 1_555
O12 Ti6 1.989422 1_546
O13 Ti7 1.969545 1_546
O13 Ti3 1.978931 1_555
O14 Ti5 1.978540 1_655
O14 Ti4 1.982505 1_555
O15 Ti6 1.989101 1_555
O15 Ti2 1.992007 1_564
O16 Ti3 1.970630 1_564
O16 Ti7 1.983815 1_555
O17 Ti7 1.969548 1_655
O17 Ti6 1.978940 1_555
O18 Ti4 1.969236 1_455
O18 Ti5 1.983007 1_555
O19 Ti8 1.970204 1_555
O19 Ti4 1.985778 1_555
O20 Ti5 1.980440 1_555
O21 Ti6 1.970630 1_456
O21 Ti7 1.983815 1_556
O22 Ti8 1.963394 1_555
O22 Ti4 1.979862 1_555
O23 Ti5 1.980440 1_555
O24 Ti9 1.969334 1_556
O24 Ti6 1.983182 1_556
O25 Ti10 1.988230 1_556
O25 Ti7 1.988295 1_556
O26 Ti8 1.944209 1_555
O27 Ti6 1.970938 1_555
O27 Ti9 1.983089 1_555
O28 Ti10 1.988230 1_555
O28 Ti7 1.988295 1_555
O29 Ti9 1.965695 1_555
O29 Ti10 1.980772 1_555
O30 Ti8 2.012900 1_555
O31 Ti0 1.944209 1_555
O32 Ti10 1.970316 1_556
O32 Ti9 1.982271 1_556
O33 Ti1 1.982785 1_655
O33 Ti8 1.992955 1_555
O34 Ti2 1.965695 1_555
O34 Ti10 1.980772 1_556
O35 Ti9 1.988780 1_555
O35 Ti3 1.989422 1_654
