# generated using pymatgen
data_K2HgS4
_symmetry_space_group_name_H-M   'P 1'
_cell_length_a   6.03744105
_cell_length_b   6.03744105
_cell_length_c   11.66788804
_cell_angle_alpha   75.58546983
_cell_angle_beta   75.58546983
_cell_angle_gamma   85.66210357
_symmetry_Int_Tables_number   1
_chemical_formula_structural   K2HgS4
_chemical_formula_sum   'K4 Hg2 S8'
_cell_volume   398.90472885
_cell_formula_units_Z   2
loop_
 _symmetry_equiv_pos_site_id
 _symmetry_equiv_pos_as_xyz
  1  'x, y, z'
loop_
 _atom_site_type_symbol
 _atom_site_label
 _atom_site_symmetry_multiplicity
 _atom_site_fract_x
 _atom_site_fract_y
 _atom_site_fract_z
 _atom_site_occupancy
  K  K0  1  0.32303000  0.76123800  0.02657100  1
  K  K1  1  0.23876200  0.67697000  0.47342900  1
  K  K2  1  0.67697000  0.23876200  0.97342900  1
  K  K3  1  0.76123800  0.32303000  0.52657100  1
  Hg  Hg0  1  0.11720700  0.88279300  0.75000000  1
  Hg  Hg1  1  0.88279300  0.11720700  0.25000000  1
  S  S0  1  0.19249000  0.34017800  0.90957800  1
  S  S1  1  0.65982200  0.80751000  0.59042200  1
  S  S2  1  0.80751000  0.65982200  0.09042200  1
  S  S3  1  0.34017800  0.19249000  0.40957800  1
  S  S4  1  0.83574100  0.64055600  0.72180500  1
  S  S5  1  0.35944400  0.16425900  0.77819500  1
  S  S6  1  0.16425900  0.35944400  0.27819500  1
  S  S7  1  0.64055600  0.83574100  0.22180500  1
loop_
_geom_bond_atom_site_label_1
_geom_bond_atom_site_label_2
_geom_bond_distance
_geom_bond_site_symmetry_2
K0 S2 3.086071 1_455
K0 S2 3.173732 1_555
K0 S5 3.258893 1_564
K0 S6 3.290565 1_555
K0 S0 3.393132 1_554
K0 S7 3.446926 1_555
K0 S0 3.527771 1_564
K1 S3 3.086071 1_565
K1 S3 3.173732 1_555
K1 S4 3.258893 1_455
K1 S7 3.290565 1_555
K1 S1 3.393132 1_555
K1 S6 3.446926 1_555
K1 S1 3.527771 1_455
K2 S0 3.086071 1_655
K2 S0 3.173732 1_555
K2 S7 3.258893 1_546
K2 S4 3.290565 1_555
K2 S2 3.393132 1_556
K2 S5 3.446926 1_555
K2 S2 3.527771 1_546
K3 S1 3.086071 1_545
K3 S1 3.173732 1_555
K3 S6 3.258893 1_655
K3 S5 3.290565 1_555
K3 S3 3.393132 1_555
K3 S4 3.446926 1_555
K3 S3 3.527771 1_655
Hg0 S5 2.455336 1_565
Hg0 S4 2.455336 1_455
Hg0 K0 3.629836 1_556
Hg0 K1 3.629836 1_555
Hg1 S6 2.455336 1_655
Hg1 S7 2.455336 1_545
Hg1 K3 3.629836 1_555
Hg1 K2 3.629836 1_554
S0 S5 2.091268 1_555
S1 S4 2.091268 1_555
S2 S7 2.091268 1_555
S3 S6 2.091268 1_555
