# generated using pymatgen
data_VO2F
_symmetry_space_group_name_H-M   'P 1'
_cell_length_a   5.11861394
_cell_length_b   5.11855731
_cell_length_c   12.77753410
_cell_angle_alpha   89.99325559
_cell_angle_beta   90.00500371
_cell_angle_gamma   120.00187910
_symmetry_Int_Tables_number   1
_chemical_formula_structural   VO2F
_chemical_formula_sum   'V6 O12 F6'
_cell_volume   289.91414045
_cell_formula_units_Z   6
loop_
 _symmetry_equiv_pos_site_id
 _symmetry_equiv_pos_as_xyz
  1  'x, y, z'
loop_
 _atom_site_type_symbol
 _atom_site_label
 _atom_site_symmetry_multiplicity
 _atom_site_fract_x
 _atom_site_fract_y
 _atom_site_fract_z
 _atom_site_occupancy
  V  V0  1  0.63820400  0.59962108  0.50278993  1
  V  V1  1  0.65682187  0.70436901  0.00282704  1
  V  V2  1  0.96140941  0.36182492  0.16941212  1
  V  V3  1  0.29555570  0.95240509  0.33614889  1
  V  V4  1  0.04762230  0.34318016  0.66952348  1
  V  V5  1  0.40045083  0.03857813  0.83615370  1
  O  O0  1  0.67025071  0.25040717  0.24760930  1
  O  O1  1  0.74953441  0.42003055  0.58106303  1
  O  O2  1  0.91497223  0.57160548  0.08038238  1
  O  O3  1  0.00385164  0.77017854  0.41574224  1
  O  O4  1  0.65688490  0.08533160  0.74718607  1
  O  O5  1  0.23010039  0.23378616  0.74902267  1
  O  O6  1  0.76627316  0.99623753  0.08232186  1
  O  O7  1  0.42862047  0.34335172  0.41373361  1
  O  O8  1  0.25461233  0.67731026  0.25091117  1
  O  O9  1  0.57998609  0.32950320  0.91444824  1
  O  O10  1  0.32249156  0.57724989  0.58419781  1
  O  O11  1  0.42256015  0.74511402  0.91756499  1
  F  F0  1  0.09792643  0.09239410  0.24810197  1
  F  F1  1  0.99434654  0.90190502  0.91474502  1
  F  F2  1  0.07108069  0.65396340  0.75155625  1
  F  F3  1  0.90722362  0.00551857  0.58151386  1
  F  F4  1  0.34616735  0.41699455  0.08489756  1
  F  F5  1  0.58305222  0.92913787  0.41814682  1
loop_
_geom_bond_atom_site_label_1
_geom_bond_atom_site_label_2
_geom_bond_distance
_geom_bond_site_symmetry_2
O0 V2 1.641585 1_555
O0 V3 2.087890 1_545
O1 V0 1.641211 1_555
O1 V4 2.088110 1_655
O2 V2 1.660869 1_555
O2 V1 2.021744 1_555
O3 V3 1.655592 1_555
O3 V0 1.966796 1_455
O4 V5 1.660874 1_555
O4 V4 2.021631 1_655
O5 V4 1.655459 1_555
O5 V5 1.966983 1_555
O6 V1 1.655515 1_555
O6 V2 1.966919 1_565
O7 V0 1.661088 1_555
O7 V3 2.021959 1_545
O8 V3 1.708227 1_555
O8 V2 1.876416 1_455
O9 V5 1.641480 1_555
O9 V1 2.087427 1_556
O10 V4 1.708156 1_555
O10 V0 1.876648 1_555
O11 V1 1.708219 1_556
O11 V5 1.876394 1_565
F0 V3 1.878008 1_545
F0 V2 2.089125 1_455
F1 V1 1.878017 1_556
F1 V5 2.089188 1_665
F2 V4 1.858216 1_555
F2 V5 2.137150 1_565
F3 V4 1.877870 1_655
F3 V0 2.088934 1_545
F4 V1 1.858134 1_555
F4 V2 2.137444 1_455
F5 V3 1.858078 1_555
F5 V0 2.137727 1_555
