# generated using pymatgen
data_Li7V3P8O29
_symmetry_space_group_name_H-M   'P 1'
_cell_length_a   9.83870400
_cell_length_b   9.87423154
_cell_length_c   13.92386422
_cell_angle_alpha   90.43614621
_cell_angle_beta   89.90466517
_cell_angle_gamma   119.85413103
_symmetry_Int_Tables_number   1
_chemical_formula_structural   Li7V3P8O29
_chemical_formula_sum   'Li14 V6 P16 O58'
_cell_volume   1173.15179269
_cell_formula_units_Z   2
loop_
 _symmetry_equiv_pos_site_id
 _symmetry_equiv_pos_as_xyz
  1  'x, y, z'
loop_
 _atom_site_type_symbol
 _atom_site_label
 _atom_site_symmetry_multiplicity
 _atom_site_fract_x
 _atom_site_fract_y
 _atom_site_fract_z
 _atom_site_occupancy
  Li  Li0  1  0.90882600  0.68730100  0.06317800  1
  Li  Li1  1  0.75968100  0.65786400  0.55998600  1
  Li  Li2  1  0.90452200  0.22911400  0.55635800  1
  Li  Li3  1  0.66880600  0.33299200  0.88554400  1
  Li  Li4  1  0.77417700  0.08251800  0.06259800  1
  Li  Li5  1  0.31670600  0.22391300  0.06269700  1
  Li  Li6  1  0.67843200  0.90971600  0.43581200  1
  Li  Li7  1  0.33123900  0.09430400  0.55978900  1
  Li  Li8  1  0.21904000  0.91094900  0.93929400  1
  Li  Li9  1  0.33143300  0.67603200  0.61445100  1
  Li  Li10  1  0.33621900  0.66570800  0.11563700  1
  Li  Li11  1  0.23201400  0.32105400  0.43444900  1
  Li  Li12  1  0.08060900  0.30421300  0.94024200  1
  Li  Li13  1  0.01113700  0.93590300  0.48546500  1
  V  V0  1  0.56456600  0.99762300  0.25267800  1
  V  V1  1  0.43364000  0.00258700  0.75058600  1
  V  V2  1  0.56812800  0.56969200  0.75256800  1
  V  V3  1  0.43909000  0.43676600  0.25021000  1
  V  V4  1  0.00355100  0.56889600  0.25365500  1
  V  V5  1  0.99617600  0.43435600  0.74681800  1
  P  P0  1  0.90888200  0.67787400  0.84504000  1
  P  P1  1  0.77317300  0.68865300  0.34238000  1
  P  P2  1  0.91455800  0.23162800  0.34331200  1
  P  P3  1  0.67357900  0.33487300  0.12762800  1
  P  P4  1  0.66629600  0.33699700  0.62425600  1
  P  P5  1  0.76937600  0.09381400  0.84344600  1
  P  P6  1  0.68101800  0.90939600  0.65803600  1
  P  P7  1  0.32222700  0.23541700  0.84325000  1
  P  P8  1  0.68312800  0.77303100  0.15838100  1
  P  P9  1  0.31261300  0.08632200  0.34339500  1
  P  P10  1  0.22818200  0.90668100  0.15754900  1
  P  P11  1  0.33448800  0.66460300  0.37409300  1
  P  P12  1  0.32730500  0.66237900  0.87324400  1
  P  P13  1  0.08494900  0.77580600  0.65939300  1
  P  P14  1  0.23044500  0.31981500  0.65581400  1
  P  P15  1  0.09097400  0.32265300  0.15850300  1
  O  O0  1  0.98242500  0.77705900  0.58011400  1
  O  O1  1  0.91481600  0.66639000  0.33554000  1
  O  O2  1  0.76880500  0.75674300  0.07611000  1
  O  O3  1  0.74785000  0.66484400  0.83964600  1
  O  O4  1  0.88502800  0.51119000  0.82496700  1
  O  O5  1  0.82235000  0.48429600  0.17026900  1
  O  O6  1  0.90821000  0.38308900  0.33074600  1
  O  O7  1  0.99760200  0.24630300  0.06849900  1
  O  O8  1  0.92381400  0.25432300  0.83749000  1
  O  O9  1  0.66764900  0.48675800  0.66994200  1
  O  O10  1  0.61774000  0.53236000  0.33135900  1
  O  O11  1  0.81506000  0.33326500  0.66777000  1
  O  O12  1  0.68034100  0.34082000  0.01970300  1
  O  O13  1  0.68331000  0.35446900  0.51813000  1
  O  O14  1  0.67085300  0.18781600  0.16550600  1
  O  O15  1  0.49027100  0.37413500  0.82605400  1
  O  O16  1  0.52488800  0.34350200  0.16415100  1
  O  O17  1  0.75260600  0.08414900  0.34500400  1
  O  O18  1  0.78178500  0.99862700  0.75152200  1
  O  O19  1  0.76681000  0.00109600  0.56956900  1
  O  O20  1  0.75808600  0.00967400  0.93352700  1
  O  O21  1  0.63131000  0.12439000  0.82463100  1
  O  O22  1  0.51524400  0.18963500  0.65872700  1
  O  O23  1  0.66514900  0.91848700  0.15490000  1
  O  O24  1  0.47049400  0.09342600  0.33470000  1
  O  O25  1  0.33226200  0.25233800  0.33587100  1
  O  O26  1  0.78004900  0.79831000  0.25727900  1
  O  O27  1  0.77865800  0.77426200  0.43571900  1
  O  O28  1  0.23488900  0.23023100  0.56889800  1
  O  O29  1  0.66934200  0.74734800  0.65841000  1
  O  O30  1  0.51504800  0.88603600  0.66923000  1
  O  O31  1  0.32708500  0.08292300  0.84432200  1
  O  O32  1  0.48873500  0.80620200  0.33927000  1
  O  O33  1  0.36694600  0.87724100  0.17192900  1
  O  O34  1  0.24559500  0.00195300  0.06946900  1
  O  O35  1  0.22093500  0.00917100  0.43301900  1
  O  O36  1  0.20814800  0.99642000  0.24961400  1
  O  O37  1  0.24996300  0.91860600  0.65592100  1
  O  O38  1  0.46970600  0.65248900  0.82631100  1
  O  O39  1  0.51522600  0.62694300  0.17585600  1
  O  O40  1  0.33396000  0.81493200  0.84120200  1
  O  O41  1  0.32169300  0.64213100  0.97960600  1
  O  O42  1  0.32484000  0.66175700  0.48180900  1
  O  O43  1  0.18864700  0.66745800  0.32794300  1
  O  O44  1  0.37802100  0.48381900  0.66631200  1
  O  O45  1  0.32790800  0.51007100  0.33546300  1
  O  O46  1  0.07650600  0.74614600  0.15649500  1
  O  O47  1  0.01320000  0.79131700  0.76030400  1
  O  O48  1  0.99883100  0.74687900  0.93634200  1
  O  O49  1  0.09798500  0.62502900  0.66568800  1
  O  O50  1  0.17700900  0.51972500  0.82605500  1
  O  O51  1  0.11648800  0.48864300  0.17400100  1
  O  O52  1  0.25386100  0.33401100  0.15784700  1
  O  O53  1  0.24839100  0.25687700  0.93249800  1
  O  O54  1  0.21611300  0.22280500  0.75153600  1
  O  O55  1  0.08186300  0.33556100  0.65456000  1
  O  O56  1  0.00788900  0.23570500  0.43069800  1
  O  O57  1  0.00028400  0.21411000  0.24815900  1
loop_
_geom_bond_atom_site_label_1
_geom_bond_atom_site_label_2
_geom_bond_distance
_geom_bond_site_symmetry_2
Li0 O2 1.827070 1_555
Li0 O48 1.934202 1_554
Li0 O46 1.946498 1_655
Li0 O5 2.304074 1_555
Li1 O0 1.922391 1_555
Li1 O27 2.040896 1_555
Li1 O29 2.051397 1_555
Li1 O9 2.128406 1_555
Li2 O19 1.976673 1_555
Li2 O56 2.007434 1_655
Li2 O55 2.044257 1_655
Li2 O11 2.260801 1_555
Li3 O12 1.870320 1_556
Li3 O21 2.077517 1_555
Li3 O4 2.150126 1_555
Li3 O15 2.158027 1_555
Li4 O20 1.907913 1_554
Li4 O23 1.929540 1_545
Li4 O7 1.978281 1_555
Li4 O14 2.278681 1_555
Li5 O34 1.943752 1_555
Li5 O52 1.990975 1_555
Li5 O53 2.018679 1_554
Li5 O16 2.271886 1_555
Li6 O17 1.968903 1_565
Li6 O27 2.018503 1_555
Li6 O19 2.058521 1_565
Li6 O32 2.103151 1_555
Li7 O28 1.994960 1_555
Li7 O35 2.018815 1_555
Li7 O37 2.022754 1_545
Li7 O22 2.086443 1_555
Li8 O48 1.955790 1_455
Li8 O34 1.975873 1_566
Li8 O31 1.998656 1_565
Li8 O40 2.255025 1_555
Li9 O42 1.849975 1_555
Li9 O30 2.096717 1_555
Li9 O49 2.210522 1_555
Li9 O44 2.285138 1_555
Li10 O41 1.903474 1_554
Li10 O33 2.101360 1_555
Li10 O39 2.152289 1_555
Li10 O51 2.154903 1_555
Li11 O56 1.930021 1_555
Li11 O25 1.991176 1_555
Li11 O28 2.088211 1_555
Li11 O45 2.134224 1_555
Li12 O53 1.929224 1_555
Li12 O7 1.931037 1_456
Li12 O8 1.977223 1_455
Li12 O50 2.448050 1_555
Li13 O35 1.957965 1_565
Li13 O0 1.966162 1_455
Li13 O27 2.147743 1_455
O0 P13 1.500834 1_655
O1 P1 1.517798 1_555
O1 V4 1.950800 1_655
O2 P8 1.475679 1_555
O3 P0 1.526320 1_555
O3 V2 1.953265 1_555
O4 P0 1.565488 1_555
O4 V5 1.940348 1_555
O5 P3 1.584725 1_555
O5 V4 1.932258 1_655
O6 P2 1.538906 1_555
O6 V4 1.926512 1_655
O7 P15 1.510875 1_655
O8 P5 1.559352 1_555
O8 V5 2.008009 1_555
O9 P4 1.599286 1_555
O9 V2 1.932139 1_555
O10 P1 1.546415 1_555
O10 V3 1.896236 1_555
O11 P4 1.602404 1_555
O11 V5 1.897916 1_555
O12 P3 1.504394 1_555
O13 P4 1.488503 1_555
O14 P3 1.536307 1_555
O14 V0 2.041805 1_545
O15 P7 1.554367 1_555
O15 V2 1.979203 1_555
O16 P3 1.589651 1_555
O16 V3 1.936567 1_555
O17 P2 1.533094 1_555
O17 V0 2.054952 1_545
O18 P6 1.603363 1_555
O18 P5 1.622333 1_565
O19 P6 1.517329 1_545
O20 P5 1.483013 1_555
O21 P5 1.554254 1_555
O21 V1 1.987671 1_555
O22 P4 1.552940 1_555
O22 V1 2.061066 1_555
O23 P8 1.533143 1_555
O23 V0 2.047596 1_555
O24 P9 1.524296 1_555
O24 V0 1.976751 1_545
O25 P9 1.556479 1_555
O25 V3 1.991722 1_555
O26 P1 1.589778 1_555
O26 P8 1.621735 1_555
O27 P1 1.531221 1_555
O28 P14 1.506988 1_555
O29 P6 1.546177 1_555
O29 V2 2.019718 1_555
O30 P6 1.539047 1_555
O30 V1 2.035689 1_565
O31 P7 1.530301 1_555
O31 V1 2.058985 1_555
O32 P11 1.545465 1_555
O32 V0 2.051994 1_555
O33 P10 1.544489 1_555
O33 V0 2.035545 1_555
O34 P10 1.508257 1_545
O35 P9 1.509252 1_555
O36 P10 1.619585 1_555
O36 P9 1.621098 1_565
O37 P13 1.532327 1_555
O37 V1 2.046984 1_565
O38 P12 1.591131 1_555
O38 V2 1.852695 1_555
O39 P8 1.581303 1_555
O39 V3 1.945725 1_555
O40 P12 1.544133 1_555
O40 V1 2.051695 1_565
O41 P12 1.493164 1_555
O42 P11 1.502259 1_555
O43 P11 1.586262 1_555
O43 V4 1.886781 1_555
O44 P14 1.551839 1_555
O44 V2 2.018129 1_555
O45 P11 1.584646 1_555
O45 V3 1.974969 1_555
O46 P10 1.544190 1_555
O46 V4 2.047123 1_555
O47 P0 1.603652 1_455
O47 P13 1.611541 1_555
O48 P0 1.501273 1_555
O49 P13 1.559747 1_555
O49 V5 1.993796 1_455
O50 P12 1.586786 1_555
O50 V5 1.895381 1_455
O51 P15 1.543099 1_555
O51 V4 1.987927 1_555
O52 P15 1.549840 1_555
O52 V3 2.037549 1_555
O53 P7 1.504368 1_555
O54 P14 1.611893 1_555
O54 P7 1.615188 1_555
O55 P14 1.545286 1_555
O55 V5 2.026980 1_455
O56 P2 1.513759 1_455
O57 P15 1.602442 1_555
O57 P2 1.623175 1_455
