# generated using pymatgen
data_H3SNO3
_symmetry_space_group_name_H-M   'P 1'
_cell_length_a   8.26739900
_cell_length_b   8.35655000
_cell_length_c   9.55817500
_cell_angle_alpha   90.00000000
_cell_angle_beta   90.00000000
_cell_angle_gamma   90.00000000
_symmetry_Int_Tables_number   1
_chemical_formula_structural   H3SNO3
_chemical_formula_sum   'H24 S8 N8 O24'
_cell_volume   660.34499691
_cell_formula_units_Z   8
loop_
 _symmetry_equiv_pos_site_id
 _symmetry_equiv_pos_as_xyz
  1  'x, y, z'
loop_
 _atom_site_type_symbol
 _atom_site_label
 _atom_site_symmetry_multiplicity
 _atom_site_fract_x
 _atom_site_fract_y
 _atom_site_fract_z
 _atom_site_occupancy
  H  H0  1  0.98626400  0.37644800  0.40937900  1
  H  H1  1  0.98626400  0.12355200  0.90937900  1
  H  H2  1  0.08632700  0.72595500  0.38728900  1
  H  H3  1  0.08632700  0.77404500  0.88728900  1
  H  H4  1  0.07446000  0.31423300  0.03707700  1
  H  H5  1  0.07446000  0.18576700  0.53707700  1
  H  H6  1  0.42554000  0.81423300  0.03707700  1
  H  H7  1  0.42554000  0.68576700  0.53707700  1
  H  H8  1  0.41367300  0.22595500  0.38728900  1
  H  H9  1  0.41367300  0.27404500  0.88728900  1
  H  H10  1  0.51373600  0.87644800  0.40937900  1
  H  H11  1  0.51373600  0.62355200  0.90937900  1
  H  H12  1  0.48626400  0.12355200  0.59062100  1
  H  H13  1  0.48626400  0.37644800  0.09062100  1
  H  H14  1  0.58632700  0.72595500  0.11271100  1
  H  H15  1  0.58632700  0.77404500  0.61271100  1
  H  H16  1  0.57446000  0.31423300  0.46292300  1
  H  H17  1  0.57446000  0.18576700  0.96292300  1
  H  H18  1  0.92554000  0.81423300  0.46292300  1
  H  H19  1  0.92554000  0.68576700  0.96292300  1
  H  H20  1  0.91367300  0.22595500  0.11271100  1
  H  H21  1  0.91367300  0.27404500  0.61271100  1
  H  H22  1  0.01373600  0.62355200  0.59062100  1
  H  H23  1  0.01373600  0.87644800  0.09062100  1
  S  S0  1  0.14470600  0.09098800  0.15540600  1
  S  S1  1  0.14470600  0.40901200  0.65540600  1
  S  S2  1  0.35529400  0.59098800  0.15540600  1
  S  S3  1  0.35529400  0.90901200  0.65540600  1
  S  S4  1  0.64470600  0.09098800  0.34459400  1
  S  S5  1  0.64470600  0.40901200  0.84459400  1
  S  S6  1  0.85529400  0.59098800  0.34459400  1
  S  S7  1  0.85529400  0.90901200  0.84459400  1
  N  N0  1  0.01923700  0.20619800  0.05762600  1
  N  N1  1  0.01923700  0.29380200  0.55762600  1
  N  N2  1  0.48076300  0.70619800  0.05762600  1
  N  N3  1  0.48076300  0.79380200  0.55762600  1
  N  N4  1  0.51923700  0.20619800  0.44237400  1
  N  N5  1  0.51923700  0.29380200  0.94237400  1
  N  N6  1  0.98076300  0.70619800  0.44237400  1
  N  N7  1  0.98076300  0.79380200  0.94237400  1
  O  O0  1  0.03435400  0.94471100  0.18277400  1
  O  O1  1  0.03435400  0.55528900  0.68277400  1
  O  O2  1  0.22213100  0.55038400  0.06441600  1
  O  O3  1  0.22213100  0.94961600  0.56441600  1
  O  O4  1  0.17872700  0.16525600  0.28793300  1
  O  O5  1  0.17872700  0.33474400  0.78793300  1
  O  O6  1  0.32127300  0.66525600  0.28793300  1
  O  O7  1  0.32127300  0.83474400  0.78793300  1
  O  O8  1  0.27786900  0.05038400  0.06441600  1
  O  O9  1  0.27786900  0.44961600  0.56441600  1
  O  O10  1  0.46564600  0.05528900  0.68277400  1
  O  O11  1  0.46564600  0.44471100  0.18277400  1
  O  O12  1  0.53435400  0.55528900  0.81722600  1
  O  O13  1  0.53435400  0.94471100  0.31722600  1
  O  O14  1  0.72213100  0.55038400  0.43558400  1
  O  O15  1  0.72213100  0.94961600  0.93558400  1
  O  O16  1  0.67872700  0.16525600  0.21206700  1
  O  O17  1  0.67872700  0.33474400  0.71206700  1
  O  O18  1  0.82127300  0.66525600  0.21206700  1
  O  O19  1  0.82127300  0.83474400  0.71206700  1
  O  O20  1  0.77786900  0.05038400  0.43558400  1
  O  O21  1  0.77786900  0.44961600  0.93558400  1
  O  O22  1  0.96564600  0.44471100  0.31722600  1
  O  O23  1  0.96564600  0.05528900  0.81722600  1
loop_
_geom_bond_atom_site_label_1
_geom_bond_atom_site_label_2
_geom_bond_distance
_geom_bond_site_symmetry_2
H0 O22 1.063153 1_555
H0 N1 1.599717 1_655
H1 O23 1.063153 1_555
H1 N0 1.599717 1_656
H2 N6 1.032544 1_455
H3 N7 1.032544 1_455
H4 N0 1.030565 1_555
H5 N1 1.030565 1_555
H6 N2 1.030565 1_555
H7 N3 1.030565 1_555
H8 N4 1.032544 1_555
H9 N5 1.032544 1_555
H10 O13 1.063153 1_555
H10 N3 1.599717 1_555
H11 O12 1.063153 1_555
H11 N2 1.599717 1_556
H12 O10 1.063153 1_555
H12 N4 1.599717 1_555
H13 O11 1.063153 1_555
H13 N5 1.599717 1_554
H14 N2 1.032544 1_555
H15 N3 1.032544 1_555
H16 N4 1.030565 1_555
H17 N5 1.030565 1_555
H18 N6 1.030565 1_555
H19 N7 1.030565 1_555
H20 N0 1.032544 1_655
H21 N1 1.032544 1_655
H22 O1 1.063153 1_555
H22 N6 1.599717 1_455
H23 O0 1.063153 1_555
H23 N7 1.599717 1_454
N0 S0 1.695987 1_555
N1 S1 1.695987 1_555
N2 S2 1.695987 1_555
N3 S3 1.695987 1_555
N4 S4 1.695987 1_555
N5 S5 1.695987 1_555
N6 S6 1.695987 1_555
N7 S7 1.695987 1_555
O0 S0 1.547564 1_565
O1 S1 1.547564 1_555
O2 S2 1.443438 1_555
O3 S3 1.443438 1_555
O4 S0 1.438351 1_555
O5 S1 1.438351 1_555
O6 S2 1.438351 1_555
O7 S3 1.438351 1_555
O8 S0 1.443438 1_555
O9 S1 1.443438 1_555
O10 S3 1.547564 1_545
O11 S2 1.547564 1_555
O12 S5 1.547564 1_555
O13 S4 1.547564 1_565
O14 S6 1.443438 1_555
O15 S7 1.443438 1_555
O16 S4 1.438351 1_555
O17 S5 1.438351 1_555
O18 S6 1.438351 1_555
O19 S7 1.438351 1_555
O20 S4 1.443438 1_555
O21 S5 1.443438 1_555
O22 S6 1.547564 1_555
O23 S7 1.547564 1_545
