# generated using pymatgen
data_Fe10O9F11
_symmetry_space_group_name_H-M   'P 1'
_cell_length_a   4.75422975
_cell_length_b   4.75422975
_cell_length_c   15.53430141
_cell_angle_alpha   89.99088441
_cell_angle_beta   89.99088441
_cell_angle_gamma   91.94371099
_symmetry_Int_Tables_number   1
_chemical_formula_structural   Fe10O9F11
_chemical_formula_sum   'Fe10 O9 F11'
_cell_volume   350.91513143
_cell_formula_units_Z   1
loop_
 _symmetry_equiv_pos_site_id
 _symmetry_equiv_pos_as_xyz
  1  'x, y, z'
loop_
 _atom_site_type_symbol
 _atom_site_label
 _atom_site_symmetry_multiplicity
 _atom_site_fract_x
 _atom_site_fract_y
 _atom_site_fract_z
 _atom_site_occupancy
  Fe  Fe0  1  0.00057700  0.99942300  0.00000000  1
  Fe  Fe1  1  0.97107600  0.98606800  0.20729900  1
  Fe  Fe2  1  0.95037000  0.00119300  0.40190400  1
  Fe  Fe3  1  0.99880700  0.04963000  0.59809600  1
  Fe  Fe4  1  0.01393200  0.02892400  0.79270100  1
  Fe  Fe5  1  0.50801300  0.51319700  0.09443100  1
  Fe  Fe6  1  0.51769900  0.48230100  0.50000000  1
  Fe  Fe7  1  0.54454200  0.49770000  0.29844800  1
  Fe  Fe8  1  0.50230000  0.45545800  0.70155200  1
  Fe  Fe9  1  0.48680300  0.49198700  0.90556900  1
  O  O0  1  0.79956800  0.18925200  0.30122800  1
  O  O1  1  0.80417000  0.19583000  0.50000000  1
  O  O2  1  0.81074800  0.20043200  0.69877200  1
  O  O3  1  0.29624200  0.29992500  0.00230600  1
  O  O4  1  0.31428600  0.31540400  0.59795100  1
  O  O5  1  0.31902800  0.31566300  0.80508900  1
  O  O6  1  0.70007500  0.70375800  0.99769400  1
  O  O7  1  0.68433700  0.68097200  0.19491100  1
  O  O8  1  0.68459600  0.68571400  0.40204900  1
  F  F0  1  0.80107100  0.19207800  0.09848700  1
  F  F1  1  0.80792200  0.19892900  0.90151300  1
  F  F2  1  0.29592400  0.29410200  0.19683000  1
  F  F3  1  0.29636700  0.29339000  0.39775300  1
  F  F4  1  0.70661000  0.70363300  0.60224700  1
  F  F5  1  0.70589800  0.70407600  0.80317000  1
  F  F6  1  0.18956700  0.80554800  0.09979100  1
  F  F7  1  0.19127000  0.80873000  0.50000000  1
  F  F8  1  0.19539700  0.79164400  0.30203700  1
  F  F9  1  0.19445200  0.81043300  0.90020900  1
  F  F10  1  0.20835600  0.80460300  0.69796300  1
loop_
_geom_bond_atom_site_label_1
_geom_bond_atom_site_label_2
_geom_bond_distance
_geom_bond_site_symmetry_2
Fe0 O6 1.970285 1_454
Fe0 O3 1.970285 1_565
Fe1 O0 1.944355 1_565
Fe1 O7 1.966059 1_555
Fe2 O1 1.924905 1_555
Fe2 O8 1.928104 1_545
Fe2 O0 1.950041 1_555
Fe3 O1 1.924905 1_555
Fe3 O4 1.928104 1_655
Fe3 O2 1.950041 1_555
Fe4 O2 1.944355 1_455
Fe4 O5 1.966059 1_555
Fe5 O7 1.931521 1_555
Fe5 O6 1.963617 1_554
Fe5 O3 2.005357 1_555
Fe6 O4 1.956318 1_555
Fe6 O8 1.956318 1_555
Fe6 O1 1.958478 1_555
Fe7 O0 1.934667 1_555
Fe7 O7 1.935901 1_555
Fe7 O8 1.947521 1_555
Fe8 O2 1.934667 1_555
Fe8 O5 1.935901 1_555
Fe8 O4 1.947521 1_555
Fe9 O5 1.931521 1_555
Fe9 O3 1.963617 1_556
Fe9 O6 2.005357 1_555
F0 Fe0 2.034247 1_645
F0 Fe5 2.102422 1_555
F0 Fe1 2.126805 1_545
F1 Fe0 2.034247 1_646
F1 Fe9 2.102422 1_555
F1 Fe4 2.126805 1_655
F2 Fe1 2.098262 1_445
F2 Fe5 2.135352 1_555
F2 Fe7 2.179302 1_555
F3 Fe6 2.091310 1_555
F3 Fe2 2.117720 1_455
F3 Fe7 2.153261 1_555
F4 Fe6 2.091310 1_555
F4 Fe3 2.117720 1_565
F4 Fe8 2.153261 1_555
F5 Fe4 2.098262 1_665
F5 Fe9 2.135352 1_555
F5 Fe8 2.179302 1_555
F6 Fe0 2.028823 1_555
F6 Fe5 2.091315 1_555
F6 Fe1 2.159876 1_455
F7 Fe3 2.131261 1_465
F7 Fe2 2.131261 1_465
F7 Fe6 2.231654 1_555
F8 Fe1 2.055375 1_455
F8 Fe2 2.198841 1_465
F8 Fe7 2.206518 1_555
F9 Fe0 2.028823 1_556
F9 Fe9 2.091315 1_555
F9 Fe4 2.159876 1_565
F10 Fe4 2.055375 1_565
F10 Fe3 2.198841 1_465
F10 Fe8 2.206518 1_555
