# generated using pymatgen
data_CsRb2SiF7
_symmetry_space_group_name_H-M   'P 1'
_cell_length_a   8.24068800
_cell_length_b   8.24068800
_cell_length_c   5.95924700
_cell_angle_alpha   90.00000000
_cell_angle_beta   90.00000000
_cell_angle_gamma   90.00000000
_symmetry_Int_Tables_number   1
_chemical_formula_structural   CsRb2SiF7
_chemical_formula_sum   'Cs2 Rb4 Si2 F14'
_cell_volume   404.68613930
_cell_formula_units_Z   2
loop_
 _symmetry_equiv_pos_site_id
 _symmetry_equiv_pos_as_xyz
  1  'x, y, z'
loop_
 _atom_site_type_symbol
 _atom_site_label
 _atom_site_symmetry_multiplicity
 _atom_site_fract_x
 _atom_site_fract_y
 _atom_site_fract_z
 _atom_site_occupancy
  Cs  Cs0  1  0.50000000  0.50000000  0.00000000  1
  Cs  Cs1  1  0.00000000  0.00000000  0.00000000  1
  Rb  Rb0  1  0.19569400  0.69569400  0.50000000  1
  Rb  Rb1  1  0.80430600  0.30430600  0.50000000  1
  Rb  Rb2  1  0.69569400  0.80430600  0.50000000  1
  Rb  Rb3  1  0.30430600  0.19569400  0.50000000  1
  Si  Si0  1  0.00000000  0.50000000  0.00000000  1
  Si  Si1  1  0.50000000  0.00000000  0.00000000  1
  F  F0  1  0.39612000  0.89612000  0.79367400  1
  F  F1  1  0.60388000  0.10388000  0.79367400  1
  F  F2  1  0.10388000  0.39612000  0.79367400  1
  F  F3  1  0.89612000  0.60388000  0.79367400  1
  F  F4  1  0.39612000  0.89612000  0.20632600  1
  F  F5  1  0.89612000  0.60388000  0.20632600  1
  F  F6  1  0.10388000  0.39612000  0.20632600  1
  F  F7  1  0.60388000  0.10388000  0.20632600  1
  F  F8  1  0.00000000  0.00000000  0.50000000  1
  F  F9  1  0.50000000  0.50000000  0.50000000  1
  F  F10  1  0.85273300  0.35273300  0.00000000  1
  F  F11  1  0.35273300  0.14726700  0.00000000  1
  F  F12  1  0.64726700  0.85273300  0.00000000  1
  F  F13  1  0.14726700  0.64726700  0.00000000  1
loop_
_geom_bond_atom_site_label_1
_geom_bond_atom_site_label_2
_geom_bond_distance
_geom_bond_site_symmetry_2
Cs0 F9 2.979624 1_555
Cs0 F9 2.979624 1_554
Cs0 F12 3.149928 1_555
Cs0 F13 3.149928 1_555
Cs0 F10 3.149928 1_555
Cs0 F11 3.149928 1_555
Cs1 F8 2.979624 1_554
Cs1 F8 2.979624 1_555
Cs1 F12 3.149928 1_445
Cs1 F13 3.149928 1_545
Cs1 F11 3.149928 1_555
Cs1 F10 3.149928 1_455
F0 Si1 1.725516 1_566
F0 Rb0 2.918672 1_555
F0 Rb3 3.119244 1_565
F0 Rb2 3.119244 1_555
F1 Si1 1.725516 1_556
F1 Rb1 2.918672 1_555
F1 Rb3 3.119244 1_555
F1 Rb2 3.119244 1_545
F2 Si0 1.725516 1_556
F2 Rb3 2.918672 1_555
F2 Rb1 3.119244 1_455
F2 Rb0 3.119244 1_555
F3 Si0 1.725516 1_656
F3 Rb2 2.918672 1_555
F3 Rb1 3.119244 1_555
F3 Rb0 3.119244 1_655
F4 Si1 1.725516 1_565
F4 Rb0 2.918672 1_555
F4 Rb3 3.119244 1_565
F4 Rb2 3.119244 1_555
F5 Si0 1.725516 1_655
F5 Rb2 2.918672 1_555
F5 Rb1 3.119244 1_555
F5 Rb0 3.119244 1_655
F6 Si0 1.725516 1_555
F6 Rb3 2.918672 1_555
F6 Rb1 3.119244 1_455
F6 Rb0 3.119244 1_555
F7 Si1 1.725516 1_555
F7 Rb1 2.918672 1_555
F7 Rb3 3.119244 1_555
F7 Rb2 3.119244 1_545
F8 Rb2 2.981470 1_445
F8 Rb0 2.981470 1_545
F8 Rb3 2.981470 1_555
F8 Rb1 2.981470 1_455
F9 Rb3 2.981470 1_555
F9 Rb1 2.981470 1_555
F9 Rb2 2.981470 1_555
F9 Rb0 2.981470 1_555
F10 Si0 1.716263 1_655
F10 Rb1 3.032602 1_555
F10 Rb1 3.032602 1_554
F11 Si1 1.716263 1_555
F11 Rb3 3.032602 1_555
F11 Rb3 3.032602 1_554
F12 Si1 1.716263 1_565
F12 Rb2 3.032602 1_554
F12 Rb2 3.032602 1_555
F13 Si0 1.716263 1_555
F13 Rb0 3.032602 1_554
F13 Rb0 3.032602 1_555
