# generated using pymatgen
data_LiV2(OF)3
_symmetry_space_group_name_H-M   'P 1'
_cell_length_a   5.11075200
_cell_length_b   5.14327966
_cell_length_c   13.50720523
_cell_angle_alpha   88.33578550
_cell_angle_beta   88.88282907
_cell_angle_gamma   61.43737372
_symmetry_Int_Tables_number   1
_chemical_formula_structural   LiV2(OF)3
_chemical_formula_sum   'Li3 V6 O9 F9'
_cell_volume   311.70141609
_cell_formula_units_Z   3
loop_
 _symmetry_equiv_pos_site_id
 _symmetry_equiv_pos_as_xyz
  1  'x, y, z'
loop_
 _atom_site_type_symbol
 _atom_site_label
 _atom_site_symmetry_multiplicity
 _atom_site_fract_x
 _atom_site_fract_y
 _atom_site_fract_z
 _atom_site_occupancy
  Li  Li0  1  0.68949400  0.65267100  0.37436100  1
  Li  Li1  1  0.33936400  0.32366300  0.03809200  1
  Li  Li2  1  0.02904300  0.98634600  0.70915400  1
  V  V0  1  0.68567400  0.67827800  0.66645300  1
  V  V1  1  0.97154300  0.02196300  0.48689000  1
  V  V2  1  0.98833600  0.98472500  0.00325600  1
  V  V3  1  0.62956300  0.67667700  0.15366300  1
  V  V4  1  0.40966500  0.31427200  0.82572200  1
  V  V5  1  0.34299200  0.32749200  0.33255100  1
  O  O0  1  0.91292100  0.75673200  0.59120600  1
  O  O1  1  0.70700800  0.95295500  0.08443900  1
  O  O2  1  0.65724600  0.27303800  0.91482400  1
  O  O3  1  0.56473600  0.41927300  0.25729200  1
  O  O4  1  0.40122000  0.60265900  0.74932700  1
  O  O5  1  0.68284100  0.03917000  0.41761400  1
  O  O6  1  0.34400400  0.69517200  0.08386800  1
  O  O7  1  0.62087100  0.00429100  0.75558100  1
  O  O8  1  0.06497500  0.28512900  0.41910200  1
  F  F0  1  0.96659100  0.60501400  0.25689200  1
  F  F1  1  0.96360200  0.33224800  0.08436900  1
  F  F2  1  0.73991600  0.32950500  0.58668200  1
  F  F3  1  0.39057900  0.98947900  0.25371200  1
  F  F4  1  0.31157600  0.94088500  0.59207200  1
  F  F5  1  0.30216200  0.67458900  0.42150100  1
  F  F6  1  0.08266500  0.64631500  0.91688800  1
  F  F7  1  0.26159300  0.09050200  0.91890400  1
  F  F8  1  0.01044700  0.36986400  0.75033100  1
loop_
_geom_bond_atom_site_label_1
_geom_bond_atom_site_label_2
_geom_bond_distance
_geom_bond_site_symmetry_2
Li0 O8 2.032548 1_655
Li0 O5 2.072719 1_565
Li0 O3 2.286807 1_555
Li1 O1 2.026935 1_545
Li1 O6 2.036283 1_555
Li1 O2 2.234864 1_554
Li2 O4 2.048285 1_555
Li2 O7 2.126425 1_465
Li2 O0 2.258620 1_455
O0 V0 1.709672 1_555
O0 V1 2.049081 1_565
O1 V2 1.857193 1_555
O1 V3 1.869841 1_555
O2 V4 1.697774 1_555
O2 V2 2.016304 1_546
O3 V5 1.726057 1_555
O3 V3 2.028660 1_555
O4 V4 1.765874 1_555
O4 V0 1.992411 1_555
O5 V1 1.727608 1_555
O5 V5 2.012919 1_555
O6 V3 1.715633 1_555
O6 V2 2.025338 1_455
O7 V4 1.734017 1_555
O7 V0 1.985255 1_545
O8 V1 1.851338 1_455
O8 V5 1.910377 1_555
F0 V5 2.036816 1_655
F0 Li0 2.046024 1_555
F0 V3 2.122175 1_555
F1 Li1 1.988570 1_655
F1 V3 2.017622 1_555
F1 V2 2.074477 1_545
F2 V1 1.997825 1_555
F2 V0 2.020091 1_555
F2 Li2 2.338156 1_645
F3 V5 1.977028 1_565
F3 V3 2.022192 1_555
F3 Li0 2.322258 1_555
F4 V0 2.003958 1_555
F4 Li2 2.061614 1_555
F4 V1 2.140386 1_465
F5 V1 1.993480 1_465
F5 Li0 2.019507 1_555
F5 V5 2.105385 1_555
F6 V2 1.979001 1_456
F6 V4 2.130391 1_555
F6 Li1 2.235920 1_556
F7 V2 2.042780 1_446
F7 V4 2.047681 1_555
F7 Li1 2.186490 1_556
F8 V0 2.001524 1_455
F8 Li2 2.022792 1_545
F8 V4 2.188112 1_555
