# generated using pymatgen
data_Zr2N2O
_symmetry_space_group_name_H-M   'P 1'
_cell_length_a   8.79147405
_cell_length_b   8.77964822
_cell_length_c   8.79460678
_cell_angle_alpha   109.67627088
_cell_angle_beta   109.39822088
_cell_angle_gamma   109.33976272
_symmetry_Int_Tables_number   1
_chemical_formula_structural   Zr2N2O
_chemical_formula_sum   'Zr16 N16 O8'
_cell_volume   522.54893036
_cell_formula_units_Z   8
loop_
 _symmetry_equiv_pos_site_id
 _symmetry_equiv_pos_as_xyz
  1  'x, y, z'
loop_
 _atom_site_type_symbol
 _atom_site_label
 _atom_site_symmetry_multiplicity
 _atom_site_fract_x
 _atom_site_fract_y
 _atom_site_fract_z
 _atom_site_occupancy
  Zr  Zr0  1  0.95989190  0.24497780  0.20974404  1
  Zr  Zr1  1  0.50709269  0.00674981  0.99635355  1
  Zr  Zr2  1  0.78872775  0.03319962  0.75811914  1
  Zr  Zr3  1  0.70491945  0.46272479  0.24002103  1
  Zr  Zr4  1  0.75070111  0.77743369  0.03044516  1
  Zr  Zr5  1  0.74782457  0.28305460  0.52806396  1
  Zr  Zr6  1  0.49985965  0.49898862  0.50167811  1
  Zr  Zr7  1  0.45921090  0.25193647  0.71384803  1
  Zr  Zr8  1  0.53176862  0.74238925  0.28912470  1
  Zr  Zr9  1  0.00830358  0.50621937  0.99668334  1
  Zr  Zr10  1  0.00434996  0.99505008  0.50650264  1
  Zr  Zr11  1  0.25653896  0.72396530  0.47020616  1
  Zr  Zr12  1  0.24595328  0.21814561  0.96035413  1
  Zr  Zr13  1  0.22050877  0.96274619  0.25526306  1
  Zr  Zr14  1  0.28459561  0.53799878  0.75276712  1
  Zr  Zr15  1  0.03824190  0.75181734  0.78738783  1
  N  N0  1  0.74037094  0.22969064  0.27454167  1
  N  N1  1  0.46938228  0.22814930  0.45246364  1
  N  N2  1  0.77268148  0.72864360  0.25835551  1
  N  N3  1  0.04307290  0.27437780  0.01407701  1
  N  N4  1  0.45749770  0.46597402  0.23076529  1
  N  N5  1  0.27207268  0.73694828  0.22232944  1
  N  N6  1  0.51517094  0.23844935  0.96492834  1
  N  N7  1  0.98440217  0.95025942  0.72359090  1
  N  N8  1  0.54074075  0.53518027  0.77146067  1
  N  N9  1  0.95920163  0.73314165  0.99234942  1
  N  N10  1  0.53146275  0.77250386  0.54476068  1
  N  N11  1  0.22396292  0.27120455  0.73740107  1
  N  N12  1  0.02761768  0.48497292  0.75805043  1
  N  N13  1  0.72830028  0.98720907  0.95865023  1
  N  N14  1  0.23387017  0.96447670  0.50597523  1
  N  N15  1  0.26267500  0.77154728  0.72926886  1
  O  O0  1  0.76101374  0.03580433  0.49177214  1
  O  O1  1  0.27281180  0.01094057  0.04255911  1
  O  O2  1  0.97101554  0.51207628  0.24442084  1
  O  O3  1  0.72657702  0.25775113  0.77108125  1
  O  O4  1  0.01631687  0.05453102  0.27904114  1
  O  O5  1  0.48390887  0.76085679  0.03448680  1
  O  O6  1  0.77098765  0.54670541  0.53700329  1
  O  O7  1  0.22639857  0.45121141  0.46410402  1
loop_
_geom_bond_atom_site_label_1
_geom_bond_atom_site_label_2
_geom_bond_distance
_geom_bond_site_symmetry_2
N0 Zr5 2.091460 1_555
N0 Zr0 2.162829 1_555
N0 Zr1 2.192328 1_554
N0 Zr3 2.270029 1_555
N1 Zr5 2.142009 1_555
N1 Zr13 2.146114 1_545
N1 Zr6 2.172857 1_555
N1 Zr7 2.271913 1_555
N2 Zr3 2.143146 1_555
N2 Zr4 2.148047 1_555
N2 Zr10 2.199188 1_655
N2 Zr8 2.258681 1_555
N3 Zr0 2.138366 1_455
N3 Zr12 2.152719 1_554
N3 Zr9 2.202446 1_554
N3 Zr2 2.204868 1_454
N4 Zr8 2.113844 1_555
N4 Zr3 2.159627 1_555
N4 Zr12 2.178534 1_554
N4 Zr6 2.184808 1_555
N5 Zr13 2.124898 1_555
N5 Zr9 2.131619 1_554
N5 Zr8 2.139608 1_555
N5 Zr11 2.266876 1_555
N6 Zr3 2.109189 1_556
N6 Zr1 2.124972 1_555
N6 Zr7 2.150590 1_555
N6 Zr12 2.299502 1_555
N7 Zr10 2.124331 1_655
N7 Zr15 2.145309 1_655
N7 Zr2 2.146991 1_565
N7 Zr12 2.257065 1_665
N8 Zr4 2.112669 1_556
N8 Zr7 2.164310 1_555
N8 Zr6 2.170196 1_555
N8 Zr14 2.211875 1_555
N9 Zr4 2.101377 1_556
N9 Zr15 2.171302 1_655
N9 Zr9 2.183321 1_655
N9 Zr13 2.225524 1_656
N10 Zr11 2.128441 1_555
N10 Zr8 2.174533 1_555
N10 Zr2 2.176025 1_565
N10 Zr6 2.205170 1_555
N11 Zr12 2.126500 1_555
N11 Zr14 2.168190 1_555
N11 Zr10 2.170106 1_545
N11 Zr7 2.200360 1_555
N12 Zr9 2.112383 1_555
N12 Zr5 2.162549 1_455
N12 Zr14 2.170395 1_555
N12 Zr15 2.235175 1_555
N13 Zr2 2.124931 1_565
N13 Zr1 2.128949 1_565
N13 Zr0 2.177075 1_566
N13 Zr4 2.184093 1_556
N14 Zr11 2.114381 1_555
N14 Zr10 2.123157 1_555
N14 Zr13 2.163306 1_555
N14 Zr7 2.193619 1_565
N15 Zr11 2.151933 1_555
N15 Zr15 2.165074 1_555
N15 Zr14 2.192012 1_555
N15 Zr1 2.200182 1_565
O0 Zr5 2.133609 1_555
O0 Zr8 2.226634 1_545
O0 Zr10 2.252877 1_645
O0 Zr2 2.281985 1_555
O1 Zr15 2.201124 1_544
O1 Zr13 2.205748 1_545
O1 Zr12 2.223658 1_554
O1 Zr1 2.237149 1_554
O2 Zr11 2.193904 1_655
O2 Zr3 2.217913 1_555
O2 Zr0 2.224508 1_555
O2 Zr9 2.295046 1_654
O3 Zr2 2.191301 1_555
O3 Zr7 2.213214 1_555
O3 Zr9 2.252170 1_655
O3 Zr5 2.282431 1_555
O4 Zr0 2.109035 1_455
O4 Zr13 2.238232 1_545
O4 Zr10 2.256640 1_545
O4 Zr4 2.327150 1_445
O5 Zr14 2.148984 1_554
O5 Zr8 2.209572 1_555
O5 Zr1 2.248596 1_564
O5 Zr4 2.314426 1_555
O6 Zr15 2.168576 1_655
O6 Zr6 2.170875 1_555
O6 Zr5 2.227191 1_555
O6 Zr3 2.261531 1_555
O7 Zr0 2.180177 1_455
O7 Zr6 2.185400 1_555
O7 Zr14 2.205358 1_555
O7 Zr11 2.300290 1_555
