# generated using pymatgen
data_Zn(CuO2)2
_symmetry_space_group_name_H-M   'P 1'
_cell_length_a   6.15748439
_cell_length_b   6.15748439
_cell_length_c   6.15748439
_cell_angle_alpha   127.40703594
_cell_angle_beta   127.40703594
_cell_angle_gamma   77.58759503
_symmetry_Int_Tables_number   1
_chemical_formula_structural   Zn(CuO2)2
_chemical_formula_sum   'Zn2 Cu4 O8'
_cell_volume   142.84751414
_cell_formula_units_Z   2
loop_
 _symmetry_equiv_pos_site_id
 _symmetry_equiv_pos_as_xyz
  1  'x, y, z'
loop_
 _atom_site_type_symbol
 _atom_site_label
 _atom_site_symmetry_multiplicity
 _atom_site_fract_x
 _atom_site_fract_y
 _atom_site_fract_z
 _atom_site_occupancy
  Zn  Zn0  1  0.25000000  0.75000000  0.50000000  1
  Zn  Zn1  1  0.50000000  0.50000000  0.00000000  1
  Cu  Cu0  1  0.87500000  0.62500000  0.75000000  1
  Cu  Cu1  1  0.87500000  0.12500000  0.75000000  1
  Cu  Cu2  1  0.37500000  0.12500000  0.25000000  1
  Cu  Cu3  1  0.87500000  0.12500000  0.25000000  1
  O  O0  1  0.65564100  0.12211000  0.87291500  1
  O  O1  1  0.50080500  0.46727400  0.37291500  1
  O  O2  1  0.87211000  0.49919500  0.96646900  1
  O  O3  1  0.21727400  0.34435900  0.46646900  1
  O  O4  1  0.53272600  0.90564100  0.03353100  1
  O  O5  1  0.87789000  0.75080500  0.53353100  1
  O  O6  1  0.24919500  0.78272600  0.12708500  1
  O  O7  1  0.09435900  0.12789000  0.62708500  1
loop_
_geom_bond_atom_site_label_1
_geom_bond_atom_site_label_2
_geom_bond_distance
_geom_bond_site_symmetry_2
Cu0 O1 1.834595 1_555
Cu0 O6 1.834595 1_656
Cu0 O5 1.914740 1_555
Cu0 O2 1.914740 1_555
Cu1 O2 1.834595 1_555
Cu1 O5 1.834595 1_545
Cu1 O0 1.914740 1_555
Cu1 O7 1.914740 1_655
Cu2 O3 1.834595 1_555
Cu2 O4 1.834595 1_545
Cu2 O6 1.914740 1_545
Cu2 O1 1.914740 1_555
Cu3 O0 1.834595 1_554
Cu3 O7 1.834595 1_655
Cu3 O3 1.914740 1_655
Cu3 O4 1.914740 1_545
O0 Zn1 2.164561 1_556
O0 Zn0 2.420983 1_545
O1 Zn0 2.164561 1_555
O1 Zn1 2.420983 1_555
O2 Zn0 2.164561 1_656
O2 Zn1 2.420983 1_556
O3 Zn1 2.164561 1_556
O3 Zn0 2.420983 1_555
O4 Zn0 2.164561 1_554
O4 Zn1 2.420983 1_555
O5 Zn1 2.164561 1_555
O5 Zn0 2.420983 1_655
O6 Zn1 2.164561 1_555
O6 Zn0 2.420983 1_555
O7 Zn0 2.164561 1_545
O7 Zn1 2.420983 1_556
