# generated using pymatgen
data_Li2Mn2OF6
_symmetry_space_group_name_H-M   'P 1'
_cell_length_a   5.20211163
_cell_length_b   6.69657950
_cell_length_c   8.24715202
_cell_angle_alpha   69.07293424
_cell_angle_beta   76.23979237
_cell_angle_gamma   83.60484333
_symmetry_Int_Tables_number   1
_chemical_formula_structural   Li2Mn2OF6
_chemical_formula_sum   'Li4 Mn4 O2 F12'
_cell_volume   260.53685973
_cell_formula_units_Z   2
loop_
 _symmetry_equiv_pos_site_id
 _symmetry_equiv_pos_as_xyz
  1  'x, y, z'
loop_
 _atom_site_type_symbol
 _atom_site_label
 _atom_site_symmetry_multiplicity
 _atom_site_fract_x
 _atom_site_fract_y
 _atom_site_fract_z
 _atom_site_occupancy
  Li  Li0  1  0.34115467  0.76618299  0.89818345  1
  Li  Li1  1  0.87461786  0.98220915  0.74027215  1
  Li  Li2  1  0.11229255  0.00546943  0.27648123  1
  Li  Li3  1  0.66451063  0.24765752  0.08076568  1
  Mn  Mn0  1  0.26371952  0.29551718  0.82433500  1
  Mn  Mn1  1  0.81721492  0.51999218  0.66105962  1
  Mn  Mn2  1  0.18644147  0.47412071  0.32910181  1
  Mn  Mn3  1  0.72751888  0.71043180  0.19416896  1
  O  O0  1  0.92693701  0.39719544  0.87331442  1
  O  O1  1  0.83996505  0.56967566  0.40691000  1
  F  F0  1  0.64483617  0.82138242  0.96872869  1
  F  F1  1  0.44022064  0.58689177  0.77267818  1
  F  F2  1  0.92020789  0.79529633  0.61273072  1
  F  F3  1  0.64687841  0.24143241  0.72275051  1
  F  F4  1  0.16736861  0.01509870  0.81516221  1
  F  F5  1  0.23554556  0.41092538  0.57777184  1
  F  F6  1  0.81323856  0.98551124  0.19324101  1
  F  F7  1  0.32600653  0.74869536  0.29050712  1
  F  F8  1  0.08911628  0.19866320  0.39079621  1
  F  F9  1  0.54943270  0.42588111  0.22421688  1
  F  F10  1  0.08270176  0.61330986  0.08673926  1
  F  F11  1  0.33007333  0.18845716  0.06008505  1
loop_
_geom_bond_atom_site_label_1
_geom_bond_atom_site_label_2
_geom_bond_distance
_geom_bond_site_symmetry_2
Li3 O0 1.939883 1_554
Mn0 O0 1.813916 1_455
Mn1 O0 1.846269 1_555
Mn1 O1 1.977514 1_555
Mn2 O1 1.885761 1_455
Mn3 O1 1.868946 1_555
F0 Mn3 1.875165 1_556
F0 Li0 1.921407 1_555
F0 Li1 1.975978 1_555
F1 Li0 1.809594 1_555
F1 Mn1 2.033301 1_555
F1 Mn0 2.109736 1_555
F2 Mn1 1.854267 1_555
F2 Li1 1.866827 1_555
F3 Li1 1.970265 1_545
F3 Mn1 1.999884 1_555
F3 Mn0 2.016824 1_555
F4 Li0 1.791112 1_545
F4 Li1 1.835381 1_445
F4 Mn0 2.027917 1_555
F5 Mn0 1.935864 1_555
F5 Mn2 2.013791 1_555
F5 Mn1 2.243728 1_455
F6 Li3 1.848342 1_565
F6 Li2 1.878644 1_665
F6 Mn3 1.939975 1_555
F7 Li2 1.923365 1_565
F7 Mn2 1.943879 1_555
F7 Mn3 2.072769 1_555
F8 Mn2 1.825621 1_555
F8 Li2 1.832920 1_555
F9 Li3 1.922239 1_555
F9 Mn2 1.924844 1_555
F9 Mn3 2.120704 1_555
F10 Li0 1.857058 1_554
F10 Mn3 1.996782 1_455
F10 Mn2 2.055586 1_555
F11 Li3 1.885789 1_555
F11 Mn0 1.918775 1_554
F11 Li2 1.937853 1_555
