# generated using pymatgen
data_Li6(NiO2)11
_symmetry_space_group_name_H-M   'P 1'
_cell_length_a   7.46183800
_cell_length_b   7.64020882
_cell_length_c   7.70542757
_cell_angle_alpha   84.90396517
_cell_angle_beta   110.68524111
_cell_angle_gamma   114.10816644
_symmetry_Int_Tables_number   1
_chemical_formula_structural   Li6(NiO2)11
_chemical_formula_sum   'Li6 Ni11 O22'
_cell_volume   374.32969678
_cell_formula_units_Z   1
loop_
 _symmetry_equiv_pos_site_id
 _symmetry_equiv_pos_as_xyz
  1  'x, y, z'
loop_
 _atom_site_type_symbol
 _atom_site_label
 _atom_site_symmetry_multiplicity
 _atom_site_fract_x
 _atom_site_fract_y
 _atom_site_fract_z
 _atom_site_occupancy
  Li  Li0  1  0.81927000  0.45670400  0.54365300  1
  Li  Li1  1  0.63527000  0.89359200  0.10691500  1
  Li  Li2  1  0.45237800  0.36088800  0.63066500  1
  Li  Li3  1  0.36171600  0.09156600  0.90916300  1
  Li  Li4  1  0.18440000  0.56162700  0.43837700  1
  Li  Li5  1  0.00092000  0.00308900  0.00299000  1
  Ni  Ni0  1  0.77437300  0.31871500  0.18121900  1
  Ni  Ni1  1  0.68515100  0.04902000  0.45729400  1
  Ni  Ni2  1  0.94921700  0.85975800  0.63223900  1
  Ni  Ni3  1  0.50029500  0.50080500  0.00143600  1
  Ni  Ni4  1  0.86326600  0.59280200  0.91236400  1
  Ni  Ni5  1  0.41103700  0.22565800  0.27199400  1
  Ni  Ni6  1  0.58775400  0.77186000  0.72830400  1
  Ni  Ni7  1  0.13506300  0.40560700  0.08493400  1
  Ni  Ni8  1  0.05158300  0.14188300  0.36718100  1
  Ni  Ni9  1  0.31844100  0.95433800  0.54452500  1
  Ni  Ni10  1  0.22513800  0.68088200  0.81702900  1
  O  O0  1  0.89357700  0.16583700  0.12183300  1
  O  O1  1  0.92994800  0.29480000  0.42567700  1
  O  O2  1  0.82040300  0.98873500  0.71119200  1
  O  O3  1  0.98548000  0.46572200  0.82446500  1
  O  O4  1  0.54479000  0.09565100  0.19745800  1
  O  O5  1  0.64609000  0.44554100  0.26227300  1
  O  O6  1  0.81874300  0.92207600  0.38458000  1
  O  O7  1  0.55687500  0.19021000  0.51944600  1
  O  O8  1  0.70475400  0.61844800  0.66670500  1
  O  O9  1  0.27289000  0.25264200  0.02408900  1
  O  O10  1  0.63178400  0.36688600  0.93260100  1
  O  O11  1  0.37744900  0.64340100  0.05879500  1
  O  O12  1  0.73862100  0.73944100  0.97505100  1
  O  O13  1  0.28554000  0.35689200  0.35433600  1
  O  O14  1  0.43915200  0.80813700  0.48514800  1
  O  O15  1  0.20559700  0.10358300  0.61399800  1
  O  O16  1  0.35400300  0.55198100  0.73743200  1
  O  O17  1  0.46042900  0.90397100  0.81080000  1
  O  O18  1  0.99334000  0.54426100  0.15954400  1
  O  O19  1  0.17270700  0.00925500  0.28392200  1
  O  O20  1  0.07958800  0.71926600  0.57062600  1
  O  O21  1  0.09206400  0.81556200  0.88721600  1
loop_
_geom_bond_atom_site_label_1
_geom_bond_atom_site_label_2
_geom_bond_distance
_geom_bond_site_symmetry_2
Li0 O3 2.070184 1_555
Li0 O5 2.083627 1_555
Li0 O20 2.108576 1_655
Li0 O7 2.136989 1_555
Li0 O1 2.145517 1_555
Li0 O8 2.190768 1_555
Li1 O11 2.027378 1_555
Li1 O6 2.066211 1_555
Li1 O12 2.126583 1_554
Li1 O0 2.159983 1_565
Li1 O4 2.168264 1_565
Li1 O17 2.205415 1_554
Li2 O13 2.047495 1_555
Li2 O15 2.047565 1_555
Li2 O8 2.048441 1_555
Li2 O7 2.131697 1_555
Li2 O16 2.205164 1_555
Li2 O10 2.230590 1_555
Li3 O9 2.003158 1_556
Li3 O17 2.149670 1_545
Li3 O4 2.153024 1_556
Li3 O15 2.171812 1_555
Li3 O10 2.205865 1_555
Li3 O21 2.209223 1_545
Li4 O14 2.000602 1_555
Li4 O18 2.097245 1_455
Li4 O1 2.124300 1_455
Li4 O20 2.156672 1_555
Li4 O16 2.214235 1_555
Li4 O13 2.219296 1_555
Li5 O19 2.083206 1_555
Li5 O9 2.107414 1_555
Li5 O12 2.119732 1_444
Li5 O0 2.135494 1_455
Li5 O2 2.159942 1_444
Li5 O21 2.182389 1_544
Ni0 O1 1.869887 1_555
Ni0 O18 1.873115 1_555
Ni0 O5 1.879589 1_555
Ni0 O4 1.892982 1_555
Ni0 O0 1.896329 1_555
Ni0 O10 1.921484 1_554
Ni1 O6 1.878620 1_545
Ni1 O7 1.888991 1_555
Ni1 O2 1.970516 1_545
Ni1 O4 1.982207 1_555
Ni1 O14 2.061788 1_545
Ni1 O1 2.086417 1_555
Ni2 O2 1.886373 1_555
Ni2 O20 1.895718 1_655
Ni2 O6 1.928975 1_555
Ni2 O21 1.951136 1_655
Ni2 O8 2.074846 1_555
Ni2 O15 2.093318 1_665
Ni3 O11 1.846652 1_555
Ni3 O10 1.890769 1_554
Ni3 O9 2.006707 1_555
Ni3 O12 2.017143 1_554
Ni3 O5 2.020178 1_555
Ni3 O16 2.030096 1_554
Ni4 O3 1.873379 1_555
Ni4 O8 1.887380 1_555
Ni4 O18 1.889386 1_556
Ni4 O12 1.902191 1_555
Ni4 O21 1.910575 1_655
Ni4 O10 1.921972 1_555
Ni5 O9 1.861873 1_555
Ni5 O5 1.888783 1_555
Ni5 O7 1.891116 1_555
Ni5 O13 1.893302 1_555
Ni5 O19 1.895039 1_555
Ni5 O4 1.904914 1_555
Ni6 O14 1.872938 1_555
Ni6 O16 1.881846 1_555
Ni6 O2 1.884047 1_555
Ni6 O12 1.890921 1_555
Ni6 O8 1.894418 1_555
Ni6 O17 1.910383 1_555
Ni7 O18 2.005975 1_455
Ni7 O9 2.015733 1_555
Ni7 O11 2.029903 1_555
Ni7 O3 2.038956 1_454
Ni7 O0 2.063111 1_455
Ni7 O13 2.065417 1_555
Ni8 O13 1.872536 1_555
Ni8 O19 1.878436 1_555
Ni8 O0 1.880887 1_455
Ni8 O6 1.896799 1_445
Ni8 O1 1.908069 1_455
Ni8 O15 1.911827 1_555
Ni9 O14 1.863380 1_555
Ni9 O15 1.872698 1_565
Ni9 O7 2.003029 1_565
Ni9 O20 2.004173 1_555
Ni9 O19 2.017735 1_565
Ni9 O17 2.034060 1_555
Ni10 O11 1.876022 1_556
Ni10 O3 1.886188 1_455
Ni10 O16 1.888979 1_555
Ni10 O20 1.890737 1_555
Ni10 O17 1.894808 1_555
Ni10 O21 1.910561 1_555
