# generated using pymatgen
data_H18Se3(NO3)4
_symmetry_space_group_name_H-M   'P 1'
_cell_length_a   8.78815952
_cell_length_b   11.72286271
_cell_length_c   11.43605322
_cell_angle_alpha   118.30269448
_cell_angle_beta   97.35500825
_cell_angle_gamma   100.81716510
_symmetry_Int_Tables_number   1
_chemical_formula_structural   H18Se3(NO3)4
_chemical_formula_sum   'H36 Se6 N8 O24'
_cell_volume   986.29616904
_cell_formula_units_Z   2
loop_
 _symmetry_equiv_pos_site_id
 _symmetry_equiv_pos_as_xyz
  1  'x, y, z'
loop_
 _atom_site_type_symbol
 _atom_site_label
 _atom_site_symmetry_multiplicity
 _atom_site_fract_x
 _atom_site_fract_y
 _atom_site_fract_z
 _atom_site_occupancy
  H  H0  1  0.02488800  0.01415400  0.33118700  1
  H  H1  1  0.97511200  0.98584600  0.66881300  1
  H  H2  1  0.79231900  0.35265400  0.46823100  1
  H  H3  1  0.20768100  0.64734700  0.53176900  1
  H  H4  1  0.59438500  0.61112300  0.02990400  1
  H  H5  1  0.40561500  0.38887700  0.97009600  1
  H  H6  1  0.93329700  0.55498800  0.32074300  1
  H  H7  1  0.06670300  0.44501200  0.67925700  1
  H  H8  1  0.48952300  0.27552800  0.94072700  1
  H  H9  1  0.51047700  0.72447200  0.05927300  1
  H  H10  1  0.85133900  0.47043500  0.98294900  1
  H  H11  1  0.14866100  0.52956500  0.01705100  1
  H  H12  1  0.66416900  0.05387600  0.73494000  1
  H  H13  1  0.33583100  0.94612400  0.26506000  1
  H  H14  1  0.47339700  0.05203600  0.88579700  1
  H  H15  1  0.52660300  0.94796400  0.11420300  1
  H  H16  1  0.63950100  0.91775100  0.83392200  1
  H  H17  1  0.36049900  0.08224900  0.16607800  1
  H  H18  1  0.42711200  0.57533900  0.51650400  1
  H  H19  1  0.57288800  0.42466100  0.48349600  1
  H  H20  1  0.12781200  0.90272200  0.89809000  1
  H  H21  1  0.87218800  0.09727800  0.10191000  1
  H  H22  1  0.92603100  0.53799100  0.71440400  1
  H  H23  1  0.07396900  0.46200900  0.28559600  1
  H  H24  1  0.10877800  0.74755800  0.60147000  1
  H  H25  1  0.89122200  0.25244200  0.39853000  1
  H  H26  1  0.58038400  0.64682600  0.70906400  1
  H  H27  1  0.41961600  0.35317400  0.29093600  1
  H  H28  1  0.63907700  0.08957700  0.49102100  1
  H  H29  1  0.36092300  0.91042300  0.50897900  1
  H  H30  1  0.55940200  0.84871500  0.67935100  1
  H  H31  1  0.44059800  0.15128500  0.32064900  1
  H  H32  1  0.66271100  0.70047300  0.30769900  1
  H  H33  1  0.33728900  0.29952700  0.69230100  1
  H  H34  1  0.81925300  0.80766000  0.43188400  1
  H  H35  1  0.18074700  0.19234000  0.56811600  1
  Se  Se0  1  0.77838800  0.15653700  0.62008700  1
  Se  Se1  1  0.22161200  0.84346300  0.37991300  1
  Se  Se2  1  0.58100000  0.37845200  0.25437500  1
  Se  Se3  1  0.41900000  0.62154800  0.74562500  1
  Se  Se4  1  0.83599100  0.90506600  0.12210100  1
  Se  Se5  1  0.16400900  0.09493400  0.87789900  1
  N  N0  1  0.71481900  0.50870200  0.87241800  1
  N  N1  1  0.28518100  0.49129800  0.12758200  1
  N  N2  1  0.95547100  0.46084000  0.28938400  1
  N  N3  1  0.04452900  0.53916000  0.71061600  1
  N  N4  1  0.14375200  0.63964300  0.73221500  1
  N  N5  1  0.85624800  0.36035700  0.26778500  1
  N  N6  1  0.77606800  0.70683800  0.35423300  1
  N  N7  1  0.22393200  0.29316200  0.64576700  1
  O  O0  1  0.64549400  0.12889300  0.71928200  1
  O  O1  1  0.35450600  0.87110700  0.28071800  1
  O  O2  1  0.84634100  0.45988400  0.89185900  1
  O  O3  1  0.15365900  0.54011600  0.10814100  1
  O  O4  1  0.88060600  0.04045100  0.57524100  1
  O  O5  1  0.11939400  0.95954900  0.42475900  1
  O  O6  1  0.86359900  0.30287200  0.48549300  1
  O  O7  1  0.13640100  0.69712800  0.51450700  1
  O  O8  1  0.31645700  0.50965100  0.24128200  1
  O  O9  1  0.68354300  0.49034900  0.75871800  1
  O  O10  1  0.54305900  0.21822700  0.12863600  1
  O  O11  1  0.45694100  0.78177300  0.87136400  1
  O  O12  1  0.66527700  0.43670600  0.44680500  1
  O  O13  1  0.33472300  0.56329400  0.55319500  1
  O  O14  1  0.34381800  0.08560800  0.25130300  1
  O  O15  1  0.65618200  0.91439200  0.74869700  1
  O  O16  1  0.52726200  0.65921700  0.08592800  1
  O  O17  1  0.47273800  0.34078300  0.91407200  1
  O  O18  1  0.81053700  0.00209500  0.04012500  1
  O  O19  1  0.18946300  0.99790500  0.95987500  1
  O  O20  1  0.94530400  0.80894700  0.03929000  1
  O  O21  1  0.05469600  0.19105300  0.96071000  1
  O  O22  1  0.96799900  0.05004800  0.27895600  1
  O  O23  1  0.03200100  0.94995200  0.72104400  1
loop_
_geom_bond_atom_site_label_1
_geom_bond_atom_site_label_2
_geom_bond_distance
_geom_bond_site_symmetry_2
H0 O22 1.012240 1_455
H0 O5 1.692988 1_545
H1 O23 1.012240 1_655
H1 O4 1.692988 1_565
H2 O6 0.993352 1_555
H3 O7 0.993342 1_555
H4 O16 0.977441 1_555
H5 O17 0.977441 1_555
H6 N2 1.052614 1_555
H7 N3 1.052614 1_555
H8 O17 0.975618 1_555
H9 O16 0.975618 1_555
H10 O2 0.983084 1_555
H11 O3 0.983084 1_555
H12 O0 1.014073 1_555
H13 O1 1.014073 1_555
H16 O15 0.987580 1_555
H17 O14 0.987580 1_555
H18 O13 0.977552 1_555
H19 O12 0.977552 1_555
H20 O19 0.982494 1_555
H21 O18 0.982494 1_555
H22 N3 1.045606 1_655
H23 N2 1.045606 1_455
H24 O7 0.977572 1_555
H25 O6 0.977572 1_555
H26 Se3 1.544565 1_555
H27 Se2 1.544565 1_555
H28 Se0 1.539997 1_555
H29 Se1 1.539997 1_555
H30 O15 0.973449 1_555
H31 O14 0.973449 1_555
H32 N6 1.039179 1_555
H33 N7 1.039179 1_555
H34 N6 1.039054 1_555
H35 N7 1.039054 1_555
N0 O9 1.197323 1_555
N0 O2 1.419874 1_555
N1 O8 1.197323 1_555
N1 O3 1.419874 1_555
N2 N5 1.221613 1_555
N3 N4 1.221613 1_555
N4 Se3 2.459303 1_555
N5 Se2 2.459303 1_555
O0 Se0 1.817032 1_555
O1 Se1 1.817032 1_555
O4 Se0 1.684315 1_555
O5 Se1 1.684315 1_555
O10 Se2 1.669700 1_555
O11 Se3 1.669700 1_555
O12 Se2 1.955889 1_555
O13 Se3 1.955889 1_555
O18 Se4 1.809891 1_545
O19 Se5 1.809891 1_565
O20 Se4 1.648252 1_555
O21 Se5 1.648252 1_555
O22 Se4 1.813374 1_545
O23 Se5 1.813374 1_565
