# generated using pymatgen
data_Li4Ti2Mn3Cu3O16
_symmetry_space_group_name_H-M   'P 1'
_cell_length_a   5.82456800
_cell_length_b   5.84941368
_cell_length_c   9.49503290
_cell_angle_alpha   90.58954516
_cell_angle_beta   90.42758770
_cell_angle_gamma   119.46125805
_symmetry_Int_Tables_number   1
_chemical_formula_structural   Li4Ti2Mn3Cu3O16
_chemical_formula_sum   'Li4 Ti2 Mn3 Cu3 O16'
_cell_volume   281.62253034
_cell_formula_units_Z   1
loop_
 _symmetry_equiv_pos_site_id
 _symmetry_equiv_pos_as_xyz
  1  'x, y, z'
loop_
 _atom_site_type_symbol
 _atom_site_label
 _atom_site_symmetry_multiplicity
 _atom_site_fract_x
 _atom_site_fract_y
 _atom_site_fract_z
 _atom_site_occupancy
  Li  Li0  1  0.67297300  0.33884300  0.10316400  1
  Li  Li1  1  0.00006600  0.99898200  0.00310800  1
  Li  Li2  1  0.00020300  0.00056500  0.50690500  1
  Li  Li3  1  0.33345000  0.67046700  0.60568300  1
  Ti  Ti0  1  0.65956800  0.31911400  0.50913800  1
  Ti  Ti1  1  0.33354900  0.65918700  0.99964800  1
  Mn  Mn0  1  0.82736000  0.65561100  0.78395400  1
  Mn  Mn1  1  0.66027300  0.82978300  0.28512500  1
  Mn  Mn2  1  0.16767700  0.82846700  0.28510300  1
  Cu  Cu0  1  0.82855100  0.16768200  0.78543600  1
  Cu  Cu1  1  0.33881700  0.16824600  0.78604400  1
  Cu  Cu2  1  0.17420700  0.33983300  0.28478400  1
  O  O0  1  0.81155400  0.14671900  0.40974200  1
  O  O1  1  0.51724000  0.04233100  0.64981000  1
  O  O2  1  0.67143100  0.34033200  0.89145000  1
  O  O3  1  0.99386000  0.98945700  0.69492700  1
  O  O4  1  0.99394200  0.99351400  0.19299700  1
  O  O5  1  0.32743800  0.15686900  0.40561000  1
  O  O6  1  0.96272800  0.49504800  0.65620000  1
  O  O7  1  0.52860700  0.49477600  0.65762800  1
  O  O8  1  0.16897600  0.33485700  0.91488900  1
  O  O9  1  0.83664100  0.67057500  0.39580500  1
  O  O10  1  0.50667800  0.54493400  0.15522500  1
  O  O11  1  0.04491400  0.53245000  0.16068700  1
  O  O12  1  0.33999400  0.67491900  0.39058900  1
  O  O13  1  0.66376100  0.81929200  0.90321300  1
  O  O14  1  0.48119900  0.96936400  0.17006900  1
  O  O15  1  0.15464000  0.81778200  0.90523000  1
loop_
_geom_bond_atom_site_label_1
_geom_bond_atom_site_label_2
_geom_bond_distance
_geom_bond_site_symmetry_2
Li0 O10 1.944032 1_555
Li0 O11 1.957134 1_655
Li0 O14 1.996586 1_545
Li0 O2 2.010312 1_554
Li1 O4 1.803923 1_455
Li1 O8 1.916854 1_564
Li1 O15 1.930961 1_554
Li1 O13 1.941118 1_454
Li2 O3 1.787122 1_445
Li2 O0 1.927306 1_455
Li2 O5 1.930053 1_555
Li2 O9 1.969895 1_445
Li3 O1 1.933131 1_565
Li3 O7 1.934600 1_555
Li3 O6 1.947210 1_455
Li3 O12 2.043160 1_555
Mn0 O3 1.910972 1_555
Mn0 O2 1.916428 1_555
Mn0 O7 1.920174 1_555
Mn0 O6 1.922098 1_555
Mn0 O13 1.999546 1_555
Mn0 O15 2.006412 1_655
Mn1 O10 1.890191 1_555
Mn1 O4 1.916048 1_555
Mn1 O12 1.920330 1_555
Mn1 O14 1.946031 1_555
Mn1 O0 1.986407 1_565
Mn1 O9 1.992996 1_555
Mn2 O11 1.905891 1_555
Mn2 O4 1.919910 1_455
Mn2 O12 1.925487 1_555
Mn2 O14 1.942898 1_555
Mn2 O9 1.993514 1_455
Mn2 O5 2.011408 1_565
Cu0 O3 1.932296 1_545
Cu0 O2 1.942324 1_555
Cu0 O1 2.030214 1_555
Cu0 O6 2.091402 1_555
Cu0 O8 2.104822 1_655
Cu0 O13 2.112735 1_545
Cu1 O3 1.941053 1_445
Cu1 O2 1.949417 1_555
Cu1 O1 2.012247 1_555
Cu1 O7 2.085182 1_555
Cu1 O8 2.089731 1_555
Cu1 O15 2.129940 1_545
Cu2 O4 1.955366 1_445
Cu2 O12 1.966404 1_555
Cu2 O11 2.018336 1_555
Cu2 O5 2.051270 1_555
Cu2 O10 2.117376 1_555
Cu2 O0 2.205319 1_455
O0 Ti0 1.887397 1_555
O1 Ti0 1.957880 1_555
O5 Ti0 1.937984 1_555
O6 Ti0 2.067117 1_555
O7 Ti0 2.093499 1_555
O8 Ti1 1.825899 1_555
O9 Ti0 2.103469 1_555
O10 Ti1 2.075251 1_554
O11 Ti1 2.133006 1_554
O13 Ti1 1.920113 1_555
O14 Ti1 2.243624 1_554
O15 Ti1 1.924662 1_555
