# generated using pymatgen
data_Mn6OF11
_symmetry_space_group_name_H-M   'P 1'
_cell_length_a   4.89332834
_cell_length_b   5.73877298
_cell_length_c   15.88198148
_cell_angle_alpha   89.93323407
_cell_angle_beta   90.57327153
_cell_angle_gamma   90.81602028
_symmetry_Int_Tables_number   1
_chemical_formula_structural   Mn6OF11
_chemical_formula_sum   'Mn12 O2 F22'
_cell_volume   445.92525914
_cell_formula_units_Z   2
loop_
 _symmetry_equiv_pos_site_id
 _symmetry_equiv_pos_as_xyz
  1  'x, y, z'
loop_
 _atom_site_type_symbol
 _atom_site_label
 _atom_site_symmetry_multiplicity
 _atom_site_fract_x
 _atom_site_fract_y
 _atom_site_fract_z
 _atom_site_occupancy
  Mn  Mn0  1  0.99157818  0.82973343  0.41272953  1
  Mn  Mn1  1  0.00842182  0.17026657  0.58727047  1
  Mn  Mn2  1  0.97957858  0.80656651  0.75691486  1
  Mn  Mn3  1  0.01616949  0.82410471  0.08270651  1
  Mn  Mn4  1  0.02042142  0.19343349  0.24308514  1
  Mn  Mn5  1  0.98383051  0.17589529  0.91729349  1
  Mn  Mn6  1  0.49449704  0.65372622  0.24729992  1
  Mn  Mn7  1  0.51685897  0.66736461  0.91088613  1
  Mn  Mn8  1  0.49740265  0.67501532  0.58308743  1
  Mn  Mn9  1  0.50550296  0.34627378  0.75270008  1
  Mn  Mn10  1  0.50259735  0.32498468  0.41691257  1
  Mn  Mn11  1  0.48314103  0.33263539  0.08911387  1
  O  O0  1  0.29123614  0.41849179  0.19719282  1
  O  O1  1  0.70876386  0.58150821  0.80280718  1
  F  F0  1  0.23209869  0.90154755  0.52437667  1
  F  F1  1  0.25033467  0.90411312  0.19411220  1
  F  F2  1  0.20951000  0.88616860  0.86273254  1
  F  F3  1  0.24671563  0.11217937  0.70023501  1
  F  F4  1  0.21514145  0.11118790  0.35865947  1
  F  F5  1  0.23519064  0.10380198  0.02420572  1
  F  F6  1  0.25729371  0.59877705  0.69034148  1
  F  F7  1  0.26473872  0.39854529  0.52435202  1
  F  F8  1  0.28559582  0.61778101  0.35843044  1
  F  F9  1  0.27207531  0.60513131  0.01824788  1
  F  F10  1  0.26255625  0.37994363  0.85472001  1
  F  F11  1  0.71440418  0.38221899  0.64156956  1
  F  F12  1  0.73526128  0.60145471  0.47564798  1
  F  F13  1  0.74270629  0.40122295  0.30965852  1
  F  F14  1  0.72792469  0.39486869  0.98175212  1
  F  F15  1  0.73744375  0.62005637  0.14527999  1
  F  F16  1  0.78485855  0.88881210  0.64134053  1
  F  F17  1  0.75328437  0.88782063  0.29976499  1
  F  F18  1  0.76790131  0.09845245  0.47562333  1
  F  F19  1  0.74966533  0.09588688  0.80588780  1
  F  F20  1  0.76480936  0.89619802  0.97579428  1
  F  F21  1  0.79049000  0.11383140  0.13726746  1
loop_
_geom_bond_atom_site_label_1
_geom_bond_atom_site_label_2
_geom_bond_distance
_geom_bond_site_symmetry_2
Mn2 O1 1.980874 1_555
Mn4 O0 1.980874 1_555
Mn6 O0 1.842112 1_555
Mn7 O1 2.029382 1_555
Mn9 O1 1.842112 1_555
Mn11 O0 2.029382 1_555
F0 Mn8 2.065404 1_555
F0 Mn0 2.155304 1_455
F0 Mn1 2.155786 1_565
F1 Mn6 2.057092 1_555
F1 Mn3 2.144924 1_555
F1 Mn4 2.168211 1_565
F2 Mn2 2.061143 1_455
F2 Mn7 2.109978 1_555
F2 Mn5 2.193106 1_465
F3 Mn9 2.008905 1_555
F3 Mn1 2.158103 1_555
F3 Mn2 2.355762 1_445
F4 Mn10 2.065750 1_555
F4 Mn4 2.115583 1_555
F4 Mn0 2.123280 1_445
F5 Mn11 2.047460 1_555
F5 Mn5 2.130313 1_454
F5 Mn3 2.134416 1_545
F6 Mn2 2.112929 1_455
F6 Mn8 2.120648 1_555
F6 Mn9 2.139746 1_555
F7 Mn1 2.064727 1_555
F7 Mn10 2.121313 1_555
F7 Mn8 2.148117 1_555
F8 Mn6 2.057150 1_555
F8 Mn0 2.090512 1_455
F8 Mn10 2.200242 1_555
F9 Mn3 2.066088 1_555
F9 Mn7 2.120609 1_554
F9 Mn11 2.190325 1_555
F10 Mn9 2.030208 1_555
F10 Mn5 2.048893 1_455
F10 Mn7 2.233301 1_555
F11 Mn9 2.057150 1_555
F11 Mn1 2.090512 1_655
F11 Mn8 2.200242 1_555
F12 Mn0 2.064727 1_555
F12 Mn8 2.121313 1_555
F12 Mn10 2.148117 1_555
F13 Mn4 2.112929 1_655
F13 Mn10 2.120648 1_555
F13 Mn6 2.139746 1_555
F14 Mn5 2.066088 1_555
F14 Mn11 2.120609 1_556
F14 Mn7 2.190325 1_555
F15 Mn6 2.030208 1_555
F15 Mn3 2.048893 1_655
F15 Mn11 2.233301 1_555
F16 Mn8 2.065750 1_555
F16 Mn2 2.115583 1_555
F16 Mn1 2.123280 1_665
F17 Mn6 2.008905 1_555
F17 Mn0 2.158103 1_555
F17 Mn4 2.355762 1_665
F18 Mn10 2.065404 1_555
F18 Mn1 2.155304 1_655
F18 Mn0 2.155786 1_545
F19 Mn9 2.057092 1_555
F19 Mn5 2.144924 1_555
F19 Mn2 2.168211 1_545
F20 Mn7 2.047460 1_555
F20 Mn3 2.130313 1_656
F20 Mn5 2.134416 1_565
F21 Mn4 2.061143 1_655
F21 Mn11 2.109978 1_555
F21 Mn3 2.193106 1_645
