# generated using pymatgen
data_W7(OF5)6
_symmetry_space_group_name_H-M   'P 1'
_cell_length_a   10.98010589
_cell_length_b   10.98010589
_cell_length_c   10.98010573
_cell_angle_alpha   50.24466449
_cell_angle_beta   50.24466449
_cell_angle_gamma   50.24466663
_symmetry_Int_Tables_number   1
_chemical_formula_structural   W7(OF5)6
_chemical_formula_sum   'W7 O6 F30'
_cell_volume   720.42085178
_cell_formula_units_Z   1
loop_
 _symmetry_equiv_pos_site_id
 _symmetry_equiv_pos_as_xyz
  1  'x, y, z'
loop_
 _atom_site_type_symbol
 _atom_site_label
 _atom_site_symmetry_multiplicity
 _atom_site_fract_x
 _atom_site_fract_y
 _atom_site_fract_z
 _atom_site_occupancy
  W  W0  1  0.00000000  0.00000000  0.00000000  1
  W  W1  1  0.23276200  0.60522600  0.92057700  1
  W  W2  1  0.39477400  0.07942300  0.76723800  1
  W  W3  1  0.07942300  0.76723800  0.39477400  1
  W  W4  1  0.92057700  0.23276200  0.60522600  1
  W  W5  1  0.60522600  0.92057700  0.23276200  1
  W  W6  1  0.76723800  0.39477400  0.07942300  1
  O  O0  1  0.23098000  0.97739500  0.90889200  1
  O  O1  1  0.90889200  0.23098000  0.97739500  1
  O  O2  1  0.97739500  0.90889200  0.23098000  1
  O  O3  1  0.02260500  0.09110800  0.76902000  1
  O  O4  1  0.09110800  0.76902000  0.02260500  1
  O  O5  1  0.76902000  0.02260500  0.09110800  1
  F  F0  1  0.51927800  0.90974900  0.91001200  1
  F  F1  1  0.63629100  0.54057100  0.94543900  1
  F  F2  1  0.54057100  0.94543900  0.63629100  1
  F  F3  1  0.91001200  0.51927800  0.90974900  1
  F  F4  1  0.09993400  0.74755100  0.78859200  1
  F  F5  1  0.25244900  0.21140800  0.90006600  1
  F  F6  1  0.90974900  0.91001200  0.51927800  1
  F  F7  1  0.94543900  0.63629100  0.54057100  1
  F  F8  1  0.37877300  0.46048200  0.80124900  1
  F  F9  1  0.37718200  0.72914100  0.75088000  1
  F  F10  1  0.27085900  0.24912000  0.62281800  1
  F  F11  1  0.19875100  0.62122700  0.53951800  1
  F  F12  1  0.53951800  0.19875100  0.62122700  1
  F  F13  1  0.21140800  0.90006600  0.25244900  1
  F  F14  1  0.24912000  0.62281800  0.27085900  1
  F  F15  1  0.75088000  0.37718200  0.72914100  1
  F  F16  1  0.78859200  0.09993400  0.74755100  1
  F  F17  1  0.46048200  0.80124900  0.37877300  1
  F  F18  1  0.80124900  0.37877300  0.46048200  1
  F  F19  1  0.72914100  0.75088000  0.37718200  1
  F  F20  1  0.62281800  0.27085900  0.24912000  1
  F  F21  1  0.62122700  0.53951800  0.19875100  1
  F  F22  1  0.05456100  0.36370900  0.45942900  1
  F  F23  1  0.09025100  0.08998800  0.48072200  1
  F  F24  1  0.74755100  0.78859200  0.09993400  1
  F  F25  1  0.90006600  0.25244900  0.21140800  1
  F  F26  1  0.08998800  0.48072200  0.09025100  1
  F  F27  1  0.45942900  0.05456100  0.36370900  1
  F  F28  1  0.36370900  0.45942900  0.05456100  1
  F  F29  1  0.48072200  0.09025100  0.08998800  1
loop_
_geom_bond_atom_site_label_1
_geom_bond_atom_site_label_2
_geom_bond_distance
_geom_bond_site_symmetry_2
O0 W2 1.918136 1_565
O0 W0 1.939583 1_566
O1 W6 1.918136 1_556
O1 W0 1.939583 1_656
O2 W3 1.918136 1_655
O2 W0 1.939583 1_665
O3 W4 1.918136 1_455
O3 W0 1.939583 1_556
O4 W1 1.918136 1_554
O4 W0 1.939583 1_565
O5 W5 1.918136 1_545
O5 W0 1.939583 1_655
F0 W2 1.882919 1_565
F1 W6 1.882443 1_556
F2 W2 1.882443 1_565
F3 W6 1.882918 1_556
F4 W1 1.887076 1_555
F5 W2 1.887076 1_555
F6 W3 1.882919 1_655
F7 W3 1.882443 1_655
F8 W1 1.879001 1_555
F9 W1 1.890913 1_555
F10 W2 1.890913 1_555
F11 W3 1.879001 1_555
F12 W2 1.879001 1_555
F13 W3 1.887076 1_555
F14 W3 1.890913 1_555
F15 W4 1.890913 1_555
F16 W4 1.887076 1_555
F17 W5 1.879001 1_555
F18 W4 1.879001 1_555
F19 W5 1.890913 1_555
F20 W6 1.890913 1_555
F21 W6 1.879001 1_555
F22 W4 1.882443 1_455
F23 W4 1.882919 1_455
F24 W5 1.887076 1_555
F25 W6 1.887076 1_555
F26 W1 1.882918 1_554
F27 W5 1.882443 1_545
F28 W1 1.882443 1_554
F29 W5 1.882919 1_545
