# generated using pymatgen
data_Na3Ni2P2(CO7)2
_symmetry_space_group_name_H-M   'P 1'
_cell_length_a   10.22929653
_cell_length_b   10.50188353
_cell_length_c   6.50215600
_cell_angle_alpha   90.00000000
_cell_angle_beta   90.00000000
_cell_angle_gamma   59.58384375
_symmetry_Int_Tables_number   1
_chemical_formula_structural   Na3Ni2P2(CO7)2
_chemical_formula_sum   'Na6 Ni4 P4 C4 O28'
_cell_volume   602.37156934
_cell_formula_units_Z   2
loop_
 _symmetry_equiv_pos_site_id
 _symmetry_equiv_pos_as_xyz
  1  'x, y, z'
loop_
 _atom_site_type_symbol
 _atom_site_label
 _atom_site_symmetry_multiplicity
 _atom_site_fract_x
 _atom_site_fract_y
 _atom_site_fract_z
 _atom_site_occupancy
  Na  Na0  1  0.00594100  0.24256600  0.46265800  1
  Na  Na1  1  0.49670700  0.25778900  0.98775800  1
  Na  Na2  1  0.49999400  0.25168900  0.51530000  1
  Na  Na3  1  0.50000600  0.74831100  0.01530000  1
  Na  Na4  1  0.50329300  0.74221100  0.48775800  1
  Na  Na5  1  0.99405900  0.75743400  0.96265800  1
  Ni  Ni0  1  0.27725800  0.06787300  0.75604400  1
  Ni  Ni1  1  0.21388700  0.43506500  0.25508100  1
  Ni  Ni2  1  0.78611300  0.56493500  0.75508100  1
  Ni  Ni3  1  0.72274200  0.93212700  0.25604400  1
  P  P0  1  0.35742300  0.06774200  0.25221400  1
  P  P1  1  0.14579000  0.42369200  0.75338200  1
  P  P2  1  0.85421000  0.57630800  0.25338200  1
  P  P3  1  0.64257700  0.93225800  0.75221400  1
  C  C0  1  0.81736600  0.10441100  0.24494600  1
  C  C1  1  0.31776000  0.60079200  0.25019500  1
  C  C2  1  0.68224000  0.39920800  0.75019500  1
  C  C3  1  0.18263400  0.89558900  0.74494600  1
  O  O0  1  0.09508200  0.03770600  0.74282800  1
  O  O1  1  0.27823800  0.04650200  0.06442000  1
  O  O2  1  0.26884300  0.05845600  0.43902600  1
  O  O3  1  0.13860800  0.28070500  0.74559200  1
  O  O4  1  0.01963300  0.44321000  0.25984700  1
  O  O5  1  0.47461300  0.06457800  0.75957300  1
  O  O6  1  0.35987700  0.21380700  0.24963100  1
  O  O7  1  0.23461200  0.43268300  0.94069600  1
  O  O8  1  0.23538100  0.43290100  0.56690800  1
  O  O9  1  0.67234000  0.14639900  0.24804100  1
  O  O10  1  0.17372300  0.64638600  0.24448300  1
  O  O11  1  0.40157000  0.45667300  0.25561100  1
  O  O12  1  0.62789200  0.31512300  0.75014400  1
  O  O13  1  0.13711400  0.80523600  0.74577600  1
  O  O14  1  0.86288600  0.19476400  0.24577600  1
  O  O15  1  0.37210800  0.68487700  0.25014400  1
  O  O16  1  0.59843000  0.54332700  0.75561100  1
  O  O17  1  0.82627700  0.35361400  0.74448300  1
  O  O18  1  0.32766000  0.85360100  0.74804100  1
  O  O19  1  0.76461900  0.56709900  0.06690800  1
  O  O20  1  0.76538800  0.56731700  0.44069600  1
  O  O21  1  0.64012300  0.78619300  0.74963100  1
  O  O22  1  0.52538700  0.93542200  0.25957300  1
  O  O23  1  0.98036700  0.55679000  0.75984700  1
  O  O24  1  0.86139200  0.71929500  0.24559200  1
  O  O25  1  0.72176200  0.95349800  0.56442000  1
  O  O26  1  0.73115700  0.94154400  0.93902600  1
  O  O27  1  0.90491800  0.96229400  0.24282800  1
loop_
_geom_bond_atom_site_label_1
_geom_bond_atom_site_label_2
_geom_bond_distance
_geom_bond_site_symmetry_2
Na0 O14 2.264050 1_455
Na0 O2 2.393604 1_555
Na0 O17 2.434220 1_455
Na0 O3 2.436581 1_555
Na0 O4 2.549015 1_555
Na0 O0 2.606202 1_555
Na1 O9 2.309196 1_556
Na1 O12 2.317001 1_555
Na1 O7 2.380974 1_555
Na1 O6 2.392984 1_556
Na1 O11 2.506922 1_556
Na1 O5 2.614179 1_555
Na2 O12 2.317254 1_555
Na2 O9 2.318770 1_555
Na2 O6 2.402909 1_555
Na2 O8 2.417677 1_555
Na2 O11 2.510864 1_555
Na2 O5 2.639694 1_555
Na2 O25 2.803874 1_545
Na3 O15 2.317254 1_555
Na3 O18 2.318770 1_554
Na3 O21 2.402909 1_554
Na3 O19 2.417677 1_555
Na3 O16 2.510864 1_554
Na3 O22 2.639694 1_555
Na3 O1 2.803874 1_565
Na4 O18 2.309196 1_555
Na4 O15 2.317001 1_555
Na4 O20 2.380974 1_555
Na4 O21 2.392984 1_555
Na4 O16 2.506922 1_555
Na4 O22 2.614179 1_555
Na5 O13 2.264050 1_655
Na5 O26 2.393604 1_555
Na5 O10 2.434220 1_656
Na5 O24 2.436581 1_556
Na5 O23 2.549015 1_555
Na5 O27 2.606202 1_556
Ni0 O3 1.949906 1_555
Ni0 O5 2.001638 1_555
Ni0 O1 2.017091 1_556
Ni0 O18 2.038982 1_545
Ni0 O0 2.044090 1_555
Ni0 O2 2.067552 1_555
Ni1 O4 1.945422 1_555
Ni1 O6 2.029052 1_555
Ni1 O8 2.038320 1_555
Ni1 O10 2.043396 1_555
Ni1 O11 2.044143 1_555
Ni1 O7 2.053990 1_554
Ni2 O23 1.945422 1_555
Ni2 O21 2.029052 1_555
Ni2 O19 2.038320 1_556
Ni2 O17 2.043396 1_555
Ni2 O16 2.044143 1_555
Ni2 O20 2.053990 1_555
Ni3 O24 1.949906 1_555
Ni3 O22 2.001638 1_555
Ni3 O25 2.017091 1_555
Ni3 O9 2.038982 1_565
Ni3 O27 2.044090 1_555
Ni3 O26 2.067552 1_554
C0 O14 1.250837 1_555
C0 O27 1.294748 1_545
C0 O9 1.316543 1_555
C1 O15 1.259340 1_555
C1 O10 1.298921 1_555
C1 O11 1.308863 1_555
C2 O12 1.259340 1_555
C2 O17 1.298921 1_555
C2 O16 1.308863 1_555
C3 O13 1.250837 1_555
C3 O0 1.294748 1_565
C3 O18 1.316543 1_555
O1 P0 1.542666 1_555
O2 P0 1.547731 1_555
O3 P1 1.540964 1_555
O4 P2 1.556921 1_455
O5 P3 1.570930 1_545
O6 P0 1.546909 1_555
O7 P1 1.550710 1_555
O8 P1 1.552127 1_555
O19 P2 1.552127 1_555
O20 P2 1.550710 1_555
O21 P3 1.546909 1_555
O22 P0 1.570930 1_565
O23 P1 1.556921 1_655
O24 P2 1.540964 1_555
O25 P3 1.542666 1_555
O26 P3 1.547731 1_555
