# generated using pymatgen
data_LiCo2OF3
_symmetry_space_group_name_H-M   'P 1'
_cell_length_a   8.14518799
_cell_length_b   8.14518799
_cell_length_c   8.14518799
_cell_angle_alpha   137.37338579
_cell_angle_beta   115.43096102
_cell_angle_gamma   80.49080983
_symmetry_Int_Tables_number   1
_chemical_formula_structural   LiCo2OF3
_chemical_formula_sum   'Li4 Co8 O4 F12'
_cell_volume   320.30035271
_cell_formula_units_Z   4
loop_
 _symmetry_equiv_pos_site_id
 _symmetry_equiv_pos_as_xyz
  1  'x, y, z'
loop_
 _atom_site_type_symbol
 _atom_site_label
 _atom_site_symmetry_multiplicity
 _atom_site_fract_x
 _atom_site_fract_y
 _atom_site_fract_z
 _atom_site_occupancy
  Li  Li0  1  0.51357300  0.86568000  0.64789300  1
  Li  Li1  1  0.78221200  0.13432000  0.64789300  1
  Li  Li2  1  0.72861500  0.36752200  0.36109300  1
  Li  Li3  1  0.99357000  0.63247800  0.36109300  1
  Co  Co0  1  0.72957600  0.74664100  0.98293500  1
  Co  Co1  1  0.13063800  0.14235500  0.50806800  1
  Co  Co2  1  0.36571300  0.85764500  0.98828300  1
  Co  Co3  1  0.98272600  0.00000000  0.98272600  1
  Co  Co4  1  0.23629400  0.25335900  0.98293500  1
  Co  Co5  1  0.52736100  0.50000000  0.02736100  1
  Co  Co6  1  0.13063800  0.62256900  0.98828300  1
  Co  Co7  1  0.36571300  0.37743100  0.50806800  1
  O  O0  1  0.48985200  0.72895400  0.76089800  1
  O  O1  1  0.03194400  0.27104600  0.76089800  1
  O  O2  1  0.21735400  0.00000000  0.21735400  1
  O  O3  1  0.29315900  0.50000000  0.79315900  1
  F  F0  1  0.63238600  0.86694600  0.25105500  1
  F  F1  1  0.75759000  0.00000000  0.75759000  1
  F  F2  1  0.38411000  0.13305400  0.76544000  1
  F  F3  1  0.12322500  0.88873000  0.75649900  1
  F  F4  1  0.63238600  0.38133100  0.76544000  1
  F  F5  1  0.46384000  0.23721100  0.22662900  1
  F  F6  1  0.86776900  0.11127000  0.23449600  1
  F  F7  1  0.12322500  0.36672700  0.23449600  1
  F  F8  1  0.38411000  0.61866900  0.25105500  1
  F  F9  1  0.75523500  0.50000000  0.25523500  1
  F  F10  1  0.98941900  0.76278900  0.22662900  1
  F  F11  1  0.86776900  0.63327300  0.75649900  1
loop_
_geom_bond_atom_site_label_1
_geom_bond_atom_site_label_2
_geom_bond_distance
_geom_bond_site_symmetry_2
Li0 O0 1.963943 1_555
Li1 O1 1.963951 1_655
Co0 O0 1.944439 1_555
Co0 F0 2.106086 1_556
Co0 F4 2.106086 1_555
Co0 F6 2.110616 1_566
Co0 F11 2.110616 1_555
Co0 F10 2.129891 1_556
Co1 O1 1.988139 1_555
Co1 O3 2.076129 1_555
Co1 O2 2.139124 1_555
Co1 F10 2.148815 1_445
Co1 F6 2.205692 1_455
Co1 F2 2.264456 1_555
Co2 O0 1.988139 1_555
Co2 O3 2.076129 1_555
Co2 O2 2.139124 1_566
Co2 F5 2.148817 1_566
Co2 F3 2.205697 1_555
Co2 F0 2.264452 1_556
Co3 F1 1.958926 1_555
Co3 O2 2.041517 1_656
Co3 F3 2.130083 1_645
Co3 F7 2.130087 1_656
Co3 F6 2.130090 1_556
Co3 F11 2.130090 1_545
Co4 O1 1.944439 1_555
Co4 F8 2.106089 1_556
Co4 F2 2.106093 1_555
Co4 F3 2.110618 1_545
Co4 F7 2.110622 1_556
Co4 F5 2.129886 1_556
Co5 F9 1.982750 1_555
Co5 O3 2.037810 1_554
Co5 F8 2.115917 1_555
Co5 F2 2.115921 1_554
Co5 F0 2.115924 1_555
Co5 F4 2.115924 1_554
Co6 O1 1.988132 1_555
Co6 O3 2.076131 1_555
Co6 O2 2.139131 1_566
Co6 F10 2.148809 1_456
Co6 F11 2.205697 1_455
Co6 F8 2.264451 1_556
Co7 O0 1.988132 1_555
Co7 O3 2.076132 1_555
Co7 O2 2.139130 1_555
Co7 F5 2.148815 1_555
Co7 F7 2.205692 1_555
Co7 F4 2.264456 1_555
F0 Li1 1.952297 1_565
F1 Li1 1.923658 1_555
F1 Li0 1.923661 1_545
F2 Li0 1.952293 1_545
F3 Li3 1.938913 1_455
F4 Li1 1.952292 1_555
F5 Li2 1.998566 1_555
F6 Li2 1.938913 1_555
F7 Li3 1.938913 1_455
F8 Li0 1.952297 1_555
F9 Li3 1.887276 1_555
F9 Li2 1.887284 1_555
F10 Li3 1.998571 1_555
F11 Li2 1.938913 1_555
