# generated using pymatgen
data_Li3Fe8(BO3)8
_symmetry_space_group_name_H-M   'P 1'
_cell_length_a   5.25944500
_cell_length_b   9.17179318
_cell_length_c   10.08322599
_cell_angle_alpha   89.13145600
_cell_angle_beta   89.85873821
_cell_angle_gamma   89.34234986
_symmetry_Int_Tables_number   1
_chemical_formula_structural   Li3Fe8(BO3)8
_chemical_formula_sum   'Li3 Fe8 B8 O24'
_cell_volume   486.31091881
_cell_formula_units_Z   1
loop_
 _symmetry_equiv_pos_site_id
 _symmetry_equiv_pos_as_xyz
  1  'x, y, z'
loop_
 _atom_site_type_symbol
 _atom_site_label
 _atom_site_symmetry_multiplicity
 _atom_site_fract_x
 _atom_site_fract_y
 _atom_site_fract_z
 _atom_site_occupancy
  Li  Li0  1  0.18161300  0.16922200  0.15782200  1
  Li  Li1  1  0.33216400  0.32576800  0.88794500  1
  Li  Li2  1  0.66124200  0.67098000  0.64802400  1
  Fe  Fe0  1  0.16448700  0.84023300  0.63184700  1
  Fe  Fe1  1  0.18383500  0.50419400  0.13384600  1
  Fe  Fe2  1  0.30880100  0.99528200  0.87728000  1
  Fe  Fe3  1  0.33311200  0.66730400  0.37487300  1
  Fe  Fe4  1  0.66550000  0.33502800  0.62567500  1
  Fe  Fe5  1  0.67284600  0.99759100  0.12273400  1
  Fe  Fe6  1  0.82614400  0.15839900  0.38558500  1
  Fe  Fe7  1  0.83283000  0.49761600  0.88085900  1
  B  B0  1  0.16656700  0.50763500  0.63533000  1
  B  B1  1  0.16761400  0.83830100  0.13307500  1
  B  B2  1  0.33640100  0.99674600  0.37364600  1
  B  B3  1  0.32646700  0.65789800  0.86729500  1
  B  B4  1  0.66116700  0.99266100  0.62651800  1
  B  B5  1  0.67014900  0.32488300  0.12111500  1
  B  B6  1  0.83820700  0.49823300  0.38130200  1
  B  B7  1  0.82768400  0.17458000  0.88684400  1
  O  O0  1  0.09118500  0.51282400  0.34244600  1
  O  O1  1  0.08610700  0.17158300  0.89076400  1
  O  O2  1  0.20054100  0.78484100  0.82830800  1
  O  O3  1  0.25343700  0.86781600  0.43252500  1
  O  O4  1  0.17432700  0.11182000  0.35249000  1
  O  O5  1  0.19027800  0.53946400  0.91929600  1
  O  O6  1  0.30848900  0.38652600  0.65001200  1
  O  O7  1  0.30990600  0.96049500  0.09253300  1
  O  O8  1  0.27431600  0.63983800  0.58403800  1
  O  O9  1  0.29571700  0.71443400  0.17911700  1
  O  O10  1  0.40999300  0.32517200  0.11172800  1
  O  O11  1  0.40827000  0.99250900  0.66799400  1
  O  O12  1  0.58793500  0.00565400  0.32902400  1
  O  O13  1  0.58303100  0.64375200  0.85002600  1
  O  O14  1  0.69822800  0.30209400  0.84196600  1
  O  O15  1  0.75154100  0.35993800  0.41758400  1
  O  O16  1  0.67878700  0.61590300  0.39012100  1
  O  O17  1  0.67767600  0.05945100  0.93015900  1
  O  O18  1  0.81485900  0.44162600  0.07669500  1
  O  O19  1  0.80372500  0.86627400  0.63279400  1
  O  O20  1  0.76643200  0.12107200  0.57764300  1
  O  O21  1  0.80303400  0.19925800  0.17062600  1
  O  O22  1  0.91020100  0.84572300  0.12568000  1
  O  O23  1  0.91088800  0.51386200  0.67622200  1
loop_
_geom_bond_atom_site_label_1
_geom_bond_atom_site_label_2
_geom_bond_distance
_geom_bond_site_symmetry_2
Li0 O10 1.929039 1_555
Li0 O21 2.011049 1_455
Li0 O4 2.024923 1_555
Li0 O7 2.135409 1_545
Li1 O1 1.927694 1_555
Li1 O14 1.989446 1_555
Li1 O5 2.117158 1_555
Li1 O10 2.294189 1_556
Li1 O6 2.457891 1_555
Li2 O19 1.953317 1_555
Li2 O23 1.956382 1_555
Li2 O13 2.088794 1_555
Li2 O8 2.159755 1_555
Fe0 O19 1.909678 1_455
Fe0 O11 1.945828 1_555
Fe0 O8 1.986291 1_555
Fe0 O2 2.046314 1_555
Fe0 O3 2.074816 1_555
Fe1 O10 2.031141 1_555
Fe1 O9 2.080130 1_555
Fe1 O18 2.113875 1_455
Fe1 O0 2.160312 1_555
Fe1 O5 2.182791 1_554
Fe2 O1 1.991830 1_565
Fe2 O2 2.085405 1_555
Fe2 O17 2.106040 1_565
Fe2 O11 2.173358 1_555
Fe2 O7 2.188992 1_556
Fe3 O16 1.879025 1_555
Fe3 O0 1.947019 1_555
Fe3 O3 1.977162 1_555
Fe3 O9 2.023789 1_555
Fe3 O8 2.142353 1_555
Fe4 O6 1.946761 1_555
Fe4 O20 2.090658 1_555
Fe4 O15 2.154693 1_555
Fe4 O23 2.166325 1_555
Fe4 O14 2.204071 1_555
Fe5 O22 1.859694 1_555
Fe5 O7 1.968037 1_555
Fe5 O17 2.014879 1_564
Fe5 O21 2.044753 1_565
Fe5 O12 2.128595 1_565
Fe6 O4 1.905438 1_655
Fe6 O15 1.917218 1_555
Fe6 O12 1.981306 1_555
Fe6 O20 1.986325 1_555
Fe6 O21 2.197455 1_555
Fe7 O13 1.888962 1_555
Fe7 O5 1.963801 1_655
Fe7 O14 1.980574 1_555
Fe7 O18 2.035036 1_556
Fe7 O23 2.106247 1_555
B0 O6 1.337703 1_555
B0 O23 1.406338 1_455
B0 O8 1.433248 1_555
B1 O22 1.356956 1_455
B1 O9 1.388573 1_555
B1 O7 1.409642 1_555
B2 O4 1.363630 1_565
B2 O3 1.389424 1_555
B2 O12 1.399174 1_565
B3 O13 1.365100 1_555
B3 O2 1.385089 1_555
B3 O5 1.402380 1_555
B4 O19 1.374031 1_555
B4 O20 1.390153 1_565
B4 O11 1.393322 1_555
B5 O10 1.371748 1_555
B5 O18 1.388832 1_555
B5 O21 1.425156 1_555
B6 O16 1.362888 1_555
B6 O0 1.393425 1_655
B6 O15 1.396016 1_555
B7 O1 1.359784 1_655
B7 O17 1.389843 1_555
B7 O14 1.415397 1_555
