# generated using pymatgen
data_Li3SbO3
_symmetry_space_group_name_H-M   'P 1'
_cell_length_a   7.40647531
_cell_length_b   7.40647563
_cell_length_c   7.40647486
_cell_angle_alpha   109.47123298
_cell_angle_beta   109.47121555
_cell_angle_gamma   109.47122559
_symmetry_Int_Tables_number   1
_chemical_formula_structural   Li3SbO3
_chemical_formula_sum   'Li12 Sb4 O12'
_cell_volume   312.76113083
_cell_formula_units_Z   4
loop_
 _symmetry_equiv_pos_site_id
 _symmetry_equiv_pos_as_xyz
  1  'x, y, z'
loop_
 _atom_site_type_symbol
 _atom_site_label
 _atom_site_symmetry_multiplicity
 _atom_site_fract_x
 _atom_site_fract_y
 _atom_site_fract_z
 _atom_site_occupancy
  Li  Li0  1  0.53428056  0.28889182  0.00000180  1
  Li  Li1  1  0.53428075  0.00000172  0.28889185  1
  Li  Li2  1  0.75461253  0.46572215  0.46572220  1
  Li  Li3  1  0.28889177  0.00000173  0.53428051  1
  Li  Li4  1  0.28889178  0.53428064  0.00000183  1
  Li  Li5  1  0.71111121  0.24539203  0.71111117  1
  Li  Li6  1  0.71111133  0.71111142  0.24539195  1
  Li  Li7  1  0.46572194  0.75461325  0.46572182  1
  Li  Li8  1  0.46572191  0.46572200  0.75461330  1
  Li  Li9  1  0.00000166  0.53428059  0.28889168  1
  Li  Li10  1  0.00000181  0.28889175  0.53428070  1
  Li  Li11  1  0.24539302  0.71111142  0.71111140  1
  Sb  Sb0  1  0.72033184  -0.00000128  -0.00000110  1
  Sb  Sb1  1  0.27966563  0.27966563  0.27966550  1
  Sb  Sb2  1  -0.00000002  0.72033201  -0.00000000  1
  Sb  Sb3  1  -0.00000122  -0.00000107  0.72033152  1
  O  O0  1  0.74288678  0.23842316  0.23842311  1
  O  O1  1  0.76157392  0.50446269  -0.00000113  1
  O  O2  1  0.76157319  -0.00000118  0.50446210  1
  O  O3  1  0.49553452  0.49553540  0.25710989  1
  O  O4  1  0.50446275  0.76157302  -0.00000128  1
  O  O5  1  0.49553469  0.25710992  0.49553461  1
  O  O6  1  0.50446266  -0.00000107  0.76157395  1
  O  O7  1  0.25710997  0.49553479  0.49553482  1
  O  O8  1  0.23842299  0.23842401  0.74288686  1
  O  O9  1  0.23842421  0.74288672  0.23842427  1
  O  O10  1  -0.00000099  0.50446266  0.76157384  1
  O  O11  1  -0.00000116  0.76157408  0.50446183  1
loop_
_geom_bond_atom_site_label_1
_geom_bond_atom_site_label_2
_geom_bond_distance
_geom_bond_site_symmetry_2
Li0 O1 1.895084 1_555
Li0 O0 2.156690 1_555
Li0 O6 2.156716 1_554
Li0 O3 2.182921 1_555
Li0 O8 2.182951 1_554
Li1 O2 1.895077 1_555
Li1 O0 2.156690 1_555
Li1 O4 2.156720 1_545
Li1 O5 2.182918 1_555
Li1 O9 2.182947 1_545
Li2 O0 1.895107 1_555
Li2 O5 2.156713 1_555
Li2 O3 2.156718 1_555
Li2 O10 2.182917 1_655
Li2 O11 2.182921 1_655
Li3 O6 1.895084 1_555
Li3 O8 2.156696 1_555
Li3 O11 2.156713 1_545
Li3 O5 2.182918 1_555
Li3 O9 2.182945 1_545
Li4 O4 1.895081 1_555
Li4 O9 2.156689 1_555
Li4 O10 2.156716 1_554
Li4 O3 2.182914 1_555
Li4 O8 2.182943 1_554
Li5 O5 1.895099 1_555
Li5 O1 2.156683 1_556
Li5 O10 2.156684 1_655
Li5 O2 2.182945 1_555
Li5 O6 2.182947 1_555
Li6 O3 1.895098 1_555
Li6 O11 2.156680 1_655
Li6 O2 2.156683 1_565
Li6 O4 2.182942 1_555
Li6 O1 2.182946 1_555
Li7 O9 1.895092 1_555
Li7 O3 2.156712 1_555
Li7 O7 2.156718 1_555
Li7 O2 2.182913 1_565
Li7 O6 2.182916 1_565
Li8 O8 1.895099 1_555
Li8 O7 2.156717 1_555
Li8 O5 2.156718 1_555
Li8 O4 2.182909 1_556
Li8 O1 2.182916 1_556
Li9 O11 1.895081 1_555
Li9 O9 2.156689 1_555
Li9 O1 2.156716 1_455
Li9 O7 2.182919 1_555
Li9 O0 2.182947 1_455
Li10 O10 1.895082 1_555
Li10 O8 2.156685 1_555
Li10 O2 2.156717 1_455
Li10 O7 2.182919 1_555
Li10 O0 2.182949 1_455
Li11 O7 1.895095 1_555
Li11 O6 2.156679 1_565
Li11 O4 2.156682 1_556
Li11 O10 2.182950 1_555
Li11 O11 2.182955 1_555
O0 Sb0 1.947401 1_555
O1 Sb2 1.947405 1_655
O2 Sb3 1.947407 1_655
O3 Sb1 1.947404 1_555
O4 Sb0 1.947406 1_565
O5 Sb1 1.947403 1_555
O6 Sb0 1.947405 1_556
O7 Sb1 1.947404 1_555
O8 Sb3 1.947403 1_555
O9 Sb2 1.947402 1_555
O10 Sb2 1.947406 1_556
O11 Sb3 1.947405 1_565
