# generated using pymatgen
data_SrCaI4
_symmetry_space_group_name_H-M   'P 1'
_cell_length_a   7.71386200
_cell_length_b   9.53986800
_cell_length_c   18.10111022
_cell_angle_alpha   59.98125216
_cell_angle_beta   90.00000000
_cell_angle_gamma   90.00000000
_symmetry_Int_Tables_number   1
_chemical_formula_structural   SrCaI4
_chemical_formula_sum   'Sr4 Ca4 I16'
_cell_volume   1153.36826911
_cell_formula_units_Z   4
loop_
 _symmetry_equiv_pos_site_id
 _symmetry_equiv_pos_as_xyz
  1  'x, y, z'
loop_
 _atom_site_type_symbol
 _atom_site_label
 _atom_site_symmetry_multiplicity
 _atom_site_fract_x
 _atom_site_fract_y
 _atom_site_fract_z
 _atom_site_occupancy
  Sr  Sr0  1  0.39246300  0.75126500  0.62922600  1
  Sr  Sr1  1  0.10753700  0.75126500  0.12922600  1
  Sr  Sr2  1  0.89246300  0.24873500  0.87077400  1
  Sr  Sr3  1  0.60753700  0.24873500  0.37077400  1
  Ca  Ca0  1  0.07530800  0.75516500  0.87061200  1
  Ca  Ca1  1  0.42469200  0.75516500  0.37061200  1
  Ca  Ca2  1  0.57530800  0.24483500  0.62938800  1
  Ca  Ca3  1  0.92469200  0.24483500  0.12938800  1
  I  I0  1  0.24086200  0.01014300  0.68654700  1
  I  I1  1  0.25913800  0.01014300  0.18654700  1
  I  I2  1  0.72685900  0.00120000  0.57158600  1
  I  I3  1  0.77314100  0.00120000  0.07158600  1
  I  I4  1  0.22574300  0.50758500  0.81797600  1
  I  I5  1  0.26819400  0.50904200  0.55576000  1
  I  I6  1  0.27425700  0.50758500  0.31797600  1
  I  I7  1  0.76819400  0.49095800  0.94424000  1
  I  I8  1  0.23180600  0.50904200  0.05576000  1
  I  I9  1  0.72574300  0.49241500  0.68202400  1
  I  I10  1  0.73180600  0.49095800  0.44424000  1
  I  I11  1  0.77425700  0.49241500  0.18202400  1
  I  I12  1  0.22685900  0.99880000  0.92841400  1
  I  I13  1  0.27314100  0.99880000  0.42841400  1
  I  I14  1  0.74086200  0.98985700  0.81345300  1
  I  I15  1  0.75913800  0.98985700  0.31345300  1
loop_
_geom_bond_atom_site_label_1
_geom_bond_atom_site_label_2
_geom_bond_distance
_geom_bond_site_symmetry_2
Ca0 I4 3.175604 1_555
Ca0 I12 3.208843 1_555
Ca0 I8 3.213827 1_556
Ca0 I7 3.221858 1_455
Ca0 I14 3.228192 1_455
Ca0 I0 3.246458 1_565
Ca1 I6 3.175604 1_555
Ca1 I13 3.208843 1_555
Ca1 I5 3.213827 1_555
Ca1 I10 3.221858 1_555
Ca1 I15 3.228192 1_555
Ca1 I1 3.246458 1_565
Ca2 I9 3.175604 1_555
Ca2 I2 3.208843 1_555
Ca2 I10 3.213827 1_555
Ca2 I5 3.221858 1_555
Ca2 I0 3.228192 1_555
Ca2 I14 3.246458 1_545
Ca3 I11 3.175604 1_555
Ca3 I3 3.208843 1_555
Ca3 I7 3.213827 1_554
Ca3 I8 3.221858 1_655
Ca3 I1 3.228192 1_655
Ca3 I15 3.246458 1_545
I0 Sr0 3.332756 1_545
I1 Sr1 3.332756 1_545
I2 Sr0 3.307312 1_545
I2 Sr3 3.323815 1_555
I3 Sr1 3.307312 1_645
I3 Sr2 3.323815 1_554
I4 Sr0 3.283923 1_555
I4 Sr2 3.355494 1_455
I5 Sr0 3.331913 1_555
I6 Sr1 3.283923 1_555
I6 Sr3 3.355494 1_555
I7 Sr2 3.331913 1_555
I8 Sr1 3.331913 1_555
I9 Sr2 3.283923 1_555
I9 Sr0 3.355494 1_555
I10 Sr3 3.331913 1_555
I11 Sr3 3.283923 1_555
I11 Sr1 3.355494 1_655
I12 Sr2 3.307312 1_465
I12 Sr1 3.323815 1_556
I13 Sr3 3.307312 1_565
I13 Sr0 3.323815 1_555
I14 Sr2 3.332756 1_565
I15 Sr3 3.332756 1_565
