# generated using pymatgen
data_CdCoO3
_symmetry_space_group_name_H-M   'P 1'
_cell_length_a   5.79815775
_cell_length_b   5.79815775
_cell_length_c   5.79815725
_cell_angle_alpha   51.93096302
_cell_angle_beta   51.93096302
_cell_angle_gamma   51.93096384
_symmetry_Int_Tables_number   1
_chemical_formula_structural   CdCoO3
_chemical_formula_sum   'Cd2 Co2 O6'
_cell_volume   111.68017700
_cell_formula_units_Z   2
loop_
 _symmetry_equiv_pos_site_id
 _symmetry_equiv_pos_as_xyz
  1  'x, y, z'
loop_
 _atom_site_type_symbol
 _atom_site_label
 _atom_site_symmetry_multiplicity
 _atom_site_fract_x
 _atom_site_fract_y
 _atom_site_fract_z
 _atom_site_occupancy
  Cd  Cd0  1  0.63296900  0.63296900  0.63296900  1
  Cd  Cd1  1  0.36703100  0.36703100  0.36703100  1
  Co  Co0  1  0.83707300  0.83707300  0.83707300  1
  Co  Co1  1  0.16292700  0.16292700  0.16292700  1
  O  O0  1  0.55862400  0.96751100  0.18349600  1
  O  O1  1  0.81650400  0.44137600  0.03248900  1
  O  O2  1  0.03248900  0.81650400  0.44137600  1
  O  O3  1  0.96751100  0.18349600  0.55862400  1
  O  O4  1  0.18349600  0.55862400  0.96751100  1
  O  O5  1  0.44137600  0.03248900  0.81650400  1
loop_
_geom_bond_atom_site_label_1
_geom_bond_atom_site_label_2
_geom_bond_distance
_geom_bond_site_symmetry_2
Cd0 O0 2.204614 1_555
Cd0 O4 2.204614 1_555
Cd0 O3 2.204614 1_555
Cd0 O1 2.478155 1_556
Cd0 O5 2.478155 1_565
Cd0 O2 2.478155 1_655
Cd1 O5 2.204614 1_555
Cd1 O1 2.204614 1_555
Cd1 O2 2.204614 1_555
Cd1 O4 2.478155 1_554
Cd1 O0 2.478155 1_545
Cd1 O3 2.478155 1_455
Co0 O2 1.877990 1_655
Co0 O5 1.877990 1_565
Co0 O1 1.877990 1_556
Co0 O0 1.892485 1_556
Co0 O4 1.892485 1_655
Co0 O3 1.892485 1_565
Co1 O3 1.877990 1_455
Co1 O0 1.877990 1_545
Co1 O4 1.877990 1_554
Co1 O5 1.892485 1_554
Co1 O1 1.892485 1_455
Co1 O2 1.892485 1_545
