# generated using pymatgen
data_Li3MnF6
_symmetry_space_group_name_H-M   'P 1'
_cell_length_a   4.86037500
_cell_length_b   8.47360357
_cell_length_c   8.76353136
_cell_angle_alpha   118.71406578
_cell_angle_beta   90.39732268
_cell_angle_gamma   90.32290565
_symmetry_Int_Tables_number   1
_chemical_formula_structural   Li3MnF6
_chemical_formula_sum   'Li9 Mn3 F18'
_cell_volume   316.51733420
_cell_formula_units_Z   3
loop_
 _symmetry_equiv_pos_site_id
 _symmetry_equiv_pos_as_xyz
  1  'x, y, z'
loop_
 _atom_site_type_symbol
 _atom_site_label
 _atom_site_symmetry_multiplicity
 _atom_site_fract_x
 _atom_site_fract_y
 _atom_site_fract_z
 _atom_site_occupancy
  Li  Li0  1  0.99287100  0.01397200  0.35457600  1
  Li  Li1  1  0.49969500  0.68737800  0.99852300  1
  Li  Li2  1  0.99645100  0.98766900  0.64454900  1
  Li  Li3  1  0.49190600  0.99087300  0.70063400  1
  Li  Li4  1  0.99614800  0.64782200  0.99477200  1
  Li  Li5  1  0.00926000  0.35849800  0.00521200  1
  Li  Li6  1  0.99826900  0.66066000  0.65096300  1
  Li  Li7  1  0.00702200  0.34527700  0.35265400  1
  Li  Li8  1  0.50891300  0.28385100  0.29088900  1
  Mn  Mn0  1  0.49032000  0.33340700  0.66588600  1
  Mn  Mn1  1  0.51011600  0.66582500  0.33343700  1
  Mn  Mn2  1  0.00005400  0.00075800  0.00010400  1
  F  F0  1  0.20942300  0.78590800  0.89956400  1
  F  F1  1  0.71748900  0.54893600  0.77746400  1
  F  F2  1  0.26176000  0.43538100  0.55830300  1
  F  F3  1  0.24975100  0.46185800  0.89590100  1
  F  F4  1  0.74177800  0.23179800  0.43901500  1
  F  F5  1  0.21650000  0.11963600  0.23518200  1
  F  F6  1  0.79154700  0.88589100  0.10169800  1
  F  F7  1  0.71395400  0.21680000  0.76002900  1
  F  F8  1  0.25558200  0.12185300  0.57532300  1
  F  F9  1  0.20637400  0.10866100  0.89004300  1
  F  F10  1  0.28916900  0.76809800  0.22458800  1
  F  F11  1  0.73920300  0.88125100  0.44526200  1
  F  F12  1  0.75360100  0.56546300  0.10608400  1
  F  F13  1  0.25783200  0.78752700  0.56067600  1
  F  F14  1  0.78129600  0.88739700  0.76597900  1
  F  F15  1  0.27968500  0.45097100  0.23933700  1
  F  F16  1  0.74068400  0.54894000  0.42462700  1
  F  F17  1  0.79335500  0.21771100  0.10874000  1
loop_
_geom_bond_atom_site_label_1
_geom_bond_atom_site_label_2
_geom_bond_distance
_geom_bond_site_symmetry_2
F0 Mn2 1.902175 1_566
F0 Li4 2.018957 1_455
F0 Li1 2.032642 1_555
F0 Li6 2.158939 1_455
F1 Mn0 1.938295 1_555
F1 Li1 2.026927 1_555
F1 Li4 2.140397 1_555
F1 Li6 2.236628 1_555
F2 Mn0 1.910155 1_555
F2 Li7 2.000021 1_555
F2 Li6 2.120379 1_455
F2 Li8 2.397651 1_555
F3 Li4 1.864922 1_455
F3 Li5 1.964992 1_556
F3 Li1 2.060026 1_555
F3 Mn0 2.133995 1_555
F4 Li8 1.922509 1_555
F4 Li7 1.964243 1_655
F4 Li0 2.041898 1_555
F4 Mn0 2.142114 1_555
F5 Li8 1.873458 1_555
F5 Li7 1.974153 1_555
F5 Li0 1.995696 1_455
F5 Mn2 2.080739 1_555
F6 Mn2 1.897672 1_665
F6 Li1 2.037921 1_554
F6 Li4 2.038542 1_554
F6 Li0 2.166423 1_565
F7 Mn0 1.902995 1_555
F7 Li3 2.027832 1_545
F7 Li2 2.200089 1_545
F7 Li5 2.361645 1_656
F8 Mn0 1.934529 1_555
F8 Li2 1.975954 1_445
F8 Li0 2.112294 1_455
F8 Li3 2.219266 1_545
F9 Mn2 1.903250 1_556
F9 Li3 2.032990 1_545
F9 Li5 2.097968 1_556
F9 Li2 2.135181 1_445
F10 Mn1 1.898632 1_555
F10 Li1 2.042955 1_554
F10 Li4 2.257162 1_454
F10 Li0 2.342733 1_465
F11 Mn1 1.943037 1_555
F11 Li2 1.967314 1_555
F11 Li0 2.067182 1_565
F11 Li3 2.316981 1_555
F12 Li4 1.867927 1_554
F12 Li5 1.987776 1_655
F12 Li1 2.100619 1_554
F12 Mn1 2.123530 1_555
F13 Li3 1.922373 1_555
F13 Li2 1.967185 1_455
F13 Li6 2.046743 1_455
F13 Mn1 2.146528 1_555
F14 Li3 1.886875 1_555
F14 Li2 1.955029 1_555
F14 Li6 1.999046 1_555
F14 Mn2 2.080238 1_666
F15 Mn1 1.941788 1_555
F15 Li8 2.018985 1_555
F15 Li7 2.098576 1_555
F15 Li5 2.226534 1_555
F16 Mn1 1.906851 1_555
F16 Li7 2.010572 1_655
F16 Li6 2.132090 1_555
F16 Li8 2.260929 1_555
F17 Mn2 1.909879 1_655
F17 Li8 1.988261 1_555
F17 Li5 2.094426 1_655
F17 Li7 2.133641 1_655
