# generated using pymatgen
data_Li2AlNiO4
_symmetry_space_group_name_H-M   'P 1'
_cell_length_a   5.29282935
_cell_length_b   5.29287744
_cell_length_c   12.75630413
_cell_angle_alpha   89.98770709
_cell_angle_beta   89.98959238
_cell_angle_gamma   89.64948327
_symmetry_Int_Tables_number   1
_chemical_formula_structural   Li2AlNiO4
_chemical_formula_sum   'Li8 Al4 Ni4 O16'
_cell_volume   357.35219187
_cell_formula_units_Z   4
loop_
 _symmetry_equiv_pos_site_id
 _symmetry_equiv_pos_as_xyz
  1  'x, y, z'
loop_
 _atom_site_type_symbol
 _atom_site_label
 _atom_site_symmetry_multiplicity
 _atom_site_fract_x
 _atom_site_fract_y
 _atom_site_fract_z
 _atom_site_occupancy
  Li  Li0  1  0.31358400  0.68642000  0.25000300  1
  Li  Li1  1  0.31347600  0.68651400  0.75000400  1
  Li  Li2  1  0.68651100  0.31348800  0.00004100  1
  Li  Li3  1  0.68651600  0.31348800  0.49995600  1
  Li  Li4  1  0.18272300  0.18267000  0.37494200  1
  Li  Li5  1  0.18273700  0.18270300  0.87502200  1
  Li  Li6  1  0.81732300  0.81727700  0.12505500  1
  Li  Li7  1  0.81729900  0.81726300  0.62498100  1
  Al  Al0  1  0.32342400  0.67662000  0.00001600  1
  Al  Al1  1  0.32338000  0.67658100  0.49998600  1
  Al  Al2  1  0.67646700  0.32354400  0.25000600  1
  Al  Al3  1  0.67649900  0.32348800  0.74999300  1
  Ni  Ni0  1  0.17643400  0.17666300  0.62486000  1
  Ni  Ni1  1  0.82334700  0.82355100  0.87514000  1
  Ni  Ni2  1  0.17632100  0.17653200  0.12512700  1
  Ni  Ni3  1  0.82345500  0.82368000  0.37487300  1
  O  O0  1  0.20212700  0.82392200  0.11441600  1
  O  O1  1  0.20222100  0.82392900  0.61421400  1
  O  O2  1  0.17607100  0.79787800  0.38557800  1
  O  O3  1  0.17608700  0.79778200  0.88578900  1
  O  O4  1  0.82373500  0.20200100  0.13571900  1
  O  O5  1  0.82384300  0.20202500  0.63565900  1
  O  O6  1  0.79799300  0.17626900  0.36426900  1
  O  O7  1  0.79798800  0.17615600  0.86435500  1
  O  O8  1  0.29522900  0.34002000  0.00725400  1
  O  O9  1  0.29531800  0.34012400  0.50705200  1
  O  O10  1  0.65999400  0.70477000  0.49274400  1
  O  O11  1  0.65986900  0.70468900  0.99294700  1
  O  O12  1  0.34007500  0.29507400  0.24293000  1
  O  O13  1  0.34001800  0.29497900  0.74288000  1
  O  O14  1  0.70492000  0.65991200  0.25705600  1
  O  O15  1  0.70501900  0.65998800  0.75713300  1
loop_
_geom_bond_atom_site_label_1
_geom_bond_atom_site_label_2
_geom_bond_distance
_geom_bond_site_symmetry_2
Li0 O2 1.965563 1_555
Li0 O0 1.965637 1_555
Li0 O14 2.077129 1_555
Li0 O12 2.077209 1_555
Li1 O3 1.967380 1_555
Li1 O1 1.967429 1_555
Li1 O13 2.078251 1_555
Li1 O15 2.078269 1_555
Li2 O4 1.966212 1_555
Li2 O7 1.966535 1_554
Li2 O11 2.076469 1_554
Li2 O8 2.076911 1_555
Li3 O6 1.966326 1_555
Li3 O5 1.966655 1_555
Li3 O9 2.076437 1_555
Li3 O10 2.076923 1_555
Li4 O12 1.971928 1_555
Li4 O9 1.974017 1_555
Li4 O6 2.041370 1_455
Li4 O2 2.041660 1_545
Li5 O13 1.972979 1_555
Li5 O8 1.974873 1_556
Li5 O7 2.041483 1_455
Li5 O3 2.042452 1_545
Li6 O14 1.971831 1_555
Li6 O11 1.973976 1_554
Li6 O4 2.041355 1_565
Li6 O0 2.041711 1_655
Li7 O15 1.973076 1_555
Li7 O10 1.974894 1_555
Li7 O5 2.041583 1_565
Li7 O1 2.042446 1_655
Al0 O3 1.771008 1_554
Al0 O0 1.773039 1_555
Al0 O11 1.790093 1_554
Al0 O8 1.791091 1_555
Al1 O1 1.771078 1_555
Al1 O2 1.773100 1_555
Al1 O9 1.790164 1_555
Al1 O10 1.791152 1_555
Al2 O6 1.771892 1_555
Al2 O4 1.772197 1_555
Al2 O14 1.789912 1_555
Al2 O12 1.790044 1_555
Al3 O5 1.772714 1_555
Al3 O7 1.772992 1_555
Al3 O13 1.790556 1_555
Al3 O15 1.790697 1_555
Ni0 O9 1.846245 1_555
Ni0 O13 1.848203 1_555
Ni0 O5 1.875250 1_455
Ni0 O1 1.876076 1_545
Ni1 O11 1.846241 1_555
Ni1 O15 1.848045 1_555
Ni1 O7 1.875322 1_565
Ni1 O3 1.876083 1_655
Ni2 O12 1.846782 1_555
Ni2 O8 1.847030 1_555
Ni2 O4 1.875069 1_455
Ni2 O0 1.875490 1_545
Ni3 O10 1.846951 1_555
Ni3 O14 1.846958 1_555
Ni3 O6 1.875106 1_565
Ni3 O2 1.875493 1_655
