# generated using pymatgen
data_Li2Nb(PO4)2
_symmetry_space_group_name_H-M   'P 1'
_cell_length_a   4.94099012
_cell_length_b   4.94099012
_cell_length_c   7.72111300
_cell_angle_alpha   90.00000000
_cell_angle_beta   90.00000000
_cell_angle_gamma   120.00000163
_symmetry_Int_Tables_number   1
_chemical_formula_structural   Li2Nb(PO4)2
_chemical_formula_sum   'Li2 Nb1 P2 O8'
_cell_volume   163.24447979
_cell_formula_units_Z   1
loop_
 _symmetry_equiv_pos_site_id
 _symmetry_equiv_pos_as_xyz
  1  'x, y, z'
loop_
 _atom_site_type_symbol
 _atom_site_label
 _atom_site_symmetry_multiplicity
 _atom_site_fract_x
 _atom_site_fract_y
 _atom_site_fract_z
 _atom_site_occupancy
  Li  Li0  1  0.33333300  0.66666700  0.66685500  1
  Li  Li1  1  0.66666700  0.33333300  0.33314500  1
  Nb  Nb0  1  0.00000000  0.00000000  0.00000000  1
  P  P0  1  0.33333300  0.66666700  0.23326100  1
  P  P1  1  0.66666700  0.33333300  0.76673900  1
  O  O0  1  0.03762100  0.67589400  0.16093000  1
  O  O1  1  0.33333300  0.66666700  0.42702700  1
  O  O2  1  0.32410600  0.36172700  0.16093000  1
  O  O3  1  0.63827300  0.96237900  0.16093000  1
  O  O4  1  0.36172700  0.03762100  0.83907000  1
  O  O5  1  0.67589400  0.63827300  0.83907000  1
  O  O6  1  0.66666700  0.33333300  0.57297300  1
  O  O7  1  0.96237900  0.32410600  0.83907000  1
loop_
_geom_bond_atom_site_label_1
_geom_bond_atom_site_label_2
_geom_bond_distance
_geom_bond_site_symmetry_2
Li0 O1 1.851739 1_555
Li0 O4 2.211350 1_565
Li0 O7 2.211352 1_455
Li0 O5 2.211354 1_555
Li1 O6 1.851739 1_555
Li1 O3 2.211350 1_545
Li1 O0 2.211352 1_655
Li1 O2 2.211354 1_555
Nb0 O2 2.107292 1_555
Nb0 O5 2.107292 1_444
Nb0 O4 2.107292 1_554
Nb0 O3 2.107292 1_445
Nb0 O7 2.107292 1_454
Nb0 O0 2.107292 1_545
O0 P0 1.586010 1_555
O1 P0 1.496089 1_555
O2 P0 1.586015 1_555
O3 P0 1.586013 1_555
O4 P1 1.586013 1_555
O5 P1 1.586015 1_555
O6 P1 1.496089 1_555
O7 P1 1.586010 1_555
