# generated using pymatgen
data_Li4Ti4VCr4O18
_symmetry_space_group_name_H-M   'P 1'
_cell_length_a   2.96166000
_cell_length_b   9.14792000
_cell_length_c   24.80830900
_cell_angle_alpha   90.00000000
_cell_angle_beta   90.00000000
_cell_angle_gamma   90.00000000
_symmetry_Int_Tables_number   1
_chemical_formula_structural   Li4Ti4VCr4O18
_chemical_formula_sum   'Li8 Ti8 V2 Cr8 O36'
_cell_volume   672.13222891
_cell_formula_units_Z   2
loop_
 _symmetry_equiv_pos_site_id
 _symmetry_equiv_pos_as_xyz
  1  'x, y, z'
loop_
 _atom_site_type_symbol
 _atom_site_label
 _atom_site_symmetry_multiplicity
 _atom_site_fract_x
 _atom_site_fract_y
 _atom_site_fract_z
 _atom_site_occupancy
  Li  Li0  1  0.00000000  0.19184800  0.98822100  1
  Li  Li1  1  0.00000000  0.20347900  0.18946500  1
  Li  Li2  1  0.00000000  0.29652100  0.68946500  1
  Li  Li3  1  0.00000000  0.30815200  0.48822100  1
  Li  Li4  1  0.00000000  0.69184800  0.51177900  1
  Li  Li5  1  0.00000000  0.70347900  0.31053500  1
  Li  Li6  1  0.00000000  0.79652100  0.81053500  1
  Li  Li7  1  0.00000000  0.80815200  0.01177900  1
  Ti  Ti0  1  0.00000000  0.99679300  0.10190800  1
  Ti  Ti1  1  0.50000000  0.15854700  0.80470300  1
  Ti  Ti2  1  0.50000000  0.34145300  0.30470300  1
  Ti  Ti3  1  0.00000000  0.50320700  0.60190800  1
  Ti  Ti4  1  0.00000000  0.49679300  0.39809200  1
  Ti  Ti5  1  0.50000000  0.65854700  0.69529700  1
  Ti  Ti6  1  0.50000000  0.84145300  0.19529700  1
  Ti  Ti7  1  0.00000000  0.00320700  0.89809200  1
  V  V0  1  0.00000000  0.00000000  0.50000000  1
  V  V1  1  0.00000000  0.50000000  0.00000000  1
  Cr  Cr0  1  0.00000000  0.00287600  0.31235400  1
  Cr  Cr1  1  0.50000000  0.15584000  0.58449000  1
  Cr  Cr2  1  0.50000000  0.34416000  0.08449000  1
  Cr  Cr3  1  0.00000000  0.49712400  0.81235400  1
  Cr  Cr4  1  0.00000000  0.50287600  0.18764600  1
  Cr  Cr5  1  0.50000000  0.65584000  0.91551000  1
  Cr  Cr6  1  0.50000000  0.84416000  0.41551000  1
  Cr  Cr7  1  0.00000000  0.99712400  0.68764600  1
  O  O0  1  0.00000000  0.99175400  0.42323200  1
  O  O1  1  0.00000000  0.00824600  0.57676800  1
  O  O2  1  0.50000000  0.06576100  0.94208800  1
  O  O3  1  0.50000000  0.04225600  0.15810700  1
  O  O4  1  0.50000000  0.12986300  0.66341900  1
  O  O5  1  0.00000000  0.10767500  0.75487200  1
  O  O6  1  0.50000000  0.14762800  0.50220900  1
  O  O7  1  0.50000000  0.13664400  0.28968300  1
  O  O8  1  0.00000000  0.18898800  0.85473400  1
  O  O9  1  0.00000000  0.19707000  0.08162400  1
  O  O10  1  0.00000000  0.30293000  0.58162400  1
  O  O11  1  0.00000000  0.31101200  0.35473400  1
  O  O12  1  0.50000000  0.36335600  0.78968300  1
  O  O13  1  0.50000000  0.35237200  0.00220900  1
  O  O14  1  0.00000000  0.39232500  0.25487200  1
  O  O15  1  0.50000000  0.37013700  0.16341900  1
  O  O16  1  0.50000000  0.45774400  0.65810700  1
  O  O17  1  0.50000000  0.43423900  0.44208800  1
  O  O18  1  0.00000000  0.49175400  0.07676800  1
  O  O19  1  0.00000000  0.50824600  0.92323200  1
  O  O20  1  0.50000000  0.56576100  0.55791200  1
  O  O21  1  0.50000000  0.54225600  0.34189300  1
  O  O22  1  0.50000000  0.62986300  0.83658100  1
  O  O23  1  0.00000000  0.60767500  0.74512800  1
  O  O24  1  0.50000000  0.64762800  0.99779100  1
  O  O25  1  0.50000000  0.63664400  0.21031700  1
  O  O26  1  0.00000000  0.68898800  0.64526600  1
  O  O27  1  0.00000000  0.69707000  0.41837600  1
  O  O28  1  0.00000000  0.80293000  0.91837600  1
  O  O29  1  0.00000000  0.81101200  0.14526600  1
  O  O30  1  0.50000000  0.86335600  0.71031700  1
  O  O31  1  0.50000000  0.85237200  0.49779100  1
  O  O32  1  0.00000000  0.89232500  0.24512800  1
  O  O33  1  0.50000000  0.87013700  0.33658100  1
  O  O34  1  0.50000000  0.95774400  0.84189300  1
  O  O35  1  0.50000000  0.93423900  0.05791200  1
loop_
_geom_bond_atom_site_label_1
_geom_bond_atom_site_label_2
_geom_bond_distance
_geom_bond_site_symmetry_2
Li0 O13 2.114156 1_556
Li0 O13 2.114156 1_456
Li0 O2 2.198432 1_455
Li0 O2 2.198432 1_555
Li0 O9 2.317663 1_556
Li1 O15 2.221419 1_455
Li1 O15 2.221419 1_555
Li1 O3 2.230077 1_455
Li1 O3 2.230077 1_555
Li1 O14 2.370100 1_555
Li2 O4 2.221419 1_455
Li2 O4 2.221419 1_555
Li2 O16 2.230077 1_555
Li2 O16 2.230077 1_455
Li2 O5 2.370100 1_555
Li3 O6 2.114156 1_555
Li3 O6 2.114156 1_455
Li3 O17 2.198432 1_455
Li3 O17 2.198432 1_555
Li3 O10 2.317663 1_555
Li4 O31 2.114156 1_455
Li4 O31 2.114156 1_555
Li4 O20 2.198432 1_555
Li4 O20 2.198432 1_455
Li4 O27 2.317663 1_555
Li5 O33 2.221419 1_455
Li5 O33 2.221419 1_555
Li5 O21 2.230077 1_455
Li5 O21 2.230077 1_555
Li5 O32 2.370100 1_555
Li6 O22 2.221419 1_455
Li6 O22 2.221419 1_555
Li6 O34 2.230077 1_455
Li6 O34 2.230077 1_555
Li6 O23 2.370100 1_555
Li7 O24 2.114156 1_454
Li7 O24 2.114156 1_554
Li7 O35 2.198432 1_555
Li7 O35 2.198432 1_455
Li7 O28 2.317663 1_554
Cr0 O32 1.950432 1_545
Cr0 O7 2.001655 1_555
Cr0 O7 2.001655 1_455
Cr0 O33 2.007134 1_445
Cr0 O33 2.007134 1_545
Cr1 O4 1.972462 1_555
Cr1 O10 2.002115 1_555
Cr1 O10 2.002115 1_655
Cr1 O1 2.013091 1_655
Cr1 O1 2.013091 1_555
Cr1 O6 2.042634 1_555
Cr2 O15 1.972462 1_555
Cr2 O9 2.002115 1_555
Cr2 O9 2.002115 1_655
Cr2 O18 2.013091 1_655
Cr2 O18 2.013091 1_555
Cr2 O13 2.042634 1_555
Cr3 O23 1.950432 1_555
Cr3 O12 2.001655 1_555
Cr3 O12 2.001655 1_455
Cr3 O22 2.007134 1_455
Cr3 O22 2.007134 1_555
Cr4 O14 1.950432 1_555
Cr4 O25 2.001655 1_455
Cr4 O25 2.001655 1_555
Cr4 O15 2.007134 1_455
Cr4 O15 2.007134 1_555
Cr5 O22 1.972462 1_555
Cr5 O28 2.002115 1_555
Cr5 O28 2.002115 1_655
Cr5 O19 2.013091 1_555
Cr5 O19 2.013091 1_655
Cr5 O24 2.042634 1_555
Cr6 O33 1.972462 1_555
Cr6 O27 2.002115 1_655
Cr6 O27 2.002115 1_555
Cr6 O0 2.013091 1_555
Cr6 O0 2.013091 1_655
Cr6 O31 2.042634 1_555
Cr7 O5 1.950432 1_565
Cr7 O30 2.001655 1_555
Cr7 O30 2.001655 1_455
Cr7 O4 2.007134 1_565
Cr7 O4 2.007134 1_465
O0 V0 1.905978 1_565
O1 V0 1.905978 1_555
O2 Ti7 1.926555 1_555
O2 Ti7 1.926555 1_655
O3 Ti6 2.055612 1_545
O3 Ti0 2.075963 1_545
O3 Ti0 2.075963 1_645
O5 Ti1 1.984358 1_455
O5 Ti1 1.984358 1_555
O6 V0 2.004914 1_555
O6 V0 2.004914 1_655
O7 Ti2 1.910271 1_555
O8 Ti1 1.952164 1_555
O8 Ti1 1.952164 1_455
O8 Ti7 2.011301 1_555
O9 Ti0 1.899968 1_545
O10 Ti3 1.899968 1_555
O11 Ti2 1.952164 1_555
O11 Ti2 1.952164 1_455
O11 Ti4 2.011301 1_555
O12 Ti1 1.910271 1_555
O13 V1 2.004914 1_555
O13 V1 2.004914 1_655
O14 Ti2 1.984358 1_555
O14 Ti2 1.984358 1_455
O16 Ti5 2.055612 1_555
O16 Ti3 2.075963 1_655
O16 Ti3 2.075963 1_555
O17 Ti4 1.926555 1_655
O17 Ti4 1.926555 1_555
O18 V1 1.905978 1_555
O19 V1 1.905978 1_556
O20 Ti3 1.926555 1_555
O20 Ti3 1.926555 1_655
O21 Ti2 2.055612 1_555
O21 Ti4 2.075963 1_555
O21 Ti4 2.075963 1_655
O23 Ti5 1.984358 1_455
O23 Ti5 1.984358 1_555
O24 V1 2.004914 1_556
O24 V1 2.004914 1_656
O25 Ti6 1.910271 1_555
O26 Ti5 1.952164 1_555
O26 Ti5 1.952164 1_455
O26 Ti3 2.011301 1_555
O27 Ti4 1.899968 1_555
O28 Ti7 1.899968 1_565
O29 Ti6 1.952164 1_555
O29 Ti6 1.952164 1_455
O29 Ti0 2.011301 1_555
O30 Ti5 1.910271 1_555
O31 V0 2.004914 1_565
O31 V0 2.004914 1_665
O32 Ti6 1.984358 1_555
O32 Ti6 1.984358 1_455
O34 Ti1 2.055612 1_565
O34 Ti7 2.075963 1_565
O34 Ti7 2.075963 1_665
O35 Ti0 1.926555 1_555
O35 Ti0 1.926555 1_655
