# generated using pymatgen
data_Li3V(PO4)2
_symmetry_space_group_name_H-M   'P 1'
_cell_length_a   8.72930200
_cell_length_b   8.76497376
_cell_length_c   9.19945460
_cell_angle_alpha   86.82648936
_cell_angle_beta   87.20348096
_cell_angle_gamma   67.36176937
_symmetry_Int_Tables_number   1
_chemical_formula_structural   Li3V(PO4)2
_chemical_formula_sum   'Li12 V4 P8 O32'
_cell_volume   648.35428164
_cell_formula_units_Z   4
loop_
 _symmetry_equiv_pos_site_id
 _symmetry_equiv_pos_as_xyz
  1  'x, y, z'
loop_
 _atom_site_type_symbol
 _atom_site_label
 _atom_site_symmetry_multiplicity
 _atom_site_fract_x
 _atom_site_fract_y
 _atom_site_fract_z
 _atom_site_occupancy
  Li  Li0  1  0.12712600  0.35145100  0.20803200  1
  Li  Li1  1  0.36755500  0.12804400  0.70288800  1
  Li  Li2  1  0.84570800  0.03960900  0.54457800  1
  Li  Li3  1  0.89359400  0.07141700  0.23155900  1
  Li  Li4  1  0.41005300  0.56461200  0.23755900  1
  Li  Li5  1  0.11049600  0.90260700  0.77150300  1
  Li  Li6  1  0.56845200  0.43659400  0.75483400  1
  Li  Li7  1  0.15930000  0.96376000  0.46256200  1
  Li  Li8  1  0.95979400  0.14720800  0.96781400  1
  Li  Li9  1  0.60909500  0.87319200  0.32877100  1
  Li  Li10  1  0.86482300  0.62715800  0.77594000  1
  Li  Li11  1  0.89391900  0.72374100  0.10644100  1
  V  V0  1  0.51462500  0.22896200  0.09131600  1
  V  V1  1  0.23273300  0.51014600  0.59058900  1
  V  V2  1  0.76853200  0.49207200  0.40681300  1
  V  V3  1  0.48803500  0.77116200  0.90926900  1
  P  P0  1  0.28298600  0.01726000  0.06920300  1
  P  P1  1  0.01488700  0.28828700  0.56840800  1
  P  P2  1  0.57189800  0.23996300  0.43056200  1
  P  P3  1  0.23611000  0.57593600  0.93013500  1
  P  P4  1  0.75820500  0.43140300  0.07241500  1
  P  P5  1  0.43260300  0.76518700  0.57148600  1
  P  P6  1  0.99211500  0.71609500  0.42243900  1
  P  P7  1  0.72155300  0.98717600  0.92051600  1
  O  O0  1  0.11115000  0.03088400  0.12399400  1
  O  O1  1  0.02173400  0.11406200  0.61206400  1
  O  O2  1  0.32215200  0.15971700  0.13239400  1
  O  O3  1  0.16191600  0.31622200  0.63357700  1
  O  O4  1  0.63213500  0.05198300  0.44311200  1
  O  O5  1  0.04803200  0.62865500  0.94447000  1
  O  O6  1  0.72180400  0.96967800  0.09268900  1
  O  O7  1  0.97780500  0.68683000  0.59044000  1
  O  O8  1  0.16469900  0.57865600  0.37866200  1
  O  O9  1  0.56811500  0.15330000  0.88723900  1
  O  O10  1  0.33295700  0.47199700  0.06299700  1
  O  O11  1  0.46964600  0.32784600  0.56539600  1
  O  O12  1  0.47193600  0.31697900  0.29182600  1
  O  O13  1  0.31305100  0.47388400  0.79237300  1
  O  O14  1  0.73505900  0.27610600  0.41971100  1
  O  O15  1  0.27434000  0.73602600  0.91026700  1
  O  O16  1  0.73563000  0.26109100  0.08438900  1
  O  O17  1  0.27049000  0.72787500  0.57974400  1
  O  O18  1  0.67150300  0.53211200  0.20763100  1
  O  O19  1  0.53400200  0.68420700  0.70814900  1
  O  O20  1  0.54102800  0.68297600  0.43649600  1
  O  O21  1  0.66519800  0.52775100  0.93596700  1
  O  O22  1  0.42617600  0.84735300  0.11478100  1
  O  O23  1  0.84528500  0.42859900  0.61716700  1
  O  O24  1  0.01695400  0.31801800  0.39871700  1
  O  O25  1  0.30111800  0.02110500  0.89815900  1
  O  O26  1  0.94408200  0.38884100  0.06374100  1
  O  O27  1  0.37406800  0.95272800  0.55683500  1
  O  O28  1  0.85290200  0.68646000  0.33943100  1
  O  O29  1  0.68951700  0.83767900  0.86460700  1
  O  O30  1  0.98492400  0.89175300  0.38445300  1
  O  O31  1  0.88057400  0.99821300  0.85412100  1
loop_
_geom_bond_atom_site_label_1
_geom_bond_atom_site_label_2
_geom_bond_distance
_geom_bond_site_symmetry_2
Li0 O2 2.004522 1_555
Li0 O24 2.020746 1_555
Li0 O26 2.044060 1_455
Li1 O3 2.016262 1_555
Li1 O27 2.079343 1_545
Li1 O25 2.138293 1_555
Li1 O11 2.511409 1_555
Li1 O9 2.572925 1_555
Li2 O1 2.020461 1_655
Li2 O30 2.037288 1_545
Li2 O4 2.088486 1_555
Li2 O14 2.202872 1_555
Li3 O30 1.997873 1_545
Li3 O0 2.012010 1_655
Li3 O16 2.160201 1_555
Li3 O6 2.453288 1_545
Li3 O14 2.515689 1_555
Li4 O12 2.062965 1_555
Li4 O10 2.088320 1_555
Li4 O18 2.193767 1_555
Li4 O8 2.414698 1_555
Li5 O31 1.983703 1_455
Li5 O15 2.042353 1_555
Li5 O1 2.211605 1_565
Li5 O17 2.412512 1_555
Li6 O19 2.095744 1_555
Li6 O13 2.138466 1_555
Li6 O21 2.220905 1_555
Li6 O11 2.377610 1_555
Li7 O1 1.972491 1_565
Li7 O30 2.031801 1_455
Li7 O27 2.070286 1_555
Li7 O17 2.165486 1_555
Li8 O0 1.958447 1_656
Li8 O31 2.048088 1_545
Li8 O16 2.094187 1_556
Li8 O26 2.292294 1_556
Li9 O4 2.012082 1_565
Li9 O28 2.130485 1_555
Li9 O20 2.153382 1_555
Li9 O6 2.574627 1_555
Li10 O29 2.069552 1_555
Li10 O7 2.071820 1_555
Li10 O5 2.285155 1_655
Li10 O23 2.392832 1_555
Li10 O21 2.596059 1_555
Li11 O5 1.950238 1_654
Li11 O6 2.101239 1_555
Li11 O28 2.183276 1_555
O0 P0 1.520968 1_555
O1 P1 1.536556 1_555
O2 P0 1.562787 1_555
O2 V0 2.007924 1_555
O3 P1 1.549161 1_555
O3 V1 2.034273 1_555
O4 P2 1.523958 1_555
O5 P3 1.525774 1_555
O6 P7 1.582859 1_554
O6 V0 2.295808 1_565
O7 P6 1.559474 1_555
O7 V1 2.167368 1_655
O8 P6 1.574936 1_455
O8 V1 2.055019 1_555
O9 P7 1.580242 1_545
O9 V0 1.999094 1_556
O10 P3 1.556671 1_554
O10 V0 2.121032 1_555
O11 P2 1.548262 1_555
O11 V1 2.081870 1_555
O12 P2 1.551085 1_555
O12 V0 2.001421 1_555
O13 P3 1.561188 1_555
O13 V1 1.982063 1_555
O14 P2 1.571264 1_555
O14 V2 2.019953 1_555
O15 P3 1.562000 1_555
O15 V3 2.003732 1_555
O16 P4 1.576546 1_555
O16 V0 2.051708 1_555
O17 P5 1.567917 1_555
O17 V1 2.054375 1_555
O18 P4 1.553938 1_555
O18 V2 2.012347 1_555
O19 P5 1.547264 1_555
O19 V3 2.003340 1_555
O20 P5 1.554529 1_555
O20 V2 2.063474 1_555
O21 P4 1.549912 1_556
O21 V3 2.107805 1_555
O22 P0 1.582717 1_565
O22 V3 2.018536 1_554
O23 P1 1.581200 1_655
O23 V2 2.055128 1_555
O24 P1 1.568753 1_555
O24 V2 2.117916 1_455
O25 P0 1.573550 1_556
O25 V3 2.170674 1_545
O26 P4 1.517555 1_555
O27 P5 1.522137 1_555
O28 P6 1.575722 1_555
O28 V2 2.152705 1_555
O29 P7 1.558998 1_555
O29 V3 2.072304 1_555
O30 P6 1.537761 1_555
O31 P7 1.524294 1_555
