# generated using pymatgen
data_Li6CrCoP2(CO7)2
_symmetry_space_group_name_H-M   'P 1'
_cell_length_a   8.15790670
_cell_length_b   8.15897276
_cell_length_c   9.53970252
_cell_angle_alpha   74.33798518
_cell_angle_beta   105.65830177
_cell_angle_gamma   75.60374762
_symmetry_Int_Tables_number   1
_chemical_formula_structural   Li6CrCoP2(CO7)2
_chemical_formula_sum   'Li12 Cr2 Co2 P4 C4 O28'
_cell_volume   552.17340023
_cell_formula_units_Z   2
loop_
 _symmetry_equiv_pos_site_id
 _symmetry_equiv_pos_as_xyz
  1  'x, y, z'
loop_
 _atom_site_type_symbol
 _atom_site_label
 _atom_site_symmetry_multiplicity
 _atom_site_fract_x
 _atom_site_fract_y
 _atom_site_fract_z
 _atom_site_occupancy
  Li  Li0  1  0.57187100  0.67793900  0.10993400  1
  Li  Li1  1  0.07313600  0.17688700  0.11200700  1
  Li  Li2  1  0.92838400  0.81946800  0.89417500  1
  Li  Li3  1  0.43063400  0.32147100  0.89408500  1
  Li  Li4  1  0.27886200  0.74365100  0.27184700  1
  Li  Li5  1  0.77924000  0.23987200  0.26963600  1
  Li  Li6  1  0.50679900  0.97120100  0.27160000  1
  Li  Li7  1  0.01012400  0.47046700  0.26963300  1
  Li  Li8  1  0.98797900  0.53024500  0.72904000  1
  Li  Li9  1  0.48829300  0.03108500  0.72803000  1
  Li  Li10  1  0.21894500  0.76176600  0.72809400  1
  Li  Li11  1  0.71975100  0.26202800  0.72912400  1
  Cr  Cr0  1  0.05837500  0.19152200  0.66414400  1
  Cr  Cr1  1  0.55889400  0.69127800  0.66498100  1
  Co  Co0  1  0.93923400  0.80883200  0.33425300  1
  Co  Co1  1  0.44082700  0.31115700  0.33404100  1
  P  P0  1  0.69391100  0.55608500  0.40899800  1
  P  P1  1  0.19496000  0.05506700  0.41066800  1
  P  P2  1  0.80372200  0.94643700  0.58455000  1
  P  P3  1  0.30369700  0.44623300  0.58461700  1
  C  C0  1  0.74124700  0.00976900  0.04015700  1
  C  C1  1  0.24010600  0.50870600  0.03992000  1
  C  C2  1  0.76157200  0.48842300  0.96509800  1
  C  C3  1  0.26072600  0.98923100  0.96551100  1
  O  O0  1  0.87762000  0.87007300  0.06620000  1
  O  O1  1  0.38021000  0.37290900  0.06581900  1
  O  O2  1  0.37252500  0.87730000  0.10348500  1
  O  O3  1  0.87320600  0.37649600  0.10294000  1
  O  O4  1  0.71405100  0.04121800  0.16122500  1
  O  O5  1  0.20837400  0.53525500  0.16110400  1
  O  O6  1  0.67161600  0.07761700  0.42044100  1
  O  O7  1  0.17276000  0.57825200  0.42036900  1
  O  O8  1  0.54285500  0.70730400  0.41783900  1
  O  O9  1  0.04317900  0.20670300  0.41825200  1
  O  O10  1  0.95290300  0.79892300  0.56774400  1
  O  O11  1  0.45126600  0.29689500  0.56806300  1
  O  O12  1  0.82209400  0.42778800  0.57666700  1
  O  O13  1  0.32281000  0.92726700  0.57877100  1
  O  O14  1  0.78583700  0.46410100  0.84007600  1
  O  O15  1  0.28515500  0.96477600  0.84072600  1
  O  O16  1  0.13213500  0.61734800  0.89890300  1
  O  O17  1  0.63277200  0.11757900  0.89905700  1
  O  O18  1  0.62628300  0.62407000  0.94596600  1
  O  O19  1  0.12535700  0.12475700  0.94651100  1
  O  O20  1  0.60793900  0.45426900  0.30958400  1
  O  O21  1  0.10981600  0.95217600  0.31211700  1
  O  O22  1  0.79598000  0.64176100  0.30969400  1
  O  O23  1  0.29769700  0.14038000  0.31202300  1
  O  O24  1  0.89343200  0.04274700  0.68775400  1
  O  O25  1  0.39490400  0.54126800  0.68838800  1
  O  O26  1  0.70883100  0.85518300  0.68841500  1
  O  O27  1  0.20710000  0.35676900  0.68772300  1
loop_
_geom_bond_atom_site_label_1
_geom_bond_atom_site_label_2
_geom_bond_distance
_geom_bond_site_symmetry_2
Li0 O18 1.867065 1_554
Li0 O2 1.967447 1_555
Li0 O20 2.144354 1_555
Li0 O22 2.146728 1_555
Li1 O19 1.868279 1_554
Li1 O3 1.961372 1_455
Li1 O23 2.149533 1_555
Li1 O21 2.150421 1_545
Li2 O0 1.919048 1_556
Li2 O16 2.010159 1_655
Li2 O26 2.163267 1_555
Li2 O24 2.186195 1_565
Li3 O1 1.917944 1_556
Li3 O17 2.009980 1_555
Li3 O25 2.163990 1_555
Li3 O27 2.186036 1_555
Li4 O21 2.101468 1_555
Li4 O2 2.117471 1_555
Li4 O8 2.122754 1_555
Li4 O7 2.188215 1_555
Li4 O5 2.337923 1_555
Li5 O3 2.117751 1_555
Li5 O9 2.138863 1_655
Li5 O20 2.142403 1_555
Li5 O6 2.196488 1_555
Li5 O4 2.239690 1_555
Li6 O23 2.106068 1_565
Li6 O2 2.119278 1_555
Li6 O8 2.123788 1_555
Li6 O6 2.189380 1_565
Li6 O4 2.325971 1_565
Li7 O3 2.118850 1_455
Li7 O9 2.138175 1_555
Li7 O22 2.141471 1_455
Li7 O7 2.198764 1_555
Li7 O5 2.236180 1_555
Li8 O16 2.126635 1_655
Li8 O27 2.185753 1_655
Li8 O12 2.190853 1_555
Li8 O10 2.210022 1_555
Li8 O14 2.282415 1_555
Li9 O17 2.132226 1_555
Li9 O13 2.179363 1_545
Li9 O11 2.182191 1_555
Li9 O26 2.194389 1_545
Li9 O15 2.299618 1_545
Li10 O16 2.132201 1_555
Li10 O13 2.180005 1_555
Li10 O10 2.184625 1_455
Li10 O25 2.194961 1_555
Li10 O15 2.298314 1_555
Li11 O17 2.127363 1_555
Li11 O24 2.187867 1_555
Li11 O12 2.190052 1_555
Li11 O11 2.208296 1_555
Li11 O14 2.281529 1_555
Cr0 O24 2.040329 1_455
Cr0 O27 2.042121 1_555
Cr0 O12 2.131513 1_455
Cr0 O15 2.148510 1_545
Cr0 O9 2.282917 1_555
Cr0 O19 2.473159 1_555
Cr1 O26 2.040018 1_555
Cr1 O25 2.040955 1_555
Cr1 O13 2.130492 1_555
Cr1 O14 2.146149 1_555
Cr1 O8 2.291573 1_555
Cr1 O18 2.459491 1_555
Co0 O22 2.023741 1_555
Co0 O21 2.045365 1_655
Co0 O7 2.093337 1_655
Co0 O4 2.153053 1_565
Co0 O10 2.178221 1_555
Co0 O0 2.352176 1_555
Co1 O20 2.023000 1_555
Co1 O23 2.045387 1_555
Co1 O6 2.094115 1_555
Co1 O5 2.149268 1_555
Co1 O11 2.181062 1_555
Co1 O1 2.354284 1_555
C0 O0 1.290695 1_545
C0 O17 1.303594 1_554
C0 O4 1.311105 1_555
C1 O1 1.290365 1_555
C1 O16 1.303683 1_554
C1 O5 1.311210 1_555
C2 O18 1.284952 1_555
C2 O3 1.297741 1_556
C2 O14 1.317850 1_555
C3 O19 1.285153 1_565
C3 O2 1.298889 1_556
C3 O15 1.316487 1_555
O6 P2 1.539130 1_545
O7 P3 1.539313 1_555
O8 P0 1.550543 1_555
O9 P1 1.550483 1_555
O10 P2 1.560938 1_555
O11 P3 1.560749 1_555
O12 P0 1.548058 1_555
O13 P1 1.549290 1_565
O20 P0 1.561230 1_555
O21 P1 1.560338 1_565
O22 P0 1.561122 1_555
O23 P1 1.560347 1_555
O24 P2 1.561121 1_545
O25 P3 1.561589 1_555
O26 P2 1.561305 1_555
O27 P3 1.561424 1_555
