# generated using pymatgen
data_Na5TlO4
_symmetry_space_group_name_H-M   'P 1'
_cell_length_a   10.67914988
_cell_length_b   10.70631357
_cell_length_c   10.73647636
_cell_angle_alpha   90.00000000
_cell_angle_beta   90.00000000
_cell_angle_gamma   90.00000000
_symmetry_Int_Tables_number   1
_chemical_formula_structural   Na5TlO4
_chemical_formula_sum   'Na40 Tl8 O32'
_cell_volume   1227.54780194
_cell_formula_units_Z   8
loop_
 _symmetry_equiv_pos_site_id
 _symmetry_equiv_pos_as_xyz
  1  'x, y, z'
loop_
 _atom_site_type_symbol
 _atom_site_label
 _atom_site_symmetry_multiplicity
 _atom_site_fract_x
 _atom_site_fract_y
 _atom_site_fract_z
 _atom_site_occupancy
  Na  Na0  1  0.10429010  0.11783158  0.34034148  1
  Na  Na1  1  0.60429010  0.88216842  0.15965852  1
  Na  Na2  1  0.39570990  0.61783158  0.65965852  1
  Na  Na3  1  0.89570990  0.38216842  0.84034148  1
  Na  Na4  1  0.89570990  0.88216842  0.65965852  1
  Na  Na5  1  0.39570990  0.11783158  0.84034148  1
  Na  Na6  1  0.60429010  0.38216842  0.34034148  1
  Na  Na7  1  0.10429010  0.61783158  0.15965852  1
  Na  Na8  1  0.12666801  0.85009904  0.38170555  1
  Na  Na9  1  0.62666801  0.14990096  0.11829445  1
  Na  Na10  1  0.37333199  0.35009904  0.61829445  1
  Na  Na11  1  0.87333199  0.64990096  0.88170555  1
  Na  Na12  1  0.87333199  0.14990096  0.61829445  1
  Na  Na13  1  0.37333199  0.85009904  0.88170555  1
  Na  Na14  1  0.62666801  0.64990096  0.38170555  1
  Na  Na15  1  0.12666801  0.35009904  0.11829445  1
  Na  Na16  1  0.66222089  0.10805189  0.38266097  1
  Na  Na17  1  0.16222089  0.89194811  0.11733903  1
  Na  Na18  1  0.83777911  0.60805189  0.61733903  1
  Na  Na19  1  0.33777911  0.39194811  0.88266097  1
  Na  Na20  1  0.33777911  0.89194811  0.61733903  1
  Na  Na21  1  0.83777911  0.10805189  0.88266097  1
  Na  Na22  1  0.16222089  0.39194811  0.38266097  1
  Na  Na23  1  0.66222089  0.60805189  0.11733903  1
  Na  Na24  1  0.89778818  0.62299078  0.34940116  1
  Na  Na25  1  0.39778818  0.37700922  0.15059884  1
  Na  Na26  1  0.60221182  0.12299078  0.65059884  1
  Na  Na27  1  0.10221182  0.87700922  0.84940116  1
  Na  Na28  1  0.10221182  0.37700922  0.65059884  1
  Na  Na29  1  0.60221182  0.62299078  0.84940116  1
  Na  Na30  1  0.39778818  0.87700922  0.34940116  1
  Na  Na31  1  0.89778818  0.12299078  0.15059884  1
  Na  Na32  1  0.85425090  0.88888411  0.39143918  1
  Na  Na33  1  0.35425090  0.11111589  0.10856082  1
  Na  Na34  1  0.64574910  0.38888411  0.60856082  1
  Na  Na35  1  0.14574910  0.61111589  0.89143918  1
  Na  Na36  1  0.14574910  0.11111589  0.60856082  1
  Na  Na37  1  0.64574910  0.88888411  0.89143918  1
  Na  Na38  1  0.35425090  0.61111589  0.39143918  1
  Na  Na39  1  0.85425090  0.38888411  0.10856082  1
  Tl  Tl0  1  0.88314099  0.34902611  0.38597468  1
  Tl  Tl1  1  0.38314099  0.65097389  0.11402532  1
  Tl  Tl2  1  0.61685901  0.84902611  0.61402532  1
  Tl  Tl3  1  0.11685901  0.15097389  0.88597468  1
  Tl  Tl4  1  0.11685901  0.65097389  0.61402532  1
  Tl  Tl5  1  0.61685901  0.34902611  0.88597468  1
  Tl  Tl6  1  0.38314099  0.15097389  0.38597468  1
  Tl  Tl7  1  0.88314099  0.84902611  0.11402532  1
  O  O0  1  0.52031790  0.24982056  0.49417054  1
  O  O1  1  0.02031790  0.75017944  0.00582946  1
  O  O2  1  0.97968210  0.74982056  0.50582946  1
  O  O3  1  0.47968210  0.25017944  0.99417054  1
  O  O4  1  0.47968210  0.75017944  0.50582946  1
  O  O5  1  0.97968210  0.24982056  0.99417054  1
  O  O6  1  0.02031790  0.25017944  0.49417054  1
  O  O7  1  0.52031790  0.74982056  0.00582946  1
  O  O8  1  0.76009578  0.25246962  0.25413318  1
  O  O9  1  0.26009578  0.74753038  0.24586682  1
  O  O10  1  0.73990422  0.75246962  0.74586682  1
  O  O11  1  0.23990422  0.24753038  0.75413318  1
  O  O12  1  0.23990422  0.74753038  0.74586682  1
  O  O13  1  0.73990422  0.25246962  0.75413318  1
  O  O14  1  0.26009578  0.24753038  0.25413318  1
  O  O15  1  0.76009578  0.75246962  0.24586682  1
  O  O16  1  0.99946519  0.46025407  0.25518551  1
  O  O17  1  0.49946519  0.53974593  0.24481449  1
  O  O18  1  0.50053481  0.96025407  0.74481449  1
  O  O19  1  0.00053481  0.03974593  0.75518551  1
  O  O20  1  0.00053481  0.53974593  0.74481449  1
  O  O21  1  0.50053481  0.46025407  0.75518551  1
  O  O22  1  0.49946519  0.03974593  0.25518551  1
  O  O23  1  0.99946519  0.96025407  0.24481449  1
  O  O24  1  0.75571527  0.49190532  0.45854288  1
  O  O25  1  0.25571527  0.50809468  0.04145712  1
  O  O26  1  0.74428473  0.99190532  0.54145712  1
  O  O27  1  0.24428473  0.00809468  0.95854288  1
  O  O28  1  0.24428473  0.50809468  0.54145712  1
  O  O29  1  0.74428473  0.49190532  0.95854288  1
  O  O30  1  0.25571527  0.00809468  0.45854288  1
  O  O31  1  0.75571527  0.99190532  0.04145712  1
loop_
_geom_bond_atom_site_label_1
_geom_bond_atom_site_label_2
_geom_bond_distance
_geom_bond_site_symmetry_2
Na0 O23 2.269641 1_445
Na0 O6 2.353647 1_555
Na0 O14 2.356556 1_555
Na0 O30 2.367669 1_555
Na1 O22 2.269641 1_565
Na1 O7 2.353647 1_555
Na1 O15 2.356556 1_555
Na1 O31 2.367669 1_555
Na2 O21 2.269641 1_555
Na2 O4 2.353647 1_555
Na2 O12 2.356556 1_555
Na2 O28 2.367669 1_555
Na3 O20 2.269641 1_655
Na3 O5 2.353647 1_555
Na3 O13 2.356556 1_555
Na3 O29 2.367669 1_555
Na4 O19 2.269641 1_665
Na4 O2 2.353647 1_555
Na4 O10 2.356556 1_555
Na4 O26 2.367669 1_555
Na5 O18 2.269641 1_545
Na5 O3 2.353647 1_555
Na5 O11 2.356556 1_555
Na5 O27 2.367669 1_555
Na6 O17 2.269641 1_555
Na6 O0 2.353647 1_555
Na6 O8 2.356556 1_555
Na6 O24 2.367669 1_555
Na7 O16 2.269641 1_455
Na7 O1 2.353647 1_555
Na7 O9 2.356556 1_555
Na7 O25 2.367669 1_555
Na8 O9 2.315866 1_555
Na8 O2 2.322180 1_455
Na8 O23 2.322988 1_455
Na8 O30 2.332618 1_565
Na9 O8 2.315866 1_555
Na9 O3 2.322180 1_554
Na9 O22 2.322988 1_555
Na9 O31 2.332618 1_545
Na10 O11 2.315866 1_555
Na10 O0 2.322180 1_555
Na10 O21 2.322988 1_555
Na10 O28 2.332618 1_555
Na11 O10 2.315866 1_555
Na11 O1 2.322180 1_656
Na11 O20 2.322988 1_655
Na11 O29 2.332618 1_555
Na12 O13 2.315866 1_555
Na12 O6 2.322180 1_655
Na12 O19 2.322988 1_655
Na12 O26 2.332618 1_545
Na13 O12 2.315866 1_555
Na13 O7 2.322180 1_556
Na13 O18 2.322988 1_555
Na13 O27 2.332618 1_565
Na14 O15 2.315866 1_555
Na14 O4 2.322180 1_555
Na14 O17 2.322988 1_555
Na14 O24 2.332618 1_555
Na15 O14 2.315866 1_555
Na15 O5 2.322180 1_454
Na15 O16 2.322988 1_455
Na15 O25 2.332618 1_555
Na16 O26 2.284961 1_545
Na16 O8 2.321074 1_555
Na16 O22 2.330009 1_555
Na16 O0 2.456331 1_555
Na17 O27 2.284961 1_564
Na17 O9 2.321074 1_555
Na17 O23 2.330009 1_455
Na17 O1 2.456331 1_555
Na18 O24 2.284961 1_555
Na18 O10 2.321074 1_555
Na18 O20 2.330009 1_655
Na18 O2 2.456331 1_555
Na19 O25 2.284961 1_556
Na19 O11 2.321074 1_555
Na19 O21 2.330009 1_555
Na19 O3 2.456331 1_555
Na20 O30 2.284961 1_565
Na20 O12 2.321074 1_555
Na20 O18 2.330009 1_555
Na20 O4 2.456331 1_555
Na21 O31 2.284961 1_546
Na21 O13 2.321074 1_555
Na21 O19 2.330009 1_655
Na21 O5 2.456331 1_555
Na22 O28 2.284961 1_555
Na22 O14 2.321074 1_555
Na22 O16 2.330009 1_455
Na22 O6 2.456331 1_555
Na23 O29 2.284961 1_554
Na23 O15 2.321074 1_555
Na23 O17 2.330009 1_555
Na23 O7 2.456331 1_555
Na24 O16 2.288642 1_555
Na24 O15 2.306403 1_555
Na24 O2 2.330101 1_555
Na24 O24 2.375860 1_555
Na25 O17 2.288642 1_555
Na25 O14 2.306403 1_555
Na25 O3 2.330101 1_554
Na25 O25 2.375860 1_555
Na26 O18 2.288642 1_545
Na26 O13 2.306403 1_555
Na26 O0 2.330101 1_555
Na26 O26 2.375860 1_545
Na27 O19 2.288642 1_565
Na27 O12 2.306403 1_555
Na27 O1 2.330101 1_556
Na27 O27 2.375860 1_565
Na28 O20 2.288642 1_555
Na28 O11 2.306403 1_555
Na28 O6 2.330101 1_555
Na28 O28 2.375860 1_555
Na29 O21 2.288642 1_555
Na29 O10 2.306403 1_555
Na29 O7 2.330101 1_556
Na29 O29 2.375860 1_555
Na30 O22 2.288642 1_565
Na30 O9 2.306403 1_555
Na30 O4 2.330101 1_555
Na30 O30 2.375860 1_565
Na31 O23 2.288642 1_545
Na31 O8 2.306403 1_555
Na31 O5 2.330101 1_554
Na31 O31 2.375860 1_545
Na32 O26 2.278132 1_555
Na32 O23 2.338150 1_555
Na32 O2 2.349320 1_555
Na32 O15 2.363649 1_555
Na33 O27 2.278132 1_554
Na33 O22 2.338150 1_555
Na33 O3 2.349320 1_554
Na33 O14 2.363649 1_555
Na34 O24 2.278132 1_555
Na34 O21 2.338150 1_555
Na34 O0 2.349320 1_555
Na34 O13 2.363649 1_555
Na35 O25 2.278132 1_556
Na35 O20 2.338150 1_555
Na35 O1 2.349320 1_556
Na35 O12 2.363649 1_555
Na36 O30 2.278132 1_555
Na36 O19 2.338150 1_555
Na36 O6 2.349320 1_555
Na36 O11 2.363649 1_555
Na37 O31 2.278132 1_556
Na37 O18 2.338150 1_555
Na37 O7 2.349320 1_556
Na37 O10 2.363649 1_555
Na38 O28 2.278132 1_555
Na38 O17 2.338150 1_555
Na38 O4 2.349320 1_555
Na38 O9 2.363649 1_555
Na39 O29 2.278132 1_554
Na39 O16 2.338150 1_555
Na39 O5 2.349320 1_554
Na39 O8 2.363649 1_555
O0 Tl6 2.148349 1_555
O1 Tl7 2.148349 1_455
O2 Tl4 2.148349 1_655
O3 Tl5 2.148349 1_555
O4 Tl2 2.148349 1_555
O5 Tl3 2.148349 1_655
O6 Tl0 2.148349 1_455
O7 Tl1 2.148349 1_555
O8 Tl0 2.190660 1_555
O9 Tl1 2.190660 1_555
O10 Tl2 2.190660 1_555
O11 Tl3 2.190660 1_555
O12 Tl4 2.190660 1_555
O13 Tl5 2.190660 1_555
O14 Tl6 2.190660 1_555
O15 Tl7 2.190660 1_555
O16 Tl0 2.221056 1_555
O17 Tl1 2.221056 1_555
O18 Tl2 2.221056 1_555
O19 Tl3 2.221056 1_555
O20 Tl4 2.221056 1_555
O21 Tl5 2.221056 1_555
O22 Tl6 2.221056 1_555
O23 Tl7 2.221056 1_555
O24 Tl0 2.190621 1_555
O25 Tl1 2.190621 1_555
O26 Tl2 2.190621 1_555
O27 Tl3 2.190621 1_555
O28 Tl4 2.190621 1_555
O29 Tl5 2.190621 1_555
O30 Tl6 2.190621 1_555
O31 Tl7 2.190621 1_555
