# generated using pymatgen
data_LiTaWO6
_symmetry_space_group_name_H-M   'P 1'
_cell_length_a   7.44351400
_cell_length_b   7.44351400
_cell_length_c   10.44811600
_cell_angle_alpha   90.00000000
_cell_angle_beta   90.00000000
_cell_angle_gamma   90.00000000
_symmetry_Int_Tables_number   1
_chemical_formula_structural   LiTaWO6
_chemical_formula_sum   'Li4 Ta4 W4 O24'
_cell_volume   578.88727727
_cell_formula_units_Z   4
loop_
 _symmetry_equiv_pos_site_id
 _symmetry_equiv_pos_as_xyz
  1  'x, y, z'
loop_
 _atom_site_type_symbol
 _atom_site_label
 _atom_site_symmetry_multiplicity
 _atom_site_fract_x
 _atom_site_fract_y
 _atom_site_fract_z
 _atom_site_occupancy
  Li  Li0  1  0.50000000  0.13712500  0.00000000  1
  Li  Li1  1  0.86287500  0.50000000  0.25000000  1
  Li  Li2  1  0.50000000  0.86287500  0.50000000  1
  Li  Li3  1  0.13712500  0.50000000  0.75000000  1
  Ta  Ta0  1  0.50000000  0.74122300  0.00000000  1
  Ta  Ta1  1  0.25877700  0.50000000  0.25000000  1
  Ta  Ta2  1  0.50000000  0.25877700  0.50000000  1
  Ta  Ta3  1  0.74122300  0.50000000  0.75000000  1
  W  W0  1  0.00000000  0.74788100  0.00000000  1
  W  W1  1  0.25211900  0.00000000  0.25000000  1
  W  W2  1  0.00000000  0.25211900  0.50000000  1
  W  W3  1  0.74788100  0.00000000  0.75000000  1
  O  O0  1  0.55981100  0.55981100  0.87500000  1
  O  O1  1  0.92903500  0.92903500  0.87500000  1
  O  O2  1  0.56509300  0.94649600  0.87899600  1
  O  O3  1  0.94649600  0.56509300  0.87100400  1
  O  O4  1  0.74307400  0.24498600  0.80946900  1
  O  O5  1  0.25692600  0.24498600  0.19053100  1
  O  O6  1  0.44018900  0.55981100  0.12500000  1
  O  O7  1  0.05350400  0.56509300  0.12899600  1
  O  O8  1  0.07096500  0.92903500  0.12500000  1
  O  O9  1  0.43490700  0.94649600  0.12100400  1
  O  O10  1  0.75501400  0.74307400  0.05946900  1
  O  O11  1  0.75501400  0.25692600  0.44053100  1
  O  O12  1  0.44018900  0.44018900  0.37500000  1
  O  O13  1  0.07096500  0.07096500  0.37500000  1
  O  O14  1  0.05350400  0.43490700  0.37100400  1
  O  O15  1  0.43490700  0.05350400  0.37899600  1
  O  O16  1  0.25692600  0.75501400  0.30946900  1
  O  O17  1  0.74307400  0.75501400  0.69053100  1
  O  O18  1  0.56509300  0.05350400  0.62100400  1
  O  O19  1  0.92903500  0.07096500  0.62500000  1
  O  O20  1  0.55981100  0.44018900  0.62500000  1
  O  O21  1  0.94649600  0.43490700  0.62899600  1
  O  O22  1  0.24498600  0.25692600  0.55946900  1
  O  O23  1  0.24498600  0.74307400  0.94053100  1
loop_
_geom_bond_atom_site_label_1
_geom_bond_atom_site_label_2
_geom_bond_distance
_geom_bond_site_symmetry_2
Li0 O2 1.961260 1_544
Li0 O9 1.961260 1_545
Li1 O7 1.961260 1_655
Li1 O14 1.961260 1_655
Li2 O18 1.961260 1_565
Li2 O15 1.961260 1_565
Li3 O3 1.961260 1_455
Li3 O21 1.961260 1_455
O0 Ta3 1.930623 1_555
O0 Ta0 1.930623 1_556
O1 W3 1.950113 1_565
O1 W0 1.950113 1_656
O2 W3 1.956086 1_565
O2 Ta0 2.041510 1_556
O3 W0 1.956086 1_656
O3 Ta3 2.041510 1_555
O4 W3 1.926837 1_555
O4 Ta3 1.997352 1_555
O5 W1 1.926837 1_555
O5 Ta1 1.997352 1_555
O6 Ta1 1.930623 1_555
O6 Ta0 1.930623 1_555
O7 W0 1.956086 1_555
O7 Ta1 2.041510 1_555
O8 W1 1.950113 1_565
O8 W0 1.950113 1_555
O9 W1 1.956086 1_565
O9 Ta0 2.041510 1_555
O10 W0 1.926837 1_655
O10 Ta0 1.997352 1_555
O11 W2 1.926837 1_655
O11 Ta2 1.997352 1_555
O12 Ta1 1.930623 1_555
O12 Ta2 1.930623 1_555
O13 W2 1.950113 1_555
O13 W1 1.950113 1_555
O14 W2 1.956086 1_555
O14 Ta1 2.041510 1_555
O15 W1 1.956086 1_555
O15 Ta2 2.041510 1_555
O16 W1 1.926837 1_565
O16 Ta1 1.997352 1_555
O17 W3 1.926837 1_565
O17 Ta3 1.997352 1_555
O18 W3 1.956086 1_555
O18 Ta2 2.041510 1_555
O19 W2 1.950113 1_655
O19 W3 1.950113 1_555
O20 Ta3 1.930623 1_555
O20 Ta2 1.930623 1_555
O21 W2 1.956086 1_655
O21 Ta3 2.041510 1_555
O22 W2 1.926837 1_555
O22 Ta2 1.997352 1_555
O23 W0 1.926837 1_556
O23 Ta0 1.997352 1_556
