# generated using pymatgen
data_Li3Ti2MnO6
_symmetry_space_group_name_H-M   'P 1'
_cell_length_a   5.92607998
_cell_length_b   6.92492933
_cell_length_c   6.70715543
_cell_angle_alpha   84.42788902
_cell_angle_beta   116.25979540
_cell_angle_gamma   77.70246437
_symmetry_Int_Tables_number   1
_chemical_formula_structural   Li3Ti2MnO6
_chemical_formula_sum   'Li6 Ti4 Mn2 O12'
_cell_volume   235.35600770
_cell_formula_units_Z   2
loop_
 _symmetry_equiv_pos_site_id
 _symmetry_equiv_pos_as_xyz
  1  'x, y, z'
loop_
 _atom_site_type_symbol
 _atom_site_label
 _atom_site_symmetry_multiplicity
 _atom_site_fract_x
 _atom_site_fract_y
 _atom_site_fract_z
 _atom_site_occupancy
  Li  Li0  1  0.75207000  0.32685600  0.16811200  1
  Li  Li1  1  0.24821500  0.33941600  0.16557900  1
  Li  Li2  1  0.75843100  0.98603600  0.51012700  1
  Li  Li3  1  0.26031600  0.97885600  0.50933100  1
  Li  Li4  1  0.73994300  0.68752900  0.82410400  1
  Li  Li5  1  0.24156000  0.68090500  0.82306000  1
  Ti  Ti0  1  0.00412200  0.00743800  0.00173000  1
  Ti  Ti1  1  0.49050900  0.00865100  0.99906300  1
  Ti  Ti2  1  0.50945200  0.65810800  0.33415900  1
  Ti  Ti3  1  0.99587600  0.65916000  0.33159600  1
  Mn  Mn0  1  0.49999100  0.33324400  0.66669600  1
  Mn  Mn1  1  0.99999000  0.33334400  0.66671900  1
  O  O0  1  0.63659700  0.99624900  0.77214000  1
  O  O1  1  0.13472200  0.99307700  0.76594000  1
  O  O2  1  0.86517500  0.67378500  0.56725200  1
  O  O3  1  0.36329200  0.67036900  0.56097200  1
  O  O4  1  0.62012800  0.69099400  0.08585600  1
  O  O5  1  0.12607800  0.68849500  0.09283200  1
  O  O6  1  0.87385700  0.97830600  0.24035000  1
  O  O7  1  0.37982800  0.97578500  0.24737400  1
  O  O8  1  0.60914000  0.36791100  0.39988800  1
  O  O9  1  0.10463200  0.37074000  0.39802000  1
  O  O10  1  0.89529700  0.29594700  0.93549100  1
  O  O11  1  0.39077700  0.29879800  0.93360800  1
loop_
_geom_bond_atom_site_label_1
_geom_bond_atom_site_label_2
_geom_bond_distance
_geom_bond_site_symmetry_2
Li0 O9 2.084704 1_655
Li0 O11 2.086236 1_554
Li0 O10 2.088021 1_554
Li0 O8 2.088855 1_555
Li0 O6 2.302806 1_545
Li0 O4 2.404703 1_555
Li1 O10 2.085332 1_454
Li1 O8 2.085445 1_555
Li1 O11 2.088174 1_554
Li1 O9 2.088655 1_555
Li1 O5 2.306219 1_555
Li1 O7 2.401393 1_545
Li2 O2 2.065077 1_555
Li2 O1 2.143781 1_655
Li2 O7 2.176698 1_555
Li2 O0 2.177094 1_555
Li2 O6 2.200737 1_555
Li2 O8 2.523372 1_565
Li3 O3 2.042031 1_555
Li3 O1 2.158962 1_555
Li3 O7 2.165874 1_555
Li3 O0 2.184368 1_555
Li3 O6 2.201975 1_455
Li3 O9 2.589137 1_565
Li4 O0 2.043453 1_555
Li4 O2 2.158880 1_555
Li4 O4 2.165840 1_556
Li4 O3 2.186065 1_555
Li4 O5 2.200938 1_656
Li4 O10 2.587167 1_555
Li5 O1 2.064552 1_555
Li5 O2 2.144331 1_455
Li5 O4 2.176289 1_556
Li5 O3 2.177255 1_555
Li5 O5 2.200891 1_556
Li5 O11 2.524967 1_555
Mn0 O8 2.164575 1_555
Mn0 O11 2.165358 1_555
Mn0 O9 2.172110 1_555
Mn0 O10 2.172430 1_555
Mn0 O0 2.229269 1_545
Mn0 O3 2.230218 1_555
Mn1 O11 2.153419 1_655
Mn1 O8 2.153512 1_555
Mn1 O9 2.160152 1_655
Mn1 O10 2.160823 1_555
Mn1 O1 2.248670 1_645
Mn1 O2 2.249869 1_555
O0 Ti1 2.057437 1_565
O0 Ti0 2.061108 1_666
O1 Ti1 2.028373 1_565
O1 Ti0 2.047144 1_566
O2 Ti2 2.028290 1_555
O2 Ti3 2.046799 1_555
O3 Ti2 2.057043 1_555
O3 Ti3 2.060274 1_455
O4 Ti3 2.048459 1_555
O4 Ti2 2.052351 1_555
O4 Ti1 2.098496 1_564
O5 Ti3 2.073204 1_455
O5 Ti2 2.074112 1_555
O5 Ti0 2.107378 1_565
O6 Ti0 2.072439 1_665
O6 Ti1 2.073983 1_564
O6 Ti3 2.108741 1_555
O7 Ti0 2.048335 1_565
O7 Ti1 2.052408 1_564
O7 Ti2 2.098626 1_555
O8 Ti2 1.916663 1_555
O9 Ti3 1.904679 1_455
O10 Ti0 1.905294 1_656
O11 Ti1 1.916342 1_555
