# generated using pymatgen
data_Li4Ti2Co7O18
_symmetry_space_group_name_H-M   'P 1'
_cell_length_a   2.89601100
_cell_length_b   8.86869200
_cell_length_c   24.93877100
_cell_angle_alpha   90.00000000
_cell_angle_beta   90.00000000
_cell_angle_gamma   90.00000000
_symmetry_Int_Tables_number   1
_chemical_formula_structural   Li4Ti2Co7O18
_chemical_formula_sum   'Li8 Ti4 Co14 O36'
_cell_volume   640.52314449
_cell_formula_units_Z   2
loop_
 _symmetry_equiv_pos_site_id
 _symmetry_equiv_pos_as_xyz
  1  'x, y, z'
loop_
 _atom_site_type_symbol
 _atom_site_label
 _atom_site_symmetry_multiplicity
 _atom_site_fract_x
 _atom_site_fract_y
 _atom_site_fract_z
 _atom_site_occupancy
  Li  Li0  1  0.00000000  0.18132800  0.99537000  1
  Li  Li1  1  0.00000000  0.18772000  0.20808300  1
  Li  Li2  1  0.00000000  0.31228000  0.70808300  1
  Li  Li3  1  0.00000000  0.31867200  0.49537000  1
  Li  Li4  1  0.00000000  0.68132800  0.50463000  1
  Li  Li5  1  0.00000000  0.68772000  0.29191700  1
  Li  Li6  1  0.00000000  0.81228000  0.79191700  1
  Li  Li7  1  0.00000000  0.81867200  0.00463000  1
  Ti  Ti0  1  0.00000000  0.00284700  0.10554600  1
  Ti  Ti1  1  0.00000000  0.49715300  0.60554600  1
  Ti  Ti2  1  0.00000000  0.50284700  0.39445400  1
  Ti  Ti3  1  0.00000000  0.99715300  0.89445400  1
  Co  Co0  1  0.00000000  0.00000000  0.50000000  1
  Co  Co1  1  0.00000000  0.02347500  0.31091100  1
  Co  Co2  1  0.50000000  0.14016900  0.58548200  1
  Co  Co3  1  0.50000000  0.14590000  0.80299700  1
  Co  Co4  1  0.50000000  0.35410000  0.30299700  1
  Co  Co5  1  0.50000000  0.35983100  0.08548200  1
  Co  Co6  1  0.00000000  0.47652500  0.81091100  1
  Co  Co7  1  0.00000000  0.50000000  0.00000000  1
  Co  Co8  1  0.00000000  0.52347500  0.18908900  1
  Co  Co9  1  0.50000000  0.64016900  0.91451800  1
  Co  Co10  1  0.50000000  0.64590000  0.69700300  1
  Co  Co11  1  0.50000000  0.85410000  0.19700300  1
  Co  Co12  1  0.50000000  0.85983100  0.41451800  1
  Co  Co13  1  0.00000000  0.97652500  0.68908900  1
  O  O0  1  0.00000000  0.99646100  0.42479900  1
  O  O1  1  0.00000000  0.00353900  0.57520100  1
  O  O2  1  0.50000000  0.04427800  0.94235100  1
  O  O3  1  0.50000000  0.05541800  0.16166500  1
  O  O4  1  0.50000000  0.09149400  0.65737400  1
  O  O5  1  0.00000000  0.10350100  0.75572900  1
  O  O6  1  0.50000000  0.15536400  0.50901400  1
  O  O7  1  0.50000000  0.14791800  0.28049800  1
  O  O8  1  0.00000000  0.18674600  0.85466100  1
  O  O9  1  0.00000000  0.22109000  0.08843700  1
  O  O10  1  0.00000000  0.27891000  0.58843700  1
  O  O11  1  0.00000000  0.31325400  0.35466100  1
  O  O12  1  0.50000000  0.35208200  0.78049800  1
  O  O13  1  0.50000000  0.34463600  0.00901400  1
  O  O14  1  0.00000000  0.39649900  0.25572900  1
  O  O15  1  0.50000000  0.40850600  0.15737400  1
  O  O16  1  0.50000000  0.44458200  0.66166500  1
  O  O17  1  0.50000000  0.45572200  0.44235100  1
  O  O18  1  0.00000000  0.49646100  0.07520100  1
  O  O19  1  0.00000000  0.50353900  0.92479900  1
  O  O20  1  0.50000000  0.54427800  0.55764900  1
  O  O21  1  0.50000000  0.55541800  0.33833500  1
  O  O22  1  0.50000000  0.59149400  0.84262600  1
  O  O23  1  0.00000000  0.60350100  0.74427100  1
  O  O24  1  0.50000000  0.65536400  0.99098600  1
  O  O25  1  0.50000000  0.64791800  0.21950200  1
  O  O26  1  0.00000000  0.68674600  0.64533900  1
  O  O27  1  0.00000000  0.72109000  0.41156300  1
  O  O28  1  0.00000000  0.77891000  0.91156300  1
  O  O29  1  0.00000000  0.81325400  0.14533900  1
  O  O30  1  0.50000000  0.85208200  0.71950200  1
  O  O31  1  0.50000000  0.84463600  0.49098600  1
  O  O32  1  0.00000000  0.89649900  0.24427100  1
  O  O33  1  0.50000000  0.90850600  0.34262600  1
  O  O34  1  0.50000000  0.94458200  0.83833500  1
  O  O35  1  0.50000000  0.95572200  0.05764900  1
loop_
_geom_bond_atom_site_label_1
_geom_bond_atom_site_label_2
_geom_bond_distance
_geom_bond_site_symmetry_2
Li0 O13 2.076091 1_556
Li0 O13 2.076091 1_456
Li0 O2 2.307019 1_555
Li0 O2 2.307019 1_455
Li0 O9 2.347613 1_556
Li1 O3 2.193973 1_455
Li1 O3 2.193973 1_555
Li1 O14 2.200070 1_555
Li1 O7 2.341526 1_555
Li1 O7 2.341526 1_455
Li2 O16 2.193973 1_455
Li2 O16 2.193973 1_555
Li2 O5 2.200070 1_555
Li2 O12 2.341526 1_555
Li2 O12 2.341526 1_455
Li3 O6 2.076091 1_455
Li3 O6 2.076091 1_555
Li3 O17 2.307019 1_455
Li3 O17 2.307019 1_555
Li3 O10 2.347613 1_555
Li4 O31 2.076091 1_455
Li4 O31 2.076091 1_555
Li4 O20 2.307019 1_555
Li4 O20 2.307019 1_455
Li4 O27 2.347613 1_555
Li5 O21 2.193973 1_455
Li5 O21 2.193973 1_555
Li5 O32 2.200070 1_555
Li5 O25 2.341526 1_455
Li5 O25 2.341526 1_555
Li6 O34 2.193973 1_455
Li6 O34 2.193973 1_555
Li6 O23 2.200070 1_555
Li6 O30 2.341526 1_555
Li6 O30 2.341526 1_455
Li7 O24 2.076091 1_454
Li7 O24 2.076091 1_554
Li7 O35 2.307019 1_455
Li7 O35 2.307019 1_555
Li7 O28 2.347613 1_554
Co0 O1 1.875683 1_555
Co0 O0 1.875683 1_545
Co0 O6 2.011416 1_555
Co0 O6 2.011416 1_455
Co0 O31 2.011416 1_445
Co0 O31 2.011416 1_545
Co1 O33 1.939569 1_445
Co1 O33 1.939569 1_545
Co1 O7 1.972314 1_455
Co1 O7 1.972314 1_555
Co1 O32 2.007512 1_545
Co2 O4 1.844135 1_555
Co2 O10 1.901621 1_655
Co2 O10 1.901621 1_555
Co2 O1 1.905452 1_655
Co2 O1 1.905452 1_555
Co2 O6 1.911773 1_555
Co3 O5 1.904651 1_555
Co3 O5 1.904651 1_655
Co3 O12 1.912715 1_555
Co3 O8 1.971805 1_555
Co3 O8 1.971805 1_655
Co3 O34 1.991084 1_545
Co4 O14 1.904651 1_555
Co4 O14 1.904651 1_655
Co4 O7 1.912715 1_555
Co4 O11 1.971805 1_555
Co4 O11 1.971805 1_655
Co4 O21 1.991084 1_555
Co5 O15 1.844135 1_555
Co5 O9 1.901621 1_555
Co5 O9 1.901621 1_655
Co5 O18 1.905452 1_555
Co5 O18 1.905452 1_655
Co5 O13 1.911773 1_555
Co6 O22 1.939569 1_455
Co6 O22 1.939569 1_555
Co6 O12 1.972314 1_455
Co6 O12 1.972314 1_555
Co6 O23 2.007512 1_555
Co7 O18 1.875683 1_555
Co7 O19 1.875683 1_554
Co7 O13 2.011416 1_455
Co7 O13 2.011416 1_555
Co7 O24 2.011416 1_554
Co7 O24 2.011416 1_454
Co8 O15 1.939569 1_555
Co8 O15 1.939569 1_455
Co8 O25 1.972314 1_555
Co8 O25 1.972314 1_455
Co8 O14 2.007512 1_555
Co9 O22 1.844135 1_555
Co9 O28 1.901621 1_555
Co9 O28 1.901621 1_655
Co9 O19 1.905452 1_555
Co9 O19 1.905452 1_655
Co9 O24 1.911773 1_555
Co10 O23 1.904651 1_555
Co10 O23 1.904651 1_655
Co10 O30 1.912715 1_555
Co10 O26 1.971805 1_655
Co10 O26 1.971805 1_555
Co10 O16 1.991084 1_555
Co11 O32 1.904651 1_555
Co11 O32 1.904651 1_655
Co11 O25 1.912715 1_555
Co11 O29 1.971805 1_555
Co11 O29 1.971805 1_655
Co11 O3 1.991084 1_565
Co12 O33 1.844135 1_555
Co12 O27 1.901621 1_555
Co12 O27 1.901621 1_655
Co12 O0 1.905452 1_555
Co12 O0 1.905452 1_655
Co12 O31 1.911773 1_555
Co13 O4 1.939569 1_565
Co13 O4 1.939569 1_465
Co13 O30 1.972314 1_455
Co13 O30 1.972314 1_555
Co13 O5 2.007512 1_565
O2 Ti3 1.923071 1_545
O2 Ti3 1.923071 1_645
O3 Ti0 2.067076 1_655
O3 Ti0 2.067076 1_555
O8 Ti3 1.952455 1_545
O9 Ti0 1.982001 1_555
O10 Ti1 1.982001 1_555
O11 Ti2 1.952455 1_555
O16 Ti1 2.067076 1_555
O16 Ti1 2.067076 1_655
O17 Ti2 1.923071 1_555
O17 Ti2 1.923071 1_655
O20 Ti1 1.923071 1_655
O20 Ti1 1.923071 1_555
O21 Ti2 2.067076 1_655
O21 Ti2 2.067076 1_555
O26 Ti1 1.952455 1_555
O27 Ti2 1.982001 1_555
O28 Ti3 1.982001 1_555
O29 Ti0 1.952455 1_565
O34 Ti3 2.067076 1_655
O34 Ti3 2.067076 1_555
O35 Ti0 1.923071 1_565
O35 Ti0 1.923071 1_665
