# generated using pymatgen
data_Li3V3(BO5)2
_symmetry_space_group_name_H-M   'P 1'
_cell_length_a   3.01378900
_cell_length_b   9.33821184
_cell_length_c   12.16492904
_cell_angle_alpha   88.53325941
_cell_angle_beta   89.75806980
_cell_angle_gamma   89.26237916
_symmetry_Int_Tables_number   1
_chemical_formula_structural   Li3V3(BO5)2
_chemical_formula_sum   'Li6 V6 B4 O20'
_cell_volume   342.21933411
_cell_formula_units_Z   2
loop_
 _symmetry_equiv_pos_site_id
 _symmetry_equiv_pos_as_xyz
  1  'x, y, z'
loop_
 _atom_site_type_symbol
 _atom_site_label
 _atom_site_symmetry_multiplicity
 _atom_site_fract_x
 _atom_site_fract_y
 _atom_site_fract_z
 _atom_site_occupancy
  Li  Li0  1  0.99902700  0.00217700  0.99954100  1
  Li  Li1  1  0.00328500  0.01774700  0.72265000  1
  Li  Li2  1  0.99812400  0.48443900  0.49636800  1
  Li  Li3  1  0.50080000  0.49968500  0.00082300  1
  Li  Li4  1  0.50316700  0.27120700  0.61587100  1
  Li  Li5  1  0.99831500  0.99845400  0.28128900  1
  V  V0  1  0.48399900  0.00532600  0.50251100  1
  V  V1  1  0.48170300  0.76512800  0.89103700  1
  V  V2  1  0.49733200  0.73824500  0.38757600  1
  V  V3  1  0.00301400  0.49673500  0.21805300  1
  V  V4  1  0.99962800  0.49595300  0.77928600  1
  V  V5  1  0.51892600  0.23405500  0.10973300  1
  B  B0  1  0.50196500  0.76948500  0.14175700  1
  B  B1  1  0.50109500  0.72847400  0.63216900  1
  B  B2  1  0.50044100  0.27180500  0.37000500  1
  B  B3  1  0.49832800  0.22554000  0.85619800  1
  O  O0  1  0.01826900  0.87860900  0.85516900  1
  O  O1  1  0.99418800  0.88474100  0.43147900  1
  O  O2  1  0.51004300  0.87361000  0.63714100  1
  O  O3  1  0.49749700  0.84274800  0.23727300  1
  O  O4  1  0.51254700  0.84075400  0.04007400  1
  O  O5  1  0.49907300  0.64987400  0.54002900  1
  O  O6  1  0.49608100  0.64939500  0.73894300  1
  O  O7  1  0.50226300  0.61727900  0.14399600  1
  O  O8  1  0.98582400  0.62063000  0.91892800  1
  O  O9  1  0.00171800  0.61173400  0.34603300  1
  O  O10  1  0.00105700  0.41197000  0.65936200  1
  O  O11  1  0.01290300  0.37732500  0.07907200  1
  O  O12  1  0.50252900  0.38414800  0.85289000  1
  O  O13  1  0.50280100  0.34565400  0.26064100  1
  O  O14  1  0.50170800  0.35017000  0.45899900  1
  O  O15  1  0.48200100  0.16133100  0.96098600  1
  O  O16  1  0.50267100  0.15413700  0.76358900  1
  O  O17  1  0.49520100  0.12339600  0.36451100  1
  O  O18  1  0.01041000  0.09876700  0.56063000  1
  O  O19  1  0.98206800  0.11927500  0.14538900  1
loop_
_geom_bond_atom_site_label_1
_geom_bond_atom_site_label_2
_geom_bond_distance
_geom_bond_site_symmetry_2
Li0 O19 2.107922 1_556
Li0 O0 2.126152 1_645
Li0 O15 2.135832 1_655
Li0 O4 2.162806 1_546
Li0 O15 2.183502 1_555
Li0 O4 2.195202 1_646
Li1 O16 2.030552 1_455
Li1 O0 2.044728 1_545
Li1 O16 2.055114 1_555
Li1 O18 2.093153 1_555
Li1 O2 2.287262 1_545
Li1 O2 2.289043 1_445
Li2 O14 2.014077 1_655
Li2 O14 2.024911 1_555
Li2 O10 2.078673 1_655
Li2 O9 2.155593 1_655
Li2 O5 2.215010 1_555
Li2 O5 2.248756 1_655
Li3 O7 2.082658 1_555
Li3 O11 2.085564 1_555
Li3 O8 2.092230 1_554
Li3 O12 2.121741 1_554
Li3 O11 2.122499 1_655
Li3 O8 2.141773 1_454
Li4 O14 2.028161 1_555
Li4 O10 2.067684 1_555
Li4 O16 2.079357 1_555
Li4 O10 2.086253 1_655
Li4 O18 2.316232 1_655
Li4 O18 2.318493 1_555
Li5 O19 1.977938 1_565
Li5 O1 2.089660 1_555
Li5 O3 2.154277 1_655
Li5 O17 2.165009 1_565
Li5 O17 2.178760 1_665
Li5 O3 2.186830 1_555
B0 O3 1.363334 1_555
B0 O4 1.389999 1_555
B0 O7 1.420884 1_555
B1 O5 1.355516 1_555
B1 O2 1.358825 1_555
B1 O6 1.477735 1_555
B2 O14 1.322206 1_555
B2 O17 1.389489 1_555
B2 O13 1.482794 1_555
B3 O16 1.323652 1_555
B3 O15 1.395707 1_555
B3 O12 1.480847 1_555
O0 V1 1.790946 1_555
O0 V1 1.985665 1_455
O1 V0 2.072960 1_665
O1 V0 2.091144 1_565
O1 V2 2.105522 1_655
O1 V2 2.120343 1_555
O2 V0 2.024052 1_565
O3 V2 2.050396 1_555
O4 V1 1.965476 1_554
O5 V2 2.010501 1_555
O6 V4 2.123993 1_555
O6 V4 2.132043 1_455
O6 V1 2.166482 1_555
O7 V3 2.066912 1_655
O7 V3 2.079159 1_555
O8 V1 2.042626 1_555
O8 V1 2.047811 1_655
O8 V4 2.083828 1_555
O9 V3 1.913769 1_555
O9 V2 1.984856 1_455
O9 V2 1.991108 1_555
O10 V4 1.673855 1_455
O11 V5 2.041191 1_455
O11 V5 2.044884 1_555
O11 V3 2.048892 1_555
O12 V4 2.027756 1_455
O12 V4 2.029119 1_555
O13 V3 2.107627 1_555
O13 V3 2.131256 1_655
O13 V5 2.134103 1_555
O15 V5 1.953052 1_556
O17 V0 1.985131 1_555
O18 V0 1.813676 1_555
O18 V0 1.963391 1_455
O19 V5 1.796682 1_555
O19 V5 1.992424 1_655
