# generated using pymatgen
data_Sr5La2Cl16
_symmetry_space_group_name_H-M   'P 1'
_cell_length_a   9.04014830
_cell_length_b   9.04014830
_cell_length_c   19.16308000
_cell_angle_alpha   90.00000000
_cell_angle_beta   90.00000000
_cell_angle_gamma   112.16196111
_symmetry_Int_Tables_number   1
_chemical_formula_structural   Sr5La2Cl16
_chemical_formula_sum   'Sr10 La4 Cl32'
_cell_volume   1450.38821653
_cell_formula_units_Z   2
loop_
 _symmetry_equiv_pos_site_id
 _symmetry_equiv_pos_as_xyz
  1  'x, y, z'
loop_
 _atom_site_type_symbol
 _atom_site_label
 _atom_site_symmetry_multiplicity
 _atom_site_fract_x
 _atom_site_fract_y
 _atom_site_fract_z
 _atom_site_occupancy
  Sr  Sr0  1  0.00000000  0.50000000  0.13334300  1
  Sr  Sr1  1  0.00000000  0.50000000  0.63334300  1
  Sr  Sr2  1  0.50000000  0.50000000  0.22899800  1
  Sr  Sr3  1  0.50000000  0.50000000  0.77100200  1
  Sr  Sr4  1  0.00000000  0.00000000  0.27100200  1
  Sr  Sr5  1  0.50000000  0.50000000  0.50000000  1
  Sr  Sr6  1  0.00000000  0.00000000  0.72899800  1
  Sr  Sr7  1  0.00000000  0.00000000  0.00000000  1
  Sr  Sr8  1  0.50000000  0.00000000  0.86665700  1
  Sr  Sr9  1  0.50000000  0.00000000  0.36665700  1
  La  La0  1  0.00000000  0.50000000  0.88250100  1
  La  La1  1  0.00000000  0.50000000  0.38250100  1
  La  La2  1  0.50000000  0.00000000  0.11749900  1
  La  La3  1  0.50000000  0.00000000  0.61749900  1
  Cl  Cl0  1  0.96842800  0.30018300  0.77102200  1
  Cl  Cl1  1  0.80018300  0.46842800  0.27102200  1
  Cl  Cl2  1  0.82591700  0.52771300  0.49555500  1
  Cl  Cl3  1  0.02771300  0.32591700  0.99555500  1
  Cl  Cl4  1  0.38927700  0.27928900  0.34685200  1
  Cl  Cl5  1  0.27928900  0.38927700  0.65314800  1
  Cl  Cl6  1  0.88927700  0.77928900  0.15314800  1
  Cl  Cl7  1  0.77928900  0.88927700  0.84685200  1
  Cl  Cl8  1  0.97228700  0.67408300  0.99555500  1
  Cl  Cl9  1  0.17408300  0.47228700  0.49555500  1
  Cl  Cl10  1  0.03157200  0.69981700  0.77102200  1
  Cl  Cl11  1  0.19981700  0.53157200  0.27102200  1
  Cl  Cl12  1  0.63206300  0.33712100  0.11450900  1
  Cl  Cl13  1  0.33712100  0.63206300  0.88549100  1
  Cl  Cl14  1  0.13206300  0.83712100  0.38549100  1
  Cl  Cl15  1  0.83712100  0.13206300  0.61450900  1
  Cl  Cl16  1  0.66287900  0.36793700  0.88549100  1
  Cl  Cl17  1  0.36793700  0.66287900  0.11450900  1
  Cl  Cl18  1  0.86793700  0.16287900  0.38549100  1
  Cl  Cl19  1  0.16287900  0.86793700  0.61450900  1
  Cl  Cl20  1  0.30018300  0.96842800  0.22897800  1
  Cl  Cl21  1  0.46842800  0.80018300  0.72897800  1
  Cl  Cl22  1  0.52771300  0.82591700  0.50444500  1
  Cl  Cl23  1  0.32591700  0.02771300  0.00444500  1
  Cl  Cl24  1  0.22071100  0.11072300  0.84685200  1
  Cl  Cl25  1  0.72071100  0.61072300  0.65314800  1
  Cl  Cl26  1  0.11072300  0.22071100  0.15314800  1
  Cl  Cl27  1  0.61072300  0.72071100  0.34685200  1
  Cl  Cl28  1  0.47228700  0.17408300  0.50444500  1
  Cl  Cl29  1  0.67408300  0.97228700  0.00444500  1
  Cl  Cl30  1  0.69981700  0.03157200  0.22897800  1
  Cl  Cl31  1  0.53157200  0.19981700  0.72897800  1
loop_
_geom_bond_atom_site_label_1
_geom_bond_atom_site_label_2
_geom_bond_distance
_geom_bond_site_symmetry_2
Cl0 La0 2.742112 1_655
Cl0 Sr6 2.945928 1_655
Cl0 Sr1 3.149030 1_655
Cl1 La1 2.742112 1_655
Cl1 Sr2 2.945928 1_555
Cl1 Sr0 3.149030 1_655
Cl2 La1 2.744162 1_655
Cl2 Sr5 2.862522 1_555
Cl2 Sr1 3.131901 1_655
Cl3 La0 2.744162 1_555
Cl3 Sr7 2.862522 1_556
Cl3 Sr0 3.131901 1_556
Cl4 Sr2 2.928615 1_555
Cl4 Sr9 3.070390 1_555
Cl4 Sr5 3.476950 1_555
Cl5 Sr3 2.928615 1_555
Cl5 Sr1 3.070390 1_555
Cl5 Sr5 3.476950 1_555
Cl6 Sr4 2.928615 1_665
Cl6 Sr0 3.070390 1_655
Cl6 Sr7 3.476950 1_665
Cl7 Sr6 2.928615 1_665
Cl7 Sr8 3.070390 1_565
Cl7 Sr7 3.476950 1_666
Cl8 La0 2.744162 1_655
Cl8 Sr7 2.862522 1_666
Cl8 Sr0 3.131901 1_656
Cl9 La1 2.744162 1_555
Cl9 Sr5 2.862522 1_555
Cl9 Sr1 3.131901 1_555
Cl10 La0 2.742112 1_555
Cl10 Sr6 2.945928 1_565
Cl10 Sr1 3.149030 1_555
Cl11 La1 2.742112 1_555
Cl11 Sr2 2.945928 1_555
Cl11 Sr0 3.149030 1_555
Cl12 La2 2.823397 1_555
Cl12 Sr0 3.109172 1_655
Cl12 Sr2 3.119802 1_555
Cl13 La0 2.823397 1_555
Cl13 Sr8 3.109172 1_565
Cl13 Sr3 3.119802 1_555
Cl14 La1 2.823397 1_555
Cl14 Sr9 3.109172 1_565
Cl14 Sr4 3.119802 1_565
Cl15 La3 2.823397 1_555
Cl15 Sr1 3.109172 1_655
Cl15 Sr6 3.119802 1_655
Cl16 La0 2.823397 1_655
Cl16 Sr8 3.109172 1_555
Cl16 Sr3 3.119802 1_555
Cl17 La2 2.823397 1_565
Cl17 Sr0 3.109172 1_555
Cl17 Sr2 3.119802 1_555
Cl18 La1 2.823397 1_655
Cl18 Sr9 3.109172 1_555
Cl18 Sr4 3.119802 1_655
Cl19 La3 2.823397 1_565
Cl19 Sr1 3.109172 1_555
Cl19 Sr6 3.119802 1_565
Cl20 La2 2.742112 1_565
Cl20 Sr4 2.945928 1_565
Cl20 Sr9 3.149030 1_565
Cl21 La3 2.742112 1_565
Cl21 Sr3 2.945928 1_555
Cl21 Sr8 3.149030 1_565
Cl22 La3 2.744162 1_565
Cl22 Sr5 2.862522 1_555
Cl22 Sr9 3.131901 1_565
Cl23 La2 2.744162 1_555
Cl23 Sr7 2.862522 1_555
Cl23 Sr8 3.131901 1_554
Cl24 Sr6 2.928615 1_555
Cl24 Sr8 3.070390 1_555
Cl24 Sr7 3.476950 1_556
Cl25 Sr3 2.928615 1_555
Cl25 Sr1 3.070390 1_655
Cl25 Sr5 3.476950 1_555
Cl26 Sr4 2.928615 1_555
Cl26 Sr0 3.070390 1_555
Cl26 Sr7 3.476950 1_555
Cl27 Sr2 2.928615 1_555
Cl27 Sr9 3.070390 1_565
Cl27 Sr5 3.476950 1_555
Cl28 La3 2.744162 1_555
Cl28 Sr5 2.862522 1_555
Cl28 Sr9 3.131901 1_555
Cl29 La2 2.744162 1_565
Cl29 Sr7 2.862522 1_665
Cl29 Sr8 3.131901 1_564
Cl30 La2 2.742112 1_555
Cl30 Sr4 2.945928 1_655
Cl30 Sr9 3.149030 1_555
Cl31 La3 2.742112 1_555
Cl31 Sr3 2.945928 1_555
Cl31 Sr8 3.149030 1_555
