# generated using pymatgen
data_Li12Nb14ZnO42
_symmetry_space_group_name_H-M   'P 1'
_cell_length_a   9.06256200
_cell_length_b   9.27627202
_cell_length_c   9.89635821
_cell_angle_alpha   103.61680732
_cell_angle_beta   98.78924599
_cell_angle_gamma   99.33799335
_symmetry_Int_Tables_number   1
_chemical_formula_structural   Li12Nb14ZnO42
_chemical_formula_sum   'Li12 Nb14 Zn1 O42'
_cell_volume   781.87154133
_cell_formula_units_Z   1
loop_
 _symmetry_equiv_pos_site_id
 _symmetry_equiv_pos_as_xyz
  1  'x, y, z'
loop_
 _atom_site_type_symbol
 _atom_site_label
 _atom_site_symmetry_multiplicity
 _atom_site_fract_x
 _atom_site_fract_y
 _atom_site_fract_z
 _atom_site_occupancy
  Li  Li0  1  0.38650100  0.83418000  0.49676100  1
  Li  Li1  1  0.03125100  0.90553600  0.28286900  1
  Li  Li2  1  0.67396700  0.97655600  0.06796800  1
  Li  Li3  1  0.10425700  0.69252300  0.92573100  1
  Li  Li4  1  0.81747000  0.54780200  0.35290300  1
  Li  Li5  1  0.53104400  0.40589300  0.78303300  1
  Li  Li6  1  0.45976800  0.62071900  0.13906500  1
  Li  Li7  1  0.88828700  0.33350300  0.99676200  1
  Li  Li8  1  0.17501900  0.47720600  0.56865500  1
  Li  Li9  1  0.60378300  0.19160800  0.42545300  1
  Li  Li10  1  0.31573100  0.04743900  0.85412900  1
  Li  Li11  1  0.24550900  0.26271800  0.21136500  1
  Nb  Nb0  1  0.35774300  0.92875000  0.21365800  1
  Nb  Nb1  1  0.71063400  0.85223000  0.42776600  1
  Nb  Nb2  1  0.42969900  0.71596200  0.85567400  1
  Nb  Nb3  1  0.06466800  0.77982900  0.64159300  1
  Nb  Nb4  1  0.78577700  0.64350500  0.07027700  1
  Nb  Nb5  1  0.50119600  0.50587800  0.50094300  1
  Nb  Nb6  1  0.21827700  0.35864800  0.93127100  1
  Nb  Nb7  1  0.85228300  0.43283700  0.71702700  1
  Nb  Nb8  1  0.14345500  0.57205800  0.28620700  1
  Nb  Nb9  1  0.29167100  0.14244700  0.57120700  1
  Nb  Nb10  1  0.64369800  0.06821300  0.78687500  1
  Nb  Nb11  1  0.57228500  0.28626000  0.14365200  1
  Nb  Nb12  1  0.92868000  0.21440000  0.35543100  1
  Nb  Nb13  1  0.00005800  0.99821100  0.99807200  1
  Zn  Zn0  1  0.96210900  0.12104900  0.64100200  1
  O  O0  1  0.12606400  0.99539300  0.65399700  1
  O  O1  1  0.75788300  0.99638800  0.64736100  1
  O  O2  1  0.88049300  0.99539700  0.40494700  1
  O  O3  1  0.59057300  0.85931900  0.83564200  1
  O  O4  1  0.25423000  0.98718700  0.39926400  1
  O  O5  1  0.97840900  0.84690100  0.83024200  1
  O  O6  1  0.26747000  0.81216600  0.81035800  1
  O  O7  1  0.55242500  0.95557100  0.38238600  1
  O  O8  1  0.87532100  0.74058700  0.51815800  1
  O  O9  1  0.58819800  0.59773700  0.95466800  1
  O  O10  1  0.15943400  0.88432900  0.09856100  1
  O  O11  1  0.55463900  0.71192100  0.50362600  1
  O  O12  1  0.84526500  0.85253100  0.08206700  1
  O  O13  1  0.27277600  0.56650100  0.93855800  1
  O  O14  1  0.89840000  0.55756600  0.93419300  1
  O  O15  1  0.18256500  0.70228400  0.50709900  1
  O  O16  1  0.46874700  0.84403300  0.07797300  1
  O  O17  1  0.02287800  0.56663600  0.68803900  1
  O  O18  1  0.30955500  0.70938000  0.25978900  1
  O  O19  1  0.68241300  0.70184900  0.25431800  1
  O  O20  1  0.39777600  0.55829400  0.68360200  1
  O  O21  1  0.68949800  0.51870300  0.66487800  1
  O  O22  1  0.98066200  0.66946900  0.23926400  1
  O  O23  1  0.30215500  0.45547700  0.38352900  1
  O  O24  1  0.01727000  0.30777600  0.81028300  1
  O  O25  1  0.70272400  0.27955900  0.79639700  1
  O  O26  1  0.98726600  0.42360100  0.36716800  1
  O  O27  1  0.61143900  0.41773000  0.36426000  1
  O  O28  1  0.32586000  0.27359100  0.79226900  1
  O  O29  1  0.45218600  0.27970400  0.54329200  1
  O  O30  1  0.73811400  0.42391500  0.11704300  1
  O  O31  1  0.16671700  0.13862500  0.97498300  1
  O  O32  1  0.53921600  0.13340000  0.97082600  1
  O  O33  1  0.82776500  0.27265700  0.54423700  1
  O  O34  1  0.11101900  0.41679700  0.11342300  1
  O  O35  1  0.83740100  0.09863400  0.95392700  1
  O  O36  1  0.40905300  0.38509300  0.09753800  1
  O  O37  1  0.12348200  0.24007600  0.52811000  1
  O  O38  1  0.73025000  0.16921100  0.23956000  1
  O  O39  1  0.44407700  0.02664100  0.66870800  1
  O  O40  1  0.41653800  0.13824600  0.22419000  1
  O  O41  1  0.04093400  0.13128300  0.22155800  1
loop_
_geom_bond_atom_site_label_1
_geom_bond_atom_site_label_2
_geom_bond_distance
_geom_bond_site_symmetry_2
Li0 O11 2.044042 1_555
Li0 O15 2.075118 1_555
Li0 O39 2.085939 1_565
Li0 O4 2.286018 1_555
Li0 O18 2.299169 1_555
Li0 O7 2.319718 1_555
Li1 O22 2.088186 1_455
Li1 O4 2.089297 1_555
Li1 O2 2.102593 1_455
Li1 O10 2.295168 1_555
Li1 O12 2.297628 1_455
Li1 O41 2.305640 1_565
Li2 O12 2.083751 1_555
Li2 O38 2.085230 1_565
Li2 O16 2.086048 1_555
Li2 O3 2.250565 1_554
Li2 O35 2.306116 1_564
Li2 O32 2.325663 1_564
Li3 O13 2.074871 1_555
Li3 O10 2.087627 1_556
Li3 O14 2.096159 1_455
Li3 O5 2.254416 1_455
Li3 O6 2.302879 1_555
Li3 O17 2.310365 1_555
Li4 O8 2.050416 1_555
Li4 O26 2.073813 1_555
Li4 O27 2.086068 1_555
Li4 O30 2.289526 1_555
Li4 O22 2.300008 1_555
Li4 O19 2.313230 1_555
Li5 O9 2.080647 1_555
Li5 O28 2.082412 1_555
Li5 O25 2.100799 1_555
Li5 O21 2.264083 1_555
Li5 O20 2.295956 1_555
Li5 O29 2.326519 1_555
Li6 O19 2.082859 1_555
Li6 O36 2.085875 1_555
Li6 O18 2.086783 1_555
Li6 O16 2.283285 1_555
Li6 O9 2.297098 1_554
Li6 O13 2.299566 1_554
Li7 O35 2.078094 1_555
Li7 O34 2.089502 1_656
Li7 O30 2.089957 1_556
Li7 O25 2.291492 1_555
Li7 O14 2.296381 1_555
Li7 O24 2.317638 1_655
Li8 O20 2.082719 1_555
Li8 O17 2.095860 1_555
Li8 O37 2.100354 1_555
Li8 O23 2.295911 1_555
Li8 O15 2.302241 1_555
Li8 O26 2.310877 1_455
Li9 O29 2.078583 1_555
Li9 O7 2.088456 1_545
Li9 O33 2.104000 1_555
Li9 O38 2.298426 1_555
Li9 O40 2.306947 1_555
Li9 O27 2.309777 1_555
Li10 O6 2.080684 1_545
Li10 O31 2.087484 1_555
Li10 O32 2.097403 1_555
Li10 O39 2.305583 1_555
Li10 O28 2.311613 1_555
Li10 O0 2.313088 1_545
Li11 O41 2.077361 1_555
Li11 O40 2.083584 1_555
Li11 O23 2.089032 1_555
Li11 O31 2.293954 1_554
Li11 O36 2.306647 1_555
Li11 O34 2.307476 1_555
Nb0 O16 1.898721 1_555
Nb0 O10 1.900049 1_555
Nb0 O40 1.903412 1_565
Nb0 O7 2.173603 1_555
Nb0 O18 2.179464 1_555
Nb0 O4 2.184162 1_555
Nb1 O19 1.892184 1_555
Nb1 O7 1.904816 1_555
Nb1 O2 1.941230 1_555
Nb1 O11 2.107967 1_555
Nb1 O8 2.151758 1_555
Nb1 O1 2.203588 1_555
Nb2 O3 1.875252 1_555
Nb2 O6 1.889912 1_555
Nb2 O20 1.913651 1_555
Nb2 O16 2.184363 1_556
Nb2 O9 2.193811 1_555
Nb2 O13 2.206710 1_555
Nb3 O8 1.875258 1_455
Nb3 O15 1.914100 1_555
Nb3 O0 1.955931 1_555
Nb3 O17 2.122241 1_555
Nb3 O5 2.130862 1_455
Nb3 O6 2.214596 1_555
Nb4 O9 1.895762 1_554
Nb4 O12 1.897086 1_555
Nb4 O14 1.915605 1_554
Nb4 O19 2.170125 1_555
Nb4 O22 2.178018 1_555
Nb4 O30 2.183919 1_555
Nb5 O11 1.886838 1_555
Nb5 O23 1.911158 1_555
Nb5 O27 1.911490 1_555
Nb5 O21 2.134363 1_555
Nb5 O20 2.152738 1_555
Nb5 O29 2.223340 1_555
Nb6 O13 1.892438 1_555
Nb6 O28 1.901023 1_555
Nb6 O24 1.939876 1_555
Nb6 O36 2.135353 1_556
Nb6 O34 2.175572 1_556
Nb6 O31 2.176955 1_555
Nb7 O21 1.849149 1_555
Nb7 O17 1.921837 1_655
Nb7 O33 1.939496 1_555
Nb7 O14 2.128373 1_555
Nb7 O25 2.168298 1_555
Nb7 O24 2.253558 1_655
Nb8 O18 1.900456 1_555
Nb8 O22 1.905185 1_455
Nb8 O34 1.906305 1_555
Nb8 O23 2.176575 1_555
Nb8 O15 2.178186 1_555
Nb8 O26 2.185300 1_455
Nb9 O29 1.871070 1_555
Nb9 O4 1.896290 1_545
Nb9 O37 1.938168 1_555
Nb9 O39 2.134248 1_555
Nb9 O28 2.186185 1_555
Nb9 O0 2.241029 1_545
Nb10 O1 1.910038 1_545
Nb10 O25 1.922467 1_555
Nb10 O39 1.924517 1_555
Nb10 O3 2.104331 1_545
Nb10 O35 2.151047 1_555
Nb10 O32 2.184149 1_555
Nb11 O32 1.894537 1_554
Nb11 O30 1.901293 1_555
Nb11 O36 1.915184 1_555
Nb11 O38 2.168776 1_555
Nb11 O40 2.177808 1_555
Nb11 O27 2.179174 1_555
Nb12 O41 1.889465 1_655
Nb12 O26 1.897892 1_555
Nb12 O38 1.903505 1_555
Nb12 O2 2.191846 1_545
Nb12 O33 2.197012 1_555
Nb12 O37 2.200826 1_655
Nb13 O5 1.865624 1_455
Nb13 O31 1.907128 1_565
Nb13 O35 1.916254 1_465
Nb13 O10 2.177609 1_556
Nb13 O12 2.180631 1_456
Nb13 O41 2.206429 1_566
O0 Zn0 2.038920 1_465
O1 Zn0 2.035192 1_565
O2 Zn0 2.296313 1_565
O24 Zn0 2.038001 1_455
O33 Zn0 2.282687 1_555
O37 Zn0 2.272042 1_455
