# generated using pymatgen
data_Li5Ni2O2F5
_symmetry_space_group_name_H-M   'P 1'
_cell_length_a   2.92716893
_cell_length_b   14.60959648
_cell_length_c   5.85424383
_cell_angle_alpha   95.74249986
_cell_angle_beta   90.00087890
_cell_angle_gamma   84.25044456
_symmetry_Int_Tables_number   1
_chemical_formula_structural   Li5Ni2O2F5
_chemical_formula_sum   'Li10 Ni4 O4 F10'
_cell_volume   247.83312767
_cell_formula_units_Z   2
loop_
 _symmetry_equiv_pos_site_id
 _symmetry_equiv_pos_as_xyz
  1  'x, y, z'
loop_
 _atom_site_type_symbol
 _atom_site_label
 _atom_site_symmetry_multiplicity
 _atom_site_fract_x
 _atom_site_fract_y
 _atom_site_fract_z
 _atom_site_occupancy
  Li  Li0  1  0.71428400  0.57142900  0.64285800  1
  Li  Li1  1  0.71428400  0.57142900  0.14285800  1
  Li  Li2  1  0.85558700  0.28882200  0.57220400  1
  Li  Li3  1  0.85558700  0.28882200  0.07220600  1
  Li  Li4  1  0.57298400  0.85403700  0.71351000  1
  Li  Li5  1  0.57298400  0.85403800  0.21350800  1
  Li  Li6  1  0.28412600  0.43175200  0.35793700  1
  Li  Li7  1  0.28412700  0.43175200  0.85793600  1
  Li  Li8  1  0.14445200  0.71110600  0.42777400  1
  Li  Li9  1  0.14445300  0.71110500  0.92777400  1
  Ni  Ni0  1  0.99996400  0.00008300  0.49995100  1
  Ni  Ni1  1  0.42864000  0.14277300  0.78574700  1
  Ni  Ni2  1  0.99996600  0.00008500  0.99995100  1
  Ni  Ni3  1  0.42864100  0.14277100  0.28574600  1
  O  O0  1  0.50143800  0.99711600  0.74928800  1
  O  O1  1  0.50145000  0.99709900  0.24923000  1
  O  O2  1  0.92712300  0.14574300  0.53643200  1
  O  O3  1  0.92711100  0.14576000  0.03649000  1
  F  F0  1  0.21426900  0.57142500  0.39286500  1
  F  F1  1  0.21426900  0.57142500  0.89286500  1
  F  F2  1  0.35353000  0.29292800  0.32323600  1
  F  F3  1  0.35353200  0.29292500  0.82321200  1
  F  F4  1  0.07503000  0.84993400  0.46250800  1
  F  F5  1  0.07503200  0.84993200  0.96248300  1
  F  F6  1  0.78437700  0.43121100  0.60781200  1
  F  F7  1  0.78437700  0.43121100  0.10781000  1
  F  F8  1  0.64418900  0.71164500  0.67790500  1
  F  F9  1  0.64418900  0.71164600  0.17790700  1
loop_
_geom_bond_atom_site_label_1
_geom_bond_atom_site_label_2
_geom_bond_distance
_geom_bond_site_symmetry_2
Li2 O2 2.069268 1_555
Li3 O3 2.069022 1_555
Li4 O0 2.069268 1_555
Li5 O1 2.069007 1_555
Ni0 O1 2.070151 1_545
Ni0 O1 2.070158 1_645
Ni0 O0 2.070536 1_645
Ni0 O0 2.070607 1_545
Ni0 O2 2.106595 1_555
Ni1 O3 2.070154 1_556
Ni1 O3 2.070333 1_456
Ni1 O2 2.070434 1_555
Ni1 O2 2.070535 1_455
Ni1 O0 2.106552 1_545
Ni2 O0 2.069916 1_645
Ni2 O0 2.069935 1_545
Ni2 O1 2.070322 1_646
Ni2 O1 2.070391 1_546
Ni2 O3 2.106812 1_556
Ni3 O2 2.069936 1_555
Ni3 O2 2.070101 1_455
Ni3 O3 2.070208 1_555
Ni3 O3 2.070323 1_455
Ni3 O1 2.106769 1_545
F0 Li6 2.020009 1_555
F0 Li8 2.020124 1_555
F0 Li0 2.069752 1_455
F0 Li1 2.069786 1_455
F0 Li0 2.069791 1_555
F0 Li1 2.069889 1_555
F1 Li7 2.020009 1_555
F1 Li9 2.020110 1_555
F1 Li1 2.069752 1_456
F1 Li0 2.069786 1_455
F1 Li1 2.069791 1_556
F1 Li0 2.069889 1_555
F2 Li6 2.007730 1_555
F2 Li2 2.070621 1_555
F2 Li2 2.070636 1_455
F2 Li3 2.070652 1_455
F2 Li3 2.070700 1_555
F2 Ni3 2.171633 1_555
F3 Li7 2.007773 1_555
F3 Li2 2.070563 1_455
F3 Li2 2.070610 1_555
F3 Li3 2.070723 1_556
F3 Li3 2.070740 1_456
F3 Ni1 2.171560 1_555
F4 Li8 2.007788 1_555
F4 Li4 2.070557 1_555
F4 Li4 2.070566 1_455
F4 Li5 2.070729 1_455
F4 Li5 2.070786 1_555
F4 Ni0 2.171517 1_465
F5 Li9 2.007773 1_555
F5 Li4 2.070622 1_455
F5 Li5 2.070649 1_556
F5 Li5 2.070661 1_456
F5 Li4 2.070673 1_555
F5 Ni2 2.171575 1_465
F6 Li0 2.027891 1_555
F6 Li2 2.059289 1_555
F6 Li7 2.069747 1_555
F6 Li7 2.069800 1_655
F6 Li6 2.069805 1_555
F6 Li6 2.069917 1_655
F7 Li1 2.027891 1_555
F7 Li3 2.059289 1_555
F7 Li6 2.069761 1_555
F7 Li7 2.069798 1_554
F7 Li6 2.069810 1_655
F7 Li7 2.069915 1_654
F8 Li0 2.027862 1_555
F8 Li4 2.059332 1_555
F8 Li8 2.069802 1_555
F8 Li8 2.069807 1_655
F8 Li9 2.069807 1_655
F8 Li9 2.069863 1_555
F9 Li1 2.027876 1_555
F9 Li5 2.059332 1_555
F9 Li8 2.069796 1_655
F9 Li9 2.069808 1_554
F9 Li9 2.069813 1_654
F9 Li8 2.069857 1_555
