# generated using pymatgen
data_Li2Fe2(SO4)3
_symmetry_space_group_name_H-M   'P 1'
_cell_length_a   7.96796305
_cell_length_b   7.96796305
_cell_length_c   8.86178716
_cell_angle_alpha   68.09915428
_cell_angle_beta   68.09915428
_cell_angle_gamma   66.07010290
_symmetry_Int_Tables_number   1
_chemical_formula_structural   Li2Fe2(SO4)3
_chemical_formula_sum   'Li4 Fe4 S6 O24'
_cell_volume   460.55292660
_cell_formula_units_Z   2
loop_
 _symmetry_equiv_pos_site_id
 _symmetry_equiv_pos_as_xyz
  1  'x, y, z'
loop_
 _atom_site_type_symbol
 _atom_site_label
 _atom_site_symmetry_multiplicity
 _atom_site_fract_x
 _atom_site_fract_y
 _atom_site_fract_z
 _atom_site_occupancy
  Li  Li0  1  0.66883400  0.86278500  0.05586200  1
  Li  Li1  1  0.86278500  0.66883400  0.55586200  1
  Li  Li2  1  0.13721500  0.33116600  0.44413800  1
  Li  Li3  1  0.33116600  0.13721500  0.94413800  1
  Fe  Fe0  1  0.36774900  0.87333900  0.48539000  1
  Fe  Fe1  1  0.87333900  0.36774900  0.98539000  1
  Fe  Fe2  1  0.12666100  0.63225100  0.01461000  1
  Fe  Fe3  1  0.63225100  0.12666100  0.51461000  1
  S  S0  1  0.75075700  0.54124900  0.32309200  1
  S  S1  1  0.54124900  0.75075700  0.82309200  1
  S  S2  1  0.06001800  0.93998200  0.25000000  1
  S  S3  1  0.93998200  0.06001800  0.75000000  1
  S  S4  1  0.45875100  0.24924300  0.17690800  1
  S  S5  1  0.24924300  0.45875100  0.67690800  1
  O  O0  1  0.87312700  0.95159300  0.38362000  1
  O  O1  1  0.95159300  0.87312700  0.88362000  1
  O  O2  1  0.87443800  0.50396200  0.42818700  1
  O  O3  1  0.61221800  0.73804800  0.31209700  1
  O  O4  1  0.86763600  0.54418800  0.14106800  1
  O  O5  1  0.50396200  0.87443800  0.92818700  1
  O  O6  1  0.21249000  0.90208300  0.32375800  1
  O  O7  1  0.65400900  0.39806600  0.38266100  1
  O  O8  1  0.73804800  0.61221800  0.81209700  1
  O  O9  1  0.54418800  0.86763600  0.64106800  1
  O  O10  1  0.90208300  0.21249000  0.82375800  1
  O  O11  1  0.60193400  0.34599100  0.11733900  1
  O  O12  1  0.39806600  0.65400900  0.88266100  1
  O  O13  1  0.09791700  0.78751000  0.17624200  1
  O  O14  1  0.45581200  0.13236400  0.35893200  1
  O  O15  1  0.26195200  0.38778200  0.18790300  1
  O  O16  1  0.34599100  0.60193400  0.61733900  1
  O  O17  1  0.78751000  0.09791700  0.67624200  1
  O  O18  1  0.49603800  0.12556200  0.07181300  1
  O  O19  1  0.13236400  0.45581200  0.85893200  1
  O  O20  1  0.38778200  0.26195200  0.68790300  1
  O  O21  1  0.12556200  0.49603800  0.57181300  1
  O  O22  1  0.04840700  0.12687300  0.11638000  1
  O  O23  1  0.12687300  0.04840700  0.61638000  1
loop_
_geom_bond_atom_site_label_1
_geom_bond_atom_site_label_2
_geom_bond_distance
_geom_bond_site_symmetry_2
Li0 O5 1.986465 1_554
Li0 O18 2.009129 1_565
Li0 O3 2.064792 1_555
Li0 O1 2.214497 1_554
Li0 O4 2.392457 1_555
Li1 O2 1.986465 1_555
Li1 O21 2.009129 1_655
Li1 O8 2.064792 1_555
Li1 O0 2.214497 1_555
Li1 O9 2.392457 1_555
Li2 O21 1.986465 1_555
Li2 O2 2.009129 1_455
Li2 O15 2.064792 1_555
Li2 O23 2.214497 1_555
Li2 O14 2.392457 1_555
Li3 O18 1.986465 1_556
Li3 O5 2.009129 1_545
Li3 O20 2.064792 1_555
Li3 O22 2.214497 1_556
Li3 O19 2.392457 1_555
Fe0 O16 2.083374 1_555
Fe0 O23 2.085906 1_565
Fe0 O6 2.117025 1_555
Fe0 O3 2.148188 1_555
Fe0 O14 2.206964 1_565
Fe0 O9 2.286929 1_555
Fe1 O11 2.083374 1_556
Fe1 O22 2.085906 1_656
Fe1 O10 2.117025 1_555
Fe1 O8 2.148188 1_555
Fe1 O19 2.206964 1_655
Fe1 O4 2.286929 1_556
Fe2 O12 2.083374 1_554
Fe2 O1 2.085906 1_454
Fe2 O13 2.117025 1_555
Fe2 O15 2.148188 1_555
Fe2 O4 2.206964 1_455
Fe2 O19 2.286929 1_554
Fe3 O7 2.083374 1_555
Fe3 O0 2.085906 1_545
Fe3 O17 2.117025 1_555
Fe3 O20 2.148188 1_555
Fe3 O9 2.206964 1_545
Fe3 O14 2.286929 1_555
O0 S2 1.510876 1_655
O1 S3 1.510876 1_565
O2 S0 1.472269 1_555
O3 S0 1.499653 1_555
O4 S0 1.529265 1_555
O5 S1 1.472269 1_555
O6 S2 1.463525 1_555
O7 S0 1.461210 1_555
O8 S1 1.499653 1_555
O9 S1 1.529265 1_555
O10 S3 1.463525 1_555
O11 S4 1.461210 1_555
O12 S1 1.461210 1_555
O13 S2 1.463525 1_555
O14 S4 1.529265 1_555
O15 S4 1.499653 1_555
O16 S5 1.461210 1_555
O17 S3 1.463525 1_555
O18 S4 1.472269 1_555
O19 S5 1.529265 1_555
O20 S5 1.499653 1_555
O21 S5 1.472269 1_555
O22 S2 1.510876 1_545
O23 S3 1.510876 1_455
