# generated using pymatgen
data_Li2Cr4O13
_symmetry_space_group_name_H-M   'P 1'
_cell_length_a   7.82226300
_cell_length_b   8.24122259
_cell_length_c   12.12599718
_cell_angle_alpha   109.21063103
_cell_angle_beta   94.33951040
_cell_angle_gamma   94.02249986
_symmetry_Int_Tables_number   1
_chemical_formula_structural   Li2Cr4O13
_chemical_formula_sum   'Li6 Cr12 O39'
_cell_volume   732.29811197
_cell_formula_units_Z   3
loop_
 _symmetry_equiv_pos_site_id
 _symmetry_equiv_pos_as_xyz
  1  'x, y, z'
loop_
 _atom_site_type_symbol
 _atom_site_label
 _atom_site_symmetry_multiplicity
 _atom_site_fract_x
 _atom_site_fract_y
 _atom_site_fract_z
 _atom_site_occupancy
  Li  Li0  1  0.89032800  0.01137800  0.63702300  1
  Li  Li1  1  0.69481900  0.03139200  0.37924800  1
  Li  Li2  1  0.71216500  0.47790200  0.98052000  1
  Li  Li3  1  0.28783500  0.52209800  0.01948000  1
  Li  Li4  1  0.30518100  0.96860800  0.62075200  1
  Li  Li5  1  0.10967200  0.98862200  0.36297700  1
  Cr  Cr0  1  0.97446400  0.14867900  0.95617400  1
  Cr  Cr1  1  0.37116700  0.14303500  0.95654800  1
  Cr  Cr2  1  0.61720300  0.31967100  0.64909800  1
  Cr  Cr3  1  0.22232800  0.33062300  0.63739300  1
  Cr  Cr4  1  0.41924800  0.32815200  0.35325600  1
  Cr  Cr5  1  0.03189900  0.34785000  0.37275200  1
  Cr  Cr6  1  0.96810100  0.65215000  0.62724800  1
  Cr  Cr7  1  0.58075200  0.67184800  0.64674400  1
  Cr  Cr8  1  0.77767200  0.66937700  0.36260700  1
  Cr  Cr9  1  0.38279700  0.68032900  0.35090200  1
  Cr  Cr10  1  0.62883300  0.85696500  0.04345200  1
  Cr  Cr11  1  0.02553600  0.85132100  0.04382600  1
  O  O0  1  0.14793700  0.99941400  0.99070500  1
  O  O1  1  0.93684000  0.08008400  0.81483200  1
  O  O2  1  0.35112300  0.06320600  0.81590000  1
  O  O3  1  0.72519800  0.15420800  0.59190900  1
  O  O4  1  0.18919200  0.27606100  0.98630000  1
  O  O5  1  0.40464100  0.19404200  0.61940000  1
  O  O6  1  0.09052500  0.15253400  0.59980000  1
  O  O7  1  0.89951400  0.19306900  0.38250900  1
  O  O8  1  0.65469800  0.38216400  0.78999500  1
  O  O9  1  0.50000000  0.00000000  0.00000000  1
  O  O10  1  0.55048100  0.22091900  0.40570100  1
  O  O11  1  0.22441900  0.42265700  0.77481900  1
  O  O12  1  0.22213200  0.23445900  0.39685000  1
  O  O13  1  0.39672600  0.24319700  0.21382800  1
  O  O14  1  0.73326300  0.48262900  0.60628600  1
  O  O15  1  0.44155300  0.46865600  0.61457400  1
  O  O16  1  0.49346300  0.68383500  0.00536800  1
  O  O17  1  0.09172900  0.45994300  0.57300300  1
  O  O18  1  0.02163400  0.32559800  0.23707500  1
  O  O19  1  0.12509000  0.68062200  0.99290900  1
  O  O20  1  0.87491000  0.31937800  0.00709100  1
  O  O21  1  0.97836600  0.67440200  0.76292500  1
  O  O22  1  0.90827100  0.54005700  0.42699700  1
  O  O23  1  0.50653700  0.31616500  0.99463200  1
  O  O24  1  0.55844700  0.53134400  0.38542600  1
  O  O25  1  0.26673700  0.51737100  0.39371400  1
  O  O26  1  0.60327400  0.75680300  0.78617200  1
  O  O27  1  0.77786800  0.76554100  0.60315000  1
  O  O28  1  0.77558100  0.57734300  0.22518100  1
  O  O29  1  0.44951900  0.77908100  0.59429900  1
  O  O30  1  0.34530200  0.61783600  0.21000500  1
  O  O31  1  0.10048600  0.80693100  0.61749100  1
  O  O32  1  0.90947500  0.84746600  0.40020000  1
  O  O33  1  0.59535900  0.80595800  0.38060000  1
  O  O34  1  0.81080800  0.72393900  0.01370000  1
  O  O35  1  0.27480200  0.84579200  0.40809100  1
  O  O36  1  0.64887700  0.93679400  0.18410000  1
  O  O37  1  0.06316000  0.91991600  0.18516800  1
  O  O38  1  0.85206300  0.00058600  0.00929500  1
loop_
_geom_bond_atom_site_label_1
_geom_bond_atom_site_label_2
_geom_bond_distance
_geom_bond_site_symmetry_2
Li0 O3 1.970639 1_555
Li0 O1 2.037343 1_555
Li0 O27 2.048139 1_545
Li0 O6 2.050917 1_655
Li0 O31 2.404643 1_645
Li1 O10 1.946739 1_555
Li1 O33 1.968847 1_545
Li1 O7 1.999275 1_555
Li1 O36 2.225884 1_545
Li1 O32 2.393205 1_545
Li1 O3 2.426239 1_555
Li2 O20 1.969634 1_556
Li2 O34 2.016249 1_556
Li2 O23 2.069806 1_555
Li2 O8 2.180735 1_555
Li2 O16 2.458971 1_556
Li3 O19 1.969634 1_554
Li3 O4 2.016249 1_554
Li3 O16 2.069806 1_555
Li3 O30 2.180735 1_555
Li3 O23 2.458971 1_554
Li4 O29 1.946739 1_555
Li4 O5 1.968847 1_565
Li4 O31 1.999275 1_555
Li4 O2 2.225884 1_565
Li4 O6 2.393205 1_565
Li4 O35 2.426239 1_555
Li5 O35 1.970639 1_555
Li5 O37 2.037343 1_555
Li5 O12 2.048139 1_565
Li5 O32 2.050917 1_455
Li5 O7 2.404643 1_465
Cr0 O1 1.614435 1_555
Cr0 O20 1.619106 1_556
Cr0 O38 1.807741 1_556
Cr0 O4 1.861220 1_655
Cr0 O0 2.004251 1_645
Cr1 O2 1.603993 1_555
Cr1 O23 1.628102 1_555
Cr1 O9 1.782635 1_556
Cr1 O4 1.842450 1_555
Cr1 O0 2.182586 1_545
Cr2 O8 1.610655 1_555
Cr2 O3 1.637665 1_555
Cr2 O14 1.804538 1_555
Cr2 O5 1.840853 1_555
Cr2 O15 2.014575 1_555
Cr3 O11 1.585839 1_555
Cr3 O6 1.643507 1_555
Cr3 O17 1.835415 1_555
Cr3 O5 1.859840 1_555
Cr3 O15 2.077628 1_555
Cr4 O13 1.593216 1_555
Cr4 O10 1.624045 1_555
Cr4 O24 1.841717 1_555
Cr4 O12 1.864942 1_555
Cr4 O25 1.985376 1_555
Cr5 O18 1.589408 1_555
Cr5 O7 1.626658 1_455
Cr5 O12 1.865993 1_555
Cr5 O22 1.871489 1_455
Cr5 O25 2.174034 1_555
Cr5 O17 2.293456 1_555
Cr6 O21 1.589408 1_555
Cr6 O31 1.626658 1_655
Cr6 O27 1.865993 1_555
Cr6 O17 1.871489 1_655
Cr6 O14 2.174034 1_555
Cr6 O22 2.293456 1_555
Cr7 O26 1.593216 1_555
Cr7 O29 1.624045 1_555
Cr7 O15 1.841717 1_555
Cr7 O27 1.864942 1_555
Cr7 O14 1.985376 1_555
Cr8 O28 1.585839 1_555
Cr8 O32 1.643507 1_555
Cr8 O22 1.835415 1_555
Cr8 O33 1.859840 1_555
Cr8 O24 2.077628 1_555
Cr9 O30 1.610655 1_555
Cr9 O35 1.637665 1_555
Cr9 O25 1.804538 1_555
Cr9 O33 1.840853 1_555
Cr9 O24 2.014575 1_555
Cr10 O36 1.603993 1_555
Cr10 O16 1.628102 1_555
Cr10 O9 1.782635 1_565
Cr10 O34 1.842450 1_555
Cr10 O38 2.182586 1_565
Cr11 O37 1.614435 1_555
Cr11 O19 1.619106 1_554
Cr11 O0 1.807741 1_554
Cr11 O34 1.861220 1_455
Cr11 O38 2.004251 1_465
