# generated using pymatgen
data_Na2MnPCO7
_symmetry_space_group_name_H-M   'P 1'
_cell_length_a   8.46916800
_cell_length_b   8.55478452
_cell_length_c   8.89358064
_cell_angle_alpha   90.51162647
_cell_angle_beta   91.34538168
_cell_angle_gamma   105.15369984
_symmetry_Int_Tables_number   1
_chemical_formula_structural   Na2MnPCO7
_chemical_formula_sum   'Na8 Mn4 P4 C4 O28'
_cell_volume   621.70407984
_cell_formula_units_Z   4
loop_
 _symmetry_equiv_pos_site_id
 _symmetry_equiv_pos_as_xyz
  1  'x, y, z'
loop_
 _atom_site_type_symbol
 _atom_site_label
 _atom_site_symmetry_multiplicity
 _atom_site_fract_x
 _atom_site_fract_y
 _atom_site_fract_z
 _atom_site_occupancy
  Na  Na0  1  0.61789000  0.62393700  0.75915800  1
  Na  Na1  1  0.87688100  0.36921100  0.76141200  1
  Na  Na2  1  0.38354400  0.86604200  0.74326400  1
  Na  Na3  1  0.11493800  0.13223900  0.74277400  1
  Na  Na4  1  0.87057900  0.87133600  0.24458100  1
  Na  Na5  1  0.39731700  0.37762400  0.25217900  1
  Na  Na6  1  0.10948000  0.61558000  0.24889000  1
  Na  Na7  1  0.25459100  0.99258400  0.08519400  1
  Mn  Mn0  1  0.51584500  0.26369400  0.64674000  1
  Mn  Mn1  1  0.01406300  0.76564100  0.64741800  1
  Mn  Mn2  1  0.48297000  0.73875700  0.34978900  1
  Mn  Mn3  1  0.97161500  0.23211700  0.34674300  1
  P  P0  1  0.73203400  0.97989300  0.57939700  1
  P  P1  1  0.22747200  0.47884100  0.57736600  1
  P  P2  1  0.77232500  0.52466900  0.42075900  1
  P  P3  1  0.27010600  0.02200000  0.41933200  1
  C  C0  1  0.99322000  0.74223800  0.93017600  1
  C  C1  1  0.48435000  0.23649800  0.92697000  1
  C  C2  1  0.50865400  0.75875300  0.07194800  1
  C  C3  1  0.01168000  0.25658300  0.07237500  1
  O  O0  1  0.50822100  0.76112300  0.93107700  1
  O  O1  1  0.02382900  0.26307300  0.93237100  1
  O  O2  1  0.59633500  0.34407100  0.85340700  1
  O  O3  1  0.10317100  0.84902800  0.85181500  1
  O  O4  1  0.88812400  0.63765600  0.84854600  1
  O  O5  1  0.38463100  0.13084700  0.83628500  1
  O  O6  1  0.85779300  0.91878600  0.67616800  1
  O  O7  1  0.35798900  0.42255900  0.67097100  1
  O  O8  1  0.67546600  0.10932400  0.66955300  1
  O  O9  1  0.16871700  0.60768800  0.66824200  1
  O  O10  1  0.57847100  0.83066500  0.54664900  1
  O  O11  1  0.70862900  0.45485800  0.57577900  1
  O  O12  1  0.20161000  0.95530800  0.57282600  1
  O  O13  1  0.07700800  0.32713300  0.54470500  1
  O  O14  1  0.92009400  0.68222200  0.45456500  1
  O  O15  1  0.80461900  0.04326300  0.42703100  1
  O  O16  1  0.29587400  0.54792500  0.42419700  1
  O  O17  1  0.41810000  0.17391300  0.45540100  1
  O  O18  1  0.84333200  0.41019100  0.32753900  1
  O  O19  1  0.64036100  0.58012700  0.33070300  1
  O  O20  1  0.32386900  0.89229900  0.32630600  1
  O  O21  1  0.14443200  0.07738600  0.31898500  1
  O  O22  1  0.61252000  0.85614500  0.16123900  1
  O  O23  1  0.10899900  0.35708800  0.16796400  1
  O  O24  1  0.89999500  0.14549700  0.14001000  1
  O  O25  1  0.39366500  0.65342400  0.14650200  1
  O  O26  1  0.00122500  0.75243500  0.07186600  1
  O  O27  1  0.47299300  0.23525200  0.06611400  1
loop_
_geom_bond_atom_site_label_1
_geom_bond_atom_site_label_2
_geom_bond_distance
_geom_bond_site_symmetry_2
Na0 O0 2.276469 1_555
Na0 O4 2.378273 1_555
Na0 O11 2.437300 1_555
Na0 O2 2.506512 1_555
Na0 O7 2.517992 1_555
Na0 O10 2.673912 1_555
Na0 O6 2.908524 1_555
Na1 O1 2.282896 1_655
Na1 O4 2.394552 1_555
Na1 O11 2.397900 1_555
Na1 O2 2.487619 1_555
Na1 O8 2.537621 1_555
Na1 O13 2.678949 1_655
Na1 O9 2.906484 1_655
Na2 O0 2.269364 1_555
Na2 O5 2.402410 1_565
Na2 O12 2.404403 1_555
Na2 O10 2.502383 1_555
Na2 O9 2.540579 1_555
Na2 O3 2.553631 1_555
Na2 O8 2.878196 1_565
Na3 O1 2.273831 1_555
Na3 O12 2.388809 1_545
Na3 O5 2.415363 1_555
Na3 O6 2.503826 1_445
Na3 O13 2.508372 1_555
Na3 O3 2.596275 1_545
Na3 O7 2.868895 1_555
Na4 O22 2.261991 1_555
Na4 O26 2.293182 1_655
Na4 O15 2.353244 1_565
Na4 O24 2.484387 1_565
Na4 O14 2.579283 1_555
Na4 O21 2.587255 1_665
Na4 O19 2.856422 1_555
Na5 O27 2.248207 1_555
Na5 O19 2.402567 1_555
Na5 O16 2.424337 1_555
Na5 O23 2.498353 1_555
Na5 O25 2.554892 1_555
Na5 O17 2.556613 1_555
Na6 O26 2.283913 1_555
Na6 O23 2.318358 1_555
Na6 O16 2.374025 1_555
Na6 O25 2.535258 1_555
Na6 O18 2.585078 1_455
Na6 O14 2.615493 1_455
Na6 O20 2.653253 1_555
Na7 O27 2.402758 1_565
Na7 O20 2.432168 1_555
Na7 O21 2.477488 1_565
Na7 O3 2.543004 1_554
Na7 O26 2.553054 1_555
Na7 O5 2.644351 1_564
Mn0 O17 1.936242 1_555
Mn0 O2 1.997325 1_555
Mn0 O11 2.099839 1_555
Mn0 O8 2.130246 1_555
Mn0 O7 2.153839 1_555
Mn0 O5 2.197749 1_555
Mn1 O14 1.923928 1_455
Mn1 O3 2.003458 1_555
Mn1 O12 2.077735 1_555
Mn1 O6 2.109460 1_455
Mn1 O9 2.119937 1_555
Mn1 O4 2.247230 1_455
Mn2 O10 1.978404 1_555
Mn2 O25 1.999297 1_555
Mn2 O16 2.080853 1_555
Mn2 O20 2.121698 1_555
Mn2 O22 2.136502 1_555
Mn2 O19 2.144629 1_555
Mn3 O24 1.996438 1_555
Mn3 O15 1.998433 1_555
Mn3 O13 2.019514 1_655
Mn3 O18 2.095587 1_555
Mn3 O23 2.119365 1_655
Mn3 O21 2.231434 1_655
C0 O26 1.261376 1_656
C0 O4 1.288974 1_555
C0 O3 1.335846 1_655
C1 O27 1.243395 1_556
C1 O5 1.317773 1_555
C1 O2 1.325892 1_555
C2 O0 1.253127 1_554
C2 O22 1.292592 1_555
C2 O25 1.334982 1_555
C3 O1 1.252317 1_554
C3 O23 1.313332 1_555
C3 O24 1.313996 1_455
O6 P0 1.550627 1_555
O7 P1 1.545605 1_555
O8 P0 1.542061 1_545
O9 P1 1.550977 1_555
O10 P0 1.585414 1_555
O11 P2 1.558729 1_555
O12 P3 1.550361 1_565
O13 P1 1.582347 1_555
O14 P2 1.602018 1_555
O15 P0 1.544679 1_545
O16 P1 1.553371 1_555
O17 P3 1.576344 1_555
O18 P2 1.524764 1_555
O19 P2 1.535452 1_555
O20 P3 1.545435 1_565
O21 P3 1.542860 1_555
