# generated using pymatgen
data_Mn3(PO4)2
_symmetry_space_group_name_H-M   'P 1'
_cell_length_a   11.62096400
_cell_length_b   6.34730700
_cell_length_c   9.00104880
_cell_angle_alpha   80.72364501
_cell_angle_beta   90.00000000
_cell_angle_gamma   90.00000000
_symmetry_Int_Tables_number   1
_chemical_formula_structural   Mn3(PO4)2
_chemical_formula_sum   'Mn12 P8 O32'
_cell_volume   655.25108561
_cell_formula_units_Z   4
loop_
 _symmetry_equiv_pos_site_id
 _symmetry_equiv_pos_as_xyz
  1  'x, y, z'
loop_
 _atom_site_type_symbol
 _atom_site_label
 _atom_site_symmetry_multiplicity
 _atom_site_fract_x
 _atom_site_fract_y
 _atom_site_fract_z
 _atom_site_occupancy
  Mn  Mn0  1  0.38334300  0.36253900  0.06681100  1
  Mn  Mn1  1  0.11665700  0.86253900  0.06681100  1
  Mn  Mn2  1  0.07692800  0.33347200  0.27439300  1
  Mn  Mn3  1  0.42307200  0.83347200  0.27439300  1
  Mn  Mn4  1  0.69339900  0.37763300  0.36439300  1
  Mn  Mn5  1  0.80660100  0.87763300  0.36439300  1
  Mn  Mn6  1  0.19339900  0.12236700  0.63560700  1
  Mn  Mn7  1  0.30660100  0.62236700  0.63560700  1
  Mn  Mn8  1  0.57692800  0.16652800  0.72560700  1
  Mn  Mn9  1  0.92307200  0.66652800  0.72560700  1
  Mn  Mn10  1  0.88334300  0.13746100  0.93318900  1
  Mn  Mn11  1  0.61665700  0.63746100  0.93318900  1
  P  P0  1  0.63654300  0.11176400  0.09159500  1
  P  P1  1  0.86345700  0.61176400  0.09159500  1
  P  P2  1  0.41239900  0.30674900  0.39547500  1
  P  P3  1  0.08760100  0.80674900  0.39547500  1
  P  P4  1  0.91239900  0.19325100  0.60452500  1
  P  P5  1  0.58760100  0.69325100  0.60452500  1
  P  P6  1  0.13654300  0.38823600  0.90840500  1
  P  P7  1  0.36345700  0.88823600  0.90840500  1
  O  O0  1  0.20338800  0.39666300  0.05769100  1
  O  O1  1  0.56553100  0.32418100  0.07229200  1
  O  O2  1  0.29661200  0.89666300  0.05769100  1
  O  O3  1  0.93446900  0.82418100  0.07229200  1
  O  O4  1  0.93613700  0.40740000  0.13002000  1
  O  O5  1  0.56386300  0.90740000  0.13002000  1
  O  O6  1  0.72292400  0.12756400  0.22256700  1
  O  O7  1  0.08594600  0.01306100  0.27501600  1
  O  O8  1  0.77707600  0.62756400  0.22256700  1
  O  O9  1  0.37383400  0.13344200  0.30198800  1
  O  O10  1  0.41405400  0.51306100  0.27501600  1
  O  O11  1  0.12616600  0.63344200  0.30198800  1
  O  O12  1  0.53364300  0.26042100  0.46757400  1
  O  O13  1  0.82217300  0.17129500  0.48064700  1
  O  O14  1  0.96635700  0.76042100  0.46757400  1
  O  O15  1  0.32217300  0.32870500  0.51935300  1
  O  O16  1  0.67782700  0.67129500  0.48064700  1
  O  O17  1  0.03364300  0.23957900  0.53242600  1
  O  O18  1  0.17782700  0.82870500  0.51935300  1
  O  O19  1  0.46635700  0.73957900  0.53242600  1
  O  O20  1  0.87383400  0.36655800  0.69801200  1
  O  O21  1  0.58594600  0.48693900  0.72498400  1
  O  O22  1  0.62616600  0.86655800  0.69801200  1
  O  O23  1  0.22292400  0.37243600  0.77743300  1
  O  O24  1  0.91405400  0.98693900  0.72498400  1
  O  O25  1  0.27707600  0.87243600  0.77743300  1
  O  O26  1  0.43613700  0.09260000  0.86998000  1
  O  O27  1  0.06386300  0.59260000  0.86998000  1
  O  O28  1  0.06553100  0.17581900  0.92770800  1
  O  O29  1  0.70338800  0.10333700  0.94230900  1
  O  O30  1  0.43446900  0.67581900  0.92770800  1
  O  O31  1  0.79661200  0.60333700  0.94230900  1
loop_
_geom_bond_atom_site_label_1
_geom_bond_atom_site_label_2
_geom_bond_distance
_geom_bond_site_symmetry_2
Mn0 O0 2.102677 1_555
Mn0 O1 2.130816 1_555
Mn0 O30 2.252128 1_554
Mn0 O10 2.264848 1_555
Mn0 O9 2.369679 1_555
Mn0 O26 2.725732 1_554
Mn1 O2 2.102677 1_555
Mn1 O3 2.130816 1_455
Mn1 O28 2.252128 1_564
Mn1 O7 2.264848 1_565
Mn1 O11 2.369679 1_555
Mn1 O27 2.725732 1_554
Mn2 O7 2.035550 1_555
Mn2 O11 2.041271 1_555
Mn2 O4 2.095050 1_455
Mn2 O17 2.357175 1_555
Mn2 O0 2.423420 1_555
Mn3 O10 2.035550 1_555
Mn3 O9 2.041271 1_565
Mn3 O5 2.095050 1_555
Mn3 O19 2.357175 1_555
Mn3 O2 2.423420 1_555
Mn4 O8 2.106887 1_555
Mn4 O13 2.146596 1_555
Mn4 O12 2.154057 1_555
Mn4 O6 2.218119 1_555
Mn4 O16 2.287114 1_555
Mn5 O6 2.106887 1_565
Mn5 O16 2.146596 1_555
Mn5 O14 2.154057 1_555
Mn5 O8 2.218119 1_555
Mn5 O13 2.287114 1_565
Mn6 O25 2.106887 1_545
Mn6 O15 2.146596 1_555
Mn6 O17 2.154057 1_555
Mn6 O23 2.218119 1_555
Mn6 O18 2.287114 1_545
Mn7 O23 2.106887 1_555
Mn7 O18 2.146596 1_555
Mn7 O19 2.154057 1_555
Mn7 O25 2.218119 1_555
Mn7 O15 2.287114 1_555
Mn8 O21 2.035550 1_555
Mn8 O22 2.041271 1_545
Mn8 O26 2.095050 1_555
Mn8 O12 2.357175 1_555
Mn8 O29 2.423420 1_555
Mn9 O24 2.035550 1_555
Mn9 O20 2.041271 1_555
Mn9 O27 2.095050 1_655
Mn9 O14 2.357175 1_555
Mn9 O31 2.423420 1_555
Mn10 O29 2.102677 1_555
Mn10 O28 2.130816 1_655
Mn10 O3 2.252128 1_546
Mn10 O24 2.264848 1_545
Mn10 O20 2.369679 1_555
Mn10 O4 2.725732 1_556
Mn11 O31 2.102677 1_555
Mn11 O30 2.130816 1_555
Mn11 O1 2.252128 1_556
Mn11 O21 2.264848 1_555
Mn11 O22 2.369679 1_555
Mn11 O5 2.725732 1_556
O0 P6 1.560470 1_554
O1 P0 1.566370 1_555
O2 P7 1.560470 1_554
O3 P1 1.566370 1_555
O4 P1 1.539798 1_555
O5 P0 1.539798 1_565
O6 P0 1.563848 1_555
O7 P3 1.559836 1_545
O8 P1 1.563848 1_555
O9 P2 1.554811 1_555
O10 P2 1.559836 1_555
O11 P3 1.554811 1_555
O12 P2 1.559265 1_555
O13 P4 1.553124 1_555
O14 P3 1.559265 1_655
O15 P2 1.553124 1_555
O16 P5 1.553124 1_555
O17 P4 1.559265 1_455
O18 P3 1.553124 1_555
O19 P5 1.559265 1_555
O20 P4 1.554811 1_555
O21 P5 1.559836 1_555
O22 P5 1.554811 1_555
O23 P6 1.563848 1_555
O24 P4 1.559836 1_565
O25 P7 1.563848 1_555
O26 P7 1.539798 1_545
O27 P6 1.539798 1_555
O28 P6 1.566370 1_555
O29 P0 1.560470 1_556
O30 P7 1.566370 1_555
O31 P1 1.560470 1_556
