# generated using pymatgen
data_AgAuO3
_symmetry_space_group_name_H-M   'P 1'
_cell_length_a   7.28592645
_cell_length_b   7.28592645
_cell_length_c   7.28592645
_cell_angle_alpha   60.00000000
_cell_angle_beta   60.00000000
_cell_angle_gamma   60.00000000
_symmetry_Int_Tables_number   1
_chemical_formula_structural   AgAuO3
_chemical_formula_sum   'Ag4 Au4 O12'
_cell_volume   273.48867716
_cell_formula_units_Z   4
loop_
 _symmetry_equiv_pos_site_id
 _symmetry_equiv_pos_as_xyz
  1  'x, y, z'
loop_
 _atom_site_type_symbol
 _atom_site_label
 _atom_site_symmetry_multiplicity
 _atom_site_fract_x
 _atom_site_fract_y
 _atom_site_fract_z
 _atom_site_occupancy
  Ag  Ag0  1  0.12500000  0.12500000  0.12500000  1
  Ag  Ag1  1  0.62500000  0.12500000  0.12500000  1
  Ag  Ag2  1  0.12500000  0.62500000  0.12500000  1
  Ag  Ag3  1  0.12500000  0.12500000  0.62500000  1
  Au  Au0  1  0.62500000  0.62500000  0.12500000  1
  Au  Au1  1  0.62500000  0.62500000  0.62500000  1
  Au  Au2  1  0.62500000  0.12500000  0.62500000  1
  Au  Au3  1  0.12500000  0.62500000  0.62500000  1
  O  O0  1  0.96628700  0.53371300  0.53371300  1
  O  O1  1  0.71628700  0.71628700  0.28371300  1
  O  O2  1  0.71628700  0.28371300  0.28371300  1
  O  O3  1  0.96628700  0.53371300  0.96628700  1
  O  O4  1  0.53371300  0.96628700  0.53371300  1
  O  O5  1  0.96628700  0.96628700  0.53371300  1
  O  O6  1  0.71628700  0.28371300  0.71628700  1
  O  O7  1  0.28371300  0.71628700  0.28371300  1
  O  O8  1  0.28371300  0.28371300  0.71628700  1
  O  O9  1  0.53371300  0.96628700  0.96628700  1
  O  O10  1  0.53371300  0.53371300  0.96628700  1
  O  O11  1  0.28371300  0.71628700  0.71628700  1
loop_
_geom_bond_atom_site_label_1
_geom_bond_atom_site_label_2
_geom_bond_distance
_geom_bond_site_symmetry_2
Ag0 O3 2.447894 1_454
Ag0 O8 2.447894 1_554
Ag0 O7 2.447894 1_545
Ag0 O5 2.447894 1_445
Ag0 O9 2.447894 1_544
Ag0 O2 2.447894 1_455
Ag1 O10 2.447894 1_554
Ag1 O4 2.447894 1_545
Ag1 O1 2.447894 1_545
Ag1 O6 2.447894 1_554
Ag1 O2 2.447894 1_555
Ag1 O9 2.447894 1_544
Ag2 O7 2.447894 1_555
Ag2 O3 2.447894 1_454
Ag2 O0 2.447894 1_455
Ag2 O1 2.447894 1_455
Ag2 O10 2.447894 1_554
Ag2 O11 2.447894 1_554
Ag3 O8 2.447894 1_555
Ag3 O5 2.447894 1_445
Ag3 O6 2.447894 1_455
Ag3 O4 2.447894 1_545
Ag3 O0 2.447894 1_455
Ag3 O11 2.447894 1_545
Au0 O7 2.050009 1_555
Au0 O10 2.050009 1_554
Au0 O9 2.050009 1_554
Au0 O2 2.050009 1_555
Au0 O3 2.050009 1_554
Au0 O1 2.050009 1_555
Au1 O4 2.050009 1_555
Au1 O11 2.050009 1_555
Au1 O10 2.050009 1_555
Au1 O6 2.050009 1_555
Au1 O0 2.050009 1_555
Au1 O1 2.050009 1_555
Au2 O9 2.050009 1_545
Au2 O8 2.050009 1_555
Au2 O2 2.050009 1_555
Au2 O4 2.050009 1_545
Au2 O6 2.050009 1_555
Au2 O5 2.050009 1_545
Au3 O5 2.050009 1_455
Au3 O7 2.050009 1_555
Au3 O8 2.050009 1_555
Au3 O11 2.050009 1_555
Au3 O0 2.050009 1_455
Au3 O3 2.050009 1_455
