# generated using pymatgen
data_CrBiO4
_symmetry_space_group_name_H-M   'P 1'
_cell_length_a   6.14323713
_cell_length_b   6.14323713
_cell_length_c   6.14323713
_cell_angle_alpha   106.03681455
_cell_angle_beta   106.03681455
_cell_angle_gamma   116.58276592
_symmetry_Int_Tables_number   1
_chemical_formula_structural   CrBiO4
_chemical_formula_sum   'Cr2 Bi2 O8'
_cell_volume   176.38533475
_cell_formula_units_Z   2
loop_
 _symmetry_equiv_pos_site_id
 _symmetry_equiv_pos_as_xyz
  1  'x, y, z'
loop_
 _atom_site_type_symbol
 _atom_site_label
 _atom_site_symmetry_multiplicity
 _atom_site_fract_x
 _atom_site_fract_y
 _atom_site_fract_z
 _atom_site_occupancy
  Cr  Cr0  1  0.75000000  0.25000000  0.50000000  1
  Cr  Cr1  1  0.50000000  0.50000000  0.00000000  1
  Bi  Bi0  1  0.00000000  0.00000000  0.00000000  1
  Bi  Bi1  1  0.25000000  0.75000000  0.50000000  1
  O  O0  1  0.92239700  0.60162300  0.67922500  1
  O  O1  1  0.39837700  0.07760300  0.32077500  1
  O  O2  1  0.92239700  0.24317200  0.32077500  1
  O  O3  1  0.75682800  0.07760300  0.67922500  1
  O  O4  1  0.49317200  0.67239700  0.82077500  1
  O  O5  1  0.32760300  0.50682800  0.17922500  1
  O  O6  1  0.85162300  0.67239700  0.17922500  1
  O  O7  1  0.32760300  0.14837700  0.82077500  1
loop_
_geom_bond_atom_site_label_1
_geom_bond_atom_site_label_2
_geom_bond_distance
_geom_bond_site_symmetry_2
Cr0 O2 1.730362 1_555
Cr0 O3 1.730362 1_555
Cr0 O1 1.730367 1_555
Cr0 O0 1.730367 1_555
Cr1 O5 1.730362 1_555
Cr1 O4 1.730362 1_554
Cr1 O6 1.730367 1_555
Cr1 O7 1.730367 1_554
Bi0 O0 2.423240 1_444
Bi0 O1 2.423240 1_555
Bi0 O3 2.423244 1_454
Bi0 O2 2.423244 1_455
Bi0 O6 2.496078 1_445
Bi0 O7 2.496078 1_554
Bi0 O5 2.496079 1_555
Bi0 O4 2.496079 1_444
Bi1 O7 2.423240 1_565
Bi1 O6 2.423240 1_455
Bi1 O4 2.423244 1_555
Bi1 O5 2.423244 1_555
Bi1 O1 2.496078 1_565
Bi1 O0 2.496078 1_455
Bi1 O3 2.496079 1_565
Bi1 O2 2.496079 1_455
