# generated using pymatgen
data_Li4Mn3Fe(BO3)4
_symmetry_space_group_name_H-M   'P 1'
_cell_length_a   5.24608500
_cell_length_b   5.24863047
_cell_length_c   20.97367561
_cell_angle_alpha   90.63465419
_cell_angle_beta   90.99490413
_cell_angle_gamma   119.79723658
_symmetry_Int_Tables_number   1
_chemical_formula_structural   Li4Mn3Fe(BO3)4
_chemical_formula_sum   'Li8 Mn6 Fe2 B8 O24'
_cell_volume   500.94807714
_cell_formula_units_Z   2
loop_
 _symmetry_equiv_pos_site_id
 _symmetry_equiv_pos_as_xyz
  1  'x, y, z'
loop_
 _atom_site_type_symbol
 _atom_site_label
 _atom_site_symmetry_multiplicity
 _atom_site_fract_x
 _atom_site_fract_y
 _atom_site_fract_z
 _atom_site_occupancy
  Li  Li0  1  0.67881100  0.65101700  0.33328500  1
  Li  Li1  1  0.65238300  0.67585500  0.08437000  1
  Li  Li2  1  0.67903900  0.65164800  0.83431700  1
  Li  Li3  1  0.65093400  0.67856400  0.58402700  1
  Li  Li4  1  0.35199200  0.34116200  0.20847900  1
  Li  Li5  1  0.33766700  0.34836000  0.45876300  1
  Li  Li6  1  0.34790000  0.33774300  0.70889600  1
  Li  Li7  1  0.33680200  0.34476300  0.95912700  1
  Mn  Mn0  1  0.67019300  0.00344000  0.44157800  1
  Mn  Mn1  1  0.66731800  0.00333400  0.94322500  1
  Mn  Mn2  1  0.32311600  0.00310500  0.56673000  1
  Mn  Mn3  1  0.00263600  0.32551300  0.31623600  1
  Mn  Mn4  1  0.00296200  0.32254400  0.81720000  1
  Mn  Mn5  1  0.00344500  0.67084900  0.69190700  1
  Fe  Fe0  1  0.31557000  0.99778800  0.06820700  1
  Fe  Fe1  1  0.01092900  0.67039200  0.18978900  1
  B  B0  1  0.99511400  0.33477900  0.06385400  1
  B  B1  1  0.99743000  0.34203000  0.56278400  1
  B  B2  1  0.66939500  0.00928900  0.18692800  1
  B  B3  1  0.66589400  0.00475100  0.68785000  1
  B  B4  1  0.33947200  0.99657400  0.31156200  1
  B  B5  1  0.34187500  0.99761100  0.81294100  1
  B  B6  1  0.00467200  0.66594700  0.43767300  1
  B  B7  1  0.00314100  0.66587500  0.93879100  1
  O  O0  1  0.93143500  0.26083400  0.20619700  1
  O  O1  1  0.92941000  0.24714400  0.70907000  1
  O  O2  1  0.73845600  0.06930900  0.05012700  1
  O  O3  1  0.97761600  0.58223600  0.08208600  1
  O  O4  1  0.74625300  0.07119800  0.54785200  1
  O  O5  1  0.96758600  0.57944800  0.58351100  1
  O  O6  1  0.41784100  0.03216100  0.17322600  1
  O  O7  1  0.73139700  0.64299800  0.43020800  1
  O  O8  1  0.42169400  0.03697900  0.67276000  1
  O  O9  1  0.72991300  0.64331300  0.93121900  1
  O  O10  1  0.65746200  0.74172200  0.18020200  1
  O  O11  1  0.64262500  0.73148500  0.68027200  1
  O  O12  1  0.36721800  0.27203600  0.30449600  1
  O  O13  1  0.37032500  0.27280500  0.80551100  1
  O  O14  1  0.26805300  0.35356700  0.05750200  1
  O  O15  1  0.57878000  0.96873600  0.33250600  1
  O  O16  1  0.27233300  0.37063600  0.55528300  1
  O  O17  1  0.57952300  0.96783900  0.83383300  1
  O  O18  1  0.03658000  0.42212900  0.42235700  1
  O  O19  1  0.03481800  0.42135600  0.92370900  1
  O  O20  1  0.24751100  0.92918500  0.45890200  1
  O  O21  1  0.24563200  0.92866500  0.95992500  1
  O  O22  1  0.06914700  0.74612900  0.29649800  1
  O  O23  1  0.07090400  0.74635300  0.79802800  1
loop_
_geom_bond_atom_site_label_1
_geom_bond_atom_site_label_2
_geom_bond_distance
_geom_bond_site_symmetry_2
Li0 O12 1.923756 1_555
Li0 O15 1.981551 1_555
Li0 O22 2.021178 1_655
Li0 O7 2.050424 1_555
Li1 O14 1.947794 1_555
Li1 O3 1.997601 1_555
Li1 O2 2.025260 1_565
Li1 O10 2.033154 1_555
Li2 O13 1.918477 1_555
Li2 O17 1.971830 1_555
Li2 O23 2.024757 1_655
Li2 O9 2.049023 1_555
Li3 O16 1.914918 1_555
Li3 O5 1.972223 1_555
Li3 O4 2.023908 1_565
Li3 O11 2.038753 1_555
Li4 O6 1.958441 1_555
Li4 O10 2.012966 1_555
Li4 O0 2.029559 1_455
Li4 O12 2.057408 1_555
Li5 O18 1.949447 1_555
Li5 O7 1.976226 1_555
Li5 O20 2.007518 1_545
Li5 O16 2.070733 1_555
Li6 O8 1.951236 1_555
Li6 O11 1.976337 1_555
Li6 O1 2.002202 1_455
Li6 O13 2.069556 1_555
Li7 O19 1.954979 1_555
Li7 O9 1.975244 1_555
Li7 O21 1.990377 1_545
Li7 O14 2.104674 1_556
Mn0 O7 2.082148 1_545
Mn0 O20 2.091196 1_545
Mn0 O18 2.129491 1_655
Mn0 O4 2.250435 1_555
Mn0 O15 2.315667 1_545
Mn1 O21 2.082881 1_545
Mn1 O9 2.085888 1_545
Mn1 O19 2.131100 1_655
Mn1 O2 2.260891 1_556
Mn1 O17 2.319364 1_545
Mn2 O16 2.090118 1_555
Mn2 O4 2.111218 1_555
Mn2 O5 2.113132 1_445
Mn2 O8 2.259299 1_555
Mn2 O20 2.284496 1_545
Mn3 O12 2.084688 1_555
Mn3 O22 2.103941 1_555
Mn3 O15 2.114134 1_445
Mn3 O18 2.261482 1_555
Mn3 O0 2.325500 1_455
Mn4 O13 2.087451 1_555
Mn4 O17 2.110297 1_445
Mn4 O23 2.115082 1_555
Mn4 O19 2.272086 1_555
Mn4 O1 2.290581 1_455
Mn5 O11 2.080453 1_455
Mn5 O1 2.095276 1_455
Mn5 O8 2.127341 1_565
Mn5 O23 2.247212 1_555
Mn5 O5 2.303357 1_455
Fe0 O14 2.017309 1_565
Fe0 O3 2.043023 1_455
Fe0 O2 2.100266 1_565
Fe0 O6 2.241865 1_565
Fe0 O21 2.290092 1_554
Fe1 O0 2.010875 1_455
Fe1 O6 2.072415 1_565
Fe1 O10 2.073108 1_455
Fe1 O22 2.257474 1_555
Fe1 O3 2.286953 1_455
B0 O14 1.394376 1_655
B0 O3 1.396520 1_555
B0 O2 1.396543 1_555
B1 O16 1.385761 1_655
B1 O5 1.396629 1_555
B1 O4 1.403302 1_555
B2 O10 1.379846 1_545
B2 O0 1.400451 1_555
B2 O6 1.408397 1_555
B3 O11 1.384762 1_545
B3 O1 1.394945 1_555
B3 O8 1.404443 1_555
B4 O12 1.389181 1_565
B4 O15 1.398210 1_555
B4 O22 1.400497 1_555
B5 O13 1.387216 1_565
B5 O17 1.395314 1_555
B5 O23 1.403562 1_555
B6 O7 1.383642 1_455
B6 O20 1.395515 1_555
B6 O18 1.405179 1_555
B7 O9 1.384484 1_455
B7 O21 1.392922 1_555
B7 O19 1.406970 1_555
