# generated using pymatgen
data_Fe2O3
_symmetry_space_group_name_H-M   'P 1'
_cell_length_a   5.99034628
_cell_length_b   5.99034628
_cell_length_c   14.60922379
_cell_angle_alpha   89.55343778
_cell_angle_beta   89.55343778
_cell_angle_gamma   60.19349990
_symmetry_Int_Tables_number   1
_chemical_formula_structural   Fe2O3
_chemical_formula_sum   'Fe16 O24'
_cell_volume   454.87022709
_cell_formula_units_Z   8
loop_
 _symmetry_equiv_pos_site_id
 _symmetry_equiv_pos_as_xyz
  1  'x, y, z'
loop_
 _atom_site_type_symbol
 _atom_site_label
 _atom_site_symmetry_multiplicity
 _atom_site_fract_x
 _atom_site_fract_y
 _atom_site_fract_z
 _atom_site_occupancy
  Fe  Fe0  1  0.33976500  0.33976500  0.05046800  1
  Fe  Fe1  1  0.99219500  0.99219500  0.01001100  1
  Fe  Fe2  1  0.83323800  0.33513700  0.16444300  1
  Fe  Fe3  1  0.00690600  0.00690600  0.36396700  1
  Fe  Fe4  1  0.33513700  0.83323800  0.16444300  1
  Fe  Fe5  1  0.67394500  0.67394500  0.32116300  1
  Fe  Fe6  1  0.50288700  0.99643800  0.49857200  1
  Fe  Fe7  1  0.99643800  0.50288700  0.49857200  1
  Fe  Fe8  1  0.33362100  0.33362100  0.67623000  1
  Fe  Fe9  1  0.16884000  0.65975500  0.83415200  1
  Fe  Fe10  1  0.32944500  0.32944500  0.28425400  1
  Fe  Fe11  1  0.65975500  0.16884000  0.83415200  1
  Fe  Fe12  1  0.50256400  0.50256400  0.49858300  1
  Fe  Fe13  1  0.99896300  0.99896300  0.62773000  1
  Fe  Fe14  1  0.16925300  0.16925300  0.83460100  1
  Fe  Fe15  1  0.66001500  0.66001500  0.96079000  1
  O  O0  1  0.68634200  0.18356500  0.08608200  1
  O  O1  1  0.18356500  0.68634200  0.08608200  1
  O  O2  1  0.01447400  0.01447400  0.23729500  1
  O  O3  1  0.15738600  0.15738600  0.08894200  1
  O  O4  1  0.35440700  0.82253500  0.41533500  1
  O  O5  1  0.51017000  0.51017000  0.24336200  1
  O  O6  1  0.48056800  0.98322400  0.24751300  1
  O  O7  1  0.65133800  0.65133800  0.09172400  1
  O  O8  1  0.66737700  0.66737700  0.56242100  1
  O  O9  1  0.82253500  0.35440700  0.41533500  1
  O  O10  1  0.82731600  0.82731600  0.41201300  1
  O  O11  1  0.98322400  0.48056800  0.24751300  1
  O  O12  1  0.17556300  0.17556300  0.57914700  1
  O  O13  1  0.03625700  0.48208900  0.75878100  1
  O  O14  1  0.17529000  0.64786400  0.57914800  1
  O  O15  1  0.33346500  0.33346500  0.42180400  1
  O  O16  1  0.33332100  0.33332100  0.91695000  1
  O  O17  1  0.48208900  0.03625700  0.75878100  1
  O  O18  1  0.48191500  0.48191500  0.75842100  1
  O  O19  1  0.64786400  0.17529000  0.57914800  1
  O  O20  1  0.84132300  0.84132300  0.92147400  1
  O  O21  1  0.99904100  0.99904100  0.75908500  1
  O  O22  1  0.84641700  0.30580300  0.91825600  1
  O  O23  1  0.30580300  0.84641700  0.91825600  1
loop_
_geom_bond_atom_site_label_1
_geom_bond_atom_site_label_2
_geom_bond_distance
_geom_bond_site_symmetry_2
Fe0 O1 1.880027 1_555
Fe0 O0 1.880027 1_555
Fe0 O16 1.952339 1_554
Fe0 O3 1.967372 1_555
Fe1 O0 1.950935 1_565
Fe1 O1 1.950935 1_655
Fe1 O20 2.038412 1_554
Fe1 O3 2.072960 1_665
Fe1 O22 2.106355 1_564
Fe1 O23 2.106355 1_654
Fe2 O0 1.932741 1_555
Fe2 O7 1.959229 1_555
Fe2 O11 1.962300 1_555
Fe2 O2 1.978417 1_655
Fe2 O3 2.012536 1_655
Fe2 O5 2.034889 1_555
Fe3 O2 1.851535 1_555
Fe3 O4 1.960118 1_545
Fe3 O9 1.960118 1_455
Fe3 O10 1.983543 1_445
Fe4 O1 1.932741 1_555
Fe4 O7 1.959229 1_555
Fe4 O6 1.962300 1_555
Fe4 O2 1.978417 1_565
Fe4 O3 2.012536 1_565
Fe4 O5 2.034889 1_555
Fe5 O6 1.945975 1_555
Fe5 O11 1.945975 1_555
Fe5 O5 2.051464 1_555
Fe5 O10 2.080130 1_555
Fe5 O9 2.152493 1_555
Fe5 O4 2.152493 1_555
Fe6 O8 1.944561 1_555
Fe6 O19 2.061162 1_565
Fe6 O12 2.067310 1_565
Fe6 O15 2.075880 1_565
Fe6 O4 2.076731 1_555
Fe6 O10 2.103982 1_555
Fe7 O8 1.944561 1_555
Fe7 O14 2.061162 1_655
Fe7 O12 2.067310 1_655
Fe7 O15 2.075880 1_655
Fe7 O9 2.076731 1_555
Fe7 O10 2.103982 1_555
Fe8 O13 1.956213 1_555
Fe8 O17 1.956213 1_555
Fe8 O18 1.959038 1_555
Fe8 O19 2.158484 1_555
Fe8 O14 2.158484 1_555
Fe8 O12 2.176609 1_555
Fe9 O13 1.961669 1_555
Fe9 O18 1.968753 1_555
Fe9 O21 2.072570 1_455
Fe9 O16 2.079437 1_555
Fe9 O23 2.093396 1_555
Fe9 O20 2.126223 1_455
Fe10 O6 1.884751 1_545
Fe10 O11 1.884751 1_455
Fe10 O5 1.961113 1_555
Fe10 O15 2.010306 1_555
Fe11 O17 1.961669 1_555
Fe11 O18 1.968753 1_555
Fe11 O21 2.072570 1_545
Fe11 O16 2.079437 1_555
Fe11 O22 2.093396 1_555
Fe11 O20 2.126223 1_545
Fe12 O8 1.953712 1_555
Fe12 O4 2.056695 1_555
Fe12 O9 2.056695 1_555
Fe12 O14 2.066396 1_555
Fe12 O19 2.066396 1_555
Fe12 O15 2.089463 1_555
Fe13 O21 1.919002 1_555
Fe13 O12 1.957351 1_665
Fe13 O14 1.961110 1_655
Fe13 O19 1.961110 1_565
Fe14 O13 1.967399 1_555
Fe14 O17 1.967399 1_555
Fe14 O23 2.075761 1_545
Fe14 O22 2.075761 1_455
Fe14 O21 2.089265 1_445
Fe14 O16 2.091979 1_555
Fe15 O7 1.914148 1_556
Fe15 O22 1.946671 1_555
Fe15 O23 1.946671 1_555
Fe15 O20 1.960198 1_555
