# generated using pymatgen
data_Li7Mn8(BO3)8
_symmetry_space_group_name_H-M   'P 1'
_cell_length_a   5.27463700
_cell_length_b   9.07688243
_cell_length_c   11.55039905
_cell_angle_alpha   111.89740352
_cell_angle_beta   102.05791569
_cell_angle_gamma   89.63081772
_symmetry_Int_Tables_number   1
_chemical_formula_structural   Li7Mn8(BO3)8
_chemical_formula_sum   'Li7 Mn8 B8 O24'
_cell_volume   500.22477626
_cell_formula_units_Z   1
loop_
 _symmetry_equiv_pos_site_id
 _symmetry_equiv_pos_as_xyz
  1  'x, y, z'
loop_
 _atom_site_type_symbol
 _atom_site_label
 _atom_site_symmetry_multiplicity
 _atom_site_fract_x
 _atom_site_fract_y
 _atom_site_fract_z
 _atom_site_occupancy
  Li  Li0  1  0.97368900  0.96211800  0.08634900  1
  Li  Li1  1  0.71536100  0.74981500  0.32976300  1
  Li  Li2  1  0.46975600  0.46281000  0.09248300  1
  Li  Li3  1  0.52134400  0.49047400  0.82732800  1
  Li  Li4  1  0.22464000  0.26002900  0.34141100  1
  Li  Li5  1  0.20091600  0.22200800  0.58683900  1
  Li  Li6  1  0.02598100  0.99042400  0.83498000  1
  Mn  Mn0  1  0.97583400  0.64299500  0.11474000  1
  Mn  Mn1  1  0.74497300  0.43986200  0.37731900  1
  Mn  Mn2  1  0.72728900  0.03836600  0.61603100  1
  Mn  Mn3  1  0.47746300  0.14640700  0.12278900  1
  Mn  Mn4  1  0.53783700  0.85218500  0.86569700  1
  Mn  Mn5  1  0.25054300  0.93567400  0.36819900  1
  Mn  Mn6  1  0.21212300  0.58421700  0.61966200  1
  Mn  Mn7  1  0.02714600  0.33642400  0.86770600  1
  B  B0  1  0.97522900  0.31509800  0.12892600  1
  B  B1  1  0.75831000  0.10626400  0.37756800  1
  B  B2  1  0.73622200  0.38489300  0.62521500  1
  B  B3  1  0.47483900  0.81357200  0.12297900  1
  B  B4  1  0.53153700  0.18748300  0.87862700  1
  B  B5  1  0.24978900  0.61078700  0.37282800  1
  B  B6  1  0.24271700  0.89584900  0.62706500  1
  B  B7  1  0.03092500  0.68557500  0.86906200  1
  O  O0  1  0.73534200  0.34823200  0.16286900  1
  O  O1  1  0.85766000  0.48120800  0.57907600  1
  O  O2  1  0.88633500  0.27396000  0.66010900  1
  O  O3  1  0.59316800  0.91372500  0.07939100  1
  O  O4  1  0.59427800  0.68217800  0.13310800  1
  O  O5  1  0.93836200  0.83348100  0.89502300  1
  O  O6  1  0.91542900  0.57266000  0.90071300  1
  O  O7  1  0.65943400  0.98234400  0.40416900  1
  O  O8  1  0.58815300  0.20519900  0.33748400  1
  O  O9  1  0.76175200  0.14439800  0.83876100  1
  O  O10  1  0.49919200  0.60751200  0.35969800  1
  O  O11  1  0.48057000  0.40043600  0.63534900  1
  O  O12  1  0.23376000  0.84583800  0.15695900  1
  O  O13  1  0.41490800  0.78636700  0.65424100  1
  O  O14  1  0.32762500  0.00375400  0.58059500  1
  O  O15  1  0.09058400  0.41161600  0.08117600  1
  O  O16  1  0.09994100  0.18891800  0.14789000  1
  O  O17  1  0.43378400  0.33276600  0.88959900  1
  O  O18  1  0.39636600  0.08054600  0.91063900  1
  O  O19  1  0.15478700  0.50837600  0.42558200  1
  O  O20  1  0.07818600  0.70825600  0.33263700  1
  O  O21  1  0.25331800  0.65035600  0.81428000  1
  O  O22  1  0.02424600  0.13044200  0.39302100  1
  O  O23  1  0.00143800  0.89333900  0.65004000  1
loop_
_geom_bond_atom_site_label_1
_geom_bond_atom_site_label_2
_geom_bond_distance
_geom_bond_site_symmetry_2
Li0 O12 1.953693 1_655
Li0 O16 1.978670 1_665
Li0 O3 2.036058 1_555
Li0 O5 2.046413 1_554
Li1 O10 1.898646 1_555
Li1 O20 1.944071 1_655
Li1 O7 2.006322 1_555
Li1 O4 2.074382 1_555
Li2 O4 1.951294 1_555
Li2 O0 1.959864 1_555
Li2 O15 2.022510 1_555
Li2 O17 2.162106 1_554
Li3 O17 1.922264 1_555
Li3 O11 2.020514 1_555
Li3 O21 2.043312 1_555
Li3 O6 2.099521 1_555
Li4 O22 1.912708 1_555
Li4 O8 1.983272 1_555
Li4 O16 2.039763 1_555
Li4 O19 2.160259 1_555
Li5 O2 1.992691 1_455
Li5 O11 2.030124 1_555
Li5 O14 2.067127 1_555
Li5 O22 2.078793 1_555
Li6 O5 1.898214 1_455
Li6 O23 1.959140 1_555
Li6 O9 1.962763 1_465
Li6 O18 2.005909 1_565
Mn0 O4 2.082025 1_555
Mn0 O15 2.098053 1_655
Mn0 O12 2.136357 1_655
Mn0 O6 2.262014 1_554
Mn0 O20 2.302399 1_655
Mn1 O10 2.033012 1_555
Mn1 O8 2.136712 1_555
Mn1 O19 2.150673 1_655
Mn1 O1 2.167166 1_555
Mn1 O0 2.289346 1_555
Mn2 O23 2.025356 1_645
Mn2 O14 2.064550 1_555
Mn2 O2 2.137423 1_555
Mn2 O7 2.254594 1_545
Mn2 O9 2.353244 1_555
Mn3 O16 2.084719 1_555
Mn3 O3 2.099032 1_545
Mn3 O0 2.134705 1_555
Mn3 O18 2.240003 1_554
Mn3 O8 2.277535 1_555
Mn4 O5 2.084714 1_555
Mn4 O18 2.112380 1_565
Mn4 O21 2.193761 1_555
Mn4 O13 2.235540 1_555
Mn4 O3 2.272049 1_556
Mn5 O22 2.090480 1_565
Mn5 O20 2.119448 1_555
Mn5 O7 2.123621 1_555
Mn5 O14 2.240845 1_565
Mn5 O12 2.247796 1_555
Mn6 O1 1.979654 1_455
Mn6 O13 1.992637 1_555
Mn6 O19 2.039354 1_555
Mn6 O21 2.061981 1_555
Mn6 O11 2.215479 1_555
Mn7 O17 2.108138 1_555
Mn7 O9 2.123834 1_455
Mn7 O6 2.135032 1_455
Mn7 O2 2.206805 1_455
Mn7 O15 2.249513 1_556
B0 O16 1.381908 1_655
B0 O15 1.396212 1_655
B0 O0 1.399855 1_555
B1 O22 1.384839 1_655
B1 O8 1.397303 1_555
B1 O7 1.401386 1_545
B2 O11 1.379550 1_555
B2 O1 1.398552 1_555
B2 O2 1.400848 1_555
B3 O4 1.377168 1_555
B3 O3 1.396218 1_555
B3 O12 1.405267 1_555
B4 O17 1.383768 1_555
B4 O9 1.390206 1_555
B4 O18 1.404986 1_555
B5 O10 1.354230 1_555
B5 O20 1.392111 1_555
B5 O19 1.429177 1_555
B6 O23 1.355207 1_555
B6 O14 1.395059 1_565
B6 O13 1.418772 1_555
B7 O5 1.372265 1_455
B7 O6 1.391331 1_455
B7 O21 1.425834 1_555
