# generated using pymatgen
data_Li4V3P8O29
_symmetry_space_group_name_H-M   'P 1'
_cell_length_a   9.73698000
_cell_length_b   9.76840048
_cell_length_c   14.18497913
_cell_angle_alpha   90.50991858
_cell_angle_beta   89.83222406
_cell_angle_gamma   119.63978793
_symmetry_Int_Tables_number   1
_chemical_formula_structural   Li4V3P8O29
_chemical_formula_sum   'Li8 V6 P16 O58'
_cell_volume   1172.61164339
_cell_formula_units_Z   2
loop_
 _symmetry_equiv_pos_site_id
 _symmetry_equiv_pos_as_xyz
  1  'x, y, z'
loop_
 _atom_site_type_symbol
 _atom_site_label
 _atom_site_symmetry_multiplicity
 _atom_site_fract_x
 _atom_site_fract_y
 _atom_site_fract_z
 _atom_site_occupancy
  Li  Li0  1  0.77126000  0.08495900  0.44071100  1
  Li  Li1  1  0.91648200  0.68796000  0.44117900  1
  Li  Li2  1  0.76547100  0.66639000  0.93889200  1
  Li  Li3  1  0.33071800  0.09638000  0.94077000  1
  Li  Li4  1  0.31538400  0.22224800  0.44727500  1
  Li  Li5  1  0.23059800  0.33350200  0.05444700  1
  Li  Li6  1  0.09040500  0.31909600  0.56533700  1
  Li  Li7  1  0.96039200  0.98741100  0.99764700  1
  V  V0  1  0.57049700  0.56947900  0.74647600  1
  V  V1  1  0.43524200  0.43468900  0.25091800  1
  V  V2  1  0.56751500  0.99929100  0.24711600  1
  V  V3  1  0.43546400  0.99898800  0.75097500  1
  V  V4  1  0.99371200  0.43145500  0.75663000  1
  V  V5  1  0.00627700  0.56931300  0.24563700  1
  P  P0  1  0.91672900  0.22260300  0.16206300  1
  P  P1  1  0.77101500  0.08700300  0.65755900  1
  P  P2  1  0.91596000  0.68181200  0.65611400  1
  P  P3  1  0.66082600  0.33304300  0.87038900  1
  P  P4  1  0.67191300  0.33688400  0.36833700  1
  P  P5  1  0.77201400  0.68429600  0.15660600  1
  P  P6  1  0.68539600  0.77207100  0.33910400  1
  P  P7  1  0.31338200  0.08732100  0.15460500  1
  P  P8  1  0.69619000  0.91647900  0.84033200  1
  P  P9  1  0.31979600  0.22727400  0.66091700  1
  P  P10  1  0.23068500  0.31899600  0.84044800  1
  P  P11  1  0.33131700  0.66334200  0.63209000  1
  P  P12  1  0.33527300  0.66218000  0.13064700  1
  P  P13  1  0.08922100  0.32046500  0.34524800  1
  P  P14  1  0.22895400  0.91606500  0.33619600  1
  P  P15  1  0.08385400  0.77973100  0.83939500  1
  O  O0  1  0.00429900  0.24696300  0.43554700  1
  O  O1  1  0.91829000  0.25278200  0.66444900  1
  O  O2  1  0.79887700  0.99678700  0.92263200  1
  O  O3  1  0.74492800  0.08711400  0.16652000  1
  O  O4  1  0.91907800  0.38287800  0.17208800  1
  O  O5  1  0.80265900  0.32354800  0.82857300  1
  O  O6  1  0.90603000  0.52228400  0.67893000  1
  O  O7  1  0.99175900  0.79914700  0.91755400  1
  O  O8  1  0.91399000  0.65493000  0.16961500  1
  O  O9  1  0.67268400  0.18673700  0.33164200  1
  O  O10  1  0.61936700  0.09806400  0.68219000  1
  O  O11  1  0.82140800  0.48453200  0.32639700  1
  O  O12  1  0.64840500  0.33753600  0.97484600  1
  O  O13  1  0.66241400  0.34607900  0.47272300  1
  O  O14  1  0.67069200  0.48796000  0.82776900  1
  O  O15  1  0.47085800  0.09165800  0.16955100  1
  O  O16  1  0.50502300  0.18530200  0.82927700  1
  O  O17  1  0.74563800  0.65817500  0.66902000  1
  O  O18  1  0.78642200  0.79694100  0.24253200  1
  O  O19  1  0.76932300  0.75670300  0.42090100  1
  O  O20  1  0.78167000  0.76117200  0.06463500  1
  O  O21  1  0.61583900  0.52682100  0.17269800  1
  O  O22  1  0.52087400  0.33631500  0.32244800  1
  O  O23  1  0.65782600  0.74065200  0.83631100  1
  O  O24  1  0.48012900  0.37965700  0.67776300  1
  O  O25  1  0.34241300  0.08220500  0.66526200  1
  O  O26  1  0.78900400  0.98944500  0.74261400  1
  O  O27  1  0.75588400  0.00862500  0.56519700  1
  O  O28  1  0.23175100  0.00890700  0.41992000  1
  O  O29  1  0.66392100  0.91824400  0.34016700  1
  O  O30  1  0.52197300  0.62043900  0.32002800  1
  O  O31  1  0.33649100  0.25827300  0.16817200  1
  O  O32  1  0.47949500  0.65981300  0.67793400  1
  O  O33  1  0.38612600  0.47383700  0.82653000  1
  O  O34  1  0.22823500  0.23259400  0.92823400  1
  O  O35  1  0.24165100  0.23813500  0.57232300  1
  O  O36  1  0.20851400  0.20849800  0.74946000  1
  O  O37  1  0.25742500  0.33900200  0.34313100  1
  O  O38  1  0.48193100  0.80579700  0.17138400  1
  O  O39  1  0.53989500  0.92290900  0.83164900  1
  O  O40  1  0.32421800  0.50671800  0.17541500  1
  O  O41  1  0.31893100  0.63812800  0.02713400  1
  O  O42  1  0.34340700  0.67332300  0.52822700  1
  O  O43  1  0.18301100  0.51496600  0.66948400  1
  O  O44  1  0.38314900  0.90968400  0.32025000  1
  O  O45  1  0.34017300  0.81411400  0.68248400  1
  O  O46  1  0.08856100  0.34699300  0.83552900  1
  O  O47  1  0.99528300  0.20481900  0.25904700  1
  O  O48  1  0.00683100  0.20971300  0.08072900  1
  O  O49  1  0.09798500  0.47922600  0.32395400  1
  O  O50  1  0.18649700  0.66671100  0.17604500  1
  O  O51  1  0.08285100  0.62279800  0.83302300  1
  O  O52  1  0.25822500  0.92035100  0.83945200  1
  O  O53  1  0.23101800  0.02299400  0.06328700  1
  O  O54  1  0.20001300  0.98957800  0.24097200  1
  O  O55  1  0.08511700  0.74490600  0.33648400  1
  O  O56  1  0.98768400  0.74849900  0.56423700  1
  O  O57  1  0.01464000  0.80123800  0.73988800  1
loop_
_geom_bond_atom_site_label_1
_geom_bond_atom_site_label_2
_geom_bond_distance
_geom_bond_site_symmetry_2
Li0 O27 1.899488 1_555
Li0 O29 2.015554 1_545
Li0 O0 2.026797 1_655
Li0 O9 2.298546 1_555
Li1 O56 1.860269 1_555
Li1 O19 1.882650 1_555
Li1 O55 2.075594 1_655
Li1 O11 2.364001 1_555
Li2 O7 1.950654 1_555
Li2 O20 1.972656 1_556
Li2 O23 2.126485 1_555
Li2 O14 2.177826 1_555
Li3 O53 1.949506 1_556
Li3 O34 2.028887 1_555
Li3 O52 2.069292 1_545
Li3 O16 2.164906 1_555
Li4 O28 1.861629 1_555
Li4 O35 1.945184 1_555
Li4 O37 2.114963 1_555
Li4 O22 2.487864 1_555
Li5 O48 1.935401 1_555
Li5 O34 2.030721 1_554
Li5 O31 2.232891 1_555
Li5 O40 2.251727 1_555
Li6 O35 1.989545 1_555
Li6 O0 1.997647 1_555
Li6 O1 2.033078 1_455
Li6 O43 2.215278 1_555
Li7 O2 1.941122 1_555
Li7 O20 2.244799 1_556
Li7 O7 2.298355 1_555
Li7 O48 2.301150 1_666
O0 P13 1.504286 1_555
O1 P1 1.545798 1_555
O1 V4 1.998142 1_555
O2 P8 1.480787 1_555
O3 P0 1.537868 1_555
O3 V2 1.888710 1_545
O4 P0 1.559673 1_555
O4 V5 1.888910 1_655
O5 P3 1.545506 1_555
O5 V4 1.918776 1_555
O6 P2 1.549923 1_555
O6 V4 1.871647 1_555
O7 P15 1.492624 1_655
O8 P5 1.556306 1_555
O8 V5 1.853345 1_655
O9 P4 1.555465 1_555
O9 V2 1.988088 1_545
O10 P1 1.571046 1_555
O10 V3 1.840543 1_545
O11 P4 1.576909 1_555
O11 V5 1.941331 1_655
O12 P3 1.488318 1_555
O13 P4 1.488013 1_555
O14 P3 1.592775 1_555
O14 V0 1.925348 1_555
O15 P7 1.528191 1_555
O15 V2 1.942699 1_545
O16 P3 1.596567 1_555
O16 V3 1.937518 1_545
O17 P2 1.567616 1_555
O17 V0 1.846780 1_555
O18 P5 1.593906 1_555
O18 P6 1.632444 1_555
O19 P6 1.471940 1_555
O20 P5 1.490523 1_555
O21 P5 1.556075 1_555
O21 V1 1.890582 1_555
O22 P4 1.607500 1_555
O22 V1 1.860910 1_555
O23 P8 1.567341 1_555
O23 V0 1.924811 1_555
O24 P9 1.551588 1_555
O24 V0 1.876595 1_555
O25 P9 1.539724 1_555
O25 V3 1.926781 1_545
O26 P1 1.606648 1_565
O26 P8 1.618406 1_555
O27 P1 1.481924 1_555
O28 P14 1.479959 1_545
O29 P6 1.541977 1_555
O29 V2 2.002768 1_555
O30 P6 1.569518 1_555
O30 V1 1.850440 1_555
O31 P7 1.580887 1_555
O31 V1 1.898335 1_555
O32 P11 1.600266 1_555
O32 V0 1.817360 1_555
O33 P10 1.535187 1_555
O33 V0 1.932148 1_555
O34 P10 1.504051 1_555
O35 P9 1.502446 1_555
O36 P9 1.607722 1_555
O36 P10 1.619832 1_555
O37 P13 1.556455 1_555
O37 V1 1.997547 1_555
O38 P12 1.533024 1_555
O38 V2 1.957609 1_555
O39 P8 1.559134 1_555
O39 V3 1.914477 1_555
O40 P12 1.605032 1_555
O40 V1 1.892958 1_555
O41 P12 1.481473 1_555
O42 P11 1.477887 1_555
O43 P11 1.551265 1_555
O43 V4 2.026907 1_455
O44 P14 1.549050 1_555
O44 V2 1.875119 1_555
O45 P11 1.594860 1_555
O45 V3 1.839256 1_555
O46 P10 1.539471 1_555
O46 V4 1.887425 1_455
O47 P13 1.602463 1_655
O47 P0 1.627776 1_555
O48 P0 1.489083 1_455
O49 P13 1.543022 1_555
O49 V5 1.899049 1_555
O50 P12 1.603942 1_555
O50 V5 1.820505 1_555
O51 P15 1.530045 1_555
O51 V4 1.945776 1_455
O52 P15 1.569319 1_555
O52 V3 1.958766 1_555
O53 P7 1.486300 1_555
O54 P7 1.612915 1_565
O54 P14 1.624579 1_555
O55 P14 1.562352 1_555
O55 V5 1.963710 1_555
O56 P2 1.473231 1_555
O57 P2 1.603007 1_455
O57 P15 1.625289 1_555
