# generated using pymatgen
data_Fe10O19F
_symmetry_space_group_name_H-M   'P 1'
_cell_length_a   4.64038063
_cell_length_b   4.64038063
_cell_length_c   14.81546700
_cell_angle_alpha   90.00000000
_cell_angle_beta   90.00000000
_cell_angle_gamma   90.85861235
_symmetry_Int_Tables_number   1
_chemical_formula_structural   Fe10O19F
_chemical_formula_sum   'Fe10 O19 F1'
_cell_volume   318.98759109
_cell_formula_units_Z   1
loop_
 _symmetry_equiv_pos_site_id
 _symmetry_equiv_pos_as_xyz
  1  'x, y, z'
loop_
 _atom_site_type_symbol
 _atom_site_label
 _atom_site_symmetry_multiplicity
 _atom_site_fract_x
 _atom_site_fract_y
 _atom_site_fract_z
 _atom_site_occupancy
  Fe  Fe0  1  0.99364100  0.00635900  0.89522200  1
  Fe  Fe1  1  0.99842300  0.00157700  0.69806300  1
  Fe  Fe2  1  0.99948300  0.00051700  0.50000000  1
  Fe  Fe3  1  0.99842300  0.00157700  0.30193700  1
  Fe  Fe4  1  0.99364100  0.00635900  0.10477800  1
  Fe  Fe5  1  0.49827400  0.50172600  0.79946700  1
  Fe  Fe6  1  0.49914100  0.50085900  0.40006400  1
  Fe  Fe7  1  0.49914100  0.50085900  0.59993600  1
  Fe  Fe8  1  0.49827400  0.50172600  0.20053300  1
  Fe  Fe9  1  0.52036500  0.47963500  0.00000000  1
  O  O0  1  0.80525700  0.19474300  0.79368800  1
  O  O1  1  0.81060600  0.18939400  0.59889100  1
  O  O2  1  0.81060600  0.18939400  0.40110900  1
  O  O3  1  0.80525700  0.19474300  0.20631200  1
  O  O4  1  0.81829300  0.18170700  0.00000000  1
  O  O5  1  0.31035100  0.30561600  0.89959400  1
  O  O6  1  0.30699400  0.31223200  0.69929600  1
  O  O7  1  0.30942200  0.30997000  0.50000000  1
  O  O8  1  0.30699400  0.31223200  0.30070400  1
  O  O9  1  0.31035100  0.30561600  0.10040600  1
  O  O10  1  0.69438400  0.68964900  0.89959400  1
  O  O11  1  0.68776800  0.69300600  0.69929600  1
  O  O12  1  0.69003100  0.69057800  0.50000000  1
  O  O13  1  0.68776800  0.69300600  0.30070400  1
  O  O14  1  0.69438400  0.68964900  0.10040600  1
  O  O15  1  0.18825400  0.81174600  0.79595500  1
  O  O16  1  0.18728300  0.81271700  0.40070400  1
  O  O17  1  0.18728300  0.81271700  0.59929600  1
  O  O18  1  0.18825400  0.81174600  0.20404500  1
  F  F0  1  0.20165400  0.79834600  0.00000000  1
loop_
_geom_bond_atom_site_label_1
_geom_bond_atom_site_label_2
_geom_bond_distance
_geom_bond_site_symmetry_2
Fe0 O4 1.937457 1_556
Fe0 O0 1.952972 1_555
Fe0 O15 1.954089 1_645
Fe0 O5 2.007812 1_655
Fe0 O10 2.007812 1_545
Fe1 O0 1.907390 1_555
Fe1 O15 1.917967 1_645
Fe1 O17 1.923615 1_645
Fe1 O1 1.923725 1_555
Fe1 O11 2.016645 1_545
Fe1 O6 2.016645 1_655
Fe2 O16 1.925056 1_645
Fe2 O17 1.925056 1_645
Fe2 O1 1.925086 1_555
Fe2 O2 1.925086 1_555
Fe2 O12 2.017089 1_545
Fe2 O7 2.017092 1_655
Fe3 O3 1.907390 1_555
Fe3 O18 1.917967 1_645
Fe3 O16 1.923615 1_645
Fe3 O2 1.923725 1_555
Fe3 O13 2.016645 1_545
Fe3 O8 2.016645 1_655
Fe4 O4 1.937457 1_555
Fe4 O3 1.952972 1_555
Fe4 O18 1.954089 1_645
Fe4 O14 2.007812 1_545
Fe4 O9 2.007812 1_655
Fe5 O11 1.933952 1_555
Fe5 O6 1.933952 1_555
Fe5 O10 1.940455 1_555
Fe5 O5 1.940455 1_555
Fe5 O0 2.031416 1_555
Fe5 O15 2.050350 1_555
Fe6 O13 1.924773 1_555
Fe6 O8 1.924773 1_555
Fe6 O7 1.930929 1_555
Fe6 O12 1.930931 1_555
Fe6 O2 2.059302 1_555
Fe6 O16 2.061863 1_555
Fe7 O11 1.924773 1_555
Fe7 O6 1.924773 1_555
Fe7 O7 1.930929 1_555
Fe7 O12 1.930931 1_555
Fe7 O1 2.059302 1_555
Fe7 O17 2.061863 1_555
Fe8 O13 1.933952 1_555
Fe8 O8 1.933952 1_555
Fe8 O14 1.940455 1_555
Fe8 O9 1.940455 1_555
Fe8 O3 2.031416 1_555
Fe8 O18 2.050350 1_555
Fe9 O14 1.947068 1_555
Fe9 O5 1.947068 1_554
Fe9 O9 1.947068 1_555
Fe9 O10 1.947068 1_554
Fe9 O4 1.969744 1_555
F0 Fe4 2.073914 1_465
F0 Fe0 2.073914 1_464
F0 Fe9 2.107150 1_555
