# generated using pymatgen
data_Li6Mn2O5F2
_symmetry_space_group_name_H-M   'P 1'
_cell_length_a   6.01876300
_cell_length_b   5.12255500
_cell_length_c   10.01517397
_cell_angle_alpha   72.11462636
_cell_angle_beta   90.00000000
_cell_angle_gamma   90.00000000
_symmetry_Int_Tables_number   1
_chemical_formula_structural   Li6Mn2O5F2
_chemical_formula_sum   'Li12 Mn4 O10 F4'
_cell_volume   293.85970804
_cell_formula_units_Z   2
loop_
 _symmetry_equiv_pos_site_id
 _symmetry_equiv_pos_as_xyz
  1  'x, y, z'
loop_
 _atom_site_type_symbol
 _atom_site_label
 _atom_site_symmetry_multiplicity
 _atom_site_fract_x
 _atom_site_fract_y
 _atom_site_fract_z
 _atom_site_occupancy
  Li  Li0  1  0.04370700  0.20384500  0.13683600  1
  Li  Li1  1  0.49095600  0.23539800  0.14225000  1
  Li  Li2  1  0.76358400  0.81759500  0.13110500  1
  Li  Li3  1  0.97114300  0.78205500  0.36733900  1
  Li  Li4  1  0.53196700  0.77174800  0.35009900  1
  Li  Li5  1  0.22564600  0.17492200  0.36917600  1
  Li  Li6  1  0.23641600  0.81759500  0.63110500  1
  Li  Li7  1  0.95629300  0.20384500  0.63683600  1
  Li  Li8  1  0.50904400  0.23539800  0.64225000  1
  Li  Li9  1  0.77435400  0.17492200  0.86917600  1
  Li  Li10  1  0.02885700  0.78205500  0.86733900  1
  Li  Li11  1  0.46803300  0.77174800  0.85009900  1
  Mn  Mn0  1  0.27560200  0.73484200  0.12754200  1
  Mn  Mn1  1  0.73933800  0.26733700  0.37020300  1
  Mn  Mn2  1  0.72439800  0.73484200  0.62754200  1
  Mn  Mn3  1  0.26066200  0.26733700  0.87020300  1
  O  O0  1  0.26357400  0.49912300  0.00025300  1
  O  O1  1  0.05355000  0.98992500  0.00413300  1
  O  O2  1  0.26311600  0.94858100  0.25220700  1
  O  O3  1  0.76061300  0.05120300  0.24795500  1
  O  O4  1  0.53630500  0.52296800  0.23336300  1
  O  O5  1  0.94645000  0.98992500  0.50413300  1
  O  O6  1  0.73642600  0.49912300  0.50025300  1
  O  O7  1  0.46369500  0.52296800  0.73336300  1
  O  O8  1  0.73688400  0.94858100  0.75220700  1
  O  O9  1  0.23938700  0.05120300  0.74795500  1
  F  F0  1  0.03674400  0.47742100  0.27063900  1
  F  F1  1  0.45185200  0.02303300  0.49690100  1
  F  F2  1  0.96325600  0.47742100  0.77063900  1
  F  F3  1  0.54814800  0.02303300  0.99690100  1
loop_
_geom_bond_atom_site_label_1
_geom_bond_atom_site_label_2
_geom_bond_distance
_geom_bond_site_symmetry_2
Li0 O2 1.964891 1_545
Li0 O1 1.966020 1_545
Li0 O3 2.053921 1_455
Li0 O0 2.153920 1_555
Li1 O4 1.975560 1_555
Li1 O3 2.007890 1_555
Li1 O2 2.063511 1_545
Li1 O0 2.130818 1_555
Li2 O3 1.913651 1_565
Li2 O4 2.061195 1_555
Li2 O1 2.180070 1_655
Li3 O3 1.980794 1_565
Li3 O5 1.982155 1_555
Li3 O2 2.131018 1_655
Li3 O6 2.164085 1_555
Li4 O2 1.963328 1_555
Li4 O4 1.976556 1_555
Li4 O3 2.022401 1_565
Li4 O6 2.106223 1_555
Li5 O2 1.897834 1_545
Li5 O5 2.182194 1_445
Li6 O9 1.913651 1_565
Li6 O7 2.061195 1_555
Li6 O5 2.180070 1_455
Li7 O8 1.964891 1_545
Li7 O5 1.966020 1_545
Li7 O9 2.053921 1_655
Li7 O6 2.153920 1_555
Li8 O7 1.975560 1_555
Li8 O9 2.007890 1_555
Li8 O8 2.063511 1_545
Li8 O6 2.130818 1_555
Li9 O8 1.897834 1_545
Li9 O1 2.182194 1_646
Li10 O9 1.980794 1_565
Li10 O1 1.982155 1_556
Li10 O8 2.131018 1_455
Li10 O0 2.164085 1_556
Li11 O8 1.963328 1_555
Li11 O7 1.976556 1_555
Li11 O9 2.022401 1_565
Li11 O0 2.106223 1_556
Mn0 O2 1.898143 1_555
Mn0 O1 2.007287 1_555
Mn0 O0 2.008463 1_555
Mn0 O4 2.014138 1_555
Mn1 O3 1.890449 1_555
Mn1 O4 1.995984 1_555
Mn1 O6 2.014050 1_555
Mn1 O5 2.049805 1_545
Mn2 O8 1.898143 1_555
Mn2 O5 2.007287 1_555
Mn2 O6 2.008463 1_555
Mn2 O7 2.014138 1_555
Mn3 O9 1.890449 1_555
Mn3 O7 1.995984 1_555
Mn3 O0 2.014050 1_556
Mn3 O1 2.049805 1_546
F0 Li5 1.930919 1_555
F0 Li3 2.111227 1_455
F0 Mn1 2.167366 1_455
F0 Mn0 2.167658 1_555
F0 Li0 2.216972 1_555
F0 Li2 2.489313 1_455
F1 Li5 1.866547 1_555
F1 Li6 1.930425 1_545
F1 Li8 2.096101 1_555
F1 Mn1 2.279223 1_555
F1 Li4 2.283314 1_545
F1 Mn2 2.322875 1_545
F2 Li9 1.930919 1_555
F2 Li10 2.111227 1_655
F2 Mn3 2.167366 1_655
F2 Mn2 2.167658 1_555
F2 Li7 2.216972 1_555
F2 Li6 2.489313 1_655
F3 Li9 1.866547 1_555
F3 Li2 1.930425 1_546
F3 Li1 2.096101 1_556
F3 Mn3 2.279223 1_555
F3 Li11 2.283314 1_545
F3 Mn0 2.322875 1_546
