# generated using pymatgen
data_Li3MnV(PO4)3
_symmetry_space_group_name_H-M   'P 1'
_cell_length_a   9.83178100
_cell_length_b   9.87281945
_cell_length_c   9.92081065
_cell_angle_alpha   85.77918819
_cell_angle_beta   87.70494137
_cell_angle_gamma   87.57706077
_symmetry_Int_Tables_number   1
_chemical_formula_structural   Li3MnV(PO4)3
_chemical_formula_sum   'Li12 Mn4 V4 P12 O48'
_cell_volume   958.85746566
_cell_formula_units_Z   4
loop_
 _symmetry_equiv_pos_site_id
 _symmetry_equiv_pos_as_xyz
  1  'x, y, z'
loop_
 _atom_site_type_symbol
 _atom_site_label
 _atom_site_symmetry_multiplicity
 _atom_site_fract_x
 _atom_site_fract_y
 _atom_site_fract_z
 _atom_site_occupancy
  Li  Li0  1  0.04875900  0.98334300  0.99697600  1
  Li  Li1  1  0.73158100  0.14710700  0.05848000  1
  Li  Li2  1  0.07765300  0.73765000  0.13086800  1
  Li  Li3  1  0.56485200  0.63982300  0.22979400  1
  Li  Li4  1  0.85522800  0.94292700  0.26712800  1
  Li  Li5  1  0.76745500  0.41496900  0.36674800  1
  Li  Li6  1  0.36654100  0.75802800  0.43623500  1
  Li  Li7  1  0.52030500  0.44736500  0.49878200  1
  Li  Li8  1  0.23557000  0.55619600  0.64563500  1
  Li  Li9  1  0.46050300  0.34332500  0.77709000  1
  Li  Li10  1  0.14475000  0.04726300  0.73678500  1
  Li  Li11  1  0.93910800  0.26198100  0.85055900  1
  Mn  Mn0  1  0.02477100  0.24310600  0.47212100  1
  Mn  Mn1  1  0.52706600  0.97471800  0.76373400  1
  Mn  Mn2  1  0.74488500  0.75378600  0.74514500  1
  Mn  Mn3  1  0.75078800  0.53385300  0.96898800  1
  V  V0  1  0.25250200  0.47461300  0.03760200  1
  V  V1  1  0.24783400  0.25170500  0.25550600  1
  V  V2  1  0.46483400  0.03683600  0.25511800  1
  V  V3  1  0.96295900  0.74434400  0.53347300  1
  P  P0  1  0.66232600  0.86412700  0.05363800  1
  P  P1  1  0.94982000  0.33365800  0.13954700  1
  P  P2  1  0.55037800  0.35462200  0.17448000  1
  P  P3  1  0.14414200  0.95248600  0.32767200  1
  P  P4  1  0.16649500  0.54623500  0.35649700  1
  P  P5  1  0.64865300  0.82412600  0.44656700  1
  P  P6  1  0.35403400  0.17340900  0.55335400  1
  P  P7  1  0.82433000  0.44630300  0.64160900  1
  P  P8  1  0.84915100  0.04579700  0.67224900  1
  P  P9  1  0.45148000  0.64886800  0.82881800  1
  P  P10  1  0.04598100  0.67889400  0.85167700  1
  P  P11  1  0.32151200  0.16184100  0.95550600  1
  O  O0  1  0.61698500  0.40194800  0.03487400  1
  O  O1  1  0.90624800  0.22749300  0.04709900  1
  O  O2  1  0.32647100  0.12812100  0.11585800  1
  O  O3  1  0.11190300  0.33794600  0.12296600  1
  O  O4  1  0.68771500  0.71078200  0.09052100  1
  O  O5  1  0.88831800  0.47772400  0.09484500  1
  O  O6  1  0.77721700  0.95266600  0.09379800  1
  O  O7  1  0.52531900  0.91081300  0.11962500  1
  O  O8  1  0.39014600  0.38106900  0.17390000  1
  O  O9  1  0.58686700  0.20019300  0.19411200  1
  O  O10  1  0.19214300  0.58461900  0.20152900  1
  O  O11  1  0.06426700  0.91323800  0.20667300  1
  O  O12  1  0.11822800  0.11258300  0.33300400  1
  O  O13  1  0.59706200  0.43970400  0.28604100  1
  O  O14  1  0.90922100  0.30335700  0.28948800  1
  O  O15  1  0.29962800  0.91606000  0.31973700  1
  O  O16  1  0.16146600  0.38430500  0.38098500  1
  O  O17  1  0.38084300  0.17143600  0.39214800  1
  O  O18  1  0.02824300  0.61062100  0.39663700  1
  O  O19  1  0.60703100  0.96471100  0.37909000  1
  O  O20  1  0.55957500  0.71445700  0.39915200  1
  O  O21  1  0.28061500  0.58829100  0.44409800  1
  O  O22  1  0.80386900  0.80181900  0.40956000  1
  O  O23  1  0.08599700  0.88530100  0.46044500  1
  O  O24  1  0.89362500  0.10925900  0.52909200  1
  O  O25  1  0.19906700  0.17183300  0.58551700  1
  O  O26  1  0.41965000  0.29924500  0.59663100  1
  O  O27  1  0.70935700  0.41238000  0.55314600  1
  O  O28  1  0.41397500  0.03657200  0.61793400  1
  O  O29  1  0.96327200  0.37521500  0.59593200  1
  O  O30  1  0.62513200  0.82521400  0.60485200  1
  O  O31  1  0.84062800  0.60551500  0.62020800  1
  O  O32  1  0.08555100  0.69397200  0.69631500  1
  O  O33  1  0.69893400  0.07989300  0.70168500  1
  O  O34  1  0.40908000  0.55487600  0.72261900  1
  O  O35  1  0.87273700  0.88323900  0.66623100  1
  O  O36  1  0.94646800  0.08616800  0.77826900  1
  O  O37  1  0.41668100  0.80065700  0.79668800  1
  O  O38  1  0.80515800  0.40654100  0.79402700  1
  O  O39  1  0.61580500  0.62538700  0.83717100  1
  O  O40  1  0.45964100  0.12319700  0.88602500  1
  O  O41  1  0.20065600  0.08887200  0.90852600  1
  O  O42  1  0.11444500  0.54313700  0.90304700  1
  O  O43  1  0.30700900  0.31969600  0.92284900  1
  O  O44  1  0.88281900  0.66664500  0.87108900  1
  O  O45  1  0.08202600  0.79618600  0.93372400  1
  O  O46  1  0.65240300  0.88637800  0.89379900  1
  O  O47  1  0.39099800  0.60062600  0.97006200  1
loop_
_geom_bond_atom_site_label_1
_geom_bond_atom_site_label_2
_geom_bond_distance
_geom_bond_site_symmetry_2
Li0 O41 1.994445 1_565
Li0 O45 2.004528 1_555
Li0 O11 2.152845 1_556
Li0 O36 2.552262 1_465
Li1 O1 1.917863 1_555
Li1 O6 1.962145 1_545
Li1 O9 1.999262 1_555
Li2 O11 1.937208 1_555
Li2 O10 1.950551 1_555
Li2 O45 1.997519 1_554
Li3 O20 1.881656 1_555
Li3 O4 1.911662 1_555
Li3 O13 2.028343 1_555
Li4 O6 1.905127 1_555
Li4 O22 1.976118 1_555
Li4 O11 2.132089 1_655
Li5 O13 1.884489 1_555
Li5 O14 1.911373 1_555
Li5 O27 1.912124 1_555
Li6 O21 1.903473 1_555
Li6 O20 1.954646 1_555
Li6 O15 1.977759 1_555
Li7 O27 1.965605 1_555
Li7 O26 1.973992 1_555
Li7 O13 2.218291 1_555
Li8 O34 1.895947 1_555
Li8 O21 2.035159 1_555
Li8 O32 2.037197 1_555
Li9 O26 1.934672 1_555
Li9 O43 2.056270 1_555
Li9 O34 2.162491 1_555
Li9 O40 2.355056 1_555
Li10 O41 1.889701 1_555
Li10 O25 1.941522 1_555
Li10 O36 2.003254 1_455
Li11 O36 1.923783 1_555
Li11 O38 1.966799 1_555
Li11 O1 1.970607 1_556
Mn0 O29 1.919677 1_455
Mn0 O24 1.924572 1_455
Mn0 O16 2.107741 1_555
Mn0 O12 2.114188 1_555
Mn0 O25 2.152489 1_555
Mn0 O14 2.208260 1_455
Mn1 O28 1.908617 1_565
Mn1 O46 1.953209 1_555
Mn1 O40 2.043394 1_565
Mn1 O33 2.069644 1_565
Mn1 O37 2.069889 1_555
Mn1 O30 2.386046 1_555
Mn2 O35 1.932921 1_555
Mn2 O30 1.933201 1_555
Mn2 O39 1.980890 1_555
Mn2 O44 2.004811 1_555
Mn2 O31 2.149974 1_555
Mn2 O46 2.188943 1_555
Mn3 O5 1.914278 1_556
Mn3 O0 1.950499 1_556
Mn3 O39 2.037578 1_555
Mn3 O44 2.050037 1_555
Mn3 O4 2.246797 1_556
Mn3 O38 2.251331 1_555
O0 P2 1.556718 1_555
O1 P1 1.527826 1_555
O2 P11 1.603372 1_554
O2 V1 2.022157 1_555
O2 V2 2.105973 1_555
O3 P1 1.597493 1_455
O3 V1 2.029714 1_555
O3 V0 2.084318 1_555
O4 P0 1.543391 1_555
O5 P1 1.562452 1_555
O6 P0 1.539349 1_555
O7 P0 1.541679 1_555
O7 V2 1.956568 1_565
O8 P2 1.586100 1_555
O8 V1 2.037774 1_555
O8 V0 2.090402 1_555
O9 P2 1.551396 1_555
O9 V2 2.090143 1_555
O10 P4 1.569105 1_555
O10 V0 2.074785 1_555
O11 P3 1.541929 1_555
O12 P3 1.594746 1_545
O12 V1 2.003871 1_555
O13 P2 1.533413 1_555
O14 P1 1.535781 1_555
O15 P3 1.555799 1_555
O15 V2 2.106865 1_565
O16 P4 1.601835 1_555
O16 V1 2.011415 1_555
O17 P6 1.611827 1_555
O17 V1 2.017924 1_555
O17 V2 2.092647 1_555
O18 P4 1.526797 1_555
O18 V3 2.029834 1_455
O19 P5 1.542465 1_555
O19 V2 1.974559 1_565
O20 P5 1.532568 1_555
O21 P4 1.535312 1_555
O22 P5 1.565482 1_555
O22 V3 2.063011 1_555
O23 P3 1.531332 1_555
O23 V3 1.961792 1_455
O24 P8 1.563094 1_555
O25 P6 1.544589 1_555
O26 P6 1.520668 1_555
O27 P7 1.521481 1_555
O28 P6 1.555124 1_555
O29 P7 1.574860 1_555
O30 P5 1.578820 1_555
O31 P7 1.584607 1_555
O31 V3 1.987087 1_555
O32 P10 1.572345 1_555
O32 V3 2.072918 1_455
O33 P8 1.522407 1_555
O34 P9 1.535165 1_555
O35 P8 1.616969 1_565
O35 V3 2.114562 1_555
O36 P8 1.534658 1_555
O37 P9 1.536063 1_555
O38 P7 1.540183 1_555
O39 P9 1.626968 1_555
O40 P11 1.544327 1_555
O41 P11 1.521272 1_555
O42 P10 1.536191 1_555
O42 V0 2.004136 1_556
O43 P11 1.569944 1_555
O43 V0 2.015107 1_556
O44 P10 1.616575 1_655
O45 P10 1.525012 1_555
O46 P0 1.591108 1_556
O47 P9 1.550140 1_555
O47 V0 1.948933 1_556
