# generated using pymatgen
data_Li32Mn5Cr11O48
_symmetry_space_group_name_H-M   'P 1'
_cell_length_a   5.01600880
_cell_length_b   5.01600880
_cell_length_c   38.43013121
_cell_angle_alpha   89.01250023
_cell_angle_beta   89.01250023
_cell_angle_gamma   119.66320320
_symmetry_Int_Tables_number   1
_chemical_formula_structural   Li32Mn5Cr11O48
_chemical_formula_sum   'Li32 Mn5 Cr11 O48'
_cell_volume   839.70640437
_cell_formula_units_Z   1
loop_
 _symmetry_equiv_pos_site_id
 _symmetry_equiv_pos_as_xyz
  1  'x, y, z'
loop_
 _atom_site_type_symbol
 _atom_site_label
 _atom_site_symmetry_multiplicity
 _atom_site_fract_x
 _atom_site_fract_y
 _atom_site_fract_z
 _atom_site_occupancy
  Li  Li0  1  0.91296500  0.71831300  0.06242400  1
  Li  Li1  1  0.99912500  0.12440400  0.81258100  1
  Li  Li2  1  0.93787500  0.06212500  0.00000000  1
  Li  Li3  1  0.87559600  0.00087500  0.18741900  1
  Li  Li4  1  0.80867000  0.93808100  0.37506000  1
  Li  Li5  1  0.74901300  0.87442900  0.56247000  1
  Li  Li6  1  0.68831700  0.81370700  0.75002500  1
  Li  Li7  1  0.96564300  0.41316000  0.93742000  1
  Li  Li8  1  0.62828000  0.74795300  0.93752300  1
  Li  Li9  1  0.83403100  0.27990600  0.31267400  1
  Li  Li10  1  0.72009400  0.16596900  0.68732600  1
  Li  Li11  1  0.56126200  0.69021900  0.12500600  1
  Li  Li12  1  0.50050400  0.62554500  0.31263400  1
  Li  Li13  1  0.58684000  0.03435700  0.06258000  1
  Li  Li14  1  0.46987200  0.91252100  0.43738300  1
  Li  Li15  1  0.78031900  0.58552500  0.43762800  1
  Li  Li16  1  0.66422900  0.46656900  0.81236300  1
  Li  Li17  1  0.33606600  0.78316600  0.81266000  1
  Li  Li18  1  0.21683400  0.66393400  0.18734000  1
  Li  Li19  1  0.53343100  0.33577100  0.18763700  1
  Li  Li20  1  0.41447500  0.21968100  0.56237200  1
  Li  Li21  1  0.43751400  0.56248600  0.50000000  1
  Li  Li22  1  0.28168700  0.08703500  0.93757600  1
  Li  Li23  1  0.16677300  0.96925800  0.31247800  1
  Li  Li24  1  0.37445500  0.49949600  0.68736600  1
  Li  Li25  1  0.03074200  0.83322700  0.68752200  1
  Li  Li26  1  0.30978100  0.43873800  0.87499400  1
  Li  Li27  1  0.25204700  0.37172000  0.06247700  1
  Li  Li28  1  0.18629300  0.31168300  0.24997500  1
  Li  Li29  1  0.12557100  0.25098700  0.43753000  1
  Li  Li30  1  0.06191900  0.19133000  0.62494000  1
  Li  Li31  1  0.08747900  0.53012800  0.56261700  1
  Mn  Mn0  1  0.98045300  0.76943100  0.87490900  1
  Mn  Mn1  1  0.73054700  0.52077400  0.62486000  1
  Mn  Mn2  1  0.60443800  0.39556200  0.00000000  1
  Mn  Mn3  1  0.47922600  0.26945300  0.37514000  1
  Mn  Mn4  1  0.23056900  0.01954700  0.12509100  1
  Cr  Cr0  1  0.85835700  0.65254100  0.24993700  1
  Cr  Cr1  1  0.89257500  0.35766200  0.12504800  1
  Cr  Cr2  1  0.76701800  0.23298200  0.50000000  1
  Cr  Cr3  1  0.64233800  0.10742500  0.87495200  1
  Cr  Cr4  1  0.51578200  0.97274200  0.25024700  1
  Cr  Cr5  1  0.39422200  0.85974500  0.62497500  1
  Cr  Cr6  1  0.27054800  0.72945200  0.00000000  1
  Cr  Cr7  1  0.34745900  0.14164300  0.75006300  1
  Cr  Cr8  1  0.10859700  0.89140300  0.50000000  1
  Cr  Cr9  1  0.14025500  0.60577800  0.37502500  1
  Cr  Cr10  1  0.02725800  0.48421800  0.74975300  1
  O  O0  1  0.91147000  0.67611700  0.15298000  1
  O  O1  1  0.94289400  0.71288200  0.97192700  1
  O  O2  1  0.92959500  0.05429900  0.09675000  1
  O  O3  1  0.80510000  0.92956600  0.47154200  1
  O  O4  1  0.94570100  0.07040500  0.90325000  1
  O  O5  1  0.82699900  0.94145600  0.27900700  1
  O  O6  1  0.69213800  0.81790800  0.65331800  1
  O  O7  1  0.67885200  0.80390600  0.84662300  1
  O  O8  1  0.54926500  0.68538100  0.22123000  1
  O  O9  1  0.92975700  0.41137100  0.02806700  1
  O  O10  1  0.57264400  0.69659400  0.02870700  1
  O  O11  1  0.79919000  0.28261900  0.40333700  1
  O  O12  1  0.68006400  0.16096700  0.77774100  1
  O  O13  1  0.96871100  0.45344800  0.84644200  1
  O  O14  1  0.83903300  0.31993600  0.22225900  1
  O  O15  1  0.71738100  0.20081000  0.59666300  1
  O  O16  1  0.78212600  0.54333200  0.52829100  1
  O  O17  1  0.82047700  0.58616000  0.34718800  1
  O  O18  1  0.69470900  0.46161500  0.72215300  1
  O  O19  1  0.54655200  0.03128900  0.15355800  1
  O  O20  1  0.41860400  0.90673800  0.52836800  1
  O  O21  1  0.58862900  0.07024300  0.97193300  1
  O  O22  1  0.46828300  0.95199200  0.34666400  1
  O  O23  1  0.33180900  0.80842000  0.72166800  1
  O  O24  1  0.66164300  0.42613300  0.90280300  1
  O  O25  1  0.53838500  0.30529100  0.27784700  1
  O  O26  1  0.41384000  0.17952300  0.65281200  1
  O  O27  1  0.57386700  0.33835700  0.09719700  1
  O  O28  1  0.45666800  0.21787400  0.47170900  1
  O  O29  1  0.29638600  0.78095400  0.90344600  1
  O  O30  1  0.19158000  0.66819100  0.27833200  1
  O  O31  1  0.21904600  0.70361400  0.09655400  1
  O  O32  1  0.28711800  0.05710600  0.02807300  1
  O  O33  1  0.16615600  0.92651400  0.40299000  1
  O  O34  1  0.04388100  0.81738200  0.77830800  1
  O  O35  1  0.32388300  0.08853000  0.84702000  1
  O  O36  1  0.18261800  0.95611900  0.22169200  1
  O  O37  1  0.43018400  0.55253200  0.59634400  1
  O  O38  1  0.07348600  0.83384400  0.59701000  1
  O  O39  1  0.44746800  0.56981600  0.40365600  1
  O  O40  1  0.31461900  0.45073500  0.77877000  1
  O  O41  1  0.30340600  0.42735600  0.97129300  1
  O  O42  1  0.18209200  0.30786200  0.34668200  1
  O  O43  1  0.05854400  0.17300100  0.72099300  1
  O  O44  1  0.19609400  0.32114800  0.15337700  1
  O  O45  1  0.07043400  0.19490000  0.52845800  1
  O  O46  1  0.04800800  0.53171700  0.65333600  1
  O  O47  1  0.09326200  0.58139600  0.47163200  1
loop_
_geom_bond_atom_site_label_1
_geom_bond_atom_site_label_2
_geom_bond_distance
_geom_bond_site_symmetry_2
Li0 O31 2.064235 1_655
Li0 O9 2.077363 1_555
Li0 O10 2.121767 1_555
Li0 O2 2.128065 1_565
Li0 O32 2.198476 1_665
Li0 O27 2.221807 1_555
Li1 O40 2.040569 1_655
Li1 O7 2.043410 1_545
Li1 O34 2.135134 1_645
Li1 O12 2.177968 1_555
Li1 O13 2.181085 1_555
Li1 O35 2.189490 1_655
Li2 O32 2.083563 1_655
Li2 O1 2.083563 1_544
Li2 O21 2.090018 1_554
Li2 O9 2.090018 1_555
Li2 O10 2.114460 1_545
Li2 O41 2.114460 1_654
Li3 O8 2.040569 1_545
Li3 O44 2.043410 1_655
Li3 O36 2.135134 1_645
Li3 O14 2.177968 1_555
Li3 O19 2.181085 1_555
Li3 O0 2.189490 1_545
Li4 O22 2.071329 1_555
Li4 O11 2.077051 1_565
Li4 O17 2.105552 1_555
Li4 O39 2.109800 1_555
Li4 O33 2.130264 1_655
Li4 O42 2.135234 1_665
Li5 O37 2.039414 1_555
Li5 O45 2.044880 1_665
Li5 O15 2.180859 1_565
Li5 O20 2.196348 1_555
Li5 O38 2.201232 1_655
Li5 O16 2.202679 1_555
Li6 O12 2.074630 1_565
Li6 O18 2.094636 1_555
Li6 O34 2.097049 1_655
Li6 O23 2.099367 1_555
Li6 O43 2.118501 1_665
Li6 O40 2.128404 1_555
Li7 O24 2.065042 1_555
Li7 O1 2.065219 1_555
Li7 O41 2.128332 1_655
Li7 O4 2.145314 1_555
Li7 O29 2.161796 1_655
Li7 O21 2.215706 1_555
Li8 O41 2.046251 1_555
Li8 O4 2.047247 1_565
Li8 O1 2.146656 1_555
Li8 O24 2.179011 1_555
Li8 O21 2.187360 1_565
Li8 O29 2.203260 1_555
Li9 O25 2.063047 1_555
Li9 O17 2.072251 1_555
Li9 O5 2.139000 1_545
Li9 O42 2.149061 1_655
Li9 O22 2.152667 1_545
Li9 O30 2.263632 1_655
Li10 O18 2.063047 1_555
Li10 O26 2.072251 1_555
Li10 O43 2.139000 1_655
Li10 O6 2.149061 1_545
Li10 O46 2.152667 1_655
Li10 O23 2.263632 1_545
Li11 O31 2.079173 1_555
Li11 O19 2.079218 1_565
Li11 O0 2.105230 1_555
Li11 O27 2.105775 1_555
Li11 O2 2.109637 1_565
Li11 O44 2.115714 1_555
Li12 O42 2.034510 1_555
Li12 O5 2.037373 1_555
Li12 O30 2.138556 1_555
Li12 O22 2.178568 1_555
Li12 O17 2.180970 1_555
Li12 O25 2.184313 1_555
Li13 O27 2.065042 1_555
Li13 O32 2.065219 1_555
Li13 O10 2.128332 1_545
Li13 O2 2.145314 1_555
Li13 O31 2.161796 1_545
Li13 O9 2.215706 1_555
Li14 O33 2.060294 1_555
Li14 O28 2.063384 1_565
Li14 O3 2.120307 1_555
Li14 O39 2.130305 1_555
Li14 O11 2.166409 1_565
Li14 O47 2.189289 1_555
Li15 O11 2.064257 1_555
Li15 O47 2.067386 1_655
Li15 O39 2.108705 1_555
Li15 O3 2.136110 1_555
Li15 O28 2.152198 1_555
Li15 O33 2.235907 1_655
Li16 O13 2.053681 1_555
Li16 O12 2.076915 1_555
Li16 O7 2.135248 1_555
Li16 O40 2.166087 1_555
Li16 O35 2.216857 1_555
Li16 O34 2.225677 1_655
Li17 O34 2.056235 1_555
Li17 O35 2.062295 1_565
Li17 O40 2.095333 1_555
Li17 O7 2.139102 1_555
Li17 O13 2.154811 1_455
Li17 O12 2.228306 1_565
Li18 O36 2.056235 1_555
Li18 O0 2.062295 1_455
Li18 O8 2.095333 1_555
Li18 O44 2.139102 1_555
Li18 O19 2.154811 1_565
Li18 O14 2.228306 1_455
Li19 O19 2.053681 1_555
Li19 O14 2.076915 1_555
Li19 O44 2.135248 1_555
Li19 O8 2.166087 1_555
Li19 O0 2.216857 1_555
Li19 O36 2.225677 1_545
Li20 O15 2.064257 1_555
Li20 O20 2.067386 1_545
Li20 O37 2.108705 1_555
Li20 O45 2.136110 1_555
Li20 O16 2.152198 1_555
Li20 O38 2.235907 1_545
Li21 O20 2.098257 1_555
Li21 O47 2.098257 1_555
Li21 O16 2.098769 1_555
Li21 O28 2.098769 1_555
Li21 O3 2.118194 1_555
Li21 O45 2.118194 1_555
Li22 O29 2.064235 1_545
Li22 O21 2.077363 1_555
Li22 O41 2.121767 1_555
Li22 O4 2.128065 1_455
Li22 O1 2.198476 1_445
Li22 O24 2.221807 1_555
Li23 O22 2.053045 1_555
Li23 O30 2.065595 1_555
Li23 O5 2.103608 1_455
Li23 O42 2.137680 1_565
Li23 O25 2.194119 1_565
Li23 O17 2.239893 1_455
Li24 O6 2.034510 1_555
Li24 O43 2.037373 1_555
Li24 O23 2.138556 1_555
Li24 O46 2.178568 1_555
Li24 O26 2.180970 1_555
Li24 O18 2.184313 1_555
Li25 O46 2.053045 1_555
Li25 O23 2.065595 1_555
Li25 O43 2.103608 1_565
Li25 O6 2.137680 1_455
Li25 O18 2.194119 1_455
Li25 O26 2.239893 1_565
Li26 O29 2.079173 1_555
Li26 O13 2.079218 1_455
Li26 O35 2.105230 1_555
Li26 O24 2.105775 1_555
Li26 O4 2.109637 1_455
Li26 O7 2.115714 1_555
Li27 O10 2.046251 1_555
Li27 O2 2.047247 1_455
Li27 O32 2.146656 1_555
Li27 O27 2.179011 1_555
Li27 O9 2.187360 1_455
Li27 O31 2.203260 1_555
Li28 O14 2.074630 1_455
Li28 O25 2.094636 1_555
Li28 O36 2.097049 1_545
Li28 O30 2.099367 1_555
Li28 O5 2.118501 1_445
Li28 O8 2.128404 1_555
Li29 O39 2.039414 1_555
Li29 O3 2.044880 1_445
Li29 O11 2.180859 1_455
Li29 O47 2.196348 1_555
Li29 O33 2.201232 1_545
Li29 O28 2.202679 1_555
Li30 O46 2.071329 1_555
Li30 O15 2.077051 1_455
Li30 O26 2.105552 1_555
Li30 O37 2.109800 1_555
Li30 O38 2.130264 1_545
Li30 O6 2.135234 1_445
Li31 O38 2.060294 1_555
Li31 O16 2.063384 1_455
Li31 O45 2.120307 1_555
Li31 O37 2.130305 1_555
Li31 O15 2.166409 1_455
Li31 O20 2.189289 1_555
Mn0 O13 1.918857 1_555
Mn0 O29 1.920631 1_655
Mn0 O4 1.951000 1_565
Mn0 O7 1.951758 1_555
Mn0 O24 1.955326 1_555
Mn0 O35 1.956075 1_665
Mn1 O46 1.926630 1_655
Mn1 O15 1.926635 1_555
Mn1 O38 1.943043 1_655
Mn1 O37 1.945425 1_555
Mn1 O6 1.946198 1_555
Mn1 O26 1.947778 1_555
Mn2 O21 1.941140 1_554
Mn2 O9 1.941140 1_555
Mn2 O32 1.944887 1_555
Mn2 O1 1.944887 1_554
Mn2 O10 1.952501 1_555
Mn2 O41 1.952501 1_554
Mn3 O22 1.926630 1_545
Mn3 O11 1.926635 1_555
Mn3 O33 1.943043 1_545
Mn3 O39 1.945425 1_555
Mn3 O42 1.946198 1_555
Mn3 O17 1.947778 1_555
Mn4 O19 1.918857 1_555
Mn4 O31 1.920631 1_545
Mn4 O2 1.951000 1_455
Mn4 O44 1.951758 1_555
Mn4 O27 1.955326 1_555
Mn4 O0 1.956075 1_445
Cr0 O36 1.890281 1_655
Cr0 O5 1.910065 1_555
Cr0 O14 1.956741 1_555
Cr0 O25 1.967107 1_555
Cr0 O30 1.981571 1_655
Cr0 O8 1.988331 1_555
Cr1 O27 1.902614 1_555
Cr1 O0 1.904099 1_555
Cr1 O2 1.965292 1_555
Cr1 O44 1.965429 1_655
Cr1 O31 1.987964 1_655
Cr1 O19 1.988260 1_555
Cr2 O16 1.885627 1_555
Cr2 O28 1.885627 1_555
Cr2 O3 1.971488 1_545
Cr2 O45 1.971488 1_655
Cr2 O20 1.990678 1_545
Cr2 O47 1.990678 1_655
Cr3 O24 1.902614 1_555
Cr3 O35 1.904099 1_555
Cr3 O4 1.965292 1_555
Cr3 O7 1.965429 1_545
Cr3 O29 1.987964 1_545
Cr3 O13 1.988260 1_555
Cr4 O30 1.888615 1_555
Cr4 O8 1.907336 1_555
Cr4 O25 1.948915 1_565
Cr4 O14 1.974636 1_565
Cr4 O36 1.983022 1_555
Cr4 O5 1.994771 1_555
Cr5 O38 1.902016 1_555
Cr5 O26 1.906174 1_565
Cr5 O6 1.955033 1_555
Cr5 O15 1.966811 1_565
Cr5 O37 1.986089 1_555
Cr5 O46 1.988903 1_555
Cr6 O1 1.949606 1_454
Cr6 O32 1.949606 1_565
Cr6 O21 1.951589 1_564
Cr6 O9 1.951589 1_455
Cr6 O10 1.959332 1_555
Cr6 O41 1.959332 1_554
Cr7 O34 1.890281 1_545
Cr7 O43 1.910065 1_555
Cr7 O12 1.956741 1_555
Cr7 O18 1.967107 1_555
Cr7 O23 1.981571 1_545
Cr7 O40 1.988331 1_555
Cr8 O20 1.885569 1_555
Cr8 O47 1.885569 1_555
Cr8 O3 1.972016 1_455
Cr8 O45 1.972016 1_565
Cr8 O16 1.988784 1_455
Cr8 O28 1.988784 1_565
Cr9 O33 1.902016 1_555
Cr9 O17 1.906174 1_455
Cr9 O42 1.955033 1_555
Cr9 O11 1.966811 1_455
Cr9 O39 1.986089 1_555
Cr9 O22 1.988903 1_555
Cr10 O23 1.888615 1_555
Cr10 O40 1.907336 1_555
Cr10 O18 1.948915 1_455
Cr10 O12 1.974636 1_455
Cr10 O34 1.983022 1_555
Cr10 O43 1.994771 1_555
