# generated using pymatgen
data_Mn5(FeO3)4
_symmetry_space_group_name_H-M   'P 1'
_cell_length_a   6.11131700
_cell_length_b   6.12663705
_cell_length_c   13.68167976
_cell_angle_alpha   102.42020284
_cell_angle_beta   102.60088839
_cell_angle_gamma   90.32414840
_symmetry_Int_Tables_number   1
_chemical_formula_structural   Mn5(FeO3)4
_chemical_formula_sum   'Mn10 Fe8 O24'
_cell_volume   487.48463480
_cell_formula_units_Z   2
loop_
 _symmetry_equiv_pos_site_id
 _symmetry_equiv_pos_as_xyz
  1  'x, y, z'
loop_
 _atom_site_type_symbol
 _atom_site_label
 _atom_site_symmetry_multiplicity
 _atom_site_fract_x
 _atom_site_fract_y
 _atom_site_fract_z
 _atom_site_occupancy
  Mn  Mn0  1  0.00033800  0.49895000  0.99861000  1
  Mn  Mn1  1  0.79400300  0.04090800  0.08500600  1
  Mn  Mn2  1  0.16694100  0.16931300  0.33394700  1
  Mn  Mn3  1  0.33556500  0.83164200  0.16758200  1
  Mn  Mn4  1  0.44817200  0.70952600  0.41524200  1
  Mn  Mn5  1  0.53682800  0.29119300  0.58403700  1
  Mn  Mn6  1  0.88590700  0.62730600  0.25035000  1
  Mn  Mn7  1  0.12614500  0.37814500  0.75048800  1
  Mn  Mn8  1  0.33069100  0.83182100  0.66586300  1
  Mn  Mn9  1  0.20699400  0.95435000  0.91475300  1
  Fe  Fe0  1  0.50353600  0.49551300  0.99957300  1
  Fe  Fe1  1  0.33567400  0.33376200  0.16792900  1
  Fe  Fe2  1  0.99764200  0.50068200  0.49907600  1
  Fe  Fe3  1  0.66657800  0.16732500  0.33365100  1
  Fe  Fe4  1  0.99906200  0.00236700  0.49977200  1
  Fe  Fe5  1  0.66553600  0.16621100  0.83290400  1
  Fe  Fe6  1  0.83013000  0.83673500  0.66828200  1
  Fe  Fe7  1  0.66788500  0.66222100  0.83247500  1
  O  O0  1  0.10541200  0.10309900  0.18390800  1
  O  O1  1  0.24482200  0.28165900  0.00904800  1
  O  O2  1  0.54676800  0.07609000  0.16752400  1
  O  O3  1  0.25427500  0.72547600  0.00929000  1
  O  O4  1  0.12562600  0.59122500  0.16523700  1
  O  O5  1  0.08706400  0.04874500  0.65807000  1
  O  O6  1  0.56324600  0.56487000  0.15850200  1
  O  O7  1  0.39795800  0.38821100  0.32567200  1
  O  O8  1  0.22083700  0.24537600  0.48671900  1
  O  O9  1  0.08415600  0.60978300  0.65610000  1
  O  O10  1  0.23067100  0.75845500  0.51425400  1
  O  O11  1  0.57208700  0.04345100  0.66521300  1
  O  O12  1  0.78350500  0.25045000  0.50094300  1
  O  O13  1  0.94018000  0.40023800  0.34381400  1
  O  O14  1  0.39476100  0.94118200  0.32672300  1
  O  O15  1  0.78074200  0.75352900  0.50603300  1
  O  O16  1  0.57382200  0.61629700  0.67214700  1
  O  O17  1  0.44062600  0.43854000  0.84726600  1
  O  O18  1  0.94060500  0.94683100  0.34426700  1
  O  O19  1  0.88817400  0.42352700  0.83340200  1
  O  O20  1  0.75471600  0.28174400  0.99908900  1
  O  O21  1  0.42583800  0.90147100  0.81632900  1
  O  O22  1  0.75701200  0.71710500  0.99163300  1
  O  O23  1  0.88946600  0.89467600  0.81928000  1
loop_
_geom_bond_atom_site_label_1
_geom_bond_atom_site_label_2
_geom_bond_distance
_geom_bond_site_symmetry_2
Mn0 O20 2.002394 1_455
Mn0 O22 2.005549 1_455
Mn0 O1 2.009039 1_556
Mn0 O3 2.035995 1_556
Mn0 O19 2.159528 1_455
Mn0 O4 2.186816 1_556
Mn1 O20 2.059981 1_554
Mn1 O0 2.060208 1_655
Mn1 O2 2.060889 1_555
Mn1 O22 2.097002 1_544
Mn2 O0 1.955289 1_555
Mn2 O7 1.979457 1_555
Mn2 O14 1.980996 1_545
Mn2 O18 1.984396 1_445
Mn2 O13 1.990473 1_455
Mn2 O8 1.993334 1_555
Mn3 O4 1.938306 1_555
Mn3 O2 1.971802 1_565
Mn3 O3 2.069081 1_555
Mn3 O14 2.084943 1_555
Mn3 O6 2.153285 1_555
Mn3 O0 2.190423 1_565
Mn4 O14 2.039549 1_555
Mn4 O7 2.064607 1_555
Mn4 O10 2.075387 1_555
Mn4 O15 2.120069 1_555
Mn5 O11 2.051372 1_555
Mn5 O12 2.063337 1_555
Mn5 O8 2.071730 1_555
Mn5 O16 2.077188 1_555
Mn6 O4 2.046558 1_655
Mn6 O13 2.065412 1_555
Mn6 O6 2.077813 1_555
Mn6 O18 2.078034 1_555
Mn7 O19 2.016913 1_455
Mn7 O17 2.062686 1_555
Mn7 O9 2.096528 1_555
Mn7 O5 2.119843 1_555
Mn8 O11 1.961274 1_565
Mn8 O21 1.963461 1_555
Mn8 O10 1.980119 1_555
Mn8 O9 1.987266 1_555
Mn8 O16 1.993488 1_555
Mn8 O5 2.002123 1_565
Mn9 O23 2.070287 1_455
Mn9 O21 2.076066 1_555
Mn9 O3 2.084315 1_556
Mn9 O1 2.119163 1_566
Fe0 O17 1.986953 1_555
Fe0 O20 2.023640 1_555
Fe0 O6 2.072775 1_556
Fe0 O3 2.086919 1_556
Fe0 O22 2.089882 1_555
Fe0 O1 2.091009 1_556
Fe1 O6 2.022428 1_555
Fe1 O4 2.040729 1_555
Fe1 O2 2.044228 1_555
Fe1 O7 2.060192 1_555
Fe1 O0 2.066336 1_555
Fe1 O1 2.075646 1_555
Fe2 O12 2.017996 1_555
Fe2 O13 2.030811 1_555
Fe2 O15 2.044677 1_555
Fe2 O9 2.055343 1_655
Fe2 O10 2.066350 1_655
Fe2 O8 2.084885 1_655
Fe3 O14 2.129977 1_545
Fe3 O7 2.132774 1_555
Fe3 O13 2.153511 1_555
Fe3 O18 2.157398 1_545
Fe3 O2 2.176547 1_555
Fe3 O12 2.188516 1_555
Fe4 O12 2.016721 1_555
Fe4 O18 2.031144 1_545
Fe4 O15 2.048106 1_545
Fe4 O8 2.069442 1_655
Fe4 O5 2.070249 1_655
Fe4 O10 2.074792 1_645
Fe5 O19 2.074529 1_555
Fe5 O21 2.120849 1_545
Fe5 O23 2.163049 1_545
Fe5 O17 2.171262 1_555
Fe5 O20 2.174946 1_555
Fe5 O11 2.199270 1_555
Fe6 O23 1.970201 1_555
Fe6 O11 2.027110 1_565
Fe6 O5 2.079167 1_665
Fe6 O16 2.079239 1_555
Fe6 O9 2.099718 1_655
Fe6 O15 2.120802 1_555
Fe7 O19 1.993479 1_555
Fe7 O17 2.016997 1_555
Fe7 O23 2.022377 1_555
Fe7 O22 2.077720 1_555
Fe7 O16 2.098526 1_555
Fe7 O21 2.099218 1_555
