# generated using pymatgen
data_Fe2C2O7
_symmetry_space_group_name_H-M   'P 1'
_cell_length_a   8.53001505
_cell_length_b   8.53001505
_cell_length_c   8.38375100
_cell_angle_alpha   89.41450438
_cell_angle_beta   89.41450438
_cell_angle_gamma   60.23027946
_symmetry_Int_Tables_number   1
_chemical_formula_structural   Fe2C2O7
_chemical_formula_sum   'Fe6 C6 O21'
_cell_volume   529.47002832
_cell_formula_units_Z   3
loop_
 _symmetry_equiv_pos_site_id
 _symmetry_equiv_pos_as_xyz
  1  'x, y, z'
loop_
 _atom_site_type_symbol
 _atom_site_label
 _atom_site_symmetry_multiplicity
 _atom_site_fract_x
 _atom_site_fract_y
 _atom_site_fract_z
 _atom_site_occupancy
  Fe  Fe0  1  0.66820800  0.66625200  0.82195200  1
  Fe  Fe1  1  0.33374800  0.33179200  0.17804800  1
  Fe  Fe2  1  0.66627400  0.66645100  0.25598000  1
  Fe  Fe3  1  0.33354900  0.33372600  0.74402000  1
  Fe  Fe4  1  0.99955600  0.00226500  0.28493500  1
  Fe  Fe5  1  0.99773500  0.00044400  0.71506500  1
  C  C0  1  0.00175500  0.33914400  0.27386300  1
  C  C1  1  0.66085600  0.99824500  0.72613700  1
  C  C2  1  0.66353500  0.00006700  0.26801400  1
  C  C3  1  0.99993300  0.33646500  0.73198600  1
  C  C4  1  0.33291500  0.66434700  0.26573600  1
  C  C5  1  0.33565300  0.66708500  0.73426400  1
  O  O0  1  0.99969700  0.00030300  0.50000000  1
  O  O1  1  0.93210900  0.24063500  0.78724800  1
  O  O2  1  0.75936500  0.06789100  0.21275200  1
  O  O3  1  0.83736000  0.42496100  0.32887300  1
  O  O4  1  0.57503900  0.16264000  0.67112700  1
  O  O5  1  0.90529700  0.51049100  0.73211900  1
  O  O6  1  0.48950900  0.09470300  0.26788100  1
  O  O7  1  0.66946200  0.66973700  0.03831500  1
  O  O8  1  0.33026300  0.33053800  0.96168500  1
  O  O9  1  0.16387400  0.25928100  0.67621100  1
  O  O10  1  0.74071900  0.83612600  0.32378900  1
  O  O11  1  0.50995600  0.58628900  0.73603600  1
  O  O12  1  0.41371100  0.49004400  0.26396400  1
  O  O13  1  0.82180700  0.93222000  0.78345100  1
  O  O14  1  0.06778000  0.17819300  0.21654900  1
  O  O15  1  0.58324900  0.90132300  0.72390800  1
  O  O16  1  0.09867700  0.41675100  0.27609200  1
  O  O17  1  0.41906200  0.74325400  0.31804100  1
  O  O18  1  0.25674600  0.58093800  0.68195900  1
  O  O19  1  0.24107500  0.83100600  0.78438400  1
  O  O20  1  0.16899400  0.75892500  0.21561600  1
loop_
_geom_bond_atom_site_label_1
_geom_bond_atom_site_label_2
_geom_bond_distance
_geom_bond_site_symmetry_2
Fe0 O7 1.814709 1_556
Fe0 O5 1.934822 1_555
Fe0 O11 1.936625 1_555
Fe0 O15 1.938292 1_555
Fe1 O8 1.814709 1_554
Fe1 O6 1.934822 1_555
Fe1 O12 1.936625 1_555
Fe1 O16 1.938292 1_555
Fe2 O7 1.824910 1_555
Fe2 O3 1.937457 1_555
Fe2 O10 1.938573 1_555
Fe2 O17 1.938892 1_555
Fe3 O8 1.824910 1_555
Fe3 O4 1.937457 1_555
Fe3 O9 1.938573 1_555
Fe3 O18 1.938892 1_555
Fe4 O0 1.802965 1_555
Fe4 O2 1.938246 1_555
Fe4 O14 1.939642 1_655
Fe4 O20 1.939984 1_645
Fe5 O0 1.802965 1_555
Fe5 O1 1.938246 1_555
Fe5 O13 1.939642 1_545
Fe5 O19 1.939984 1_645
C0 O16 1.290790 1_555
C0 O14 1.293480 1_555
C0 O3 1.299732 1_455
C1 O15 1.290790 1_555
C1 O13 1.293480 1_555
C1 O4 1.299732 1_565
C2 O6 1.290456 1_555
C2 O2 1.293814 1_555
C2 O10 1.298594 1_545
C3 O5 1.290456 1_555
C3 O1 1.293814 1_555
C3 O9 1.298594 1_655
C4 O20 1.291283 1_555
C4 O12 1.291700 1_555
C4 O17 1.299647 1_555
C5 O19 1.291283 1_555
C5 O11 1.291700 1_555
C5 O18 1.299647 1_555
