# generated using pymatgen
data_YAl3O6
_symmetry_space_group_name_H-M   'P 1'
_cell_length_a   7.27266605
_cell_length_b   7.27266605
_cell_length_c   5.88754684
_cell_angle_alpha   67.40649783
_cell_angle_beta   67.40649783
_cell_angle_gamma   79.32451439
_symmetry_Int_Tables_number   1
_chemical_formula_structural   YAl3O6
_chemical_formula_sum   'Y2 Al6 O12'
_cell_volume   265.17950377
_cell_formula_units_Z   2
loop_
 _symmetry_equiv_pos_site_id
 _symmetry_equiv_pos_as_xyz
  1  'x, y, z'
loop_
 _atom_site_type_symbol
 _atom_site_label
 _atom_site_symmetry_multiplicity
 _atom_site_fract_x
 _atom_site_fract_y
 _atom_site_fract_z
 _atom_site_occupancy
  Y  Y0  1  0.26114600  0.73885400  0.75000000  1
  Y  Y1  1  0.73885400  0.26114600  0.25000000  1
  Al  Al0  1  0.20808100  0.35689100  0.24508000  1
  Al  Al1  1  0.82675400  0.17324600  0.75000000  1
  Al  Al2  1  0.35689100  0.20808100  0.74508000  1
  Al  Al3  1  0.64310900  0.79191900  0.25492000  1
  Al  Al4  1  0.17324600  0.82675400  0.25000000  1
  Al  Al5  1  0.79191900  0.64310900  0.75492000  1
  O  O0  1  0.38764600  0.27513000  0.40402200  1
  O  O1  1  0.84383400  0.38697500  0.80834500  1
  O  O2  1  0.78754800  0.00678600  0.08046200  1
  O  O3  1  0.27513000  0.38764600  0.90402200  1
  O  O4  1  0.99321400  0.21245200  0.41953800  1
  O  O5  1  0.61302500  0.15616600  0.69165500  1
  O  O6  1  0.38697500  0.84383400  0.30834500  1
  O  O7  1  0.00678600  0.78754800  0.58046200  1
  O  O8  1  0.72487000  0.61235400  0.09597800  1
  O  O9  1  0.21245200  0.99321400  0.91953800  1
  O  O10  1  0.15616600  0.61302500  0.19165500  1
  O  O11  1  0.61235400  0.72487000  0.59597800  1
loop_
_geom_bond_atom_site_label_1
_geom_bond_atom_site_label_2
_geom_bond_distance
_geom_bond_site_symmetry_2
Al0 O10 1.758379 1_555
Al0 O4 1.773745 1_455
Al0 O0 1.777195 1_555
Al0 O3 1.806321 1_554
Al1 O5 1.750462 1_555
Al1 O1 1.750462 1_555
Al1 O4 1.795570 1_555
Al1 O2 1.795570 1_556
Al2 O5 1.758379 1_555
Al2 O9 1.773745 1_545
Al2 O3 1.777195 1_555
Al2 O0 1.806321 1_555
Al3 O6 1.758379 1_555
Al3 O2 1.773745 1_565
Al3 O8 1.777195 1_555
Al3 O11 1.806321 1_555
Al4 O10 1.750462 1_555
Al4 O6 1.750462 1_555
Al4 O7 1.795570 1_555
Al4 O9 1.795570 1_554
Al5 O1 1.758379 1_555
Al5 O7 1.773745 1_655
Al5 O11 1.777195 1_555
Al5 O8 1.806321 1_556
O0 Y1 2.356180 1_555
O1 Y1 2.255380 1_556
O2 Y1 2.334150 1_555
O3 Y0 2.356180 1_555
O4 Y1 2.334150 1_555
O5 Y1 2.255380 1_555
O6 Y0 2.255380 1_555
O7 Y0 2.334150 1_555
O8 Y1 2.356180 1_555
O9 Y0 2.334150 1_555
O10 Y0 2.255380 1_554
O11 Y0 2.356180 1_555
