# generated using pymatgen
data_Li7Nb2Fe3O16
_symmetry_space_group_name_H-M   'P 1'
_cell_length_a   5.86963900
_cell_length_b   5.95173493
_cell_length_c   9.68441216
_cell_angle_alpha   90.80953087
_cell_angle_beta   90.60263838
_cell_angle_gamma   119.16341094
_symmetry_Int_Tables_number   1
_chemical_formula_structural   Li7Nb2Fe3O16
_chemical_formula_sum   'Li7 Nb2 Fe3 O16'
_cell_volume   295.34455633
_cell_formula_units_Z   1
loop_
 _symmetry_equiv_pos_site_id
 _symmetry_equiv_pos_as_xyz
  1  'x, y, z'
loop_
 _atom_site_type_symbol
 _atom_site_label
 _atom_site_symmetry_multiplicity
 _atom_site_fract_x
 _atom_site_fract_y
 _atom_site_fract_z
 _atom_site_occupancy
  Li  Li0  1  0.82687700  0.16458800  0.79119300  1
  Li  Li1  1  0.68695300  0.35476500  0.10024400  1
  Li  Li2  1  0.99335700  0.99328600  0.00167800  1
  Li  Li3  1  0.99515900  0.99435200  0.50882500  1
  Li  Li4  1  0.33906200  0.16577800  0.79257300  1
  Li  Li5  1  0.16700600  0.33844400  0.28652400  1
  Li  Li6  1  0.33809400  0.67859900  0.60669600  1
  Nb  Nb0  1  0.64371100  0.28914700  0.51539200  1
  Nb  Nb1  1  0.33091000  0.66053800  0.99919800  1
  Fe  Fe0  1  0.82365800  0.64954700  0.78200700  1
  Fe  Fe1  1  0.66105700  0.82304700  0.28230500  1
  Fe  Fe2  1  0.16843100  0.83127600  0.28375700  1
  O  O0  1  0.82560700  0.15628500  0.40458400  1
  O  O1  1  0.51476100  0.03580500  0.64601100  1
  O  O2  1  0.68843600  0.36950200  0.88910100  1
  O  O3  1  0.97432200  0.95917600  0.69745000  1
  O  O4  1  0.98454900  0.97921400  0.19350000  1
  O  O5  1  0.32138200  0.14627000  0.40281900  1
  O  O6  1  0.96452600  0.50505200  0.65366600  1
  O  O7  1  0.53469200  0.50285300  0.65757700  1
  O  O8  1  0.16912000  0.33084000  0.92928500  1
  O  O9  1  0.81684300  0.67340400  0.39635500  1
  O  O10  1  0.50575000  0.54418900  0.16110900  1
  O  O11  1  0.05128900  0.55802900  0.15854400  1
  O  O12  1  0.35239100  0.69499000  0.38601500  1
  O  O13  1  0.66281200  0.81111500  0.90194600  1
  O  O14  1  0.50950700  0.97492700  0.16226800  1
  O  O15  1  0.15003700  0.81498300  0.90153700  1
loop_
_geom_bond_atom_site_label_1
_geom_bond_atom_site_label_2
_geom_bond_distance
_geom_bond_site_symmetry_2
Li0 O2 1.999044 1_555
Li0 O3 2.020938 1_545
Li0 O1 2.113626 1_555
Li0 O13 2.148179 1_545
Li0 O8 2.184460 1_655
Li0 O6 2.244112 1_555
Li1 O11 1.946657 1_655
Li1 O10 1.978072 1_555
Li1 O2 2.047842 1_554
Li1 O14 2.076793 1_545
Li2 O4 1.860879 1_555
Li2 O8 1.904485 1_664
Li2 O13 1.937401 1_554
Li2 O15 1.962984 1_654
Li3 O3 1.840178 1_555
Li3 O0 1.969670 1_565
Li3 O9 1.974688 1_555
Li3 O5 1.979439 1_665
Li4 O2 2.013388 1_555
Li4 O3 2.074824 1_445
Li4 O1 2.110412 1_555
Li4 O15 2.129055 1_545
Li4 O8 2.158500 1_555
Li4 O7 2.216535 1_555
Li5 O4 2.055101 1_445
Li5 O12 2.070092 1_555
Li5 O5 2.103030 1_555
Li5 O0 2.112833 1_455
Li5 O11 2.144456 1_555
Li5 O10 2.155907 1_555
Li6 O1 1.886887 1_565
Li6 O7 1.961508 1_555
Li6 O6 1.977042 1_455
Li6 O12 2.141430 1_555
Nb0 O1 1.846165 1_555
Nb0 O0 1.933835 1_555
Nb0 O5 1.963053 1_555
Nb0 O6 2.128477 1_555
Nb0 O7 2.164627 1_555
Nb0 O9 2.329395 1_555
Nb1 O8 1.828540 1_555
Nb1 O15 1.954776 1_555
Nb1 O13 1.961210 1_555
Nb1 O11 2.133390 1_556
Nb1 O10 2.163519 1_556
Nb1 O14 2.250359 1_556
Fe0 O2 1.805699 1_555
Fe0 O3 1.821600 1_555
Fe0 O7 1.890831 1_555
Fe0 O6 1.911157 1_555
Fe0 O13 2.010353 1_555
Fe0 O15 2.015504 1_655
Fe1 O10 1.846911 1_555
Fe1 O4 1.883036 1_555
Fe1 O12 1.893737 1_555
Fe1 O9 1.910388 1_555
Fe1 O14 1.936857 1_555
Fe1 O0 2.076406 1_565
Fe2 O11 1.850664 1_555
Fe2 O4 1.905863 1_455
Fe2 O12 1.912692 1_555
Fe2 O5 1.981670 1_565
Fe2 O9 2.125380 1_455
Fe2 O14 2.129088 1_555
