# generated using pymatgen
data_Co2NiO6
_symmetry_space_group_name_H-M   'P 1'
_cell_length_a   4.88442411
_cell_length_b   9.58248500
_cell_length_c   4.89342450
_cell_angle_alpha   90.00322996
_cell_angle_beta   60.05560002
_cell_angle_gamma   90.00070625
_symmetry_Int_Tables_number   1
_chemical_formula_structural   Co2NiO6
_chemical_formula_sum   'Co4 Ni2 O12'
_cell_volume   198.46232886
_cell_formula_units_Z   2
loop_
 _symmetry_equiv_pos_site_id
 _symmetry_equiv_pos_as_xyz
  1  'x, y, z'
loop_
 _atom_site_type_symbol
 _atom_site_label
 _atom_site_symmetry_multiplicity
 _atom_site_fract_x
 _atom_site_fract_y
 _atom_site_fract_z
 _atom_site_occupancy
  Co  Co0  1  0.33340900  0.00000000  0.33326800  1
  Co  Co1  1  0.16664400  0.50000000  0.66671500  1
  Co  Co2  1  0.83333200  0.50000000  0.33333300  1
  Co  Co3  1  0.66667300  0.00000000  0.66666300  1
  Ni  Ni0  1  0.99992700  0.00000000  0.00006300  1
  Ni  Ni1  1  0.50002100  0.50000000  0.99995700  1
  O  O0  1  0.16753400  0.59800300  0.99994500  1
  O  O1  1  0.33252800  0.09796900  0.00002400  1
  O  O2  1  0.66747600  0.90201800  0.00008200  1
  O  O3  1  0.83252000  0.40199900  0.99994700  1
  O  O4  1  0.99998300  0.90201900  0.33208100  1
  O  O5  1  0.16787300  0.40199900  0.33210100  1
  O  O6  1  0.50002700  0.59800200  0.33210200  1
  O  O7  1  0.66789700  0.09799100  0.33203000  1
  O  O8  1  0.99992700  0.09797000  0.66792700  1
  O  O9  1  0.33218400  0.90202900  0.66785800  1
  O  O10  1  0.49995800  0.40198800  0.66795200  1
  O  O11  1  0.83208900  0.59801300  0.66795200  1
loop_
_geom_bond_atom_site_label_1
_geom_bond_atom_site_label_2
_geom_bond_distance
_geom_bond_site_symmetry_2
Co0 O7 1.881775 1_555
Co0 O4 1.882364 1_445
Co0 O2 1.883160 1_545
Co0 O1 1.883537 1_555
Co0 O9 1.884809 1_545
Co0 O8 1.885005 1_455
Co1 O10 1.882165 1_555
Co1 O11 1.882185 1_455
Co1 O3 1.883541 1_455
Co1 O0 1.883568 1_555
Co1 O6 1.884923 1_555
Co1 O5 1.884954 1_555
Co2 O6 1.882066 1_555
Co2 O5 1.882079 1_655
Co2 O0 1.884047 1_654
Co2 O3 1.884055 1_554
Co2 O10 1.884965 1_555
Co2 O11 1.885003 1_555
Co3 O8 1.881747 1_555
Co3 O9 1.881774 1_545
Co3 O1 1.883634 1_556
Co3 O2 1.884176 1_546
Co3 O4 1.884531 1_545
Co3 O7 1.885089 1_555
Ni0 O2 1.875685 1_545
Ni0 O1 1.876215 1_655
Ni0 O7 1.876305 1_555
Ni0 O4 1.876651 1_545
Ni0 O8 1.876980 1_554
Ni0 O9 1.877194 1_644
Ni1 O3 1.876018 1_555
Ni1 O0 1.876024 1_555
Ni1 O11 1.876643 1_555
Ni1 O10 1.876667 1_555
Ni1 O5 1.877050 1_556
Ni1 O6 1.877092 1_556
