# generated using pymatgen
data_LiP4WO12
_symmetry_space_group_name_H-M   'P 1'
_cell_length_a   10.51922910
_cell_length_b   10.51922910
_cell_length_c   5.42936312
_cell_angle_alpha   81.47275948
_cell_angle_beta   81.47275948
_cell_angle_gamma   70.22078606
_symmetry_Int_Tables_number   1
_chemical_formula_structural   LiP4WO12
_chemical_formula_sum   'Li2 P8 W2 O24'
_cell_volume   555.97297611
_cell_formula_units_Z   2
loop_
 _symmetry_equiv_pos_site_id
 _symmetry_equiv_pos_as_xyz
  1  'x, y, z'
loop_
 _atom_site_type_symbol
 _atom_site_label
 _atom_site_symmetry_multiplicity
 _atom_site_fract_x
 _atom_site_fract_y
 _atom_site_fract_z
 _atom_site_occupancy
  Li  Li0  1  0.43302700  0.43302700  0.60592100  1
  Li  Li1  1  0.56697300  0.56697300  0.39407900  1
  P  P0  1  0.37246000  0.77512400  0.81955000  1
  P  P1  1  0.77512400  0.37246000  0.81955000  1
  P  P2  1  0.94405000  0.70236100  0.46114200  1
  P  P3  1  0.70236100  0.94405000  0.46114200  1
  P  P4  1  0.05595000  0.29763900  0.53885800  1
  P  P5  1  0.29763900  0.05595000  0.53885800  1
  P  P6  1  0.22487600  0.62754000  0.18045000  1
  P  P7  1  0.62754000  0.22487600  0.18045000  1
  W  W0  1  0.00000000  0.50000000  0.00000000  1
  W  W1  1  0.50000000  0.00000000  0.00000000  1
  O  O0  1  0.75938200  0.24061800  0.00000000  1
  O  O1  1  0.24061800  0.75938200  0.00000000  1
  O  O2  1  0.67810100  0.92887500  0.74125000  1
  O  O3  1  0.92887500  0.67810100  0.74125000  1
  O  O4  1  0.18543700  0.54062800  0.02641400  1
  O  O5  1  0.54062800  0.18543700  0.02641400  1
  O  O6  1  0.43757100  0.65619700  0.67573400  1
  O  O7  1  0.65619700  0.43757100  0.67573400  1
  O  O8  1  0.29445200  0.90587500  0.63466500  1
  O  O9  1  0.90587500  0.29445200  0.63466500  1
  O  O10  1  0.85843500  0.85843500  0.38439500  1
  O  O11  1  0.09639400  0.38889100  0.67998100  1
  O  O12  1  0.38889100  0.09639400  0.67998100  1
  O  O13  1  0.61110900  0.90360600  0.32001900  1
  O  O14  1  0.90360600  0.61110900  0.32001900  1
  O  O15  1  0.14156500  0.14156500  0.61560500  1
  O  O16  1  0.09412500  0.70554800  0.36533500  1
  O  O17  1  0.70554800  0.09412500  0.36533500  1
  O  O18  1  0.56242900  0.34380300  0.32426600  1
  O  O19  1  0.34380300  0.56242900  0.32426600  1
  O  O20  1  0.45937200  0.81456300  0.97358600  1
  O  O21  1  0.81456300  0.45937200  0.97358600  1
  O  O22  1  0.07112500  0.32189900  0.25875000  1
  O  O23  1  0.32189900  0.07112500  0.25875000  1
loop_
_geom_bond_atom_site_label_1
_geom_bond_atom_site_label_2
_geom_bond_distance
_geom_bond_site_symmetry_2
Li0 O19 2.003982 1_555
Li0 O18 2.003982 1_555
Li0 O7 2.449954 1_555
Li0 O6 2.449954 1_555
Li1 O6 2.003982 1_555
Li1 O7 2.003982 1_555
Li1 O19 2.449954 1_555
Li1 O18 2.449954 1_555
O0 P1 1.617121 1_554
O0 P7 1.617121 1_555
O1 P0 1.617121 1_554
O1 P6 1.617121 1_555
O2 P3 1.497980 1_555
O2 W1 2.150774 1_566
O3 P2 1.497980 1_555
O3 W0 2.150774 1_656
O4 P6 1.514509 1_555
O4 W0 2.161856 1_555
O5 P7 1.514509 1_555
O5 W1 2.161856 1_555
O6 P0 1.481566 1_555
O7 P1 1.481566 1_555
O8 P5 1.597194 1_565
O8 P0 1.625946 1_555
O9 P4 1.597194 1_655
O9 P1 1.625946 1_555
O10 P3 1.608683 1_555
O10 P2 1.608683 1_555
O11 P4 1.510184 1_555
O11 W0 2.165825 1_556
O12 P5 1.510184 1_555
O12 W1 2.165825 1_556
O13 P3 1.510184 1_555
O13 W1 2.165825 1_565
O14 P2 1.510184 1_555
O14 W0 2.165825 1_655
O15 P4 1.608683 1_555
O15 P5 1.608683 1_555
O16 P2 1.597194 1_455
O16 P6 1.625946 1_555
O17 P3 1.597194 1_545
O17 P7 1.625946 1_555
O18 P7 1.481566 1_555
O19 P6 1.481566 1_555
O20 P0 1.514509 1_555
O20 W1 2.161856 1_566
O21 P1 1.514509 1_555
O21 W0 2.161856 1_656
O22 P4 1.497980 1_555
O22 W0 2.150774 1_555
O23 P5 1.497980 1_555
O23 W1 2.150774 1_555
