# generated using pymatgen
data_Hg4N3O10
_symmetry_space_group_name_H-M   'P 1'
_cell_length_a   11.44596327
_cell_length_b   11.44596327
_cell_length_c   11.71058000
_cell_angle_alpha   90.00000000
_cell_angle_beta   90.00000000
_cell_angle_gamma   124.79860368
_symmetry_Int_Tables_number   1
_chemical_formula_structural   Hg4N3O10
_chemical_formula_sum   'Hg16 N12 O40'
_cell_volume   1259.83171139
_cell_formula_units_Z   4
loop_
 _symmetry_equiv_pos_site_id
 _symmetry_equiv_pos_as_xyz
  1  'x, y, z'
loop_
 _atom_site_type_symbol
 _atom_site_label
 _atom_site_symmetry_multiplicity
 _atom_site_fract_x
 _atom_site_fract_y
 _atom_site_fract_z
 _atom_site_occupancy
  Hg  Hg0  1  0.03600300  0.96107600  0.59088600  1
  Hg  Hg1  1  0.96107600  0.03600300  0.40911400  1
  Hg  Hg2  1  0.53600300  0.46107600  0.90911400  1
  Hg  Hg3  1  0.46107600  0.53600300  0.09088600  1
  Hg  Hg4  1  0.04179600  0.97798500  0.90380300  1
  Hg  Hg5  1  0.97798500  0.04179600  0.09619700  1
  Hg  Hg6  1  0.54179600  0.47798500  0.59619700  1
  Hg  Hg7  1  0.47798500  0.54179600  0.40380300  1
  Hg  Hg8  1  0.21142900  0.82823800  0.76374700  1
  Hg  Hg9  1  0.82823800  0.21142900  0.23625300  1
  Hg  Hg10  1  0.71142900  0.32823800  0.73625300  1
  Hg  Hg11  1  0.32823800  0.71142900  0.26374700  1
  Hg  Hg12  1  0.37823600  0.74339500  0.76284100  1
  Hg  Hg13  1  0.74339500  0.37823600  0.23715900  1
  Hg  Hg14  1  0.87823600  0.24339500  0.73715900  1
  Hg  Hg15  1  0.24339500  0.87823600  0.26284100  1
  N  N0  1  0.66509000  0.78723300  0.78051400  1
  N  N1  1  0.78723300  0.66509000  0.21948600  1
  N  N2  1  0.16509000  0.28723300  0.71948600  1
  N  N3  1  0.28723300  0.16509000  0.28051400  1
  N  N4  1  0.91325600  0.56583800  0.96302700  1
  N  N5  1  0.56583800  0.91325600  0.03697300  1
  N  N6  1  0.41325600  0.06583800  0.53697300  1
  N  N7  1  0.06583800  0.41325600  0.46302700  1
  N  N8  1  0.08926200  0.38047500  0.00035200  1
  N  N9  1  0.38047500  0.08926200  0.99964800  1
  N  N10  1  0.58926200  0.88047500  0.49964800  1
  N  N11  1  0.88047500  0.58926200  0.50035200  1
  O  O0  1  0.10565300  0.92975800  0.75032600  1
  O  O1  1  0.92975800  0.10565300  0.24967400  1
  O  O2  1  0.60565300  0.42975800  0.74967400  1
  O  O3  1  0.42975800  0.60565300  0.25032600  1
  O  O4  1  0.53115500  0.68252500  0.75398600  1
  O  O5  1  0.68252500  0.53115500  0.24601400  1
  O  O6  1  0.03115500  0.18252500  0.74601400  1
  O  O7  1  0.18252500  0.03115500  0.25398600  1
  O  O8  1  0.75582000  0.76233500  0.76081400  1
  O  O9  1  0.76233500  0.75582000  0.23918600  1
  O  O10  1  0.25582000  0.26233500  0.73918600  1
  O  O11  1  0.26233500  0.25582000  0.26081400  1
  O  O12  1  0.69069900  0.89855500  0.82338000  1
  O  O13  1  0.89855500  0.69069900  0.17662000  1
  O  O14  1  0.19069900  0.39855500  0.67662000  1
  O  O15  1  0.39855500  0.19069900  0.32338000  1
  O  O16  1  0.01922900  0.58899400  0.01492600  1
  O  O17  1  0.58899400  0.01922900  0.98507400  1
  O  O18  1  0.51922900  0.08899400  0.48507400  1
  O  O19  1  0.08899400  0.51922900  0.51492600  1
  O  O20  1  0.78844100  0.46664800  0.99457100  1
  O  O21  1  0.46664800  0.78844100  0.00542900  1
  O  O22  1  0.28844100  0.96664800  0.50542900  1
  O  O23  1  0.96664800  0.28844100  0.49457100  1
  O  O24  1  0.92625100  0.63903100  0.87700700  1
  O  O25  1  0.63903100  0.92625100  0.12299300  1
  O  O26  1  0.42625100  0.13903100  0.62299300  1
  O  O27  1  0.13903100  0.42625100  0.37700700  1
  O  O28  1  0.95706300  0.28129400  0.99499300  1
  O  O29  1  0.28129400  0.95706300  0.00500700  1
  O  O30  1  0.45706300  0.78129400  0.50500700  1
  O  O31  1  0.78129400  0.45706300  0.49499300  1
  O  O32  1  0.15619400  0.44447700  0.91145700  1
  O  O33  1  0.44447700  0.15619400  0.08854300  1
  O  O34  1  0.65619400  0.94447700  0.58854300  1
  O  O35  1  0.94447700  0.65619400  0.41145700  1
  O  O36  1  0.15097800  0.41078900  0.09612700  1
  O  O37  1  0.41078900  0.15097800  0.90387300  1
  O  O38  1  0.65097800  0.91078900  0.40387300  1
  O  O39  1  0.91078900  0.65097800  0.59612700  1
loop_
_geom_bond_atom_site_label_1
_geom_bond_atom_site_label_2
_geom_bond_distance
_geom_bond_site_symmetry_2
Hg0 O0 2.139255 1_555
Hg1 O1 2.139255 1_555
Hg2 O2 2.139255 1_555
Hg3 O3 2.139255 1_555
Hg4 O0 2.128319 1_555
Hg5 O1 2.128319 1_555
Hg6 O2 2.128319 1_555
Hg7 O3 2.128319 1_555
Hg8 O0 2.108670 1_555
Hg9 O1 2.108670 1_555
Hg10 O2 2.108670 1_555
Hg11 O3 2.108670 1_555
Hg12 O4 2.225223 1_555
Hg13 O5 2.225223 1_555
Hg14 O6 2.225223 1_655
Hg15 O7 2.225223 1_565
N0 O12 1.239018 1_555
N0 O8 1.245270 1_555
N0 O4 1.336392 1_555
N1 O13 1.239018 1_555
N1 O9 1.245270 1_555
N1 O5 1.336392 1_555
N2 O14 1.239018 1_555
N2 O10 1.245270 1_555
N2 O6 1.336392 1_555
N3 O15 1.239018 1_555
N3 O11 1.245270 1_555
N3 O7 1.336392 1_555
N4 O16 1.242565 1_656
N4 O24 1.263522 1_555
N4 O20 1.270872 1_555
N5 O17 1.242565 1_564
N5 O25 1.263522 1_555
N5 O21 1.270872 1_555
N6 O18 1.242565 1_555
N6 O26 1.263522 1_555
N6 O22 1.270872 1_545
N7 O19 1.242565 1_555
N7 O27 1.263522 1_555
N7 O23 1.270872 1_455
N8 O32 1.251679 1_554
N8 O36 1.263953 1_555
N8 O28 1.273441 1_454
N9 O33 1.251679 1_556
N9 O37 1.263953 1_555
N9 O29 1.273441 1_546
N10 O34 1.251679 1_555
N10 O38 1.263953 1_555
N10 O30 1.273441 1_555
N11 O35 1.251679 1_555
N11 O39 1.263953 1_555
N11 O31 1.273441 1_555
