# generated using pymatgen
data_Mn2OF3
_symmetry_space_group_name_H-M   'P 1'
_cell_length_a   4.89243183
_cell_length_b   4.89243183
_cell_length_c   12.64426200
_cell_angle_alpha   90.00000000
_cell_angle_beta   90.00000000
_cell_angle_gamma   93.28941701
_symmetry_Int_Tables_number   1
_chemical_formula_structural   Mn2OF3
_chemical_formula_sum   'Mn8 O4 F12'
_cell_volume   302.15301502
_cell_formula_units_Z   4
loop_
 _symmetry_equiv_pos_site_id
 _symmetry_equiv_pos_as_xyz
  1  'x, y, z'
loop_
 _atom_site_type_symbol
 _atom_site_label
 _atom_site_symmetry_multiplicity
 _atom_site_fract_x
 _atom_site_fract_y
 _atom_site_fract_z
 _atom_site_occupancy
  Mn  Mn0  1  0.96889700  0.96889700  0.62517400  1
  Mn  Mn1  1  0.96889700  0.96889700  0.87482600  1
  Mn  Mn2  1  0.03110300  0.03110300  0.12517400  1
  Mn  Mn3  1  0.03110300  0.03110300  0.37482600  1
  Mn  Mn4  1  0.50069100  0.50069100  0.25000000  1
  Mn  Mn5  1  0.49930900  0.49930900  0.75000000  1
  Mn  Mn6  1  0.50000000  0.50000000  0.00000000  1
  Mn  Mn7  1  0.50000000  0.50000000  0.50000000  1
  O  O0  1  0.32782000  0.32782000  0.12506800  1
  O  O1  1  0.32782000  0.32782000  0.37493200  1
  O  O2  1  0.67218000  0.67218000  0.62506800  1
  O  O3  1  0.67218000  0.67218000  0.87493300  1
  F  F0  1  0.78621200  0.17607100  0.75000000  1
  F  F1  1  0.79922500  0.20077500  0.00000000  1
  F  F2  1  0.82392900  0.21378800  0.25000000  1
  F  F3  1  0.79922500  0.20077500  0.50000000  1
  F  F4  1  0.28797000  0.28797000  0.63077800  1
  F  F5  1  0.28797000  0.28797000  0.86922200  1
  F  F6  1  0.71203000  0.71203000  0.13077800  1
  F  F7  1  0.71203000  0.71203000  0.36922200  1
  F  F8  1  0.17607100  0.78621200  0.75000000  1
  F  F9  1  0.20077500  0.79922500  0.00000000  1
  F  F10  1  0.21378800  0.82392900  0.25000000  1
  F  F11  1  0.20077500  0.79922500  0.50000000  1
loop_
_geom_bond_atom_site_label_1
_geom_bond_atom_site_label_2
_geom_bond_distance
_geom_bond_site_symmetry_2
Mn0 O2 1.993199 1_555
Mn1 O3 1.993199 1_555
Mn2 O0 1.993199 1_555
Mn3 O1 1.993199 1_555
Mn4 O1 1.960586 1_555
Mn4 O0 1.960586 1_555
Mn5 O2 1.960586 1_555
Mn5 O3 1.960596 1_555
Mn6 O3 1.959218 1_554
Mn6 O0 1.959228 1_555
Mn7 O2 1.959228 1_555
Mn7 O1 1.959228 1_555
F0 Mn0 2.102684 1_545
F0 Mn1 2.102684 1_545
F0 Mn5 2.173907 1_555
F1 Mn6 2.128890 1_555
F1 Mn1 2.142234 1_544
F1 Mn2 2.142234 1_655
F2 Mn2 2.102684 1_655
F2 Mn3 2.102684 1_655
F2 Mn4 2.173907 1_555
F3 Mn7 2.128890 1_555
F3 Mn0 2.142234 1_545
F3 Mn3 2.142234 1_655
F4 Mn5 2.070735 1_555
F4 Mn0 2.144546 1_445
F4 Mn7 2.182437 1_555
F5 Mn5 2.070735 1_555
F5 Mn1 2.144546 1_445
F5 Mn6 2.182437 1_556
F6 Mn4 2.070735 1_555
F6 Mn2 2.144546 1_665
F6 Mn6 2.182437 1_555
F7 Mn4 2.070735 1_555
F7 Mn3 2.144546 1_665
F7 Mn7 2.182437 1_555
F8 Mn1 2.102684 1_455
F8 Mn0 2.102684 1_455
F8 Mn5 2.173907 1_555
F9 Mn6 2.128890 1_555
F9 Mn1 2.142234 1_454
F9 Mn2 2.142234 1_565
F10 Mn3 2.102684 1_565
F10 Mn2 2.102684 1_565
F10 Mn4 2.173907 1_555
F11 Mn7 2.128890 1_555
F11 Mn0 2.142234 1_455
F11 Mn3 2.142234 1_565
