# generated using pymatgen
data_Be2As(HO)9
_symmetry_space_group_name_H-M   'P 1'
_cell_length_a   12.73365300
_cell_length_b   7.25482700
_cell_length_c   8.63665007
_cell_angle_alpha   82.67934330
_cell_angle_beta   90.00000000
_cell_angle_gamma   90.00000000
_symmetry_Int_Tables_number   1
_chemical_formula_structural   Be2As(HO)9
_chemical_formula_sum   'Be8 As4 H36 O36'
_cell_volume   791.35393395
_cell_formula_units_Z   4
loop_
 _symmetry_equiv_pos_site_id
 _symmetry_equiv_pos_as_xyz
  1  'x, y, z'
loop_
 _atom_site_type_symbol
 _atom_site_label
 _atom_site_symmetry_multiplicity
 _atom_site_fract_x
 _atom_site_fract_y
 _atom_site_fract_z
 _atom_site_occupancy
  Be  Be0  1  0.37787500  0.12263700  0.63819300  1
  Be  Be1  1  0.87787400  0.37736300  0.36180700  1
  Be  Be2  1  0.62212500  0.87736300  0.36180700  1
  Be  Be3  1  0.12212500  0.62263700  0.63819300  1
  Be  Be4  1  0.37335900  0.35155900  0.89262900  1
  Be  Be5  1  0.87335900  0.14844100  0.10737100  1
  Be  Be6  1  0.62664100  0.64844100  0.10737100  1
  Be  Be7  1  0.12664100  0.85155900  0.89262900  1
  As  As0  1  0.32710500  0.73737600  0.75805100  1
  As  As1  1  0.82710500  0.76262400  0.24194900  1
  As  As2  1  0.67289500  0.26262400  0.24194900  1
  As  As3  1  0.17289500  0.23737600  0.75805100  1
  H  H0  1  0.48726000  0.17553900  0.41444600  1
  H  H1  1  0.98726000  0.32446100  0.58555400  1
  H  H2  1  0.51274000  0.82446100  0.58555400  1
  H  H3  1  0.01274000  0.67553900  0.41444600  1
  H  H4  1  0.39070900  0.33134300  0.41642300  1
  H  H5  1  0.89070900  0.16865700  0.58357700  1
  H  H6  1  0.60929100  0.66865700  0.58357700  1
  H  H7  1  0.10929100  0.83134300  0.41642300  1
  H  H8  1  0.47702300  0.33708100  0.11257100  1
  H  H9  1  0.97702300  0.16291900  0.88742900  1
  H  H10  1  0.52297700  0.66291900  0.88742900  1
  H  H11  1  0.02297700  0.83708100  0.11257100  1
  H  H12  1  0.39643800  0.15801300  0.11782800  1
  H  H13  1  0.89643800  0.34198700  0.88217200  1
  H  H14  1  0.60356200  0.84198700  0.88217200  1
  H  H15  1  0.10356200  0.65801300  0.11782800  1
  H  H16  1  0.31610500  0.88640200  0.07198800  1
  H  H17  1  0.81610500  0.61359800  0.92801200  1
  H  H18  1  0.68389500  0.11359800  0.92801200  1
  H  H19  1  0.18389500  0.38640200  0.07198800  1
  H  H20  1  0.29413900  0.94466400  0.23960700  1
  H  H21  1  0.79413900  0.55533600  0.76039300  1
  H  H22  1  0.70586100  0.05533600  0.76039300  1
  H  H23  1  0.20586100  0.44466400  0.23960700  1
  H  H24  1  0.35338600  0.62452700  0.28210700  1
  H  H25  1  0.85338600  0.87547300  0.71789300  1
  H  H26  1  0.64661400  0.37547300  0.71789300  1
  H  H27  1  0.14661400  0.12452700  0.28210700  1
  H  H28  1  0.29739300  0.58471500  0.44571100  1
  H  H29  1  0.79739300  0.91528500  0.55428900  1
  H  H30  1  0.70260700  0.41528500  0.55428900  1
  H  H31  1  0.20260700  0.08471500  0.44571100  1
  H  H32  1  0.49951700  0.18132100  0.80081500  1
  H  H33  1  0.99951700  0.31867900  0.19918500  1
  H  H34  1  0.50048300  0.81867900  0.19918500  1
  H  H35  1  0.00048300  0.68132100  0.80081500  1
  O  O0  1  0.24560700  0.32836700  0.89743500  1
  O  O1  1  0.74560700  0.17163300  0.10256500  1
  O  O2  1  0.75439300  0.67163300  0.10256500  1
  O  O3  1  0.25439300  0.82836700  0.89743500  1
  O  O4  1  0.41022100  0.90153700  0.66389100  1
  O  O5  1  0.91022100  0.59846300  0.33610900  1
  O  O6  1  0.58977900  0.09846300  0.33610900  1
  O  O7  1  0.08977900  0.40153700  0.66389100  1
  O  O8  1  0.41063800  0.56957400  0.84607800  1
  O  O9  1  0.91063800  0.93042600  0.15392200  1
  O  O10  1  0.58936200  0.43042600  0.15392200  1
  O  O11  1  0.08936200  0.06957400  0.84607800  1
  O  O12  1  0.25115100  0.15345900  0.62149600  1
  O  O13  1  0.75115100  0.34654100  0.37850400  1
  O  O14  1  0.74884900  0.84654100  0.37850400  1
  O  O15  1  0.24884900  0.65345900  0.62149600  1
  O  O16  1  0.42730800  0.22123400  0.77861700  1
  O  O17  1  0.92730800  0.27876600  0.22138300  1
  O  O18  1  0.57269200  0.77876600  0.22138300  1
  O  O19  1  0.07269200  0.72123400  0.77861700  1
  O  O20  1  0.41978400  0.20929300  0.46454100  1
  O  O21  1  0.91978400  0.29070700  0.53545900  1
  O  O22  1  0.58021600  0.79070700  0.53545900  1
  O  O23  1  0.08021600  0.70929300  0.46454100  1
  O  O24  1  0.40677900  0.29220400  0.07869500  1
  O  O25  1  0.90677900  0.20779600  0.92130500  1
  O  O26  1  0.59322100  0.70779600  0.92130500  1
  O  O27  1  0.09322100  0.79220400  0.07869500  1
  O  O28  1  0.35181100  0.91747800  0.16817700  1
  O  O29  1  0.85181100  0.58252200  0.83182300  1
  O  O30  1  0.64818900  0.08252200  0.83182300  1
  O  O31  1  0.14818900  0.41747800  0.16817700  1
  O  O32  1  0.31891700  0.52568400  0.35228500  1
  O  O33  1  0.81891700  0.97431600  0.64771500  1
  O  O34  1  0.68108300  0.47431600  0.64771500  1
  O  O35  1  0.18108300  0.02568400  0.35228500  1
loop_
_geom_bond_atom_site_label_1
_geom_bond_atom_site_label_2
_geom_bond_distance
_geom_bond_site_symmetry_2
Be0 O16 1.612399 1_555
Be0 O12 1.632935 1_555
Be0 O20 1.639832 1_555
Be0 O4 1.643512 1_545
Be1 O17 1.612404 1_555
Be1 O13 1.632922 1_555
Be1 O21 1.639836 1_555
Be1 O5 1.643515 1_555
Be2 O18 1.612399 1_555
Be2 O14 1.632935 1_555
Be2 O22 1.639832 1_555
Be2 O6 1.643512 1_565
Be3 O19 1.612399 1_555
Be3 O15 1.632935 1_555
Be3 O23 1.639832 1_555
Be3 O7 1.643512 1_555
Be4 O16 1.603972 1_555
Be4 O0 1.635410 1_555
Be4 O8 1.651234 1_555
Be4 O24 1.665108 1_556
Be5 O17 1.603972 1_555
Be5 O1 1.635410 1_555
Be5 O9 1.651234 1_545
Be5 O25 1.665108 1_554
Be6 O18 1.603972 1_555
Be6 O2 1.635410 1_555
Be6 O10 1.651234 1_555
Be6 O26 1.665108 1_554
Be7 O19 1.603972 1_555
Be7 O3 1.635410 1_555
Be7 O11 1.651234 1_565
Be7 O27 1.665108 1_556
As0 O15 1.713924 1_555
As0 O3 1.716016 1_555
As0 O4 1.718444 1_555
As0 O8 1.719170 1_555
As1 O14 1.713924 1_555
As1 O2 1.716016 1_555
As1 O5 1.718444 1_555
As1 O9 1.719170 1_555
As2 O13 1.713924 1_555
As2 O1 1.716016 1_555
As2 O6 1.718444 1_555
As2 O10 1.719170 1_555
As3 O12 1.713924 1_555
As3 O0 1.716016 1_555
As3 O7 1.718444 1_555
As3 O11 1.719170 1_555
H0 O20 1.006184 1_555
H0 O6 1.603437 1_555
H1 O21 1.006184 1_555
H1 O7 1.603437 1_655
H2 O22 1.006184 1_555
H2 O4 1.603437 1_555
H3 O23 1.006184 1_555
H3 O5 1.603437 1_455
H4 O20 1.000012 1_555
H5 O21 1.000012 1_555
H6 O22 1.000012 1_555
H7 O23 1.000012 1_555
H8 O24 1.007938 1_555
H8 O10 1.641363 1_555
H9 O25 1.007938 1_555
H9 O11 1.641363 1_655
H10 O26 1.007938 1_555
H10 O8 1.641363 1_555
H11 O27 1.007938 1_555
H11 O9 1.641363 1_455
H12 O24 0.997738 1_555
H13 O25 0.997738 1_555
H14 O26 0.997738 1_555
H15 O27 0.997738 1_555
H16 O28 0.997712 1_555
H17 O29 0.997712 1_555
H18 O30 0.997712 1_555
H19 O31 0.997712 1_555
H20 O28 0.994887 1_555
H21 O29 0.994887 1_555
H22 O30 0.994887 1_555
H23 O31 0.994887 1_555
H24 O32 0.981561 1_555
H25 O33 0.981561 1_555
H26 O34 0.981561 1_555
H27 O35 0.981561 1_555
H28 O32 0.998828 1_555
H29 O33 0.998828 1_555
H30 O34 0.998828 1_555
H31 O35 0.998828 1_555
H32 O16 0.975656 1_555
H33 O17 0.975656 1_555
H34 O18 0.975656 1_555
H35 O19 0.975656 1_555
