# generated using pymatgen
data_Li3NbFe3O8
_symmetry_space_group_name_H-M   'P 1'
_cell_length_a   6.01791700
_cell_length_b   6.05294454
_cell_length_c   6.08156344
_cell_angle_alpha   119.41122992
_cell_angle_beta   119.13067500
_cell_angle_gamma   90.69829766
_symmetry_Int_Tables_number   1
_chemical_formula_structural   Li3NbFe3O8
_chemical_formula_sum   'Li3 Nb1 Fe3 O8'
_cell_volume   159.11385657
_cell_formula_units_Z   1
loop_
 _symmetry_equiv_pos_site_id
 _symmetry_equiv_pos_as_xyz
  1  'x, y, z'
loop_
 _atom_site_type_symbol
 _atom_site_label
 _atom_site_symmetry_multiplicity
 _atom_site_fract_x
 _atom_site_fract_y
 _atom_site_fract_z
 _atom_site_occupancy
  Li  Li0  1  0.50000000  0.50000000  0.50000000  1
  Li  Li1  1  0.50000000  0.00000000  0.50000000  1
  Li  Li2  1  0.50000000  0.50000000  0.00000000  1
  Nb  Nb0  1  0.00000000  0.00000000  0.00000000  1
  Fe  Fe0  1  0.00000000  0.50000000  0.50000000  1
  Fe  Fe1  1  0.00000000  0.00000000  0.50000000  1
  Fe  Fe2  1  0.00000000  0.50000000  0.00000000  1
  O  O0  1  0.20437400  0.72404100  0.45699200  1
  O  O1  1  0.76622900  0.75304600  0.53014300  1
  O  O2  1  0.77461900  0.24988800  0.01202700  1
  O  O3  1  0.77318000  0.74728100  0.99576900  1
  O  O4  1  0.22682000  0.25271900  0.00423100  1
  O  O5  1  0.22538100  0.75011200  0.98797300  1
  O  O6  1  0.23377100  0.24695400  0.46985700  1
  O  O7  1  0.79562600  0.27595900  0.54300800  1
loop_
_geom_bond_atom_site_label_1
_geom_bond_atom_site_label_2
_geom_bond_distance
_geom_bond_site_symmetry_2
Li0 O6 2.079655 1_555
Li0 O1 2.079655 1_555
Li0 O3 2.171498 1_555
Li0 O4 2.171498 1_555
Li0 O0 2.242008 1_555
Li0 O7 2.242008 1_555
Li1 O6 2.208269 1_555
Li1 O1 2.208269 1_545
Li1 O5 2.240171 1_544
Li1 O2 2.240171 1_556
Li1 O0 2.251442 1_545
Li1 O7 2.251442 1_555
Li2 O4 2.227710 1_555
Li2 O3 2.227710 1_554
Li2 O5 2.254005 1_554
Li2 O2 2.254005 1_555
Li2 O1 2.317032 1_555
Li2 O6 2.317032 1_554
Nb0 O4 2.019916 1_555
Nb0 O3 2.019916 1_444
Nb0 O5 2.042237 1_544
Nb0 O2 2.042237 1_455
Nb0 O1 2.053896 1_444
Nb0 O6 2.053896 1_555
Fe0 O7 2.010229 1_455
Fe0 O0 2.010229 1_555
Fe0 O6 2.094420 1_555
Fe0 O1 2.094420 1_455
Fe0 O5 2.134710 1_555
Fe0 O2 2.134710 1_455
Fe1 O7 2.074940 1_455
Fe1 O0 2.074940 1_545
Fe1 O6 2.171661 1_555
Fe1 O1 2.171661 1_445
Fe1 O3 2.207577 1_444
Fe1 O4 2.207577 1_556
Fe2 O7 2.001380 1_454
Fe2 O0 2.001380 1_555
Fe2 O4 2.039024 1_555
Fe2 O3 2.039024 1_454
Fe2 O5 2.071761 1_554
Fe2 O2 2.071761 1_455
