# generated using pymatgen
data_ZrO2
_symmetry_space_group_name_H-M   'P 1'
_cell_length_a   5.80436811
_cell_length_b   9.07986011
_cell_length_c   6.14953453
_cell_angle_alpha   46.82931720
_cell_angle_beta   57.33931352
_cell_angle_gamma   34.67035054
_symmetry_Int_Tables_number   1
_chemical_formula_structural   ZrO2
_chemical_formula_sum   'Zr3 O6'
_cell_volume   134.25316189
_cell_formula_units_Z   3
loop_
 _symmetry_equiv_pos_site_id
 _symmetry_equiv_pos_as_xyz
  1  'x, y, z'
loop_
 _atom_site_type_symbol
 _atom_site_label
 _atom_site_symmetry_multiplicity
 _atom_site_fract_x
 _atom_site_fract_y
 _atom_site_fract_z
 _atom_site_occupancy
  Zr  Zr0  1  0.88129233  0.13765855  0.17135438  1
  Zr  Zr1  1  0.15111559  0.86850712  0.80560437  1
  Zr  Zr2  1  0.01617908  0.50307181  0.48845389  1
  O  O0  1  0.24648046  0.50325348  0.08447389  1
  O  O1  1  0.06758358  0.16381003  0.74097243  1
  O  O2  1  0.64406909  0.16076250  0.57690902  1
  O  O3  1  0.96547924  0.84201615  0.23600053  1
  O  O4  1  0.38838386  0.84551343  0.39986633  1
  O  O5  1  0.78605978  0.50291194  0.89226916  1
loop_
_geom_bond_atom_site_label_1
_geom_bond_atom_site_label_2
_geom_bond_distance
_geom_bond_site_symmetry_2
O0 Zr2 2.091007 1_555
O0 Zr0 2.111969 1_555
O0 Zr1 2.113942 1_554
O1 Zr1 2.047880 1_545
O1 Zr2 2.105304 1_555
O1 Zr0 2.168847 1_456
O2 Zr1 2.048378 1_645
O2 Zr2 2.105361 1_555
O2 Zr0 2.166607 1_555
O3 Zr0 2.048063 1_565
O3 Zr2 2.105668 1_655
O3 Zr1 2.168218 1_654
O4 Zr0 2.048279 1_465
O4 Zr2 2.104999 1_655
O4 Zr1 2.167214 1_555
O5 Zr2 2.090212 1_655
O5 Zr1 2.112263 1_555
O5 Zr0 2.114234 1_556
