# generated using pymatgen
data_Mn6OF11
_symmetry_space_group_name_H-M   'P 1'
_cell_length_a   5.93216541
_cell_length_b   5.93216541
_cell_length_c   7.78554448
_cell_angle_alpha   72.81080350
_cell_angle_beta   72.81080350
_cell_angle_gamma   70.72726947
_symmetry_Int_Tables_number   1
_chemical_formula_structural   Mn6OF11
_chemical_formula_sum   'Mn6 O1 F11'
_cell_volume   241.04403603
_cell_formula_units_Z   1
loop_
 _symmetry_equiv_pos_site_id
 _symmetry_equiv_pos_as_xyz
  1  'x, y, z'
loop_
 _atom_site_type_symbol
 _atom_site_label
 _atom_site_symmetry_multiplicity
 _atom_site_fract_x
 _atom_site_fract_y
 _atom_site_fract_z
 _atom_site_occupancy
  Mn  Mn0  1  0.66783200  0.64702100  0.84233600  1
  Mn  Mn1  1  0.33777600  0.32760600  0.66813400  1
  Mn  Mn2  1  0.67239400  0.66222400  0.33186600  1
  Mn  Mn3  1  0.35297900  0.33216800  0.15766400  1
  Mn  Mn4  1  0.00154400  0.99845600  0.50000000  1
  Mn  Mn5  1  0.97407100  0.02592900  0.00000000  1
  O  O0  1  0.69936600  0.30063400  0.00000000  1
  F  F0  1  0.63744400  0.01282600  0.67253200  1
  F  F1  1  0.98717400  0.36255600  0.32746800  1
  F  F2  1  0.89881600  0.90334200  0.29287700  1
  F  F3  1  0.56737700  0.56298000  0.62940800  1
  F  F4  1  0.22282500  0.23162600  0.96668300  1
  F  F5  1  0.09665800  0.10118400  0.70712300  1
  F  F6  1  0.76837400  0.77717500  0.03331700  1
  F  F7  1  0.43702000  0.43262300  0.37059200  1
  F  F8  1  0.36532500  0.96912900  0.33431800  1
  F  F9  1  0.03087100  0.63467500  0.66568200  1
  F  F10  1  0.28215500  0.71784500  0.00000000  1
loop_
_geom_bond_atom_site_label_1
_geom_bond_atom_site_label_2
_geom_bond_distance
_geom_bond_site_symmetry_2
Mn0 O0 2.038434 1_556
Mn3 O0 2.038434 1_555
Mn5 O0 1.886301 1_555
F0 Mn1 2.110712 1_555
F0 Mn0 2.162452 1_545
F0 Mn4 2.169811 1_645
F1 Mn2 2.110712 1_555
F1 Mn3 2.162452 1_655
F1 Mn4 2.169811 1_645
F2 Mn5 2.135424 1_565
F2 Mn4 2.153063 1_655
F2 Mn2 2.170898 1_555
F3 Mn0 2.149497 1_555
F3 Mn1 2.158587 1_555
F3 Mn2 2.164266 1_555
F4 Mn5 2.123468 1_456
F4 Mn3 2.160881 1_556
F4 Mn1 2.174653 1_555
F5 Mn5 2.135424 1_456
F5 Mn4 2.153063 1_545
F5 Mn1 2.170898 1_555
F6 Mn5 2.123468 1_565
F6 Mn0 2.160881 1_554
F6 Mn2 2.174653 1_555
F7 Mn3 2.149497 1_555
F7 Mn2 2.158587 1_555
F7 Mn1 2.164266 1_555
F8 Mn2 2.108054 1_555
F8 Mn4 2.142586 1_555
F8 Mn3 2.177086 1_565
F9 Mn1 2.108054 1_555
F9 Mn4 2.142586 1_555
F9 Mn0 2.177086 1_455
F10 Mn5 2.115503 1_465
F10 Mn0 2.219936 1_554
F10 Mn3 2.219936 1_555
