# generated using pymatgen
data_Li2MnWO6
_symmetry_space_group_name_H-M   'P 1'
_cell_length_a   5.09035406
_cell_length_b   5.08996663
_cell_length_c   9.38080460
_cell_angle_alpha   105.73139832
_cell_angle_beta   89.99719511
_cell_angle_gamma   60.00007211
_symmetry_Int_Tables_number   1
_chemical_formula_structural   Li2MnWO6
_chemical_formula_sum   'Li4 Mn2 W2 O12'
_cell_volume   199.90777056
_cell_formula_units_Z   2
loop_
 _symmetry_equiv_pos_site_id
 _symmetry_equiv_pos_as_xyz
  1  'x, y, z'
loop_
 _atom_site_type_symbol
 _atom_site_label
 _atom_site_symmetry_multiplicity
 _atom_site_fract_x
 _atom_site_fract_y
 _atom_site_fract_z
 _atom_site_occupancy
  Li  Li0  1  0.35794400  0.28409400  0.92608200  1
  Li  Li1  1  0.85797600  0.28403500  0.42602400  1
  Li  Li2  1  0.60807000  0.78394500  0.17585900  1
  Li  Li3  1  0.10809200  0.78390400  0.67583600  1
  Mn  Mn0  1  0.99970400  0.00060200  0.00085800  1
  Mn  Mn1  1  0.49975200  0.00050600  0.50091000  1
  W  W0  1  0.24982700  0.50017800  0.25046500  1
  W  W1  1  0.74983600  0.50017700  0.75045300  1
  O  O0  1  0.74705400  0.74069000  0.61664800  1
  O  O1  1  0.24700100  0.74078600  0.11664900  1
  O  O2  1  0.01229100  0.36366900  0.11665900  1
  O  O3  1  0.51233600  0.36362700  0.61666300  1
  O  O4  1  0.62405100  0.12902500  0.11666400  1
  O  O5  1  0.12405300  0.12899000  0.61666300  1
  O  O6  1  0.36938800  0.86678600  0.86670200  1
  O  O7  1  0.86932200  0.86686200  0.36672900  1
  O  O8  1  0.99997900  0.63060400  0.86675300  1
  O  O9  1  0.50007800  0.63056600  0.36678000  1
  O  O10  1  0.26382000  0.23605000  0.36670900  1
  O  O11  1  0.76382400  0.23610500  0.86669600  1
loop_
_geom_bond_atom_site_label_1
_geom_bond_atom_site_label_2
_geom_bond_distance
_geom_bond_site_symmetry_2
Li0 O8 2.014785 1_455
Li0 O6 2.014965 1_545
Li0 O11 2.014970 1_555
Li0 O2 2.313087 1_556
Li0 O4 2.313094 1_556
Li0 O1 2.313439 1_556
Li1 O9 2.014270 1_555
Li1 O7 2.014558 1_545
Li1 O10 2.014641 1_655
Li1 O3 2.313429 1_555
Li1 O5 2.313462 1_655
Li1 O0 2.313608 1_555
Li2 O4 2.017881 1_565
Li2 O2 2.018025 1_655
Li2 O1 2.018067 1_555
Li2 O7 2.303113 1_555
Li2 O10 2.303189 1_565
Li2 O9 2.303602 1_555
Li3 O5 2.017756 1_565
Li3 O0 2.018001 1_455
Li3 O3 2.018087 1_555
Li3 O6 2.303189 1_555
Li3 O11 2.303460 1_465
Li3 O8 2.303552 1_455
Mn0 O1 1.904658 1_645
Mn0 O4 1.904932 1_555
Mn0 O2 1.905021 1_655
Mn0 O11 1.959963 1_554
Mn0 O8 1.960099 1_544
Mn0 O6 1.960151 1_644
Mn1 O0 1.904289 1_545
Mn1 O5 1.904793 1_555
Mn1 O3 1.905103 1_555
Mn1 O9 1.959832 1_545
Mn1 O7 1.960092 1_545
Mn1 O10 1.960440 1_555
O0 W1 1.972385 1_555
O1 W0 1.972782 1_555
O2 W0 1.971729 1_555
O3 W1 1.971605 1_555
O4 W0 1.971896 1_555
O5 W1 1.971892 1_455
O6 W1 1.924662 1_555
O7 W0 1.924975 1_655
O8 W1 1.924843 1_555
O9 W0 1.925264 1_555
O10 W0 1.923748 1_555
O11 W1 1.923511 1_555
