# generated using pymatgen
data_Na7Ni17O24
_symmetry_space_group_name_H-M   'P 1'
_cell_length_a   5.98799089
_cell_length_b   6.11970969
_cell_length_c   14.79504241
_cell_angle_alpha   89.70295370
_cell_angle_beta   89.78616537
_cell_angle_gamma   59.90919258
_symmetry_Int_Tables_number   1
_chemical_formula_structural   Na7Ni17O24
_chemical_formula_sum   'Na7 Ni17 O24'
_cell_volume   469.08815421
_cell_formula_units_Z   1
loop_
 _symmetry_equiv_pos_site_id
 _symmetry_equiv_pos_as_xyz
  1  'x, y, z'
loop_
 _atom_site_type_symbol
 _atom_site_label
 _atom_site_symmetry_multiplicity
 _atom_site_fract_x
 _atom_site_fract_y
 _atom_site_fract_z
 _atom_site_occupancy
  Na  Na0  1  0.63561600  0.13579200  0.46277700  1
  Na  Na1  1  0.97315400  0.47411000  0.13185300  1
  Na  Na2  1  0.63924000  0.64622200  0.96622300  1
  Na  Na3  1  0.30861200  0.30140000  0.29680600  1
  Na  Na4  1  0.81156500  0.81109900  0.79836300  1
  Na  Na5  1  0.13683900  0.13603600  0.46486200  1
  Na  Na6  1  0.31156600  0.81174200  0.80033000  1
  Ni  Ni0  1  0.81123000  0.30479900  0.30034300  1
  Ni  Ni1  1  0.97367600  0.47349000  0.63147300  1
  Ni  Ni2  1  0.63988800  0.14668800  0.96661900  1
  Ni  Ni3  1  0.80842800  0.31410300  0.80104600  1
  Ni  Ni4  1  0.97360600  0.97366000  0.63163400  1
  Ni  Ni5  1  0.47381500  0.47347900  0.63161200  1
  Ni  Ni6  1  0.80967800  0.80029800  0.29647100  1
  Ni  Ni7  1  0.13855300  0.14733300  0.96646400  1
  Ni  Ni8  1  0.47309600  0.47367700  0.13136300  1
  Ni  Ni9  1  0.63872700  0.63935000  0.46406700  1
  Ni  Ni10  1  0.30934100  0.30818600  0.79935800  1
  Ni  Ni11  1  0.97282500  0.97404500  0.13116300  1
  Ni  Ni12  1  0.13733200  0.64266300  0.96337400  1
  Ni  Ni13  1  0.47357800  0.97336700  0.63167200  1
  Ni  Ni14  1  0.30792200  0.80037700  0.29666600  1
  Ni  Ni15  1  0.13891300  0.63311200  0.46341900  1
  Ni  Ni16  1  0.47352300  0.97420700  0.13115200  1
  O  O0  1  0.79732300  0.28025100  0.04687800  1
  O  O1  1  0.78225700  0.32978000  0.56041500  1
  O  O2  1  0.00041200  0.45128600  0.88117100  1
  O  O3  1  0.67011500  0.12437600  0.20542800  1
  O  O4  1  0.62851900  0.16821200  0.70637800  1
  O  O5  1  0.94749300  0.49625200  0.38208700  1
  O  O6  1  0.66971400  0.61935300  0.70421800  1
  O  O7  1  0.99653700  0.94777700  0.36831600  1
  O  O8  1  0.33420100  0.29899900  0.04376600  1
  O  O9  1  0.47509600  0.45029200  0.88209100  1
  O  O10  1  0.47047900  0.50077300  0.38018500  1
  O  O11  1  0.13103000  0.15703000  0.70906700  1
  O  O12  1  0.81183900  0.83826100  0.05151500  1
  O  O13  1  0.81511200  0.79082900  0.55367000  1
  O  O14  1  0.13739400  0.10438500  0.21228400  1
  O  O15  1  0.95268400  0.99969200  0.89461200  1
  O  O16  1  0.61081600  0.64932300  0.22011600  1
  O  O17  1  0.27832000  0.32731600  0.55854500  1
  O  O18  1  0.16482800  0.61721300  0.70226500  1
  O  O19  1  0.47830000  0.92898700  0.37125700  1
  O  O20  1  0.46977200  0.01930100  0.89183200  1
  O  O21  1  0.15051900  0.66761600  0.21672400  1
  O  O22  1  0.31825400  0.77875900  0.55632900  1
  O  O23  1  0.27697200  0.82251000  0.05721300  1
loop_
_geom_bond_atom_site_label_1
_geom_bond_atom_site_label_2
_geom_bond_distance
_geom_bond_site_symmetry_2
Na0 O13 2.264148 1_545
Na0 O10 2.286012 1_555
Na0 O1 2.310765 1_555
Na0 O17 2.332126 1_555
Na0 O7 2.334186 1_545
Na0 O19 2.354839 1_545
Na1 O12 2.265971 1_555
Na1 O8 2.278410 1_655
Na1 O16 2.285394 1_555
Na1 O14 2.291762 1_655
Na1 O0 2.318282 1_555
Na1 O21 2.322396 1_655
Na2 O2 2.256547 1_655
Na2 O20 2.261170 1_565
Na2 O9 2.271452 1_555
Na2 O0 2.278341 1_556
Na2 O12 2.298862 1_556
Na2 O23 2.308330 1_556
Na3 O5 2.258190 1_455
Na3 O19 2.258342 1_545
Na3 O10 2.271618 1_555
Na3 O21 2.275098 1_555
Na3 O3 2.308468 1_555
Na3 O14 2.309388 1_555
Na4 O6 2.250280 1_555
Na4 O15 2.253408 1_555
Na4 O20 2.259831 1_565
Na4 O2 2.261384 1_655
Na4 O18 2.319954 1_655
Na4 O4 2.325492 1_565
Na5 O17 2.242566 1_555
Na5 O7 2.251674 1_445
Na5 O19 2.259040 1_545
Na5 O5 2.262940 1_455
Na5 O1 2.320156 1_455
Na5 O22 2.321744 1_545
Na6 O9 2.263648 1_555
Na6 O11 2.268825 1_565
Na6 O18 2.317456 1_555
Na6 O15 2.324342 1_455
Na6 O6 2.338841 1_555
Na6 O20 2.361689 1_565
Ni0 O5 2.117032 1_555
Ni0 O10 2.130708 1_555
Ni0 O7 2.137942 1_545
Ni0 O14 2.147489 1_655
Ni0 O16 2.177584 1_555
Ni0 O3 2.205810 1_555
Ni1 O6 1.906348 1_555
Ni1 O17 1.910791 1_655
Ni1 O11 2.027697 1_655
Ni1 O13 2.033224 1_555
Ni1 O18 2.051519 1_655
Ni1 O1 2.054729 1_555
Ni2 O20 1.919199 1_555
Ni2 O0 1.938528 1_556
Ni2 O15 1.938530 1_545
Ni2 O8 1.951085 1_556
Ni2 O9 2.033827 1_555
Ni2 O12 2.058325 1_546
Ni3 O2 2.102360 1_655
Ni3 O9 2.107308 1_555
Ni3 O11 2.153937 1_655
Ni3 O6 2.158013 1_555
Ni3 O15 2.163182 1_545
Ni3 O4 2.215420 1_555
Ni4 O4 2.107118 1_565
Ni4 O22 2.109821 1_655
Ni4 O11 2.131298 1_665
Ni4 O13 2.137628 1_555
Ni4 O18 2.154558 1_655
Ni4 O1 2.157298 1_565
Ni5 O18 1.911242 1_555
Ni5 O1 1.913258 1_555
Ni5 O4 1.955150 1_555
Ni5 O22 1.959511 1_555
Ni5 O6 2.096731 1_555
Ni5 O17 2.099644 1_555
Ni6 O5 2.047263 1_555
Ni6 O19 2.051227 1_555
Ni6 O7 2.056167 1_555
Ni6 O21 2.132386 1_655
Ni6 O16 2.161444 1_555
Ni6 O3 2.182851 1_565
Ni7 O2 2.043827 1_555
Ni7 O20 2.049665 1_555
Ni7 O15 2.052391 1_445
Ni7 O0 2.139484 1_456
Ni7 O8 2.157161 1_556
Ni7 O23 2.183943 1_546
Ni8 O0 2.103724 1_555
Ni8 O8 2.104278 1_555
Ni8 O21 2.105505 1_555
Ni8 O16 2.114549 1_555
Ni8 O23 2.147398 1_555
Ni8 O3 2.149089 1_555
Ni9 O5 2.006768 1_555
Ni9 O10 2.037481 1_555
Ni9 O19 2.056029 1_555
Ni9 O22 2.150468 1_555
Ni9 O1 2.169825 1_555
Ni9 O13 2.176532 1_555
Ni10 O2 2.005962 1_555
Ni10 O9 2.031089 1_555
Ni10 O20 2.049851 1_555
Ni10 O4 2.151723 1_555
Ni10 O18 2.174610 1_555
Ni10 O11 2.189540 1_555
Ni11 O3 1.913816 1_565
Ni11 O23 1.917287 1_655
Ni11 O12 1.957098 1_555
Ni11 O14 1.963342 1_665
Ni11 O0 2.044932 1_565
Ni11 O21 2.058114 1_655
Ni12 O2 2.123214 1_555
Ni12 O9 2.128784 1_555
Ni12 O12 2.142417 1_456
Ni12 O15 2.143421 1_455
Ni12 O8 2.173926 1_556
Ni12 O23 2.187547 1_556
Ni13 O11 2.113249 1_565
Ni13 O13 2.113543 1_555
Ni13 O4 2.152876 1_565
Ni13 O22 2.158280 1_555
Ni13 O6 2.158432 1_555
Ni13 O17 2.162185 1_565
Ni14 O19 1.923740 1_555
Ni14 O7 1.929421 1_455
Ni14 O21 1.932223 1_555
Ni14 O16 1.934199 1_555
Ni14 O10 2.007968 1_555
Ni14 O14 2.035437 1_565
Ni15 O5 2.108707 1_455
Ni15 O10 2.119901 1_555
Ni15 O13 2.142758 1_455
Ni15 O17 2.143518 1_555
Ni15 O7 2.179320 1_455
Ni15 O22 2.195624 1_555
Ni16 O12 2.118184 1_555
Ni16 O14 2.123827 1_565
Ni16 O3 2.131399 1_565
Ni16 O23 2.135287 1_555
Ni16 O8 2.153338 1_565
Ni16 O16 2.168682 1_555
