# generated using pymatgen
data_LiVSiO4
_symmetry_space_group_name_H-M   'P 1'
_cell_length_a   8.67607294
_cell_length_b   8.67607294
_cell_length_c   8.67607338
_cell_angle_alpha   107.41839055
_cell_angle_beta   107.41839055
_cell_angle_gamma   107.41839512
_symmetry_Int_Tables_number   1
_chemical_formula_structural   LiVSiO4
_chemical_formula_sum   'Li6 V6 Si6 O24'
_cell_volume   537.56689155
_cell_formula_units_Z   6
loop_
 _symmetry_equiv_pos_site_id
 _symmetry_equiv_pos_as_xyz
  1  'x, y, z'
loop_
 _atom_site_type_symbol
 _atom_site_label
 _atom_site_symmetry_multiplicity
 _atom_site_fract_x
 _atom_site_fract_y
 _atom_site_fract_z
 _atom_site_occupancy
  Li  Li0  1  0.76554900  0.94047500  0.54241100  1
  Li  Li1  1  0.05952500  0.45758900  0.23445100  1
  Li  Li2  1  0.45758900  0.23445100  0.05952500  1
  Li  Li3  1  0.54241100  0.76554900  0.94047500  1
  Li  Li4  1  0.94047500  0.54241100  0.76554900  1
  Li  Li5  1  0.23445100  0.05952500  0.45758900  1
  V  V0  1  0.28808500  0.86933100  0.10682500  1
  V  V1  1  0.89317500  0.71191500  0.13066900  1
  V  V2  1  0.13066900  0.89317500  0.71191500  1
  V  V3  1  0.86933100  0.10682500  0.28808500  1
  V  V4  1  0.10682500  0.28808500  0.86933100  1
  V  V5  1  0.71191500  0.13066900  0.89317500  1
  Si  Si0  1  0.44206500  0.60976900  0.21691900  1
  Si  Si1  1  0.39023100  0.78308100  0.55793500  1
  Si  Si2  1  0.78308100  0.55793500  0.39023100  1
  Si  Si3  1  0.21691900  0.44206500  0.60976900  1
  Si  Si4  1  0.60976900  0.21691900  0.44206500  1
  Si  Si5  1  0.55793500  0.39023100  0.78308100  1
  O  O0  1  0.04784000  0.70578700  0.01883600  1
  O  O1  1  0.98116400  0.95216000  0.29421300  1
  O  O2  1  0.44185600  0.74206600  0.11768800  1
  O  O3  1  0.88231200  0.55814400  0.25793400  1
  O  O4  1  0.34446500  0.40071000  0.07825200  1
  O  O5  1  0.65221700  0.66467700  0.35202300  1
  O  O6  1  0.25793400  0.88231200  0.55814400  1
  O  O7  1  0.33532300  0.64797700  0.34778300  1
  O  O8  1  0.59929000  0.92174800  0.65553500  1
  O  O9  1  0.92174800  0.65553500  0.59929000  1
  O  O10  1  0.64797700  0.34778300  0.33532300  1
  O  O11  1  0.29421300  0.98116400  0.95216000  1
  O  O12  1  0.70578700  0.01883600  0.04784000  1
  O  O13  1  0.35202300  0.65221700  0.66467700  1
  O  O14  1  0.07825200  0.34446500  0.40071000  1
  O  O15  1  0.40071000  0.07825200  0.34446500  1
  O  O16  1  0.66467700  0.35202300  0.65221700  1
  O  O17  1  0.74206600  0.11768800  0.44185600  1
  O  O18  1  0.34778300  0.33532300  0.64797700  1
  O  O19  1  0.65553500  0.59929000  0.92174800  1
  O  O20  1  0.11768800  0.44185600  0.74206600  1
  O  O21  1  0.55814400  0.25793400  0.88231200  1
  O  O22  1  0.01883600  0.04784000  0.70578700  1
  O  O23  1  0.95216000  0.29421300  0.98116400  1
loop_
_geom_bond_atom_site_label_1
_geom_bond_atom_site_label_2
_geom_bond_distance
_geom_bond_site_symmetry_2
Li0 O22 1.955797 1_665
Li0 O8 1.968039 1_555
Li0 O17 2.012652 1_565
Li0 O5 2.161864 1_555
Li1 O23 1.955797 1_454
Li1 O14 1.968039 1_555
Li1 O3 2.012652 1_455
Li1 O7 2.161864 1_555
Li2 O11 1.955797 1_544
Li2 O4 1.968039 1_555
Li2 O21 2.012652 1_554
Li2 O10 2.161864 1_555
Li3 O12 1.955797 1_566
Li3 O19 1.968039 1_555
Li3 O2 2.012652 1_556
Li3 O13 2.161864 1_555
Li4 O0 1.955797 1_656
Li4 O9 1.968039 1_555
Li4 O20 2.012652 1_655
Li4 O16 2.161864 1_555
Li5 O1 1.955797 1_445
Li5 O15 1.968039 1_555
Li5 O6 2.012652 1_545
Li5 O18 2.161864 1_555
O0 V1 1.880487 1_455
O0 V0 1.889160 1_555
O1 V3 1.880487 1_565
O1 V1 1.889160 1_555
O2 Si0 1.628079 1_555
O2 V0 1.968986 1_555
O3 Si2 1.628079 1_555
O3 V1 1.968986 1_555
O4 Si0 1.618164 1_555
O4 V4 1.996826 1_554
O5 Si0 1.670766 1_555
O5 Si2 1.686604 1_555
O6 Si1 1.628079 1_555
O6 V2 1.968986 1_555
O7 Si1 1.670766 1_555
O7 Si0 1.686604 1_555
O8 Si1 1.618164 1_555
O8 V5 1.996826 1_565
O9 Si2 1.618164 1_555
O9 V2 1.996826 1_655
O10 Si2 1.670766 1_555
O10 Si4 1.686604 1_555
O11 V0 1.880487 1_556
O11 V2 1.889160 1_555
O12 V5 1.880487 1_554
O12 V3 1.889160 1_555
O13 Si3 1.670766 1_555
O13 Si1 1.686604 1_555
O14 Si3 1.618164 1_555
O14 V3 1.996826 1_455
O15 Si4 1.618164 1_555
O15 V0 1.996826 1_545
O16 Si4 1.670766 1_555
O16 Si5 1.686604 1_555
O17 Si4 1.628079 1_555
O17 V3 1.968986 1_555
O18 Si5 1.670766 1_555
O18 Si3 1.686604 1_555
O19 Si5 1.618164 1_555
O19 V1 1.996826 1_556
O20 Si3 1.628079 1_555
O20 V4 1.968986 1_555
O21 Si5 1.628079 1_555
O21 V5 1.968986 1_555
O22 V2 1.880487 1_545
O22 V4 1.889160 1_555
O23 V4 1.880487 1_655
O23 V5 1.889160 1_555
