# generated using pymatgen
data_V2SiO4
_symmetry_space_group_name_H-M   'P 1'
_cell_length_a   5.90727825
_cell_length_b   5.90648164
_cell_length_c   5.86131522
_cell_angle_alpha   60.17626245
_cell_angle_beta   60.18881747
_cell_angle_gamma   60.66772216
_symmetry_Int_Tables_number   1
_chemical_formula_structural   V2SiO4
_chemical_formula_sum   'V4 Si2 O8'
_cell_volume   145.72868470
_cell_formula_units_Z   2
loop_
 _symmetry_equiv_pos_site_id
 _symmetry_equiv_pos_as_xyz
  1  'x, y, z'
loop_
 _atom_site_type_symbol
 _atom_site_label
 _atom_site_symmetry_multiplicity
 _atom_site_fract_x
 _atom_site_fract_y
 _atom_site_fract_z
 _atom_site_occupancy
  V  V0  1  0.49998000  0.00001500  0.50000300  1
  V  V1  1  0.50006100  0.49995400  0.00005100  1
  V  V2  1  0.99995900  0.50002100  0.49998400  1
  V  V3  1  0.50000000  0.49999600  0.49999400  1
  Si  Si0  1  0.12463400  0.12438700  0.12550600  1
  Si  Si1  1  0.87538900  0.87561100  0.87447500  1
  O  O0  1  0.24002600  0.23998400  0.24135600  1
  O  O1  1  0.78107500  0.24011400  0.23895500  1
  O  O2  1  0.24014300  0.78065600  0.23915300  1
  O  O3  1  0.24014900  0.24024400  0.77834700  1
  O  O4  1  0.75984200  0.21934300  0.76085100  1
  O  O5  1  0.75983700  0.75977200  0.22163700  1
  O  O6  1  0.21894500  0.75987500  0.76104300  1
  O  O7  1  0.75996100  0.76002800  0.75864600  1
loop_
_geom_bond_atom_site_label_1
_geom_bond_atom_site_label_2
_geom_bond_distance
_geom_bond_site_symmetry_2
O0 Si0 1.664113 1_555
O0 V1 2.169875 1_555
O0 V0 2.170328 1_555
O0 V2 2.170817 1_455
O1 Si0 1.667151 1_655
O1 V0 2.175362 1_555
O1 V1 2.179322 1_555
O1 V3 2.183378 1_555
O2 Si0 1.667536 1_565
O2 V2 2.173644 1_455
O2 V1 2.178978 1_555
O2 V3 2.182033 1_555
O3 Si0 1.663213 1_556
O3 V3 2.167820 1_555
O3 V2 2.169841 1_455
O3 V0 2.170216 1_555
O4 Si1 1.667543 1_545
O4 V2 2.173563 1_555
O4 V1 2.178959 1_556
O4 V3 2.182033 1_555
O5 Si1 1.663227 1_554
O5 V3 2.167862 1_555
O5 V2 2.169497 1_555
O5 V0 2.170368 1_565
O6 Si1 1.667138 1_455
O6 V0 2.175266 1_565
O6 V1 2.180180 1_556
O6 V3 2.183397 1_555
O7 Si1 1.664119 1_555
O7 V1 2.169711 1_556
O7 V0 2.170424 1_565
O7 V2 2.170847 1_555
