# generated using pymatgen
data_Li3V2(O2F)2
_symmetry_space_group_name_H-M   'P 1'
_cell_length_a   5.93713000
_cell_length_b   7.87132737
_cell_length_c   7.90849691
_cell_angle_alpha   85.99911894
_cell_angle_beta   68.70459736
_cell_angle_gamma   79.72677151
_symmetry_Int_Tables_number   1
_chemical_formula_structural   Li3V2(O2F)2
_chemical_formula_sum   'Li9 V6 O12 F6'
_cell_volume   338.82761176
_cell_formula_units_Z   3
loop_
 _symmetry_equiv_pos_site_id
 _symmetry_equiv_pos_as_xyz
  1  'x, y, z'
loop_
 _atom_site_type_symbol
 _atom_site_label
 _atom_site_symmetry_multiplicity
 _atom_site_fract_x
 _atom_site_fract_y
 _atom_site_fract_z
 _atom_site_occupancy
  Li  Li0  1  0.13531300  0.21197000  0.62767700  1
  Li  Li1  1  0.20201400  0.45045900  0.37238400  1
  Li  Li2  1  0.53754500  0.08586200  0.36775600  1
  Li  Li3  1  0.37342900  0.77555300  0.39282000  1
  Li  Li4  1  0.63316000  0.21328200  0.63245600  1
  Li  Li5  1  0.71302700  0.43362000  0.36061700  1
  Li  Li6  1  0.77235900  0.57820800  0.64013800  1
  Li  Li7  1  0.86410000  0.79843700  0.36234800  1
  Li  Li8  1  0.95611600  0.89889700  0.63616000  1
  V  V0  1  0.99670900  0.00499300  0.00259700  1
  V  V1  1  0.16971300  0.33474400  0.99712500  1
  V  V2  1  0.49343100  0.00036800  0.00209200  1
  V  V3  1  0.33898200  0.66316900  0.98811400  1
  V  V4  1  0.66994900  0.33205600  0.99806800  1
  V  V5  1  0.83007700  0.66460400  0.00148700  1
  O  O0  1  0.04410200  0.54255000  0.14414100  1
  O  O1  1  0.22406700  0.88783300  0.13280900  1
  O  O2  1  0.37725200  0.22014200  0.13779900  1
  O  O3  1  0.54718900  0.56224800  0.14421200  1
  O  O4  1  0.09858500  0.77682400  0.87060900  1
  O  O5  1  0.29483400  0.12835400  0.85421300  1
  O  O6  1  0.69396900  0.88978300  0.14953000  1
  O  O7  1  0.87827400  0.22695200  0.13977300  1
  O  O8  1  0.46441800  0.44066400  0.85426700  1
  O  O9  1  0.78468200  0.10020800  0.85408600  1
  O  O10  1  0.63829200  0.77769000  0.85568400  1
  O  O11  1  0.95948900  0.44732000  0.85949000  1
  F  F0  1  0.07281500  0.67902000  0.48762100  1
  F  F1  1  0.24625400  0.99594300  0.50555100  1
  F  F2  1  0.43005600  0.31347400  0.48003100  1
  F  F3  1  0.75073700  0.00261700  0.49987200  1
  F  F4  1  0.62121600  0.65564600  0.46802500  1
  F  F5  1  0.90637800  0.35095200  0.52116000  1
loop_
_geom_bond_atom_site_label_1
_geom_bond_atom_site_label_2
_geom_bond_distance
_geom_bond_site_symmetry_2
Li0 O5 2.320656 1_555
Li0 O9 2.457556 1_455
Li0 O11 2.505310 1_455
Li1 O0 2.338142 1_555
Li1 O3 2.442511 1_555
Li1 O2 2.491075 1_555
Li2 O6 2.217960 1_545
Li2 O2 2.441379 1_555
Li2 O7 2.539516 1_555
Li3 O6 2.416915 1_555
Li3 O3 2.473552 1_555
Li3 O1 2.566549 1_555
Li4 O5 2.305208 1_555
Li4 O9 2.305571 1_555
Li4 O8 2.409625 1_555
Li5 O7 2.289511 1_555
Li5 O0 2.341336 1_655
Li5 O3 2.355877 1_555
Li6 O10 2.224193 1_555
Li6 O8 2.363013 1_555
Li6 O11 2.459142 1_555
Li7 O6 2.275282 1_555
Li7 O1 2.428614 1_655
Li7 O0 2.560212 1_655
Li8 O9 2.246970 1_565
Li8 O10 2.348704 1_555
Li8 O4 2.382697 1_655
O0 V1 1.945250 1_554
O0 V5 2.065197 1_455
O0 V3 2.085516 1_554
O1 V2 1.894091 1_565
O1 V0 2.041115 1_465
O1 V3 2.046254 1_554
O2 V2 1.978883 1_555
O2 V1 2.007216 1_554
O2 V4 2.008078 1_554
O3 V5 1.929454 1_555
O3 V3 2.074715 1_554
O3 V4 2.087918 1_554
O4 V5 1.889213 1_456
O4 V3 2.023105 1_555
O4 V0 2.023994 1_466
O5 V1 1.919469 1_555
O5 V2 2.046071 1_556
O5 V0 2.097191 1_456
O6 V2 2.007968 1_565
O6 V5 2.063219 1_555
O6 V0 2.078609 1_565
O7 V1 1.989669 1_654
O7 V4 1.995645 1_554
O7 V0 1.998991 1_555
O8 V3 1.990832 1_555
O8 V1 1.996503 1_555
O8 V4 2.003360 1_555
O9 V2 1.965701 1_556
O9 V0 2.034790 1_556
O9 V4 2.091466 1_555
O10 V5 1.966570 1_556
O10 V3 2.038413 1_555
O10 V2 2.043218 1_566
O11 V5 1.987255 1_556
O11 V1 1.996385 1_655
O11 V4 2.007103 1_555
F0 Li7 1.935697 1_455
F0 Li3 1.938350 1_555
F0 Li1 1.970896 1_555
F0 Li6 2.018699 1_455
F0 Li8 2.029834 1_455
F1 Li0 1.904129 1_565
F1 Li3 1.906307 1_555
F1 Li2 1.907748 1_565
F1 Li8 1.919528 1_455
F2 Li2 1.951441 1_555
F2 Li5 1.974436 1_555
F2 Li1 1.977089 1_555
F2 Li0 1.987050 1_555
F2 Li4 2.028084 1_555
F3 Li7 1.882887 1_545
F3 Li4 1.906436 1_555
F3 Li2 1.921562 1_555
F3 Li8 1.947267 1_545
F4 Li3 1.862998 1_555
F4 Li5 1.898410 1_555
F4 Li6 1.898908 1_555
F4 Li7 1.900751 1_555
F5 Li6 1.975269 1_555
F5 Li0 1.981556 1_655
F5 Li1 1.985043 1_655
F5 Li5 2.007527 1_555
F5 Li4 2.009264 1_555
