# generated using pymatgen
data_ZrN2O9
_symmetry_space_group_name_H-M   'P 1'
_cell_length_a   8.16449600
_cell_length_b   9.31090190
_cell_length_c   10.74343403
_cell_angle_alpha   80.40462216
_cell_angle_beta   74.90060212
_cell_angle_gamma   86.93363838
_symmetry_Int_Tables_number   1
_chemical_formula_structural   ZrN2O9
_chemical_formula_sum   'Zr4 N8 O36'
_cell_volume   777.43169331
_cell_formula_units_Z   4
loop_
 _symmetry_equiv_pos_site_id
 _symmetry_equiv_pos_as_xyz
  1  'x, y, z'
loop_
 _atom_site_type_symbol
 _atom_site_label
 _atom_site_symmetry_multiplicity
 _atom_site_fract_x
 _atom_site_fract_y
 _atom_site_fract_z
 _atom_site_occupancy
  Zr  Zr0  1  0.02095800  0.95027000  0.13609800  1
  Zr  Zr1  1  0.97904200  0.04973000  0.86390200  1
  Zr  Zr2  1  0.59944900  0.13074700  0.41107400  1
  Zr  Zr3  1  0.40055100  0.86925300  0.58892600  1
  N  N0  1  0.34037100  0.86014400  0.12475500  1
  N  N1  1  0.65962900  0.13985600  0.87524500  1
  N  N2  1  0.85164400  0.65862500  0.34022000  1
  N  N3  1  0.14835600  0.34137500  0.65978000  1
  N  N4  1  0.59268100  0.33933100  0.18983500  1
  N  N5  1  0.40731900  0.66066900  0.81016500  1
  N  N6  1  0.60551300  0.33316900  0.56874500  1
  N  N7  1  0.39448700  0.66683100  0.43125500  1
  O  O0  1  0.81438500  0.64487200  0.87092600  1
  O  O1  1  0.18561500  0.35512800  0.12907400  1
  O  O2  1  0.86252800  0.76576300  0.67058000  1
  O  O3  1  0.13747200  0.23423700  0.32942000  1
  O  O4  1  0.93139700  0.88065300  0.99460800  1
  O  O5  1  0.06860300  0.11934700  0.00539200  1
  O  O6  1  0.87343100  0.05278500  0.30747400  1
  O  O7  1  0.12656900  0.94721500  0.69252600  1
  O  O8  1  0.76071200  0.99722600  0.24924300  1
  O  O9  1  0.23928800  0.00277400  0.75075700  1
  O  O10  1  0.62677400  0.96317600  0.54644400  1
  O  O11  1  0.37322600  0.03682400  0.45355600  1
  O  O12  1  0.26078200  0.94917700  0.20307900  1
  O  O13  1  0.73921800  0.05082300  0.79692100  1
  O  O14  1  0.23724700  0.79739300  0.07437400  1
  O  O15  1  0.76275300  0.20260700  0.92562600  1
  O  O16  1  0.49208400  0.83986100  0.09892100  1
  O  O17  1  0.50791600  0.16013900  0.90107900  1
  O  O18  1  0.92656600  0.73390200  0.38947300  1
  O  O19  1  0.07343400  0.26609800  0.61052700  1
  O  O20  1  0.83602800  0.66720100  0.23059300  1
  O  O21  1  0.16397200  0.33279900  0.76940700  1
  O  O22  1  0.15169600  0.35723200  0.25207800  1
  O  O23  1  0.84830400  0.64276800  0.74792200  1
  O  O24  1  0.70766400  0.33771200  0.25404700  1
  O  O25  1  0.29233600  0.66228800  0.74595300  1
  O  O26  1  0.49666200  0.22538900  0.22588600  1
  O  O27  1  0.50333800  0.77461100  0.77411400  1
  O  O28  1  0.57423000  0.43937700  0.10555300  1
  O  O29  1  0.42577000  0.56062300  0.89444700  1
  O  O30  1  0.74496900  0.28135200  0.50412300  1
  O  O31  1  0.25503100  0.71864800  0.49587700  1
  O  O32  1  0.46892900  0.27927800  0.54971100  1
  O  O33  1  0.53107100  0.72072200  0.45028900  1
  O  O34  1  0.59613800  0.42208400  0.64099800  1
  O  O35  1  0.40386200  0.57791600  0.35900200  1
loop_
_geom_bond_atom_site_label_1
_geom_bond_atom_site_label_2
_geom_bond_distance
_geom_bond_site_symmetry_2
N0 O16 1.208435 1_555
N0 O12 1.306740 1_555
N0 O14 1.318601 1_555
N1 O17 1.208435 1_555
N1 O13 1.306740 1_555
N1 O15 1.318601 1_555
N2 O20 1.206468 1_555
N2 O18 1.218020 1_555
N3 O21 1.206468 1_555
N3 O19 1.218020 1_555
N4 O28 1.218675 1_555
N4 O26 1.297653 1_555
N4 O24 1.299946 1_555
N5 O29 1.218675 1_555
N5 O27 1.297653 1_555
N5 O25 1.299946 1_555
N6 O34 1.212562 1_555
N6 O30 1.285387 1_555
N6 O32 1.322877 1_555
N7 O35 1.212562 1_555
N7 O31 1.285387 1_555
N7 O33 1.322877 1_555
O0 O23 1.280932 1_555
O1 O22 1.280932 1_555
O2 O23 1.289227 1_555
O4 Zr1 1.909302 1_565
O4 Zr0 2.055187 1_656
O5 Zr0 1.909302 1_545
O5 Zr1 2.055187 1_454
O6 O8 1.401676 1_545
O6 Zr0 2.249282 1_645
O6 Zr2 2.359677 1_555
O7 O9 1.401676 1_565
O7 Zr1 2.249282 1_465
O7 Zr3 2.359677 1_555
O8 Zr0 2.217116 1_655
O8 Zr2 2.377967 1_565
O9 Zr1 2.217116 1_455
O9 Zr3 2.377967 1_545
O10 Zr2 1.993624 1_565
O10 Zr3 1.996253 1_555
O11 Zr3 1.993624 1_545
O11 Zr2 1.996253 1_555
O12 Zr0 2.254190 1_555
O13 Zr1 2.254190 1_555
O14 Zr0 2.240517 1_555
O15 Zr1 2.240517 1_555
O22 O3 1.289227 1_555
O24 Zr2 2.379471 1_555
O25 Zr3 2.379471 1_555
O26 Zr2 2.376001 1_555
O27 Zr3 2.376001 1_555
O30 Zr2 2.375208 1_555
O31 Zr3 2.375208 1_555
O32 Zr2 2.229056 1_555
O33 Zr3 2.229056 1_555
