# generated using pymatgen
data_LaBiO3
_symmetry_space_group_name_H-M   'P 1'
_cell_length_a   6.27184036
_cell_length_b   6.27184036
_cell_length_c   6.27183942
_cell_angle_alpha   59.99759032
_cell_angle_beta   59.99759032
_cell_angle_gamma   59.99759113
_symmetry_Int_Tables_number   1
_chemical_formula_structural   LaBiO3
_chemical_formula_sum   'La2 Bi2 O6'
_cell_volume   174.44004834
_cell_formula_units_Z   2
loop_
 _symmetry_equiv_pos_site_id
 _symmetry_equiv_pos_as_xyz
  1  'x, y, z'
loop_
 _atom_site_type_symbol
 _atom_site_label
 _atom_site_symmetry_multiplicity
 _atom_site_fract_x
 _atom_site_fract_y
 _atom_site_fract_z
 _atom_site_occupancy
  La  La0  1  0.71972600  0.71972600  0.71972600  1
  La  La1  1  0.21972600  0.21972600  0.21972600  1
  Bi  Bi0  1  0.99947800  0.99947800  0.99947800  1
  Bi  Bi1  1  0.49947800  0.49947800  0.49947800  1
  O  O0  1  0.82738900  0.09622900  0.37545700  1
  O  O1  1  0.59622900  0.32738900  0.87545700  1
  O  O2  1  0.87545700  0.59622900  0.32738900  1
  O  O3  1  0.09622900  0.37545700  0.82738900  1
  O  O4  1  0.37545700  0.82738900  0.09622900  1
  O  O5  1  0.32738900  0.87545700  0.59622900  1
loop_
_geom_bond_atom_site_label_1
_geom_bond_atom_site_label_2
_geom_bond_distance
_geom_bond_site_symmetry_2
La0 O4 2.394084 1_556
La0 O0 2.394085 1_565
La0 O3 2.394085 1_655
La0 O2 2.520864 1_555
La0 O5 2.520864 1_555
La0 O1 2.520864 1_555
La1 O5 2.394084 1_545
La1 O1 2.394085 1_554
La1 O2 2.394085 1_455
La1 O3 2.520864 1_554
La1 O4 2.520864 1_545
La1 O0 2.520864 1_455
Bi0 O0 2.307466 1_566
Bi0 O4 2.307466 1_656
Bi0 O3 2.307466 1_665
Bi0 O5 2.529203 1_655
Bi0 O2 2.529203 1_556
Bi0 O1 2.529203 1_565
Bi1 O1 2.307466 1_555
Bi1 O5 2.307466 1_555
Bi1 O2 2.307466 1_555
Bi1 O4 2.529203 1_555
Bi1 O3 2.529203 1_555
Bi1 O0 2.529203 1_555
