# generated using pymatgen
data_LiFe(PO3)4
_symmetry_space_group_name_H-M   'P 1'
_cell_length_a   9.02893800
_cell_length_b   7.16728300
_cell_length_c   15.68532338
_cell_angle_alpha   64.47112379
_cell_angle_beta   90.00000000
_cell_angle_gamma   90.00000000
_symmetry_Int_Tables_number   1
_chemical_formula_structural   LiFe(PO3)4
_chemical_formula_sum   'Li4 Fe4 P16 O48'
_cell_volume   915.94307167
_cell_formula_units_Z   4
loop_
 _symmetry_equiv_pos_site_id
 _symmetry_equiv_pos_as_xyz
  1  'x, y, z'
loop_
 _atom_site_type_symbol
 _atom_site_label
 _atom_site_symmetry_multiplicity
 _atom_site_fract_x
 _atom_site_fract_y
 _atom_site_fract_z
 _atom_site_occupancy
  Li  Li0  1  0.47607400  0.41176300  0.11799500  1
  Li  Li1  1  0.97607400  0.58823700  0.38200500  1
  Li  Li2  1  0.02392600  0.41176300  0.61799500  1
  Li  Li3  1  0.52392600  0.58823700  0.88200500  1
  Fe  Fe0  1  0.24173300  0.84977100  0.15898500  1
  Fe  Fe1  1  0.74173300  0.15022900  0.34101500  1
  Fe  Fe2  1  0.25826700  0.84977100  0.65898500  1
  Fe  Fe3  1  0.75826700  0.15022900  0.84101500  1
  P  P0  1  0.74326000  0.21147800  0.04022000  1
  P  P1  1  0.67179500  0.80379700  0.05765100  1
  P  P2  1  0.92113200  0.57323900  0.18176100  1
  P  P3  1  0.98994900  0.18205000  0.17724800  1
  P  P4  1  0.42113200  0.42676100  0.31823900  1
  P  P5  1  0.48994900  0.81795000  0.32275200  1
  P  P6  1  0.17179500  0.19620300  0.44234900  1
  P  P7  1  0.24326000  0.78852200  0.45978000  1
  P  P8  1  0.75674000  0.21147800  0.54022000  1
  P  P9  1  0.82820500  0.80379700  0.55765100  1
  P  P10  1  0.51005100  0.18205000  0.67724800  1
  P  P11  1  0.57886800  0.57323900  0.68176100  1
  P  P12  1  0.01005100  0.81795000  0.82275200  1
  P  P13  1  0.07886800  0.42676100  0.81823900  1
  P  P14  1  0.32820500  0.19620300  0.94234900  1
  P  P15  1  0.25674000  0.78852200  0.95978000  1
  O  O0  1  0.33700300  0.09605000  0.04907600  1
  O  O1  1  0.22453400  0.74439900  0.06123600  1
  O  O2  1  0.64357400  0.35461400  0.05867500  1
  O  O3  1  0.83536500  0.69849800  0.08318100  1
  O  O4  1  0.90569300  0.20082200  0.08428400  1
  O  O5  1  0.68365400  0.97910700  0.09654500  1
  O  O6  1  0.54996000  0.66427800  0.11117400  1
  O  O7  1  0.02130400  0.41954800  0.15540300  1
  O  O8  1  0.13708900  0.08501800  0.17772400  1
  O  O9  1  0.02247100  0.72006200  0.20025400  1
  O  O10  1  0.31064400  0.54577400  0.24200200  1
  O  O11  1  0.39423000  0.91540500  0.23624900  1
  O  O12  1  0.81064400  0.45422600  0.25799800  1
  O  O13  1  0.89423000  0.08459500  0.26375100  1
  O  O14  1  0.52247100  0.27993800  0.29974600  1
  O  O15  1  0.52130400  0.58045200  0.34459700  1
  O  O16  1  0.63708900  0.91498200  0.32227600  1
  O  O17  1  0.04996000  0.33572200  0.38882600  1
  O  O18  1  0.18365400  0.02089300  0.40345500  1
  O  O19  1  0.33536500  0.30150200  0.41681900  1
  O  O20  1  0.40569300  0.79917800  0.41571600  1
  O  O21  1  0.14357400  0.64538600  0.44132500  1
  O  O22  1  0.72453400  0.25560100  0.43876400  1
  O  O23  1  0.83700300  0.90395000  0.45092400  1
  O  O24  1  0.16299700  0.09605000  0.54907600  1
  O  O25  1  0.27546600  0.74439900  0.56123600  1
  O  O26  1  0.85642600  0.35461400  0.55867500  1
  O  O27  1  0.59430700  0.20082200  0.58428400  1
  O  O28  1  0.66463500  0.69849800  0.58318100  1
  O  O29  1  0.81634600  0.97910700  0.59654500  1
  O  O30  1  0.95004000  0.66427800  0.61117400  1
  O  O31  1  0.36291100  0.08501800  0.67772400  1
  O  O32  1  0.47869600  0.41954800  0.65540300  1
  O  O33  1  0.47752900  0.72006200  0.70025400  1
  O  O34  1  0.10577000  0.91540500  0.73624900  1
  O  O35  1  0.18935600  0.54577400  0.74200200  1
  O  O36  1  0.60577000  0.08459500  0.76375100  1
  O  O37  1  0.68935600  0.45422600  0.75799800  1
  O  O38  1  0.97752900  0.27993800  0.79974600  1
  O  O39  1  0.86291100  0.91498200  0.82227600  1
  O  O40  1  0.97869600  0.58045200  0.84459700  1
  O  O41  1  0.45004000  0.33572200  0.88882600  1
  O  O42  1  0.31634600  0.02089300  0.90345500  1
  O  O43  1  0.09430700  0.79917800  0.91571600  1
  O  O44  1  0.16463500  0.30150200  0.91681900  1
  O  O45  1  0.35642600  0.64538600  0.94132500  1
  O  O46  1  0.77546600  0.25560100  0.93876400  1
  O  O47  1  0.66299700  0.90395000  0.95092400  1
loop_
_geom_bond_atom_site_label_1
_geom_bond_atom_site_label_2
_geom_bond_distance
_geom_bond_site_symmetry_2
Li0 O6 1.888155 1_555
Li0 O2 1.910290 1_555
Li0 O14 2.621781 1_555
Li1 O17 1.888155 1_655
Li1 O21 1.910290 1_655
Li1 O9 2.621781 1_655
Li2 O30 1.888155 1_455
Li2 O26 1.910290 1_455
Li2 O38 2.621781 1_455
Li3 O41 1.888155 1_555
Li3 O45 1.910290 1_555
Li3 O33 2.621781 1_555
Fe0 O1 1.985782 1_555
Fe0 O11 2.019214 1_555
Fe0 O0 2.050564 1_565
Fe0 O8 2.061339 1_565
Fe0 O10 2.093940 1_555
Fe0 O9 2.164212 1_555
Fe1 O22 1.985782 1_555
Fe1 O13 2.019214 1_555
Fe1 O23 2.050564 1_545
Fe1 O16 2.061339 1_545
Fe1 O12 2.093940 1_555
Fe1 O14 2.164212 1_555
Fe2 O25 1.985782 1_555
Fe2 O34 2.019214 1_555
Fe2 O24 2.050564 1_565
Fe2 O31 2.061339 1_565
Fe2 O35 2.093940 1_555
Fe2 O33 2.164212 1_555
Fe3 O46 1.985782 1_555
Fe3 O36 2.019214 1_555
Fe3 O47 2.050564 1_545
Fe3 O39 2.061339 1_545
Fe3 O37 2.093940 1_555
Fe3 O38 2.164212 1_555
O0 P14 1.512699 1_554
O1 P15 1.511043 1_554
O2 P0 1.484025 1_555
O3 P2 1.612470 1_555
O3 P1 1.628058 1_555
O4 P3 1.598121 1_555
O4 P0 1.609019 1_555
O5 P0 1.604900 1_565
O5 P1 1.619610 1_555
O6 P1 1.480285 1_555
O7 P3 1.610082 1_455
O7 P2 1.610868 1_455
O8 P3 1.498065 1_455
O9 P2 1.513875 1_455
O10 P4 1.507829 1_555
O11 P5 1.502964 1_555
O12 P2 1.507829 1_555
O13 P3 1.502964 1_555
O14 P4 1.513875 1_555
O15 P5 1.610082 1_555
O15 P4 1.610868 1_555
O16 P5 1.498065 1_555
O17 P6 1.480285 1_555
O18 P7 1.604900 1_545
O18 P6 1.619610 1_555
O19 P4 1.612470 1_555
O19 P6 1.628058 1_555
O20 P5 1.598121 1_555
O20 P7 1.609019 1_555
O21 P7 1.484025 1_555
O22 P8 1.511043 1_555
O23 P9 1.512699 1_555
O24 P6 1.512699 1_555
O25 P7 1.511043 1_555
O26 P8 1.484025 1_555
O27 P10 1.598121 1_555
O27 P8 1.609019 1_555
O28 P11 1.612470 1_555
O28 P9 1.628058 1_555
O29 P8 1.604900 1_565
O29 P9 1.619610 1_555
O30 P9 1.480285 1_555
O31 P10 1.498065 1_555
O32 P10 1.610082 1_555
O32 P11 1.610868 1_555
O33 P11 1.513875 1_555
O34 P12 1.502964 1_555
O35 P13 1.507829 1_555
O36 P10 1.502964 1_555
O37 P11 1.507829 1_555
O38 P13 1.513875 1_655
O39 P12 1.498065 1_655
O40 P12 1.610082 1_655
O40 P13 1.610868 1_655
O41 P14 1.480285 1_555
O42 P15 1.604900 1_545
O42 P14 1.619610 1_555
O43 P12 1.598121 1_555
O43 P15 1.609019 1_555
O44 P13 1.612470 1_555
O44 P14 1.628058 1_555
O45 P15 1.484025 1_555
O46 P0 1.511043 1_556
O47 P1 1.512699 1_556
