# generated using pymatgen
data_LiCu2PO4
_symmetry_space_group_name_H-M   'P 1'
_cell_length_a   5.56877300
_cell_length_b   6.19853782
_cell_length_c   10.31721981
_cell_angle_alpha   89.73551633
_cell_angle_beta   88.81375628
_cell_angle_gamma   88.88683557
_symmetry_Int_Tables_number   1
_chemical_formula_structural   LiCu2PO4
_chemical_formula_sum   'Li4 Cu8 P4 O16'
_cell_volume   355.98568813
_cell_formula_units_Z   4
loop_
 _symmetry_equiv_pos_site_id
 _symmetry_equiv_pos_as_xyz
  1  'x, y, z'
loop_
 _atom_site_type_symbol
 _atom_site_label
 _atom_site_symmetry_multiplicity
 _atom_site_fract_x
 _atom_site_fract_y
 _atom_site_fract_z
 _atom_site_occupancy
  Li  Li0  1  0.14677300  0.00001500  0.24824900  1
  Li  Li1  1  0.15663400  0.00198900  0.75180400  1
  Li  Li2  1  0.32678400  0.25179100  0.99878400  1
  Li  Li3  1  0.67519200  0.25418400  0.75736800  1
  Cu  Cu0  1  0.36644000  0.26492900  0.48844800  1
  Cu  Cu1  1  0.65886800  0.27816900  0.26071400  1
  Cu  Cu2  1  0.77044200  0.51174700  0.01121300  1
  Cu  Cu3  1  0.76195100  0.49627800  0.50335500  1
  Cu  Cu4  1  0.65170300  0.71924800  0.26249300  1
  Cu  Cu5  1  0.65287400  0.71702500  0.77060600  1
  Cu  Cu6  1  0.35641700  0.73767000  0.49357900  1
  Cu  Cu7  1  0.35564600  0.74076900  0.99342600  1
  P  P0  1  0.83928200  0.01239600  0.99732000  1
  P  P1  1  0.84738600  0.99968600  0.50658900  1
  P  P2  1  0.17590200  0.49194800  0.75028400  1
  P  P3  1  0.17648500  0.49958400  0.24307500  1
  O  O0  1  0.84719800  0.00664400  0.35619400  1
  O  O1  1  0.10576400  0.99608400  0.56046600  1
  O  O2  1  0.83997000  0.00410100  0.84704300  1
  O  O3  1  0.09746600  0.01717000  0.05134200  1
  O  O4  1  0.70311900  0.19781200  0.56615500  1
  O  O5  1  0.68212700  0.21217000  0.04343400  1
  O  O6  1  0.31764700  0.29373600  0.80515300  1
  O  O7  1  0.30034700  0.28469500  0.29139400  1
  O  O8  1  0.18050700  0.49740200  0.09347400  1
  O  O9  1  0.91679400  0.50143900  0.30100700  1
  O  O10  1  0.18015100  0.49180600  0.59951600  1
  O  O11  1  0.91055000  0.48741300  0.80251800  1
  O  O12  1  0.29712100  0.71034600  0.29210700  1
  O  O13  1  0.29463700  0.70891600  0.79645500  1
  O  O14  1  0.70424100  0.79956700  0.55749700  1
  O  O15  1  0.70358600  0.81326700  0.05634500  1
loop_
_geom_bond_atom_site_label_1
_geom_bond_atom_site_label_2
_geom_bond_distance
_geom_bond_site_symmetry_2
Li0 O0 1.986439 1_455
Li0 O12 2.019759 1_545
Li0 O7 2.031012 1_555
Li0 O3 2.057619 1_555
Li1 O1 2.000698 1_545
Li1 O2 2.000710 1_455
Li1 O13 2.013861 1_545
Li1 O6 2.114209 1_555
Li2 O8 1.966810 1_556
Li2 O6 2.014951 1_555
Li2 O3 2.018919 1_556
Li2 O5 2.050875 1_556
Li3 O4 2.007416 1_555
Li3 O2 2.016830 1_555
Li3 O11 2.032218 1_555
Li3 O6 2.051608 1_555
Cu0 O10 2.067846 1_555
Cu0 O7 2.076222 1_555
Cu0 O4 2.088036 1_555
Cu0 O1 2.339723 1_545
Cu1 O7 2.014632 1_555
Cu1 O9 2.063600 1_555
Cu1 O0 2.204968 1_555
Cu1 O5 2.281196 1_555
Cu2 O15 1.955083 1_555
Cu2 O5 1.955409 1_555
Cu2 O11 2.279570 1_554
Cu2 O8 2.452449 1_655
Cu3 O14 1.981995 1_555
Cu3 O4 1.988348 1_555
Cu3 O9 2.242508 1_555
Cu3 O10 2.549815 1_655
Cu4 O12 1.993611 1_555
Cu4 O9 2.025293 1_555
Cu4 O15 2.217287 1_555
Cu4 O0 2.329831 1_565
Cu5 O13 2.008776 1_555
Cu5 O11 2.031994 1_555
Cu5 O2 2.234485 1_565
Cu5 O14 2.268724 1_555
Cu6 O14 2.101897 1_555
Cu6 O10 2.116364 1_555
Cu6 O12 2.119498 1_555
Cu6 O1 2.207655 1_555
Cu7 O8 2.072061 1_556
Cu7 O13 2.078248 1_555
Cu7 O15 2.113346 1_556
Cu7 O3 2.288595 1_566
O0 P1 1.552080 1_545
O1 P1 1.552906 1_455
O2 P0 1.551453 1_555
O3 P0 1.553604 1_454
O4 P1 1.574647 1_545
O5 P0 1.572182 1_554
O6 P2 1.558027 1_555
O7 P3 1.571914 1_555
O8 P3 1.543283 1_555
O9 P3 1.553184 1_655
O10 P2 1.555201 1_555
O11 P2 1.563096 1_655
O12 P3 1.571055 1_555
O13 P2 1.589444 1_555
O14 P1 1.570056 1_555
O15 P0 1.573416 1_564
