# generated using pymatgen
data_Ti2Nb(PO4)3
_symmetry_space_group_name_H-M   'P 1'
_cell_length_a   8.56739277
_cell_length_b   8.56735333
_cell_length_c   8.56732414
_cell_angle_alpha   60.90055556
_cell_angle_beta   60.90031559
_cell_angle_gamma   60.90022225
_symmetry_Int_Tables_number   1
_chemical_formula_structural   Ti2Nb(PO4)3
_chemical_formula_sum   'Ti4 Nb2 P6 O24'
_cell_volume   453.68141272
_cell_formula_units_Z   2
loop_
 _symmetry_equiv_pos_site_id
 _symmetry_equiv_pos_as_xyz
  1  'x, y, z'
loop_
 _atom_site_type_symbol
 _atom_site_label
 _atom_site_symmetry_multiplicity
 _atom_site_fract_x
 _atom_site_fract_y
 _atom_site_fract_z
 _atom_site_occupancy
  Ti  Ti0  1  0.14262834  0.14262813  0.14262879  1
  Ti  Ti1  1  0.35740301  0.35740256  0.35740239  1
  Ti  Ti2  1  0.64259699  0.64259744  0.64259761  1
  Ti  Ti3  1  0.85737166  0.85737187  0.85737121  1
  Nb  Nb0  1  -0.00000000  0.00000000  0.00000000  1
  Nb  Nb1  1  0.50000000  0.50000000  0.50000000  1
  P  P0  1  0.53927061  0.25006524  0.96067916  1
  P  P1  1  0.96067515  0.53926575  0.25005954  1
  P  P2  1  0.25006152  0.96067459  0.53926773  1
  P  P3  1  0.74993848  0.03932541  0.46073227  1
  P  P4  1  0.03932485  0.46073425  0.74994046  1
  P  P5  1  0.46072939  0.74993476  0.03932084  1
  O  O0  1  0.31380090  0.11615282  0.50120996  1
  O  O1  1  0.50121092  0.31379879  0.11614803  1
  O  O2  1  0.91011338  0.05701356  0.26758935  1
  O  O3  1  0.11615298  0.50120970  0.31380150  1
  O  O4  1  0.81378081  0.00123543  0.61616040  1
  O  O5  1  0.58986134  0.23247208  0.44305973  1
  O  O6  1  0.05701339  0.26758869  0.91011332  1
  O  O7  1  0.23247305  0.44305867  0.58986248  1
  O  O8  1  0.38383600  0.18621573  -0.00123433  1
  O  O9  1  0.44305887  0.58986239  0.23247391  1
  O  O10  1  0.73241034  0.08988603  0.94298561  1
  O  O11  1  -0.00123619  0.38384223  0.18621874  1
  O  O12  1  0.00123619  0.61615777  0.81378126  1
  O  O13  1  0.26758966  0.91011397  0.05701439  1
  O  O14  1  0.55694113  0.41013761  0.76752609  1
  O  O15  1  0.61616400  0.81378427  0.00123433  1
  O  O16  1  0.76752695  0.55694133  0.41013752  1
  O  O17  1  0.94298661  0.73241131  0.08988668  1
  O  O18  1  0.41013866  0.76752792  0.55694027  1
  O  O19  1  0.18621919  -0.00123543  0.38383960  1
  O  O20  1  0.88384702  0.49879030  0.68619850  1
  O  O21  1  0.08988662  0.94298644  0.73241065  1
  O  O22  1  0.49878908  0.68620121  0.88385197  1
  O  O23  1  0.68619910  0.88384718  0.49879004  1
loop_
_geom_bond_atom_site_label_1
_geom_bond_atom_site_label_2
_geom_bond_distance
_geom_bond_site_symmetry_2
Nb0 O2 2.256858 1_455
Nb0 O21 2.256858 1_544
Nb0 O17 2.256868 1_445
Nb0 O6 2.256868 1_554
Nb0 O10 2.256885 1_454
Nb0 O13 2.256885 1_545
Nb1 O9 2.256063 1_555
Nb1 O14 2.256063 1_555
Nb1 O5 2.256075 1_555
Nb1 O18 2.256075 1_555
Nb1 O16 2.256087 1_555
Nb1 O7 2.256087 1_555
O0 P2 1.513516 1_545
O0 Ti1 1.938021 1_555
O1 P0 1.513388 1_554
O1 Ti1 1.938047 1_555
O2 P3 1.547231 1_555
O2 Ti0 2.058028 1_655
O3 P1 1.513534 1_455
O3 Ti1 1.938020 1_555
O4 P3 1.513599 1_555
O4 Ti3 1.937703 1_545
O5 P3 1.546903 1_555
O5 Ti1 2.057835 1_555
O6 P4 1.547241 1_555
O6 Ti0 2.058022 1_556
O7 P4 1.546915 1_555
O7 Ti1 2.057827 1_555
O8 P0 1.513714 1_554
O8 Ti0 1.937679 1_555
O9 P5 1.546920 1_555
O9 Ti1 2.057842 1_555
O10 P0 1.547233 1_555
O10 Ti3 2.058003 1_545
O11 P1 1.513554 1_455
O11 Ti0 1.937721 1_555
O12 P4 1.513554 1_555
O12 Ti3 1.937721 1_455
O13 P5 1.547233 1_555
O13 Ti0 2.058003 1_565
O14 P0 1.546920 1_555
O14 Ti2 2.057842 1_555
O15 P5 1.513714 1_555
O15 Ti3 1.937679 1_554
O16 P1 1.546915 1_555
O16 Ti2 2.057827 1_555
O17 P1 1.547241 1_555
O17 Ti3 2.058022 1_554
O18 P2 1.546903 1_555
O18 Ti2 2.057835 1_555
O19 P2 1.513599 1_545
O19 Ti0 1.937703 1_555
O20 P4 1.513534 1_655
O20 Ti2 1.938020 1_555
O21 P2 1.547231 1_555
O21 Ti3 2.058028 1_455
O22 P5 1.513388 1_556
O22 Ti2 1.938047 1_555
O23 P3 1.513516 1_565
O23 Ti2 1.938021 1_555
