# generated using pymatgen
data_KFeP4(H2O7)2
_symmetry_space_group_name_H-M   'P 1'
_cell_length_a   7.99805358
_cell_length_b   10.40199213
_cell_length_c   15.01925510
_cell_angle_alpha   105.92633645
_cell_angle_beta   93.28517629
_cell_angle_gamma   79.61997241
_symmetry_Int_Tables_number   1
_chemical_formula_structural   KFeP4(H2O7)2
_chemical_formula_sum   'K4 Fe4 P16 H16 O56'
_cell_volume   1181.86874165
_cell_formula_units_Z   4
loop_
 _symmetry_equiv_pos_site_id
 _symmetry_equiv_pos_as_xyz
  1  'x, y, z'
loop_
 _atom_site_type_symbol
 _atom_site_label
 _atom_site_symmetry_multiplicity
 _atom_site_fract_x
 _atom_site_fract_y
 _atom_site_fract_z
 _atom_site_occupancy
  K  K0  1  0.00000300  0.24996400  0.74999000  1
  K  K1  1  0.99999700  0.49999800  0.49999100  1
  K  K2  1  0.00002300  0.99995600  0.00000600  1
  K  K3  1  0.99999100  0.75002200  0.25001000  1
  Fe  Fe0  1  0.00012400  0.62505100  0.87498700  1
  Fe  Fe1  1  0.99987600  0.87507800  0.62497600  1
  Fe  Fe2  1  0.99989600  0.37514300  0.12500700  1
  Fe  Fe3  1  0.00001300  0.12494200  0.37489900  1
  P  P0  1  0.31902600  0.50223700  0.72873300  1
  P  P1  1  0.31903500  0.75226700  0.47873600  1
  P  P2  1  0.31898400  0.25224300  0.97873700  1
  P  P3  1  0.31905300  0.00229700  0.22871600  1
  P  P4  1  0.68095300  0.99768800  0.77124800  1
  P  P5  1  0.68098100  0.24775200  0.52125800  1
  P  P6  1  0.68102900  0.74772700  0.02128500  1
  P  P7  1  0.68096800  0.49774700  0.27128800  1
  P  P8  1  0.23185900  0.80261200  0.79957300  1
  P  P9  1  0.23183200  0.05267400  0.54957000  1
  P  P10  1  0.23184900  0.55260700  0.04958400  1
  P  P11  1  0.23183300  0.30271500  0.29954300  1
  P  P12  1  0.76823400  0.69728700  0.70042200  1
  P  P13  1  0.76818900  0.94734800  0.45042700  1
  P  P14  1  0.76817200  0.44732100  0.95040500  1
  P  P15  1  0.76811200  0.19737100  0.20042100  1
  H  H0  1  0.41801600  0.85859800  0.91762300  1
  H  H1  1  0.41807900  0.10854200  0.66763600  1
  H  H2  1  0.41804500  0.60856700  0.16763400  1
  H  H3  1  0.41802500  0.35860300  0.41760000  1
  H  H4  1  0.58198400  0.64142800  0.58239400  1
  H  H5  1  0.58198400  0.89146700  0.33239000  1
  H  H6  1  0.58189100  0.39145000  0.83234900  1
  H  H7  1  0.58196100  0.14141600  0.08238500  1
  H  H8  1  0.38328400  0.42133300  0.57939300  1
  H  H9  1  0.38329500  0.67132800  0.32937700  1
  H  H10  1  0.38327300  0.17133100  0.82939400  1
  H  H11  1  0.38331400  0.92133500  0.07938200  1
  H  H12  1  0.61670600  0.07868200  0.92060600  1
  H  H13  1  0.61671900  0.32868600  0.67060700  1
  H  H14  1  0.61671300  0.82869000  0.17061400  1
  H  H15  1  0.61671500  0.57868500  0.42061800  1
  O  O0  1  0.15828900  0.49392200  0.77482100  1
  O  O1  1  0.15832100  0.74392200  0.52485400  1
  O  O2  1  0.15820700  0.24394600  0.02481300  1
  O  O3  1  0.15826700  0.99394300  0.27479000  1
  O  O4  1  0.84171300  0.00607700  0.72520300  1
  O  O5  1  0.84172300  0.25605700  0.47516000  1
  O  O6  1  0.84174800  0.75605900  0.97519600  1
  O  O7  1  0.84173300  0.50607700  0.22520100  1
  O  O8  1  0.48251800  0.41391500  0.74670500  1
  O  O9  1  0.48255900  0.66396000  0.49668200  1
  O  O10  1  0.48252000  0.16395400  0.99670000  1
  O  O11  1  0.48253600  0.91397800  0.24669700  1
  O  O12  1  0.51737000  0.08589800  0.75324400  1
  O  O13  1  0.51747200  0.33607500  0.50329300  1
  O  O14  1  0.51760700  0.83619500  0.00341500  1
  O  O15  1  0.51755200  0.58620100  0.25337400  1
  O  O16  1  0.08093200  0.78364900  0.84987000  1
  O  O17  1  0.08090800  0.03359900  0.59981600  1
  O  O18  1  0.08089400  0.53361100  0.09983000  1
  O  O19  1  0.08097500  0.28364000  0.34985900  1
  O  O20  1  0.91909200  0.71633200  0.65013400  1
  O  O21  1  0.91911200  0.96639400  0.40018100  1
  O  O22  1  0.91908500  0.46641800  0.90019100  1
  O  O23  1  0.91904100  0.21637700  0.15013500  1
  O  O24  1  0.81393800  0.63380800  0.77975800  1
  O  O25  1  0.81404500  0.88372000  0.52969600  1
  O  O26  1  0.81402900  0.38372100  0.02970400  1
  O  O27  1  0.81381500  0.13393100  0.27976600  1
  O  O28  1  0.18609300  0.86603200  0.72023300  1
  O  O29  1  0.18593500  0.11626000  0.47028300  1
  O  O30  1  0.18600800  0.61607900  0.97027100  1
  O  O31  1  0.18604100  0.36625500  0.22024400  1
  O  O32  1  0.35309300  0.65730400  0.76406600  1
  O  O33  1  0.35309400  0.90738100  0.51402300  1
  O  O34  1  0.35307200  0.40736300  0.01403800  1
  O  O35  1  0.35307700  0.15741600  0.26401700  1
  O  O36  1  0.64699700  0.84252700  0.73597400  1
  O  O37  1  0.64691800  0.09260900  0.48598100  1
  O  O38  1  0.64689500  0.59262800  0.98598500  1
  O  O39  1  0.64687700  0.34269700  0.23595600  1
  O  O40  1  0.34366200  0.89408500  0.86832500  1
  O  O41  1  0.34371000  0.14407500  0.61831400  1
  O  O42  1  0.34364800  0.64409200  0.11833500  1
  O  O43  1  0.34368600  0.39414000  0.36829700  1
  O  O44  1  0.65633000  0.60587500  0.63168600  1
  O  O45  1  0.65635700  0.85591500  0.38168100  1
  O  O46  1  0.65625200  0.35592700  0.88168300  1
  O  O47  1  0.65629300  0.10588400  0.13169100  1
  O  O48  1  0.28326000  0.47426200  0.62148400  1
  O  O49  1  0.28324800  0.72426500  0.37148100  1
  O  O50  1  0.28326500  0.22425800  0.87148000  1
  O  O51  1  0.28325000  0.97425600  0.12147600  1
  O  O52  1  0.71669500  0.02572200  0.87851200  1
  O  O53  1  0.71671600  0.27571500  0.62851600  1
  O  O54  1  0.71675500  0.77569500  0.12853700  1
  O  O55  1  0.71673100  0.52571300  0.37853100  1
loop_
_geom_bond_atom_site_label_1
_geom_bond_atom_site_label_2
_geom_bond_distance
_geom_bond_site_symmetry_2
K0 O17 2.725421 1_555
K0 O22 2.726199 1_455
K0 O50 2.847693 1_555
K0 O53 2.847752 1_455
K0 O4 2.960123 1_455
K0 O0 2.960681 1_555
K1 O20 2.724956 1_555
K1 O19 2.725073 1_655
K1 O55 2.847449 1_555
K1 O48 2.847767 1_655
K1 O5 2.960466 1_555
K1 O1 2.960473 1_655
K2 O16 2.724740 1_554
K2 O23 2.725414 1_465
K2 O51 2.847291 1_555
K2 O52 2.848201 1_464
K2 O6 2.960101 1_454
K2 O2 2.960559 1_565
K3 O21 2.725406 1_555
K3 O18 2.725741 1_655
K3 O54 2.847337 1_555
K3 O49 2.847553 1_655
K3 O3 2.960391 1_655
K3 O7 2.960474 1_555
Fe0 O16 2.008819 1_555
Fe0 O22 2.010611 1_455
Fe0 O30 2.011591 1_555
Fe0 O24 2.012455 1_455
Fe0 O0 2.047978 1_555
Fe0 O6 2.048825 1_455
Fe1 O17 2.009214 1_665
Fe1 O20 2.010426 1_555
Fe1 O25 2.010888 1_555
Fe1 O28 2.013237 1_655
Fe1 O4 2.048030 1_565
Fe1 O1 2.048899 1_655
Fe2 O18 2.008681 1_655
Fe2 O23 2.010698 1_555
Fe2 O26 2.011251 1_555
Fe2 O31 2.012457 1_655
Fe2 O7 2.047501 1_555
Fe2 O2 2.049105 1_655
Fe3 O21 2.009764 1_445
Fe3 O19 2.009881 1_555
Fe3 O27 2.011799 1_455
Fe3 O29 2.012500 1_555
Fe3 O3 2.047382 1_545
Fe3 O5 2.049304 1_455
H0 O40 1.028864 1_555
H0 O14 1.526223 1_556
H1 O41 1.029420 1_555
H1 O12 1.523518 1_555
H2 O42 1.029217 1_555
H2 O15 1.525143 1_555
H3 O43 1.029101 1_555
H3 O13 1.524814 1_555
H4 O44 1.029073 1_555
H4 O9 1.524993 1_555
H5 O45 1.029159 1_555
H5 O11 1.524766 1_555
H6 O46 1.029484 1_555
H6 O8 1.523730 1_555
H7 O47 1.029087 1_555
H7 O10 1.524720 1_554
H8 O48 1.025182 1_555
H8 O13 1.576719 1_555
H9 O49 1.025433 1_555
H9 O15 1.575846 1_555
H10 O50 1.025046 1_555
H10 O12 1.577165 1_555
H11 O51 1.025416 1_555
H11 O14 1.575729 1_555
H12 O52 1.025077 1_555
H12 O10 1.576689 1_555
H13 O53 1.025126 1_555
H13 O8 1.576693 1_555
H14 O54 1.025333 1_555
H14 O11 1.576584 1_555
H15 O55 1.025207 1_555
H15 O9 1.576273 1_555
O0 P0 1.521274 1_555
O1 P1 1.521450 1_555
O2 P2 1.521400 1_554
O3 P3 1.521646 1_565
O4 P4 1.521358 1_545
O5 P5 1.521352 1_555
O6 P6 1.521214 1_556
O7 P7 1.521515 1_555
O8 P0 1.513115 1_555
O9 P1 1.513112 1_555
O10 P2 1.513165 1_555
O11 P3 1.513085 1_565
O12 P4 1.513216 1_545
O13 P5 1.513190 1_555
O14 P6 1.513007 1_555
O15 P7 1.513093 1_555
O16 P8 1.529317 1_555
O17 P9 1.529331 1_555
O18 P10 1.529205 1_555
O19 P11 1.529491 1_555
O20 P12 1.529122 1_555
O21 P13 1.529201 1_555
O22 P14 1.529074 1_555
O23 P15 1.529417 1_555
O24 P12 1.511410 1_555
O25 P13 1.511600 1_555
O26 P14 1.511826 1_554
O27 P15 1.511283 1_555
O28 P8 1.511148 1_555
O29 P9 1.511614 1_555
O30 P10 1.511187 1_556
O31 P11 1.511383 1_555
O32 P8 1.611821 1_555
O32 P0 1.621629 1_555
O33 P9 1.611871 1_565
O33 P1 1.622034 1_555
O34 P10 1.611353 1_555
O34 P2 1.622178 1_554
O35 P11 1.611818 1_555
O35 P3 1.622000 1_555
O36 P12 1.611382 1_555
O36 P4 1.622212 1_555
O37 P13 1.611670 1_545
O37 P5 1.622320 1_555
O38 P14 1.612087 1_555
O38 P6 1.622094 1_556
O39 P15 1.612008 1_555
O39 P7 1.621526 1_555
O40 P8 1.559741 1_555
O41 P9 1.559675 1_555
O42 P10 1.559780 1_555
O43 P11 1.559748 1_555
O44 P12 1.559815 1_555
O45 P13 1.559628 1_555
O46 P14 1.559701 1_555
O47 P15 1.559749 1_555
O48 P0 1.575159 1_555
O49 P1 1.575254 1_555
O50 P2 1.575210 1_555
O51 P3 1.575032 1_565
O52 P4 1.575307 1_545
O53 P5 1.575258 1_555
O54 P6 1.575157 1_555
O55 P7 1.575075 1_555
