# generated using pymatgen
data_Li4Cr2Ni3Sn(PO4)6
_symmetry_space_group_name_H-M   'P 1'
_cell_length_a   8.41975200
_cell_length_b   8.69223835
_cell_length_c   8.70312840
_cell_angle_alpha   61.78745482
_cell_angle_beta   62.65487996
_cell_angle_gamma   62.55833479
_symmetry_Int_Tables_number   1
_chemical_formula_structural   Li4Cr2Ni3Sn(PO4)6
_chemical_formula_sum   'Li4 Cr2 Ni3 Sn1 P6 O24'
_cell_volume   473.78335044
_cell_formula_units_Z   1
loop_
 _symmetry_equiv_pos_site_id
 _symmetry_equiv_pos_as_xyz
  1  'x, y, z'
loop_
 _atom_site_type_symbol
 _atom_site_label
 _atom_site_symmetry_multiplicity
 _atom_site_fract_x
 _atom_site_fract_y
 _atom_site_fract_z
 _atom_site_occupancy
  Li  Li0  1  0.25401900  0.64911300  0.85023900  1
  Li  Li1  1  0.70744300  0.35975400  0.15525200  1
  Li  Li2  1  0.36589400  0.15032600  0.70641500  1
  Li  Li3  1  0.14450900  0.70274000  0.36343000  1
  Cr  Cr0  1  0.98971100  0.99733600  0.99864400  1
  Cr  Cr1  1  0.50778900  0.49998400  0.50057400  1
  Ni  Ni0  1  0.85484900  0.85524700  0.85207500  1
  Ni  Ni1  1  0.64649600  0.64757800  0.64424900  1
  Ni  Ni2  1  0.35352500  0.34827900  0.35170800  1
  Sn  Sn0  1  0.14897300  0.14801000  0.15337200  1
  P  P0  1  0.74985200  0.04479800  0.45791800  1
  P  P1  1  0.44512900  0.75072300  0.04162100  1
  P  P2  1  0.05679000  0.46081600  0.75277700  1
  P  P3  1  0.94294200  0.55370900  0.25417200  1
  P  P4  1  0.56197400  0.25268000  0.94962300  1
  P  P5  1  0.25398200  0.94607400  0.55817500  1
  O  O0  1  0.89522800  0.50195700  0.69339700  1
  O  O1  1  0.69559800  0.88955300  0.48232500  1
  O  O2  1  0.94505900  0.73195100  0.08704800  1
  O  O3  1  0.45340500  0.69700000  0.89386600  1
  O  O4  1  0.97836500  0.39248000  0.19367600  1
  O  O5  1  0.74879600  0.56870500  0.40322300  1
  O  O6  1  0.75173900  0.09855800  0.92674600  1
  O  O7  1  0.55219400  0.41660700  0.76934800  1
  O  O8  1  0.81720400  0.01380500  0.60633300  1
  O  O9  1  0.40361300  0.75297900  0.57659000  1
  O  O10  1  0.90332100  0.07927100  0.25417000  1
  O  O11  1  0.60194800  0.81858900  0.99453500  1
  O  O12  1  0.40110900  0.18121200  0.98838300  1
  O  O13  1  0.09992800  0.92183900  0.74738800  1
  O  O14  1  0.59291600  0.23992800  0.43196100  1
  O  O15  1  0.19182200  0.97827100  0.39752000  1
  O  O16  1  0.42864000  0.59532500  0.23530700  1
  O  O17  1  0.23949600  0.90781900  0.07599500  1
  O  O18  1  0.25450500  0.43304000  0.59602100  1
  O  O19  1  0.04155300  0.60341400  0.81724200  1
  O  O20  1  0.52708700  0.30959400  0.10771100  1
  O  O21  1  0.07807000  0.25957700  0.90665800  1
  O  O22  1  0.31437200  0.10383700  0.52344400  1
  O  O23  1  0.10015500  0.51452200  0.32386900  1
loop_
_geom_bond_atom_site_label_1
_geom_bond_atom_site_label_2
_geom_bond_distance
_geom_bond_site_symmetry_2
Li0 O13 2.080887 1_555
Li0 O9 2.081554 1_555
Li0 O3 2.124810 1_555
Li0 O19 2.162231 1_555
Li0 O7 2.434736 1_555
Li0 O2 2.506874 1_456
Li1 O20 2.006323 1_555
Li1 O14 2.057908 1_555
Li1 O10 2.240315 1_555
Li1 O16 2.367442 1_555
Li1 O4 2.604796 1_555
Li2 O22 2.071687 1_555
Li2 O18 2.076737 1_555
Li2 O21 2.318505 1_555
Li2 O14 2.320436 1_555
Li3 O23 2.036779 1_555
Li3 O16 2.076826 1_555
Li3 O17 2.309754 1_555
Li3 O18 2.384437 1_555
Cr0 O6 2.046163 1_565
Cr0 O17 2.186076 1_656
Cr0 O2 2.215878 1_556
Cr0 O13 2.237127 1_655
Cr0 O10 2.348589 1_566
Cr0 O21 2.383445 1_665
Cr1 O5 2.061940 1_555
Cr1 O18 2.153097 1_555
Cr1 O7 2.255575 1_555
Cr1 O9 2.260012 1_555
Cr1 O14 2.317275 1_555
Cr1 O16 2.357167 1_555
Ni0 O11 1.999835 1_555
Ni0 O8 2.001823 1_565
Ni0 O13 2.073224 1_655
Ni0 O19 2.091116 1_655
Ni0 O2 2.124156 1_556
Ni0 O6 2.176645 1_565
Ni1 O0 2.009693 1_555
Ni1 O1 2.011096 1_555
Ni1 O9 2.058531 1_555
Ni1 O7 2.110657 1_555
Ni1 O3 2.130992 1_555
Ni1 O5 2.183514 1_555
Ni2 O23 2.000090 1_555
Ni2 O22 2.011838 1_555
Ni2 O20 2.032071 1_555
Ni2 O14 2.087886 1_555
Ni2 O16 2.154957 1_555
Ni2 O18 2.246201 1_555
O0 P2 1.506038 1_655
O1 P0 1.510873 1_565
O2 P3 1.545082 1_555
O3 P1 1.527084 1_556
O4 P3 1.580609 1_555
O4 Sn0 2.032358 1_655
O5 P3 1.545071 1_555
O6 P4 1.540876 1_555
O7 P4 1.547755 1_555
O8 P0 1.505228 1_555
O9 P5 1.553133 1_555
O10 P0 1.628907 1_555
O10 Sn0 2.093104 1_655
O11 P1 1.500522 1_556
O12 P4 1.578559 1_555
O12 Sn0 2.006072 1_556
O13 P5 1.549237 1_555
O14 P0 1.587490 1_555
O15 P5 1.573059 1_555
O15 Sn0 2.017802 1_565
O16 P1 1.578083 1_555
O17 P1 1.638020 1_555
O17 Sn0 2.187335 1_565
O18 P2 1.595398 1_555
O19 P2 1.520657 1_555
O20 P4 1.536989 1_554
O21 P2 1.613101 1_555
O21 Sn0 2.140678 1_556
O22 P5 1.529695 1_545
O23 P3 1.537159 1_455
