# generated using pymatgen
data_Li2Mn2F7
_symmetry_space_group_name_H-M   'P 1'
_cell_length_a   5.51737278
_cell_length_b   5.51737278
_cell_length_c   10.69586076
_cell_angle_alpha   81.22409506
_cell_angle_beta   81.22409506
_cell_angle_gamma   104.88557302
_symmetry_Int_Tables_number   1
_chemical_formula_structural   Li2Mn2F7
_chemical_formula_sum   'Li4 Mn4 F14'
_cell_volume   304.65387342
_cell_formula_units_Z   2
loop_
 _symmetry_equiv_pos_site_id
 _symmetry_equiv_pos_as_xyz
  1  'x, y, z'
loop_
 _atom_site_type_symbol
 _atom_site_label
 _atom_site_symmetry_multiplicity
 _atom_site_fract_x
 _atom_site_fract_y
 _atom_site_fract_z
 _atom_site_occupancy
  Li  Li0  1  0.63407400  0.27218100  0.48985200  1
  Li  Li1  1  0.72781900  0.36592600  0.01014800  1
  Li  Li2  1  0.27218100  0.63407400  0.98985200  1
  Li  Li3  1  0.36592600  0.72781900  0.51014800  1
  Mn  Mn0  1  0.73623800  0.76292800  0.19052800  1
  Mn  Mn1  1  0.76292800  0.73623800  0.69052800  1
  Mn  Mn2  1  0.23707200  0.26376200  0.30947200  1
  Mn  Mn3  1  0.26376200  0.23707200  0.80947200  1
  F  F0  1  0.62401100  0.03946600  0.11173800  1
  F  F1  1  0.95696000  0.57864400  0.11047800  1
  F  F2  1  0.49432200  0.54667600  0.36979700  1
  F  F3  1  0.03946600  0.62401100  0.61173800  1
  F  F4  1  0.00946200  0.99053800  0.25000000  1
  F  F5  1  0.57864400  0.95696000  0.61047800  1
  F  F6  1  0.54667600  0.49432200  0.86979700  1
  F  F7  1  0.45332400  0.50567800  0.13020300  1
  F  F8  1  0.42135600  0.04304000  0.38952200  1
  F  F9  1  0.99053800  0.00946200  0.75000000  1
  F  F10  1  0.96053400  0.37598900  0.38826200  1
  F  F11  1  0.50567800  0.45332400  0.63020300  1
  F  F12  1  0.04304000  0.42135600  0.88952200  1
  F  F13  1  0.37598900  0.96053400  0.88826200  1
loop_
_geom_bond_atom_site_label_1
_geom_bond_atom_site_label_2
_geom_bond_distance
_geom_bond_site_symmetry_2
F0 Li1 1.853619 1_555
F0 Mn0 1.916721 1_545
F1 Li2 1.924720 1_654
F1 Mn0 1.957956 1_555
F1 Li1 2.040421 1_555
F2 Li3 2.061869 1_555
F2 Mn2 2.077471 1_555
F2 Mn0 2.141131 1_555
F2 Li0 2.201316 1_555
F3 Li3 1.853619 1_555
F3 Mn1 1.916721 1_455
F4 Mn0 1.953944 1_455
F4 Mn2 1.953944 1_565
F5 Li0 1.924720 1_565
F5 Mn1 1.957956 1_555
F5 Li3 2.040421 1_555
F6 Li1 2.061869 1_556
F6 Mn3 2.077471 1_555
F6 Mn1 2.141131 1_555
F6 Li2 2.201316 1_555
F7 Li2 2.061869 1_554
F7 Mn0 2.077471 1_555
F7 Mn2 2.141131 1_555
F7 Li1 2.201316 1_555
F8 Li3 1.924720 1_545
F8 Mn2 1.957956 1_555
F8 Li0 2.040421 1_555
F9 Mn3 1.953944 1_655
F9 Mn1 1.953944 1_545
F10 Li0 1.853619 1_555
F10 Mn2 1.916721 1_655
F11 Li0 2.061869 1_555
F11 Mn1 2.077471 1_555
F11 Mn3 2.141131 1_555
F11 Li3 2.201316 1_555
F12 Li1 1.924720 1_456
F12 Mn3 1.957956 1_555
F12 Li2 2.040421 1_555
F13 Li2 1.853619 1_555
F13 Mn3 1.916721 1_565
