# generated using pymatgen
data_NaTm(SO4)2
_symmetry_space_group_name_H-M   'P 1'
_cell_length_a   6.85033500
_cell_length_b   4.75945800
_cell_length_c   9.89676935
_cell_angle_alpha   82.78185229
_cell_angle_beta   90.00000000
_cell_angle_gamma   90.00000000
_symmetry_Int_Tables_number   1
_chemical_formula_structural   NaTm(SO4)2
_chemical_formula_sum   'Na2 Tm2 S4 O16'
_cell_volume   320.11589822
_cell_formula_units_Z   2
loop_
 _symmetry_equiv_pos_site_id
 _symmetry_equiv_pos_as_xyz
  1  'x, y, z'
loop_
 _atom_site_type_symbol
 _atom_site_label
 _atom_site_symmetry_multiplicity
 _atom_site_fract_x
 _atom_site_fract_y
 _atom_site_fract_z
 _atom_site_occupancy
  Na  Na0  1  0.75000000  0.11591300  0.63710000  1
  Na  Na1  1  0.25000000  0.88408700  0.36290000  1
  Tm  Tm0  1  0.25000000  0.85390200  0.82467900  1
  Tm  Tm1  1  0.75000000  0.14609800  0.17532100  1
  S  S0  1  0.75000000  0.64927700  0.92916800  1
  S  S1  1  0.25000000  0.35072300  0.07083200  1
  S  S2  1  0.25000000  0.33472000  0.60367200  1
  S  S3  1  0.75000000  0.66528000  0.39632800  1
  O  O0  1  0.25000000  0.33969600  0.45596400  1
  O  O1  1  0.75000000  0.66030400  0.54403600  1
  O  O2  1  0.25000000  0.63145800  0.63813000  1
  O  O3  1  0.75000000  0.36854200  0.36187000  1
  O  O4  1  0.07524600  0.23961000  0.14776200  1
  O  O5  1  0.57524600  0.76039000  0.85223800  1
  O  O6  1  0.92475400  0.76039000  0.85223800  1
  O  O7  1  0.42475400  0.23961000  0.14776200  1
  O  O8  1  0.75000000  0.33433400  0.94819700  1
  O  O9  1  0.25000000  0.66566600  0.05180300  1
  O  O10  1  0.75000000  0.73686000  0.06994700  1
  O  O11  1  0.25000000  0.26314000  0.93005300  1
  O  O12  1  0.57853100  0.82362800  0.32921700  1
  O  O13  1  0.07853100  0.17637200  0.67078300  1
  O  O14  1  0.42146900  0.17637200  0.67078300  1
  O  O15  1  0.92146900  0.82362800  0.32921700  1
loop_
_geom_bond_atom_site_label_1
_geom_bond_atom_site_label_2
_geom_bond_distance
_geom_bond_site_symmetry_2
Na0 O13 2.298476 1_655
Na0 O14 2.298476 1_555
Na0 O1 2.460158 1_545
Na0 O1 2.638546 1_555
Na0 O6 2.815015 1_545
Na0 O5 2.815015 1_545
Na0 O3 2.835886 1_555
Na1 O15 2.298476 1_455
Na1 O12 2.298476 1_555
Na1 O0 2.460158 1_565
Na1 O0 2.638546 1_555
Na1 O7 2.815015 1_565
Na1 O4 2.815015 1_565
Na1 O2 2.835886 1_555
O0 S2 1.459045 1_555
O1 S3 1.459045 1_555
O2 S2 1.493972 1_555
O2 Tm0 2.240678 1_555
O3 S3 1.493972 1_555
O3 Tm1 2.240678 1_555
O4 S1 1.480291 1_555
O4 Tm1 2.281699 1_455
O5 S0 1.480291 1_555
O5 Tm0 2.281699 1_555
O6 S0 1.480291 1_555
O6 Tm0 2.281699 1_655
O7 S1 1.480291 1_555
O7 Tm1 2.281699 1_555
O8 S0 1.487079 1_555
O8 Tm1 2.312825 1_556
O9 S1 1.487079 1_555
O9 Tm0 2.312825 1_554
O10 S0 1.503620 1_554
O10 Tm1 2.322011 1_565
O11 S1 1.503620 1_556
O11 Tm0 2.322011 1_545
O12 S3 1.504351 1_555
O12 Tm1 2.338294 1_565
O13 S2 1.504351 1_555
O13 Tm0 2.338294 1_545
O14 S2 1.504351 1_555
O14 Tm0 2.338294 1_545
O15 S3 1.504351 1_555
O15 Tm1 2.338294 1_565
