# generated using pymatgen
data_LiMn(PO4)2
_symmetry_space_group_name_H-M   'P 1'
_cell_length_a   4.70431200
_cell_length_b   5.05294854
_cell_length_c   13.57982436
_cell_angle_alpha   97.30998794
_cell_angle_beta   90.00000000
_cell_angle_gamma   62.25730567
_symmetry_Int_Tables_number   1
_chemical_formula_structural   LiMn(PO4)2
_chemical_formula_sum   'Li2 Mn2 P4 O16'
_cell_volume   282.72646302
_cell_formula_units_Z   2
loop_
 _symmetry_equiv_pos_site_id
 _symmetry_equiv_pos_as_xyz
  1  'x, y, z'
loop_
 _atom_site_type_symbol
 _atom_site_label
 _atom_site_symmetry_multiplicity
 _atom_site_fract_x
 _atom_site_fract_y
 _atom_site_fract_z
 _atom_site_occupancy
  Li  Li0  1  0.95589300  0.00000000  0.75000000  1
  Li  Li1  1  0.04410700  0.00000000  0.25000000  1
  Mn  Mn0  1  0.00000000  0.00000000  0.00000000  1
  Mn  Mn1  1  0.00000000  0.00000000  0.50000000  1
  P  P0  1  0.67682900  0.69445000  0.11129700  1
  P  P1  1  0.62872100  0.69445000  0.61129700  1
  P  P2  1  0.37127900  0.30555000  0.38870300  1
  P  P3  1  0.32317100  0.30555000  0.88870300  1
  O  O0  1  0.86882800  0.87924200  0.11733400  1
  O  O1  1  0.74624100  0.73024700  0.71521800  1
  O  O2  1  0.77173100  0.79010300  0.52984500  1
  O  O3  1  0.93762200  0.35737500  0.08507300  1
  O  O4  1  0.70500200  0.35737500  0.58507300  1
  O  O5  1  0.43816600  0.79010300  0.02984500  1
  O  O6  1  0.52351300  0.73024700  0.21521800  1
  O  O7  1  0.25193000  0.87924200  0.61733400  1
  O  O8  1  0.74807000  0.12075800  0.38266600  1
  O  O9  1  0.47648700  0.26975300  0.78478200  1
  O  O10  1  0.56183400  0.20989700  0.97015500  1
  O  O11  1  0.29499800  0.64262500  0.41492700  1
  O  O12  1  0.06237800  0.64262500  0.91492700  1
  O  O13  1  0.22826900  0.20989700  0.47015500  1
  O  O14  1  0.25375900  0.26975300  0.28478200  1
  O  O15  1  0.13117200  0.12075800  0.88266600  1
loop_
_geom_bond_atom_site_label_1
_geom_bond_atom_site_label_2
_geom_bond_distance
_geom_bond_site_symmetry_2
Li0 O1 2.035059 1_545
Li0 O9 2.035063 1_555
Li0 O7 2.118162 1_645
Li0 O15 2.118162 1_655
Li1 O14 2.035059 1_555
Li1 O6 2.035063 1_545
Li1 O0 2.118162 1_445
Li1 O8 2.118162 1_455
Mn0 O5 1.900528 1_545
Mn0 O10 1.900528 1_454
Mn0 O12 1.912447 1_544
Mn0 O3 1.912447 1_455
Mn0 O0 1.972286 1_445
Mn0 O15 1.972286 1_554
Mn1 O2 1.900528 1_445
Mn1 O13 1.900528 1_555
Mn1 O4 1.912448 1_455
Mn1 O11 1.912448 1_545
Mn1 O8 1.972286 1_455
Mn1 O7 1.972286 1_545
O0 P0 1.568477 1_555
O1 P1 1.535601 1_555
O2 P1 1.532469 1_555
O3 P0 1.559864 1_555
O4 P1 1.559865 1_555
O5 P0 1.532469 1_555
O6 P0 1.535599 1_555
O7 P1 1.568477 1_555
O8 P2 1.568477 1_555
O9 P3 1.535599 1_555
O10 P3 1.532469 1_555
O11 P2 1.559865 1_555
O12 P3 1.559864 1_555
O13 P2 1.532469 1_555
O14 P2 1.535601 1_555
O15 P3 1.568477 1_555
