# generated using pymatgen
data_Li2Mn3F8
_symmetry_space_group_name_H-M   'P 1'
_cell_length_a   8.73611800
_cell_length_b   5.82733400
_cell_length_c   9.43523518
_cell_angle_alpha   59.69238112
_cell_angle_beta   90.00000000
_cell_angle_gamma   90.00000000
_symmetry_Int_Tables_number   1
_chemical_formula_structural   Li2Mn3F8
_chemical_formula_sum   'Li4 Mn6 F16'
_cell_volume   414.68391198
_cell_formula_units_Z   2
loop_
 _symmetry_equiv_pos_site_id
 _symmetry_equiv_pos_as_xyz
  1  'x, y, z'
loop_
 _atom_site_type_symbol
 _atom_site_label
 _atom_site_symmetry_multiplicity
 _atom_site_fract_x
 _atom_site_fract_y
 _atom_site_fract_z
 _atom_site_occupancy
  Li  Li0  1  0.30310400  0.86930800  0.19098200  1
  Li  Li1  1  0.80310400  0.13069200  0.30901800  1
  Li  Li2  1  0.19689600  0.86930800  0.69098200  1
  Li  Li3  1  0.69689600  0.13069200  0.80901800  1
  Mn  Mn0  1  0.00000000  0.50000000  0.50000000  1
  Mn  Mn1  1  0.35353200  0.50700300  0.60447500  1
  Mn  Mn2  1  0.85353200  0.49299700  0.89552500  1
  Mn  Mn3  1  0.50000000  0.50000000  0.00000000  1
  Mn  Mn4  1  0.14646800  0.50700300  0.10447500  1
  Mn  Mn5  1  0.64646800  0.49299700  0.39552500  1
  F  F0  1  0.88341500  0.35643500  0.73361900  1
  F  F1  1  0.44488100  0.70786000  0.36387000  1
  F  F2  1  0.65374700  0.24826700  0.96247400  1
  F  F3  1  0.80497800  0.76459200  0.38884000  1
  F  F4  1  0.15374700  0.75173300  0.53752600  1
  F  F5  1  0.38341500  0.64356500  0.76638100  1
  F  F6  1  0.30497800  0.23540800  0.11116000  1
  F  F7  1  0.94488100  0.29214000  0.13613000  1
  F  F8  1  0.05511900  0.70786000  0.86387000  1
  F  F9  1  0.69502200  0.76459200  0.88884000  1
  F  F10  1  0.61658500  0.35643500  0.23361900  1
  F  F11  1  0.84625300  0.24826700  0.46247400  1
  F  F12  1  0.19502200  0.23540800  0.61116000  1
  F  F13  1  0.34625300  0.75173300  0.03752600  1
  F  F14  1  0.55511900  0.29214000  0.63613000  1
  F  F15  1  0.11658500  0.64356500  0.26638100  1
loop_
_geom_bond_atom_site_label_1
_geom_bond_atom_site_label_2
_geom_bond_distance
_geom_bond_site_symmetry_2
F0 Li3 1.986749 1_555
F0 Mn2 2.064466 1_555
F0 Mn0 2.175951 1_655
F1 Li0 1.879152 1_555
F1 Mn5 2.093061 1_555
F1 Mn1 2.116289 1_555
F2 Li3 1.925916 1_555
F2 Mn2 2.137723 1_555
F2 Mn3 2.146049 1_556
F3 Li1 1.870072 1_565
F3 Mn5 2.079820 1_555
F3 Mn0 2.178975 1_655
F4 Li2 1.925916 1_555
F4 Mn1 2.137723 1_555
F4 Mn0 2.146049 1_555
F5 Li2 1.986749 1_555
F5 Mn1 2.064466 1_555
F5 Mn3 2.175951 1_556
F6 Li0 1.870072 1_545
F6 Mn4 2.079820 1_555
F6 Mn3 2.178975 1_555
F7 Li1 1.879152 1_555
F7 Mn4 2.093061 1_655
F7 Mn2 2.116289 1_554
F8 Li2 1.879152 1_555
F8 Mn2 2.093061 1_455
F8 Mn4 2.116289 1_556
F9 Li3 1.870072 1_565
F9 Mn2 2.079820 1_555
F9 Mn3 2.178975 1_556
F10 Li1 1.986749 1_555
F10 Mn5 2.064466 1_555
F10 Mn3 2.175951 1_555
F11 Li1 1.925916 1_555
F11 Mn5 2.137723 1_555
F11 Mn0 2.146049 1_655
F12 Li2 1.870072 1_545
F12 Mn1 2.079820 1_555
F12 Mn0 2.178975 1_555
F13 Li0 1.925916 1_555
F13 Mn4 2.137723 1_555
F13 Mn3 2.146049 1_555
F14 Li3 1.879152 1_555
F14 Mn1 2.093061 1_555
F14 Mn5 2.116289 1_555
F15 Li0 1.986749 1_555
F15 Mn4 2.064466 1_555
F15 Mn0 2.175951 1_555
