# generated using pymatgen
data_Li4Cr3Ni3(WO8)2
_symmetry_space_group_name_H-M   'P 1'
_cell_length_a   5.93128248
_cell_length_b   5.93128248
_cell_length_c   9.65264235
_cell_angle_alpha   89.61933478
_cell_angle_beta   89.61933478
_cell_angle_gamma   60.44948879
_symmetry_Int_Tables_number   1
_chemical_formula_structural   Li4Cr3Ni3(WO8)2
_chemical_formula_sum   'Li4 Cr3 Ni3 W2 O16'
_cell_volume   295.40002546
_cell_formula_units_Z   1
loop_
 _symmetry_equiv_pos_site_id
 _symmetry_equiv_pos_as_xyz
  1  'x, y, z'
loop_
 _atom_site_type_symbol
 _atom_site_label
 _atom_site_symmetry_multiplicity
 _atom_site_fract_x
 _atom_site_fract_y
 _atom_site_fract_z
 _atom_site_occupancy
  Li  Li0  1  0.33512800  0.33512800  0.90698000  1
  Li  Li1  1  0.00055800  0.00055800  0.98685700  1
  Li  Li2  1  0.99945200  0.99945200  0.49187700  1
  Li  Li3  1  0.66877500  0.66877500  0.40555000  1
  Cr  Cr0  1  0.16708700  0.65880300  0.21481900  1
  Cr  Cr1  1  0.65880300  0.16708700  0.21481900  1
  Cr  Cr2  1  0.82488200  0.82488200  0.72237700  1
  Ni  Ni0  1  0.16972900  0.16972900  0.21482300  1
  Ni  Ni1  1  0.33933300  0.82885000  0.71134000  1
  Ni  Ni2  1  0.82885000  0.33933300  0.71134000  1
  W  W0  1  0.33039200  0.33039200  0.48723100  1
  W  W1  1  0.66097700  0.66097700  0.98930900  1
  O  O0  1  0.16615800  0.65243100  0.59029200  1
  O  O1  1  0.48096000  0.48096000  0.34341200  1
  O  O2  1  0.33632200  0.33632200  0.10764500  1
  O  O3  1  0.99698100  0.99698100  0.30589300  1
  O  O4  1  0.99034900  0.99034900  0.79624800  1
  O  O5  1  0.65243100  0.16615800  0.59029200  1
  O  O6  1  0.03946700  0.48746800  0.34990200  1
  O  O7  1  0.48746800  0.03946700  0.34990200  1
  O  O8  1  0.82781300  0.82781300  0.09360700  1
  O  O9  1  0.17048500  0.17048500  0.58495400  1
  O  O10  1  0.53552400  0.96177100  0.84909700  1
  O  O11  1  0.96177100  0.53552400  0.84909700  1
  O  O12  1  0.67967300  0.67967300  0.61096900  1
  O  O13  1  0.34191100  0.82562800  0.08773500  1
  O  O14  1  0.52244300  0.52244300  0.85382200  1
  O  O15  1  0.82562800  0.34191100  0.08773500  1
loop_
_geom_bond_atom_site_label_1
_geom_bond_atom_site_label_2
_geom_bond_distance
_geom_bond_site_symmetry_2
Li0 O2 1.937080 1_556
Li0 O14 1.983535 1_555
Li0 O10 2.010029 1_545
Li0 O11 2.010029 1_455
Li1 O4 1.843657 1_445
Li1 O15 2.016091 1_456
Li1 O13 2.016091 1_546
Li1 O8 2.041769 1_446
Li2 O3 1.795610 1_555
Li2 O9 1.976030 1_665
Li2 O5 2.023775 1_565
Li2 O0 2.023775 1_655
Li3 O6 1.984674 1_655
Li3 O7 1.984674 1_565
Li3 O12 1.986837 1_555
Li3 O1 2.020765 1_555
Cr0 O3 1.956931 1_455
Cr0 O2 1.963414 1_555
Cr0 O6 2.008464 1_555
Cr0 O1 2.048297 1_555
Cr0 O8 2.109319 1_455
Cr0 O13 2.130286 1_555
Cr1 O3 1.956931 1_545
Cr1 O2 1.963414 1_555
Cr1 O7 2.008464 1_555
Cr1 O1 2.048297 1_555
Cr1 O8 2.109319 1_545
Cr1 O15 2.130286 1_555
Cr2 O12 1.842917 1_555
Cr2 O4 1.844870 1_555
Cr2 O10 1.926593 1_555
Cr2 O11 1.926593 1_555
Cr2 O0 2.170241 1_655
Cr2 O5 2.170241 1_565
Ni0 O3 1.970798 1_445
Ni0 O2 1.989703 1_555
Ni0 O6 2.105172 1_555
Ni0 O7 2.105172 1_555
Ni0 O15 2.161950 1_455
Ni0 O13 2.161950 1_545
Ni1 O4 1.976357 1_455
Ni1 O12 2.005022 1_555
Ni1 O14 2.100876 1_555
Ni1 O9 2.139855 1_565
Ni1 O0 2.146523 1_555
Ni1 O10 2.164082 1_555
Ni2 O4 1.976357 1_545
Ni2 O12 2.005022 1_555
Ni2 O14 2.100876 1_555
Ni2 O9 2.139855 1_655
Ni2 O5 2.146523 1_555
Ni2 O11 2.164082 1_555
O0 W0 1.940128 1_555
O1 W0 2.067863 1_555
O5 W0 1.940128 1_555
O6 W0 2.007727 1_555
O7 W0 2.007727 1_555
O8 W1 1.991061 1_554
O9 W0 1.884795 1_555
O10 W1 2.059186 1_555
O11 W1 2.059186 1_555
O13 W1 1.898222 1_554
O14 W1 1.937839 1_555
O15 W1 1.898222 1_554
