# generated using pymatgen
data_CrH14N4Cl3O
_symmetry_space_group_name_H-M   'P 1'
_cell_length_a   6.53312636
_cell_length_b   10.58027250
_cell_length_c   6.58913239
_cell_angle_alpha   90.00000000
_cell_angle_beta   94.26001235
_cell_angle_gamma   90.00000000
_symmetry_Int_Tables_number   1
_chemical_formula_structural   CrH14N4Cl3O
_chemical_formula_sum   'Cr2 H28 N8 Cl6 O2'
_cell_volume   454.19737926
_cell_formula_units_Z   2
loop_
 _symmetry_equiv_pos_site_id
 _symmetry_equiv_pos_as_xyz
  1  'x, y, z'
loop_
 _atom_site_type_symbol
 _atom_site_label
 _atom_site_symmetry_multiplicity
 _atom_site_fract_x
 _atom_site_fract_y
 _atom_site_fract_z
 _atom_site_occupancy
  Cr  Cr0  1  0.17092915  0.25000000  0.22604038  1
  Cr  Cr1  1  0.82910527  0.75000000  0.77392802  1
  H  H0  1  0.21826340  0.02090751  0.08665082  1
  H  H1  1  0.78181384  0.52090558  0.91331530  1
  H  H2  1  0.78181384  0.97909442  0.91331530  1
  H  H3  1  0.21826340  0.47909249  0.08665082  1
  H  H4  1  0.03439269  0.01623683  0.24286943  1
  H  H5  1  0.96573833  0.51623818  0.75708981  1
  H  H6  1  0.96573833  0.98376182  0.75708981  1
  H  H7  1  0.03439269  0.48376317  0.24286943  1
  H  H8  1  0.27772797  0.01619020  0.33248912  1
  H  H9  1  0.72240634  0.51619252  0.66744362  1
  H  H10  1  0.72240634  0.98380748  0.66744362  1
  H  H11  1  0.27772797  0.48380980  0.33248912  1
  H  H12  1  0.83925406  0.32759409  0.39240694  1
  H  H13  1  0.16059298  0.82761465  0.60764646  1
  H  H14  1  0.16059298  0.67238535  0.60764646  1
  H  H15  1  0.83925406  0.17240591  0.39240694  1
  H  H16  1  0.97584353  0.25000000  0.57206165  1
  H  H17  1  0.02401923  0.75000000  0.42800170  1
  H  H18  1  0.41072648  0.32769631  0.95058232  1
  H  H19  1  0.58910834  0.82768197  0.04943104  1
  H  H20  1  0.58910834  0.67231803  0.04943104  1
  H  H21  1  0.41072648  0.17230369  0.95058232  1
  H  H22  1  0.55340722  0.25000000  0.12451687  1
  H  H23  1  0.44653266  0.75000000  0.87546229  1
  H  H24  1  0.36613202  0.32608491  0.56070338  1
  H  H25  1  0.63383773  0.82608265  0.43932313  1
  H  H26  1  0.63383773  0.67391735  0.43932313  1
  H  H27  1  0.36613202  0.17391509  0.56070338  1
  N  N0  1  0.17621787  0.05373934  0.22344342  1
  N  N1  1  0.82392430  0.55373026  0.77652143  1
  N  N2  1  0.82392430  0.94626974  0.77652143  1
  N  N3  1  0.17621787  0.44626066  0.22344342  1
  N  N4  1  0.93126244  0.25000000  0.41995945  1
  N  N5  1  0.06863822  0.75000000  0.58008800  1
  N  N6  1  0.41460819  0.25000000  0.04353352  1
  N  N7  1  0.58529193  0.75000000  0.95650492  1
  Cl  Cl0  1  0.93432558  0.25000000  0.94823643  1
  Cl  Cl1  1  0.06566579  0.75000000  0.05176354  1
  Cl  Cl2  1  0.67834899  0.98642837  0.27899874  1
  Cl  Cl3  1  0.32172411  0.48643838  0.72102379  1
  Cl  Cl4  1  0.32172411  0.01356162  0.72102379  1
  Cl  Cl5  1  0.67834899  0.51357163  0.27899874  1
  O  O0  1  0.37416329  0.25000000  0.47289071  1
  O  O1  1  0.62578859  0.75000000  0.52713500  1
loop_
_geom_bond_atom_site_label_1
_geom_bond_atom_site_label_2
_geom_bond_distance
_geom_bond_site_symmetry_2
Cr0 O0 2.021802 1_555
Cr0 N6 2.065187 1_555
Cr0 N0 2.076870 1_555
Cr0 N3 2.076870 1_555
Cr0 N4 2.093214 1_455
Cr1 O1 2.021839 1_555
Cr1 N7 2.066196 1_555
Cr1 N1 2.076954 1_555
Cr1 N2 2.076954 1_555
Cr1 N5 2.092173 1_655
H0 N0 1.022411 1_555
H1 N1 1.022535 1_555
H2 N2 1.022535 1_555
H3 N3 1.022411 1_555
H4 N0 1.024676 1_555
H5 N1 1.024574 1_555
H6 N2 1.024574 1_555
H7 N3 1.024676 1_555
H8 N0 1.021328 1_555
H9 N1 1.021450 1_555
H10 N2 1.021450 1_555
H11 N3 1.021328 1_555
H12 N4 1.025698 1_555
H13 N5 1.025677 1_555
H14 N5 1.025677 1_555
H15 N4 1.025698 1_555
H16 N4 1.022698 1_555
H17 N5 1.022650 1_555
H18 N6 1.024312 1_556
H19 N7 1.024100 1_554
H20 N7 1.024100 1_554
H21 N6 1.024312 1_556
H22 N6 1.017410 1_555
H23 N7 1.017368 1_555
H24 O0 0.995025 1_555
H25 O1 0.995014 1_555
H26 O1 0.995014 1_555
H27 O0 0.995025 1_555
Cl0 Cr0 2.306446 1_656
Cl1 Cr1 2.306429 1_454
Cl2 H25 2.030837 1_555
Cl3 H24 2.030769 1_555
Cl4 H27 2.030769 1_555
Cl5 H26 2.030837 1_555
