# generated using pymatgen
data_VH4NO3
_symmetry_space_group_name_H-M   'P 1'
_cell_length_a   4.95935000
_cell_length_b   5.85986300
_cell_length_c   12.00363700
_cell_angle_alpha   90.00000000
_cell_angle_beta   90.00000000
_cell_angle_gamma   90.00000000
_symmetry_Int_Tables_number   1
_chemical_formula_structural   VH4NO3
_chemical_formula_sum   'V4 H16 N4 O12'
_cell_volume   348.83903409
_cell_formula_units_Z   4
loop_
 _symmetry_equiv_pos_site_id
 _symmetry_equiv_pos_as_xyz
  1  'x, y, z'
loop_
 _atom_site_type_symbol
 _atom_site_label
 _atom_site_symmetry_multiplicity
 _atom_site_fract_x
 _atom_site_fract_y
 _atom_site_fract_z
 _atom_site_occupancy
  V  V0  1  0.46421000  0.75000000  0.32687600  1
  V  V1  1  0.53579000  0.25000000  0.67312400  1
  V  V2  1  0.46421000  0.25000000  0.17312400  1
  V  V3  1  0.53579000  0.75000000  0.82687600  1
  H  H0  1  0.75671800  0.75000000  0.04386900  1
  H  H1  1  0.24328200  0.25000000  0.95613100  1
  H  H2  1  0.75671800  0.25000000  0.45613100  1
  H  H3  1  0.24328200  0.75000000  0.54386900  1
  H  H4  1  0.10354400  0.75000000  0.03029800  1
  H  H5  1  0.89645600  0.25000000  0.96970200  1
  H  H6  1  0.10354400  0.25000000  0.46970200  1
  H  H7  1  0.89645600  0.75000000  0.53029800  1
  H  H8  1  0.95100800  0.89260100  0.13629400  1
  H  H9  1  0.04899200  0.39260100  0.86370600  1
  H  H10  1  0.95100800  0.10739900  0.36370600  1
  H  H11  1  0.04899200  0.60739900  0.63629400  1
  H  H12  1  0.04899200  0.10739900  0.86370600  1
  H  H13  1  0.95100800  0.60739900  0.13629400  1
  H  H14  1  0.04899200  0.89260100  0.63629400  1
  H  H15  1  0.95100800  0.39260100  0.36370600  1
  N  N0  1  0.94097600  0.75000000  0.08609900  1
  N  N1  1  0.05902400  0.25000000  0.91390100  1
  N  N2  1  0.94097600  0.25000000  0.41390100  1
  N  N3  1  0.05902400  0.75000000  0.58609900  1
  O  O0  1  0.12790100  0.75000000  0.33070900  1
  O  O1  1  0.87209900  0.25000000  0.66929100  1
  O  O2  1  0.12790100  0.25000000  0.16929100  1
  O  O3  1  0.87209900  0.75000000  0.83070900  1
  O  O4  1  0.57813000  0.75000000  0.45931300  1
  O  O5  1  0.42187000  0.25000000  0.54068700  1
  O  O6  1  0.57813000  0.25000000  0.04068700  1
  O  O7  1  0.42187000  0.75000000  0.95931300  1
  O  O8  1  0.58119400  0.50000000  0.25000000  1
  O  O9  1  0.41880600  0.00000000  0.75000000  1
  O  O10  1  0.41880600  0.50000000  0.75000000  1
  O  O11  1  0.58119400  0.00000000  0.25000000  1
loop_
_geom_bond_atom_site_label_1
_geom_bond_atom_site_label_2
_geom_bond_distance
_geom_bond_site_symmetry_2
H0 N0 1.044984 1_555
H1 N1 1.044984 1_555
H2 N2 1.044984 1_555
H3 N3 1.044984 1_555
H4 N0 1.048171 1_455
H5 N1 1.048171 1_655
H6 N2 1.048171 1_455
H7 N3 1.048171 1_655
H8 N0 1.031394 1_555
H9 N1 1.031394 1_555
H10 N2 1.031394 1_555
H11 N3 1.031394 1_555
H12 N1 1.031394 1_555
H13 N0 1.031394 1_555
H14 N3 1.031394 1_555
H15 N2 1.031394 1_555
O0 V0 1.668509 1_555
O1 V1 1.668509 1_555
O2 V2 1.668509 1_555
O3 V3 1.668509 1_555
O4 V0 1.687133 1_555
O5 V1 1.687133 1_555
O6 V2 1.687133 1_555
O7 V3 1.687133 1_555
O8 V2 1.825996 1_555
O8 V0 1.825996 1_555
O9 V3 1.825996 1_545
O9 V1 1.825996 1_555
O10 V3 1.825996 1_555
O10 V1 1.825996 1_555
O11 V0 1.825996 1_545
O11 V2 1.825996 1_555
