# generated using pymatgen
data_Li3SiBiCO7
_symmetry_space_group_name_H-M   'P 1'
_cell_length_a   7.14501000
_cell_length_b   4.97442200
_cell_length_c   9.07079207
_cell_angle_alpha   87.88778485
_cell_angle_beta   90.00000000
_cell_angle_gamma   90.00000000
_symmetry_Int_Tables_number   1
_chemical_formula_structural   Li3SiBiCO7
_chemical_formula_sum   'Li6 Si2 Bi2 C2 O14'
_cell_volume   322.17771739
_cell_formula_units_Z   2
loop_
 _symmetry_equiv_pos_site_id
 _symmetry_equiv_pos_as_xyz
  1  'x, y, z'
loop_
 _atom_site_type_symbol
 _atom_site_label
 _atom_site_symmetry_multiplicity
 _atom_site_fract_x
 _atom_site_fract_y
 _atom_site_fract_z
 _atom_site_occupancy
  Li  Li0  1  0.75000000  0.24842300  0.92129500  1
  Li  Li1  1  0.92996900  0.77896400  0.73686600  1
  Li  Li2  1  0.57003100  0.77896400  0.73686600  1
  Li  Li3  1  0.42996900  0.22103600  0.26313400  1
  Li  Li4  1  0.07003100  0.22103600  0.26313400  1
  Li  Li5  1  0.25000000  0.75157700  0.07870500  1
  Si  Si0  1  0.75000000  0.28431900  0.60413900  1
  Si  Si1  1  0.25000000  0.71568100  0.39586100  1
  Bi  Bi0  1  0.25000000  0.23094200  0.64948600  1
  Bi  Bi1  1  0.75000000  0.76905800  0.35051400  1
  C  C0  1  0.25000000  0.28625900  0.96842500  1
  C  C1  1  0.75000000  0.71374100  0.03157500  1
  O  O0  1  0.75000000  0.67038400  0.89040000  1
  O  O1  1  0.25000000  0.04381100  0.92106300  1
  O  O2  1  0.25000000  0.49376000  0.87828800  1
  O  O3  1  0.93024500  0.16819300  0.70071500  1
  O  O4  1  0.56975500  0.16819300  0.70071500  1
  O  O5  1  0.75000000  0.61850400  0.59879000  1
  O  O6  1  0.25000000  0.79337900  0.57270900  1
  O  O7  1  0.75000000  0.20662100  0.42729100  1
  O  O8  1  0.25000000  0.38149600  0.40121000  1
  O  O9  1  0.43024500  0.83180700  0.29928500  1
  O  O10  1  0.06975500  0.83180700  0.29928500  1
  O  O11  1  0.75000000  0.50624000  0.12171200  1
  O  O12  1  0.75000000  0.95618900  0.07893700  1
  O  O13  1  0.25000000  0.32961600  0.10960000  1
loop_
_geom_bond_atom_site_label_1
_geom_bond_atom_site_label_2
_geom_bond_distance
_geom_bond_site_symmetry_2
Li0 O12 2.001181 1_546
Li0 O0 2.107374 1_555
Li0 O11 2.263085 1_556
Li0 O4 2.424881 1_555
Li0 O3 2.424881 1_555
Li1 O3 1.951810 1_565
Li1 O0 1.956864 1_555
Li1 O5 1.983166 1_555
Li2 O4 1.951810 1_565
Li2 O0 1.956864 1_555
Li2 O5 1.983166 1_555
Li3 O9 1.951810 1_545
Li3 O13 1.956864 1_555
Li3 O8 1.983166 1_555
Li4 O10 1.951810 1_545
Li4 O13 1.956864 1_555
Li4 O8 1.983166 1_555
Li5 O1 2.001181 1_564
Li5 O13 2.107374 1_555
Li5 O2 2.263085 1_554
Li5 O9 2.424881 1_555
Li5 O10 2.424881 1_555
Bi0 O6 2.309641 1_545
Bi0 O8 2.346983 1_555
Bi0 O4 2.349960 1_555
Bi0 O3 2.349960 1_455
Bi0 O2 2.493305 1_555
Bi0 O1 2.601137 1_555
Bi1 O7 2.309641 1_565
Bi1 O5 2.346983 1_555
Bi1 O9 2.349960 1_555
Bi1 O10 2.349960 1_655
Bi1 O11 2.493305 1_555
Bi1 O12 2.601137 1_555
C0 O2 1.292948 1_555
C0 O1 1.295101 1_555
C0 O13 1.306420 1_556
C1 O11 1.292948 1_555
C1 O12 1.295101 1_555
C1 O0 1.306420 1_554
O3 Si0 1.649959 1_555
O4 Si0 1.649959 1_555
O5 Si0 1.661297 1_555
O6 Si1 1.663848 1_555
O7 Si0 1.663848 1_555
O8 Si1 1.661297 1_555
O9 Si1 1.649959 1_555
O10 Si1 1.649959 1_555
