# generated using pymatgen
data_Li2MnVP2(O4F)2
_symmetry_space_group_name_H-M   'P 1'
_cell_length_a   7.61092554
_cell_length_b   6.96533136
_cell_length_c   7.83853177
_cell_angle_alpha   90.25585233
_cell_angle_beta   118.26256484
_cell_angle_gamma   91.41080421
_symmetry_Int_Tables_number   1
_chemical_formula_structural   Li2MnVP2(O4F)2
_chemical_formula_sum   'Li4 Mn2 V2 P4 O16 F4'
_cell_volume   365.83086151
_cell_formula_units_Z   2
loop_
 _symmetry_equiv_pos_site_id
 _symmetry_equiv_pos_as_xyz
  1  'x, y, z'
loop_
 _atom_site_type_symbol
 _atom_site_label
 _atom_site_symmetry_multiplicity
 _atom_site_fract_x
 _atom_site_fract_y
 _atom_site_fract_z
 _atom_site_occupancy
  Li  Li0  1  0.07773300  0.65113300  0.26617700  1
  Li  Li1  1  0.58099500  0.15115200  0.76880000  1
  Li  Li2  1  0.42030100  0.84699100  0.23325400  1
  Li  Li3  1  0.92025600  0.35055700  0.73008800  1
  Mn  Mn0  1  0.50001800  0.49940700  0.49971500  1
  Mn  Mn1  1  0.24933600  0.74944500  0.74877800  1
  V  V0  1  0.00030200  0.00185600  0.00166200  1
  V  V1  1  0.75114200  0.24878400  0.25031700  1
  P  P0  1  0.22295200  0.10037700  0.45990100  1
  P  P1  1  0.28057200  0.40290400  0.04185300  1
  P  P2  1  0.71769700  0.60067400  0.95506100  1
  P  P3  1  0.77978300  0.89616100  0.54426400  1
  O  O0  1  0.10402800  0.26900200  0.01787800  1
  O  O1  1  0.03949400  0.21235000  0.42629800  1
  O  O2  1  0.46257900  0.28837600  0.07424600  1
  O  O3  1  0.68929000  0.00070600  0.34804300  1
  O  O4  1  0.40014700  0.23532700  0.48421100  1
  O  O5  1  0.33048600  0.54838000  0.21345500  1
  O  O6  1  0.82571400  0.04427600  0.71331100  1
  O  O7  1  0.80910900  0.49516800  0.15056400  1
  O  O8  1  0.18741900  0.50972900  0.84588100  1
  O  O9  1  0.17434500  0.95458400  0.28903800  1
  O  O10  1  0.67110100  0.45387600  0.78454000  1
  O  O11  1  0.60285100  0.76061600  0.51946500  1
  O  O12  1  0.31410800  0.99275300  0.65522700  1
  O  O13  1  0.53363700  0.71272500  0.92093700  1
  O  O14  1  0.96445200  0.78623000  0.57828100  1
  O  O15  1  0.89265600  0.73736400  0.98070800  1
  F  F0  1  0.76795900  0.10339800  0.03056700  1
  F  F1  1  0.25560000  0.59852600  0.52026100  1
  F  F2  1  0.74221400  0.39342200  0.46996100  1
  F  F3  1  0.23172100  0.90375400  0.97725400  1
loop_
_geom_bond_atom_site_label_1
_geom_bond_atom_site_label_2
_geom_bond_distance
_geom_bond_site_symmetry_2
Li0 O7 2.075696 1_455
Li0 O15 2.102545 1_454
Li0 O9 2.198989 1_555
Li0 O5 2.280705 1_555
Li1 O12 2.074649 1_545
Li1 O4 2.087628 1_555
Li1 O10 2.185853 1_555
Li1 O6 2.246104 1_555
Li2 O3 2.070307 1_565
Li2 O11 2.103998 1_555
Li2 O5 2.155014 1_555
Li2 O9 2.257957 1_555
Li3 O8 2.078402 1_655
Li3 O0 2.104841 1_656
Li3 O6 2.217773 1_555
Li3 O10 2.264287 1_555
Mn0 O11 1.938912 1_555
Mn0 O4 1.953874 1_555
Mn0 O10 2.013496 1_555
Mn0 O5 2.025528 1_555
Mn1 O13 1.957941 1_555
Mn1 O14 1.959377 1_455
Mn1 O8 1.975249 1_555
Mn1 O12 1.991267 1_555
O0 P1 1.551842 1_555
O0 V0 1.983013 1_555
O1 P0 1.527888 1_555
O1 V1 1.986757 1_455
O2 P1 1.530639 1_555
O2 V1 1.991721 1_555
O3 P3 1.549776 1_545
O3 V1 2.026690 1_555
O4 P0 1.559242 1_555
O5 P1 1.570138 1_555
O6 P3 1.572812 1_545
O6 V0 2.035364 1_656
O7 P2 1.548566 1_554
O7 V1 2.013104 1_555
O8 P1 1.555889 1_556
O9 P0 1.569072 1_565
O9 V0 2.034599 1_565
O10 P2 1.574448 1_555
O11 P3 1.558966 1_555
O12 P0 1.554787 1_565
O13 P2 1.530999 1_555
O14 P3 1.527332 1_555
O15 P2 1.549967 1_555
O15 V0 1.971730 1_666
F0 Li1 1.899993 1_554
F0 V0 2.029336 1_655
F0 V1 2.051469 1_555
F1 Li0 1.846923 1_555
F1 Mn0 2.075831 1_555
F1 Mn1 2.093407 1_555
F2 Li3 1.868596 1_555
F2 V1 2.020508 1_555
F2 Mn0 2.114205 1_555
F3 Li2 1.884281 1_556
F3 V0 1.995737 1_566
F3 Mn1 2.144264 1_555
