# generated using pymatgen
data_Lu(HO)3
_symmetry_space_group_name_H-M   'P 1'
_cell_length_a   6.07258200
_cell_length_b   10.41873200
_cell_length_c   14.43294113
_cell_angle_alpha   46.94603375
_cell_angle_beta   90.00000000
_cell_angle_gamma   90.00000000
_symmetry_Int_Tables_number   1
_chemical_formula_structural   Lu(HO)3
_chemical_formula_sum   'Lu8 H24 O24'
_cell_volume   667.25025206
_cell_formula_units_Z   8
loop_
 _symmetry_equiv_pos_site_id
 _symmetry_equiv_pos_as_xyz
  1  'x, y, z'
loop_
 _atom_site_type_symbol
 _atom_site_label
 _atom_site_symmetry_multiplicity
 _atom_site_fract_x
 _atom_site_fract_y
 _atom_site_fract_z
 _atom_site_occupancy
  Lu  Lu0  1  0.53409300  0.16973200  0.99799700  1
  Lu  Lu1  1  0.52548800  0.66389500  0.50216500  1
  Lu  Lu2  1  0.02548800  0.33610500  0.99783500  1
  Lu  Lu3  1  0.03409300  0.83026800  0.50200300  1
  Lu  Lu4  1  0.96590700  0.16973200  0.49799700  1
  Lu  Lu5  1  0.97451200  0.66389500  0.00216500  1
  Lu  Lu6  1  0.47451200  0.33610500  0.49783500  1
  Lu  Lu7  1  0.46590700  0.83026800  0.00200300  1
  H  H0  1  0.37009900  0.70201300  0.29873200  1
  H  H1  1  0.20700300  0.92096800  0.11333500  1
  H  H2  1  0.14875100  0.22994200  0.86885700  1
  H  H3  1  0.92773900  0.69881400  0.39368600  1
  H  H4  1  0.22469100  0.49499700  0.70789300  1
  H  H5  1  0.84602000  0.98686700  0.19959400  1
  H  H6  1  0.72469100  0.50500300  0.79210700  1
  H  H7  1  0.34602000  0.01313300  0.30040600  1
  H  H8  1  0.64875100  0.77005800  0.63114300  1
  H  H9  1  0.42773900  0.30118600  0.10631400  1
  H  H10  1  0.12990100  0.70201300  0.79873200  1
  H  H11  1  0.70700300  0.07903200  0.38666500  1
  H  H12  1  0.29299700  0.92096800  0.61333500  1
  H  H13  1  0.87009900  0.29798700  0.20126800  1
  H  H14  1  0.57226100  0.69881400  0.89368600  1
  H  H15  1  0.35124900  0.22994200  0.36885700  1
  H  H16  1  0.65398000  0.98686700  0.69959400  1
  H  H17  1  0.27530900  0.49499700  0.20789300  1
  H  H18  1  0.15398000  0.01313300  0.80040600  1
  H  H19  1  0.77530900  0.50500300  0.29210700  1
  H  H20  1  0.07226100  0.30118600  0.60631400  1
  H  H21  1  0.85124900  0.77005800  0.13114300  1
  H  H22  1  0.79299700  0.07903200  0.88666500  1
  H  H23  1  0.62990100  0.29798700  0.70126800  1
  O  O0  1  0.61451800  0.39054900  0.60891200  1
  O  O1  1  0.36317600  0.90956700  0.10650800  1
  O  O2  1  0.22126600  0.29500400  0.88586800  1
  O  O3  1  0.84886900  0.77682500  0.39702500  1
  O  O4  1  0.23083200  0.59540100  0.61561500  1
  O  O5  1  0.84456100  0.08092600  0.10676000  1
  O  O6  1  0.73083200  0.40459900  0.88438500  1
  O  O7  1  0.72126600  0.70499600  0.61413200  1
  O  O8  1  0.34456100  0.91907400  0.39324000  1
  O  O9  1  0.34886900  0.22317500  0.10297500  1
  O  O10  1  0.11451800  0.60945100  0.89108800  1
  O  O11  1  0.86317600  0.09043300  0.39349200  1
  O  O12  1  0.13682400  0.90956700  0.60650800  1
  O  O13  1  0.88548200  0.39054900  0.10891200  1
  O  O14  1  0.65113100  0.77682500  0.89702500  1
  O  O15  1  0.65543900  0.08092600  0.60676000  1
  O  O16  1  0.27873400  0.29500400  0.38586800  1
  O  O17  1  0.26916800  0.59540100  0.11561500  1
  O  O18  1  0.15543900  0.91907400  0.89324000  1
  O  O19  1  0.76916800  0.40459900  0.38438500  1
  O  O20  1  0.15113100  0.22317500  0.60297500  1
  O  O21  1  0.77873400  0.70499600  0.11413200  1
  O  O22  1  0.63682400  0.09043300  0.89349200  1
  O  O23  1  0.38548200  0.60945100  0.39108800  1
loop_
_geom_bond_atom_site_label_1
_geom_bond_atom_site_label_2
_geom_bond_distance
_geom_bond_site_symmetry_2
Lu0 O6 2.150687 1_555
Lu0 O5 2.211713 1_556
Lu0 O9 2.241144 1_556
Lu0 O2 2.246618 1_555
Lu0 O22 2.246835 1_555
Lu0 O1 2.254132 1_546
Lu1 O0 2.187634 1_555
Lu1 O4 2.190122 1_555
Lu1 O23 2.203720 1_555
Lu1 O8 2.245042 1_555
Lu1 O3 2.259567 1_555
Lu1 O7 2.270056 1_555
Lu2 O10 2.187634 1_555
Lu2 O6 2.190122 1_455
Lu2 O13 2.203720 1_456
Lu2 O5 2.245042 1_456
Lu2 O9 2.259567 1_556
Lu2 O2 2.270056 1_555
Lu3 O4 2.150687 1_555
Lu3 O8 2.211713 1_555
Lu3 O3 2.241144 1_455
Lu3 O7 2.246618 1_455
Lu3 O12 2.246835 1_555
Lu3 O11 2.254132 1_465
Lu4 O19 2.150687 1_555
Lu4 O15 2.211713 1_555
Lu4 O20 2.241144 1_655
Lu4 O16 2.246618 1_655
Lu4 O11 2.246835 1_555
Lu4 O12 2.254132 1_645
Lu5 O13 2.187634 1_555
Lu5 O17 2.190122 1_655
Lu5 O10 2.203720 1_654
Lu5 O18 2.245042 1_654
Lu5 O14 2.259567 1_554
Lu5 O21 2.270056 1_555
Lu6 O23 2.187634 1_555
Lu6 O19 2.190122 1_555
Lu6 O0 2.203720 1_555
Lu6 O15 2.245042 1_555
Lu6 O20 2.259567 1_555
Lu6 O16 2.270056 1_555
Lu7 O17 2.150687 1_555
Lu7 O18 2.211713 1_554
Lu7 O14 2.241144 1_554
Lu7 O21 2.246618 1_555
Lu7 O1 2.246835 1_555
Lu7 O22 2.254132 1_564
H0 O23 0.979994 1_555
H1 O1 0.969129 1_555
H2 O2 0.970013 1_555
H3 O3 0.972520 1_555
H4 O4 0.983474 1_555
H5 O5 0.981269 1_565
H6 O6 0.983474 1_555
H7 O8 0.981269 1_545
H8 O7 0.970013 1_555
H9 O9 0.972520 1_555
H10 O10 0.979994 1_555
H11 O11 0.969129 1_555
H12 O12 0.969129 1_555
H13 O13 0.979994 1_555
H14 O14 0.972520 1_555
H15 O16 0.970013 1_555
H16 O15 0.981269 1_565
H17 O17 0.983474 1_555
H18 O18 0.981269 1_545
H19 O19 0.983474 1_555
H20 O20 0.972520 1_555
H21 O21 0.970013 1_555
H22 O22 0.969129 1_555
H23 O0 0.979994 1_555
