# generated using pymatgen
data_NaMnPCO7
_symmetry_space_group_name_H-M   'P 1'
_cell_length_a   8.17771400
_cell_length_b   8.20352471
_cell_length_c   10.25111619
_cell_angle_alpha   108.94228643
_cell_angle_beta   106.65469348
_cell_angle_gamma   99.96267595
_symmetry_Int_Tables_number   1
_chemical_formula_structural   NaMnPCO7
_chemical_formula_sum   'Na4 Mn4 P4 C4 O28'
_cell_volume   595.71502330
_cell_formula_units_Z   4
loop_
 _symmetry_equiv_pos_site_id
 _symmetry_equiv_pos_as_xyz
  1  'x, y, z'
loop_
 _atom_site_type_symbol
 _atom_site_label
 _atom_site_symmetry_multiplicity
 _atom_site_fract_x
 _atom_site_fract_y
 _atom_site_fract_z
 _atom_site_occupancy
  Na  Na0  1  0.25741700  0.26121100  0.76707400  1
  Na  Na1  1  0.50724200  0.01023800  0.76734600  1
  Na  Na2  1  0.73279400  0.75462200  0.23897300  1
  Na  Na3  1  0.22399300  0.24821300  0.23690000  1
  Mn  Mn0  1  0.81206900  0.06258500  0.65721900  1
  Mn  Mn1  1  0.31193700  0.56232400  0.65712700  1
  Mn  Mn2  1  0.69683300  0.43495400  0.34726100  1
  Mn  Mn3  1  0.19153700  0.92783100  0.33691000  1
  P  P0  1  0.05175400  0.80086100  0.56964500  1
  P  P1  1  0.54398900  0.29283700  0.56381900  1
  P  P2  1  0.45537800  0.69987400  0.43249400  1
  P  P3  1  0.95517900  0.20028500  0.43271000  1
  C  C0  1  0.96492300  0.22964400  0.92296800  1
  C  C1  1  0.46982000  0.72286000  0.92313700  1
  C  C2  1  0.53235800  0.28062800  0.08316600  1
  C  C3  1  0.02684000  0.77339700  0.07091600  1
  O  O0  1  0.94074400  0.69657000  0.93788800  1
  O  O1  1  0.44258200  0.20215600  0.94794900  1
  O  O2  1  0.32769600  0.58080900  0.86013400  1
  O  O3  1  0.82211600  0.08829200  0.86051200  1
  O  O4  1  0.00555700  0.27110800  0.81878500  1
  O  O5  1  0.51258300  0.76340000  0.81943200  1
  O  O6  1  0.17176000  0.72831400  0.66919000  1
  O  O7  1  0.98144800  0.92663100  0.67535500  1
  O  O8  1  0.65084000  0.21001500  0.66328500  1
  O  O9  1  0.46318900  0.40560800  0.66925100  1
  O  O10  1  0.59904200  0.85112800  0.57345600  1
  O  O11  1  0.66524200  0.41438800  0.51993400  1
  O  O12  1  0.17361200  0.92260300  0.52327100  1
  O  O13  1  0.10340500  0.34696500  0.57343700  1
  O  O14  1  0.90108400  0.65459800  0.43037700  1
  O  O15  1  0.33864200  0.57286400  0.47723700  1
  O  O16  1  0.83609900  0.07540400  0.47745900  1
  O  O17  1  0.39522900  0.14823500  0.42248300  1
  O  O18  1  0.33870400  0.77074000  0.32976800  1
  O  O19  1  0.53889000  0.58679800  0.33049100  1
  O  O20  1  0.84302100  0.27876900  0.33393200  1
  O  O21  1  0.03090600  0.08172000  0.32674200  1
  O  O22  1  0.49175500  0.23627400  0.18534200  1
  O  O23  1  0.98680600  0.72941700  0.17509700  1
  O  O24  1  0.67742400  0.41707300  0.14313600  1
  O  O25  1  0.17292200  0.91310300  0.13503100  1
  O  O26  1  0.05094700  0.31002500  0.05645600  1
  O  O27  1  0.55159300  0.80672600  0.05690800  1
loop_
_geom_bond_atom_site_label_1
_geom_bond_atom_site_label_2
_geom_bond_distance
_geom_bond_site_symmetry_2
Na0 O4 2.277159 1_555
Na0 O1 2.278858 1_555
Na0 O2 2.378000 1_555
Na0 O13 2.408628 1_555
Na0 O9 2.507821 1_555
Na0 O12 2.878245 1_545
Na0 O7 2.911302 1_445
Na1 O5 2.259772 1_545
Na1 O1 2.267767 1_555
Na1 O3 2.361214 1_555
Na1 O10 2.393285 1_545
Na1 O8 2.527843 1_555
Na1 O12 2.908851 1_545
Na1 O6 2.932469 1_545
Na2 O27 2.239112 1_555
Na2 O23 2.372090 1_555
Na2 O19 2.495175 1_555
Na2 O14 2.511042 1_555
Na2 O24 2.526467 1_555
Na2 O16 2.735984 1_565
Na3 O26 2.244568 1_555
Na3 O22 2.405745 1_555
Na3 O21 2.472041 1_555
Na3 O17 2.477136 1_555
Na3 O25 2.512233 1_545
Na3 O15 2.755721 1_555
Mn0 O7 1.928367 1_545
Mn0 O8 1.937772 1_555
Mn0 O16 1.942060 1_555
Mn0 O4 1.973540 1_655
Mn0 O10 1.977668 1_545
Mn0 O3 2.001182 1_555
Mn1 O6 1.922404 1_555
Mn1 O9 1.940110 1_555
Mn1 O15 1.945148 1_555
Mn1 O5 1.974417 1_555
Mn1 O13 1.974907 1_555
Mn1 O2 2.001248 1_555
Mn2 O20 1.897227 1_555
Mn2 O11 1.915555 1_555
Mn2 O19 1.953952 1_555
Mn2 O14 1.977043 1_555
Mn2 O22 1.981500 1_555
Mn2 O24 2.006887 1_555
Mn3 O18 1.907981 1_555
Mn3 O12 1.970920 1_555
Mn3 O17 1.975838 1_565
Mn3 O21 1.977594 1_565
Mn3 O23 1.978945 1_455
Mn3 O25 1.992803 1_555
C0 O26 1.226417 1_656
C0 O3 1.318798 1_555
C0 O4 1.329245 1_655
C1 O27 1.226231 1_556
C1 O2 1.318477 1_555
C1 O5 1.328705 1_555
C2 O1 1.244420 1_554
C2 O24 1.309164 1_555
C2 O22 1.320874 1_555
C3 O0 1.220936 1_454
C3 O25 1.326557 1_555
C3 O23 1.337019 1_455
O6 P0 1.543031 1_555
O7 P0 1.551088 1_655
O8 P1 1.552193 1_555
O9 P1 1.559580 1_555
O10 P2 1.538299 1_555
O11 P1 1.544252 1_555
O12 P0 1.565851 1_555
O13 P3 1.537637 1_455
O14 P0 1.537549 1_655
O15 P2 1.557048 1_555
O16 P3 1.556991 1_555
O17 P1 1.536490 1_555
O18 P2 1.539711 1_555
O19 P2 1.555333 1_555
O20 P3 1.541542 1_555
O21 P3 1.554873 1_455
