# generated using pymatgen
data_K2Mg(H2N)4
_symmetry_space_group_name_H-M   'P 1'
_cell_length_a   7.22868300
_cell_length_b   7.49339600
_cell_length_c   13.63036604
_cell_angle_alpha   75.57949394
_cell_angle_beta   90.00000000
_cell_angle_gamma   90.00000000
_symmetry_Int_Tables_number   1
_chemical_formula_structural   K2Mg(H2N)4
_chemical_formula_sum   'K8 Mg4 H32 N16'
_cell_volume   715.05979396
_cell_formula_units_Z   4
loop_
 _symmetry_equiv_pos_site_id
 _symmetry_equiv_pos_as_xyz
  1  'x, y, z'
loop_
 _atom_site_type_symbol
 _atom_site_label
 _atom_site_symmetry_multiplicity
 _atom_site_fract_x
 _atom_site_fract_y
 _atom_site_fract_z
 _atom_site_occupancy
  K  K0  1  0.64669300  0.91381500  0.89783100  1
  K  K1  1  0.85330700  0.91381500  0.39783100  1
  K  K2  1  0.12586700  0.57297700  0.60879500  1
  K  K3  1  0.62586700  0.42702300  0.89120500  1
  K  K4  1  0.37413300  0.57297700  0.10879500  1
  K  K5  1  0.87413300  0.42702300  0.39120500  1
  K  K6  1  0.14669300  0.08618500  0.60216900  1
  K  K7  1  0.35330700  0.08618500  0.10216900  1
  Mg  Mg0  1  0.21289800  0.70607900  0.84819200  1
  Mg  Mg1  1  0.28710200  0.70607900  0.34819200  1
  Mg  Mg2  1  0.71289800  0.29392100  0.65180800  1
  Mg  Mg3  1  0.78710200  0.29392100  0.15180800  1
  H  H0  1  0.24460100  0.01471900  0.90519200  1
  H  H1  1  0.12764400  0.87154100  0.98880900  1
  H  H2  1  0.89435100  0.86650200  0.75219000  1
  H  H3  1  0.48824000  0.87892900  0.71031200  1
  H  H4  1  0.25539900  0.01471900  0.40519200  1
  H  H5  1  0.37235600  0.87154100  0.48880900  1
  H  H6  1  0.87733500  0.65467200  0.74951700  1
  H  H7  1  0.47844000  0.66675700  0.70913000  1
  H  H8  1  0.60564900  0.86650200  0.25219000  1
  H  H9  1  0.01176000  0.87892900  0.21031200  1
  H  H10  1  0.72221200  0.66226600  0.59643200  1
  H  H11  1  0.12741800  0.41662300  0.99080200  1
  H  H12  1  0.62741800  0.58337700  0.50919800  1
  H  H13  1  0.22221200  0.33773400  0.90356800  1
  H  H14  1  0.62266500  0.65467200  0.24951700  1
  H  H15  1  0.02156000  0.66675700  0.20913000  1
  H  H16  1  0.97844000  0.33324300  0.79087000  1
  H  H17  1  0.37733500  0.34532800  0.75048300  1
  H  H18  1  0.77778800  0.66226600  0.09643200  1
  H  H19  1  0.37258200  0.41662300  0.49080200  1
  H  H20  1  0.87258200  0.58337700  0.00919800  1
  H  H21  1  0.27778800  0.33773400  0.40356800  1
  H  H22  1  0.98824000  0.12107100  0.78968800  1
  H  H23  1  0.39435100  0.13349800  0.74781000  1
  H  H24  1  0.52156000  0.33324300  0.29087000  1
  H  H25  1  0.12266500  0.34532800  0.25048300  1
  H  H26  1  0.62764400  0.12845900  0.51119100  1
  H  H27  1  0.74460100  0.98528100  0.59480800  1
  H  H28  1  0.51176000  0.12107100  0.28968800  1
  H  H29  1  0.10564900  0.13349800  0.24781000  1
  H  H30  1  0.87235600  0.12845900  0.01119100  1
  H  H31  1  0.75539900  0.98528100  0.09480800  1
  N  N0  1  0.24807800  0.88008800  0.94767400  1
  N  N1  1  0.96817000  0.74616100  0.76743000  1
  N  N2  1  0.44436400  0.75359000  0.75377600  1
  N  N3  1  0.25192200  0.88008800  0.44767400  1
  N  N4  1  0.23955100  0.43768700  0.94264700  1
  N  N5  1  0.53183000  0.74616100  0.26743000  1
  N  N6  1  0.05563600  0.75359000  0.25377600  1
  N  N7  1  0.73955100  0.56231300  0.55735300  1
  N  N8  1  0.26044900  0.43768700  0.44264700  1
  N  N9  1  0.94436400  0.24641000  0.74622400  1
  N  N10  1  0.46817000  0.25383900  0.73257000  1
  N  N11  1  0.76044900  0.56231300  0.05735300  1
  N  N12  1  0.74807800  0.11991200  0.55232600  1
  N  N13  1  0.55563600  0.24641000  0.24622400  1
  N  N14  1  0.03183000  0.25383900  0.23257000  1
  N  N15  1  0.75192200  0.11991200  0.05232600  1
loop_
_geom_bond_atom_site_label_1
_geom_bond_atom_site_label_2
_geom_bond_distance
_geom_bond_site_symmetry_2
K0 N2 2.934321 1_555
K0 N0 2.956811 1_555
K0 N15 3.002997 1_566
K0 N11 3.080439 1_556
K0 N10 3.220675 1_565
K1 N6 2.934321 1_655
K1 N3 2.956811 1_655
K1 N12 3.002997 1_565
K1 N7 3.080439 1_555
K1 N14 3.220675 1_665
K2 N8 2.871651 1_555
K2 N7 2.885187 1_455
K2 N3 2.903804 1_555
K2 N9 2.989226 1_455
K2 N1 3.009408 1_455
K3 N11 2.871651 1_556
K3 N4 2.885187 1_555
K3 N15 2.903804 1_556
K3 N2 2.989226 1_555
K3 N10 3.009408 1_555
K4 N4 2.871651 1_554
K4 N11 2.885187 1_555
K4 N0 2.903804 1_554
K4 N13 2.989226 1_555
K4 N5 3.009408 1_555
K5 N7 2.871651 1_555
K5 N8 2.885187 1_655
K5 N12 2.903804 1_555
K5 N6 2.989226 1_655
K5 N14 3.009408 1_655
K6 N9 2.934321 1_455
K6 N12 2.956811 1_455
K6 N3 3.002997 1_545
K6 N8 3.080439 1_555
K6 N1 3.220675 1_445
K7 N13 2.934321 1_555
K7 N15 2.956811 1_555
K7 N0 3.002997 1_544
K7 N4 3.080439 1_554
K7 N5 3.220675 1_545
Mg0 N1 2.065649 1_455
Mg0 N2 2.086696 1_555
Mg0 N4 2.109456 1_555
Mg0 N0 2.117588 1_555
Mg1 N5 2.065649 1_555
Mg1 N6 2.086696 1_555
Mg1 N8 2.109456 1_555
Mg1 N3 2.117588 1_555
Mg2 N10 2.065649 1_555
Mg2 N9 2.086696 1_555
Mg2 N7 2.109456 1_555
Mg2 N12 2.117588 1_555
Mg3 N14 2.065649 1_655
Mg3 N13 2.086696 1_555
Mg3 N11 2.109456 1_555
Mg3 N15 2.117588 1_555
H0 N0 1.030889 1_545
H0 K7 2.971350 1_556
H0 K0 3.011288 1_545
H1 N0 1.028831 1_555
H1 K7 2.978796 1_566
H1 K4 3.005394 1_556
H2 N1 1.023607 1_555
H2 K0 2.760794 1_555
H2 K6 2.922671 1_665
H3 N2 1.027888 1_555
H3 K0 2.871582 1_555
H3 K6 3.088715 1_565
H4 N3 1.030889 1_545
H4 K6 2.971350 1_555
H4 K1 3.011288 1_445
H5 N3 1.028831 1_555
H5 K6 2.978796 1_565
H5 K2 3.005394 1_555
H6 N1 1.021826 1_555
H6 K2 2.804692 1_655
H6 K3 2.881524 1_555
H7 N2 1.025472 1_555
H7 K3 2.881213 1_555
H7 K2 3.055880 1_555
H8 N5 1.023607 1_555
H8 K1 2.760794 1_555
H8 K7 2.922671 1_565
H9 N6 1.027888 1_555
H9 K1 2.871582 1_455
H9 K7 3.088715 1_565
H10 N7 1.029140 1_555
H10 K2 2.988982 1_655
H10 K1 3.039326 1_555
H11 N4 1.030128 1_555
H11 K4 2.842255 1_556
H11 K7 3.038015 1_556
H12 N7 1.030128 1_555
H12 K5 2.842255 1_555
H12 K1 3.038015 1_555
H13 N4 1.029140 1_555
H13 K3 2.988982 1_555
H13 K7 3.039326 1_556
H14 N5 1.021826 1_555
H14 K4 2.804692 1_555
H14 K5 2.881524 1_555
H15 N6 1.025472 1_555
H15 K5 2.881213 1_455
H15 K4 3.055880 1_555
H16 N9 1.025472 1_555
H16 K2 2.881213 1_655
H16 K3 3.055880 1_555
H17 N10 1.021826 1_555
H17 K3 2.804692 1_555
H17 K2 2.881524 1_555
H18 N11 1.029140 1_555
H18 K4 2.988982 1_555
H18 K0 3.039326 1_554
H19 N8 1.030128 1_555
H19 K2 2.842255 1_555
H19 K6 3.038015 1_555
H20 N11 1.030128 1_555
H20 K3 2.842255 1_554
H20 K0 3.038015 1_554
H21 N8 1.029140 1_555
H21 K5 2.988982 1_455
H21 K6 3.039326 1_555
H22 N9 1.027888 1_555
H22 K6 2.871582 1_655
H22 K0 3.088715 1_545
H23 N10 1.023607 1_555
H23 K6 2.760794 1_555
H23 K0 2.922671 1_545
H24 N13 1.025472 1_555
H24 K4 2.881213 1_555
H24 K5 3.055880 1_555
H25 N14 1.021826 1_555
H25 K5 2.804692 1_455
H25 K4 2.881524 1_555
H26 N12 1.028831 1_555
H26 K1 2.978796 1_545
H26 K5 3.005394 1_555
H27 N12 1.030889 1_565
H27 K1 2.971350 1_555
H27 K6 3.011288 1_665
H28 N13 1.027888 1_555
H28 K7 2.871582 1_555
H28 K1 3.088715 1_545
H29 N14 1.023607 1_555
H29 K7 2.760794 1_555
H29 K1 2.922671 1_445
H30 N15 1.028831 1_555
H30 K0 2.978796 1_544
H30 K3 3.005394 1_554
H31 N15 1.030889 1_565
H31 K0 2.971350 1_554
H31 K7 3.011288 1_565
