# generated using pymatgen
data_Fe3CuNi2(PO4)6
_symmetry_space_group_name_H-M   'P 1'
_cell_length_a   8.48152107
_cell_length_b   8.48152107
_cell_length_c   8.48152090
_cell_angle_alpha   60.96258392
_cell_angle_beta   60.96258392
_cell_angle_gamma   60.96258506
_symmetry_Int_Tables_number   1
_chemical_formula_structural   Fe3CuNi2(PO4)6
_chemical_formula_sum   'Fe3 Cu1 Ni2 P6 O24'
_cell_volume   440.78249693
_cell_formula_units_Z   1
loop_
 _symmetry_equiv_pos_site_id
 _symmetry_equiv_pos_as_xyz
  1  'x, y, z'
loop_
 _atom_site_type_symbol
 _atom_site_label
 _atom_site_symmetry_multiplicity
 _atom_site_fract_x
 _atom_site_fract_y
 _atom_site_fract_z
 _atom_site_occupancy
  Fe  Fe0  1  0.14367900  0.14367900  0.14367900  1
  Fe  Fe1  1  0.35520400  0.35520400  0.35520400  1
  Fe  Fe2  1  0.64363400  0.64363400  0.64363400  1
  Cu  Cu0  1  0.85573400  0.85573400  0.85573400  1
  Ni  Ni0  1  0.99958500  0.99958500  0.99958500  1
  Ni  Ni1  1  0.49992800  0.49992800  0.49992800  1
  P  P0  1  0.75034300  0.04461900  0.45601500  1
  P  P1  1  0.04461900  0.45601500  0.75034300  1
  P  P2  1  0.45601500  0.75034300  0.04461900  1
  P  P3  1  0.54576600  0.24877100  0.95233700  1
  P  P4  1  0.95233700  0.54576600  0.24877100  1
  P  P5  1  0.24877100  0.95233700  0.54576600  1
  O  O0  1  0.31709300  0.10908300  0.50572600  1
  O  O1  1  0.50572600  0.31709300  0.10908300  1
  O  O2  1  0.90845600  0.05920900  0.25610700  1
  O  O3  1  0.10908300  0.50572600  0.31709300  1
  O  O4  1  0.81359700  0.01641800  0.61166500  1
  O  O5  1  0.59207500  0.24533800  0.43696900  1
  O  O6  1  0.05920900  0.25610700  0.90845600  1
  O  O7  1  0.24533800  0.43696900  0.59207500  1
  O  O8  1  0.38895700  0.18185400  0.99326400  1
  O  O9  1  0.43696900  0.59207500  0.24533800  1
  O  O10  1  0.74441000  0.08891300  0.94416000  1
  O  O11  1  0.99326400  0.38895700  0.18185400  1
  O  O12  1  0.01641800  0.61166500  0.81359700  1
  O  O13  1  0.25610700  0.90845600  0.05920900  1
  O  O14  1  0.56180500  0.40711500  0.75380800  1
  O  O15  1  0.61166500  0.81359700  0.01641800  1
  O  O16  1  0.75380800  0.56180500  0.40711500  1
  O  O17  1  0.94416000  0.74441000  0.08891300  1
  O  O18  1  0.40711500  0.75380800  0.56180500  1
  O  O19  1  0.18185400  0.99326400  0.38895700  1
  O  O20  1  0.88808000  0.49721900  0.68306900  1
  O  O21  1  0.08891300  0.94416000  0.74441000  1
  O  O22  1  0.49721900  0.68306900  0.88808000  1
  O  O23  1  0.68306900  0.88808000  0.49721900  1
loop_
_geom_bond_atom_site_label_1
_geom_bond_atom_site_label_2
_geom_bond_distance
_geom_bond_site_symmetry_2
Fe0 O19 1.933043 1_545
Fe0 O8 1.933043 1_554
Fe0 O11 1.933043 1_455
Fe0 O6 2.068898 1_554
Fe0 O2 2.068898 1_455
Fe0 O13 2.068898 1_545
Fe1 O1 1.938882 1_555
Fe1 O0 1.938882 1_555
Fe1 O3 1.938882 1_555
Fe1 O7 2.072022 1_555
Fe1 O9 2.072022 1_555
Fe1 O5 2.072022 1_555
Fe2 O22 1.929524 1_555
Fe2 O23 1.929524 1_555
Fe2 O20 1.929524 1_555
Fe2 O16 2.069136 1_555
Fe2 O14 2.069136 1_555
Fe2 O18 2.069136 1_555
Cu0 O4 1.943437 1_565
Cu0 O15 1.943437 1_556
Cu0 O12 1.943437 1_655
Cu0 O17 2.074860 1_556
Cu0 O21 2.074860 1_655
Cu0 O10 2.074860 1_565
Ni0 O21 2.128189 1_655
Ni0 O17 2.128189 1_556
Ni0 O10 2.128189 1_565
Ni0 O2 2.154757 1_566
Ni0 O6 2.154757 1_665
Ni0 O13 2.154757 1_656
Ni1 O14 2.140616 1_555
Ni1 O16 2.140616 1_555
Ni1 O18 2.140616 1_555
Ni1 O9 2.152793 1_555
Ni1 O7 2.152793 1_555
Ni1 O5 2.152793 1_555
O0 P5 1.528752 1_545
O1 P3 1.528752 1_554
O2 P0 1.561613 1_555
O3 P4 1.528752 1_455
O4 P0 1.531099 1_555
O5 P0 1.565666 1_555
O6 P1 1.561613 1_555
O7 P1 1.565666 1_555
O8 P3 1.518160 1_555
O9 P2 1.565666 1_555
O10 P3 1.562688 1_555
O11 P4 1.518160 1_555
O12 P1 1.531099 1_555
O13 P2 1.561613 1_555
O14 P3 1.554721 1_555
O15 P2 1.531099 1_555
O16 P4 1.554721 1_555
O17 P4 1.562687 1_555
O18 P5 1.554721 1_555
O19 P5 1.518160 1_555
O20 P1 1.517191 1_655
O21 P5 1.562687 1_555
O22 P2 1.517191 1_556
O23 P0 1.517191 1_565
