# generated using pymatgen
data_Li3Co3OF7
_symmetry_space_group_name_H-M   'P 1'
_cell_length_a   6.06987868
_cell_length_b   6.06987868
_cell_length_c   10.49894299
_cell_angle_alpha   73.16910554
_cell_angle_beta   73.16910554
_cell_angle_gamma   60.08912806
_symmetry_Int_Tables_number   1
_chemical_formula_structural   Li3Co3OF7
_chemical_formula_sum   'Li6 Co6 O2 F14'
_cell_volume   315.98050462
_cell_formula_units_Z   2
loop_
 _symmetry_equiv_pos_site_id
 _symmetry_equiv_pos_as_xyz
  1  'x, y, z'
loop_
 _atom_site_type_symbol
 _atom_site_label
 _atom_site_symmetry_multiplicity
 _atom_site_fract_x
 _atom_site_fract_y
 _atom_site_fract_z
 _atom_site_occupancy
  Li  Li0  1  0.99441500  0.50951700  0.00058100  1
  Li  Li1  1  0.94491000  0.93447400  0.68835000  1
  Li  Li2  1  0.93447400  0.94491000  0.18835000  1
  Li  Li3  1  0.38719400  0.85924500  0.87171500  1
  Li  Li4  1  0.85924500  0.38719400  0.37171500  1
  Li  Li5  1  0.50951700  0.99441500  0.50058100  1
  Co  Co0  1  0.92523900  0.43941800  0.69442100  1
  Co  Co1  1  0.69269100  0.19773400  0.93174100  1
  Co  Co2  1  0.45006500  0.44006000  0.69356500  1
  Co  Co3  1  0.43941800  0.92523900  0.19442100  1
  Co  Co4  1  0.19773400  0.69269100  0.43174100  1
  Co  Co5  1  0.44006000  0.45006500  0.19356500  1
  O  O0  1  0.58330500  0.53211000  0.80920600  1
  O  O1  1  0.53211000  0.58330500  0.30920600  1
  F  F0  1  0.84589400  0.79603000  0.56224500  1
  F  F1  1  0.82025600  0.29781500  0.57103700  1
  F  F2  1  0.58381400  0.06176400  0.80723300  1
  F  F3  1  0.80108300  0.30534600  0.06676800  1
  F  F4  1  0.06984000  0.56669600  0.80239000  1
  F  F5  1  0.30534600  0.80108300  0.56676800  1
  F  F6  1  0.56669600  0.06984000  0.30239000  1
  F  F7  1  0.30253500  0.32922300  0.57424700  1
  F  F8  1  0.32922300  0.30253500  0.07424700  1
  F  F9  1  0.79603000  0.84589400  0.06224500  1
  F  F10  1  0.06002500  0.05722600  0.30580400  1
  F  F11  1  0.05722600  0.06002500  0.80580400  1
  F  F12  1  0.29781500  0.82025600  0.07103700  1
  F  F13  1  0.06176400  0.58381400  0.30723300  1
loop_
_geom_bond_atom_site_label_1
_geom_bond_atom_site_label_2
_geom_bond_distance
_geom_bond_site_symmetry_2
Li3 O0 1.932746 1_555
Li4 O1 1.932746 1_555
Co0 O0 1.963713 1_555
Co0 F4 2.100417 1_655
Co0 F0 2.109736 1_555
Co0 F11 2.110835 1_655
Co0 F1 2.119418 1_555
Co0 F7 2.138169 1_655
Co1 O0 1.963132 1_555
Co1 F9 2.073374 1_546
Co1 F3 2.091456 1_556
Co1 F11 2.108113 1_655
Co1 F2 2.120303 1_555
Co1 F8 2.179567 1_556
Co2 O0 1.962761 1_555
Co2 F5 2.100947 1_555
Co2 F4 2.105963 1_555
Co2 F2 2.114449 1_555
Co2 F1 2.117504 1_555
Co2 F7 2.135958 1_555
Co3 O1 1.963713 1_555
Co3 F6 2.100417 1_565
Co3 F9 2.109736 1_555
Co3 F10 2.110835 1_565
Co3 F12 2.119418 1_555
Co3 F8 2.138169 1_565
Co4 O1 1.963132 1_555
Co4 F0 2.073374 1_455
Co4 F5 2.091456 1_555
Co4 F10 2.108113 1_565
Co4 F13 2.120303 1_555
Co4 F7 2.179567 1_555
Co5 O1 1.962761 1_555
Co5 F3 2.100947 1_555
Co5 F6 2.105963 1_555
Co5 F13 2.114449 1_555
Co5 F12 2.117504 1_555
Co5 F8 2.135958 1_555
F0 Li5 1.974840 1_555
F0 Li1 2.104536 1_555
F1 Li4 1.978231 1_555
F1 Li1 2.062975 1_545
F2 Li3 1.976631 1_545
F2 Li1 2.060141 1_545
F3 Li0 1.968576 1_555
F3 Li2 2.070291 1_545
F4 Li0 1.961724 1_456
F4 Li1 2.069232 1_455
F5 Li5 1.968576 1_555
F5 Li1 2.070291 1_455
F6 Li5 1.961724 1_545
F6 Li2 2.069232 1_545
F7 Li5 2.026767 1_545
F8 Li0 2.026767 1_455
F9 Li0 1.974840 1_555
F9 Li2 2.104536 1_555
F10 Li4 1.963539 1_455
F10 Li2 2.028638 1_445
F11 Li3 1.963539 1_545
F11 Li1 2.028638 1_445
F12 Li3 1.978231 1_554
F12 Li2 2.062975 1_455
F13 Li4 1.976631 1_455
F13 Li2 2.060141 1_455
