# generated using pymatgen
data_V6O5F19
_symmetry_space_group_name_H-M   'P 1'
_cell_length_a   5.30199300
_cell_length_b   5.47974112
_cell_length_c   14.91029052
_cell_angle_alpha   79.58779003
_cell_angle_beta   89.74223463
_cell_angle_gamma   88.71265191
_symmetry_Int_Tables_number   1
_chemical_formula_structural   V6O5F19
_chemical_formula_sum   'V6 O5 F19'
_cell_volume   425.95581218
_cell_formula_units_Z   1
loop_
 _symmetry_equiv_pos_site_id
 _symmetry_equiv_pos_as_xyz
  1  'x, y, z'
loop_
 _atom_site_type_symbol
 _atom_site_label
 _atom_site_symmetry_multiplicity
 _atom_site_fract_x
 _atom_site_fract_y
 _atom_site_fract_z
 _atom_site_occupancy
  V  V0  1  0.03057600  0.04254400  0.99637700  1
  V  V1  1  0.45911300  0.80404200  0.32952300  1
  V  V2  1  0.99281200  0.68151400  0.66745800  1
  V  V3  1  0.54022900  0.53037400  0.00346600  1
  V  V4  1  0.96869200  0.29123900  0.33709600  1
  V  V5  1  0.47784100  0.20906900  0.66394900  1
  O  O0  1  0.22213600  0.63884200  0.31100400  1
  O  O1  1  0.30010700  0.46409100  0.64450400  1
  O  O2  1  0.20274900  0.28679600  0.97789100  1
  O  O3  1  0.77740900  0.69587000  0.02175800  1
  O  O4  1  0.79819000  0.04579500  0.35604200  1
  F  F0  1  0.20080200  0.98414200  0.64016700  1
  F  F1  1  0.28761600  0.79659800  0.97429500  1
  F  F2  1  0.69898300  0.85451100  0.69011400  1
  F  F3  1  0.07266400  0.93363100  0.11493100  1
  F  F4  1  0.43391900  0.80477600  0.44821200  1
  F  F5  1  0.09316000  0.62384700  0.78234000  1
  F  F6  1  0.59551800  0.88499400  0.21952300  1
  F  F7  1  0.92483700  0.69323900  0.55081100  1
  F  F8  1  0.56800400  0.52535500  0.88520900  1
  F  F9  1  0.71161600  0.53524900  0.35886500  1
  F  F10  1  0.78625500  0.35989700  0.69305200  1
  F  F11  1  0.40634800  0.44812800  0.11389100  1
  F  F12  1  0.09588900  0.29717100  0.44668200  1
  F  F13  1  0.41938400  0.10210300  0.78097300  1
  F  F14  1  0.92794600  0.39739200  0.21839400  1
  F  F15  1  0.59856700  0.19906600  0.55380700  1
  F  F16  1  0.90779300  0.03655700  0.88620700  1
  F  F17  1  0.28605200  0.12933700  0.30829000  1
  F  F18  1  0.71479600  0.20382700  0.02516400  1
loop_
_geom_bond_atom_site_label_1
_geom_bond_atom_site_label_2
_geom_bond_distance
_geom_bond_site_symmetry_2
O0 V1 1.618325 1_555
O0 V4 2.329733 1_455
O1 V5 1.649784 1_555
O1 V2 2.060658 1_455
O2 V0 1.618638 1_555
O2 V3 2.329385 1_556
O3 V3 1.619233 1_555
O3 V0 2.324630 1_664
O4 V4 1.618939 1_555
O4 V1 2.333680 1_545
F0 V2 1.991462 1_455
F0 V5 2.011580 1_565
F1 V3 1.949192 1_556
F1 V0 1.963637 1_565
F2 V2 1.866661 1_555
F2 V5 2.220254 1_565
F3 V0 1.773949 1_564
F4 V1 1.774845 1_555
F5 V2 1.766927 1_455
F6 V1 1.774998 1_555
F7 V2 1.767253 1_555
F8 V3 1.773835 1_556
F9 V4 1.955002 1_555
F9 V1 1.958809 1_555
F10 V5 1.934439 1_555
F10 V2 2.071438 1_555
F11 V3 1.775806 1_555
F12 V4 1.776454 1_455
F13 V5 1.765727 1_555
F14 V4 1.772902 1_555
F15 V5 1.769521 1_555
F16 V0 1.775749 1_655
F17 V1 1.960796 1_545
F17 V4 1.966469 1_455
F18 V0 1.957712 1_654
F18 V3 1.970347 1_555
