# generated using pymatgen
data_CeAl2Pt3
_symmetry_space_group_name_H-M   'P 1'
_cell_length_a   4.01146800
_cell_length_b   5.59442684
_cell_length_c   5.59442684
_cell_angle_alpha   120.00000988
_cell_angle_beta   90.00000000
_cell_angle_gamma   90.00000000
_symmetry_Int_Tables_number   1
_chemical_formula_structural   CeAl2Pt3
_chemical_formula_sum   'Ce1 Al2 Pt3'
_cell_volume   108.72893083
_cell_formula_units_Z   1
loop_
 _symmetry_equiv_pos_site_id
 _symmetry_equiv_pos_as_xyz
  1  'x, y, z'
loop_
 _atom_site_type_symbol
 _atom_site_label
 _atom_site_symmetry_multiplicity
 _atom_site_fract_x
 _atom_site_fract_y
 _atom_site_fract_z
 _atom_site_occupancy
  Ce  Ce0  1  0.00000000  0.00000000  0.00000000  1
  Al  Al0  1  0.00000000  0.33333300  0.66666700  1
  Al  Al1  1  0.00000000  0.66666700  0.33333300  1
  Pt  Pt0  1  0.50000000  0.00000000  0.50000000  1
  Pt  Pt1  1  0.50000000  0.50000000  0.50000000  1
  Pt  Pt2  1  0.50000000  0.50000000  0.00000000  1
loop_
_geom_bond_atom_site_label_1
_geom_bond_atom_site_label_2
_geom_bond_distance
_geom_bond_site_symmetry_2
Ce0 Pt1 3.442001 1_455
Ce0 Pt1 3.442001 1_544
Ce0 Pt1 3.442001 1_555
Ce0 Pt1 3.442001 1_444
Ce0 Pt2 3.442001 1_545
Ce0 Pt0 3.442001 1_455
Ce0 Pt2 3.442001 1_445
Ce0 Pt0 3.442001 1_555
Ce0 Pt2 3.442001 1_455
Ce0 Pt0 3.442001 1_454
Ce0 Pt2 3.442001 1_555
Ce0 Pt0 3.442001 1_554
Al0 Pt2 2.575092 1_456
Al0 Pt0 2.575092 1_455
Al0 Pt0 2.575092 1_555
Al0 Pt2 2.575092 1_556
Al0 Pt1 2.575095 1_555
Al0 Pt1 2.575095 1_455
Al0 Ce0 3.229941 1_556
Al0 Ce0 3.229945 1_566
Al0 Ce0 3.229945 1_555
Al1 Pt0 2.575092 1_465
Al1 Pt0 2.575092 1_565
Al1 Pt2 2.575092 1_555
Al1 Pt2 2.575092 1_455
Al1 Pt1 2.575095 1_555
Al1 Pt1 2.575095 1_455
Al1 Ce0 3.229941 1_565
Al1 Ce0 3.229945 1_566
Al1 Ce0 3.229945 1_555
