# generated using pymatgen
data_NaMnPCO7
_symmetry_space_group_name_H-M   'P 1'
_cell_length_a   8.13129600
_cell_length_b   8.14556043
_cell_length_c   9.16097686
_cell_angle_alpha   91.36452688
_cell_angle_beta   91.48736560
_cell_angle_gamma   100.66520020
_symmetry_Int_Tables_number   1
_chemical_formula_structural   NaMnPCO7
_chemical_formula_sum   'Na4 Mn4 P4 C4 O28'
_cell_volume   595.83225893
_cell_formula_units_Z   4
loop_
 _symmetry_equiv_pos_site_id
 _symmetry_equiv_pos_as_xyz
  1  'x, y, z'
loop_
 _atom_site_type_symbol
 _atom_site_label
 _atom_site_symmetry_multiplicity
 _atom_site_fract_x
 _atom_site_fract_y
 _atom_site_fract_z
 _atom_site_occupancy
  Na  Na0  1  0.14609000  0.60085100  0.75451300  1
  Na  Na1  1  0.85037700  0.89603200  0.75498800  1
  Na  Na2  1  0.14962300  0.10396800  0.24501200  1
  Na  Na3  1  0.85391000  0.39914900  0.24548700  1
  Mn  Mn0  1  0.27372400  0.02193900  0.65959500  1
  Mn  Mn1  1  0.76076800  0.51232000  0.65542800  1
  Mn  Mn2  1  0.23923200  0.48768000  0.34457200  1
  Mn  Mn3  1  0.72627600  0.97806100  0.34040500  1
  P  P0  1  0.48484600  0.73745800  0.56678500  1
  P  P1  1  0.98295100  0.23129600  0.56597000  1
  P  P2  1  0.51515400  0.26254200  0.43321500  1
  P  P3  1  0.01704900  0.76870400  0.43403000  1
  C  C0  1  0.73700100  0.49197200  0.91842700  1
  C  C1  1  0.24011500  0.98613400  0.92052400  1
  C  C2  1  0.26299900  0.50802800  0.08157300  1
  C  C3  1  0.75988500  0.01386600  0.07947600  1
  O  O0  1  0.27631300  0.51870500  0.94878000  1
  O  O1  1  0.77777400  0.03413600  0.94802100  1
  O  O2  1  0.35177700  0.09951100  0.86015900  1
  O  O3  1  0.85169300  0.60253800  0.85258900  1
  O  O4  1  0.64132600  0.39649400  0.81901700  1
  O  O5  1  0.14447800  0.89246400  0.81574800  1
  O  O6  1  0.61938600  0.67713600  0.66541000  1
  O  O7  1  0.11050300  0.16758200  0.66849300  1
  O  O8  1  0.41692000  0.85897100  0.67240200  1
  O  O9  1  0.92531500  0.36830600  0.66311600  1
  O  O10  1  0.33856900  0.58877900  0.52650000  1
  O  O11  1  0.44306000  0.18472900  0.57311700  1
  O  O12  1  0.94115800  0.69498400  0.57691200  1
  O  O13  1  0.83567500  0.08496900  0.52505300  1
  O  O14  1  0.66143100  0.41122100  0.47350000  1
  O  O15  1  0.55694000  0.81527100  0.42688300  1
  O  O16  1  0.05884200  0.30501600  0.42308800  1
  O  O17  1  0.16432500  0.91503100  0.47494700  1
  O  O18  1  0.58308000  0.14102900  0.32759800  1
  O  O19  1  0.38061400  0.32286400  0.33459000  1
  O  O20  1  0.07468500  0.63169400  0.33688400  1
  O  O21  1  0.88949700  0.83241800  0.33150700  1
  O  O22  1  0.35867400  0.60350600  0.18098300  1
  O  O23  1  0.85552200  0.10753600  0.18425200  1
  O  O24  1  0.64822300  0.90048900  0.13984100  1
  O  O25  1  0.14830700  0.39746200  0.14741100  1
  O  O26  1  0.72368700  0.48129500  0.05122000  1
  O  O27  1  0.22222600  0.96586400  0.05197900  1
loop_
_geom_bond_atom_site_label_1
_geom_bond_atom_site_label_2
_geom_bond_distance
_geom_bond_site_symmetry_2
Na0 O0 2.226509 1_555
Na0 O5 2.430144 1_555
Na0 O9 2.469729 1_455
Na0 O12 2.530498 1_455
Na0 O3 2.580911 1_455
Na0 O10 2.653167 1_555
Na0 O8 2.878134 1_555
Na1 O1 2.224050 1_565
Na1 O5 2.446828 1_655
Na1 O6 2.447687 1_555
Na1 O12 2.504158 1_555
Na1 O3 2.574036 1_555
Na1 O13 2.651277 1_565
Na1 O7 2.903988 1_665
Na2 O27 2.224050 1_545
Na2 O23 2.446828 1_455
Na2 O19 2.447687 1_555
Na2 O16 2.504158 1_555
Na2 O25 2.574036 1_555
Na2 O17 2.651277 1_545
Na2 O21 2.903988 1_445
Na3 O26 2.226509 1_555
Na3 O23 2.430144 1_555
Na3 O20 2.469729 1_655
Na3 O16 2.530498 1_655
Na3 O25 2.580911 1_655
Na3 O14 2.653167 1_555
Na3 O18 2.878134 1_555
Mn0 O8 1.924609 1_545
Mn0 O11 1.926836 1_555
Mn0 O7 1.938894 1_555
Mn0 O2 1.978307 1_555
Mn0 O17 1.993993 1_545
Mn0 O5 2.000692 1_545
Mn1 O6 1.924375 1_555
Mn1 O14 1.930499 1_555
Mn1 O9 1.936815 1_555
Mn1 O4 1.970543 1_555
Mn1 O3 2.003829 1_555
Mn1 O12 2.044666 1_555
Mn2 O19 1.924375 1_555
Mn2 O10 1.930499 1_555
Mn2 O20 1.936815 1_555
Mn2 O22 1.970543 1_555
Mn2 O25 2.003829 1_555
Mn2 O16 2.044666 1_555
Mn3 O18 1.924609 1_565
Mn3 O15 1.926836 1_555
Mn3 O21 1.938894 1_555
Mn3 O24 1.978307 1_555
Mn3 O13 1.993993 1_565
Mn3 O23 2.000692 1_565
C0 O26 1.227836 1_556
C0 O4 1.320976 1_555
C0 O3 1.337466 1_555
C1 O27 1.228140 1_556
C1 O2 1.312671 1_565
C1 O5 1.347207 1_555
C2 O0 1.227836 1_554
C2 O22 1.320976 1_555
C2 O25 1.337466 1_555
C3 O1 1.228140 1_554
C3 O24 1.312671 1_545
C3 O23 1.347207 1_555
O6 P0 1.556709 1_555
O7 P1 1.548888 1_455
O8 P0 1.550934 1_555
O9 P1 1.557275 1_555
O10 P0 1.562168 1_555
O11 P2 1.525829 1_555
O12 P3 1.548199 1_655
O13 P1 1.556397 1_555
O14 P2 1.562168 1_555
O15 P0 1.525829 1_555
O16 P1 1.548199 1_455
O17 P3 1.556397 1_555
O18 P2 1.550934 1_555
O19 P2 1.556709 1_555
O20 P3 1.557275 1_555
O21 P3 1.548888 1_655
