# generated using pymatgen
data_LiMnOF2
_symmetry_space_group_name_H-M   'P 1'
_cell_length_a   5.62763300
_cell_length_b   9.00381900
_cell_length_c   10.00059900
_cell_angle_alpha   90.00000000
_cell_angle_beta   90.00000000
_cell_angle_gamma   90.00000000
_symmetry_Int_Tables_number   1
_chemical_formula_structural   LiMnOF2
_chemical_formula_sum   'Li8 Mn8 O8 F16'
_cell_volume   506.73224075
_cell_formula_units_Z   8
loop_
 _symmetry_equiv_pos_site_id
 _symmetry_equiv_pos_as_xyz
  1  'x, y, z'
loop_
 _atom_site_type_symbol
 _atom_site_label
 _atom_site_symmetry_multiplicity
 _atom_site_fract_x
 _atom_site_fract_y
 _atom_site_fract_z
 _atom_site_occupancy
  Li  Li0  1  0.44754200  0.33774100  0.54799100  1
  Li  Li1  1  0.94754200  0.16225900  0.54799100  1
  Li  Li2  1  0.94754200  0.66225900  0.45200900  1
  Li  Li3  1  0.44754200  0.83774100  0.45200900  1
  Li  Li4  1  0.52963600  0.68244900  0.06067300  1
  Li  Li5  1  0.02963600  0.81755100  0.06067300  1
  Li  Li6  1  0.02963600  0.31755100  0.93932700  1
  Li  Li7  1  0.52963600  0.18244900  0.93932700  1
  Mn  Mn0  1  0.75455100  0.49671200  0.73737300  1
  Mn  Mn1  1  0.24949300  0.65973600  0.73540100  1
  Mn  Mn2  1  0.74949300  0.84026400  0.73540100  1
  Mn  Mn3  1  0.25455100  0.00328800  0.73737300  1
  Mn  Mn4  1  0.24949300  0.15973600  0.26459900  1
  Mn  Mn5  1  0.75455100  0.99671200  0.26262700  1
  Mn  Mn6  1  0.25455100  0.50328800  0.26262700  1
  Mn  Mn7  1  0.74949300  0.34026400  0.26459900  1
  O  O0  1  0.89968600  0.67169500  0.65506600  1
  O  O1  1  0.39968600  0.82830500  0.65506600  1
  O  O2  1  0.45331400  0.52033500  0.66361400  1
  O  O3  1  0.95331400  0.97966500  0.66361400  1
  O  O4  1  0.95331400  0.47966500  0.33638600  1
  O  O5  1  0.45331400  0.02033500  0.33638600  1
  O  O6  1  0.89968600  0.17169500  0.34493400  1
  O  O7  1  0.39968600  0.32830500  0.34493400  1
  F  F0  1  0.27608100  0.17464400  0.60172000  1
  F  F1  1  0.77608100  0.32535600  0.60172000  1
  F  F2  1  0.77608100  0.82535600  0.39828000  1
  F  F3  1  0.27608100  0.67464400  0.39828000  1
  F  F4  1  0.10928100  0.30930200  0.12545800  1
  F  F5  1  0.60928100  0.19069800  0.12545800  1
  F  F6  1  0.57933100  0.50589500  0.16991300  1
  F  F7  1  0.07933100  0.99410500  0.16991300  1
  F  F8  1  0.70108500  0.84657200  0.11959900  1
  F  F9  1  0.20108500  0.65342800  0.11959900  1
  F  F10  1  0.70108500  0.34657200  0.88040100  1
  F  F11  1  0.20108500  0.15342800  0.88040100  1
  F  F12  1  0.07933100  0.49410500  0.83008700  1
  F  F13  1  0.57933100  0.00589500  0.83008700  1
  F  F14  1  0.60928100  0.69069800  0.87454200  1
  F  F15  1  0.10928100  0.80930200  0.87454200  1
loop_
_geom_bond_atom_site_label_1
_geom_bond_atom_site_label_2
_geom_bond_distance
_geom_bond_site_symmetry_2
Li0 O2 2.010214 1_555
Li0 O7 2.050234 1_555
Li1 O3 2.010214 1_545
Li1 O6 2.050234 1_555
Li2 O4 2.010214 1_555
Li2 O0 2.050234 1_555
Li3 O5 2.010214 1_565
Li3 O1 2.050234 1_555
Mn0 O2 1.860973 1_555
Mn0 O0 1.956242 1_555
Mn1 O2 1.845659 1_555
Mn1 O1 1.914020 1_555
Mn1 O0 2.128937 1_455
Mn2 O3 1.845659 1_555
Mn2 O0 1.914020 1_555
Mn2 O1 2.128937 1_555
Mn3 O3 1.860973 1_445
Mn3 O1 1.956242 1_545
Mn4 O5 1.845659 1_555
Mn4 O7 1.914020 1_555
Mn4 O6 2.128937 1_455
Mn5 O5 1.860973 1_565
Mn5 O6 1.956242 1_565
Mn6 O4 1.860973 1_455
Mn6 O7 1.956242 1_555
Mn7 O4 1.845659 1_555
Mn7 O6 1.914020 1_555
Mn7 O7 2.128937 1_555
F0 Li0 1.837462 1_555
F0 Li1 1.928619 1_455
F0 Mn3 2.058030 1_555
F1 Li1 1.837462 1_555
F1 Li0 1.928619 1_555
F1 Mn0 2.058030 1_555
F2 Li2 1.837462 1_555
F2 Li3 1.928619 1_555
F2 Mn5 2.058030 1_555
F3 Li3 1.837462 1_555
F3 Li2 1.928619 1_455
F3 Mn6 2.058030 1_555
F4 Li6 1.916064 1_554
F4 Mn4 2.091023 1_555
F4 Mn6 2.366595 1_555
F4 Mn7 2.472570 1_455
F5 Li7 1.916064 1_554
F5 Mn7 2.091023 1_555
F5 Mn5 2.366595 1_545
F5 Mn4 2.472570 1_555
F6 Li4 1.949029 1_555
F6 Mn7 2.009397 1_555
F6 Mn6 2.049606 1_555
F7 Li5 1.949029 1_555
F7 Mn4 2.009397 1_565
F7 Mn5 2.049606 1_455
F8 Li4 1.860620 1_555
F8 Li5 1.958115 1_655
F8 Mn5 1.990963 1_555
F9 Li5 1.860620 1_555
F9 Li4 1.958115 1_555
F9 Mn6 1.990963 1_555
F10 Li7 1.860620 1_555
F10 Li6 1.958115 1_655
F10 Mn0 1.990963 1_555
F11 Li6 1.860620 1_555
F11 Li7 1.958115 1_555
F11 Mn3 1.990963 1_555
F12 Li6 1.949029 1_555
F12 Mn1 2.009397 1_555
F12 Mn0 2.049606 1_455
F13 Li7 1.949029 1_555
F13 Mn2 2.009397 1_545
F13 Mn3 2.049606 1_555
F14 Li4 1.916064 1_556
F14 Mn2 2.091023 1_555
F14 Mn0 2.366595 1_555
F14 Mn1 2.472570 1_555
F15 Li5 1.916064 1_556
F15 Mn1 2.091023 1_555
F15 Mn3 2.366595 1_565
F15 Mn2 2.472570 1_455
