# generated using pymatgen
data_Li3Fe4(BO3)4
_symmetry_space_group_name_H-M   'P 1'
_cell_length_a   5.25119400
_cell_length_b   9.05982686
_cell_length_c   10.19564183
_cell_angle_alpha   90.14439558
_cell_angle_beta   91.55704392
_cell_angle_gamma   90.38624457
_symmetry_Int_Tables_number   1
_chemical_formula_structural   Li3Fe4(BO3)4
_chemical_formula_sum   'Li6 Fe8 B8 O24'
_cell_volume   484.86483743
_cell_formula_units_Z   2
loop_
 _symmetry_equiv_pos_site_id
 _symmetry_equiv_pos_as_xyz
  1  'x, y, z'
loop_
 _atom_site_type_symbol
 _atom_site_label
 _atom_site_symmetry_multiplicity
 _atom_site_fract_x
 _atom_site_fract_y
 _atom_site_fract_z
 _atom_site_occupancy
  Li  Li0  1  0.66553300  0.00650900  0.15808200  1
  Li  Li1  1  0.33799900  0.00652100  0.90957600  1
  Li  Li2  1  0.83906800  0.50325300  0.90497800  1
  Li  Li3  1  0.15585400  0.48856200  0.66294400  1
  Li  Li4  1  0.15817600  0.51225400  0.16583700  1
  Li  Li5  1  0.35171900  0.98895500  0.41878100  1
  Fe  Fe0  1  0.82722200  0.15868900  0.87373800  1
  Fe  Fe1  1  0.15820100  0.15324400  0.63511800  1
  Fe  Fe2  1  0.66862000  0.33908400  0.13002100  1
  Fe  Fe3  1  0.34181100  0.33429900  0.38292500  1
  Fe  Fe4  1  0.66123700  0.67348000  0.63100600  1
  Fe  Fe5  1  0.84459600  0.82954400  0.38109000  1
  Fe  Fe6  1  0.34158800  0.66438200  0.88506700  1
  Fe  Fe7  1  0.16213900  0.84161000  0.12799600  1
  B  B0  1  0.83101400  0.16646700  0.37624600  1
  B  B1  1  0.66477100  0.34072600  0.62733400  1
  B  B2  1  0.16526600  0.17094100  0.13135500  1
  B  B3  1  0.33689700  0.33081100  0.87641500  1
  B  B4  1  0.66632000  0.66878000  0.12491600  1
  B  B5  1  0.34232800  0.66859900  0.37913800  1
  B  B6  1  0.83619400  0.83456300  0.87727800  1
  B  B7  1  0.17549100  0.82562300  0.62601700  1
  O  O0  1  0.70485100  0.03425500  0.36283500  1
  O  O1  1  0.90660500  0.16515700  0.09949200  1
  O  O2  1  0.31242100  0.04632000  0.11652800  1
  O  O3  1  0.79186200  0.21505200  0.66262600  1
  O  O4  1  0.69991600  0.29751400  0.34925900  1
  O  O5  1  0.21878700  0.19576800  0.84694400  1
  O  O6  1  0.09357200  0.17197000  0.40982500  1
  O  O7  1  0.59231600  0.33637200  0.91661000  1
  O  O8  1  0.78664200  0.47609800  0.64039500  1
  O  O9  1  0.40364400  0.33620800  0.58344500  1
  O  O10  1  0.27954800  0.30472300  0.17493700  1
  O  O11  1  0.81295300  0.54337500  0.10776100  1
  O  O12  1  0.19703400  0.45957600  0.86273700  1
  O  O13  1  0.72539400  0.69900100  0.83514300  1
  O  O14  1  0.58213500  0.67792300  0.43738000  1
  O  O15  1  0.22625400  0.53226800  0.35732300  1
  O  O16  1  0.40475300  0.66251800  0.09487600  1
  O  O17  1  0.91878100  0.81685900  0.59230500  1
  O  O18  1  0.78008600  0.80004000  0.16645600  1
  O  O19  1  0.29655600  0.69403800  0.66753300  1
  O  O20  1  0.22064200  0.79746500  0.34020600  1
  O  O21  1  0.68659300  0.95662100  0.88750200  1
  O  O22  1  0.09458200  0.83806200  0.91279000  1
  O  O23  1  0.30620300  0.95470200  0.61228000  1
loop_
_geom_bond_atom_site_label_1
_geom_bond_atom_site_label_2
_geom_bond_distance
_geom_bond_site_symmetry_2
Li0 O2 1.927423 1_555
Li0 O18 1.970119 1_545
Li0 O1 2.011511 1_555
Li0 O0 2.106436 1_555
Li1 O21 1.907596 1_545
Li1 O5 1.933284 1_555
Li1 O22 1.985066 1_545
Li1 O2 2.147652 1_556
Li2 O12 1.982091 1_655
Li2 O7 1.990411 1_555
Li2 O13 2.001480 1_555
Li2 O11 2.106608 1_556
Li3 O8 1.948656 1_455
Li3 O19 1.998174 1_555
Li3 O12 2.060265 1_555
Li3 O9 2.081155 1_555
Li4 O11 1.914645 1_455
Li4 O15 1.982840 1_555
Li4 O10 1.990923 1_555
Li4 O16 2.021246 1_555
Li5 O0 1.995211 1_565
Li5 O20 2.017984 1_555
Li5 O23 2.018233 1_555
Li5 O6 2.149307 1_565
Fe0 O21 1.976157 1_545
Fe0 O7 2.087244 1_555
Fe0 O5 2.106429 1_655
Fe0 O3 2.216585 1_555
Fe0 O1 2.328499 1_556
Fe1 O23 1.979983 1_545
Fe1 O3 2.033707 1_455
Fe1 O9 2.167707 1_555
Fe1 O5 2.206982 1_555
Fe1 O6 2.319607 1_555
Fe2 O11 2.010999 1_555
Fe2 O1 2.046179 1_555
Fe2 O10 2.126933 1_555
Fe2 O7 2.201760 1_554
Fe2 O4 2.269450 1_555
Fe3 O15 1.913546 1_555
Fe3 O4 1.951419 1_555
Fe3 O6 1.983169 1_555
Fe3 O9 2.061333 1_555
Fe3 O10 2.152626 1_555
Fe4 O8 1.911534 1_555
Fe4 O17 1.918329 1_555
Fe4 O19 1.970753 1_555
Fe4 O14 2.006853 1_555
Fe4 O13 2.111214 1_555
Fe5 O0 2.006371 1_565
Fe5 O14 2.034030 1_555
Fe5 O20 2.051702 1_655
Fe5 O17 2.181437 1_555
Fe5 O18 2.220483 1_555
Fe6 O12 2.010083 1_555
Fe6 O22 2.069646 1_555
Fe6 O13 2.113644 1_555
Fe6 O16 2.155902 1_556
Fe6 O19 2.241102 1_555
Fe7 O2 2.015564 1_565
Fe7 O18 2.086597 1_455
Fe7 O16 2.101968 1_555
Fe7 O22 2.213239 1_554
Fe7 O20 2.214830 1_555
B0 O0 1.369646 1_555
B0 O4 1.400570 1_555
B0 O6 1.412078 1_655
B1 O3 1.367664 1_555
B1 O8 1.383990 1_555
B1 O9 1.431078 1_555
B2 O2 1.382741 1_555
B2 O1 1.388589 1_455
B2 O10 1.414078 1_555
B3 O12 1.388019 1_555
B3 O7 1.392323 1_555
B3 O5 1.396286 1_555
B4 O18 1.387294 1_555
B4 O11 1.390120 1_555
B4 O16 1.399869 1_555
B5 O14 1.379564 1_555
B5 O20 1.388363 1_555
B5 O15 1.388398 1_555
B6 O21 1.366176 1_555
B6 O22 1.394917 1_655
B6 O13 1.416192 1_555
B7 O23 1.361453 1_555
B7 O17 1.383792 1_455
B7 O19 1.415153 1_555
