# generated using pymatgen
data_SbPHO5
_symmetry_space_group_name_H-M   'P 1'
_cell_length_a   5.22904700
_cell_length_b   5.64916235
_cell_length_c   7.70865302
_cell_angle_alpha   109.09856826
_cell_angle_beta   105.92804376
_cell_angle_gamma   94.84799401
_symmetry_Int_Tables_number   1
_chemical_formula_structural   SbPHO5
_chemical_formula_sum   'Sb2 P2 H2 O10'
_cell_volume   203.07387231
_cell_formula_units_Z   2
loop_
 _symmetry_equiv_pos_site_id
 _symmetry_equiv_pos_as_xyz
  1  'x, y, z'
loop_
 _atom_site_type_symbol
 _atom_site_label
 _atom_site_symmetry_multiplicity
 _atom_site_fract_x
 _atom_site_fract_y
 _atom_site_fract_z
 _atom_site_occupancy
  Sb  Sb0  1  0.50000000  0.50000000  0.50000000  1
  Sb  Sb1  1  0.00000000  0.00000000  0.00000000  1
  P  P0  1  0.57520500  0.87519300  0.22275700  1
  P  P1  1  0.42479500  0.12480700  0.77724300  1
  H  H0  1  0.94062700  0.26656500  0.30747100  1
  H  H1  1  0.05937300  0.73343500  0.69252900  1
  O  O0  1  0.90983800  0.70522900  0.74875000  1
  O  O1  1  0.68476700  0.15882800  0.35968500  1
  O  O2  1  0.34921200  0.31229000  0.67730100  1
  O  O3  1  0.69318600  0.82205500  0.04858500  1
  O  O4  1  0.25765000  0.81983900  0.13368700  1
  O  O5  1  0.74235000  0.18016100  0.86631300  1
  O  O6  1  0.30681400  0.17794500  0.95141500  1
  O  O7  1  0.65078800  0.68771000  0.32269900  1
  O  O8  1  0.31523300  0.84117200  0.64031500  1
  O  O9  1  0.09016200  0.29477100  0.25125000  1
loop_
_geom_bond_atom_site_label_1
_geom_bond_atom_site_label_2
_geom_bond_distance
_geom_bond_site_symmetry_2
H0 O9 1.017226 1_655
H0 O1 1.625008 1_555
H1 O0 1.017226 1_455
H1 O8 1.625008 1_555
O0 Sb1 2.000498 1_666
O0 Sb0 2.341697 1_555
O1 P0 1.554321 1_545
O1 Sb0 2.311309 1_555
O2 P1 1.519565 1_555
O2 Sb0 2.238914 1_555
O3 P0 1.579732 1_555
O3 Sb1 2.007054 1_665
O4 P0 1.572411 1_555
O4 Sb1 2.017189 1_565
O5 P1 1.572411 1_555
O5 Sb1 2.017189 1_656
O6 P1 1.579732 1_555
O6 Sb1 2.007054 1_556
O7 P0 1.519565 1_555
O7 Sb0 2.238914 1_555
O8 P1 1.554321 1_565
O8 Sb0 2.311309 1_555
O9 Sb1 2.000498 1_555
O9 Sb0 2.341697 1_555
