# generated using pymatgen
data_Mn3Fe3(SbO8)2
_symmetry_space_group_name_H-M   'P 1'
_cell_length_a   5.95011500
_cell_length_b   5.95011500
_cell_length_c   9.28943273
_cell_angle_alpha   88.82696840
_cell_angle_beta   88.82696840
_cell_angle_gamma   59.53506762
_symmetry_Int_Tables_number   1
_chemical_formula_structural   Mn3Fe3(SbO8)2
_chemical_formula_sum   'Mn3 Fe3 Sb2 O16'
_cell_volume   283.39746093
_cell_formula_units_Z   1
loop_
 _symmetry_equiv_pos_site_id
 _symmetry_equiv_pos_as_xyz
  1  'x, y, z'
loop_
 _atom_site_type_symbol
 _atom_site_label
 _atom_site_symmetry_multiplicity
 _atom_site_fract_x
 _atom_site_fract_y
 _atom_site_fract_z
 _atom_site_occupancy
  Mn  Mn0  1  0.82952000  0.82952000  0.21341400  1
  Mn  Mn1  1  0.66230700  0.16655400  0.71187700  1
  Mn  Mn2  1  0.16655400  0.66230700  0.71187700  1
  Fe  Fe0  1  0.82949300  0.33224400  0.20944700  1
  Fe  Fe1  1  0.33224400  0.82949300  0.20944700  1
  Fe  Fe2  1  0.16561500  0.16561500  0.70941700  1
  Sb  Sb0  1  0.66678300  0.66678300  0.48983800  1
  Sb  Sb1  1  0.33231900  0.33231900  0.99050500  1
  O  O0  1  0.83093100  0.33322900  0.60094400  1
  O  O1  1  0.52141800  0.52141800  0.34369100  1
  O  O2  1  0.67277700  0.67277700  0.10691800  1
  O  O3  1  0.99296500  0.99296500  0.30701000  1
  O  O4  1  0.99270400  0.99270400  0.80773100  1
  O  O5  1  0.33322900  0.83093100  0.60094400  1
  O  O6  1  0.96311800  0.52933800  0.34053800  1
  O  O7  1  0.52933800  0.96311800  0.34053800  1
  O  O8  1  0.16529600  0.16529600  0.09784700  1
  O  O9  1  0.83420700  0.83420700  0.60393900  1
  O  O10  1  0.48993700  0.04124100  0.83950100  1
  O  O11  1  0.04124100  0.48993700  0.83950100  1
  O  O12  1  0.34048400  0.34048400  0.60788900  1
  O  O13  1  0.66278500  0.16433900  0.10020900  1
  O  O14  1  0.48031000  0.48031000  0.83269500  1
  O  O15  1  0.16433900  0.66278500  0.10020900  1
loop_
_geom_bond_atom_site_label_1
_geom_bond_atom_site_label_2
_geom_bond_distance
_geom_bond_site_symmetry_2
Mn0 O3 1.917242 1_555
Mn0 O2 1.917260 1_555
Mn0 O6 1.931064 1_555
Mn0 O7 1.931064 1_555
Mn0 O13 2.002949 1_565
Mn0 O15 2.002949 1_655
Mn1 O12 1.922560 1_555
Mn1 O4 1.923417 1_545
Mn1 O10 1.924285 1_555
Mn1 O14 1.975749 1_555
Mn1 O9 1.987525 1_545
Mn1 O0 1.994234 1_555
Mn2 O12 1.922560 1_555
Mn2 O4 1.923417 1_455
Mn2 O11 1.924285 1_555
Mn2 O14 1.975749 1_555
Mn2 O9 1.987525 1_455
Mn2 O5 1.994234 1_555
Fe0 O3 1.952664 1_545
Fe0 O2 1.980818 1_555
Fe0 O8 1.999626 1_655
Fe0 O1 2.013438 1_555
Fe0 O13 2.024694 1_555
Fe0 O6 2.129322 1_555
Fe1 O3 1.952664 1_455
Fe1 O2 1.980818 1_555
Fe1 O8 1.999626 1_565
Fe1 O1 2.013438 1_555
Fe1 O15 2.024694 1_555
Fe1 O7 2.129322 1_555
Fe2 O4 1.986836 1_445
Fe2 O0 2.000703 1_455
Fe2 O5 2.000703 1_545
Fe2 O12 2.017968 1_555
Fe2 O10 2.083890 1_555
Fe2 O11 2.083890 1_555
O0 Sb0 1.987449 1_555
O1 Sb0 2.047960 1_555
O5 Sb0 1.987449 1_555
O6 Sb0 2.045830 1_555
O7 Sb0 2.045830 1_555
O8 Sb1 1.972296 1_554
O9 Sb0 2.049643 1_555
O10 Sb1 2.060440 1_555
O11 Sb1 2.060440 1_555
O13 Sb1 1.987806 1_554
O14 Sb1 2.092940 1_555
O15 Sb1 1.987806 1_554
