# generated using pymatgen
data_Ta2CrNO5
_symmetry_space_group_name_H-M   'P 1'
_cell_length_a   4.74391476
_cell_length_b   10.42464379
_cell_length_c   9.48769051
_cell_angle_alpha   62.93157464
_cell_angle_beta   90.42585321
_cell_angle_gamma   90.19394467
_symmetry_Int_Tables_number   1
_chemical_formula_structural   Ta2CrNO5
_chemical_formula_sum   'Ta8 Cr4 N4 O20'
_cell_volume   417.79461717
_cell_formula_units_Z   4
loop_
 _symmetry_equiv_pos_site_id
 _symmetry_equiv_pos_as_xyz
  1  'x, y, z'
loop_
 _atom_site_type_symbol
 _atom_site_label
 _atom_site_symmetry_multiplicity
 _atom_site_fract_x
 _atom_site_fract_y
 _atom_site_fract_z
 _atom_site_occupancy
  Ta  Ta0  1  0.99999400  0.34348600  0.32826500  1
  Ta  Ta1  1  0.99999700  0.34348400  0.82826000  1
  Ta  Ta2  1  0.00000700  0.65651100  0.17174200  1
  Ta  Ta3  1  0.00000800  0.65651300  0.67173400  1
  Ta  Ta4  1  0.49999600  0.16804200  0.16597600  1
  Ta  Ta5  1  0.49999800  0.16804000  0.66597900  1
  Ta  Ta6  1  0.50000300  0.83195600  0.83402400  1
  Ta  Ta7  1  0.50000600  0.83196300  0.33402200  1
  Cr  Cr0  1  0.49996200  0.50001400  0.99998300  1
  Cr  Cr1  1  0.00000400  0.99998800  0.50001700  1
  Cr  Cr2  1  0.99997200  0.99997700  0.00000900  1
  Cr  Cr3  1  0.50002000  0.50003900  0.49998500  1
  N  N0  1  0.19586500  0.50000200  0.84792600  1
  N  N1  1  0.19585800  0.50000200  0.34793000  1
  N  N2  1  0.80413600  0.50000000  0.15207200  1
  N  N3  1  0.80414300  0.49999700  0.65207000  1
  O  O0  1  0.30635900  0.99999600  0.34682300  1
  O  O1  1  0.30635900  0.00000000  0.84682100  1
  O  O2  1  0.69364400  0.99999700  0.15318000  1
  O  O3  1  0.69364300  0.00000200  0.65317900  1
  O  O4  1  0.19930000  0.83575000  0.68176900  1
  O  O5  1  0.19929400  0.83574500  0.18176600  1
  O  O6  1  0.19929700  0.16424500  0.01752300  1
  O  O7  1  0.19928800  0.16424900  0.51751700  1
  O  O8  1  0.80070200  0.16424800  0.31823300  1
  O  O9  1  0.80071000  0.16425100  0.81823600  1
  O  O10  1  0.80070500  0.83575200  0.98247800  1
  O  O11  1  0.80071300  0.83575100  0.48248200  1
  O  O12  1  0.30444300  0.32638600  0.18458300  1
  O  O13  1  0.30445000  0.32637900  0.68458500  1
  O  O14  1  0.30444300  0.67361200  0.01096500  1
  O  O15  1  0.30444700  0.67362100  0.51096000  1
  O  O16  1  0.69556200  0.32638800  0.98903300  1
  O  O17  1  0.69555600  0.32637900  0.48904100  1
  O  O18  1  0.69555900  0.67361300  0.81541700  1
  O  O19  1  0.69555600  0.67362100  0.31541400  1
loop_
_geom_bond_atom_site_label_1
_geom_bond_atom_site_label_2
_geom_bond_distance
_geom_bond_site_symmetry_2
Cr0 N0 2.032645 1_555
Cr0 N2 2.033029 1_556
Cr0 O14 2.081003 1_556
Cr0 O18 2.081121 1_555
Cr0 O12 2.081246 1_556
Cr0 O16 2.081300 1_555
Cr1 O4 2.024482 1_555
Cr1 O11 2.024540 1_455
Cr1 O7 2.024591 1_565
Cr1 O8 2.024742 1_465
Cr1 O3 2.062879 1_465
Cr1 O0 2.063001 1_555
Cr2 O10 2.024359 1_554
Cr2 O5 2.024533 1_655
Cr2 O9 2.024672 1_564
Cr2 O6 2.024807 1_665
Cr2 O2 2.062849 1_555
Cr2 O1 2.063017 1_664
Cr3 N3 2.032739 1_555
Cr3 N1 2.032933 1_555
Cr3 O19 2.080926 1_555
Cr3 O15 2.080939 1_555
Cr3 O17 2.081455 1_555
Cr3 O13 2.081516 1_555
N0 Ta3 1.955674 1_555
N0 Ta1 1.955681 1_455
N1 Ta2 1.955633 1_555
N1 Ta0 1.955649 1_455
N2 Ta2 1.955642 1_655
N2 Ta0 1.955694 1_555
N3 Ta3 1.955647 1_655
N3 Ta1 1.955667 1_555
O0 Ta7 2.033035 1_555
O0 Ta4 2.033140 1_565
O1 Ta5 2.033093 1_555
O1 Ta6 2.033113 1_545
O2 Ta7 2.033061 1_555
O2 Ta4 2.033127 1_565
O3 Ta5 2.033073 1_555
O3 Ta6 2.033137 1_545
O4 Ta6 2.010215 1_555
O4 Ta3 2.131367 1_555
O5 Ta7 2.010290 1_555
O5 Ta2 2.131282 1_555
O6 Ta4 2.010159 1_555
O6 Ta1 2.131371 1_454
O7 Ta5 2.010234 1_555
O7 Ta0 2.131302 1_455
O8 Ta4 2.010239 1_555
O8 Ta0 2.131364 1_555
O9 Ta5 2.010275 1_555
O9 Ta1 2.131273 1_555
O10 Ta6 2.010172 1_555
O10 Ta2 2.131390 1_656
O11 Ta7 2.010201 1_555
O11 Ta3 2.131310 1_655
O12 Ta4 1.973455 1_555
O12 Ta0 2.056268 1_455
O13 Ta5 1.973394 1_555
O13 Ta1 2.056255 1_455
O14 Ta6 1.973432 1_554
O14 Ta2 2.056189 1_555
O15 Ta7 1.973407 1_555
O15 Ta3 2.056161 1_555
O16 Ta4 1.973463 1_556
O16 Ta1 2.056172 1_555
O17 Ta5 1.973390 1_555
O17 Ta0 2.056173 1_555
O18 Ta6 1.973453 1_555
O18 Ta3 2.056275 1_655
O19 Ta7 1.973435 1_555
O19 Ta2 2.056248 1_655
