# generated using pymatgen
data_Li2MnFe(BO3)2
_symmetry_space_group_name_H-M   'P 1'
_cell_length_a   5.24411087
_cell_length_b   10.43001731
_cell_length_c   5.23912296
_cell_angle_alpha   89.10303109
_cell_angle_beta   59.95440560
_cell_angle_gamma   88.20790061
_symmetry_Int_Tables_number   1
_chemical_formula_structural   Li2MnFe(BO3)2
_chemical_formula_sum   'Li4 Mn2 Fe2 B4 O12'
_cell_volume   247.93276764
_cell_formula_units_Z   2
loop_
 _symmetry_equiv_pos_site_id
 _symmetry_equiv_pos_as_xyz
  1  'x, y, z'
loop_
 _atom_site_type_symbol
 _atom_site_label
 _atom_site_symmetry_multiplicity
 _atom_site_fract_x
 _atom_site_fract_y
 _atom_site_fract_z
 _atom_site_occupancy
  Li  Li0  1  0.67783700  0.33282800  0.97488900  1
  Li  Li1  1  0.65271200  0.83288600  0.02507400  1
  Li  Li2  1  0.34827100  0.58227700  0.98583800  1
  Li  Li3  1  0.33422300  0.08221700  0.01392400  1
  Mn  Mn0  1  0.00103900  0.36671600  0.32270600  1
  Mn  Mn1  1  0.32395200  0.86691500  0.67698400  1
  Fe  Fe0  1  0.67470900  0.11647100  0.32599200  1
  Fe  Fe1  1  0.99927600  0.61630900  0.67408600  1
  B  B0  1  0.99711700  0.87437300  0.34255000  1
  B  B1  1  0.33964000  0.37440600  0.65738900  1
  B  B2  1  0.66954200  0.62383300  0.33625500  1
  B  B3  1  0.00552100  0.12372100  0.66422700  1
  O  O0  1  0.93315200  0.58453500  0.32042700  1
  O  O1  1  0.25353800  0.08459600  0.67933800  1
  O  O2  1  0.74665100  0.90603000  0.32102500  1
  O  O3  1  0.06759900  0.40596700  0.67886300  1
  O  O4  1  0.96593200  0.83265100  0.61068300  1
  O  O5  1  0.57670700  0.33265100  0.38928500  1
  O  O6  1  0.41971900  0.65334800  0.60773400  1
  O  O7  1  0.02732200  0.15331100  0.39249100  1
  O  O8  1  0.73186700  0.13665300  0.91907100  1
  O  O9  1  0.65113700  0.63674400  0.08123900  1
  O  O10  1  0.37003700  0.38838300  0.90297400  1
  O  O11  1  0.27310200  0.88838100  0.09695800  1
loop_
_geom_bond_atom_site_label_1
_geom_bond_atom_site_label_2
_geom_bond_distance
_geom_bond_site_symmetry_2
Li0 O10 1.904419 1_555
Li0 O5 1.960041 1_556
Li0 O3 2.012742 1_655
Li0 O8 2.062004 1_555
Li1 O11 1.903632 1_555
Li1 O4 1.959688 1_554
Li1 O2 2.013513 1_555
Li1 O9 2.061937 1_555
Li2 O6 1.960133 1_555
Li2 O9 1.988815 1_556
Li2 O0 1.997297 1_456
Li2 O10 2.062692 1_555
Li3 O7 1.961819 1_555
Li3 O8 1.986268 1_554
Li3 O1 1.998285 1_554
Li3 O11 2.062201 1_545
Mn0 O10 2.093308 1_554
Mn0 O3 2.110986 1_555
Mn0 O5 2.113746 1_455
Mn0 O7 2.261135 1_555
Mn0 O0 2.289330 1_455
Mn1 O11 2.094440 1_556
Mn1 O2 2.109773 1_555
Mn1 O4 2.114778 1_455
Mn1 O6 2.262413 1_555
Mn1 O1 2.288051 1_565
Fe0 O8 2.007282 1_554
Fe0 O1 2.085199 1_555
Fe0 O7 2.093347 1_655
Fe0 O2 2.213770 1_545
Fe0 O5 2.288735 1_555
Fe1 O9 2.004715 1_556
Fe1 O0 2.081579 1_555
Fe1 O6 2.100714 1_655
Fe1 O3 2.213632 1_655
Fe1 O4 2.289652 1_555
B0 O11 1.383522 1_655
B0 O4 1.394554 1_555
B0 O2 1.402491 1_555
B1 O10 1.383777 1_555
B1 O5 1.394578 1_555
B1 O3 1.402608 1_555
B2 O9 1.391112 1_555
B2 O0 1.391668 1_555
B2 O6 1.398801 1_555
B3 O1 1.390442 1_555
B3 O8 1.391085 1_455
B3 O7 1.400209 1_555
