# generated using pymatgen
data_Li2Cu3F11
_symmetry_space_group_name_H-M   'P 1'
_cell_length_a   9.13346446
_cell_length_b   7.29583900
_cell_length_c   6.20153931
_cell_angle_alpha   90.00000000
_cell_angle_beta   93.58824830
_cell_angle_gamma   90.00000000
_symmetry_Int_Tables_number   1
_chemical_formula_structural   Li2Cu3F11
_chemical_formula_sum   'Li4 Cu6 F22'
_cell_volume   412.43741240
_cell_formula_units_Z   2
loop_
 _symmetry_equiv_pos_site_id
 _symmetry_equiv_pos_as_xyz
  1  'x, y, z'
loop_
 _atom_site_type_symbol
 _atom_site_label
 _atom_site_symmetry_multiplicity
 _atom_site_fract_x
 _atom_site_fract_y
 _atom_site_fract_z
 _atom_site_occupancy
  Li  Li0  1  0.14118400  0.75000000  0.15251600  1
  Li  Li1  1  0.24418900  0.25000000  0.23996500  1
  Li  Li2  1  0.73996700  0.75000000  0.76389400  1
  Li  Li3  1  0.83985900  0.25000000  0.86932700  1
  Cu  Cu0  1  0.11751000  0.50092500  0.68285500  1
  Cu  Cu1  1  0.11751000  0.99907500  0.68285500  1
  Cu  Cu2  1  0.49291600  0.50015600  0.51851200  1
  Cu  Cu3  1  0.49291600  0.99984400  0.51851200  1
  Cu  Cu4  1  0.86882200  0.49856300  0.34184300  1
  Cu  Cu5  1  0.86882200  0.00143700  0.34184300  1
  F  F0  1  0.05676200  0.25000000  0.75812900  1
  F  F1  1  0.14660600  0.95690700  0.97651000  1
  F  F2  1  0.14660600  0.54309300  0.97651000  1
  F  F3  1  0.15436200  0.75000000  0.58991400  1
  F  F4  1  0.08473300  0.05676800  0.37233600  1
  F  F5  1  0.08473300  0.44323200  0.37233600  1
  F  F6  1  0.31856300  0.05579400  0.66693100  1
  F  F7  1  0.31856300  0.44420600  0.66693100  1
  F  F8  1  0.43375100  0.75000000  0.47064400  1
  F  F9  1  0.39355100  0.05786300  0.26476300  1
  F  F10  1  0.39355100  0.44213700  0.26476300  1
  F  F11  1  0.55099200  0.25000000  0.56710600  1
  F  F12  1  0.59230800  0.55765400  0.77050500  1
  F  F13  1  0.59230800  0.94234600  0.77050500  1
  F  F14  1  0.66842400  0.55892500  0.37268300  1
  F  F15  1  0.66842400  0.94107500  0.37268300  1
  F  F16  1  0.90208900  0.55528800  0.65212500  1
  F  F17  1  0.90208900  0.94471200  0.65212500  1
  F  F18  1  0.82835700  0.25000000  0.43353000  1
  F  F19  1  0.83626600  0.04584800  0.04976900  1
  F  F20  1  0.83626600  0.45415200  0.04976900  1
  F  F21  1  0.92838100  0.75000000  0.26265900  1
loop_
_geom_bond_atom_site_label_1
_geom_bond_atom_site_label_2
_geom_bond_distance
_geom_bond_site_symmetry_2
Cu0 F2 1.849634 1_555
Cu0 F7 1.890960 1_555
Cu0 F3 1.942174 1_555
Cu0 F5 1.975585 1_555
Cu0 F0 1.977290 1_555
Cu0 F16 2.004472 1_455
Cu1 F1 1.849634 1_555
Cu1 F6 1.890960 1_565
Cu1 F3 1.942174 1_555
Cu1 F4 1.975585 1_565
Cu1 F0 1.977290 1_565
Cu1 F17 2.004472 1_455
Cu2 F12 1.806837 1_555
Cu2 F10 1.816696 1_555
Cu2 F8 1.919045 1_555
Cu2 F11 1.919154 1_555
Cu2 F7 1.932141 1_555
Cu2 F14 1.937208 1_555
Cu3 F13 1.806837 1_555
Cu3 F9 1.816696 1_565
Cu3 F8 1.919045 1_555
Cu3 F11 1.919154 1_565
Cu3 F6 1.932141 1_565
Cu3 F15 1.937208 1_555
Cu4 F20 1.845758 1_555
Cu4 F14 1.903797 1_555
Cu4 F18 1.942910 1_555
Cu4 F16 1.973084 1_555
Cu4 F21 1.983854 1_555
Cu4 F5 2.010196 1_655
Cu5 F19 1.845758 1_555
Cu5 F15 1.903797 1_545
Cu5 F18 1.942910 1_555
Cu5 F17 1.973084 1_545
Cu5 F21 1.983854 1_545
Cu5 F4 2.010196 1_655
F0 Li3 2.138039 1_455
F1 Li0 1.865310 1_556
F2 Li0 1.865310 1_556
F4 Li1 2.220833 1_555
F5 Li1 2.220833 1_555
F9 Li1 1.955366 1_555
F10 Li1 1.955366 1_555
F12 Li2 1.948525 1_555
F13 Li2 1.948525 1_555
F16 Li2 2.195350 1_555
F17 Li2 2.195350 1_555
F19 Li3 1.864502 1_554
F20 Li3 1.864502 1_554
F21 Li0 2.100104 1_655
