# generated using pymatgen
data_Li3V2(CO5)2
_symmetry_space_group_name_H-M   'P 1'
_cell_length_a   5.76585800
_cell_length_b   9.58908800
_cell_length_c   11.90259000
_cell_angle_alpha   90.00000000
_cell_angle_beta   90.00000000
_cell_angle_gamma   90.00000000
_symmetry_Int_Tables_number   1
_chemical_formula_structural   Li3V2(CO5)2
_chemical_formula_sum   'Li12 V8 C8 O40'
_cell_volume   658.08610445
_cell_formula_units_Z   4
loop_
 _symmetry_equiv_pos_site_id
 _symmetry_equiv_pos_as_xyz
  1  'x, y, z'
loop_
 _atom_site_type_symbol
 _atom_site_label
 _atom_site_symmetry_multiplicity
 _atom_site_fract_x
 _atom_site_fract_y
 _atom_site_fract_z
 _atom_site_occupancy
  Li  Li0  1  0.74556500  0.75288100  0.49654300  1
  Li  Li1  1  0.25443500  0.75288100  0.49654300  1
  Li  Li2  1  0.50000000  0.74789900  0.00155700  1
  Li  Li3  1  0.00000000  0.75338000  0.27912900  1
  Li  Li4  1  0.00000000  0.24662000  0.77912900  1
  Li  Li5  1  0.50000000  0.25210100  0.50155700  1
  Li  Li6  1  0.74556500  0.24711900  0.99654300  1
  Li  Li7  1  0.25443500  0.24711900  0.99654300  1
  Li  Li8  1  0.00000000  0.25221800  0.22017500  1
  Li  Li9  1  0.50000000  0.25233000  0.21816800  1
  Li  Li10  1  0.00000000  0.74778200  0.72017500  1
  Li  Li11  1  0.50000000  0.74767000  0.71816800  1
  V  V0  1  0.25011100  0.98973200  0.11148800  1
  V  V1  1  0.74988900  0.98973200  0.11148800  1
  V  V2  1  0.74988900  0.01026800  0.61148800  1
  V  V3  1  0.25011100  0.01026800  0.61148800  1
  V  V4  1  0.75031500  0.49367900  0.38820500  1
  V  V5  1  0.24968500  0.49367900  0.38820500  1
  V  V6  1  0.75031500  0.50632100  0.88820500  1
  V  V7  1  0.24968500  0.50632100  0.88820500  1
  C  C0  1  0.24948700  0.98761600  0.86222100  1
  C  C1  1  0.75051300  0.98761600  0.86222100  1
  C  C2  1  0.75051300  0.01238400  0.36222100  1
  C  C3  1  0.24948700  0.01238400  0.36222100  1
  C  C4  1  0.75006100  0.49059700  0.63897400  1
  C  C5  1  0.24993900  0.49059700  0.63897400  1
  C  C6  1  0.75006100  0.50940300  0.13897400  1
  C  C7  1  0.24993900  0.50940300  0.13897400  1
  O  O0  1  0.00000000  0.87683600  0.14766500  1
  O  O1  1  0.50000000  0.87421000  0.14333100  1
  O  O2  1  0.00000000  0.88178800  0.57599400  1
  O  O3  1  0.50000000  0.87962600  0.57785900  1
  O  O4  1  0.76193200  0.88173700  0.36317100  1
  O  O5  1  0.23806800  0.88173700  0.36317100  1
  O  O6  1  0.26010100  0.91148100  0.95443000  1
  O  O7  1  0.73989900  0.91148100  0.95443000  1
  O  O8  1  0.74873900  0.91481300  0.76706700  1
  O  O9  1  0.25126100  0.91481300  0.76706700  1
  O  O10  1  0.74873900  0.08518700  0.26706700  1
  O  O11  1  0.25126100  0.08518700  0.26706700  1
  O  O12  1  0.73989900  0.08851900  0.45443000  1
  O  O13  1  0.26010100  0.08851900  0.45443000  1
  O  O14  1  0.76193200  0.11826300  0.86317100  1
  O  O15  1  0.23806800  0.11826300  0.86317100  1
  O  O16  1  0.00000000  0.11821200  0.07599400  1
  O  O17  1  0.50000000  0.12037400  0.07785900  1
  O  O18  1  0.00000000  0.12316400  0.64766500  1
  O  O19  1  0.50000000  0.12579000  0.64333100  1
  O  O20  1  0.00000000  0.37673900  0.35265600  1
  O  O21  1  0.50000000  0.37172200  0.35457300  1
  O  O22  1  0.00000000  0.38052100  0.92395800  1
  O  O23  1  0.50000000  0.38529600  0.92550800  1
  O  O24  1  0.75024500  0.37660600  0.13761100  1
  O  O25  1  0.24975500  0.37660600  0.13761100  1
  O  O26  1  0.74396500  0.41545400  0.54664800  1
  O  O27  1  0.25603500  0.41545400  0.54664800  1
  O  O28  1  0.75619200  0.41960300  0.73301800  1
  O  O29  1  0.24380800  0.41960300  0.73301800  1
  O  O30  1  0.24380800  0.58039700  0.23301800  1
  O  O31  1  0.75619200  0.58039700  0.23301800  1
  O  O32  1  0.74396500  0.58454600  0.04664800  1
  O  O33  1  0.25603500  0.58454600  0.04664800  1
  O  O34  1  0.75024500  0.62339400  0.63761100  1
  O  O35  1  0.24975500  0.62339400  0.63761100  1
  O  O36  1  0.00000000  0.61947900  0.42395800  1
  O  O37  1  0.50000000  0.61470400  0.42550800  1
  O  O38  1  0.00000000  0.62326100  0.85265600  1
  O  O39  1  0.50000000  0.62827800  0.85457300  1
loop_
_geom_bond_atom_site_label_1
_geom_bond_atom_site_label_2
_geom_bond_distance
_geom_bond_site_symmetry_2
Li0 O4 2.013879 1_555
Li0 O34 2.088479 1_555
Li0 O3 2.102058 1_555
Li0 O37 2.115473 1_555
Li0 O36 2.129546 1_655
Li0 O2 2.138793 1_655
Li1 O5 2.013879 1_555
Li1 O35 2.088479 1_555
Li1 O3 2.102058 1_555
Li1 O37 2.115473 1_555
Li1 O36 2.129546 1_555
Li1 O2 2.138793 1_555
Li2 O1 2.077163 1_555
Li2 O39 2.091998 1_554
Li2 O7 2.165287 1_554
Li2 O6 2.165287 1_554
Li2 O32 2.172646 1_555
Li2 O33 2.172646 1_555
Li3 O0 1.962125 1_555
Li3 O5 2.097566 1_555
Li3 O4 2.097566 1_455
Li3 O36 2.149477 1_555
Li3 O30 2.242508 1_555
Li3 O31 2.242508 1_455
Li4 O18 1.962125 1_555
Li4 O15 2.097566 1_555
Li4 O14 2.097566 1_455
Li4 O22 2.149477 1_555
Li4 O28 2.242508 1_455
Li4 O29 2.242508 1_555
Li5 O19 2.077163 1_555
Li5 O21 2.091998 1_555
Li5 O12 2.165287 1_555
Li5 O13 2.165287 1_555
Li5 O27 2.172646 1_555
Li5 O26 2.172646 1_555
Li6 O14 2.013879 1_555
Li6 O24 2.088479 1_556
Li6 O17 2.102058 1_556
Li6 O23 2.115473 1_555
Li6 O22 2.129546 1_655
Li6 O16 2.138793 1_656
Li7 O15 2.013879 1_555
Li7 O25 2.088479 1_556
Li7 O17 2.102058 1_556
Li7 O23 2.115473 1_555
Li7 O22 2.129546 1_555
Li7 O16 2.138793 1_556
Li8 O20 1.977940 1_555
Li8 O25 2.112390 1_555
Li8 O24 2.112390 1_455
Li8 O16 2.143900 1_555
Li8 O11 2.230631 1_555
Li8 O10 2.230631 1_455
Li9 O21 1.986629 1_555
Li9 O17 2.095260 1_555
Li9 O24 2.102712 1_555
Li9 O25 2.102712 1_555
Li9 O10 2.228109 1_555
Li9 O11 2.228109 1_555
Li10 O38 1.977940 1_555
Li10 O35 2.112390 1_555
Li10 O34 2.112390 1_455
Li10 O2 2.143900 1_555
Li10 O9 2.230631 1_555
Li10 O8 2.230631 1_455
Li11 O39 1.986629 1_555
Li11 O3 2.095260 1_555
Li11 O34 2.102712 1_555
Li11 O35 2.102712 1_555
Li11 O8 2.228109 1_555
Li11 O9 2.228109 1_555
C0 O15 1.254565 1_565
C0 O6 1.319585 1_555
C0 O9 1.330490 1_555
C1 O14 1.254565 1_565
C1 O7 1.319585 1_555
C1 O8 1.330490 1_555
C2 O4 1.254565 1_545
C2 O12 1.319585 1_555
C2 O10 1.330490 1_555
C3 O5 1.254565 1_545
C3 O13 1.319585 1_555
C3 O11 1.330490 1_555
C4 O34 1.273506 1_555
C4 O28 1.310602 1_555
C4 O26 1.314555 1_555
C5 O35 1.273506 1_555
C5 O29 1.310602 1_555
C5 O27 1.314555 1_555
C6 O24 1.273506 1_555
C6 O31 1.310602 1_555
C6 O32 1.314555 1_555
C7 O25 1.273506 1_555
C7 O30 1.310602 1_555
C7 O33 1.314555 1_555
O0 V0 1.853925 1_555
O0 V1 1.853925 1_455
O1 V1 1.856539 1_555
O1 V0 1.856539 1_555
O2 V3 1.943190 1_565
O2 V2 1.943190 1_465
O3 V2 1.950781 1_565
O3 V3 1.950781 1_565
O6 V0 2.015191 1_556
O7 V1 2.015191 1_556
O8 V2 2.065673 1_565
O9 V3 2.065673 1_565
O10 V1 2.065673 1_545
O11 V0 2.065673 1_545
O12 V2 2.015191 1_555
O13 V3 2.015191 1_555
O16 V0 1.943190 1_545
O16 V1 1.943190 1_445
O17 V1 1.950781 1_545
O17 V0 1.950781 1_545
O18 V3 1.853925 1_555
O18 V2 1.853925 1_455
O19 V2 1.856539 1_555
O19 V3 1.856539 1_555
O20 V5 1.873244 1_555
O20 V4 1.873244 1_455
O21 V4 1.900246 1_555
O21 V5 1.900246 1_555
O22 V7 1.925840 1_555
O22 V6 1.925840 1_455
O23 V6 1.904469 1_555
O23 V7 1.904469 1_555
O26 V4 2.029914 1_555
O27 V5 2.029914 1_555
O28 V6 2.025956 1_555
O29 V7 2.025956 1_555
O30 V5 2.025956 1_555
O31 V4 2.025956 1_555
O32 V6 2.029914 1_554
O33 V7 2.029914 1_554
O36 V5 1.925840 1_555
O36 V4 1.925840 1_455
O37 V4 1.904469 1_555
O37 V5 1.904469 1_555
O38 V7 1.873244 1_555
O38 V6 1.873244 1_455
O39 V6 1.900246 1_555
O39 V7 1.900246 1_555
