# generated using pymatgen
data_Mn12O7F17
_symmetry_space_group_name_H-M   'P 1'
_cell_length_a   4.82324300
_cell_length_b   5.81488962
_cell_length_c   15.79341608
_cell_angle_alpha   89.53428859
_cell_angle_beta   89.60385266
_cell_angle_gamma   85.14741794
_symmetry_Int_Tables_number   1
_chemical_formula_structural   Mn12O7F17
_chemical_formula_sum   'Mn12 O7 F17'
_cell_volume   441.34113446
_cell_formula_units_Z   1
loop_
 _symmetry_equiv_pos_site_id
 _symmetry_equiv_pos_as_xyz
  1  'x, y, z'
loop_
 _atom_site_type_symbol
 _atom_site_label
 _atom_site_symmetry_multiplicity
 _atom_site_fract_x
 _atom_site_fract_y
 _atom_site_fract_z
 _atom_site_occupancy
  Mn  Mn0  1  0.00501800  0.84952900  0.41610900  1
  Mn  Mn1  1  0.98909100  0.17133000  0.23689000  1
  Mn  Mn2  1  0.99489300  0.84435900  0.07982000  1
  Mn  Mn3  1  0.98327000  0.84987900  0.75570900  1
  Mn  Mn4  1  0.96809800  0.16394600  0.57885400  1
  Mn  Mn5  1  0.97552400  0.17654000  0.91324300  1
  Mn  Mn6  1  0.51417900  0.64961800  0.58633100  1
  Mn  Mn7  1  0.48668500  0.64335000  0.92742300  1
  Mn  Mn8  1  0.49140200  0.66806100  0.25994300  1
  Mn  Mn9  1  0.51665800  0.34603600  0.07980100  1
  Mn  Mn10  1  0.49241700  0.34078100  0.41819300  1
  Mn  Mn11  1  0.51908700  0.32942400  0.74704100  1
  O  O0  1  0.77635300  0.11178800  0.12895100  1
  O  O1  1  0.77339900  0.11508700  0.47039000  1
  O  O2  1  0.78327400  0.12736700  0.80779400  1
  O  O3  1  0.71636600  0.37654400  0.64302500  1
  O  O4  1  0.71339000  0.38731300  0.97393200  1
  O  O5  1  0.27698900  0.61276000  0.03117700  1
  O  O6  1  0.27751100  0.61460100  0.36711900  1
  F  F0  1  0.78190000  0.88980400  0.30515900  1
  F  F1  1  0.76571200  0.87689800  0.64273100  1
  F  F2  1  0.77400400  0.88084200  0.97200000  1
  F  F3  1  0.74859000  0.61466100  0.15120300  1
  F  F4  1  0.73328500  0.38165600  0.31234800  1
  F  F5  1  0.74713900  0.61419400  0.47414400  1
  F  F6  1  0.71371800  0.62762200  0.81787100  1
  F  F7  1  0.30036000  0.37772100  0.18932200  1
  F  F8  1  0.26912300  0.38904800  0.52720100  1
  F  F9  1  0.27211600  0.37608200  0.85025400  1
  F  F10  1  0.26277700  0.60897300  0.70015700  1
  F  F11  1  0.23128000  0.87908900  0.18612400  1
  F  F12  1  0.23208800  0.88878400  0.52941500  1
  F  F13  1  0.23835400  0.11045900  0.35236300  1
  F  F14  1  0.22185500  0.11817000  0.01596800  1
  F  F15  1  0.23371500  0.88104600  0.86680300  1
  F  F16  1  0.22037700  0.10663500  0.68519500  1
loop_
_geom_bond_atom_site_label_1
_geom_bond_atom_site_label_2
_geom_bond_distance
_geom_bond_site_symmetry_2
Mn0 O6 1.972704 1_555
Mn0 O1 2.020868 1_465
Mn1 O0 2.042720 1_555
Mn2 O0 1.965296 1_565
Mn2 O5 1.986829 1_655
Mn3 O2 1.989481 1_565
Mn4 O3 1.943969 1_555
Mn4 O1 1.993066 1_555
Mn5 O4 1.938959 1_555
Mn5 O2 1.946560 1_555
Mn6 O3 2.000281 1_555
Mn7 O4 1.915644 1_555
Mn7 O5 1.934552 1_556
Mn8 O6 2.011875 1_555
Mn9 O0 1.932481 1_555
Mn9 O4 1.940041 1_554
Mn9 O5 2.005272 1_555
Mn10 O1 1.983829 1_555
Mn10 O6 1.992923 1_555
Mn11 O2 1.915747 1_555
Mn11 O3 1.922066 1_555
F0 Mn0 2.064025 1_655
F0 Mn8 2.114285 1_555
F0 Mn1 2.252615 1_565
F1 Mn3 2.074364 1_555
F1 Mn6 2.077810 1_555
F1 Mn4 2.234138 1_565
F2 Mn2 2.015129 1_556
F2 Mn7 2.162482 1_555
F2 Mn5 2.237574 1_565
F3 Mn8 2.120998 1_555
F3 Mn2 2.166044 1_555
F3 Mn9 2.303195 1_555
F4 Mn1 2.046067 1_555
F4 Mn10 2.052808 1_555
F4 Mn8 2.117058 1_555
F5 Mn6 2.093690 1_555
F5 Mn0 2.124061 1_655
F5 Mn10 2.277338 1_555
F6 Mn7 2.039728 1_555
F6 Mn3 2.137856 1_555
F6 Mn11 2.336834 1_555
F7 Mn9 2.015425 1_555
F7 Mn1 2.129154 1_455
F7 Mn8 2.291596 1_555
F8 Mn10 2.033154 1_555
F8 Mn4 2.185105 1_455
F8 Mn6 2.214992 1_555
F9 Mn11 2.018765 1_555
F9 Mn5 2.150533 1_455
F9 Mn7 2.300461 1_555
F10 Mn3 2.057591 1_455
F10 Mn11 2.090953 1_555
F10 Mn6 2.183886 1_555
F11 Mn8 2.043429 1_555
F11 Mn2 2.056790 1_455
F11 Mn1 2.137409 1_465
F12 Mn6 2.066350 1_555
F12 Mn4 2.110196 1_465
F12 Mn0 2.128357 1_555
F13 Mn10 2.166608 1_555
F13 Mn0 2.197890 1_545
F13 Mn1 2.201014 1_455
F14 Mn5 2.026921 1_454
F14 Mn2 2.236931 1_445
F14 Mn9 2.270269 1_555
F15 Mn7 2.006258 1_555
F15 Mn3 2.154525 1_455
F15 Mn5 2.164956 1_465
F16 Mn4 2.088756 1_455
F16 Mn3 2.240851 1_445
F16 Mn11 2.250319 1_555
