# generated using pymatgen
data_NaSr3NdTi5O15
_symmetry_space_group_name_H-M   'P 1'
_cell_length_a   20.16092064
_cell_length_b   20.16092064
_cell_length_c   20.16092064
_cell_angle_alpha   164.27680126
_cell_angle_beta   164.27680126
_cell_angle_gamma   22.30687113
_symmetry_Int_Tables_number   1
_chemical_formula_structural   NaSr3NdTi5O15
_chemical_formula_sum   'Na2 Sr6 Nd2 Ti10 O30'
_cell_volume   601.67136514
_cell_formula_units_Z   2
loop_
 _symmetry_equiv_pos_site_id
 _symmetry_equiv_pos_as_xyz
  1  'x, y, z'
loop_
 _atom_site_type_symbol
 _atom_site_label
 _atom_site_symmetry_multiplicity
 _atom_site_fract_x
 _atom_site_fract_y
 _atom_site_fract_z
 _atom_site_occupancy
  Na  Na0  1  0.79936600  0.79936600  0.00000000  1
  Na  Na1  1  0.20063400  0.20063400  0.00000000  1
  Sr  Sr0  1  0.10078900  0.10078900  0.00000000  1
  Sr  Sr1  1  0.50000000  0.50000000  0.00000000  1
  Sr  Sr2  1  0.60063800  0.60063800  0.00000000  1
  Sr  Sr3  1  0.89921100  0.89921100  0.00000000  1
  Sr  Sr4  1  0.00000000  0.00000000  0.00000000  1
  Sr  Sr5  1  0.39936200  0.39936200  0.00000000  1
  Nd  Nd0  1  0.29942400  0.29942400  0.00000000  1
  Nd  Nd1  1  0.70057600  0.70057600  0.00000000  1
  Ti  Ti0  1  0.75000000  0.25000000  0.50000000  1
  Ti  Ti1  1  0.25000000  0.75000000  0.50000000  1
  Ti  Ti2  1  0.55042800  0.05042800  0.50000000  1
  Ti  Ti3  1  0.65139800  0.15139800  0.50000000  1
  Ti  Ti4  1  0.94957200  0.44957200  0.50000000  1
  Ti  Ti5  1  0.05042800  0.55042800  0.50000000  1
  Ti  Ti6  1  0.15139800  0.65139800  0.50000000  1
  Ti  Ti7  1  0.34860200  0.84860200  0.50000000  1
  Ti  Ti8  1  0.44957200  0.94957200  0.50000000  1
  Ti  Ti9  1  0.84860200  0.34860200  0.50000000  1
  O  O0  1  0.79935600  0.29935600  0.50000000  1
  O  O1  1  0.05024200  0.45341900  0.00000000  1
  O  O2  1  0.54658100  0.54658100  0.59682300  1
  O  O3  1  0.20064400  0.70064400  0.50000000  1
  O  O4  1  0.29935600  0.79935600  0.50000000  1
  O  O5  1  0.44246300  0.86237200  0.00000000  1
  O  O6  1  0.94975800  0.94975800  0.40317700  1
  O  O7  1  0.92930500  0.92930500  0.55710600  1
  O  O8  1  0.45341900  0.05024200  0.00000000  1
  O  O9  1  0.60082700  0.10082700  0.50000000  1
  O  O10  1  0.70064400  0.20064400  0.50000000  1
  O  O11  1  0.82378100  0.27753000  0.00000000  1
  O  O12  1  0.37219900  0.37219900  0.44289400  1
  O  O13  1  0.32368500  0.32368500  0.54680000  1
  O  O14  1  0.86237200  0.44246300  0.00000000  1
  O  O15  1  0.00000000  0.50000000  0.50000000  1
  O  O16  1  0.10082700  0.60082700  0.50000000  1
  O  O17  1  0.22311500  0.67631500  0.00000000  1
  O  O18  1  0.77688500  0.77688500  0.45320000  1
  O  O19  1  0.72247000  0.72247000  0.54625100  1
  O  O20  1  0.27753000  0.82378100  0.00000000  1
  O  O21  1  0.39917300  0.89917300  0.50000000  1
  O  O22  1  0.50000000  0.00000000  0.50000000  1
  O  O23  1  0.62780100  0.07069500  0.00000000  1
  O  O24  1  0.17621900  0.17621900  0.45374900  1
  O  O25  1  0.13762800  0.13762800  0.58009100  1
  O  O26  1  0.67631500  0.22311500  0.00000000  1
  O  O27  1  0.89917300  0.39917300  0.50000000  1
  O  O28  1  0.55753700  0.55753700  0.41990900  1
  O  O29  1  0.07069500  0.62780100  0.00000000  1
loop_
_geom_bond_atom_site_label_1
_geom_bond_atom_site_label_2
_geom_bond_distance
_geom_bond_site_symmetry_2
Na0 O6 2.564035 1_555
Na0 O2 2.564035 1_554
Na0 O29 2.622482 1_655
Na0 O23 2.622482 1_565
Na0 O4 2.757624 1_554
Na0 O0 2.757624 1_565
Na0 O4 2.757624 1_655
Na0 O0 2.757624 1_554
Na0 O28 2.959105 1_554
Na0 O25 2.959105 1_665
Na0 O1 2.992282 1_655
Na0 O8 2.992282 1_565
Na1 O1 2.564035 1_555
Na1 O8 2.564035 1_555
Na1 O12 2.622482 1_555
Na1 O7 2.622482 1_444
Na1 O10 2.757624 1_555
Na1 O3 2.757624 1_555
Na1 O3 2.757624 1_544
Na1 O10 2.757624 1_454
Na1 O14 2.959105 1_455
Na1 O5 2.959105 1_545
Na1 O6 2.992282 1_444
Na1 O2 2.992282 1_555
Nd0 O1 2.453003 1_555
Nd0 O8 2.453003 1_555
Nd0 O28 2.512240 1_555
Nd0 O25 2.512240 1_554
Nd0 O4 2.757625 1_555
Nd0 O4 2.757625 1_544
Nd0 O0 2.757625 1_454
Nd0 O0 2.757625 1_555
Nd0 O29 2.933498 1_555
Nd0 O23 2.933498 1_555
Nd0 O2 3.086865 1_555
Nd0 O6 3.086865 1_444
Nd1 O2 2.453003 1_554
Nd1 O6 2.453003 1_555
Nd1 O14 2.512240 1_555
Nd1 O5 2.512240 1_555
Nd1 O10 2.757625 1_554
Nd1 O3 2.757625 1_554
Nd1 O10 2.757625 1_565
Nd1 O3 2.757625 1_655
Nd1 O12 2.933498 1_554
Nd1 O7 2.933498 1_555
Nd1 O8 3.086865 1_565
Nd1 O1 3.086865 1_655
O0 Ti9 1.948185 1_555
O0 Ti0 1.952537 1_555
O1 Ti1 1.987478 1_555
O1 Ti0 1.987478 1_454
O2 Ti1 1.987478 1_555
O2 Ti0 1.987478 1_555
O3 Ti6 1.948185 1_555
O3 Ti1 1.952537 1_555
O4 Ti7 1.948185 1_555
O4 Ti1 1.952537 1_555
O5 Ti6 1.975204 1_554
O5 Ti3 1.975204 1_565
O5 Sr2 2.622535 1_555
O5 Sr0 3.047861 1_565
O6 Ti1 1.987478 1_655
O6 Ti0 1.987478 1_565
O7 Ti3 1.962778 1_565
O7 Ti6 1.962778 1_655
O7 Sr0 2.624894 1_666
O7 Sr2 2.941218 1_555
O8 Ti0 1.987478 1_555
O8 Ti1 1.987478 1_544
O9 Ti2 1.993798 1_555
O9 Ti3 2.000602 1_555
O9 Sr0 2.757624 1_555
O9 Sr0 2.757624 1_656
O9 Sr2 2.757634 1_545
O9 Sr2 2.757634 1_556
O10 Ti3 1.948185 1_555
O10 Ti0 1.952537 1_555
O11 Ti2 1.958280 1_554
O11 Ti5 1.958280 1_655
O11 Sr0 2.657970 1_655
O11 Sr4 2.673415 1_655
O11 Sr2 2.906546 1_555
O11 Sr1 2.924723 1_555
O12 Ti3 1.962778 1_555
O12 Ti6 1.962778 1_555
O12 Sr0 2.624894 1_555
O12 Sr2 2.941218 1_556
O13 Ti5 1.958466 1_555
O13 Ti2 1.958466 1_555
O13 Sr1 2.661023 1_556
O13 Sr2 2.663035 1_556
O13 Sr4 2.916265 1_555
O13 Sr0 2.922182 1_555
O14 Ti3 1.975204 1_554
O14 Ti6 1.975204 1_655
O14 Sr2 2.622535 1_555
O14 Sr0 3.047861 1_655
O15 Ti5 1.994945 1_555
O15 Ti4 1.994945 1_455
O15 Sr4 2.757624 1_566
O15 Sr1 2.757624 1_455
O15 Sr4 2.757624 1_555
O15 Sr1 2.757624 1_556
O16 Ti5 1.993798 1_555
O16 Ti6 2.000602 1_555
O16 Sr0 2.757624 1_555
O16 Sr0 2.757624 1_566
O16 Sr2 2.757634 1_455
O16 Sr2 2.757634 1_556
O17 Ti4 1.958466 1_454
O17 Ti8 1.958466 1_555
O17 Sr1 2.661023 1_555
O17 Sr5 2.663035 1_555
O17 Sr4 2.916265 1_565
O17 Sr3 2.922182 1_455
O18 Ti2 1.958466 1_565
O18 Ti5 1.958466 1_655
O18 Sr1 2.661023 1_555
O18 Sr2 2.663035 1_555
O18 Sr4 2.916265 1_666
O18 Sr0 2.922182 1_666
O19 Ti8 1.958280 1_555
O19 Ti4 1.958280 1_555
O19 Sr3 2.657970 1_556
O19 Sr4 2.673415 1_666
O19 Sr5 2.906546 1_555
O19 Sr1 2.924723 1_555
O20 Ti5 1.958280 1_554
O20 Ti2 1.958280 1_565
O20 Sr0 2.657970 1_565
O20 Sr4 2.673415 1_565
O20 Sr2 2.906546 1_555
O20 Sr1 2.924723 1_555
O21 Ti8 1.993798 1_555
O21 Ti7 2.000602 1_555
O21 Sr3 2.757624 1_455
O21 Sr3 2.757624 1_556
O21 Sr5 2.757634 1_555
O21 Sr5 2.757634 1_566
O22 Ti2 1.994945 1_555
O22 Ti8 1.994945 1_545
O22 Sr4 2.757624 1_656
O22 Sr1 2.757624 1_545
O22 Sr4 2.757624 1_555
O22 Sr1 2.757624 1_556
O23 Ti9 1.962778 1_555
O23 Ti7 1.962778 1_544
O23 Sr3 2.624894 1_545
O23 Sr5 2.941218 1_555
O24 Ti8 1.958280 1_545
O24 Ti4 1.958280 1_455
O24 Sr3 2.657970 1_445
O24 Sr4 2.673415 1_555
O24 Sr5 2.906546 1_556
O24 Sr1 2.924723 1_556
O25 Ti9 1.975204 1_455
O25 Ti7 1.975204 1_545
O25 Sr5 2.622535 1_556
O25 Sr3 3.047861 1_445
O26 Ti8 1.958466 1_544
O26 Ti4 1.958466 1_555
O26 Sr1 2.661023 1_555
O26 Sr5 2.663035 1_555
O26 Sr4 2.916265 1_655
O26 Sr3 2.922182 1_545
O27 Ti4 1.993798 1_555
O27 Ti9 2.000602 1_555
O27 Sr3 2.757624 1_556
O27 Sr3 2.757624 1_545
O27 Sr5 2.757634 1_656
O27 Sr5 2.757634 1_555
O28 Ti9 1.975204 1_555
O28 Ti7 1.975204 1_555
O28 Sr5 2.622535 1_555
O28 Sr3 3.047861 1_556
O29 Ti7 1.962778 1_555
O29 Ti9 1.962778 1_454
O29 Sr3 2.624894 1_455
O29 Sr5 2.941218 1_555
