# generated using pymatgen
data_Li6Co2OF11
_symmetry_space_group_name_H-M   'P 1'
_cell_length_a   5.12700672
_cell_length_b   5.45240893
_cell_length_c   8.80309439
_cell_angle_alpha   86.55925858
_cell_angle_beta   73.32011513
_cell_angle_gamma   117.97609894
_symmetry_Int_Tables_number   1
_chemical_formula_structural   Li6Co2OF11
_chemical_formula_sum   'Li6 Co2 O1 F11'
_cell_volume   202.59889426
_cell_formula_units_Z   1
loop_
 _symmetry_equiv_pos_site_id
 _symmetry_equiv_pos_as_xyz
  1  'x, y, z'
loop_
 _atom_site_type_symbol
 _atom_site_label
 _atom_site_symmetry_multiplicity
 _atom_site_fract_x
 _atom_site_fract_y
 _atom_site_fract_z
 _atom_site_occupancy
  Li  Li0  1  0.10961300  0.34977400  0.08155100  1
  Li  Li1  1  0.17894700  0.87326100  0.56826500  1
  Li  Li2  1  0.34271500  0.89335000  0.16676800  1
  Li  Li3  1  0.37012700  0.37853300  0.68262800  1
  Li  Li4  1  0.85069200  0.15191000  0.43774800  1
  Li  Li5  1  0.63241000  0.09647600  0.81330300  1
  Co  Co0  1  0.66076100  0.64309000  0.32184500  1
  Co  Co1  1  0.84017000  0.60546600  0.92588800  1
  O  O0  1  0.61335200  0.62661800  0.13410900  1
  F  F0  1  0.04125600  0.02229100  0.22736300  1
  F  F1  1  0.04938500  0.51959200  0.72690300  1
  F  F2  1  0.44721200  0.85663800  0.35839700  1
  F  F3  1  0.28257000  0.30998300  0.45548700  1
  F  F4  1  0.23356200  0.76619200  0.96992200  1
  F  F5  1  0.75060400  0.72533400  0.51602500  1
  F  F6  1  0.74277500  0.22640800  0.02281500  1
  F  F7  1  0.44174800  0.38765100  0.89096600  1
  F  F8  1  0.54200800  0.12483700  0.62491700  1
  F  F9  1  0.93089300  0.48077000  0.27910500  1
  F  F10  1  0.91997400  0.93455100  0.79547700  1
loop_
_geom_bond_atom_site_label_1
_geom_bond_atom_site_label_2
_geom_bond_distance
_geom_bond_site_symmetry_2
Li0 O0 2.504990 1_555
Li2 O0 2.416095 1_555
Co0 O0 1.739643 1_555
Co0 F3 1.890090 1_555
Co0 F5 1.919759 1_555
Co0 F2 1.922694 1_555
Co0 F9 1.932312 1_555
Co0 F0 1.962196 1_665
Co1 F10 1.870618 1_555
Co1 O0 1.911297 1_556
Co1 F7 1.950865 1_555
Co1 F4 1.953844 1_655
Co1 F6 1.955619 1_556
Co1 F1 1.982232 1_655
F0 Li2 1.938770 1_545
F0 Li0 1.959145 1_555
F0 Li4 2.156457 1_455
F1 Li1 2.013073 1_555
F1 Li3 2.074201 1_555
F1 Li5 2.167910 1_455
F2 Li2 1.936938 1_555
F2 Li1 1.997880 1_555
F2 Li4 2.280144 1_565
F3 Li4 2.023425 1_455
F3 Li3 2.187910 1_555
F3 Li1 2.272556 1_545
F4 Li5 1.988487 1_565
F4 Li2 2.033108 1_556
F4 Li0 2.131805 1_556
F5 Li3 2.023828 1_555
F5 Li4 2.152366 1_565
F5 Li1 2.155779 1_655
F6 Li0 1.915779 1_655
F6 Li2 1.961575 1_545
F6 Li5 2.145585 1_554
F7 Li0 1.935360 1_556
F7 Li3 1.970113 1_555
F7 Li5 2.268507 1_555
F8 Li5 1.861897 1_555
F8 Li4 1.869762 1_555
F8 Li1 1.953106 1_545
F8 Li3 1.979663 1_555
F9 Li4 2.003148 1_555
F9 Li0 2.054878 1_655
F9 Li2 2.138840 1_655
F10 Li5 2.020605 1_565
F10 Li1 2.201655 1_655
F10 Li3 2.308037 1_665
