# generated using pymatgen
data_Co3Cu(PO4)4
_symmetry_space_group_name_H-M   'P 1'
_cell_length_a   5.82811000
_cell_length_b   4.78819000
_cell_length_c   9.83444373
_cell_angle_alpha   89.75661097
_cell_angle_beta   90.00000000
_cell_angle_gamma   90.00000000
_symmetry_Int_Tables_number   1
_chemical_formula_structural   Co3Cu(PO4)4
_chemical_formula_sum   'Co3 Cu1 P4 O16'
_cell_volume   274.43847460
_cell_formula_units_Z   1
loop_
 _symmetry_equiv_pos_site_id
 _symmetry_equiv_pos_as_xyz
  1  'x, y, z'
loop_
 _atom_site_type_symbol
 _atom_site_label
 _atom_site_symmetry_multiplicity
 _atom_site_fract_x
 _atom_site_fract_y
 _atom_site_fract_z
 _atom_site_occupancy
  Co  Co0  1  0.00000000  0.05514700  0.27915000  1
  Co  Co1  1  0.00000000  0.44053800  0.78077100  1
  Co  Co2  1  0.50000000  0.55128900  0.22034500  1
  Cu  Cu0  1  0.50000000  0.93872400  0.71954600  1
  P  P0  1  0.50000000  0.08187200  0.40626300  1
  P  P1  1  0.50000000  0.42090400  0.90253300  1
  P  P2  1  0.00000000  0.58670900  0.09276900  1
  P  P3  1  0.00000000  0.90980100  0.59818900  1
  O  O0  1  0.50000000  0.16246100  0.55700700  1
  O  O1  1  0.29549100  0.23224600  0.32910700  1
  O  O2  1  0.70450900  0.23224600  0.32910700  1
  O  O3  1  0.00000000  0.22813700  0.61539800  1
  O  O4  1  0.00000000  0.27038200  0.11199900  1
  O  O5  1  0.29201400  0.27838100  0.82849200  1
  O  O6  1  0.70798600  0.27838100  0.82849200  1
  O  O7  1  0.50000000  0.33922900  0.05371200  1
  O  O8  1  0.00000000  0.66782100  0.94187100  1
  O  O9  1  0.79346700  0.73247300  0.16963700  1
  O  O10  1  0.20653300  0.73247300  0.16963700  1
  O  O11  1  0.50000000  0.74158300  0.88893900  1
  O  O12  1  0.50000000  0.76625500  0.38761300  1
  O  O13  1  0.79639100  0.75600900  0.67172700  1
  O  O14  1  0.20360900  0.75600900  0.67172700  1
  O  O15  1  0.00000000  0.84093000  0.44597000  1
loop_
_geom_bond_atom_site_label_1
_geom_bond_atom_site_label_2
_geom_bond_distance
_geom_bond_site_symmetry_2
Co0 O15 1.931139 1_545
Co0 O4 1.936470 1_555
Co0 O2 1.982374 1_455
Co0 O1 1.982374 1_555
Co0 O9 2.238315 1_445
Co0 O10 2.238315 1_545
Co1 O3 1.921820 1_555
Co1 O8 1.925899 1_555
Co1 O6 1.927807 1_455
Co1 O5 1.927807 1_555
Co1 O13 2.196843 1_455
Co1 O14 2.196843 1_555
Co2 O7 1.931481 1_555
Co2 O12 1.944177 1_555
Co2 O10 1.980648 1_555
Co2 O9 1.980648 1_555
Co2 O2 2.210090 1_555
Co2 O1 2.210090 1_555
Cu0 O11 1.911244 1_555
Cu0 O0 1.920486 1_565
Cu0 O13 1.993481 1_555
Cu0 O14 1.993481 1_555
Cu0 O5 2.297191 1_565
Cu0 O6 2.297191 1_565
O0 P0 1.533466 1_555
O1 P0 1.584352 1_555
O2 P0 1.584352 1_555
O3 P3 1.534334 1_545
O4 P2 1.525597 1_555
O5 P1 1.571457 1_555
O6 P1 1.571457 1_555
O7 P1 1.535728 1_554
O8 P2 1.532381 1_556
O9 P2 1.584918 1_655
O10 P2 1.584918 1_555
O11 P1 1.540715 1_555
O12 P0 1.523097 1_565
O13 P3 1.571279 1_655
O14 P3 1.571279 1_555
O15 P3 1.534248 1_555
