# generated using pymatgen
data_Li2Mn(SiO3)2
_symmetry_space_group_name_H-M   'P 1'
_cell_length_a   5.90481121
_cell_length_b   9.91109987
_cell_length_c   9.29351106
_cell_angle_alpha   90.00117844
_cell_angle_beta   90.06560049
_cell_angle_gamma   90.00208275
_symmetry_Int_Tables_number   1
_chemical_formula_structural   Li2Mn(SiO3)2
_chemical_formula_sum   'Li8 Mn4 Si8 O24'
_cell_volume   543.88540463
_cell_formula_units_Z   4
loop_
 _symmetry_equiv_pos_site_id
 _symmetry_equiv_pos_as_xyz
  1  'x, y, z'
loop_
 _atom_site_type_symbol
 _atom_site_label
 _atom_site_symmetry_multiplicity
 _atom_site_fract_x
 _atom_site_fract_y
 _atom_site_fract_z
 _atom_site_occupancy
  Li  Li0  1  0.05743400  0.41104000  0.89663000  1
  Li  Li1  1  0.55743400  0.91103900  0.89662900  1
  Li  Li2  1  0.55745100  0.08895800  0.39662200  1
  Li  Li3  1  0.05745100  0.58895700  0.39662200  1
  Li  Li4  1  0.94102800  0.32617000  0.63210500  1
  Li  Li5  1  0.44102700  0.82617100  0.63210600  1
  Li  Li6  1  0.44105000  0.17383200  0.13209400  1
  Li  Li7  1  0.94105100  0.67383200  0.13209300  1
  Mn  Mn0  1  0.48751300  0.75397200  0.25562600  1
  Mn  Mn1  1  0.48748100  0.24601900  0.75561400  1
  Mn  Mn2  1  0.98751600  0.25396000  0.25562300  1
  Mn  Mn3  1  0.98748300  0.74603100  0.75561200  1
  Si  Si0  1  0.34042400  0.47058400  0.13412300  1
  Si  Si1  1  0.84042500  0.97058300  0.13412300  1
  Si  Si2  1  0.84041600  0.02941900  0.63412400  1
  Si  Si3  1  0.34041600  0.52941900  0.63412400  1
  Si  Si4  1  0.66578800  0.46934400  0.36612400  1
  Si  Si5  1  0.16578600  0.96934400  0.36612400  1
  Si  Si6  1  0.16577700  0.03066300  0.86611700  1
  Si  Si7  1  0.66577800  0.53066300  0.86611700  1
  O  O0  1  0.24093400  0.39744100  0.71828800  1
  O  O1  1  0.74094000  0.89743800  0.71828700  1
  O  O2  1  0.74094700  0.10255500  0.21829400  1
  O  O3  1  0.24094200  0.60255000  0.21829400  1
  O  O4  1  0.15019800  0.35934900  0.09181000  1
  O  O5  1  0.65020500  0.85935100  0.09180500  1
  O  O6  1  0.65018500  0.14063100  0.59180900  1
  O  O7  1  0.15017800  0.64063300  0.59181400  1
  O  O8  1  0.88957200  0.38669000  0.41932700  1
  O  O9  1  0.38956900  0.88669200  0.41933000  1
  O  O10  1  0.38957400  0.11331000  0.91932600  1
  O  O11  1  0.88957700  0.61331100  0.91932200  1
  O  O12  1  0.74613700  0.38151400  0.81070200  1
  O  O13  1  0.24613100  0.88151100  0.81070000  1
  O  O14  1  0.24615600  0.11849500  0.31070100  1
  O  O15  1  0.74616300  0.61849100  0.31070200  1
  O  O16  1  0.53819200  0.38823900  0.23009300  1
  O  O17  1  0.03819000  0.88824300  0.23009200  1
  O  O18  1  0.03817900  0.11176300  0.73009800  1
  O  O19  1  0.53818100  0.61176600  0.73009800  1
  O  O20  1  0.46870600  0.47506100  0.48934200  1
  O  O21  1  0.96870700  0.97506200  0.48934300  1
  O  O22  1  0.96870100  0.02496000  0.98934200  1
  O  O23  1  0.46869800  0.52496000  0.98934100  1
loop_
_geom_bond_atom_site_label_1
_geom_bond_atom_site_label_2
_geom_bond_distance
_geom_bond_site_symmetry_2
Li0 O4 1.962280 1_556
Li0 O0 1.985793 1_555
Li0 O12 2.024534 1_455
Li0 O11 2.246424 1_455
Li1 O5 1.962250 1_556
Li1 O1 1.985814 1_555
Li1 O13 2.024573 1_555
Li1 O10 2.246436 1_565
Li2 O6 1.962215 1_555
Li2 O2 1.985670 1_555
Li2 O14 2.024538 1_555
Li2 O9 2.246402 1_545
Li3 O7 1.962254 1_555
Li3 O3 1.985651 1_555
Li3 O15 2.024492 1_455
Li3 O8 2.246401 1_455
Li4 O0 2.067161 1_655
Li4 O8 2.088328 1_555
Li4 O12 2.093919 1_555
Li4 O18 2.381825 1_655
Li4 O6 2.543505 1_555
Li5 O1 2.067176 1_555
Li5 O9 2.088315 1_555
Li5 O13 2.093903 1_555
Li5 O19 2.381808 1_555
Li5 O7 2.543517 1_555
Li6 O2 2.067253 1_555
Li6 O10 2.088233 1_554
Li6 O14 2.093981 1_555
Li6 O16 2.381763 1_555
Li6 O4 2.543469 1_555
Li7 O3 2.067243 1_655
Li7 O11 2.088255 1_554
Li7 O15 2.093986 1_555
Li7 O17 2.381794 1_655
Li7 O5 2.543465 1_555
Mn0 O5 2.082056 1_555
Mn0 O9 2.093169 1_555
Mn0 O15 2.096659 1_555
Mn0 O3 2.119225 1_555
Mn1 O6 2.082029 1_555
Mn1 O10 2.093107 1_555
Mn1 O12 2.096716 1_555
Mn1 O0 2.119204 1_555
Mn2 O4 2.082024 1_655
Mn2 O8 2.093232 1_555
Mn2 O14 2.096519 1_655
Mn2 O2 2.119093 1_555
Mn3 O7 2.082006 1_655
Mn3 O11 2.093161 1_555
Mn3 O13 2.096587 1_655
Mn3 O1 2.119081 1_555
O0 Si3 1.633675 1_555
O1 Si2 1.633682 1_565
O2 Si1 1.633659 1_545
O3 Si0 1.633620 1_555
O4 Si0 1.621920 1_555
O5 Si1 1.621886 1_555
O6 Si2 1.621856 1_555
O7 Si3 1.621887 1_555
O8 Si4 1.631028 1_555
O9 Si5 1.631022 1_555
O10 Si6 1.631014 1_555
O11 Si7 1.631017 1_555
O12 Si7 1.635887 1_555
O13 Si6 1.635911 1_565
O14 Si5 1.635935 1_545
O15 Si4 1.635905 1_555
O16 Si4 1.676235 1_555
O16 Si0 1.680173 1_555
O17 Si5 1.676223 1_555
O17 Si1 1.680131 1_455
O18 Si6 1.676184 1_555
O18 Si2 1.680108 1_455
O19 Si7 1.676195 1_555
O19 Si3 1.680131 1_555
O20 Si4 1.634581 1_555
O20 Si3 1.636121 1_555
O21 Si5 1.634575 1_655
O21 Si2 1.636113 1_565
O22 Si6 1.634595 1_655
O22 Si1 1.636137 1_546
O23 Si7 1.634605 1_555
O23 Si0 1.636136 1_556
