# generated using pymatgen
data_MnOF
_symmetry_space_group_name_H-M   'P 1'
_cell_length_a   3.07522800
_cell_length_b   4.81254200
_cell_length_c   14.26241745
_cell_angle_alpha   86.03401168
_cell_angle_beta   90.00000000
_cell_angle_gamma   90.00000000
_symmetry_Int_Tables_number   1
_chemical_formula_structural   MnOF
_chemical_formula_sum   'Mn6 O6 F6'
_cell_volume   210.57351042
_cell_formula_units_Z   6
loop_
 _symmetry_equiv_pos_site_id
 _symmetry_equiv_pos_as_xyz
  1  'x, y, z'
loop_
 _atom_site_type_symbol
 _atom_site_label
 _atom_site_symmetry_multiplicity
 _atom_site_fract_x
 _atom_site_fract_y
 _atom_site_fract_z
 _atom_site_occupancy
  Mn  Mn0  1  0.00000000  0.09299200  0.83525300  1
  Mn  Mn1  1  0.00000000  0.90700800  0.16474700  1
  Mn  Mn2  1  0.00000000  0.00000000  0.50000000  1
  Mn  Mn3  1  0.50000000  0.50000000  0.00000000  1
  Mn  Mn4  1  0.50000000  0.45493700  0.33342800  1
  Mn  Mn5  1  0.50000000  0.54506300  0.66657200  1
  O  O0  1  0.50000000  0.75178700  0.10328100  1
  O  O1  1  0.00000000  0.72040200  0.60055600  1
  O  O2  1  0.00000000  0.63680700  0.26765300  1
  O  O3  1  0.00000000  0.27959800  0.39944400  1
  O  O4  1  0.00000000  0.36319300  0.73234700  1
  O  O5  1  0.50000000  0.24821300  0.89671900  1
  F  F0  1  0.50000000  0.80067700  0.43598100  1
  F  F1  1  0.50000000  0.87876400  0.77529800  1
  F  F2  1  0.00000000  0.74186800  0.93591200  1
  F  F3  1  0.00000000  0.25813200  0.06408800  1
  F  F4  1  0.50000000  0.12123600  0.22470200  1
  F  F5  1  0.50000000  0.19932300  0.56401900  1
loop_
_geom_bond_atom_site_label_1
_geom_bond_atom_site_label_2
_geom_bond_distance
_geom_bond_site_symmetry_2
Mn0 O4 1.892360 1_555
Mn0 O5 1.944579 1_455
Mn0 O5 1.944579 1_555
Mn1 O2 1.892360 1_555
Mn1 O0 1.944579 1_455
Mn1 O0 1.944579 1_555
Mn2 O1 1.897493 1_545
Mn2 O3 1.897493 1_555
Mn3 O0 1.971052 1_555
Mn3 O5 1.971052 1_554
Mn4 O3 1.962883 1_555
Mn4 O3 1.962883 1_655
Mn4 O2 1.974032 1_655
Mn4 O2 1.974032 1_555
Mn5 O1 1.962883 1_655
Mn5 O1 1.962883 1_555
Mn5 O4 1.974032 1_555
Mn5 O4 1.974032 1_655
F0 Mn2 2.058947 1_565
F0 Mn2 2.058947 1_665
F0 Mn4 2.290094 1_555
F1 Mn0 2.068896 1_565
F1 Mn0 2.068896 1_665
F1 Mn5 2.308293 1_555
F2 Mn3 2.099396 1_556
F2 Mn3 2.099396 1_456
F2 Mn0 2.140305 1_565
F3 Mn3 2.099396 1_555
F3 Mn3 2.099396 1_455
F3 Mn1 2.140305 1_545
F4 Mn1 2.068896 1_545
F4 Mn1 2.068896 1_645
F4 Mn4 2.308293 1_555
F5 Mn2 2.058947 1_555
F5 Mn2 2.058947 1_655
F5 Mn5 2.290094 1_555
