# generated using pymatgen
data_LiFeSiO4
_symmetry_space_group_name_H-M   'P 1'
_cell_length_a   5.08175900
_cell_length_b   6.73408500
_cell_length_c   10.36789400
_cell_angle_alpha   90.00000000
_cell_angle_beta   90.00000000
_cell_angle_gamma   90.00000000
_symmetry_Int_Tables_number   1
_chemical_formula_structural   LiFeSiO4
_chemical_formula_sum   'Li4 Fe4 Si4 O16'
_cell_volume   354.79967005
_cell_formula_units_Z   4
loop_
 _symmetry_equiv_pos_site_id
 _symmetry_equiv_pos_as_xyz
  1  'x, y, z'
loop_
 _atom_site_type_symbol
 _atom_site_label
 _atom_site_symmetry_multiplicity
 _atom_site_fract_x
 _atom_site_fract_y
 _atom_site_fract_z
 _atom_site_occupancy
  Li  Li0  1  0.18380300  0.78719800  0.15678000  1
  Li  Li1  1  0.68380300  0.28719800  0.34322000  1
  Li  Li2  1  0.31619700  0.78719800  0.65678000  1
  Li  Li3  1  0.81619700  0.28719800  0.84322000  1
  Fe  Fe0  1  0.18298500  0.28590500  0.15950900  1
  Fe  Fe1  1  0.68298500  0.78590500  0.34049100  1
  Fe  Fe2  1  0.31701500  0.28590500  0.65950900  1
  Fe  Fe3  1  0.81701500  0.78590500  0.84049100  1
  Si  Si0  1  0.68249600  0.53699000  0.09187300  1
  Si  Si1  1  0.18249600  0.03699000  0.40812700  1
  Si  Si2  1  0.81750400  0.53699000  0.59187300  1
  Si  Si3  1  0.31750400  0.03699000  0.90812700  1
  O  O0  1  0.24265200  0.04972100  0.06187600  1
  O  O1  1  0.36126300  0.52406700  0.11373000  1
  O  O2  1  0.81572600  0.33950600  0.15969400  1
  O  O3  1  0.79480500  0.73479000  0.16798400  1
  O  O4  1  0.29480500  0.23479000  0.33201600  1
  O  O5  1  0.31572600  0.83950600  0.34030600  1
  O  O6  1  0.86126300  0.02406700  0.38627000  1
  O  O7  1  0.74265200  0.54972100  0.43812400  1
  O  O8  1  0.25734800  0.04972100  0.56187600  1
  O  O9  1  0.13873700  0.52406700  0.61373000  1
  O  O10  1  0.68427400  0.33950600  0.65969400  1
  O  O11  1  0.70519500  0.73479000  0.66798400  1
  O  O12  1  0.20519500  0.23479000  0.83201600  1
  O  O13  1  0.18427400  0.83950600  0.84030600  1
  O  O14  1  0.63873700  0.02406700  0.88627000  1
  O  O15  1  0.75734800  0.54972100  0.93812400  1
loop_
_geom_bond_atom_site_label_1
_geom_bond_atom_site_label_2
_geom_bond_distance
_geom_bond_site_symmetry_2
Li0 O3 2.011408 1_455
Li0 O1 2.037712 1_555
Li0 O0 2.045215 1_565
Li0 O5 2.047945 1_555
Li1 O4 2.011408 1_555
Li1 O6 2.037712 1_555
Li1 O7 2.045215 1_555
Li1 O2 2.047945 1_555
Li2 O11 2.011408 1_555
Li2 O9 2.037712 1_555
Li2 O8 2.045215 1_565
Li2 O13 2.047945 1_555
Li3 O12 2.011408 1_655
Li3 O14 2.037712 1_555
Li3 O15 2.045215 1_555
Li3 O10 2.047945 1_555
Fe0 O2 1.900907 1_455
Fe0 O1 1.902166 1_555
Fe0 O4 1.907940 1_555
Fe0 O0 1.909508 1_555
Fe1 O5 1.900907 1_555
Fe1 O6 1.902166 1_565
Fe1 O3 1.907940 1_555
Fe1 O7 1.909508 1_555
Fe2 O10 1.900907 1_555
Fe2 O9 1.902166 1_555
Fe2 O12 1.907940 1_555
Fe2 O8 1.909508 1_555
Fe3 O13 1.900907 1_655
Fe3 O14 1.902166 1_565
Fe3 O11 1.907940 1_555
Fe3 O15 1.909508 1_555
O0 Si3 1.641050 1_554
O1 Si0 1.650379 1_555
O2 Si0 1.649663 1_555
O3 Si0 1.650047 1_555
O4 Si1 1.650047 1_555
O5 Si1 1.649663 1_565
O6 Si1 1.650379 1_655
O7 Si2 1.641050 1_555
O8 Si1 1.641050 1_555
O9 Si2 1.650379 1_455
O10 Si2 1.649663 1_555
O11 Si2 1.650047 1_555
O12 Si3 1.650047 1_555
O13 Si3 1.649663 1_565
O14 Si3 1.650379 1_555
O15 Si0 1.641050 1_556
