# generated using pymatgen
data_LiV(OF)2
_symmetry_space_group_name_H-M   'P 1'
_cell_length_a   3.89481500
_cell_length_b   5.81412600
_cell_length_c   6.96826073
_cell_angle_alpha   78.02087881
_cell_angle_beta   90.00000000
_cell_angle_gamma   90.00000000
_symmetry_Int_Tables_number   1
_chemical_formula_structural   LiV(OF)2
_chemical_formula_sum   'Li2 V2 O4 F4'
_cell_volume   154.35960833
_cell_formula_units_Z   2
loop_
 _symmetry_equiv_pos_site_id
 _symmetry_equiv_pos_as_xyz
  1  'x, y, z'
loop_
 _atom_site_type_symbol
 _atom_site_label
 _atom_site_symmetry_multiplicity
 _atom_site_fract_x
 _atom_site_fract_y
 _atom_site_fract_z
 _atom_site_occupancy
  Li  Li0  1  0.71215300  0.68623900  0.83145300  1
  Li  Li1  1  0.21215300  0.31376100  0.16854700  1
  V  V0  1  0.76518200  0.81703400  0.29082100  1
  V  V1  1  0.26518200  0.18296600  0.70917900  1
  O  O0  1  0.27120500  0.89805300  0.80882400  1
  O  O1  1  0.27303800  0.34672000  0.87999000  1
  O  O2  1  0.77303800  0.65328000  0.12001000  1
  O  O3  1  0.77120500  0.10194700  0.19117600  1
  F  F0  1  0.26825800  0.81301400  0.32992800  1
  F  F1  1  0.76916700  0.68964800  0.55997900  1
  F  F2  1  0.26916700  0.31035200  0.44002100  1
  F  F3  1  0.76825800  0.18698600  0.67007200  1
loop_
_geom_bond_atom_site_label_1
_geom_bond_atom_site_label_2
_geom_bond_distance
_geom_bond_site_symmetry_2
Li0 O2 1.994012 1_556
Li0 O0 2.100090 1_555
Li0 O0 2.490375 1_655
Li0 O1 2.580499 1_555
Li1 O1 1.994012 1_554
Li1 O3 2.100090 1_455
Li1 O3 2.490375 1_555
Li1 O2 2.580499 1_455
O0 V1 1.658092 1_565
O1 V1 1.671684 1_555
O2 V0 1.671684 1_555
O3 V0 1.658092 1_545
F0 V0 1.953981 1_555
F0 V0 1.977717 1_455
F1 V0 1.868124 1_555
F1 Li0 1.900703 1_555
F2 V1 1.868124 1_555
F2 Li1 1.900703 1_555
F3 V1 1.953981 1_655
F3 V1 1.977717 1_555
