# generated using pymatgen
data_Li6V3Sb3O16
_symmetry_space_group_name_H-M   'P 1'
_cell_length_a   6.05881800
_cell_length_b   6.11989632
_cell_length_c   10.07365448
_cell_angle_alpha   90.33604724
_cell_angle_beta   89.99103621
_cell_angle_gamma   119.64136601
_symmetry_Int_Tables_number   1
_chemical_formula_structural   Li6V3Sb3O16
_chemical_formula_sum   'Li6 V3 Sb3 O16'
_cell_volume   324.63711562
_cell_formula_units_Z   1
loop_
 _symmetry_equiv_pos_site_id
 _symmetry_equiv_pos_as_xyz
  1  'x, y, z'
loop_
 _atom_site_type_symbol
 _atom_site_label
 _atom_site_symmetry_multiplicity
 _atom_site_fract_x
 _atom_site_fract_y
 _atom_site_fract_z
 _atom_site_occupancy
  Li  Li0  1  0.66399600  0.32818700  0.50669900  1
  Li  Li1  1  0.66831200  0.33693100  0.87944400  1
  Li  Li2  1  0.98809400  0.97647500  0.99747600  1
  Li  Li3  1  0.99508300  0.99015000  0.50295800  1
  Li  Li4  1  0.33746700  0.67488500  0.00273000  1
  Li  Li5  1  0.32945600  0.65911100  0.38840400  1
  V  V0  1  0.17680800  0.83896900  0.71820900  1
  V  V1  1  0.83253500  0.66519200  0.21679300  1
  V  V2  1  0.66854900  0.83101100  0.71321200  1
  Sb  Sb0  1  0.33623300  0.16914000  0.21527900  1
  Sb  Sb1  1  0.83280200  0.16914700  0.21528800  1
  Sb  Sb2  1  0.16917100  0.34017400  0.71549200  1
  O  O0  1  0.30513700  0.15149300  0.60928400  1
  O  O1  1  0.51356000  0.02719400  0.32840100  1
  O  O2  1  0.66220600  0.32453900  0.10135200  1
  O  O3  1  0.00471100  0.00949600  0.32263800  1
  O  O4  1  0.00238400  0.00478500  0.81826100  1
  O  O5  1  0.84503400  0.15158300  0.60953100  1
  O  O6  1  0.50852000  0.48172400  0.32178300  1
  O  O7  1  0.97307000  0.48171200  0.32180800  1
  O  O8  1  0.15164600  0.30343900  0.10212000  1
  O  O9  1  0.84868400  0.70354500  0.61860300  1
  O  O10  1  0.02989900  0.52123100  0.82194700  1
  O  O11  1  0.48974900  0.52149800  0.82236100  1
  O  O12  1  0.33343200  0.66732400  0.60528300  1
  O  O13  1  0.15915900  0.85242000  0.11037300  1
  O  O14  1  0.48081200  0.96618600  0.81173800  1
  O  O15  1  0.69319000  0.85246000  0.11037400  1
loop_
_geom_bond_atom_site_label_1
_geom_bond_atom_site_label_2
_geom_bond_distance
_geom_bond_site_symmetry_2
Li0 O5 2.151849 1_555
Li0 O0 2.156725 1_555
Li0 O9 2.286320 1_555
Li0 O1 2.398103 1_555
Li0 O6 2.477261 1_555
Li0 O7 2.477419 1_555
Li1 O10 1.992563 1_655
Li1 O11 1.998382 1_555
Li1 O14 2.082373 1_545
Li1 O2 2.236835 1_556
Li2 O4 1.812618 1_665
Li2 O15 1.931357 1_556
Li2 O13 1.932063 1_656
Li2 O8 2.027658 1_666
Li3 O3 1.820078 1_665
Li3 O9 1.924880 1_555
Li3 O0 1.950555 1_665
Li3 O5 1.957240 1_565
Li4 O13 2.161082 1_555
Li4 O15 2.161515 1_555
Li4 O8 2.220882 1_555
Li4 O11 2.422813 1_554
Li4 O10 2.433335 1_554
Li4 O14 2.478382 1_554
Li5 O6 1.990516 1_555
Li5 O7 1.991062 1_455
Li5 O1 2.052872 1_565
Li5 O12 2.184910 1_555
O0 V0 2.005005 1_545
O0 Sb2 2.020599 1_555
O1 Sb0 2.035363 1_555
O1 Sb1 2.035474 1_555
O2 Sb1 2.067728 1_555
O2 Sb0 2.067959 1_555
O2 V1 2.146497 1_555
O3 Sb1 2.056277 1_455
O3 Sb0 2.056541 1_555
O3 V1 2.113001 1_445
O4 V2 2.049809 1_445
O4 V0 2.052045 1_545
O4 Sb2 2.068537 1_555
O5 V2 2.007944 1_545
O5 Sb2 2.018042 1_655
O6 Sb0 1.975171 1_555
O6 V1 2.016486 1_555
O7 Sb1 1.975080 1_555
O7 V1 2.016166 1_555
O8 Sb0 2.036249 1_555
O8 Sb1 2.036387 1_455
O9 V2 1.881780 1_555
O9 V0 2.001777 1_655
O10 V0 1.994252 1_555
O10 Sb2 2.000114 1_555
O11 V2 1.991187 1_555
O11 Sb2 2.004417 1_555
O12 V0 2.066324 1_555
O12 V2 2.069833 1_555
O12 Sb2 2.070348 1_555
O13 Sb0 1.986002 1_565
O13 V1 2.036978 1_455
O14 V0 1.860095 1_555
O14 V2 1.970797 1_555
O15 Sb1 1.985786 1_565
O15 V1 2.036480 1_555
