# generated using pymatgen
data_LiTiNF6
_symmetry_space_group_name_H-M   'P 1'
_cell_length_a   7.72428200
_cell_length_b   10.43249200
_cell_length_c   12.43486700
_cell_angle_alpha   90.00000000
_cell_angle_beta   90.00000000
_cell_angle_gamma   90.00000000
_symmetry_Int_Tables_number   1
_chemical_formula_structural   LiTiNF6
_chemical_formula_sum   'Li8 Ti8 N8 F48'
_cell_volume   1002.04523137
_cell_formula_units_Z   8
loop_
 _symmetry_equiv_pos_site_id
 _symmetry_equiv_pos_as_xyz
  1  'x, y, z'
loop_
 _atom_site_type_symbol
 _atom_site_label
 _atom_site_symmetry_multiplicity
 _atom_site_fract_x
 _atom_site_fract_y
 _atom_site_fract_z
 _atom_site_occupancy
  Li  Li0  1  0.25268600  0.07532500  0.63921300  1
  Li  Li1  1  0.24731400  0.57532500  0.86078700  1
  Li  Li2  1  0.75268600  0.92467500  0.86078700  1
  Li  Li3  1  0.74731400  0.42467500  0.63921300  1
  Li  Li4  1  0.74731400  0.92467500  0.36078700  1
  Li  Li5  1  0.75268600  0.42467500  0.13921300  1
  Li  Li6  1  0.24731400  0.07532500  0.13921300  1
  Li  Li7  1  0.25268600  0.57532500  0.36078700  1
  Ti  Ti0  1  0.25031000  0.92559500  0.86339700  1
  Ti  Ti1  1  0.24969000  0.42559500  0.63660300  1
  Ti  Ti2  1  0.75031000  0.07440500  0.63660300  1
  Ti  Ti3  1  0.74969000  0.57440500  0.86339700  1
  Ti  Ti4  1  0.74969000  0.07440500  0.13660300  1
  Ti  Ti5  1  0.75031000  0.57440500  0.36339700  1
  Ti  Ti6  1  0.24969000  0.92559500  0.36339700  1
  Ti  Ti7  1  0.25031000  0.42559500  0.13660300  1
  N  N0  1  0.00000000  0.75000000  0.57746600  1
  N  N1  1  0.50000000  0.25000000  0.92253400  1
  N  N2  1  0.00000000  0.25000000  0.42253400  1
  N  N3  1  0.50000000  0.75000000  0.07746600  1
  N  N4  1  0.50000000  0.75000000  0.60500600  1
  N  N5  1  0.00000000  0.25000000  0.89499400  1
  N  N6  1  0.50000000  0.25000000  0.39499400  1
  N  N7  1  0.00000000  0.75000000  0.10500600  1
  F  F0  1  0.26968400  0.09805400  0.80434100  1
  F  F1  1  0.23031600  0.59805400  0.69565900  1
  F  F2  1  0.76968400  0.90194600  0.69565900  1
  F  F3  1  0.73031600  0.40194600  0.80434100  1
  F  F4  1  0.73031600  0.90194600  0.19565900  1
  F  F5  1  0.76968400  0.40194600  0.30434100  1
  F  F6  1  0.23031600  0.09805400  0.30434100  1
  F  F7  1  0.26968400  0.59805400  0.19565900  1
  F  F8  1  0.48995600  0.90428300  0.85006000  1
  F  F9  1  0.01004400  0.40428300  0.64994000  1
  F  F10  1  0.98995600  0.09571700  0.64994000  1
  F  F11  1  0.51004400  0.59571700  0.85006000  1
  F  F12  1  0.51004400  0.09571700  0.14994000  1
  F  F13  1  0.98995600  0.59571700  0.35006000  1
  F  F14  1  0.01004400  0.90428300  0.35006000  1
  F  F15  1  0.48995600  0.40428300  0.14994000  1
  F  F16  1  0.22702400  0.75649100  0.91006500  1
  F  F17  1  0.27297600  0.25649100  0.58993500  1
  F  F18  1  0.72702400  0.24350900  0.58993500  1
  F  F19  1  0.77297600  0.74350900  0.91006500  1
  F  F20  1  0.77297600  0.24350900  0.08993500  1
  F  F21  1  0.72702400  0.74350900  0.41006500  1
  F  F22  1  0.27297600  0.75649100  0.41006500  1
  F  F23  1  0.22702400  0.25649100  0.08993500  1
  F  F24  1  0.23009600  0.88182800  0.71251200  1
  F  F25  1  0.26990400  0.38182800  0.78748800  1
  F  F26  1  0.73009600  0.11817200  0.78748800  1
  F  F27  1  0.76990400  0.61817200  0.71251200  1
  F  F28  1  0.76990400  0.11817200  0.28748800  1
  F  F29  1  0.73009600  0.61817200  0.21251200  1
  F  F30  1  0.26990400  0.88182800  0.21251200  1
  F  F31  1  0.23009600  0.38182800  0.28748800  1
  F  F32  1  0.27768800  0.99318500  0.99926600  1
  F  F33  1  0.22231200  0.49318500  0.50073400  1
  F  F34  1  0.77768800  0.00681500  0.50073400  1
  F  F35  1  0.72231200  0.50681500  0.99926600  1
  F  F36  1  0.72231200  0.00681500  0.00073400  1
  F  F37  1  0.77768800  0.50681500  0.49926600  1
  F  F38  1  0.22231200  0.99318500  0.49926600  1
  F  F39  1  0.27768800  0.49318500  0.00073400  1
  F  F40  1  0.01038000  0.94819100  0.87004900  1
  F  F41  1  0.48962000  0.44819100  0.62995100  1
  F  F42  1  0.51038000  0.05180900  0.62995100  1
  F  F43  1  0.98962000  0.55180900  0.87004900  1
  F  F44  1  0.98962000  0.05180900  0.12995100  1
  F  F45  1  0.51038000  0.55180900  0.37004900  1
  F  F46  1  0.48962000  0.94819100  0.37004900  1
  F  F47  1  0.01038000  0.44819100  0.12995100  1
loop_
_geom_bond_atom_site_label_1
_geom_bond_atom_site_label_2
_geom_bond_distance
_geom_bond_site_symmetry_2
F0 Ti0 1.949028 1_545
F0 Li0 2.071157 1_555
F1 Ti1 1.949028 1_555
F1 Li1 2.071157 1_555
F2 Ti2 1.949028 1_565
F2 Li2 2.071157 1_555
F3 Ti3 1.949028 1_555
F3 Li3 2.071157 1_555
F4 Ti4 1.949028 1_565
F4 Li4 2.071157 1_555
F5 Ti5 1.949028 1_555
F5 Li5 2.071157 1_555
F6 Ti6 1.949028 1_545
F6 Li6 2.071157 1_555
F7 Ti7 1.949028 1_555
F7 Li7 2.071157 1_555
F8 Ti0 1.871760 1_555
F8 Li2 2.044876 1_555
F9 Ti1 1.871760 1_555
F9 Li3 2.044876 1_455
F10 Ti2 1.871760 1_555
F10 Li0 2.044876 1_655
F11 Ti3 1.871760 1_555
F11 Li1 2.044876 1_555
F12 Ti4 1.871760 1_555
F12 Li6 2.044876 1_555
F13 Ti5 1.871760 1_555
F13 Li7 2.044876 1_655
F14 Ti6 1.871760 1_555
F14 Li4 2.044876 1_455
F15 Ti7 1.871760 1_555
F15 Li5 2.044876 1_555
F16 Ti0 1.865859 1_555
F16 Li1 1.993036 1_555
F17 Ti1 1.865859 1_555
F17 Li0 1.993036 1_555
F18 Ti2 1.865859 1_555
F18 Li3 1.993036 1_555
F19 Ti3 1.865859 1_555
F19 Li2 1.993036 1_555
F20 Ti4 1.865859 1_555
F20 Li5 1.993036 1_555
F21 Ti5 1.865859 1_555
F21 Li4 1.993036 1_555
F22 Ti6 1.865859 1_555
F22 Li7 1.993036 1_555
F23 Ti7 1.865859 1_555
F23 Li6 1.993036 1_555
F24 Ti0 1.937297 1_555
F24 Li0 2.221753 1_565
F25 Ti1 1.937297 1_555
F25 Li1 2.221753 1_555
F26 Ti2 1.937297 1_555
F26 Li2 2.221753 1_545
F27 Ti3 1.937297 1_555
F27 Li3 2.221753 1_555
F28 Ti4 1.937297 1_555
F28 Li4 2.221753 1_545
F29 Ti5 1.937297 1_555
F29 Li5 2.221753 1_555
F30 Ti6 1.937297 1_555
F30 Li6 2.221753 1_565
F31 Ti7 1.937297 1_555
F31 Li7 2.221753 1_555
F32 Ti0 1.842929 1_555
F32 Li6 1.953904 1_566
F33 Ti1 1.842929 1_555
F33 Li7 1.953904 1_555
F34 Ti2 1.842929 1_555
F34 Li4 1.953904 1_545
F35 Ti3 1.842929 1_555
F35 Li5 1.953904 1_556
F36 Ti4 1.842929 1_555
F36 Li2 1.953904 1_544
F37 Ti5 1.842929 1_555
F37 Li3 1.953904 1_555
F38 Ti6 1.842929 1_555
F38 Li0 1.953904 1_565
F39 Ti7 1.842929 1_555
F39 Li1 1.953904 1_554
F40 Ti0 1.870049 1_555
F40 Li2 2.008867 1_455
F41 Ti1 1.870049 1_555
F41 Li3 2.008867 1_555
F42 Ti2 1.870049 1_555
F42 Li0 2.008867 1_555
F43 Ti3 1.870049 1_555
F43 Li1 2.008867 1_655
F44 Ti4 1.870049 1_555
F44 Li6 2.008867 1_655
F45 Ti5 1.870049 1_555
F45 Li7 2.008867 1_555
F46 Ti6 1.870049 1_555
F46 Li4 2.008867 1_555
F47 Ti7 1.870049 1_555
F47 Li5 2.008867 1_455
