# generated using pymatgen
data_LiFe2OF5
_symmetry_space_group_name_H-M   'P 1'
_cell_length_a   4.70059900
_cell_length_b   8.82168355
_cell_length_c   8.82321857
_cell_angle_alpha   119.89086544
_cell_angle_beta   89.88190457
_cell_angle_gamma   90.66520760
_symmetry_Int_Tables_number   1
_chemical_formula_structural   LiFe2OF5
_chemical_formula_sum   'Li3 Fe6 O3 F15'
_cell_volume   317.17987089
_cell_formula_units_Z   3
loop_
 _symmetry_equiv_pos_site_id
 _symmetry_equiv_pos_as_xyz
  1  'x, y, z'
loop_
 _atom_site_type_symbol
 _atom_site_label
 _atom_site_symmetry_multiplicity
 _atom_site_fract_x
 _atom_site_fract_y
 _atom_site_fract_z
 _atom_site_occupancy
  Li  Li0  1  0.01160200  0.36504000  0.99231000  1
  Li  Li1  1  0.98525000  0.64695500  0.64533300  1
  Li  Li2  1  0.01078400  0.00862000  0.35790100  1
  Fe  Fe0  1  0.48354500  0.67955700  0.99039400  1
  Fe  Fe1  1  0.47067400  0.33741000  0.67615700  1
  Fe  Fe2  1  0.99440500  0.00150800  0.00063900  1
  Fe  Fe3  1  0.52771700  0.99655700  0.70473700  1
  Fe  Fe4  1  0.47204200  0.28776600  0.29911400  1
  Fe  Fe5  1  0.51554200  0.66529300  0.33539500  1
  O  O0  1  0.27635100  0.46763400  0.88712400  1
  O  O1  1  0.76901100  0.89670300  0.79084900  1
  O  O2  1  0.22402300  0.10167700  0.20907200  1
  F  F0  1  0.24087600  0.11782800  0.89329400  1
  F  F1  1  0.72888400  0.22427700  0.77388000  1
  F  F2  1  0.27647400  0.10773100  0.57769100  1
  F  F3  1  0.72603100  0.55457300  0.77343300  1
  F  F4  1  0.23841200  0.78277200  0.88476600  1
  F  F5  1  0.70878000  0.22656300  0.45021200  1
  F  F6  1  0.26538000  0.42263800  0.53421000  1
  F  F7  1  0.28632700  0.77557700  0.55060200  1
  F  F8  1  0.72779300  0.53604900  0.42079200  1
  F  F9  1  0.73668400  0.88343600  0.46192100  1
  F  F10  1  0.28090300  0.45010300  0.22597600  1
  F  F11  1  0.75790300  0.22530600  0.11001300  1
  F  F12  1  0.28841900  0.77408600  0.22626200  1
  F  F13  1  0.73801900  0.58253300  0.12156900  1
  F  F14  1  0.75817200  0.88180900  0.10645300  1
loop_
_geom_bond_atom_site_label_1
_geom_bond_atom_site_label_2
_geom_bond_distance
_geom_bond_site_symmetry_2
Li0 O0 2.008843 1_555
Li1 O1 2.182415 1_555
Li2 O2 2.110185 1_555
Fe0 O0 1.880806 1_555
Fe1 O0 1.872157 1_555
Fe2 O1 1.919171 1_544
Fe2 O2 1.922042 1_655
Fe3 O1 1.825792 1_555
Fe4 O2 1.828863 1_555
F0 Fe3 1.995145 1_545
F0 Fe2 2.056411 1_456
F0 Li0 2.198287 1_555
F1 Fe3 2.009651 1_545
F1 Fe1 2.025535 1_555
F1 Li0 2.146935 1_655
F2 Fe1 1.974649 1_555
F2 Li2 2.092749 1_555
F2 Fe3 2.177436 1_545
F3 Fe0 2.023834 1_555
F3 Fe1 2.039496 1_555
F3 Li1 2.077424 1_555
F4 Fe0 1.974832 1_555
F4 Fe2 2.040715 1_466
F4 Li1 2.183822 1_455
F5 Fe4 2.011140 1_555
F5 Fe1 2.063111 1_555
F5 Li2 2.207479 1_655
F6 Fe1 2.006356 1_555
F6 Fe4 2.054438 1_555
F6 Li1 2.175424 1_455
F7 Fe5 1.971695 1_555
F7 Fe3 2.061513 1_555
F7 Li1 2.211805 1_455
F8 Fe5 1.936192 1_555
F8 Li1 2.096978 1_555
F8 Fe4 2.235090 1_555
F9 Fe5 1.961430 1_555
F9 Fe3 2.105668 1_555
F9 Li2 2.166621 1_665
F10 Fe5 1.970111 1_555
F10 Fe4 2.056186 1_555
F10 Li0 2.205179 1_554
F11 Fe4 1.996160 1_555
F11 Fe2 2.052442 1_555
F11 Li0 2.292792 1_654
F12 Fe5 1.984237 1_555
F12 Fe0 2.036634 1_554
F12 Li2 2.234768 1_565
F13 Fe5 1.955197 1_555
F13 Li0 2.122738 1_654
F13 Fe0 2.125985 1_554
F14 Fe0 2.007334 1_554
F14 Fe2 2.042263 1_565
F14 Li2 2.256071 1_665
