# generated using pymatgen
data_Mn7(PbO5)3
_symmetry_space_group_name_H-M   'P 1'
_cell_length_a   10.27988790
_cell_length_b   13.93533711
_cell_length_c   17.76479565
_cell_angle_alpha   90.00000000
_cell_angle_beta   90.00000000
_cell_angle_gamma   90.00000000
_symmetry_Int_Tables_number   1
_chemical_formula_structural   Mn7(PbO5)3
_chemical_formula_sum   'Mn56 Pb24 O120'
_cell_volume   2544.87276593
_cell_formula_units_Z   8
loop_
 _symmetry_equiv_pos_site_id
 _symmetry_equiv_pos_as_xyz
  1  'x, y, z'
loop_
 _atom_site_type_symbol
 _atom_site_label
 _atom_site_symmetry_multiplicity
 _atom_site_fract_x
 _atom_site_fract_y
 _atom_site_fract_z
 _atom_site_occupancy
  Mn  Mn0  1  0.24400840  0.49666217  0.08304658  1
  Mn  Mn1  1  0.25599160  0.99666217  0.41695342  1
  Mn  Mn2  1  0.75599160  0.50333783  0.58304658  1
  Mn  Mn3  1  0.74400840  0.00333783  0.91695342  1
  Mn  Mn4  1  0.75599160  0.50333783  0.91695342  1
  Mn  Mn5  1  0.74400840  0.00333783  0.58304658  1
  Mn  Mn6  1  0.24400840  0.49666217  0.41695342  1
  Mn  Mn7  1  0.25599160  0.99666217  0.08304658  1
  Mn  Mn8  1  0.50809556  0.99141685  0.33377761  1
  Mn  Mn9  1  0.99190444  0.49141685  0.16622239  1
  Mn  Mn10  1  0.49190444  0.00858315  0.83377761  1
  Mn  Mn11  1  0.00809556  0.50858315  0.66622239  1
  Mn  Mn12  1  0.49190444  0.00858315  0.66622239  1
  Mn  Mn13  1  0.00809556  0.50858315  0.83377761  1
  Mn  Mn14  1  0.50809556  0.99141685  0.16622239  1
  Mn  Mn15  1  0.99190444  0.49141685  0.33377761  1
  Mn  Mn16  1  0.49382426  0.49319777  0.16719809  1
  Mn  Mn17  1  0.00617574  0.99319777  0.33280191  1
  Mn  Mn18  1  0.50617574  0.50680223  0.66719809  1
  Mn  Mn19  1  0.99382426  0.00680223  0.83280191  1
  Mn  Mn20  1  0.50617574  0.50680223  0.83280191  1
  Mn  Mn21  1  0.99382426  0.00680223  0.66719809  1
  Mn  Mn22  1  0.49382426  0.49319777  0.33280191  1
  Mn  Mn23  1  0.00617574  0.99319777  0.16719809  1
  Mn  Mn24  1  0.74761082  0.14306319  0.41719434  1
  Mn  Mn25  1  0.75238918  0.64306319  0.08280566  1
  Mn  Mn26  1  0.25238918  0.85693681  0.91719434  1
  Mn  Mn27  1  0.24761082  0.35693681  0.58280566  1
  Mn  Mn28  1  0.25238918  0.85693681  0.58280566  1
  Mn  Mn29  1  0.24761082  0.35693681  0.91719434  1
  Mn  Mn30  1  0.74761082  0.14306319  0.08280566  1
  Mn  Mn31  1  0.75238918  0.64306319  0.41719434  1
  Mn  Mn32  1  0.74426299  0.35048584  0.08236870  1
  Mn  Mn33  1  0.75573701  0.85048584  0.41763130  1
  Mn  Mn34  1  0.25573701  0.64951416  0.58236870  1
  Mn  Mn35  1  0.24426299  0.14951416  0.91763130  1
  Mn  Mn36  1  0.25573701  0.64951416  0.91763130  1
  Mn  Mn37  1  0.24426299  0.14951416  0.58236870  1
  Mn  Mn38  1  0.74426299  0.35048584  0.41763130  1
  Mn  Mn39  1  0.75573701  0.85048584  0.08236870  1
  Mn  Mn40  1  0.74026459  0.49057091  0.25000000  1
  Mn  Mn41  1  0.75973541  0.99057091  0.25000000  1
  Mn  Mn42  1  0.25973541  0.50942909  0.75000000  1
  Mn  Mn43  1  0.24026459  0.00942909  0.75000000  1
  Mn  Mn44  1  0.50000000  0.50000000  -0.00000000  1
  Mn  Mn45  1  -0.00000000  -0.00000000  0.50000000  1
  Mn  Mn46  1  0.50000000  0.50000000  0.50000000  1
  Mn  Mn47  1  -0.00000000  -0.00000000  -0.00000000  1
  Mn  Mn48  1  -0.00000000  0.50000000  -0.00000000  1
  Mn  Mn49  1  0.50000000  -0.00000000  0.50000000  1
  Mn  Mn50  1  -0.00000000  0.50000000  0.50000000  1
  Mn  Mn51  1  0.50000000  -0.00000000  -0.00000000  1
  Mn  Mn52  1  0.24369563  0.49178244  0.25000000  1
  Mn  Mn53  1  0.25630437  0.99178244  0.25000000  1
  Mn  Mn54  1  0.75630437  0.50821756  0.75000000  1
  Mn  Mn55  1  0.74369563  0.00821756  0.75000000  1
  Pb  Pb0  1  0.64434403  0.73951725  0.25000000  1
  Pb  Pb1  1  0.85565597  0.23951725  0.25000000  1
  Pb  Pb2  1  0.35565597  0.26048275  0.75000000  1
  Pb  Pb3  1  0.14434403  0.76048275  0.75000000  1
  Pb  Pb4  1  0.05927648  0.75212564  0.05538388  1
  Pb  Pb5  1  0.44072352  0.25212564  0.44461612  1
  Pb  Pb6  1  0.94072352  0.24787436  0.55538388  1
  Pb  Pb7  1  0.55927648  0.74787436  0.94461612  1
  Pb  Pb8  1  0.94072352  0.24787436  0.94461612  1
  Pb  Pb9  1  0.55927648  0.74787436  0.55538388  1
  Pb  Pb10  1  0.05927648  0.75212564  0.44461612  1
  Pb  Pb11  1  0.44072352  0.25212564  0.05538388  1
  Pb  Pb12  1  0.98475444  0.73257812  0.25000000  1
  Pb  Pb13  1  0.51524556  0.23257812  0.25000000  1
  Pb  Pb14  1  0.01524556  0.26742188  0.75000000  1
  Pb  Pb15  1  0.48475444  0.76742188  0.75000000  1
  Pb  Pb16  1  0.39105834  0.74260603  0.11574119  1
  Pb  Pb17  1  0.10894166  0.24260603  0.38425881  1
  Pb  Pb18  1  0.60894166  0.25739397  0.61574119  1
  Pb  Pb19  1  0.89105834  0.75739397  0.88425881  1
  Pb  Pb20  1  0.60894166  0.25739397  0.88425881  1
  Pb  Pb21  1  0.89105834  0.75739397  0.61574119  1
  Pb  Pb22  1  0.39105834  0.74260603  0.38425881  1
  Pb  Pb23  1  0.10894166  0.24260603  0.11574119  1
  O  O0  1  0.82743110  0.07988210  0.50613885  1
  O  O1  1  0.67256890  0.57988210  0.99386115  1
  O  O2  1  0.17256890  0.92011790  0.00613885  1
  O  O3  1  0.32743110  0.42011790  0.49386115  1
  O  O4  1  0.17256890  0.92011790  0.49386115  1
  O  O5  1  0.32743110  0.42011790  0.00613885  1
  O  O6  1  0.82743110  0.07988210  0.99386115  1
  O  O7  1  0.67256890  0.57988210  0.50613885  1
  O  O8  1  0.84149845  0.42324894  0.99018444  1
  O  O9  1  0.65850155  0.92324894  0.50981556  1
  O  O10  1  0.15850155  0.57675106  0.49018444  1
  O  O11  1  0.34149845  0.07675106  0.00981556  1
  O  O12  1  0.15850155  0.57675106  0.00981556  1
  O  O13  1  0.34149845  0.07675106  0.49018444  1
  O  O14  1  0.84149845  0.42324894  0.50981556  1
  O  O15  1  0.65850155  0.92324894  0.99018444  1
  O  O16  1  0.57921655  0.07298219  0.41561433  1
  O  O17  1  0.92078345  0.57298219  0.08438567  1
  O  O18  1  0.42078345  0.92701781  0.91561433  1
  O  O19  1  0.07921655  0.42701781  0.58438567  1
  O  O20  1  0.42078345  0.92701781  0.58438567  1
  O  O21  1  0.07921655  0.42701781  0.91561433  1
  O  O22  1  0.57921655  0.07298219  0.08438567  1
  O  O23  1  0.92078345  0.57298219  0.41561433  1
  O  O24  1  0.56570023  0.41996960  0.08372267  1
  O  O25  1  0.93429977  0.91996960  0.41627733  1
  O  O26  1  0.43429977  0.58003040  0.58372267  1
  O  O27  1  0.06570023  0.08003040  0.91627733  1
  O  O28  1  0.43429977  0.58003040  0.91627733  1
  O  O29  1  0.06570023  0.08003040  0.58372267  1
  O  O30  1  0.56570023  0.41996960  0.41627733  1
  O  O31  1  0.93429977  0.91996960  0.08372267  1
  O  O32  1  0.85014511  0.06812366  0.32771205  1
  O  O33  1  0.64985489  0.56812366  0.17228795  1
  O  O34  1  0.14985489  0.93187634  0.82771205  1
  O  O35  1  0.35014511  0.43187634  0.67228795  1
  O  O36  1  0.14985489  0.93187634  0.67228795  1
  O  O37  1  0.35014511  0.43187634  0.82771205  1
  O  O38  1  0.85014511  0.06812366  0.17228795  1
  O  O39  1  0.64985489  0.56812366  0.32771205  1
  O  O40  1  0.83314112  0.41356900  0.17000190  1
  O  O41  1  0.66685888  0.91356900  0.32999810  1
  O  O42  1  0.16685888  0.58643100  0.67000190  1
  O  O43  1  0.33314112  0.08643100  0.82999810  1
  O  O44  1  0.16685888  0.58643100  0.82999810  1
  O  O45  1  0.33314112  0.08643100  0.67000190  1
  O  O46  1  0.83314112  0.41356900  0.32999810  1
  O  O47  1  0.66685888  0.91356900  0.17000190  1
  O  O48  1  0.84619932  0.75704266  0.00978030  1
  O  O49  1  0.65380068  0.25704266  0.49021970  1
  O  O50  1  0.15380068  0.24295734  0.50978030  1
  O  O51  1  0.34619932  0.74295734  0.99021970  1
  O  O52  1  0.15380068  0.24295734  0.99021970  1
  O  O53  1  0.34619932  0.74295734  0.50978030  1
  O  O54  1  0.84619932  0.75704266  0.49021970  1
  O  O55  1  0.65380068  0.25704266  0.00978030  1
  O  O56  1  0.81720235  0.73490538  0.16348232  1
  O  O57  1  0.68279765  0.23490538  0.33651768  1
  O  O58  1  0.18279765  0.26509462  0.66348232  1
  O  O59  1  0.31720235  0.76509462  0.83651768  1
  O  O60  1  0.18279765  0.26509462  0.83651768  1
  O  O61  1  0.31720235  0.76509462  0.66348232  1
  O  O62  1  0.81720235  0.73490538  0.33651768  1
  O  O63  1  0.68279765  0.23490538  0.16348232  1
  O  O64  1  0.60529259  0.74382388  0.07425905  1
  O  O65  1  0.89470741  0.24382388  0.42574095  1
  O  O66  1  0.39470741  0.25617612  0.57425905  1
  O  O67  1  0.10529259  0.75617612  0.92574095  1
  O  O68  1  0.39470741  0.25617612  0.92574095  1
  O  O69  1  0.10529259  0.75617612  0.57425905  1
  O  O70  1  0.60529259  0.74382388  0.42574095  1
  O  O71  1  0.89470741  0.24382388  0.07425905  1
  O  O72  1  0.40762851  0.56394383  0.25000000  1
  O  O73  1  0.09237149  0.06394383  0.25000000  1
  O  O74  1  0.59237149  0.43605617  0.75000000  1
  O  O75  1  0.90762851  0.93605617  0.75000000  1
  O  O76  1  0.41720275  0.91818236  0.25000000  1
  O  O77  1  0.08279725  0.41818236  0.25000000  1
  O  O78  1  0.58279725  0.08181764  0.75000000  1
  O  O79  1  0.91720275  0.58181764  0.75000000  1
  O  O80  1  0.82503358  0.07743381  0.66618928  1
  O  O81  1  0.67496642  0.57743381  0.83381072  1
  O  O82  1  0.17496642  0.92256619  0.16618928  1
  O  O83  1  0.32503358  0.42256619  0.33381072  1
  O  O84  1  0.17496642  0.92256619  0.33381072  1
  O  O85  1  0.32503358  0.42256619  0.16618928  1
  O  O86  1  0.82503358  0.07743381  0.83381072  1
  O  O87  1  0.67496642  0.57743381  0.66618928  1
  O  O88  1  0.83794355  0.43598018  0.83102080  1
  O  O89  1  0.66205645  0.93598018  0.66897920  1
  O  O90  1  0.16205645  0.56401982  0.33102080  1
  O  O91  1  0.33794355  0.06401982  0.16897920  1
  O  O92  1  0.16205645  0.56401982  0.16897920  1
  O  O93  1  0.33794355  0.06401982  0.33102080  1
  O  O94  1  0.83794355  0.43598018  0.66897920  1
  O  O95  1  0.66205645  0.93598018  0.83102080  1
  O  O96  1  0.93861484  0.91492544  0.25000000  1
  O  O97  1  0.56138516  0.41492544  0.25000000  1
  O  O98  1  0.06138516  0.08507456  0.75000000  1
  O  O99  1  0.43861484  0.58507456  0.75000000  1
  O  O100  1  0.92057217  0.56296538  0.25000000  1
  O  O101  1  0.57942783  0.06296538  0.25000000  1
  O  O102  1  0.07942783  0.43703462  0.75000000  1
  O  O103  1  0.42057217  0.93703462  0.75000000  1
  O  O104  1  0.59271897  0.43040932  0.58902335  1
  O  O105  1  0.90728103  0.93040932  0.91097665  1
  O  O106  1  0.40728103  0.56959068  0.08902335  1
  O  O107  1  0.09271897  0.06959068  0.41097665  1
  O  O108  1  0.40728103  0.56959068  0.41097665  1
  O  O109  1  0.09271897  0.06959068  0.08902335  1
  O  O110  1  0.59271897  0.43040932  0.91097665  1
  O  O111  1  0.90728103  0.93040932  0.58902335  1
  O  O112  1  0.57823802  0.07656801  0.91763073  1
  O  O113  1  0.92176198  0.57656801  0.58236927  1
  O  O114  1  0.42176198  0.92343199  0.41763073  1
  O  O115  1  0.07823802  0.42343199  0.08236927  1
  O  O116  1  0.42176198  0.92343199  0.08236927  1
  O  O117  1  0.07823802  0.42343199  0.41763073  1
  O  O118  1  0.57823802  0.07656801  0.58236927  1
  O  O119  1  0.92176198  0.57656801  0.91763073  1
loop_
_geom_bond_atom_site_label_1
_geom_bond_atom_site_label_2
_geom_bond_distance
_geom_bond_site_symmetry_2
Mn0 O12 1.926311 1_555
Mn0 O5 1.933872 1_555
Mn0 O106 1.964997 1_555
Mn0 O92 1.980210 1_555
Mn0 O85 1.985322 1_555
Mn0 O115 1.986328 1_555
Mn1 O13 1.926311 1_565
Mn1 O4 1.933872 1_555
Mn1 O107 1.964997 1_565
Mn1 O93 1.980210 1_565
Mn1 O84 1.985322 1_555
Mn1 O114 1.986328 1_555
Mn2 O14 1.926311 1_555
Mn2 O7 1.933872 1_555
Mn2 O104 1.964997 1_555
Mn2 O94 1.980210 1_555
Mn2 O87 1.985322 1_555
Mn2 O113 1.986328 1_555
Mn3 O15 1.926311 1_545
Mn3 O6 1.933872 1_555
Mn3 O105 1.964997 1_545
Mn3 O95 1.980210 1_545
Mn3 O86 1.985322 1_555
Mn3 O112 1.986328 1_555
Mn4 O8 1.926311 1_555
Mn4 O1 1.933872 1_555
Mn4 O110 1.964997 1_555
Mn4 O88 1.980210 1_555
Mn4 O81 1.985322 1_555
Mn4 O119 1.986328 1_555
Mn5 O9 1.926311 1_545
Mn5 O0 1.933872 1_555
Mn5 O111 1.964997 1_545
Mn5 O89 1.980210 1_545
Mn5 O80 1.985322 1_555
Mn5 O118 1.986328 1_555
Mn6 O10 1.926311 1_555
Mn6 O3 1.933872 1_555
Mn6 O108 1.964997 1_555
Mn6 O90 1.980210 1_555
Mn6 O83 1.985322 1_555
Mn6 O117 1.986328 1_555
Mn7 O11 1.926311 1_565
Mn7 O2 1.933872 1_555
Mn7 O109 1.964997 1_565
Mn7 O91 1.980210 1_565
Mn7 O82 1.985322 1_555
Mn7 O116 1.986328 1_555
Mn8 O101 1.935675 1_565
Mn8 O41 1.960874 1_555
Mn8 O114 1.975909 1_555
Mn8 O16 1.984957 1_565
Mn8 O93 2.021270 1_565
Mn8 O76 2.032135 1_555
Mn9 O100 1.935675 1_555
Mn9 O40 1.960874 1_555
Mn9 O115 1.975909 1_655
Mn9 O17 1.984957 1_555
Mn9 O92 2.021270 1_655
Mn9 O77 2.032135 1_655
Mn10 O103 1.935675 1_545
Mn10 O43 1.960874 1_555
Mn10 O112 1.975909 1_555
Mn10 O18 1.984957 1_545
Mn10 O95 2.021270 1_545
Mn10 O78 2.032135 1_555
Mn11 O102 1.935675 1_555
Mn11 O42 1.960874 1_555
Mn11 O113 1.975909 1_455
Mn11 O19 1.984957 1_555
Mn11 O94 2.021270 1_455
Mn11 O79 2.032135 1_455
Mn12 O103 1.935675 1_545
Mn12 O45 1.960874 1_555
Mn12 O118 1.975909 1_555
Mn12 O20 1.984957 1_545
Mn12 O89 2.021270 1_545
Mn12 O78 2.032135 1_555
Mn13 O102 1.935675 1_555
Mn13 O44 1.960874 1_555
Mn13 O119 1.975909 1_455
Mn13 O21 1.984957 1_555
Mn13 O88 2.021270 1_455
Mn13 O79 2.032135 1_455
Mn14 O101 1.935675 1_565
Mn14 O47 1.960874 1_555
Mn14 O116 1.975909 1_555
Mn14 O22 1.984957 1_565
Mn14 O91 2.021270 1_565
Mn14 O76 2.032135 1_555
Mn15 O100 1.935675 1_555
Mn15 O46 1.960874 1_555
Mn15 O117 1.975909 1_655
Mn15 O23 1.984957 1_555
Mn15 O90 2.021270 1_655
Mn15 O77 2.032135 1_655
Mn16 O33 1.916012 1_555
Mn16 O24 1.945852 1_555
Mn16 O97 1.958524 1_555
Mn16 O106 1.963014 1_555
Mn16 O72 1.980102 1_555
Mn16 O85 1.994959 1_555
Mn17 O32 1.916012 1_465
Mn17 O25 1.945852 1_455
Mn17 O96 1.958524 1_455
Mn17 O107 1.963014 1_565
Mn17 O73 1.980102 1_565
Mn17 O84 1.994959 1_555
Mn18 O35 1.916012 1_555
Mn18 O26 1.945852 1_555
Mn18 O99 1.958524 1_555
Mn18 O104 1.963014 1_555
Mn18 O74 1.980102 1_555
Mn18 O87 1.994959 1_555
Mn19 O34 1.916012 1_645
Mn19 O27 1.945852 1_655
Mn19 O98 1.958524 1_655
Mn19 O105 1.963014 1_545
Mn19 O75 1.980102 1_545
Mn19 O86 1.994959 1_555
Mn20 O37 1.916012 1_555
Mn20 O28 1.945852 1_555
Mn20 O99 1.958524 1_555
Mn20 O110 1.963014 1_555
Mn20 O74 1.980102 1_555
Mn20 O81 1.994959 1_555
Mn21 O36 1.916012 1_645
Mn21 O29 1.945852 1_655
Mn21 O98 1.958524 1_655
Mn21 O111 1.963014 1_545
Mn21 O75 1.980102 1_545
Mn21 O80 1.994959 1_555
Mn22 O39 1.916012 1_555
Mn22 O30 1.945852 1_555
Mn22 O97 1.958524 1_555
Mn22 O108 1.963014 1_555
Mn22 O72 1.980102 1_555
Mn22 O83 1.994959 1_555
Mn23 O38 1.916012 1_465
Mn23 O31 1.945852 1_455
Mn23 O96 1.958524 1_455
Mn23 O109 1.963014 1_565
Mn23 O73 1.980102 1_565
Mn23 O82 1.994959 1_555
Mn24 O0 1.986238 1_555
Mn24 O16 1.987752 1_555
Mn24 O57 2.033719 1_555
Mn24 O65 2.069106 1_555
Mn24 O32 2.174516 1_555
Mn24 O49 2.266220 1_555
Mn25 O1 1.986238 1_554
Mn25 O17 1.987752 1_555
Mn25 O56 2.033719 1_555
Mn25 O64 2.069106 1_555
Mn25 O33 2.174516 1_555
Mn25 O48 2.266220 1_555
Mn26 O2 1.986238 1_556
Mn26 O18 1.987752 1_555
Mn26 O59 2.033719 1_555
Mn26 O67 2.069106 1_555
Mn26 O34 2.174516 1_555
Mn26 O51 2.266220 1_555
Mn27 O3 1.986238 1_555
Mn27 O19 1.987752 1_555
Mn27 O58 2.033719 1_555
Mn27 O66 2.069106 1_555
Mn27 O35 2.174516 1_555
Mn27 O50 2.266220 1_555
Mn28 O4 1.986238 1_555
Mn28 O20 1.987752 1_555
Mn28 O61 2.033719 1_555
Mn28 O69 2.069106 1_555
Mn28 O36 2.174516 1_555
Mn28 O53 2.266220 1_555
Mn29 O5 1.986238 1_556
Mn29 O21 1.987752 1_555
Mn29 O60 2.033719 1_555
Mn29 O68 2.069106 1_555
Mn29 O37 2.174516 1_555
Mn29 O52 2.266220 1_555
Mn30 O6 1.986238 1_554
Mn30 O22 1.987752 1_555
Mn30 O63 2.033719 1_555
Mn30 O71 2.069106 1_555
Mn30 O38 2.174516 1_555
Mn30 O55 2.266220 1_555
Mn31 O7 1.986238 1_555
Mn31 O23 1.987752 1_555
Mn31 O62 2.033719 1_555
Mn31 O70 2.069106 1_555
Mn31 O39 2.174516 1_555
Mn31 O54 2.266220 1_555
Mn32 O40 2.007771 1_555
Mn32 O55 2.055061 1_555
Mn32 O24 2.075474 1_555
Mn32 O71 2.149854 1_555
Mn32 O8 2.170055 1_554
Mn32 O63 2.251628 1_555
Mn33 O41 2.007771 1_555
Mn33 O54 2.055061 1_555
Mn33 O25 2.075474 1_555
Mn33 O70 2.149854 1_555
Mn33 O9 2.170055 1_555
Mn33 O62 2.251628 1_555
Mn34 O42 2.007771 1_555
Mn34 O53 2.055061 1_555
Mn34 O26 2.075474 1_555
Mn34 O69 2.149854 1_555
Mn34 O10 2.170055 1_555
Mn34 O61 2.251628 1_555
Mn35 O43 2.007771 1_555
Mn35 O52 2.055061 1_555
Mn35 O27 2.075474 1_555
Mn35 O68 2.149854 1_555
Mn35 O11 2.170055 1_556
Mn35 O60 2.251628 1_555
Mn36 O44 2.007771 1_555
Mn36 O51 2.055061 1_555
Mn36 O28 2.075474 1_555
Mn36 O67 2.149854 1_555
Mn36 O12 2.170055 1_556
Mn36 O59 2.251628 1_555
Mn37 O45 2.007771 1_555
Mn37 O50 2.055061 1_555
Mn37 O29 2.075474 1_555
Mn37 O66 2.149854 1_555
Mn37 O13 2.170055 1_555
Mn37 O58 2.251628 1_555
Mn38 O46 2.007771 1_555
Mn38 O49 2.055061 1_555
Mn38 O30 2.075474 1_555
Mn38 O65 2.149854 1_555
Mn38 O14 2.170055 1_555
Mn38 O57 2.251628 1_555
Mn39 O47 2.007771 1_555
Mn39 O48 2.055061 1_555
Mn39 O31 2.075474 1_555
Mn39 O64 2.149854 1_555
Mn39 O15 2.170055 1_554
Mn39 O56 2.251628 1_555
Mn40 O39 1.984348 1_555
Mn40 O33 1.984348 1_555
Mn40 O40 2.020561 1_555
Mn40 O46 2.020561 1_555
Mn40 O100 2.110303 1_555
Mn40 O97 2.119582 1_555
Mn41 O32 1.984348 1_565
Mn41 O38 1.984348 1_565
Mn41 O47 2.020561 1_555
Mn41 O41 2.020561 1_555
Mn41 O101 2.110303 1_565
Mn41 O96 2.119582 1_555
Mn42 O35 1.984348 1_555
Mn42 O37 1.984348 1_555
Mn42 O42 2.020561 1_555
Mn42 O44 2.020561 1_555
Mn42 O102 2.110303 1_555
Mn42 O99 2.119582 1_555
Mn43 O34 1.984348 1_545
Mn43 O36 1.984348 1_545
Mn43 O45 2.020561 1_555
Mn43 O43 2.020561 1_555
Mn43 O103 2.110303 1_545
Mn43 O98 2.119582 1_555
Mn44 O28 1.977889 1_554
Mn44 O24 1.977889 1_555
Mn44 O110 2.085669 1_554
Mn44 O106 2.085669 1_555
Mn44 O1 2.097167 1_554
Mn44 O5 2.097167 1_555
Mn45 O25 1.977889 1_445
Mn45 O29 1.977889 1_555
Mn45 O111 2.085669 1_445
Mn45 O107 2.085669 1_555
Mn45 O4 2.097167 1_545
Mn45 O0 2.097167 1_455
Mn46 O26 1.977889 1_555
Mn46 O30 1.977889 1_555
Mn46 O104 2.085669 1_555
Mn46 O108 2.085669 1_555
Mn46 O7 2.097167 1_555
Mn46 O3 2.097167 1_555
Mn47 O31 1.977889 1_445
Mn47 O27 1.977889 1_554
Mn47 O105 2.085669 1_444
Mn47 O109 2.085669 1_555
Mn47 O2 2.097167 1_545
Mn47 O6 2.097167 1_454
Mn48 O8 1.956839 1_454
Mn48 O12 1.956839 1_555
Mn48 O115 1.981546 1_555
Mn48 O119 1.981546 1_454
Mn48 O21 1.986147 1_554
Mn48 O17 1.986147 1_455
Mn49 O9 1.956839 1_545
Mn49 O13 1.956839 1_555
Mn49 O114 1.981546 1_545
Mn49 O118 1.981546 1_555
Mn49 O20 1.986147 1_545
Mn49 O16 1.986147 1_555
Mn50 O10 1.956839 1_555
Mn50 O14 1.956839 1_455
Mn50 O117 1.981546 1_555
Mn50 O113 1.981546 1_455
Mn50 O19 1.986147 1_555
Mn50 O23 1.986147 1_455
Mn51 O15 1.956839 1_544
Mn51 O11 1.956839 1_555
Mn51 O116 1.981546 1_545
Mn51 O112 1.981546 1_554
Mn51 O18 1.986147 1_544
Mn51 O22 1.986147 1_555
Mn52 O77 1.946205 1_555
Mn52 O90 1.946615 1_555
Mn52 O92 1.946615 1_555
Mn52 O85 1.961189 1_555
Mn52 O83 1.961189 1_555
Mn52 O72 1.962436 1_555
Mn53 O76 1.946205 1_555
Mn53 O91 1.946615 1_565
Mn53 O93 1.946615 1_565
Mn53 O84 1.961189 1_555
Mn53 O82 1.961189 1_555
Mn53 O73 1.962436 1_565
Mn54 O79 1.946205 1_555
Mn54 O94 1.946615 1_555
Mn54 O88 1.946615 1_555
Mn54 O81 1.961189 1_555
Mn54 O87 1.961189 1_555
Mn54 O74 1.962436 1_555
Mn55 O78 1.946205 1_555
Mn55 O95 1.946615 1_545
Mn55 O89 1.946615 1_545
Mn55 O86 1.961189 1_555
Mn55 O80 1.961189 1_555
Mn55 O75 1.962436 1_545
O0 Pb6 2.757192 1_555
O1 Pb7 2.757192 1_555
O2 Pb4 2.757192 1_555
O3 Pb5 2.757192 1_555
O4 Pb10 2.757192 1_555
O5 Pb11 2.757192 1_555
O6 Pb8 2.757192 1_555
O7 Pb9 2.757192 1_555
O8 Pb8 2.769192 1_555
O9 Pb9 2.769192 1_555
O10 Pb10 2.769192 1_555
O11 Pb11 2.769192 1_555
O12 Pb4 2.769192 1_555
O13 Pb5 2.769192 1_555
O14 Pb6 2.769192 1_555
O15 Pb7 2.769192 1_555
O24 Pb11 2.715651 1_555
O25 Pb10 2.715651 1_655
O26 Pb9 2.715651 1_555
O27 Pb8 2.715651 1_455
O28 Pb7 2.715651 1_555
O29 Pb6 2.715651 1_455
O30 Pb5 2.715651 1_555
O31 Pb4 2.715651 1_655
O48 Pb19 2.277053 1_554
O48 Pb4 2.336431 1_655
O49 Pb18 2.277053 1_555
O49 Pb5 2.336431 1_555
O50 Pb17 2.277053 1_555
O50 Pb6 2.336431 1_455
O51 Pb16 2.277053 1_556
O51 Pb7 2.336431 1_555
O52 Pb23 2.277053 1_556
O52 Pb8 2.336431 1_455
O53 Pb22 2.277053 1_555
O53 Pb9 2.336431 1_555
O54 Pb21 2.277053 1_555
O54 Pb10 2.336431 1_655
O55 Pb20 2.277053 1_554
O55 Pb11 2.336431 1_555
O56 Pb12 2.308689 1_555
O56 Pb0 2.350320 1_555
O57 Pb13 2.308689 1_555
O57 Pb1 2.350320 1_555
O58 Pb14 2.308689 1_555
O58 Pb2 2.350320 1_555
O59 Pb15 2.308689 1_555
O59 Pb3 2.350320 1_555
O60 Pb14 2.308689 1_555
O60 Pb2 2.350320 1_555
O61 Pb15 2.308689 1_555
O61 Pb3 2.350320 1_555
O62 Pb12 2.308689 1_555
O62 Pb0 2.350320 1_555
O63 Pb13 2.308689 1_555
O63 Pb1 2.350320 1_555
O64 Pb16 2.322388 1_555
O64 Pb7 2.351836 1_554
O65 Pb17 2.322388 1_655
O65 Pb6 2.351836 1_555
O66 Pb18 2.322388 1_555
O66 Pb5 2.351836 1_555
O67 Pb19 2.322388 1_455
O67 Pb4 2.351836 1_556
O68 Pb20 2.322388 1_555
O68 Pb11 2.351836 1_556
O69 Pb21 2.322388 1_455
O69 Pb10 2.351836 1_555
O70 Pb22 2.322388 1_555
O70 Pb9 2.351836 1_555
O71 Pb23 2.322388 1_655
O71 Pb8 2.351836 1_554
O96 Pb12 2.584959 1_555
O97 Pb13 2.584959 1_555
O98 Pb14 2.584959 1_555
O99 Pb15 2.584959 1_555
O100 Pb12 2.453971 1_555
O101 Pb13 2.453971 1_555
O102 Pb14 2.453971 1_555
O103 Pb15 2.453971 1_555
O104 Pb18 2.462954 1_555
O105 Pb19 2.462954 1_555
O106 Pb16 2.462954 1_555
O107 Pb17 2.462954 1_555
O108 Pb22 2.462954 1_555
O109 Pb23 2.462954 1_555
O110 Pb20 2.462954 1_555
O111 Pb21 2.462954 1_555
O112 Pb20 2.607841 1_555
O113 Pb21 2.607841 1_555
O114 Pb22 2.607841 1_555
O115 Pb23 2.607841 1_555
O116 Pb16 2.607841 1_555
O117 Pb17 2.607841 1_555
O118 Pb18 2.607841 1_555
O119 Pb19 2.607841 1_555
