# generated using pymatgen
data_LiTiSi3O8
_symmetry_space_group_name_H-M   'P 1'
_cell_length_a   7.97476876
_cell_length_b   7.11344791
_cell_length_c   7.19510713
_cell_angle_alpha   81.32291968
_cell_angle_beta   109.40428698
_cell_angle_gamma   60.43439199
_symmetry_Int_Tables_number   1
_chemical_formula_structural   LiTiSi3O8
_chemical_formula_sum   'Li2 Ti2 Si6 O16'
_cell_volume   309.21975050
_cell_formula_units_Z   2
loop_
 _symmetry_equiv_pos_site_id
 _symmetry_equiv_pos_as_xyz
  1  'x, y, z'
loop_
 _atom_site_type_symbol
 _atom_site_label
 _atom_site_symmetry_multiplicity
 _atom_site_fract_x
 _atom_site_fract_y
 _atom_site_fract_z
 _atom_site_occupancy
  Li  Li0  1  0.80356800  0.81042400  0.79675700  1
  Li  Li1  1  0.19643200  0.18957600  0.20324300  1
  Ti  Ti0  1  0.18148900  0.77293200  0.12410800  1
  Ti  Ti1  1  0.81851100  0.22706800  0.87589200  1
  Si  Si0  1  0.21047500  0.56265700  0.73171000  1
  Si  Si1  1  0.46433400  0.72366200  0.62661300  1
  Si  Si2  1  0.19214100  0.14312200  0.74433500  1
  Si  Si3  1  0.80785900  0.85687800  0.25566500  1
  Si  Si4  1  0.53566600  0.27633800  0.37338700  1
  Si  Si5  1  0.78952500  0.43734300  0.26829000  1
  O  O0  1  0.11455000  0.70035900  0.87025400  1
  O  O1  1  0.38618300  0.93175600  0.72054300  1
  O  O2  1  0.02715400  0.70957700  0.48309500  1
  O  O3  1  0.30982700  0.83751300  0.36873700  1
  O  O4  1  0.13564100  0.06543200  0.92993800  1
  O  O5  1  0.43694600  0.52954400  0.75216300  1
  O  O6  1  0.27753900  0.29881000  0.81383600  1
  O  O7  1  0.72555100  0.57441200  0.71484600  1
  O  O8  1  0.27444900  0.42558800  0.28515400  1
  O  O9  1  0.72246100  0.70119000  0.18616400  1
  O  O10  1  0.56305400  0.47045600  0.24783700  1
  O  O11  1  0.86435900  0.93456800  0.07006200  1
  O  O12  1  0.69017200  0.16248700  0.63126300  1
  O  O13  1  0.97284600  0.29042300  0.51690500  1
  O  O14  1  0.61381700  0.06824400  0.27945700  1
  O  O15  1  0.88545000  0.29964100  0.12974600  1
loop_
_geom_bond_atom_site_label_1
_geom_bond_atom_site_label_2
_geom_bond_distance
_geom_bond_site_symmetry_2
Li0 O0 2.032385 1_655
Li0 O7 2.153762 1_555
Li0 O12 2.158094 1_565
Li0 O11 2.279220 1_556
Li1 O15 2.032385 1_455
Li1 O8 2.153762 1_555
Li1 O3 2.158097 1_545
Li1 O4 2.279220 1_554
O0 Si0 1.612521 1_555
O0 Ti0 1.948383 1_556
O1 Si2 1.625475 1_565
O1 Si1 1.645504 1_555
O2 Si3 1.614573 1_455
O2 Si0 1.618593 1_555
O3 Si1 1.630805 1_555
O3 Ti0 1.966613 1_555
O4 Si2 1.647628 1_555
O4 Ti1 2.052144 1_455
O4 Ti0 2.108908 1_546
O5 Si0 1.652905 1_555
O5 Si1 1.680129 1_555
O5 Ti1 2.417087 1_555
O6 Si0 1.619449 1_555
O6 Si2 1.620336 1_555
O7 Si1 1.614018 1_555
O7 Ti1 2.180582 1_555
O8 Si4 1.614018 1_555
O8 Ti0 2.180582 1_555
O9 Si5 1.619449 1_555
O9 Si3 1.620336 1_555
O10 Si5 1.652905 1_555
O10 Si4 1.680129 1_555
O10 Ti0 2.417087 1_555
O11 Si3 1.647628 1_555
O11 Ti0 2.052144 1_655
O11 Ti1 2.108908 1_564
O12 Si4 1.630804 1_555
O12 Ti1 1.966615 1_555
O13 Si2 1.614573 1_655
O13 Si5 1.618593 1_555
O14 Si3 1.625475 1_545
O14 Si4 1.645504 1_555
O15 Si5 1.612521 1_555
O15 Ti1 1.948383 1_554
