# generated using pymatgen
data_Li3V3P8O29
_symmetry_space_group_name_H-M   'P 1'
_cell_length_a   9.78072807
_cell_length_b   9.78072807
_cell_length_c   14.22839500
_cell_angle_alpha   90.00000000
_cell_angle_beta   90.00000000
_cell_angle_gamma   120.00000049
_symmetry_Int_Tables_number   1
_chemical_formula_structural   Li3V3P8O29
_chemical_formula_sum   'Li6 V6 P16 O58'
_cell_volume   1178.76955972
_cell_formula_units_Z   2
loop_
 _symmetry_equiv_pos_site_id
 _symmetry_equiv_pos_as_xyz
  1  'x, y, z'
loop_
 _atom_site_type_symbol
 _atom_site_label
 _atom_site_symmetry_multiplicity
 _atom_site_fract_x
 _atom_site_fract_y
 _atom_site_fract_z
 _atom_site_occupancy
  Li  Li0  1  0.98028600  0.42151900  0.94227800  1
  Li  Li1  1  0.98028600  0.55876700  0.44227800  1
  Li  Li2  1  0.44123300  0.42151900  0.44227800  1
  Li  Li3  1  0.57848100  0.55876700  0.94227800  1
  Li  Li4  1  0.44123300  0.01971400  0.94227800  1
  Li  Li5  1  0.57848100  0.01971400  0.44227800  1
  V  V0  1  0.66801400  0.76847400  0.74812200  1
  V  V1  1  0.66801400  0.89954000  0.24812200  1
  V  V2  1  0.10046000  0.76847400  0.24812200  1
  V  V3  1  0.23152600  0.89954000  0.74812200  1
  V  V4  1  0.10046000  0.33198600  0.74812200  1
  V  V5  1  0.23152600  0.33198600  0.24812200  1
  P  P0  1  0.98371700  0.42078400  0.15787400  1
  P  P1  1  0.98371700  0.56293300  0.65787400  1
  P  P2  1  0.43706700  0.42078400  0.65787400  1
  P  P3  1  0.33333300  0.66666700  0.86983000  1
  P  P4  1  0.33333300  0.66666700  0.36983000  1
  P  P5  1  0.57921600  0.56293300  0.15787400  1
  P  P6  1  0.75310600  0.64825400  0.33939700  1
  P  P7  1  0.43706700  0.01628300  0.15787400  1
  P  P8  1  0.89514800  0.64825400  0.83939700  1
  P  P9  1  0.57921600  0.01628300  0.65787400  1
  P  P10  1  0.75310600  0.10485200  0.83939700  1
  P  P11  1  0.00000000  0.00000000  0.63049300  1
  P  P12  1  0.00000000  0.00000000  0.13049300  1
  P  P13  1  0.89514800  0.24689400  0.33939700  1
  P  P14  1  0.35174600  0.10485200  0.33939700  1
  P  P15  1  0.35174600  0.24689400  0.83939700  1
  O  O0  1  0.90424500  0.34174200  0.42243100  1
  O  O1  1  0.00871600  0.41917800  0.67028100  1
  O  O2  1  0.90424500  0.56250300  0.92243100  1
  O  O3  1  0.00871600  0.58953700  0.17028100  1
  O  O4  1  0.14558100  0.42979900  0.17947300  1
  O  O5  1  0.18206100  0.51662700  0.82893600  1
  O  O6  1  0.28421800  0.42979900  0.67947300  1
  O  O7  1  0.43749700  0.34174200  0.92243100  1
  O  O8  1  0.41046300  0.41917800  0.17028100  1
  O  O9  1  0.18206100  0.66543300  0.32893600  1
  O  O10  1  0.14558100  0.71578200  0.67947300  1
  O  O11  1  0.33456700  0.51662700  0.32893600  1
  O  O12  1  0.33333300  0.66666700  0.97440100  1
  O  O13  1  0.33333300  0.66666700  0.47440100  1
  O  O14  1  0.48337300  0.66543300  0.82893600  1
  O  O15  1  0.28421800  0.85441900  0.17947300  1
  O  O16  1  0.33456700  0.81793900  0.82893600  1
  O  O17  1  0.58082200  0.58953700  0.67028100  1
  O  O18  1  0.67793900  0.54784100  0.24329000  1
  O  O19  1  0.65825800  0.56250300  0.42243100  1
  O  O20  1  0.65393000  0.57333000  0.06614600  1
  O  O21  1  0.57020100  0.71578200  0.17947300  1
  O  O22  1  0.48337300  0.81793900  0.32893600  1
  O  O23  1  0.75054900  0.67374100  0.83960000  1
  O  O24  1  0.57020100  0.85441900  0.67947300  1
  O  O25  1  0.41046300  0.99128400  0.67028100  1
  O  O26  1  0.86990200  0.54784100  0.74329000  1
  O  O27  1  0.91940000  0.57333000  0.56614600  1
  O  O28  1  0.43749700  0.09575500  0.42243100  1
  O  O29  1  0.92319200  0.67374100  0.33960000  1
  O  O30  1  0.76072900  0.80932500  0.32205400  1
  O  O31  1  0.58082200  0.99128400  0.17028100  1
  O  O32  1  0.85048500  0.85277400  0.67548400  1
  O  O33  1  0.76072900  0.95140400  0.82205400  1
  O  O34  1  0.65825800  0.09575500  0.92243100  1
  O  O35  1  0.65393000  0.08060000  0.56614600  1
  O  O36  1  0.67793900  0.13009800  0.74329000  1
  O  O37  1  0.75054900  0.07680800  0.33960000  1
  O  O38  1  0.00229000  0.85277400  0.17548400  1
  O  O39  1  0.04859600  0.80932500  0.82205400  1
  O  O40  1  0.85048500  0.99771000  0.17548400  1
  O  O41  1  0.00000000  0.00000000  0.02698200  1
  O  O42  1  0.00000000  0.00000000  0.52698200  1
  O  O43  1  0.00229000  0.14951500  0.67548400  1
  O  O44  1  0.19067500  0.95140400  0.32205400  1
  O  O45  1  0.14722600  0.99771000  0.67548400  1
  O  O46  1  0.92319200  0.24945100  0.83960000  1
  O  O47  1  0.86990200  0.32206100  0.24329000  1
  O  O48  1  0.91940000  0.34607000  0.06614600  1
  O  O49  1  0.04859600  0.23927100  0.32205400  1
  O  O50  1  0.14722600  0.14951500  0.17548400  1
  O  O51  1  0.19067500  0.23927100  0.82205400  1
  O  O52  1  0.32625900  0.07680800  0.83960000  1
  O  O53  1  0.42667000  0.08060000  0.06614600  1
  O  O54  1  0.45215900  0.13009800  0.24329000  1
  O  O55  1  0.32625900  0.24945100  0.33960000  1
  O  O56  1  0.42667000  0.34607000  0.56614600  1
  O  O57  1  0.45215900  0.32206100  0.74329000  1
loop_
_geom_bond_atom_site_label_1
_geom_bond_atom_site_label_2
_geom_bond_distance
_geom_bond_site_symmetry_2
Li0 O2 1.886765 1_555
Li0 O48 1.888371 1_556
Li0 O46 2.082958 1_555
Li0 O5 2.350524 1_655
Li1 O0 1.886765 1_555
Li1 O27 1.888371 1_555
Li1 O29 2.082958 1_555
Li1 O9 2.350523 1_655
Li2 O19 1.886765 1_555
Li2 O56 1.888371 1_555
Li2 O55 2.082958 1_555
Li2 O11 2.350517 1_555
Li3 O7 1.886765 1_555
Li3 O20 1.888371 1_556
Li3 O23 2.082958 1_555
Li3 O14 2.350517 1_555
Li4 O34 1.886765 1_555
Li4 O53 1.888371 1_556
Li4 O52 2.082958 1_555
Li4 O16 2.350523 1_545
Li5 O28 1.886765 1_555
Li5 O35 1.888371 1_555
Li5 O37 2.082958 1_555
Li5 O22 2.350524 1_545
O0 P13 1.477082 1_555
O1 P1 1.552949 1_455
O1 V4 1.877330 1_555
O2 P8 1.477082 1_555
O3 P0 1.552939 1_455
O3 V2 1.877337 1_555
O4 P0 1.571300 1_455
O4 V5 1.838510 1_555
O5 P3 1.584280 1_555
O5 V4 1.944010 1_555
O6 P2 1.571300 1_555
O6 V4 1.838510 1_555
O7 P15 1.477082 1_555
O8 P5 1.552943 1_555
O8 V5 1.877337 1_555
O9 P4 1.584271 1_555
O9 V2 1.944017 1_555
O10 P1 1.571300 1_455
O10 V3 1.838510 1_555
O11 P4 1.584289 1_555
O11 V5 1.944011 1_555
O12 P3 1.487877 1_555
O13 P4 1.487877 1_555
O14 P3 1.584289 1_555
O14 V0 1.944011 1_555
O15 P7 1.571300 1_565
O15 V2 1.838510 1_555
O16 P3 1.584271 1_555
O16 V3 1.944017 1_555
O17 P2 1.552943 1_555
O17 V0 1.877337 1_555
O18 P5 1.604276 1_555
O18 P6 1.628780 1_555
O19 P6 1.477082 1_555
O20 P5 1.474257 1_555
O21 P5 1.571300 1_555
O21 V1 1.838510 1_555
O22 P4 1.584280 1_555
O22 V1 1.944010 1_555
O23 P8 1.553995 1_555
O23 V0 1.988028 1_555
O24 P9 1.571300 1_565
O24 V0 1.838510 1_555
O25 P9 1.552939 1_565
O25 V3 1.877337 1_555
O26 P1 1.604276 1_555
O26 P8 1.628780 1_555
O27 P1 1.474257 1_555
O28 P14 1.477082 1_555
O29 P6 1.553995 1_555
O29 V2 1.988028 1_655
O30 P6 1.559119 1_555
O30 V1 1.872862 1_555
O31 P7 1.552949 1_565
O31 V1 1.877330 1_555
O32 P11 1.586211 1_665
O32 V0 1.860546 1_555
O33 P10 1.559119 1_565
O33 V0 1.872862 1_555
O34 P10 1.477082 1_555
O35 P9 1.474257 1_555
O36 P9 1.604276 1_555
O36 P10 1.628780 1_555
O37 P13 1.553995 1_555
O37 V1 1.988028 1_545
O38 P12 1.586216 1_565
O38 V2 1.860539 1_555
O39 P8 1.559119 1_455
O39 V3 1.872862 1_555
O40 P12 1.586207 1_665
O40 V1 1.860546 1_555
O41 P12 1.472795 1_555
O42 P11 1.472795 1_555
O43 P11 1.586207 1_555
O43 V4 1.860546 1_555
O44 P14 1.559119 1_565
O44 V2 1.872862 1_555
O45 P11 1.586216 1_565
O45 V3 1.860539 1_555
O46 P10 1.553995 1_555
O46 V4 1.988028 1_655
O47 P0 1.604276 1_555
O47 P13 1.628780 1_555
O48 P0 1.474257 1_555
O49 P13 1.559119 1_455
O49 V5 1.872862 1_555
O50 P12 1.586211 1_555
O50 V5 1.860546 1_555
O51 P15 1.559119 1_555
O51 V4 1.872862 1_555
O52 P15 1.553995 1_555
O52 V3 1.988028 1_545
O53 P7 1.474257 1_555
O54 P7 1.604276 1_555
O54 P14 1.628780 1_555
O55 P14 1.553995 1_555
O55 V5 1.988028 1_555
O56 P2 1.474257 1_555
O57 P2 1.604276 1_555
O57 P15 1.628780 1_555
