# generated using pymatgen
data_Ce4ThO10
_symmetry_space_group_name_H-M   'P 1'
_cell_length_a   15.94298946
_cell_length_b   15.94298946
_cell_length_c   6.69870215
_cell_angle_alpha   86.00649005
_cell_angle_beta   86.00649005
_cell_angle_gamma   13.94452957
_symmetry_Int_Tables_number   1
_chemical_formula_structural   Ce4ThO10
_chemical_formula_sum   'Ce8 Th2 O20'
_cell_volume   409.30203804
_cell_formula_units_Z   2
loop_
 _symmetry_equiv_pos_site_id
 _symmetry_equiv_pos_as_xyz
  1  'x, y, z'
loop_
 _atom_site_type_symbol
 _atom_site_label
 _atom_site_symmetry_multiplicity
 _atom_site_fract_x
 _atom_site_fract_y
 _atom_site_fract_z
 _atom_site_occupancy
  Ce  Ce0  1  0.00000000  0.00000000  0.50000000  1
  Ce  Ce1  1  0.29945989  0.29945989  0.39940506  1
  Ce  Ce2  1  0.50000000  0.50000000  -0.00000000  1
  Ce  Ce3  1  0.70054011  0.70054011  0.60059494  1
  Ce  Ce4  1  0.89986369  0.89986369  0.19988721  1
  Ce  Ce5  1  0.79919799  0.79919799  0.90110164  1
  Ce  Ce6  1  0.20080201  0.20080201  0.09889836  1
  Ce  Ce7  1  0.10013631  0.10013631  0.80011279  1
  Th  Th0  1  0.39966747  0.39966747  0.70025506  1
  Th  Th1  1  0.60033253  0.60033253  0.29974494  1
  O  O0  1  0.52421391  0.52421391  0.32453271  1
  O  O1  1  0.07462381  0.07462381  0.47896811  1
  O  O2  1  0.92537619  0.92537619  0.52103189  1
  O  O3  1  0.02493289  0.02493289  0.82587936  1
  O  O4  1  0.57468480  0.57468480  0.97119849  1
  O  O5  1  0.47578609  0.47578609  0.67546729  1
  O  O6  1  0.37420255  0.37420255  0.37124129  1
  O  O7  1  0.77474401  0.77474401  0.57509549  1
  O  O8  1  0.32364435  0.32364435  0.72527467  1
  O  O9  1  0.22525599  0.22525599  0.42490451  1
  O  O10  1  0.87421212  0.87421212  0.87939541  1
  O  O11  1  0.97506711  0.97506711  0.17412064  1
  O  O12  1  0.42531520  0.42531520  0.02880151  1
  O  O13  1  0.27466515  0.27466515  0.07512814  1
  O  O14  1  0.82428669  0.82428669  0.22559805  1
  O  O15  1  0.72533485  0.72533485  0.92487186  1
  O  O16  1  0.17571331  0.17571331  0.77440195  1
  O  O17  1  0.62579745  0.62579745  0.62875871  1
  O  O18  1  0.12578788  0.12578788  0.12060459  1
  O  O19  1  0.67635565  0.67635565  0.27472533  1
loop_
_geom_bond_atom_site_label_1
_geom_bond_atom_site_label_2
_geom_bond_distance
_geom_bond_site_symmetry_2
Ce0 O2 2.356167 1_445
Ce0 O1 2.356167 1_555
Ce0 O0 2.363872 1_455
Ce0 O0 2.363872 1_545
Ce0 O5 2.363872 1_455
Ce0 O5 2.363872 1_545
Ce0 O11 2.372722 1_445
Ce0 O3 2.372722 1_555
Ce1 O9 2.342787 1_555
Ce1 O6 2.359898 1_555
Ce1 O13 2.360859 1_555
Ce1 O8 2.363353 1_555
Ce1 O14 2.364319 1_545
Ce1 O14 2.364319 1_455
Ce1 O7 2.369225 1_545
Ce1 O7 2.369225 1_455
Ce2 O5 2.355243 1_554
Ce2 O0 2.355243 1_555
Ce2 O4 2.358118 1_554
Ce2 O12 2.358118 1_555
Ce2 O11 2.366307 1_455
Ce2 O11 2.366307 1_545
Ce2 O3 2.366307 1_654
Ce2 O3 2.366307 1_564
Ce3 O7 2.342787 1_555
Ce3 O17 2.359898 1_555
Ce3 O15 2.360859 1_555
Ce3 O19 2.363353 1_555
Ce3 O16 2.364319 1_565
Ce3 O16 2.364319 1_655
Ce3 O9 2.369225 1_655
Ce3 O9 2.369225 1_565
Ce4 O10 2.347940 1_554
Ce4 O2 2.350247 1_555
Ce4 O12 2.361818 1_655
Ce4 O12 2.361818 1_565
Ce4 O6 2.364692 1_565
Ce4 O6 2.364692 1_655
Ce4 O11 2.374343 1_555
Ce4 O14 2.386135 1_555
Ce5 O15 2.332026 1_555
Ce5 O13 2.362256 1_566
Ce5 O13 2.362256 1_656
Ce5 O14 2.365953 1_556
Ce5 O8 2.367153 1_565
Ce5 O8 2.367153 1_655
Ce5 O7 2.367546 1_555
Ce5 O10 2.368455 1_555
Ce6 O13 2.332026 1_555
Ce6 O15 2.362256 1_544
Ce6 O15 2.362256 1_454
Ce6 O16 2.365953 1_554
Ce6 O19 2.367153 1_545
Ce6 O19 2.367153 1_455
Ce6 O9 2.367546 1_555
Ce6 O18 2.368455 1_555
Ce7 O18 2.347940 1_556
Ce7 O1 2.350247 1_555
Ce7 O4 2.361818 1_455
Ce7 O4 2.361818 1_545
Ce7 O17 2.364692 1_545
Ce7 O17 2.364692 1_455
Ce7 O3 2.374343 1_555
Ce7 O16 2.386135 1_555
O0 Th1 2.403233 1_555
O1 Th1 2.389926 1_545
O1 Th1 2.389926 1_455
O2 Th0 2.389926 1_565
O2 Th0 2.389926 1_655
O4 Th1 2.398607 1_556
O5 Th0 2.403233 1_555
O6 Th0 2.399232 1_555
O8 Th0 2.400216 1_555
O10 Th0 2.387225 1_655
O10 Th0 2.387225 1_565
O12 Th0 2.398607 1_554
O17 Th1 2.399232 1_555
O18 Th1 2.387225 1_455
O18 Th1 2.387225 1_545
O19 Th1 2.400216 1_555
