# generated using pymatgen
data_Hf2N2O
_symmetry_space_group_name_H-M   'P 1'
_cell_length_a   8.65394236
_cell_length_b   8.66696669
_cell_length_c   8.67159820
_cell_angle_alpha   109.39734182
_cell_angle_beta   109.28570572
_cell_angle_gamma   109.41724328
_symmetry_Int_Tables_number   1
_chemical_formula_structural   Hf2N2O
_chemical_formula_sum   'Hf16 N16 O8'
_cell_volume   502.60428124
_cell_formula_units_Z   8
loop_
 _symmetry_equiv_pos_site_id
 _symmetry_equiv_pos_as_xyz
  1  'x, y, z'
loop_
 _atom_site_type_symbol
 _atom_site_label
 _atom_site_symmetry_multiplicity
 _atom_site_fract_x
 _atom_site_fract_y
 _atom_site_fract_z
 _atom_site_occupancy
  Hf  Hf0  1  0.74479611  0.78188128  0.03153338  1
  Hf  Hf1  1  0.50916827  0.00426462  0.99962165  1
  Hf  Hf2  1  0.02886165  0.24864503  0.27392455  1
  Hf  Hf3  1  0.46940820  0.75808984  0.21897730  1
  Hf  Hf4  1  0.71066207  0.96691942  0.74593637  1
  Hf  Hf5  1  0.22103636  0.47238580  0.75719678  1
  Hf  Hf6  1  0.01044086  0.00446366  0.51983975  1
  Hf  Hf7  1  0.98247187  0.48990979  0.98724415  1
  Hf  Hf8  1  0.74415261  0.28473335  0.53450663  1
  Hf  Hf9  1  0.50054288  0.49390418  0.48918878  1
  Hf  Hf10  1  0.25293222  0.71599401  0.46554814  1
  Hf  Hf11  1  0.78907763  0.53106774  0.24700986  1
  Hf  Hf12  1  0.29360615  0.04484675  0.25968437  1
  Hf  Hf13  1  0.96274165  0.74235096  0.70379344  1
  Hf  Hf14  1  0.53181959  0.24904100  0.78767587  1
  Hf  Hf15  1  0.25057099  0.21369785  0.96648224  1
  N  N0  1  0.46803990  0.72187379  0.95427993  1
  N  N1  1  0.50911440  0.73498665  0.46122929  1
  N  N2  1  0.01812097  0.54850768  0.77569464  1
  N  N3  1  0.45029336  0.96253870  0.72758904  1
  N  N4  1  0.25766658  0.27082517  0.22700678  1
  N  N5  1  0.76452553  0.53888307  0.99132572  1
  N  N6  1  0.54409967  0.03181857  0.27401935  1
  N  N7  1  0.04545413  0.77540227  0.50854173  1
  N  N8  1  0.96620062  0.00670107  0.74003800  1
  N  N9  1  0.77409345  0.22740032  0.76167427  1
  N  N10  1  0.48523806  0.26149420  0.53340900  1
  N  N11  1  0.99302882  0.45579403  0.22853467  1
  N  N12  1  0.26823578  0.24206539  0.72808168  1
  N  N13  1  0.77562915  0.04170685  0.03343582  1
  N  N14  1  0.72713576  0.49280528  0.45742736  1
  N  N15  1  0.53281634  0.27197955  0.04928347  1
  O  O0  1  0.27070880  0.51294071  0.54854480  1
  O  O1  1  0.22682445  0.95487856  0.96822029  1
  O  O2  1  0.73101183  0.77148696  0.27451142  1
  O  O3  1  0.22671329  0.77365948  0.23690911  1
  O  O4  1  0.03525367  0.98320904  0.26379642  1
  O  O5  1  0.73294079  0.72230995  0.77118326  1
  O  O6  1  0.95408812  0.22602220  0.48032000  1
  O  O7  1  0.24047738  0.46851525  0.01678068  1
loop_
_geom_bond_atom_site_label_1
_geom_bond_atom_site_label_2
_geom_bond_distance
_geom_bond_site_symmetry_2
Hf0 N0 2.082303 1_554
Hf0 N5 2.092092 1_554
Hf0 O5 2.100384 1_554
Hf0 N13 2.171503 1_565
Hf0 O2 2.178713 1_555
Hf0 O4 2.196522 1_655
Hf1 N3 2.114705 1_545
Hf1 N13 2.121615 1_556
Hf1 N15 2.138544 1_556
Hf1 N6 2.215782 1_556
Hf1 N0 2.227232 1_545
Hf1 O1 2.239469 1_545
Hf2 N11 2.057499 1_455
Hf2 N13 2.061957 1_455
Hf2 N4 2.110485 1_555
Hf2 O6 2.138744 1_455
Hf2 O0 2.279304 1_555
Hf2 O4 2.292772 1_545
Hf3 N6 2.073251 1_565
Hf3 N1 2.102258 1_555
Hf3 O2 2.106791 1_555
Hf3 O7 2.185076 1_555
Hf3 O3 2.200851 1_555
Hf3 N0 2.206423 1_554
Hf4 N9 2.082909 1_565
Hf4 N8 2.142738 1_565
Hf4 N1 2.169356 1_555
Hf4 N13 2.170281 1_566
Hf4 N3 2.192268 1_555
Hf4 O5 2.265342 1_555
Hf5 N0 2.055377 1_555
Hf5 O0 2.101854 1_555
Hf5 N2 2.104912 1_555
Hf5 N12 2.119150 1_555
Hf5 O7 2.213642 1_556
Hf5 O6 2.304737 1_455
Hf6 N8 2.063073 1_455
Hf6 N12 2.071921 1_555
Hf6 N7 2.081603 1_545
Hf6 O2 2.225424 1_445
Hf6 O6 2.234265 1_455
Hf6 O4 2.253741 1_545
Hf7 N9 2.059221 1_555
Hf7 N5 2.074888 1_555
Hf7 N2 2.146369 1_655
Hf7 N11 2.185506 1_556
Hf7 O7 2.239260 1_656
Hf7 O3 2.277550 1_656
Hf8 N6 2.123488 1_555
Hf8 N9 2.143179 1_555
Hf8 N14 2.152376 1_555
Hf8 N10 2.178455 1_555
Hf8 O6 2.190916 1_555
Hf8 N2 2.273006 1_655
Hf9 N14 2.070892 1_555
Hf9 N4 2.132262 1_555
Hf9 N10 2.142701 1_555
Hf9 N1 2.162274 1_555
Hf9 O5 2.198206 1_555
Hf9 O0 2.255256 1_555
Hf10 N3 2.105008 1_555
Hf10 N7 2.134782 1_555
Hf10 O0 2.141713 1_555
Hf10 O3 2.160709 1_555
Hf10 N1 2.181702 1_555
Hf10 N11 2.205438 1_455
Hf11 N11 2.109361 1_555
Hf11 N15 2.126050 1_555
Hf11 N14 2.157892 1_555
Hf11 N5 2.182615 1_554
Hf11 N7 2.216435 1_655
Hf11 O2 2.257536 1_555
Hf12 N10 2.068566 1_555
Hf12 O4 2.134595 1_545
Hf12 O3 2.147058 1_545
Hf12 N6 2.172888 1_555
Hf12 N4 2.174483 1_555
Hf12 O1 2.180941 1_544
Hf13 N7 2.108917 1_655
Hf13 N2 2.115345 1_655
Hf13 N14 2.126159 1_555
Hf13 O1 2.192635 1_655
Hf13 N8 2.195167 1_565
Hf13 O5 2.220798 1_555
Hf14 N12 2.140736 1_555
Hf14 N10 2.153048 1_555
Hf14 N3 2.160562 1_545
Hf14 N5 2.196614 1_555
Hf14 N15 2.207330 1_556
Hf14 N9 2.242207 1_555
Hf15 N4 2.120826 1_556
Hf15 N15 2.125314 1_556
Hf15 O7 2.142174 1_556
Hf15 N8 2.159411 1_455
Hf15 O1 2.189135 1_545
Hf15 N12 2.208842 1_555
