# generated using pymatgen
data_LiVSO4F3
_symmetry_space_group_name_H-M   'P 1'
_cell_length_a   10.33798400
_cell_length_b   7.07148600
_cell_length_c   8.05703527
_cell_angle_alpha   89.44041212
_cell_angle_beta   90.00000000
_cell_angle_gamma   90.00000000
_symmetry_Int_Tables_number   1
_chemical_formula_structural   LiVSO4F3
_chemical_formula_sum   'Li4 V4 S4 O16 F12'
_cell_volume   588.98073920
_cell_formula_units_Z   4
loop_
 _symmetry_equiv_pos_site_id
 _symmetry_equiv_pos_as_xyz
  1  'x, y, z'
loop_
 _atom_site_type_symbol
 _atom_site_label
 _atom_site_symmetry_multiplicity
 _atom_site_fract_x
 _atom_site_fract_y
 _atom_site_fract_z
 _atom_site_occupancy
  Li  Li0  1  0.02282000  0.67595600  0.57886000  1
  Li  Li1  1  0.97718000  0.67595600  0.07886000  1
  Li  Li2  1  0.47870700  0.80863200  0.57245800  1
  Li  Li3  1  0.52129300  0.80863200  0.07245800  1
  V  V0  1  0.75647300  0.00065700  0.50690600  1
  V  V1  1  0.24352700  0.00065700  0.00690600  1
  V  V2  1  0.74309100  0.50015800  0.50723000  1
  V  V3  1  0.25690900  0.50015800  0.00723000  1
  S  S0  1  0.24873500  0.25550200  0.68051900  1
  S  S1  1  0.75126500  0.25550200  0.18051900  1
  S  S2  1  0.75100400  0.74729500  0.83837600  1
  S  S3  1  0.24899600  0.74729500  0.33837600  1
  O  O0  1  0.18764300  0.10356100  0.79830900  1
  O  O1  1  0.81235700  0.10356100  0.29830900  1
  O  O2  1  0.34849400  0.16452700  0.58647300  1
  O  O3  1  0.65150600  0.16452700  0.08647300  1
  O  O4  1  0.14580300  0.35396900  0.59430200  1
  O  O5  1  0.85419700  0.35396900  0.09430200  1
  O  O6  1  0.31286300  0.40100100  0.79996500  1
  O  O7  1  0.68713700  0.40100100  0.29996500  1
  O  O8  1  0.81011400  0.59870600  0.72346700  1
  O  O9  1  0.18988600  0.59870600  0.22346700  1
  O  O10  1  0.64356500  0.67016700  0.93419000  1
  O  O11  1  0.35643500  0.67016700  0.43419000  1
  O  O12  1  0.85703000  0.82004300  0.93792100  1
  O  O13  1  0.14297000  0.82004300  0.43792100  1
  O  O14  1  0.69316500  0.90112700  0.72565700  1
  O  O15  1  0.30683500  0.90112700  0.22565700  1
  F  F0  1  0.41657500  0.99885300  0.95198400  1
  F  F1  1  0.58342500  0.99885300  0.45198400  1
  F  F2  1  0.75134000  0.24963600  0.60580700  1
  F  F3  1  0.24866000  0.24963600  0.10580700  1
  F  F4  1  0.08524500  0.50584200  0.94676600  1
  F  F5  1  0.91475500  0.50584200  0.44676600  1
  F  F6  1  0.58199200  0.55505700  0.58214900  1
  F  F7  1  0.41800800  0.55505700  0.08214900  1
  F  F8  1  0.25256300  0.75168000  0.89917700  1
  F  F9  1  0.74743700  0.75168000  0.39917700  1
  F  F10  1  0.91826500  0.94368200  0.57726800  1
  F  F11  1  0.08173500  0.94368200  0.07726800  1
loop_
_geom_bond_atom_site_label_1
_geom_bond_atom_site_label_2
_geom_bond_distance
_geom_bond_site_symmetry_2
Li0 O13 1.961603 1_555
Li0 O8 2.545355 1_455
Li0 O4 2.609749 1_555
Li1 O12 1.961603 1_554
Li1 O9 2.545355 1_655
Li1 O5 2.609749 1_555
Li2 O11 1.954207 1_555
Li3 O10 1.954207 1_554
O0 S0 1.560152 1_555
O0 V1 1.914176 1_556
O1 S1 1.560152 1_555
O1 V0 1.914176 1_555
O2 S0 1.435669 1_555
O3 S1 1.435669 1_555
O4 S0 1.445776 1_555
O5 S1 1.445776 1_555
O6 S0 1.563218 1_555
O6 V3 1.907314 1_556
O7 S1 1.563218 1_555
O7 V2 1.907314 1_555
O8 S2 1.534157 1_555
O8 V2 2.006192 1_555
O9 S3 1.534157 1_555
O9 V3 2.006192 1_555
O10 S2 1.455629 1_555
O11 S3 1.455629 1_555
O12 S2 1.455126 1_555
O13 S3 1.455126 1_555
O14 S2 1.531790 1_555
O14 V0 2.001457 1_565
O15 S3 1.531790 1_555
O15 V1 2.001457 1_565
F0 V1 1.842957 1_566
F0 Li3 1.974351 1_556
F1 V0 1.842957 1_565
F1 Li2 1.974351 1_555
F2 V2 1.936243 1_555
F2 V0 1.940382 1_555
F3 V3 1.936243 1_555
F3 V1 1.940382 1_555
F4 V3 1.840645 1_556
F4 Li1 1.962881 1_456
F5 V2 1.840645 1_555
F5 Li0 1.962881 1_655
F6 V2 1.814756 1_555
F6 Li2 2.087789 1_555
F7 V3 1.814756 1_555
F7 Li3 2.087789 1_555
F8 V1 1.972765 1_566
F8 V3 1.973128 1_556
F9 V0 1.972765 1_565
F9 V2 1.973128 1_555
F10 V0 1.810208 1_565
F10 Li0 2.179976 1_655
F11 V1 1.810208 1_565
F11 Li1 2.179976 1_455
