# generated using pymatgen
data_Li9V14O35
_symmetry_space_group_name_H-M   'P 1'
_cell_length_a   15.00741282
_cell_length_b   4.82687399
_cell_length_c   20.75236043
_cell_angle_alpha   90.00000000
_cell_angle_beta   108.12781519
_cell_angle_gamma   90.00000000
_symmetry_Int_Tables_number   1
_chemical_formula_structural   Li9V14O35
_chemical_formula_sum   'Li18 V28 O70'
_cell_volume   1428.66245895
_cell_formula_units_Z   2
loop_
 _symmetry_equiv_pos_site_id
 _symmetry_equiv_pos_as_xyz
  1  'x, y, z'
loop_
 _atom_site_type_symbol
 _atom_site_label
 _atom_site_symmetry_multiplicity
 _atom_site_fract_x
 _atom_site_fract_y
 _atom_site_fract_z
 _atom_site_occupancy
  Li  Li0  1  0.00000000  0.39032712  0.75000000  1
  Li  Li1  1  0.13665575  0.34858328  0.92496025  1
  Li  Li2  1  0.00000000  0.60967288  0.25000000  1
  Li  Li3  1  0.22150184  0.36626308  0.69909238  1
  Li  Li4  1  0.13665575  0.65141672  0.42496025  1
  Li  Li5  1  0.35063357  0.36214257  0.88732792  1
  Li  Li6  1  0.22150184  0.63373692  0.19909238  1
  Li  Li7  1  0.42650964  0.35635316  0.64569932  1
  Li  Li8  1  0.35063357  0.63785743  0.38732792  1
  Li  Li9  1  0.57349036  0.35635316  0.85430068  1
  Li  Li10  1  0.42650964  0.64364684  0.14569932  1
  Li  Li11  1  0.64936643  0.36214257  0.61267208  1
  Li  Li12  1  0.57349036  0.64364684  0.35430068  1
  Li  Li13  1  0.77849816  0.36626308  0.80090762  1
  Li  Li14  1  0.64936643  0.63785743  0.11267208  1
  Li  Li15  1  0.86334425  0.34858328  0.57503975  1
  Li  Li16  1  0.77849816  0.63373692  0.30090762  1
  Li  Li17  1  0.86334425  0.65141672  0.07503975  1
  V  V0  1  0.06639322  0.92199661  0.65269778  1
  V  V1  1  0.14489600  0.93112188  0.81669829  1
  V  V2  1  0.09158094  0.12471928  0.51878716  1
  V  V3  1  0.30118267  0.89289512  0.97460117  1
  V  V4  1  0.06639322  0.07800339  0.15269778  1
  V  V5  1  0.14489600  0.06887812  0.31669829  1
  V  V6  1  0.27788706  0.89555490  0.60816710  1
  V  V7  1  0.40064658  0.84024898  0.76884367  1
  V  V8  1  0.09158094  0.87528072  0.01878716  1
  V  V9  1  0.30118267  0.10710488  0.47460117  1
  V  V10  1  0.51060969  0.89545850  0.93289365  1
  V  V11  1  0.27788706  0.10444510  0.10816710  1
  V  V12  1  0.48939031  0.89545850  0.56710635  1
  V  V13  1  0.59935342  0.84024898  0.73115633  1
  V  V14  1  0.40064658  0.15975102  0.26884367  1
  V  V15  1  0.51060969  0.10454150  0.43289365  1
  V  V16  1  0.72211294  0.89555490  0.89183290  1
  V  V17  1  0.48939031  0.10454150  0.06710635  1
  V  V18  1  0.69881733  0.89289512  0.52539883  1
  V  V19  1  0.90841906  0.12471928  0.98121284  1
  V  V20  1  0.59935342  0.15975102  0.23115633  1
  V  V21  1  0.72211294  0.10444510  0.39183290  1
  V  V22  1  0.85510400  0.93112188  0.68330171  1
  V  V23  1  0.93360678  0.92199661  0.84730222  1
  V  V24  1  0.69881733  0.10710488  0.02539883  1
  V  V25  1  0.90841906  0.87528072  0.48121284  1
  V  V26  1  0.85510400  0.06887812  0.18330171  1
  V  V27  1  0.93360678  0.07800339  0.34730222  1
  O  O0  1  0.00875766  0.04429303  0.94114977  1
  O  O1  1  0.03975616  0.07546520  0.82354214  1
  O  O2  1  0.07140086  0.57868073  0.66019049  1
  O  O3  1  0.13084358  0.58694447  0.82022107  1
  O  O4  1  0.00875766  0.95570697  0.44114977  1
  O  O5  1  0.15423100  0.05004927  0.73840112  1
  O  O6  1  0.23897527  0.05861991  0.88485023  1
  O  O7  1  0.29176562  0.55519489  0.95748586  1
  O  O8  1  0.10067047  0.45527518  0.50182019  1
  O  O9  1  0.16324163  0.05756673  0.61467744  1
  O  O10  1  0.03975616  0.92453480  0.32354214  1
  O  O11  1  0.20292541  0.95627888  0.50887172  1
  O  O12  1  0.41693332  0.05850510  0.96818148  1
  O  O13  1  0.32586503  0.60367898  0.78187418  1
  O  O14  1  0.07140086  0.42131927  0.16019049  1
  O  O15  1  0.13084358  0.41305553  0.32022107  1
  O  O16  1  0.29448919  0.55907029  0.62734079  1
  O  O17  1  0.34838815  0.05667236  0.69925282  1
  O  O18  1  0.15423100  0.94995073  0.23840112  1
  O  O19  1  0.23897527  0.94138009  0.38485023  1
  O  O20  1  0.44668239  0.05487243  0.83988533  1
  O  O21  1  0.29176562  0.44480511  0.45748586  1
  O  O22  1  0.49809705  0.55873587  0.91307760  1
  O  O23  1  0.10067047  0.54472482  0.00182019  1
  O  O24  1  0.16324163  0.94243327  0.11467744  1
  O  O25  1  0.37323034  0.05645535  0.57361012  1
  O  O26  1  0.50000000  0.66210792  0.75000000  1
  O  O27  1  0.20292541  0.04372112  0.00887172  1
  O  O28  1  0.41693332  0.94149490  0.46818148  1
  O  O29  1  0.32586503  0.39632102  0.28187418  1
  O  O30  1  0.62676966  0.05645535  0.92638988  1
  O  O31  1  0.29448919  0.44092971  0.12734079  1
  O  O32  1  0.50190295  0.55873587  0.58692240  1
  O  O33  1  0.34838815  0.94332764  0.19925282  1
  O  O34  1  0.55331761  0.05487243  0.66011467  1
  O  O35  1  0.44668239  0.94512757  0.33988533  1
  O  O36  1  0.65161185  0.05667236  0.80074718  1
  O  O37  1  0.49809705  0.44126413  0.41307760  1
  O  O38  1  0.70551081  0.55907029  0.87265921  1
  O  O39  1  0.37323034  0.94354465  0.07361012  1
  O  O40  1  0.67413497  0.60367898  0.71812582  1
  O  O41  1  0.58306668  0.05850510  0.53181852  1
  O  O42  1  0.79707459  0.95627888  0.99112828  1
  O  O43  1  0.50000000  0.33789208  0.25000000  1
  O  O44  1  0.62676966  0.94354465  0.42638988  1
  O  O45  1  0.83675837  0.05756673  0.88532256  1
  O  O46  1  0.89932953  0.45527518  0.99817981  1
  O  O47  1  0.50190295  0.44126413  0.08692240  1
  O  O48  1  0.70823438  0.55519489  0.54251414  1
  O  O49  1  0.55331761  0.94512757  0.16011467  1
  O  O50  1  0.76102473  0.05861991  0.61514977  1
  O  O51  1  0.84576900  0.05004927  0.76159888  1
  O  O52  1  0.65161185  0.94332764  0.30074718  1
  O  O53  1  0.70551081  0.44092971  0.37265921  1
  O  O54  1  0.86915642  0.58694447  0.67977893  1
  O  O55  1  0.92859914  0.57868073  0.83980951  1
  O  O56  1  0.67413497  0.39632102  0.21812582  1
  O  O57  1  0.58306668  0.94149490  0.03181852  1
  O  O58  1  0.79707459  0.04372112  0.49112828  1
  O  O59  1  0.96024384  0.07546520  0.67645786  1
  O  O60  1  0.83675837  0.94243327  0.38532256  1
  O  O61  1  0.89932953  0.54472482  0.49817981  1
  O  O62  1  0.70823438  0.44480511  0.04251414  1
  O  O63  1  0.76102473  0.94138009  0.11514977  1
  O  O64  1  0.84576900  0.94995073  0.26159888  1
  O  O65  1  0.99124234  0.04429303  0.55885023  1
  O  O66  1  0.86915642  0.41305553  0.17977893  1
  O  O67  1  0.92859914  0.42131927  0.33980951  1
  O  O68  1  0.96024384  0.92453480  0.17645786  1
  O  O69  1  0.99124234  0.95570697  0.05885023  1
loop_
_geom_bond_atom_site_label_1
_geom_bond_atom_site_label_2
_geom_bond_distance
_geom_bond_site_symmetry_2
Li0 O1 2.104363 1_555
Li0 O59 2.104363 1_455
Li0 O54 2.258197 1_455
Li0 O3 2.258197 1_555
Li0 O2 2.586719 1_555
Li0 O55 2.586719 1_455
Li1 O23 2.065941 1_556
Li1 O27 2.260345 1_556
Li1 O6 2.409370 1_555
Li1 O7 2.427158 1_555
Li1 O3 2.436769 1_555
Li1 O0 2.521036 1_555
Li1 O1 2.525416 1_555
Li2 O68 2.104363 1_455
Li2 O10 2.104363 1_555
Li2 O66 2.258197 1_455
Li2 O15 2.258197 1_555
Li2 O67 2.586719 1_455
Li2 O14 2.586719 1_555
Li3 O5 2.127628 1_555
Li3 O13 2.245715 1_555
Li3 O9 2.258405 1_555
Li3 O16 2.301740 1_555
Li3 O2 2.376067 1_555
Li3 O17 2.419768 1_555
Li4 O8 2.065941 1_555
Li4 O11 2.260345 1_555
Li4 O19 2.409370 1_555
Li4 O21 2.427158 1_555
Li4 O15 2.436769 1_555
Li4 O4 2.521036 1_555
Li4 O10 2.525416 1_555
Li5 O7 2.137521 1_555
Li5 O6 2.214367 1_555
Li5 O12 2.216870 1_555
Li5 O22 2.312509 1_555
Li5 O13 2.404241 1_555
Li5 O20 2.475874 1_555
Li6 O18 2.127628 1_555
Li6 O29 2.245715 1_555
Li6 O24 2.258405 1_555
Li6 O31 2.301740 1_555
Li6 O14 2.376067 1_555
Li6 O33 2.419768 1_555
Li7 O25 2.056333 1_555
Li7 O16 2.135033 1_555
Li7 O32 2.140352 1_555
Li7 O34 2.339764 1_555
Li7 O17 2.347951 1_555
Li7 O26 2.567876 1_555
Li8 O21 2.137521 1_555
Li8 O19 2.214367 1_555
Li8 O28 2.216870 1_555
Li8 O37 2.312509 1_555
Li8 O29 2.404241 1_555
Li8 O35 2.475874 1_555
Li9 O30 2.056333 1_555
Li9 O38 2.135033 1_555
Li9 O22 2.140352 1_555
Li9 O20 2.339764 1_555
Li9 O36 2.347951 1_555
Li9 O26 2.567876 1_555
Li10 O39 2.056333 1_555
Li10 O31 2.135033 1_555
Li10 O47 2.140352 1_555
Li10 O49 2.339764 1_555
Li10 O33 2.347951 1_555
Li10 O43 2.567876 1_555
Li11 O48 2.137521 1_555
Li11 O50 2.214367 1_555
Li11 O41 2.216870 1_555
Li11 O32 2.312509 1_555
Li11 O40 2.404241 1_555
Li11 O34 2.475874 1_555
Li12 O44 2.056333 1_555
Li12 O53 2.135033 1_555
Li12 O37 2.140352 1_555
Li12 O35 2.339764 1_555
Li12 O52 2.347951 1_555
Li12 O43 2.567876 1_555
Li13 O51 2.127628 1_555
Li13 O40 2.245715 1_555
Li13 O45 2.258405 1_555
Li13 O38 2.301740 1_555
Li13 O55 2.376067 1_555
Li13 O36 2.419768 1_555
Li14 O62 2.137521 1_555
Li14 O63 2.214367 1_555
Li14 O57 2.216870 1_555
Li14 O47 2.312509 1_555
Li14 O56 2.404241 1_555
Li14 O49 2.475874 1_555
Li15 O61 2.065941 1_555
Li15 O58 2.260345 1_555
Li15 O50 2.409370 1_555
Li15 O48 2.427158 1_555
Li15 O54 2.436769 1_555
Li15 O65 2.521036 1_555
Li15 O59 2.525416 1_555
Li16 O64 2.127628 1_555
Li16 O56 2.245715 1_555
Li16 O60 2.258405 1_555
Li16 O53 2.301740 1_555
Li16 O67 2.376067 1_555
Li16 O52 2.419768 1_555
Li17 O46 2.065941 1_554
Li17 O42 2.260345 1_554
Li17 O63 2.409370 1_555
Li17 O62 2.427158 1_555
Li17 O66 2.436769 1_555
Li17 O69 2.521036 1_555
Li17 O68 2.525416 1_555
O0 V8 1.886835 1_546
O0 V19 1.971927 1_455
O0 V23 2.011616 1_445
O1 V1 1.770522 1_545
O1 V23 1.954072 1_445
O2 V0 1.663934 1_555
O3 V1 1.679087 1_555
O4 V2 1.886835 1_565
O4 V25 1.971927 1_455
O4 V27 2.011616 1_465
O5 V1 1.769449 1_545
O5 V0 1.955514 1_545
O6 V1 1.769139 1_545
O6 V3 1.974460 1_545
O7 V3 1.664906 1_555
O8 V2 1.648714 1_555
O9 V6 1.932530 1_545
O9 V0 1.968976 1_545
O9 V2 1.972263 1_555
O10 V5 1.770522 1_565
O10 V27 1.954072 1_465
O11 V2 1.926020 1_565
O11 V9 1.965403 1_565
O11 V6 2.038404 1_555
O12 V10 1.942336 1_545
O12 V3 1.954058 1_545
O12 V17 2.014242 1_556
O13 V7 1.680892 1_555
O14 V4 1.663934 1_555
O15 V5 1.679087 1_555
O16 V6 1.672314 1_555
O17 V7 1.757043 1_545
O17 V6 2.013145 1_545
O18 V5 1.769449 1_565
O18 V4 1.955514 1_565
O19 V5 1.769139 1_565
O19 V9 1.974460 1_565
O20 V7 1.757901 1_545
O20 V10 2.021300 1_545
O21 V9 1.664906 1_555
O22 V10 1.672715 1_555
O23 V8 1.648714 1_555
O24 V11 1.932530 1_565
O24 V4 1.968976 1_565
O24 V8 1.972263 1_555
O25 V6 1.950217 1_545
O25 V12 1.951279 1_545
O25 V9 2.016949 1_555
O26 V7 1.865023 1_555
O26 V13 1.865023 1_555
O27 V8 1.926020 1_545
O27 V3 1.965403 1_544
O27 V11 2.038404 1_555
O28 V15 1.942336 1_565
O28 V9 1.954058 1_565
O28 V12 2.014242 1_555
O29 V14 1.680892 1_555
O30 V16 1.950217 1_545
O30 V10 1.951279 1_545
O30 V24 2.016949 1_556
O31 V11 1.672314 1_555
O32 V12 1.672715 1_555
O33 V14 1.757043 1_565
O33 V11 2.013145 1_565
O34 V13 1.757901 1_545
O34 V12 2.021300 1_545
O35 V14 1.757901 1_565
O35 V15 2.021300 1_565
O36 V13 1.757043 1_545
O36 V16 2.013145 1_545
O37 V15 1.672715 1_555
O38 V16 1.672314 1_555
O39 V11 1.950217 1_565
O39 V17 1.951279 1_565
O39 V3 2.016949 1_554
O40 V13 1.680892 1_555
O41 V12 1.942336 1_545
O41 V18 1.954058 1_545
O41 V15 2.014242 1_555
O42 V19 1.926020 1_565
O42 V24 1.965403 1_566
O42 V16 2.038404 1_555
O43 V14 1.865023 1_555
O43 V20 1.865023 1_555
O44 V21 1.950217 1_565
O44 V15 1.951279 1_565
O44 V18 2.016949 1_555
O45 V16 1.932530 1_545
O45 V23 1.968976 1_545
O45 V19 1.972263 1_555
O46 V19 1.648714 1_555
O47 V17 1.672715 1_555
O48 V18 1.664906 1_555
O49 V20 1.757901 1_565
O49 V17 2.021300 1_565
O50 V22 1.769139 1_545
O50 V18 1.974460 1_545
O51 V22 1.769449 1_545
O51 V23 1.955514 1_545
O52 V20 1.757043 1_565
O52 V21 2.013145 1_565
O53 V21 1.672314 1_555
O54 V22 1.679087 1_555
O55 V23 1.663934 1_555
O56 V20 1.680892 1_555
O57 V17 1.942336 1_565
O57 V24 1.954058 1_565
O57 V10 2.014242 1_554
O58 V25 1.926020 1_545
O58 V18 1.965403 1_545
O58 V21 2.038404 1_555
O59 V22 1.770522 1_545
O59 V0 1.954072 1_645
O60 V21 1.932530 1_565
O60 V27 1.968976 1_565
O60 V25 1.972263 1_555
O61 V25 1.648714 1_555
O62 V24 1.664906 1_555
O63 V26 1.769139 1_565
O63 V24 1.974460 1_565
O64 V26 1.769449 1_565
O64 V27 1.955514 1_565
O65 V25 1.886835 1_545
O65 V2 1.971927 1_655
O65 V0 2.011616 1_645
O66 V26 1.679087 1_555
O67 V27 1.663934 1_555
O68 V26 1.770522 1_565
O68 V4 1.954072 1_665
O69 V19 1.886835 1_564
O69 V8 1.971927 1_655
O69 V4 2.011616 1_665
