# generated using pymatgen
data_Li4V2Fe3Co3O16
_symmetry_space_group_name_H-M   'P 1'
_cell_length_a   5.77107929
_cell_length_b   5.74867701
_cell_length_c   9.39100105
_cell_angle_alpha   89.99032045
_cell_angle_beta   91.28661856
_cell_angle_gamma   119.88315399
_symmetry_Int_Tables_number   1
_chemical_formula_structural   Li4V2Fe3Co3O16
_chemical_formula_sum   'Li4 V2 Fe3 Co3 O16'
_cell_volume   270.04305795
_cell_formula_units_Z   1
loop_
 _symmetry_equiv_pos_site_id
 _symmetry_equiv_pos_as_xyz
  1  'x, y, z'
loop_
 _atom_site_type_symbol
 _atom_site_label
 _atom_site_symmetry_multiplicity
 _atom_site_fract_x
 _atom_site_fract_y
 _atom_site_fract_z
 _atom_site_occupancy
  Li  Li0  1  0.32936700  0.66460300  0.89936000  1
  Li  Li1  1  0.00970100  0.00489500  0.99324800  1
  Li  Li2  1  0.01248300  0.00616900  0.49218600  1
  Li  Li3  1  0.66717500  0.33365500  0.39348600  1
  V  V0  1  0.33225500  0.66621400  0.49961400  1
  V  V1  1  0.66437100  0.33208300  0.00306600  1
  Fe  Fe0  1  0.64527600  0.82270200  0.22252800  1
  Fe  Fe1  1  0.82479800  0.64456100  0.71999100  1
  Fe  Fe2  1  0.82541900  0.18043000  0.71977200  1
  Co  Co0  1  0.17655300  0.83167500  0.21333000  1
  Co  Co1  1  0.17658200  0.34482600  0.21336800  1
  Co  Co2  1  0.34856700  0.17456200  0.71361500  1
  O  O0  1  0.18033200  0.83213600  0.59332300  1
  O  O1  1  0.05059700  0.52522900  0.33235800  1
  O  O2  1  0.32546500  0.66280100  0.10730800  1
  O  O3  1  0.00860900  0.00428500  0.29997800  1
  O  O4  1  0.00782200  0.00446200  0.79727600  1
  O  O5  1  0.18021500  0.34803100  0.59332200  1
  O  O6  1  0.46799400  0.96042800  0.34461200  1
  O  O7  1  0.46788300  0.50764200  0.34459400  1
  O  O8  1  0.34305900  0.17153800  0.10153900  1
  O  O9  1  0.65546300  0.82807000  0.58368400  1
  O  O10  1  0.50897900  0.46734400  0.84487000  1
  O  O11  1  0.50885100  0.04162200  0.84482700  1
  O  O12  1  0.66019400  0.32951000  0.60216100  1
  O  O13  1  0.83121900  0.65502000  0.09065000  1
  O  O14  1  0.95966600  0.47972300  0.85305400  1
  O  O15  1  0.83110600  0.17608600  0.09071800  1
loop_
_geom_bond_atom_site_label_1
_geom_bond_atom_site_label_2
_geom_bond_distance
_geom_bond_site_symmetry_2
Li0 O14 1.889372 1_455
Li0 O2 1.953441 1_556
Li0 O10 1.953842 1_555
Li0 O11 1.954233 1_565
Li1 O4 1.840157 1_555
Li1 O8 1.931079 1_556
Li1 O13 1.979984 1_446
Li1 O15 1.980420 1_456
Li2 O3 1.804629 1_555
Li2 O5 1.940363 1_555
Li2 O0 1.940456 1_545
Li2 O9 2.002233 1_445
Li3 O6 1.911668 1_545
Li3 O7 1.912177 1_555
Li3 O12 1.960882 1_555
Li3 O1 2.016738 1_655
Fe0 O2 1.908477 1_555
Fe0 O3 1.940629 1_665
Fe0 O7 1.961337 1_555
Fe0 O6 1.961685 1_555
Fe0 O15 2.167282 1_565
Fe0 O13 2.169184 1_555
Fe1 O12 1.909474 1_555
Fe1 O4 1.926518 1_665
Fe1 O14 1.938067 1_555
Fe1 O10 1.995109 1_555
Fe1 O9 2.162660 1_555
Fe1 O0 2.166149 1_655
Fe2 O12 1.905322 1_555
Fe2 O4 1.920309 1_655
Fe2 O14 1.938047 1_555
Fe2 O11 1.999251 1_555
Fe2 O9 2.159449 1_545
Fe2 O5 2.161924 1_655
Co0 O2 1.882130 1_555
Co0 O6 1.887692 1_555
Co0 O3 1.892129 1_565
Co0 O1 1.908162 1_555
Co0 O8 2.004129 1_565
Co0 O13 2.052071 1_455
Co1 O2 1.882661 1_555
Co1 O7 1.886880 1_555
Co1 O3 1.891438 1_555
Co1 O1 1.908157 1_555
Co1 O8 2.004411 1_555
Co1 O15 2.052511 1_455
Co2 O4 1.895640 1_555
Co2 O10 1.898957 1_555
Co2 O11 1.900252 1_555
Co2 O12 1.900317 1_555
Co2 O5 2.032321 1_555
Co2 O0 2.034896 1_545
O0 V0 1.822416 1_555
O1 V0 2.083064 1_555
O5 V0 1.823429 1_555
O6 V0 2.079245 1_555
O7 V0 2.079800 1_555
O8 V1 1.875323 1_555
O9 V0 1.781281 1_555
O10 V1 2.061679 1_556
O11 V1 2.061436 1_556
O13 V1 1.798280 1_555
O14 V1 2.067678 1_556
O15 V1 1.797699 1_555
