# generated using pymatgen
data_LiMnPO4
_symmetry_space_group_name_H-M   'P 1'
_cell_length_a   10.84380783
_cell_length_b   10.84380783
_cell_length_c   12.68398800
_cell_angle_alpha   90.00000000
_cell_angle_beta   90.00000000
_cell_angle_gamma   119.99999893
_symmetry_Int_Tables_number   1
_chemical_formula_structural   LiMnPO4
_chemical_formula_sum   'Li12 Mn12 P12 O48'
_cell_volume   1291.66557062
_cell_formula_units_Z   12
loop_
 _symmetry_equiv_pos_site_id
 _symmetry_equiv_pos_as_xyz
  1  'x, y, z'
loop_
 _atom_site_type_symbol
 _atom_site_label
 _atom_site_symmetry_multiplicity
 _atom_site_fract_x
 _atom_site_fract_y
 _atom_site_fract_z
 _atom_site_occupancy
  Li  Li0  1  0.00000000  0.50000000  0.00607200  1
  Li  Li1  1  0.00000000  0.50000000  0.66059500  1
  Li  Li2  1  0.00000000  0.50000000  0.33333300  1
  Li  Li3  1  0.00000000  0.00000000  0.16666700  1
  Li  Li4  1  0.00000000  0.00000000  0.50000000  1
  Li  Li5  1  0.00000000  0.00000000  0.83333300  1
  Li  Li6  1  0.50000000  0.50000000  0.33940500  1
  Li  Li7  1  0.50000000  0.50000000  0.66666700  1
  Li  Li8  1  0.50000000  0.50000000  0.99392800  1
  Li  Li9  1  0.50000000  0.00000000  0.32726100  1
  Li  Li10  1  0.50000000  0.00000000  0.00000000  1
  Li  Li11  1  0.50000000  0.00000000  0.67273900  1
  Mn  Mn0  1  0.00000000  0.74903700  0.83333300  1
  Mn  Mn1  1  0.00000000  0.25096300  0.83333300  1
  Mn  Mn2  1  0.24882000  0.75118000  0.16666700  1
  Mn  Mn3  1  0.24882000  0.49763900  0.50000000  1
  Mn  Mn4  1  0.50236100  0.75118000  0.83333300  1
  Mn  Mn5  1  0.25096300  0.25096300  0.16666700  1
  Mn  Mn6  1  0.25096300  0.00000000  0.50000000  1
  Mn  Mn7  1  0.74903700  0.74903700  0.16666700  1
  Mn  Mn8  1  0.49763900  0.24882000  0.83333300  1
  Mn  Mn9  1  0.75118000  0.50236100  0.50000000  1
  Mn  Mn10  1  0.75118000  0.24882000  0.16666700  1
  Mn  Mn11  1  0.74903700  0.00000000  0.50000000  1
  P  P0  1  0.00000000  0.75625900  0.33333300  1
  P  P1  1  0.24763500  0.75236500  0.66666700  1
  P  P2  1  0.00000000  0.24374100  0.33333300  1
  P  P3  1  0.24763500  0.49527000  0.00000000  1
  P  P4  1  0.24374100  0.24374100  0.66666700  1
  P  P5  1  0.50473000  0.75236500  0.33333300  1
  P  P6  1  0.24374100  0.00000000  0.00000000  1
  P  P7  1  0.49527000  0.24763500  0.33333300  1
  P  P8  1  0.75625900  0.75625900  0.66666700  1
  P  P9  1  0.75236500  0.50473000  0.00000000  1
  P  P10  1  0.75236500  0.24763500  0.66666700  1
  P  P11  1  0.75625900  0.00000000  0.00000000  1
  O  O0  1  0.06405500  0.87388000  0.41988100  1
  O  O1  1  0.12612000  0.93594500  0.91345200  1
  O  O2  1  0.10570200  0.69911800  0.72825900  1
  O  O3  1  0.10932700  0.71912500  0.28403900  1
  O  O4  1  0.28087500  0.89067300  0.04929500  1
  O  O5  1  0.30088200  0.89429800  0.60507400  1
  O  O6  1  0.20562500  0.62415600  0.59179600  1
  O  O7  1  0.10570200  0.40658300  0.93840800  1
  O  O8  1  0.20562500  0.58146900  0.07487100  1
  O  O9  1  0.10932700  0.39020200  0.38262800  1
  O  O10  1  0.06405500  0.19017600  0.24678500  1
  O  O11  1  0.37584400  0.79437500  0.74153800  1
  O  O12  1  0.41853100  0.79437500  0.25846200  1
  O  O13  1  0.12612000  0.19017600  0.75321500  1
  O  O14  1  0.28087500  0.39020200  0.61737200  1
  O  O15  1  0.37584400  0.58146900  0.92512900  1
  O  O16  1  0.30088200  0.40658300  0.06159200  1
  O  O17  1  0.41853100  0.62415600  0.40820400  1
  O  O18  1  0.19017600  0.12612000  0.58011900  1
  O  O19  1  0.19017600  0.06405500  0.08654800  1
  O  O20  1  0.59341700  0.89429800  0.39492600  1
  O  O21  1  0.60979800  0.89067300  0.95070500  1
  O  O22  1  0.60979800  0.71912500  0.71596100  1
  O  O23  1  0.40658300  0.30088200  0.27174100  1
  O  O24  1  0.59341700  0.69911800  0.27174100  1
  O  O25  1  0.39020200  0.28087500  0.71596100  1
  O  O26  1  0.39020200  0.10932700  0.95070500  1
  O  O27  1  0.40658300  0.10570200  0.39492600  1
  O  O28  1  0.80982400  0.93594500  0.08654800  1
  O  O29  1  0.80982400  0.87388000  0.58011900  1
  O  O30  1  0.58146900  0.37584400  0.40820400  1
  O  O31  1  0.69911800  0.59341700  0.06159200  1
  O  O32  1  0.62415600  0.41853100  0.92512900  1
  O  O33  1  0.71912500  0.60979800  0.61737200  1
  O  O34  1  0.87388000  0.80982400  0.75321500  1
  O  O35  1  0.58146900  0.20562500  0.25846200  1
  O  O36  1  0.62415600  0.20562500  0.74153800  1
  O  O37  1  0.93594500  0.80982400  0.24678500  1
  O  O38  1  0.89067300  0.60979800  0.38262800  1
  O  O39  1  0.79437500  0.41853100  0.07487100  1
  O  O40  1  0.89429800  0.59341700  0.93840800  1
  O  O41  1  0.79437500  0.37584400  0.59179600  1
  O  O42  1  0.69911800  0.10570200  0.60507400  1
  O  O43  1  0.71912500  0.10932700  0.04929500  1
  O  O44  1  0.89067300  0.28087500  0.28403900  1
  O  O45  1  0.89429800  0.30088200  0.72825900  1
  O  O46  1  0.87388000  0.06405500  0.91345200  1
  O  O47  1  0.93594500  0.12612000  0.41988100  1
loop_
_geom_bond_atom_site_label_1
_geom_bond_atom_site_label_2
_geom_bond_distance
_geom_bond_site_symmetry_2
Li0 O7 2.058559 1_554
Li0 O40 2.058559 1_454
Li0 O8 2.131653 1_555
Li0 O39 2.131653 1_455
Li1 O2 2.058550 1_555
Li1 O45 2.058550 1_455
Li1 O6 2.131653 1_555
Li1 O41 2.131653 1_455
Li2 O44 2.150698 1_455
Li2 O3 2.150698 1_555
Li2 O9 2.150702 1_555
Li2 O38 2.150702 1_455
Li3 O10 2.082195 1_555
Li3 O37 2.082195 1_445
Li3 O19 2.082202 1_555
Li3 O28 2.082202 1_445
Li4 O0 2.082193 1_545
Li4 O47 2.082193 1_455
Li4 O18 2.082200 1_555
Li4 O29 2.082200 1_445
Li5 O46 2.082193 1_455
Li5 O1 2.082193 1_545
Li5 O13 2.082194 1_555
Li5 O34 2.082194 1_445
Li6 O23 2.058550 1_555
Li6 O24 2.058550 1_555
Li6 O17 2.131653 1_555
Li6 O30 2.131653 1_555
Li7 O22 2.150698 1_555
Li7 O25 2.150698 1_555
Li7 O33 2.150702 1_555
Li7 O14 2.150702 1_555
Li8 O16 2.058550 1_556
Li8 O31 2.058550 1_556
Li8 O32 2.131653 1_555
Li8 O15 2.131653 1_555
Li9 O27 2.058564 1_555
Li9 O20 2.058564 1_545
Li9 O35 2.131653 1_555
Li9 O12 2.131653 1_545
Li10 O26 2.150702 1_554
Li10 O21 2.150702 1_544
Li10 O4 2.150702 1_545
Li10 O43 2.150702 1_555
Li11 O42 2.058556 1_555
Li11 O5 2.058556 1_545
Li11 O36 2.131653 1_555
Li11 O11 2.131653 1_545
Mn0 O2 2.000880 1_555
Mn0 O40 2.000883 1_455
Mn0 O34 2.058898 1_455
Mn0 O1 2.058912 1_555
Mn1 O45 2.000880 1_455
Mn1 O7 2.000883 1_555
Mn1 O13 2.058898 1_555
Mn1 O46 2.058912 1_455
Mn2 O4 2.024713 1_555
Mn2 O3 2.024713 1_555
Mn2 O12 2.024798 1_555
Mn2 O8 2.024805 1_555
Mn3 O14 2.024706 1_555
Mn3 O9 2.024711 1_555
Mn3 O17 2.024808 1_555
Mn3 O6 2.024814 1_555
Mn4 O22 2.024706 1_555
Mn4 O21 2.024711 1_555
Mn4 O11 2.024807 1_555
Mn4 O15 2.024808 1_555
Mn5 O23 2.000873 1_555
Mn5 O16 2.000881 1_555
Mn5 O10 2.058907 1_555
Mn5 O19 2.058913 1_555
Mn6 O27 2.000874 1_555
Mn6 O5 2.000880 1_545
Mn6 O18 2.058904 1_555
Mn6 O0 2.058912 1_545
Mn7 O24 2.000873 1_555
Mn7 O31 2.000881 1_555
Mn7 O37 2.058907 1_555
Mn7 O28 2.058913 1_555
Mn8 O25 2.024706 1_555
Mn8 O26 2.024711 1_555
Mn8 O36 2.024807 1_555
Mn8 O32 2.024808 1_555
Mn9 O33 2.024706 1_555
Mn9 O38 2.024711 1_555
Mn9 O30 2.024808 1_555
Mn9 O41 2.024814 1_555
Mn10 O43 2.024713 1_555
Mn10 O44 2.024713 1_555
Mn10 O35 2.024798 1_555
Mn10 O39 2.024805 1_555
Mn11 O20 2.000874 1_545
Mn11 O42 2.000880 1_555
Mn11 O29 2.058904 1_545
Mn11 O47 2.058912 1_555
O0 P0 1.558345 1_555
O1 P6 1.558345 1_566
O2 P1 1.556873 1_555
O3 P0 1.560742 1_555
O4 P6 1.560747 1_565
O5 P1 1.556879 1_555
O6 P1 1.552066 1_555
O7 P3 1.556874 1_556
O8 P3 1.552066 1_555
O9 P2 1.560747 1_555
O10 P2 1.558339 1_555
O11 P1 1.552066 1_555
O12 P5 1.552066 1_555
O13 P4 1.558345 1_555
O14 P4 1.560747 1_555
O15 P3 1.552066 1_556
O16 P3 1.556881 1_555
O17 P5 1.552066 1_555
O18 P4 1.558345 1_555
O19 P6 1.558339 1_555
O20 P5 1.556880 1_555
O21 P11 1.560747 1_566
O22 P8 1.560742 1_555
O23 P7 1.556881 1_555
O24 P5 1.556881 1_555
O25 P4 1.560742 1_555
O26 P6 1.560747 1_556
O27 P7 1.556880 1_555
O28 P11 1.558339 1_565
O29 P8 1.558345 1_555
O30 P7 1.552066 1_555
O31 P9 1.556881 1_555
O32 P9 1.552066 1_556
O33 P8 1.560747 1_555
O34 P8 1.558345 1_555
O35 P7 1.552066 1_555
O36 P10 1.552066 1_555
O37 P0 1.558339 1_655
O38 P0 1.560747 1_655
O39 P9 1.552066 1_555
O40 P9 1.556874 1_556
O41 P10 1.552066 1_555
O42 P10 1.556879 1_555
O43 P11 1.560747 1_555
O44 P2 1.560742 1_655
O45 P10 1.556873 1_555
O46 P11 1.558345 1_556
O47 P2 1.558345 1_655
