# generated using pymatgen
data_YBrO
_symmetry_space_group_name_H-M   'P 1'
_cell_length_a   10.27962413
_cell_length_b   10.27962413
_cell_length_c   10.27962324
_cell_angle_alpha   21.48800495
_cell_angle_beta   21.48800495
_cell_angle_gamma   21.48800349
_symmetry_Int_Tables_number   1
_chemical_formula_structural   YBrO
_chemical_formula_sum   'Y2 Br2 O2'
_cell_volume   127.70569987
_cell_formula_units_Z   2
loop_
 _symmetry_equiv_pos_site_id
 _symmetry_equiv_pos_as_xyz
  1  'x, y, z'
loop_
 _atom_site_type_symbol
 _atom_site_label
 _atom_site_symmetry_multiplicity
 _atom_site_fract_x
 _atom_site_fract_y
 _atom_site_fract_z
 _atom_site_occupancy
  Y  Y0  1  0.28622935  0.28622935  0.28622935  1
  Y  Y1  1  0.71377065  0.71377065  0.71377065  1
  Br  Br0  1  0.11088395  0.11088395  0.11088395  1
  Br  Br1  1  0.88911605  0.88911605  0.88911605  1
  O  O0  1  0.36156336  0.36156336  0.36156336  1
  O  O1  1  0.63843664  0.63843664  0.63843664  1
loop_
_geom_bond_atom_site_label_1
_geom_bond_atom_site_label_2
_geom_bond_distance
_geom_bond_site_symmetry_2
Br0 Y1 2.930173 1_454
Br0 Y1 2.930173 1_544
Br0 Y1 2.930174 1_445
Br1 Y0 2.930173 1_656
Br1 Y0 2.930173 1_566
Br1 Y0 2.930174 1_665
O0 Y0 2.268752 1_555
O0 Y1 2.284636 1_455
O0 Y1 2.284636 1_545
O0 Y1 2.284636 1_554
O1 Y1 2.268752 1_555
O1 Y0 2.284636 1_655
O1 Y0 2.284636 1_565
O1 Y0 2.284636 1_556
