# generated using pymatgen
data_Li4Mn3OF8
_symmetry_space_group_name_H-M   'P 1'
_cell_length_a   5.24942900
_cell_length_b   5.71474600
_cell_length_c   24.52011600
_cell_angle_alpha   90.00000000
_cell_angle_beta   90.00000000
_cell_angle_gamma   90.00000000
_symmetry_Int_Tables_number   1
_chemical_formula_structural   Li4Mn3OF8
_chemical_formula_sum   'Li16 Mn12 O4 F32'
_cell_volume   735.58272078
_cell_formula_units_Z   4
loop_
 _symmetry_equiv_pos_site_id
 _symmetry_equiv_pos_as_xyz
  1  'x, y, z'
loop_
 _atom_site_type_symbol
 _atom_site_label
 _atom_site_symmetry_multiplicity
 _atom_site_fract_x
 _atom_site_fract_y
 _atom_site_fract_z
 _atom_site_occupancy
  Li  Li0  1  0.98422800  0.94018500  0.56942600  1
  Li  Li1  1  0.98422800  0.94018500  0.43057400  1
  Li  Li2  1  0.55514000  0.99235000  0.77978000  1
  Li  Li3  1  0.55514000  0.99235000  0.22022000  1
  Li  Li4  1  0.05514000  0.00765000  0.72022000  1
  Li  Li5  1  0.05514000  0.00765000  0.27978000  1
  Li  Li6  1  0.48422800  0.05981500  0.06942600  1
  Li  Li7  1  0.48422800  0.05981500  0.93057400  1
  Li  Li8  1  0.52365100  0.40166900  0.56310100  1
  Li  Li9  1  0.52365100  0.40166900  0.43689900  1
  Li  Li10  1  0.92934400  0.48597200  0.21858900  1
  Li  Li11  1  0.92934400  0.48597200  0.78141100  1
  Li  Li12  1  0.42934400  0.51402800  0.71858900  1
  Li  Li13  1  0.42934400  0.51402800  0.28141100  1
  Li  Li14  1  0.02365100  0.59833100  0.06310100  1
  Li  Li15  1  0.02365100  0.59833100  0.93689900  1
  Mn  Mn0  1  0.45367300  0.87985600  0.50000000  1
  Mn  Mn1  1  0.98593400  0.98264600  0.13521800  1
  Mn  Mn2  1  0.98593400  0.98264600  0.86478200  1
  Mn  Mn3  1  0.48593400  0.01735400  0.63521800  1
  Mn  Mn4  1  0.48593400  0.01735400  0.36478200  1
  Mn  Mn5  1  0.95367300  0.12014400  0.00000000  1
  Mn  Mn6  1  0.09108400  0.31498700  0.50000000  1
  Mn  Mn7  1  0.49144000  0.49015600  0.14123100  1
  Mn  Mn8  1  0.49144000  0.49015600  0.85876900  1
  Mn  Mn9  1  0.99144000  0.50984400  0.64123100  1
  Mn  Mn10  1  0.99144000  0.50984400  0.35876900  1
  Mn  Mn11  1  0.59108400  0.68501300  0.00000000  1
  O  O0  1  0.30918900  0.10368800  0.44003400  1
  O  O1  1  0.30918900  0.10368800  0.55996600  1
  O  O2  1  0.80918900  0.89631200  0.94003400  1
  O  O3  1  0.80918900  0.89631200  0.05996600  1
  F  F0  1  0.29188600  0.75733600  0.10215400  1
  F  F1  1  0.29188600  0.75733600  0.89784600  1
  F  F2  1  0.74531300  0.73272000  0.17983300  1
  F  F3  1  0.74531300  0.73272000  0.82016700  1
  F  F4  1  0.33900100  0.99159600  0.00000000  1
  F  F5  1  0.19913400  0.98702800  0.20954300  1
  F  F6  1  0.19913400  0.98702800  0.79045700  1
  F  F7  1  0.69913400  0.01297200  0.70954300  1
  F  F8  1  0.69913400  0.01297200  0.29045700  1
  F  F9  1  0.83900100  0.00840400  0.50000000  1
  F  F10  1  0.24531300  0.26728000  0.67983300  1
  F  F11  1  0.24531300  0.26728000  0.32016700  1
  F  F12  1  0.79188600  0.24266400  0.60215400  1
  F  F13  1  0.79188600  0.24266400  0.39784600  1
  F  F14  1  0.23106300  0.25328300  0.89596400  1
  F  F15  1  0.23106300  0.25328300  0.10403600  1
  F  F16  1  0.73953200  0.23484700  0.17712000  1
  F  F17  1  0.73953200  0.23484700  0.82288000  1
  F  F18  1  0.17870100  0.48357500  0.00000000  1
  F  F19  1  0.28056000  0.48900800  0.21300700  1
  F  F20  1  0.28056000  0.48900800  0.78699300  1
  F  F21  1  0.20235700  0.59250900  0.55983500  1
  F  F22  1  0.20235700  0.59250900  0.44016500  1
  F  F23  1  0.70235700  0.40749100  0.05983500  1
  F  F24  1  0.70235700  0.40749100  0.94016500  1
  F  F25  1  0.78056000  0.51099200  0.71300700  1
  F  F26  1  0.78056000  0.51099200  0.28699300  1
  F  F27  1  0.67870100  0.51642500  0.50000000  1
  F  F28  1  0.23953200  0.76515300  0.67712000  1
  F  F29  1  0.23953200  0.76515300  0.32288000  1
  F  F30  1  0.73106300  0.74671700  0.60403600  1
  F  F31  1  0.73106300  0.74671700  0.39596400  1
loop_
_geom_bond_atom_site_label_1
_geom_bond_atom_site_label_2
_geom_bond_distance
_geom_bond_site_symmetry_2
Li0 O1 1.958782 1_665
Li1 O0 1.958782 1_665
Li6 O3 1.958782 1_545
Li7 O2 1.958782 1_545
Li8 O1 2.042832 1_555
Li9 O0 2.042832 1_555
Li14 O3 2.042832 1_455
Li15 O2 2.042832 1_455
Mn0 O1 2.091283 1_565
Mn0 O0 2.091283 1_565
Mn1 O3 2.123434 1_555
Mn2 O2 2.123434 1_555
Mn3 O1 2.123434 1_555
Mn4 O0 2.123434 1_555
Mn5 O2 2.091283 1_544
Mn5 O3 2.091283 1_545
Mn6 O1 2.220576 1_555
Mn6 O0 2.220576 1_555
Mn11 O2 2.220576 1_554
Mn11 O3 2.220576 1_555
F0 Li14 1.930115 1_555
F0 Mn7 2.084889 1_555
F0 Li6 2.156731 1_565
F0 Mn1 2.212385 1_455
F1 Li15 1.930115 1_555
F1 Mn8 2.084889 1_555
F1 Li7 2.156731 1_565
F1 Mn2 2.212385 1_455
F2 Li10 1.955691 1_555
F2 Li3 2.044189 1_555
F2 Mn7 2.143244 1_555
F2 Mn1 2.198221 1_555
F3 Li11 1.955691 1_555
F3 Li2 2.044189 1_555
F3 Mn8 2.143244 1_555
F3 Mn2 2.198221 1_555
F4 Li7 1.905549 1_564
F4 Li6 1.905549 1_565
F4 Mn5 2.152020 1_465
F4 Mn11 2.195623 1_555
F5 Li5 1.884487 1_565
F5 Li3 1.887322 1_555
F5 Mn1 2.138817 1_455
F6 Li4 1.884487 1_565
F6 Li2 1.887322 1_555
F6 Mn2 2.138817 1_455
F7 Li2 1.884487 1_545
F7 Li4 1.887322 1_655
F7 Mn3 2.138817 1_555
F8 Li3 1.884487 1_545
F8 Li5 1.887322 1_655
F8 Mn4 2.138817 1_555
F9 Li1 1.905549 1_545
F9 Li0 1.905549 1_545
F9 Mn0 2.152020 1_545
F9 Mn6 2.195623 1_655
F10 Li12 1.955691 1_555
F10 Li4 2.044189 1_555
F10 Mn9 2.143244 1_455
F10 Mn3 2.198221 1_555
F11 Li13 1.955691 1_555
F11 Li5 2.044189 1_555
F11 Mn10 2.143244 1_455
F11 Mn4 2.198221 1_555
F12 Li8 1.930115 1_555
F12 Mn9 2.084889 1_555
F12 Li0 2.156731 1_545
F12 Mn3 2.212385 1_555
F13 Li9 1.930115 1_555
F13 Mn10 2.084889 1_555
F13 Li1 2.156731 1_545
F13 Mn4 2.212385 1_555
F14 Li7 1.925813 1_555
F14 Mn8 2.128952 1_555
F14 Mn2 2.152313 1_445
F14 Li15 2.466006 1_555
F15 Li6 1.925813 1_555
F15 Mn7 2.128952 1_555
F15 Mn1 2.152313 1_445
F15 Li14 2.466006 1_555
F16 Li3 1.993555 1_545
F16 Li10 2.021463 1_555
F16 Mn7 2.144587 1_555
F16 Mn1 2.192247 1_545
F17 Li2 1.993555 1_545
F17 Li11 2.021463 1_555
F17 Mn8 2.144587 1_555
F17 Mn2 2.192247 1_545
F18 Li15 1.867220 1_554
F18 Li14 1.867220 1_555
F18 Mn5 2.389346 1_455
F18 Mn11 2.451823 1_555
F19 Li10 1.848838 1_455
F19 Li13 1.855721 1_555
F19 Mn7 2.079167 1_555
F20 Li11 1.848838 1_455
F20 Li12 1.855721 1_555
F20 Mn8 2.079167 1_555
F21 Li8 2.010094 1_555
F21 Mn6 2.238091 1_555
F21 Li0 2.305243 1_455
F21 Mn9 2.330756 1_455
F21 Mn0 2.567015 1_555
F22 Li9 2.010094 1_555
F22 Mn6 2.238091 1_555
F22 Li1 2.305243 1_455
F22 Mn10 2.330756 1_455
F22 Mn0 2.567015 1_555
F23 Li14 2.010094 1_655
F23 Mn11 2.238091 1_555
F23 Li6 2.305243 1_555
F23 Mn7 2.330756 1_555
F23 Mn5 2.567015 1_555
F24 Li15 2.010094 1_655
F24 Mn11 2.238091 1_556
F24 Li7 2.305243 1_555
F24 Mn8 2.330756 1_555
F24 Mn5 2.567015 1_556
F25 Li12 1.848838 1_555
F25 Li11 1.855721 1_555
F25 Mn9 2.079167 1_555
F26 Li13 1.848838 1_555
F26 Li10 1.855721 1_555
F26 Mn10 2.079167 1_555
F27 Li8 1.867220 1_555
F27 Li9 1.867220 1_555
F27 Mn0 2.389346 1_555
F27 Mn6 2.451823 1_655
F28 Li4 1.993555 1_565
F28 Li12 2.021463 1_555
F28 Mn9 2.144587 1_455
F28 Mn3 2.192247 1_565
F29 Li5 1.993555 1_565
F29 Li13 2.021463 1_555
F29 Mn10 2.144587 1_455
F29 Mn4 2.192247 1_565
F30 Li0 1.925813 1_555
F30 Mn9 2.128952 1_555
F30 Mn3 2.152313 1_565
F30 Li8 2.466006 1_555
F31 Li1 1.925813 1_555
F31 Mn10 2.128952 1_555
F31 Mn4 2.152313 1_565
F31 Li9 2.466006 1_555
