# generated using pymatgen
data_Li2Co3OF6
_symmetry_space_group_name_H-M   'P 1'
_cell_length_a   5.04985600
_cell_length_b   10.39978484
_cell_length_c   11.85746007
_cell_angle_alpha   115.03791059
_cell_angle_beta   101.81744187
_cell_angle_gamma   92.58098268
_symmetry_Int_Tables_number   1
_chemical_formula_structural   Li2Co3OF6
_chemical_formula_sum   'Li8 Co12 O4 F24'
_cell_volume   546.12227231
_cell_formula_units_Z   4
loop_
 _symmetry_equiv_pos_site_id
 _symmetry_equiv_pos_as_xyz
  1  'x, y, z'
loop_
 _atom_site_type_symbol
 _atom_site_label
 _atom_site_symmetry_multiplicity
 _atom_site_fract_x
 _atom_site_fract_y
 _atom_site_fract_z
 _atom_site_occupancy
  Li  Li0  1  0.99587900  0.75516700  0.00406700  1
  Li  Li1  1  0.02849600  0.68993100  0.21404500  1
  Li  Li2  1  0.33954400  0.97047400  0.79132500  1
  Li  Li3  1  0.27299700  0.64673900  0.49630400  1
  Li  Li4  1  0.50165100  0.25682300  0.00940200  1
  Li  Li5  1  0.67077600  0.18135400  0.21649100  1
  Li  Li6  1  0.94120800  0.47262600  0.78846700  1
  Li  Li7  1  0.70299500  0.16559100  0.50112500  1
  Co  Co0  1  0.62883600  0.87339500  0.22722200  1
  Co  Co1  1  0.21616700  0.96490000  0.49173100  1
  Co  Co2  1  0.50071300  0.48990800  0.95241300  1
  Co  Co3  1  0.82400300  0.81078100  0.64656600  1
  Co  Co4  1  0.69024100  0.68234800  0.35855600  1
  Co  Co5  1  0.40792400  0.66222400  0.79735200  1
  Co  Co6  1  0.10817800  0.38044400  0.19470000  1
  Co  Co7  1  0.74080700  0.48296000  0.50463200  1
  Co  Co8  1  0.03219200  0.02538600  0.02715400  1
  Co  Co9  1  0.20907000  0.18875600  0.35815100  1
  Co  Co10  1  0.36671100  0.33643500  0.64510100  1
  Co  Co11  1  0.89248100  0.16150400  0.78784400  1
  O  O0  1  0.91308300  0.84015100  0.35129600  1
  O  O1  1  0.91179700  0.65362800  0.50189100  1
  O  O2  1  0.58377400  0.50066500  0.80079300  1
  O  O3  1  0.51329200  0.32139400  0.49371100  1
  F  F0  1  0.29068900  0.91675100  0.09328700  1
  F  F1  1  0.75684700  0.68958600  0.07766500  1
  F  F2  1  0.08229400  0.99243200  0.65783500  1
  F  F3  1  0.39006300  0.70743000  0.22204500  1
  F  F4  1  0.47110700  0.82107200  0.50766100  1
  F  F5  1  0.16412600  0.80710300  0.78342500  1
  F  F6  1  0.85991500  0.52347400  0.20981200  1
  F  F7  1  0.75226400  0.84890700  0.93177200  1
  F  F8  1  0.30406800  0.40913300  0.06172700  1
  F  F9  1  0.40173500  0.51935200  0.35281100  1
  F  F10  1  0.54025800  0.65498400  0.64158600  1
  F  F11  1  0.20400200  0.62104600  0.92314300  1
  F  F12  1  0.80348300  0.19288300  0.08146200  1
  F  F13  1  0.94543400  0.33290900  0.34179500  1
  F  F14  1  0.06412300  0.48235000  0.64821500  1
  F  F15  1  0.31382600  0.21056200  0.18998900  1
  F  F16  1  0.12865500  0.31350800  0.77824000  1
  F  F17  1  0.87159300  0.03947000  0.22511000  1
  F  F18  1  0.07074400  0.15858600  0.50654900  1
  F  F19  1  0.69962600  0.30713700  0.91316400  1
  F  F20  1  0.43178600  0.02118500  0.36196400  1
  F  F21  1  0.57404700  0.14881200  0.63424800  1
  F  F22  1  0.19840300  0.10867600  0.92075100  1
  F  F23  1  0.68809900  0.98486700  0.77541000  1
loop_
_geom_bond_atom_site_label_1
_geom_bond_atom_site_label_2
_geom_bond_distance
_geom_bond_site_symmetry_2
Li1 O0 1.935809 1_455
Li3 O1 1.842219 1_455
Li6 O2 1.866484 1_555
Li7 O3 1.943384 1_555
Co0 O0 1.988624 1_555
Co0 F3 2.032066 1_555
Co0 F17 2.084455 1_565
Co0 F20 2.148374 1_565
Co0 F1 2.219979 1_555
Co0 F0 2.281674 1_555
Co1 O0 1.935776 1_455
Co1 F4 2.059962 1_555
Co1 F2 2.122189 1_555
Co1 F18 2.124628 1_565
Co1 F20 2.299356 1_565
Co1 F21 2.341375 1_565
Co2 O2 1.973706 1_555
Co2 F19 2.110261 1_555
Co2 F1 2.133494 1_556
Co2 F11 2.144099 1_555
Co2 F8 2.178438 1_556
Co2 F16 2.460507 1_555
Co3 O1 1.952988 1_555
Co3 F23 2.069534 1_555
Co3 F10 2.087368 1_555
Co3 F5 2.121749 1_655
Co3 F2 2.186546 1_655
Co3 F4 2.205497 1_555
Co4 O1 1.977502 1_555
Co4 O0 1.989963 1_555
Co4 F3 2.091403 1_555
Co4 F9 2.154035 1_555
Co4 F6 2.203336 1_555
Co4 F4 2.284274 1_555
Co5 O2 1.946998 1_555
Co5 F5 2.026712 1_555
Co5 F10 2.063004 1_555
Co5 F11 2.144446 1_555
Co5 F7 2.296713 1_555
Co5 F14 2.300148 1_555
Co6 F6 1.962348 1_455
Co6 F9 2.043447 1_555
Co6 F15 2.075671 1_555
Co6 F8 2.136368 1_555
Co6 F12 2.154481 1_455
Co6 F13 2.289604 1_455
Co7 O3 1.934180 1_555
Co7 O1 1.954289 1_555
Co7 F14 2.106155 1_655
Co7 F10 2.289336 1_555
Co7 F13 2.375528 1_555
Co7 F9 2.385033 1_555
Co8 F7 2.000097 1_444
Co8 F0 2.014639 1_545
Co8 F12 2.078283 1_455
Co8 F22 2.083242 1_554
Co8 F15 2.222755 1_555
Co8 F17 2.586151 1_455
Co9 O3 1.941025 1_555
Co9 F13 2.092275 1_455
Co9 F17 2.095423 1_455
Co9 F20 2.127523 1_555
Co9 F18 2.152599 1_555
Co9 F15 2.260794 1_555
Co10 O2 1.964798 1_555
Co10 O3 2.027749 1_555
Co10 F18 2.127705 1_555
Co10 F14 2.196247 1_555
Co10 F21 2.224136 1_555
Co10 F16 2.250422 1_555
Co11 F16 1.993121 1_655
Co11 F23 1.999790 1_545
Co11 F19 2.066656 1_555
Co11 F21 2.120866 1_555
Co11 F2 2.202178 1_645
Co11 F22 2.232519 1_655
F0 Li0 1.945319 1_455
F1 Li0 1.882787 1_555
F1 Li1 1.892863 1_655
F2 Li2 1.932776 1_555
F3 Li1 1.805660 1_555
F4 Li3 1.969989 1_555
F5 Li2 1.837365 1_555
F6 Li1 1.870893 1_655
F7 Li0 1.892646 1_556
F8 Li4 1.858374 1_555
F9 Li3 1.922339 1_555
F10 Li3 1.925806 1_555
F11 Li0 1.839316 1_456
F11 Li6 1.885443 1_455
F12 Li4 1.879959 1_555
F12 Li5 1.903086 1_555
F13 Li5 1.895353 1_555
F14 Li6 1.928904 1_455
F15 Li5 1.827099 1_555
F16 Li6 1.915018 1_455
F17 Li5 1.853668 1_555
F18 Li7 1.850788 1_455
F19 Li4 1.871111 1_556
F20 Li7 1.909313 1_555
F21 Li7 1.894743 1_555
F22 Li4 1.892385 1_556
F22 Li2 1.897949 1_545
F23 Li2 1.814493 1_555
