# generated using pymatgen
data_CaPbI6
_symmetry_space_group_name_H-M   'P 1'
_cell_length_a   15.22421121
_cell_length_b   12.25312489
_cell_length_c   12.79990683
_cell_angle_alpha   74.98516583
_cell_angle_beta   50.97076540
_cell_angle_gamma   54.24074009
_symmetry_Int_Tables_number   1
_chemical_formula_structural   CaPbI6
_chemical_formula_sum   'Ca4 Pb4 I24'
_cell_volume   1482.54137776
_cell_formula_units_Z   4
loop_
 _symmetry_equiv_pos_site_id
 _symmetry_equiv_pos_as_xyz
  1  'x, y, z'
loop_
 _atom_site_type_symbol
 _atom_site_label
 _atom_site_symmetry_multiplicity
 _atom_site_fract_x
 _atom_site_fract_y
 _atom_site_fract_z
 _atom_site_occupancy
  Ca  Ca0  1  0.06090346  0.66425107  0.70396517  1
  Ca  Ca1  1  0.54661975  0.67870276  0.18914817  1
  Ca  Ca2  1  0.58675640  0.18853926  0.67819502  1
  Ca  Ca3  1  0.57255816  0.70353692  0.66365648  1
  Pb  Pb0  1  0.25704581  0.59786808  0.93694449  1
  Pb  Pb1  1  0.31327851  0.04163839  0.99343494  1
  Pb  Pb2  1  0.65143551  0.99352803  0.04122480  1
  Pb  Pb3  1  0.20844178  0.93690047  0.59896952  1
  I  I0  1  0.24678475  0.58945320  0.19193843  1
  I  I1  1  0.38108929  0.99310675  0.24821454  1
  I  I2  1  0.23741806  0.75582745  0.43797418  1
  I  I3  1  0.37046814  0.23221673  0.43801783  1
  I  I4  1  0.64497384  0.37982141  0.17099595  1
  I  I5  1  0.32636996  0.45055479  0.69019686  1
  I  I6  1  0.05753041  0.27597083  0.00461540  1
  I  I7  1  0.66028014  0.00496751  0.27686991  1
  I  I8  1  0.53410817  0.69071626  0.44954653  1
  I  I9  1  0.25786874  0.86822939  0.87259760  1
  I  I10  1  0.49412297  0.01256468  0.68095083  1
  I  I11  1  0.80350627  0.17150634  0.37859081  1
  I  I12  1  0.96032280  0.43714630  0.23142577  1
  I  I13  1  0.01847995  0.87942435  0.28930273  1
  I  I14  1  0.87201890  0.60389399  0.44548195  1
  I  I15  1  0.57011231  0.43757268  0.75418034  1
  I  I16  1  0.37742522  0.24898190  0.99281486  1
  I  I17  1  0.79880738  0.92100413  0.71661438  1
  I  I18  1  0.97218956  0.19024185  0.58938074  1
  I  I19  1  0.56032290  0.71624374  0.92337603  1
  I  I20  1  0.07788608  0.44644964  0.60582594  1
  I  I21  1  0.81259664  0.28911584  0.87880056  1
  I  I22  1  0.81312541  0.68060910  0.01258873  1
  I  I23  1  0.00071875  0.87384913  0.86859252  1
loop_
_geom_bond_atom_site_label_1
_geom_bond_atom_site_label_2
_geom_bond_distance
_geom_bond_site_symmetry_2
Ca0 I20 3.047715 1_555
Ca0 I23 3.081849 1_555
Ca0 I2 3.177139 1_555
Ca0 I5 3.192936 1_555
Ca0 I17 3.259433 1_455
Ca0 I22 3.260998 1_456
Ca1 I4 3.049854 1_555
Ca1 I1 3.086476 1_555
Ca1 I22 3.178853 1_555
Ca1 I19 3.199266 1_554
Ca1 I8 3.254104 1_555
Ca1 I2 3.267120 1_555
Ca2 I11 3.051425 1_555
Ca2 I16 3.089603 1_555
Ca2 I10 3.176708 1_555
Ca2 I17 3.194581 1_545
Ca2 I15 3.262683 1_555
Ca2 I5 3.264871 1_555
Ca3 I14 3.049688 1_555
Ca3 I9 3.088259 1_555
Ca3 I15 3.177312 1_555
Ca3 I8 3.198307 1_555
Ca3 I19 3.250366 1_555
Ca3 I10 3.260317 1_565
I0 I13 2.943367 1_555
I0 Pb0 3.144896 1_554
I1 Pb2 3.200559 1_555
I2 Pb3 3.073113 1_555
I3 I7 2.937729 1_555
I5 Pb0 3.297946 1_555
I6 Pb1 3.141585 1_554
I7 Pb2 3.144533 1_545
I8 Pb3 3.302411 1_555
I9 Pb0 3.205425 1_555
I10 Pb1 3.070510 1_555
I11 I13 2.923143 1_645
I12 I14 2.922364 1_555
I12 I6 2.943201 1_655
I15 Pb0 3.073107 1_555
I16 Pb1 3.207503 1_555
I17 Pb2 3.305991 1_556
I18 I21 2.940051 1_555
I18 Pb3 3.145965 1_645
I19 Pb1 3.305316 1_565
I20 I3 2.924229 1_555
I21 I4 2.924738 1_556
I22 Pb2 3.075034 1_555
I23 Pb3 3.199499 1_555
