# generated using pymatgen
data_Li3Fe5O9
_symmetry_space_group_name_H-M   'P 1'
_cell_length_a   8.82577879
_cell_length_b   8.82577879
_cell_length_c   5.36159264
_cell_angle_alpha   89.44186888
_cell_angle_beta   90.55813112
_cell_angle_gamma   99.24915923
_symmetry_Int_Tables_number   1
_chemical_formula_structural   Li3Fe5O9
_chemical_formula_sum   'Li6 Fe10 O18'
_cell_volume   412.17436345
_cell_formula_units_Z   2
loop_
 _symmetry_equiv_pos_site_id
 _symmetry_equiv_pos_as_xyz
  1  'x, y, z'
loop_
 _atom_site_type_symbol
 _atom_site_label
 _atom_site_symmetry_multiplicity
 _atom_site_fract_x
 _atom_site_fract_y
 _atom_site_fract_z
 _atom_site_occupancy
  Li  Li0  1  0.32713300  0.82307800  0.21647900  1
  Li  Li1  1  0.17692200  0.67286700  0.71647900  1
  Li  Li2  1  0.59524400  0.59524400  0.25000000  1
  Li  Li3  1  0.40475600  0.40475600  0.75000000  1
  Li  Li4  1  0.82307800  0.32713300  0.28352100  1
  Li  Li5  1  0.67286700  0.17692200  0.78352100  1
  Fe  Fe0  1  0.69221600  0.97666100  0.21104500  1
  Fe  Fe1  1  0.02333900  0.30778400  0.71104500  1
  Fe  Fe2  1  0.21806300  0.45533400  0.20666500  1
  Fe  Fe3  1  0.54466600  0.78193700  0.70666600  1
  Fe  Fe4  1  0.06795800  0.06795800  0.25000000  1
  Fe  Fe5  1  0.93204200  0.93204200  0.75000000  1
  Fe  Fe6  1  0.45533400  0.21806300  0.29333500  1
  Fe  Fe7  1  0.78193700  0.54466600  0.79333400  1
  Fe  Fe8  1  0.97666100  0.69221600  0.28895500  1
  Fe  Fe9  1  0.30778400  0.02333900  0.78895500  1
  O  O0  1  0.01811100  0.86231900  0.07774800  1
  O  O1  1  0.13768100  0.98188900  0.57774800  1
  O  O2  1  0.17967900  0.64283200  0.34461500  1
  O  O3  1  0.35716800  0.82032100  0.84461500  1
  O  O4  1  0.54343600  0.81540900  0.34995900  1
  O  O5  1  0.18459100  0.45656400  0.84995900  1
  O  O6  1  0.08497200  0.28859100  0.36702400  1
  O  O7  1  0.71140900  0.91502800  0.86702400  1
  O  O8  1  0.42508600  0.42508600  0.25000000  1
  O  O9  1  0.57491400  0.57491400  0.75000000  1
  O  O10  1  0.28859100  0.08497200  0.13297600  1
  O  O11  1  0.91502800  0.71140900  0.63297600  1
  O  O12  1  0.81540900  0.54343600  0.15004100  1
  O  O13  1  0.45656400  0.18459100  0.65004100  1
  O  O14  1  0.64283200  0.17967900  0.15538500  1
  O  O15  1  0.82032100  0.35716800  0.65538500  1
  O  O16  1  0.86231900  0.01811100  0.42225200  1
  O  O17  1  0.98188900  0.13768100  0.92225200  1
loop_
_geom_bond_atom_site_label_1
_geom_bond_atom_site_label_2
_geom_bond_distance
_geom_bond_site_symmetry_2
Li0 O2 2.006720 1_555
Li0 O3 2.014782 1_554
Li0 O4 2.043325 1_555
Li0 O10 2.426609 1_565
Li1 O3 2.006720 1_555
Li1 O2 2.014782 1_555
Li1 O5 2.043325 1_555
Li1 O11 2.426609 1_455
Li2 O8 1.945682 1_555
Li2 O4 2.140729 1_555
Li2 O12 2.140729 1_555
Li3 O9 1.945682 1_555
Li3 O5 2.140729 1_555
Li3 O13 2.140729 1_555
Li4 O14 2.006720 1_555
Li4 O15 2.014782 1_555
Li4 O12 2.043325 1_555
Li4 O6 2.426609 1_655
Li5 O15 2.006720 1_555
Li5 O14 2.014782 1_556
Li5 O13 2.043325 1_555
Li5 O7 2.426609 1_545
Fe0 O16 1.862378 1_565
Fe0 O4 1.924073 1_555
Fe0 O14 1.930709 1_565
Fe0 O7 1.944742 1_554
Fe1 O17 1.862378 1_455
Fe1 O5 1.924073 1_555
Fe1 O15 1.930709 1_455
Fe1 O6 1.944742 1_555
Fe2 O2 1.899782 1_555
Fe2 O8 1.900266 1_555
Fe2 O6 1.929778 1_555
Fe2 O5 1.932540 1_554
Fe3 O3 1.899779 1_555
Fe3 O9 1.900265 1_555
Fe3 O7 1.929775 1_555
Fe3 O4 1.932545 1_555
Fe4 O16 2.026944 1_455
Fe4 O0 2.026944 1_545
Fe4 O6 2.033718 1_555
Fe4 O10 2.033718 1_555
Fe4 O1 2.036374 1_545
Fe4 O17 2.036374 1_454
Fe5 O17 2.026944 1_565
Fe5 O1 2.026944 1_655
Fe5 O7 2.033718 1_555
Fe5 O11 2.033718 1_555
Fe5 O0 2.036374 1_656
Fe5 O16 2.036374 1_565
Fe6 O14 1.899782 1_555
Fe6 O8 1.900266 1_555
Fe6 O10 1.929778 1_555
Fe6 O13 1.932540 1_555
Fe7 O15 1.899779 1_555
Fe7 O9 1.900265 1_555
Fe7 O11 1.929775 1_555
Fe7 O12 1.932545 1_556
Fe8 O0 1.862378 1_655
Fe8 O12 1.924073 1_555
Fe8 O2 1.930709 1_655
Fe8 O11 1.944742 1_555
Fe9 O1 1.862378 1_545
Fe9 O13 1.924073 1_555
Fe9 O3 1.930709 1_545
Fe9 O10 1.944742 1_556
