# generated using pymatgen
data_Li24TiCr11O36
_symmetry_space_group_name_H-M   'P 1'
_cell_length_a   8.74595344
_cell_length_b   8.74595344
_cell_length_c   9.75834013
_cell_angle_alpha   81.81706304
_cell_angle_beta   81.81706304
_cell_angle_gamma   59.76867787
_symmetry_Int_Tables_number   1
_chemical_formula_structural   Li24TiCr11O36
_chemical_formula_sum   'Li24 Ti1 Cr11 O36'
_cell_volume   636.16767438
_cell_formula_units_Z   1
loop_
 _symmetry_equiv_pos_site_id
 _symmetry_equiv_pos_as_xyz
  1  'x, y, z'
loop_
 _atom_site_type_symbol
 _atom_site_label
 _atom_site_symmetry_multiplicity
 _atom_site_fract_x
 _atom_site_fract_y
 _atom_site_fract_z
 _atom_site_occupancy
  Li  Li0  1  0.82847000  0.00698000  0.25066700  1
  Li  Li1  1  0.74992100  0.25007900  0.00000000  1
  Li  Li2  1  0.66796900  0.16443900  0.75016300  1
  Li  Li3  1  0.58414400  0.08347200  0.49997800  1
  Li  Li4  1  0.50355000  0.32722500  0.25021900  1
  Li  Li5  1  0.49935800  0.99937900  0.24972900  1
  Li  Li6  1  0.33965300  0.16357000  0.74938400  1
  Li  Li7  1  0.32502800  0.50585800  0.75048500  1
  Li  Li8  1  0.24950300  0.75049700  0.50000000  1
  Li  Li9  1  0.16169900  0.33783400  0.24860700  1
  Li  Li10  1  0.16935200  0.66554300  0.25078500  1
  Li  Li11  1  0.08305000  0.58292300  0.00025900  1
  Li  Li12  1  0.00537400  0.82715500  0.74948300  1
  Li  Li13  1  0.00062100  0.50064200  0.75027100  1
  Li  Li14  1  0.99302000  0.17153000  0.74933300  1
  Li  Li15  1  0.91652800  0.41585600  0.50002200  1
  Li  Li16  1  0.83643000  0.66034700  0.25061600  1
  Li  Li17  1  0.83556100  0.33203100  0.24983700  1
  Li  Li18  1  0.67277500  0.49645000  0.74978100  1
  Li  Li19  1  0.66216600  0.83830100  0.75139300  1
  Li  Li20  1  0.49414200  0.67497200  0.24951500  1
  Li  Li21  1  0.41707700  0.91695000  0.99974100  1
  Li  Li22  1  0.33445700  0.83064800  0.74921500  1
  Li  Li23  1  0.17284500  0.99462600  0.25051700  1
  Ti  Ti0  1  0.58268000  0.41732000  0.50000000  1
  Cr  Cr0  1  0.92195400  0.07804600  0.50000000  1
  Cr  Cr1  1  0.42409300  0.57590700  0.00000000  1
  Cr  Cr2  1  0.40979500  0.25182600  0.99863600  1
  Cr  Cr3  1  0.24691300  0.41844000  0.50151100  1
  Cr  Cr4  1  0.24941400  0.08885500  0.49471700  1
  Cr  Cr5  1  0.08909000  0.91091000  0.00000000  1
  Cr  Cr6  1  0.07908200  0.24765900  0.00061200  1
  Cr  Cr7  1  0.91114500  0.75058600  0.50528300  1
  Cr  Cr8  1  0.75234100  0.92091800  0.99938800  1
  Cr  Cr9  1  0.74817400  0.59020500  0.00136400  1
  Cr  Cr10  1  0.58156000  0.75308700  0.49848900  1
  O  O0  1  0.87927000  0.02250600  0.88803700  1
  O  O1  1  0.71740900  0.21331600  0.38463500  1
  O  O2  1  0.61912200  0.11450500  0.11348300  1
  O  O3  1  0.54537300  0.05285300  0.88475700  1
  O  O4  1  0.52244700  0.38604200  0.88684300  1
  O  O5  1  0.45047400  0.30805000  0.61279100  1
  O  O6  1  0.31247500  0.44503600  0.11253000  1
  O  O7  1  0.37826600  0.52359400  0.38733100  1
  O  O8  1  0.28118200  0.14501100  0.11110500  1
  O  O9  1  0.35885500  0.21149600  0.38680700  1
  O  O10  1  0.21769300  0.71373900  0.88638200  1
  O  O11  1  0.21509500  0.35580100  0.88787600  1
  O  O12  1  0.18722600  0.04481300  0.88697700  1
  O  O13  1  0.14503500  0.28847200  0.61124000  1
  O  O14  1  0.11800600  0.62012900  0.61723900  1
  O  O15  1  0.97749400  0.12073000  0.11196300  1
  O  O16  1  0.04982100  0.55021500  0.38785500  1
  O  O17  1  0.05227100  0.19002900  0.38637200  1
  O  O18  1  0.95518700  0.81277400  0.11302300  1
  O  O19  1  0.94714700  0.45462700  0.11524300  1
  O  O20  1  0.02151300  0.88486100  0.38905000  1
  O  O21  1  0.88549500  0.38087800  0.88651700  1
  O  O22  1  0.85498900  0.71881800  0.88889500  1
  O  O23  1  0.80997100  0.94772900  0.61362800  1
  O  O24  1  0.78850400  0.64114500  0.61319300  1
  O  O25  1  0.78668400  0.28259100  0.61536500  1
  O  O26  1  0.64419900  0.78490500  0.11212400  1
  O  O27  1  0.71152800  0.85496500  0.38876000  1
  O  O28  1  0.61395800  0.47755300  0.11315700  1
  O  O29  1  0.69195000  0.54952600  0.38720900  1
  O  O30  1  0.55496400  0.68752500  0.88747000  1
  O  O31  1  0.47640600  0.62173400  0.61266900  1
  O  O32  1  0.44978500  0.95017900  0.61214500  1
  O  O33  1  0.37987100  0.88199400  0.38276100  1
  O  O34  1  0.28626100  0.78230700  0.11361800  1
  O  O35  1  0.11513900  0.97848700  0.61095000  1
loop_
_geom_bond_atom_site_label_1
_geom_bond_atom_site_label_2
_geom_bond_distance
_geom_bond_site_symmetry_2
Li0 O20 2.058496 1_645
Li0 O18 2.060939 1_545
Li0 O1 2.110478 1_555
Li0 O2 2.152749 1_555
Li0 O15 2.222765 1_555
Li0 O27 2.257547 1_545
Li1 O0 2.105896 1_554
Li1 O15 2.105896 1_555
Li1 O4 2.112030 1_554
Li1 O28 2.112030 1_555
Li1 O2 2.138321 1_555
Li1 O21 2.138321 1_554
Li2 O3 2.028566 1_555
Li2 O25 2.044698 1_555
Li2 O0 2.165317 1_555
Li2 O23 2.188005 1_545
Li2 O5 2.198556 1_555
Li2 O4 2.218969 1_555
Li3 O5 2.091270 1_555
Li3 O9 2.097972 1_555
Li3 O23 2.104250 1_545
Li3 O27 2.108150 1_545
Li3 O1 2.123786 1_555
Li3 O32 2.141970 1_545
Li4 O6 2.042259 1_555
Li4 O7 2.069352 1_555
Li4 O1 2.159030 1_555
Li4 O2 2.166198 1_555
Li4 O9 2.197299 1_555
Li4 O28 2.204567 1_555
Li5 O33 2.036200 1_555
Li5 O2 2.040379 1_565
Li5 O9 2.164226 1_565
Li5 O27 2.179004 1_555
Li5 O26 2.183203 1_555
Li5 O8 2.211380 1_565
Li6 O11 2.055029 1_555
Li6 O13 2.066253 1_555
Li6 O3 2.116124 1_555
Li6 O5 2.167690 1_555
Li6 O32 2.176808 1_545
Li6 O12 2.268601 1_555
Li7 O4 2.070025 1_555
Li7 O5 2.081553 1_555
Li7 O14 2.108523 1_555
Li7 O10 2.135114 1_555
Li7 O11 2.201612 1_555
Li7 O31 2.246067 1_555
Li8 O35 2.102844 1_555
Li8 O20 2.102844 1_555
Li8 O7 2.105567 1_555
Li8 O31 2.105567 1_555
Li8 O14 2.122765 1_555
Li8 O33 2.122765 1_555
Li9 O8 2.051055 1_555
Li9 O9 2.081369 1_555
Li9 O19 2.155178 1_455
Li9 O16 2.182628 1_555
Li9 O6 2.184808 1_555
Li9 O17 2.186128 1_555
Li10 O34 2.037824 1_555
Li10 O16 2.044281 1_555
Li10 O7 2.143163 1_555
Li10 O18 2.183806 1_455
Li10 O20 2.216798 1_555
Li10 O6 2.221564 1_555
Li11 O11 2.105167 1_554
Li11 O22 2.105756 1_454
Li11 O6 2.119861 1_555
Li11 O18 2.125617 1_455
Li11 O19 2.129735 1_455
Li11 O10 2.133734 1_554
Li12 O23 2.054852 1_455
Li12 O0 2.073433 1_465
Li12 O14 2.102698 1_555
Li12 O10 2.165851 1_555
Li12 O22 2.203877 1_455
Li12 O35 2.213949 1_555
Li13 O14 2.036200 1_555
Li13 O21 2.040379 1_455
Li13 O24 2.164226 1_455
Li13 O13 2.179004 1_555
Li13 O11 2.183203 1_555
Li13 O22 2.211380 1_455
Li14 O35 2.058496 1_645
Li14 O12 2.060939 1_655
Li14 O25 2.110478 1_555
Li14 O21 2.152749 1_555
Li14 O0 2.222765 1_555
Li14 O13 2.257547 1_655
Li15 O29 2.091270 1_555
Li15 O24 2.097972 1_555
Li15 O17 2.104250 1_655
Li15 O13 2.108150 1_655
Li15 O25 2.123786 1_555
Li15 O16 2.141970 1_655
Li16 O26 2.055029 1_555
Li16 O27 2.066253 1_555
Li16 O19 2.116124 1_555
Li16 O29 2.167690 1_555
Li16 O16 2.176808 1_655
Li16 O18 2.268601 1_555
Li17 O19 2.028566 1_555
Li17 O1 2.044698 1_555
Li17 O15 2.165317 1_555
Li17 O17 2.188005 1_655
Li17 O29 2.198556 1_555
Li17 O28 2.218969 1_555
Li18 O30 2.042259 1_555
Li18 O31 2.069352 1_555
Li18 O25 2.159030 1_555
Li18 O21 2.166198 1_555
Li18 O24 2.197299 1_555
Li18 O4 2.204567 1_555
Li19 O22 2.051055 1_555
Li19 O24 2.081369 1_555
Li19 O3 2.155178 1_565
Li19 O32 2.182628 1_555
Li19 O30 2.184808 1_555
Li19 O23 2.186128 1_555
Li20 O28 2.070025 1_555
Li20 O29 2.081553 1_555
Li20 O33 2.108523 1_555
Li20 O34 2.135114 1_555
Li20 O26 2.201612 1_555
Li20 O7 2.246067 1_555
Li21 O26 2.105167 1_556
Li21 O8 2.105756 1_566
Li21 O30 2.119861 1_555
Li21 O12 2.125617 1_565
Li21 O3 2.129735 1_565
Li21 O34 2.133734 1_556
Li22 O10 2.037824 1_555
Li22 O32 2.044281 1_555
Li22 O31 2.143163 1_555
Li22 O12 2.183806 1_565
Li22 O35 2.216798 1_555
Li22 O30 2.221564 1_555
Li23 O17 2.054852 1_565
Li23 O15 2.073433 1_465
Li23 O33 2.102698 1_555
Li23 O34 2.165851 1_555
Li23 O8 2.203877 1_565
Li23 O20 2.213949 1_555
Cr0 O20 1.885739 1_645
Cr0 O35 1.885739 1_645
Cr0 O25 1.982489 1_555
Cr0 O1 1.982489 1_555
Cr0 O17 1.985671 1_655
Cr0 O23 1.985671 1_545
Cr1 O4 1.878798 1_554
Cr1 O28 1.878798 1_555
Cr1 O6 1.982704 1_555
Cr1 O30 1.982704 1_554
Cr1 O10 1.984704 1_554
Cr1 O34 1.984704 1_555
Cr2 O11 1.891988 1_555
Cr2 O6 1.905822 1_556
Cr2 O8 1.938401 1_556
Cr2 O3 1.940821 1_555
Cr2 O4 2.008191 1_555
Cr2 O2 2.009207 1_556
Cr3 O13 1.906399 1_555
Cr3 O16 1.926016 1_555
Cr3 O5 1.949859 1_555
Cr3 O7 1.953161 1_555
Cr3 O14 1.964690 1_555
Cr3 O9 1.991884 1_555
Cr4 O17 1.894717 1_555
Cr4 O9 1.897606 1_555
Cr4 O13 1.959332 1_555
Cr4 O32 1.972525 1_545
Cr4 O33 1.974268 1_545
Cr4 O35 2.011972 1_545
Cr5 O18 1.923435 1_455
Cr5 O12 1.923435 1_564
Cr5 O34 1.924632 1_555
Cr5 O10 1.924632 1_554
Cr5 O15 1.994352 1_465
Cr5 O0 1.994352 1_464
Cr6 O15 1.891418 1_455
Cr6 O21 1.909086 1_454
Cr6 O8 1.939551 1_555
Cr6 O12 1.960446 1_554
Cr6 O19 1.991234 1_455
Cr6 O11 1.996018 1_554
Cr7 O23 1.894717 1_555
Cr7 O24 1.897606 1_555
Cr7 O27 1.959332 1_555
Cr7 O16 1.972525 1_655
Cr7 O14 1.974268 1_655
Cr7 O20 2.011972 1_655
Cr8 O0 1.891418 1_565
Cr8 O2 1.909086 1_566
Cr8 O22 1.939551 1_555
Cr8 O18 1.960446 1_556
Cr8 O3 1.991234 1_565
Cr8 O26 1.996018 1_556
Cr9 O26 1.891988 1_555
Cr9 O30 1.905822 1_554
Cr9 O22 1.938401 1_554
Cr9 O19 1.940821 1_555
Cr9 O28 2.008191 1_555
Cr9 O21 2.009207 1_554
Cr10 O27 1.906399 1_555
Cr10 O32 1.926016 1_555
Cr10 O29 1.949859 1_555
Cr10 O31 1.953161 1_555
Cr10 O33 1.964690 1_555
Cr10 O24 1.991884 1_555
O1 Ti0 1.978970 1_555
O5 Ti0 1.978057 1_555
O7 Ti0 1.965776 1_555
O25 Ti0 1.978970 1_555
O29 Ti0 1.978057 1_555
O31 Ti0 1.965776 1_555
