# generated using pymatgen
data_Li2Mn2(PO4)3
_symmetry_space_group_name_H-M   'P 1'
_cell_length_a   8.59917623
_cell_length_b   8.59917623
_cell_length_c   8.80041237
_cell_angle_alpha   59.41610359
_cell_angle_beta   59.41610359
_cell_angle_gamma   60.68197389
_symmetry_Int_Tables_number   1
_chemical_formula_structural   Li2Mn2(PO4)3
_chemical_formula_sum   'Li4 Mn4 P6 O24'
_cell_volume   458.31001499
_cell_formula_units_Z   2
loop_
 _symmetry_equiv_pos_site_id
 _symmetry_equiv_pos_as_xyz
  1  'x, y, z'
loop_
 _atom_site_type_symbol
 _atom_site_label
 _atom_site_symmetry_multiplicity
 _atom_site_fract_x
 _atom_site_fract_y
 _atom_site_fract_z
 _atom_site_occupancy
  Li  Li0  1  0.32575500  0.17425400  0.55290400  1
  Li  Li1  1  0.82574600  0.67424500  0.94709600  1
  Li  Li2  1  0.17425400  0.32575500  0.05290400  1
  Li  Li3  1  0.67424500  0.82574600  0.44709600  1
  Mn  Mn0  1  0.86143600  0.35961400  0.85547500  1
  Mn  Mn1  1  0.64038600  0.13856400  0.64452500  1
  Mn  Mn2  1  0.35961400  0.86143600  0.35547500  1
  Mn  Mn3  1  0.13856400  0.64038600  0.14452500  1
  P  P0  1  0.53275200  0.46724800  0.25000000  1
  P  P1  1  0.46724800  0.53275200  0.75000000  1
  P  P2  1  0.24811800  0.03953900  0.96391200  1
  P  P3  1  0.96046100  0.75188200  0.53608800  1
  P  P4  1  0.03953900  0.24811800  0.46391200  1
  P  P5  1  0.75188200  0.96046100  0.03608800  1
  O  O0  1  0.48826800  0.36127200  0.71881300  1
  O  O1  1  0.86798300  0.20459000  0.50418300  1
  O  O2  1  0.72073700  0.45582400  0.07867600  1
  O  O3  1  0.70739600  0.96792100  0.88314500  1
  O  O4  1  0.36127200  0.48826800  0.21881300  1
  O  O5  1  0.54417600  0.27926300  0.42132400  1
  O  O6  1  0.08202400  0.22968500  0.94290500  1
  O  O7  1  0.41451000  0.05719800  0.76998000  1
  O  O8  1  0.77031500  0.91797600  0.55709500  1
  O  O9  1  0.03207900  0.29260400  0.61685500  1
  O  O10  1  0.05719800  0.41451000  0.26998000  1
  O  O11  1  0.79541000  0.13201700  0.99581700  1
  O  O12  1  0.20459000  0.86798300  0.00418300  1
  O  O13  1  0.94280200  0.58549000  0.73002000  1
  O  O14  1  0.96792100  0.70739600  0.38314500  1
  O  O15  1  0.22968500  0.08202400  0.44290500  1
  O  O16  1  0.58549000  0.94280200  0.23002000  1
  O  O17  1  0.91797600  0.77031500  0.05709500  1
  O  O18  1  0.45582400  0.72073700  0.57867600  1
  O  O19  1  0.63872800  0.51173200  0.78118700  1
  O  O20  1  0.29260400  0.03207900  0.11685500  1
  O  O21  1  0.27926300  0.54417600  0.92132400  1
  O  O22  1  0.13201700  0.79541000  0.49581700  1
  O  O23  1  0.51173200  0.63872800  0.28118700  1
loop_
_geom_bond_atom_site_label_1
_geom_bond_atom_site_label_2
_geom_bond_distance
_geom_bond_site_symmetry_2
Li0 O7 2.004928 1_555
Li0 O5 2.016871 1_555
Li0 O9 2.085571 1_555
Li0 O15 2.117849 1_555
Li1 O13 2.004928 1_555
Li1 O2 2.016871 1_556
Li1 O3 2.085571 1_555
Li1 O17 2.117849 1_556
Li2 O10 2.004928 1_555
Li2 O21 2.016871 1_554
Li2 O20 2.085571 1_555
Li2 O6 2.117849 1_554
Li3 O16 2.004928 1_555
Li3 O18 2.016871 1_555
Li3 O14 2.085571 1_555
Li3 O8 2.117849 1_555
Mn0 O11 1.895541 1_555
Mn0 O19 1.938210 1_555
Mn0 O13 1.960570 1_555
Mn0 O6 1.993326 1_655
Mn0 O9 2.040268 1_655
Mn0 O2 2.064383 1_556
Mn1 O1 1.895541 1_555
Mn1 O0 1.938210 1_555
Mn1 O7 1.960570 1_555
Mn1 O8 1.993326 1_545
Mn1 O3 2.040268 1_545
Mn1 O5 2.064383 1_555
Mn2 O22 1.895541 1_555
Mn2 O23 1.938210 1_555
Mn2 O16 1.960570 1_555
Mn2 O15 1.993326 1_565
Mn2 O20 2.040268 1_565
Mn2 O18 2.064383 1_555
Mn3 O12 1.895541 1_555
Mn3 O4 1.938210 1_555
Mn3 O10 1.960570 1_555
Mn3 O17 1.993326 1_455
Mn3 O14 2.040268 1_455
Mn3 O21 2.064383 1_554
O0 P1 1.543611 1_555
O1 P4 1.521771 1_655
O2 P0 1.552757 1_555
O3 P5 1.540818 1_556
O4 P0 1.543611 1_555
O5 P0 1.552757 1_555
O6 P2 1.556188 1_555
O7 P2 1.564356 1_555
O8 P3 1.556188 1_555
O9 P4 1.540818 1_555
O10 P4 1.564356 1_555
O11 P5 1.521771 1_546
O12 P2 1.521771 1_564
O13 P3 1.564356 1_555
O14 P3 1.540818 1_555
O15 P4 1.556188 1_555
O16 P5 1.564356 1_555
O17 P5 1.556188 1_555
O18 P1 1.552757 1_555
O19 P1 1.543611 1_555
O20 P2 1.540818 1_554
O21 P1 1.552757 1_555
O22 P3 1.521771 1_455
O23 P0 1.543611 1_555
