# generated using pymatgen
data_AgH3O2
_symmetry_space_group_name_H-M   'P 1'
_cell_length_a   6.14015100
_cell_length_b   6.32702800
_cell_length_c   12.19979300
_cell_angle_alpha   90.00000000
_cell_angle_beta   90.00000000
_cell_angle_gamma   90.00000000
_symmetry_Int_Tables_number   1
_chemical_formula_structural   AgH3O2
_chemical_formula_sum   'Ag8 H24 O16'
_cell_volume   473.94862735
_cell_formula_units_Z   8
loop_
 _symmetry_equiv_pos_site_id
 _symmetry_equiv_pos_as_xyz
  1  'x, y, z'
loop_
 _atom_site_type_symbol
 _atom_site_label
 _atom_site_symmetry_multiplicity
 _atom_site_fract_x
 _atom_site_fract_y
 _atom_site_fract_z
 _atom_site_occupancy
  Ag  Ag0  1  0.30582100  0.65954600  0.07990500  1
  Ag  Ag1  1  0.80582100  0.84045400  0.07990500  1
  Ag  Ag2  1  0.80582100  0.34045400  0.42009500  1
  Ag  Ag3  1  0.30582100  0.15954600  0.42009500  1
  Ag  Ag4  1  0.69417900  0.84045400  0.57990500  1
  Ag  Ag5  1  0.19417900  0.65954600  0.57990500  1
  Ag  Ag6  1  0.69417900  0.34045400  0.92009500  1
  Ag  Ag7  1  0.19417900  0.15954600  0.92009500  1
  H  H0  1  0.89833300  0.42379400  0.13416700  1
  H  H1  1  0.39833300  0.07620600  0.13416700  1
  H  H2  1  0.57289600  0.27621300  0.13467500  1
  H  H3  1  0.07289600  0.22378700  0.13467500  1
  H  H4  1  0.62195900  0.55902800  0.21307200  1
  H  H5  1  0.12195900  0.94097200  0.21307200  1
  H  H6  1  0.62195900  0.05902800  0.28692800  1
  H  H7  1  0.12195900  0.44097200  0.28692800  1
  H  H8  1  0.07289600  0.72378700  0.36532500  1
  H  H9  1  0.57289600  0.77621300  0.36532500  1
  H  H10  1  0.89833300  0.92379400  0.36583300  1
  H  H11  1  0.39833300  0.57620600  0.36583300  1
  H  H12  1  0.60166700  0.42379400  0.63416700  1
  H  H13  1  0.10166700  0.07620600  0.63416700  1
  H  H14  1  0.92710400  0.27621300  0.63467500  1
  H  H15  1  0.42710400  0.22378700  0.63467500  1
  H  H16  1  0.37804100  0.94097200  0.71307200  1
  H  H17  1  0.87804100  0.55902800  0.71307200  1
  H  H18  1  0.37804100  0.44097200  0.78692800  1
  H  H19  1  0.87804100  0.05902800  0.78692800  1
  H  H20  1  0.92710400  0.77621300  0.86532500  1
  H  H21  1  0.42710400  0.72378700  0.86532500  1
  H  H22  1  0.60166700  0.92379400  0.86583300  1
  H  H23  1  0.10166700  0.57620600  0.86583300  1
  O  O0  1  0.14286200  0.97385700  0.13429100  1
  O  O1  1  0.64286200  0.52614300  0.13429100  1
  O  O2  1  0.05630800  0.38280200  0.14055900  1
  O  O3  1  0.55630800  0.11719800  0.14055900  1
  O  O4  1  0.05630800  0.88280200  0.35944100  1
  O  O5  1  0.55630800  0.61719800  0.35944100  1
  O  O6  1  0.14286200  0.47385700  0.36570900  1
  O  O7  1  0.64286200  0.02614300  0.36570900  1
  O  O8  1  0.35713800  0.97385700  0.63429100  1
  O  O9  1  0.85713800  0.52614300  0.63429100  1
  O  O10  1  0.44369200  0.38280200  0.64055900  1
  O  O11  1  0.94369200  0.11719800  0.64055900  1
  O  O12  1  0.44369200  0.88280200  0.85944100  1
  O  O13  1  0.94369200  0.61719800  0.85944100  1
  O  O14  1  0.35713800  0.47385700  0.86570900  1
  O  O15  1  0.85713800  0.02614300  0.86570900  1
loop_
_geom_bond_atom_site_label_1
_geom_bond_atom_site_label_2
_geom_bond_distance
_geom_bond_site_symmetry_2
Ag0 O0 2.322964 1_555
Ag0 O1 2.331394 1_555
Ag0 O2 2.441435 1_555
Ag1 O1 2.322964 1_555
Ag1 O0 2.331394 1_655
Ag1 O3 2.441435 1_565
Ag2 O7 2.322964 1_555
Ag2 O6 2.331394 1_655
Ag2 O5 2.441435 1_555
Ag3 O6 2.322964 1_555
Ag3 O7 2.331394 1_555
Ag3 O4 2.441435 1_545
Ag4 O9 2.322964 1_555
Ag4 O8 2.331394 1_555
Ag4 O11 2.441435 1_565
Ag5 O8 2.322964 1_555
Ag5 O9 2.331394 1_455
Ag5 O10 2.441435 1_555
Ag6 O15 2.322964 1_555
Ag6 O14 2.331394 1_555
Ag6 O13 2.441435 1_555
Ag7 O14 2.322964 1_555
Ag7 O15 2.331394 1_455
Ag7 O12 2.441435 1_545
H0 O2 1.007089 1_655
H1 O3 1.007089 1_555
H2 O3 1.013779 1_555
H2 O1 1.638638 1_555
H3 O2 1.013779 1_555
H3 O0 1.638638 1_545
H4 O1 0.991716 1_555
H5 O0 0.991716 1_555
H6 O7 0.991716 1_555
H7 O6 0.991716 1_555
H8 O4 1.013779 1_555
H8 O6 1.638638 1_555
H9 O5 1.013779 1_555
H9 O7 1.638638 1_565
H10 O4 1.007089 1_655
H11 O5 1.007089 1_555
H12 O10 1.007089 1_555
H13 O11 1.007089 1_455
H14 O11 1.013779 1_555
H14 O9 1.638638 1_555
H15 O10 1.013779 1_555
H15 O8 1.638638 1_545
H16 O8 0.991716 1_555
H17 O9 0.991716 1_555
H18 O14 0.991716 1_555
H19 O15 0.991716 1_555
H20 O13 1.013779 1_555
H20 O15 1.638638 1_565
H21 O12 1.013779 1_555
H21 O14 1.638638 1_555
H22 O12 1.007089 1_555
H23 O13 1.007089 1_455
