# generated using pymatgen
data_Na2Ni3O7
_symmetry_space_group_name_H-M   'P 1'
_cell_length_a   7.05327100
_cell_length_b   7.08947289
_cell_length_c   7.09093324
_cell_angle_alpha   64.18566316
_cell_angle_beta   64.11791233
_cell_angle_gamma   64.40100549
_symmetry_Int_Tables_number   1
_chemical_formula_structural   Na2Ni3O7
_chemical_formula_sum   'Na4 Ni6 O14'
_cell_volume   274.05761872
_cell_formula_units_Z   2
loop_
 _symmetry_equiv_pos_site_id
 _symmetry_equiv_pos_as_xyz
  1  'x, y, z'
loop_
 _atom_site_type_symbol
 _atom_site_label
 _atom_site_symmetry_multiplicity
 _atom_site_fract_x
 _atom_site_fract_y
 _atom_site_fract_z
 _atom_site_occupancy
  Na  Na0  1  0.13493200  0.28259500  0.56313800  1
  Na  Na1  1  0.19796900  0.95153500  0.35835300  1
  Na  Na2  1  0.02856800  0.63399600  0.83090600  1
  Na  Na3  1  0.42246600  0.20785500  0.86911300  1
  Ni  Ni0  1  0.28831200  0.57227100  0.14440000  1
  Ni  Ni1  1  0.57688000  0.14335300  0.28374200  1
  Ni  Ni2  1  0.00126300  0.99830000  0.00130700  1
  Ni  Ni3  1  0.85186200  0.71560800  0.42798600  1
  Ni  Ni4  1  0.43064000  0.85249900  0.71408700  1
  Ni  Ni5  1  0.71384400  0.42934600  0.86035200  1
  O  O0  1  0.30521300  0.27730900  0.22872900  1
  O  O1  1  0.29782700  0.87212100  0.00768200  1
  O  O2  1  0.57965500  0.43905900  0.15787500  1
  O  O3  1  0.87045000  0.00797900  0.29327800  1
  O  O4  1  0.14346000  0.62009400  0.42271000  1
  O  O5  1  0.99026300  0.70305400  0.13676500  1
  O  O6  1  0.47380000  0.12532600  0.57727000  1
  O  O7  1  0.55308500  0.85357900  0.41787100  1
  O  O8  1  0.79801300  0.44626900  0.56971700  1
  O  O9  1  0.13824500  0.94399000  0.72641700  1
  O  O10  1  0.41694600  0.55889400  0.85401000  1
  O  O11  1  0.72788500  0.72043700  0.72278300  1
  O  O12  1  0.71056000  0.13288600  0.98884200  1
  O  O13  1  0.99378500  0.29209700  0.90151000  1
loop_
_geom_bond_atom_site_label_1
_geom_bond_atom_site_label_2
_geom_bond_distance
_geom_bond_site_symmetry_2
Na0 O8 2.136195 1_455
Na0 O0 2.149166 1_555
Na0 O9 2.158283 1_545
Na0 O4 2.171914 1_555
Na0 O13 2.179457 1_455
Na0 O6 2.185141 1_555
Na1 O4 2.360288 1_555
Na1 O3 2.383388 1_465
Na1 O0 2.409347 1_565
Na1 O9 2.435164 1_555
Na1 O7 2.469530 1_555
Na1 O1 2.518673 1_555
Na2 O5 2.305510 1_456
Na2 O11 2.312667 1_455
Na2 O9 2.351138 1_555
Na2 O13 2.352833 1_455
Na2 O10 2.621023 1_555
Na2 O4 2.678827 1_555
Na3 O6 2.230086 1_555
Na3 O12 2.304820 1_555
Na3 O10 2.427820 1_555
Na3 O0 2.515839 1_556
Na3 O1 2.533922 1_546
Na3 O13 2.739390 1_455
Ni0 O0 1.871467 1_555
Ni0 O10 1.880660 1_554
Ni0 O2 1.881368 1_555
Ni0 O4 1.891163 1_555
Ni0 O5 1.911346 1_455
Ni0 O1 1.932600 1_555
Ni1 O6 1.845152 1_555
Ni1 O0 1.866307 1_555
Ni1 O3 1.887225 1_555
Ni1 O2 1.892757 1_555
Ni1 O7 1.900003 1_545
Ni1 O12 1.902794 1_554
Ni2 O13 1.869721 1_464
Ni2 O12 1.875249 1_464
Ni2 O3 1.882460 1_465
Ni2 O9 1.889232 1_554
Ni2 O1 1.899486 1_555
Ni2 O5 1.906344 1_455
Ni3 O8 1.850007 1_555
Ni3 O4 1.855107 1_655
Ni3 O5 1.884216 1_555
Ni3 O11 1.891069 1_555
Ni3 O3 1.904493 1_565
Ni3 O7 1.921579 1_555
Ni4 O6 1.841665 1_565
Ni4 O9 1.848684 1_555
Ni4 O7 1.888332 1_555
Ni4 O10 1.902064 1_555
Ni4 O11 1.908470 1_555
Ni4 O1 1.915209 1_556
Ni5 O8 1.841767 1_555
Ni5 O13 1.877807 1_555
Ni5 O11 1.886585 1_555
Ni5 O12 1.898395 1_555
Ni5 O10 1.901330 1_555
Ni5 O2 1.917910 1_556
