# generated using pymatgen
data_Zr2N2O
_symmetry_space_group_name_H-M   'P 1'
_cell_length_a   5.50995700
_cell_length_b   7.07881609
_cell_length_c   9.88544609
_cell_angle_alpha   103.38253912
_cell_angle_beta   89.97325738
_cell_angle_gamma   90.16705184
_symmetry_Int_Tables_number   1
_chemical_formula_structural   Zr2N2O
_chemical_formula_sum   'Zr12 N12 O6'
_cell_volume   375.10042592
_cell_formula_units_Z   6
loop_
 _symmetry_equiv_pos_site_id
 _symmetry_equiv_pos_as_xyz
  1  'x, y, z'
loop_
 _atom_site_type_symbol
 _atom_site_label
 _atom_site_symmetry_multiplicity
 _atom_site_fract_x
 _atom_site_fract_y
 _atom_site_fract_z
 _atom_site_occupancy
  Zr  Zr0  1  0.70925800  0.84697200  0.91323000  1
  Zr  Zr1  1  0.70337000  0.84527900  0.58033400  1
  Zr  Zr2  1  0.69609300  0.84692000  0.24697900  1
  Zr  Zr3  1  0.21028600  0.65858800  0.88157900  1
  Zr  Zr4  1  0.19577000  0.65238100  0.21406900  1
  Zr  Zr5  1  0.20052200  0.65396600  0.54885000  1
  Zr  Zr6  1  0.76899400  0.39190800  0.67104300  1
  Zr  Zr7  1  0.79571000  0.38344700  0.33729700  1
  Zr  Zr8  1  0.76192800  0.39768300  0.00639900  1
  Zr  Zr9  1  0.30727400  0.12753100  0.79358600  1
  Zr  Zr10  1  0.28359600  0.10771300  0.45671900  1
  Zr  Zr11  1  0.28456500  0.11065200  0.12367600  1
  N  N0  1  0.42342600  0.80937200  0.07400100  1
  N  N1  1  0.42914900  0.81969200  0.74322300  1
  N  N2  1  0.42254600  0.80723300  0.40625300  1
  N  N3  1  0.92743100  0.68849500  0.72148700  1
  N  N4  1  0.92366900  0.69206900  0.05294800  1
  N  N5  1  0.92479000  0.68866400  0.38799700  1
  N  N6  1  0.52693200  0.48083900  0.85070900  1
  N  N7  1  0.04279200  0.36183900  0.50104400  1
  N  N8  1  0.03898100  0.36248800  0.16388400  1
  N  N9  1  0.54635800  0.13433800  0.96613700  1
  N  N10  1  0.54410600  0.13295300  0.62210200  1
  N  N11  1  0.53817900  0.13794600  0.29535000  1
  O  O0  1  0.55524000  0.50947000  0.52540600  1
  O  O1  1  0.55110200  0.50673700  0.19151300  1
  O  O2  1  0.02649900  0.35735500  0.83335900  1
  O  O3  1  0.05987700  0.99685300  0.93492300  1
  O  O4  1  0.04760300  0.99396900  0.27093900  1
  O  O5  1  0.05395200  0.99665100  0.60873500  1
loop_
_geom_bond_atom_site_label_1
_geom_bond_atom_site_label_2
_geom_bond_distance
_geom_bond_site_symmetry_2
N0 Zr11 2.213448 1_565
N0 Zr2 2.245320 1_555
N0 Zr3 2.278528 1_554
N0 Zr0 2.295236 1_554
N0 Zr4 2.329855 1_555
N1 Zr9 2.225637 1_565
N1 Zr1 2.244938 1_555
N1 Zr0 2.257032 1_555
N1 Zr3 2.310395 1_555
N1 Zr5 2.367569 1_555
N2 Zr10 2.208457 1_565
N2 Zr2 2.242717 1_555
N2 Zr1 2.283344 1_555
N2 Zr5 2.315029 1_555
N2 Zr4 2.324318 1_555
N3 Zr6 2.218938 1_555
N3 Zr5 2.245672 1_655
N3 Zr3 2.266645 1_655
N3 Zr0 2.306039 1_555
N3 Zr1 2.330109 1_555
N4 Zr8 2.212302 1_555
N4 Zr4 2.252867 1_655
N4 Zr0 2.283826 1_554
N4 Zr3 2.287763 1_654
N4 Zr2 2.342107 1_555
N5 Zr7 2.217032 1_555
N5 Zr4 2.246527 1_655
N5 Zr5 2.254367 1_655
N5 Zr1 2.315725 1_555
N5 Zr2 2.349246 1_555
N6 Zr3 2.134218 1_555
N6 Zr6 2.194258 1_555
N6 Zr8 2.194871 1_556
N6 Zr0 2.711546 1_555
N6 Zr9 2.714399 1_555
N7 Zr7 2.148244 1_455
N7 Zr5 2.189163 1_555
N7 Zr10 2.199324 1_555
N7 Zr6 2.231431 1_455
N8 Zr7 2.153765 1_455
N8 Zr4 2.173098 1_555
N8 Zr11 2.202863 1_555
N8 Zr8 2.236081 1_455
N9 Zr9 2.147313 1_555
N9 Zr11 2.156736 1_556
N9 Zr8 2.165282 1_556
N9 Zr0 2.175985 1_545
N10 Zr9 2.146107 1_555
N10 Zr10 2.151888 1_555
N10 Zr6 2.169450 1_555
N10 Zr1 2.169864 1_545
N11 Zr10 2.170796 1_555
N11 Zr11 2.172322 1_555
N11 Zr2 2.187207 1_545
N11 Zr7 2.204132 1_555
O0 Zr6 2.171247 1_555
O0 Zr5 2.195781 1_555
O0 Zr7 2.290412 1_555
O0 Zr1 2.450175 1_555
O1 Zr8 2.154840 1_555
O1 Zr4 2.202461 1_555
O1 Zr7 2.290408 1_555
O1 Zr2 2.473008 1_555
O2 Zr6 2.198498 1_455
O2 Zr8 2.215114 1_456
O2 Zr9 2.216469 1_555
O2 Zr3 2.305874 1_555
O3 Zr0 2.187921 1_455
O3 Zr11 2.227956 1_566
O3 Zr9 2.292409 1_565
O3 Zr3 2.474926 1_555
O4 Zr2 2.182979 1_455
O4 Zr10 2.241324 1_565
O4 Zr11 2.248276 1_565
O4 Zr4 2.492244 1_555
O5 Zr1 2.192629 1_455
O5 Zr10 2.239801 1_565
O5 Zr9 2.314498 1_565
O5 Zr5 2.496680 1_555
