# generated using pymatgen
data_Al2P2H4O11
_symmetry_space_group_name_H-M   'P 1'
_cell_length_a   9.86800700
_cell_length_b   9.87624000
_cell_length_c   19.54413300
_cell_angle_alpha   90.00000000
_cell_angle_beta   90.00000000
_cell_angle_gamma   90.00000000
_symmetry_Int_Tables_number   1
_chemical_formula_structural   Al2P2H4O11
_chemical_formula_sum   'Al16 P16 H32 O88'
_cell_volume   1904.74785581
_cell_formula_units_Z   8
loop_
 _symmetry_equiv_pos_site_id
 _symmetry_equiv_pos_as_xyz
  1  'x, y, z'
loop_
 _atom_site_type_symbol
 _atom_site_label
 _atom_site_symmetry_multiplicity
 _atom_site_fract_x
 _atom_site_fract_y
 _atom_site_fract_z
 _atom_site_occupancy
  Al  Al0  1  0.82332500  0.91414500  0.94927200  1
  Al  Al1  1  0.17667500  0.58585500  0.44927200  1
  Al  Al2  1  0.67667500  0.41414500  0.05072800  1
  Al  Al3  1  0.32332500  0.08585500  0.55072800  1
  Al  Al4  1  0.17667500  0.08585500  0.05072800  1
  Al  Al5  1  0.82332500  0.41414500  0.55072800  1
  Al  Al6  1  0.32332500  0.58585500  0.94927200  1
  Al  Al7  1  0.67667500  0.91414500  0.44927200  1
  Al  Al8  1  0.64852900  0.66693400  0.78291500  1
  Al  Al9  1  0.35147100  0.83306600  0.28291500  1
  Al  Al10  1  0.85147100  0.16693400  0.21708500  1
  Al  Al11  1  0.14852900  0.33306600  0.71708500  1
  Al  Al12  1  0.35147100  0.33306600  0.21708500  1
  Al  Al13  1  0.64852900  0.16693400  0.71708500  1
  Al  Al14  1  0.14852900  0.83306600  0.78291500  1
  Al  Al15  1  0.85147100  0.66693400  0.28291500  1
  P  P0  1  0.63459900  0.65922400  0.94851400  1
  P  P1  1  0.36540100  0.84077600  0.44851400  1
  P  P2  1  0.86540100  0.15922400  0.05148600  1
  P  P3  1  0.13459900  0.34077600  0.55148600  1
  P  P4  1  0.36540100  0.34077600  0.05148600  1
  P  P5  1  0.63459900  0.15922400  0.55148600  1
  P  P6  1  0.13459900  0.84077600  0.94851400  1
  P  P7  1  0.86540100  0.65922400  0.44851400  1
  P  P8  1  0.84050000  0.93247400  0.79028700  1
  P  P9  1  0.15950000  0.56752600  0.29028700  1
  P  P10  1  0.65950000  0.43247400  0.20971300  1
  P  P11  1  0.34050000  0.06752600  0.70971300  1
  P  P12  1  0.15950000  0.06752600  0.20971300  1
  P  P13  1  0.84050000  0.43247400  0.70971300  1
  P  P14  1  0.34050000  0.56752600  0.79028700  1
  P  P15  1  0.65950000  0.93247400  0.29028700  1
  H  H0  1  0.54625900  0.68577100  0.65661900  1
  H  H1  1  0.45374100  0.81422900  0.15661900  1
  H  H2  1  0.95374100  0.18577100  0.34338100  1
  H  H3  1  0.04625900  0.31422900  0.84338100  1
  H  H4  1  0.45374100  0.31422900  0.34338100  1
  H  H5  1  0.54625900  0.18577100  0.84338100  1
  H  H6  1  0.04625900  0.81422900  0.65661900  1
  H  H7  1  0.95374100  0.68577100  0.15661900  1
  H  H8  1  0.69545500  0.75515600  0.65510200  1
  H  H9  1  0.30454500  0.74484400  0.15510200  1
  H  H10  1  0.80454500  0.25515600  0.34489800  1
  H  H11  1  0.19545500  0.24484400  0.84489800  1
  H  H12  1  0.30454500  0.24484400  0.34489800  1
  H  H13  1  0.69545500  0.25515600  0.84489800  1
  H  H14  1  0.19545500  0.74484400  0.65510200  1
  H  H15  1  0.80454500  0.75515600  0.15510200  1
  H  H16  1  0.54596300  0.90904300  0.77763200  1
  H  H17  1  0.45403700  0.59095700  0.27763200  1
  H  H18  1  0.95403700  0.40904300  0.22236800  1
  H  H19  1  0.04596300  0.09095700  0.72236800  1
  H  H20  1  0.45403700  0.09095700  0.22236800  1
  H  H21  1  0.54596300  0.40904300  0.72236800  1
  H  H22  1  0.04596300  0.59095700  0.77763200  1
  H  H23  1  0.95403700  0.90904300  0.27763200  1
  H  H24  1  0.43741500  0.80315600  0.80157600  1
  H  H25  1  0.56258500  0.69684400  0.30157600  1
  H  H26  1  0.06258500  0.30315600  0.19842400  1
  H  H27  1  0.93741500  0.19684400  0.69842400  1
  H  H28  1  0.56258500  0.19684400  0.19842400  1
  H  H29  1  0.43741500  0.30315600  0.69842400  1
  H  H30  1  0.93741500  0.69684400  0.80157600  1
  H  H31  1  0.06258500  0.80315600  0.30157600  1
  O  O0  1  0.66908300  0.62245800  0.87472800  1
  O  O1  1  0.33091700  0.87754200  0.37472800  1
  O  O2  1  0.83091700  0.12245800  0.12527200  1
  O  O3  1  0.16908300  0.37754200  0.62527200  1
  O  O4  1  0.33091700  0.37754200  0.12527200  1
  O  O5  1  0.66908300  0.12245800  0.62527200  1
  O  O6  1  0.16908300  0.87754200  0.87472800  1
  O  O7  1  0.83091700  0.62245800  0.37472800  1
  O  O8  1  0.98026600  0.83338700  0.96105500  1
  O  O9  1  0.01973400  0.66661300  0.46105500  1
  O  O10  1  0.51973400  0.33338700  0.03894500  1
  O  O11  1  0.48026600  0.16661300  0.53894500  1
  O  O12  1  0.01973400  0.16661300  0.03894500  1
  O  O13  1  0.98026600  0.33338700  0.53894500  1
  O  O14  1  0.48026600  0.66661300  0.96105500  1
  O  O15  1  0.51973400  0.83338700  0.46105500  1
  O  O16  1  0.69706400  0.55326500  0.99703400  1
  O  O17  1  0.30293600  0.94673500  0.49703400  1
  O  O18  1  0.80293600  0.05326500  0.00296600  1
  O  O19  1  0.19706400  0.44673500  0.50296600  1
  O  O20  1  0.30293600  0.44673500  0.00296600  1
  O  O21  1  0.69706400  0.05326500  0.50296600  1
  O  O22  1  0.19706400  0.94673500  0.99703400  1
  O  O23  1  0.80293600  0.55326500  0.49703400  1
  O  O24  1  0.69353500  0.79924000  0.96815700  1
  O  O25  1  0.30646500  0.70076000  0.46815700  1
  O  O26  1  0.80646500  0.29924000  0.03184300  1
  O  O27  1  0.19353500  0.20076000  0.53184300  1
  O  O28  1  0.30646500  0.20076000  0.03184300  1
  O  O29  1  0.69353500  0.29924000  0.53184300  1
  O  O30  1  0.19353500  0.70076000  0.96815700  1
  O  O31  1  0.80646500  0.79924000  0.46815700  1
  O  O32  1  0.99323100  0.94240500  0.77306500  1
  O  O33  1  0.00676900  0.55759500  0.27306500  1
  O  O34  1  0.50676900  0.44240500  0.22693500  1
  O  O35  1  0.49323100  0.05759500  0.72693500  1
  O  O36  1  0.00676900  0.05759500  0.22693500  1
  O  O37  1  0.99323100  0.44240500  0.72693500  1
  O  O38  1  0.49323100  0.55759500  0.77306500  1
  O  O39  1  0.50676900  0.94240500  0.27306500  1
  O  O40  1  0.81537900  0.97713600  0.86536000  1
  O  O41  1  0.18462100  0.52286400  0.36536000  1
  O  O42  1  0.68462100  0.47713600  0.13464000  1
  O  O43  1  0.31537900  0.02286400  0.63464000  1
  O  O44  1  0.18462100  0.02286400  0.13464000  1
  O  O45  1  0.81537900  0.47713600  0.63464000  1
  O  O46  1  0.31537900  0.52286400  0.86536000  1
  O  O47  1  0.68462100  0.97713600  0.36536000  1
  O  O48  1  0.80017700  0.78098500  0.78231700  1
  O  O49  1  0.19982300  0.71901500  0.28231700  1
  O  O50  1  0.69982300  0.28098500  0.21768300  1
  O  O51  1  0.30017700  0.21901500  0.71768300  1
  O  O52  1  0.19982300  0.21901500  0.21768300  1
  O  O53  1  0.80017700  0.28098500  0.71768300  1
  O  O54  1  0.30017700  0.71901500  0.78231700  1
  O  O55  1  0.69982300  0.78098500  0.28231700  1
  O  O56  1  0.75795200  0.52136000  0.75757300  1
  O  O57  1  0.24204800  0.97864000  0.25757300  1
  O  O58  1  0.74204800  0.02136000  0.24242700  1
  O  O59  1  0.25795200  0.47864000  0.74242700  1
  O  O60  1  0.24204800  0.47864000  0.24242700  1
  O  O61  1  0.75795200  0.02136000  0.74242700  1
  O  O62  1  0.25795200  0.97864000  0.75757300  1
  O  O63  1  0.74204800  0.52136000  0.25757300  1
  O  O64  1  0.62135200  0.72127000  0.68452900  1
  O  O65  1  0.37864800  0.77873000  0.18452900  1
  O  O66  1  0.87864800  0.22127000  0.31547100  1
  O  O67  1  0.12135200  0.27873000  0.81547100  1
  O  O68  1  0.37864800  0.27873000  0.31547100  1
  O  O69  1  0.62135200  0.22127000  0.81547100  1
  O  O70  1  0.12135200  0.77873000  0.68452900  1
  O  O71  1  0.87864800  0.72127000  0.18452900  1
  O  O72  1  0.53651600  0.82617300  0.80575800  1
  O  O73  1  0.46348400  0.67382700  0.30575800  1
  O  O74  1  0.96348400  0.32617300  0.19424200  1
  O  O75  1  0.03651600  0.17382700  0.69424200  1
  O  O76  1  0.46348400  0.17382700  0.19424200  1
  O  O77  1  0.53651600  0.32617300  0.69424200  1
  O  O78  1  0.03651600  0.67382700  0.80575800  1
  O  O79  1  0.96348400  0.82617300  0.30575800  1
  O  O80  1  0.86028700  0.84013700  0.62341600  1
  O  O81  1  0.13971300  0.65986300  0.12341600  1
  O  O82  1  0.63971300  0.34013700  0.37658400  1
  O  O83  1  0.36028700  0.15986300  0.87658400  1
  O  O84  1  0.13971300  0.15986300  0.37658400  1
  O  O85  1  0.86028700  0.34013700  0.87658400  1
  O  O86  1  0.36028700  0.65986300  0.62341600  1
  O  O87  1  0.63971300  0.84013700  0.12341600  1
loop_
_geom_bond_atom_site_label_1
_geom_bond_atom_site_label_2
_geom_bond_distance
_geom_bond_site_symmetry_2
Al0 O18 1.740562 1_566
Al0 O24 1.750553 1_555
Al0 O40 1.755771 1_555
Al0 O8 1.757166 1_555
Al1 O19 1.740562 1_555
Al1 O25 1.750553 1_555
Al1 O41 1.755771 1_555
Al1 O9 1.757166 1_555
Al2 O16 1.740562 1_554
Al2 O26 1.750553 1_555
Al2 O42 1.755771 1_555
Al2 O10 1.757166 1_555
Al3 O17 1.740562 1_545
Al3 O27 1.750553 1_555
Al3 O43 1.755771 1_555
Al3 O11 1.757166 1_555
Al4 O22 1.740562 1_544
Al4 O28 1.750553 1_555
Al4 O44 1.755771 1_555
Al4 O12 1.757166 1_555
Al5 O23 1.740562 1_555
Al5 O29 1.750553 1_555
Al5 O45 1.755771 1_555
Al5 O13 1.757166 1_555
Al6 O20 1.740562 1_556
Al6 O30 1.750553 1_555
Al6 O46 1.755771 1_555
Al6 O14 1.757166 1_555
Al7 O21 1.740562 1_565
Al7 O31 1.750553 1_555
Al7 O47 1.755771 1_555
Al7 O15 1.757166 1_555
Al8 O0 1.858487 1_555
Al8 O56 1.865020 1_555
Al8 O48 1.873047 1_555
Al8 O38 1.884583 1_555
Al8 O72 1.973432 1_555
Al8 O64 2.014280 1_555
Al9 O1 1.858487 1_555
Al9 O57 1.865020 1_555
Al9 O49 1.873047 1_555
Al9 O39 1.884583 1_555
Al9 O73 1.973432 1_555
Al9 O65 2.014280 1_555
Al10 O2 1.858487 1_555
Al10 O58 1.865020 1_555
Al10 O50 1.873047 1_555
Al10 O36 1.884583 1_655
Al10 O74 1.973432 1_555
Al10 O66 2.014280 1_555
Al11 O3 1.858487 1_555
Al11 O59 1.865020 1_555
Al11 O51 1.873047 1_555
Al11 O37 1.884583 1_455
Al11 O75 1.973432 1_555
Al11 O67 2.014280 1_555
Al12 O4 1.858487 1_555
Al12 O60 1.865020 1_555
Al12 O52 1.873047 1_555
Al12 O34 1.884583 1_555
Al12 O76 1.973432 1_555
Al12 O68 2.014280 1_555
Al13 O5 1.858487 1_555
Al13 O61 1.865020 1_555
Al13 O53 1.873047 1_555
Al13 O35 1.884583 1_555
Al13 O77 1.973432 1_555
Al13 O69 2.014280 1_555
Al14 O6 1.858487 1_555
Al14 O62 1.865020 1_555
Al14 O54 1.873047 1_555
Al14 O32 1.884583 1_455
Al14 O78 1.973432 1_555
Al14 O70 2.014280 1_555
Al15 O7 1.858487 1_555
Al15 O63 1.865020 1_555
Al15 O55 1.873047 1_555
Al15 O33 1.884583 1_655
Al15 O79 1.973432 1_555
Al15 O71 2.014280 1_555
H0 O64 0.984668 1_555
H1 O65 0.984668 1_555
H2 O66 0.984668 1_555
H3 O67 0.984668 1_555
H4 O68 0.984668 1_555
H5 O69 0.984668 1_555
H6 O70 0.984668 1_555
H7 O71 0.984668 1_555
H8 O64 0.988684 1_555
H9 O65 0.988684 1_555
H10 O66 0.988684 1_555
H11 O67 0.988684 1_555
H12 O68 0.988684 1_555
H13 O69 0.988684 1_555
H14 O70 0.988684 1_555
H15 O71 0.988684 1_555
H16 O72 0.990308 1_555
H17 O73 0.990308 1_555
H18 O74 0.990308 1_555
H19 O75 0.990308 1_555
H20 O76 0.990308 1_555
H21 O77 0.990308 1_555
H22 O78 0.990308 1_555
H23 O79 0.990308 1_555
H24 O72 1.007324 1_555
H24 O54 1.632871 1_555
H25 O73 1.007324 1_555
H25 O55 1.632871 1_555
H26 O74 1.007324 1_455
H26 O52 1.632871 1_555
H27 O75 1.007324 1_655
H27 O53 1.632871 1_555
H28 O76 1.007324 1_555
H28 O50 1.632871 1_555
H29 O77 1.007324 1_555
H29 O51 1.632871 1_555
H30 O78 1.007324 1_655
H30 O48 1.632871 1_555
H31 O79 1.007324 1_455
H31 O49 1.632871 1_555
O0 P0 1.525533 1_555
O1 P1 1.525533 1_555
O2 P2 1.525533 1_555
O3 P3 1.525533 1_555
O4 P4 1.525533 1_555
O5 P5 1.525533 1_555
O6 P6 1.525533 1_555
O7 P7 1.525533 1_555
O8 P6 1.544282 1_655
O9 P7 1.544282 1_455
O10 P4 1.544282 1_555
O11 P5 1.544282 1_555
O12 P2 1.544282 1_455
O13 P3 1.544282 1_655
O14 P0 1.544282 1_555
O15 P1 1.544282 1_555
O16 P0 1.540878 1_555
O17 P1 1.540878 1_555
O18 P2 1.540878 1_555
O19 P3 1.540878 1_555
O20 P4 1.540878 1_555
O21 P5 1.540878 1_555
O22 P6 1.540878 1_555
O23 P7 1.540878 1_555
O24 P0 1.548497 1_555
O25 P1 1.548497 1_555
O26 P2 1.548497 1_555
O27 P3 1.548497 1_555
O28 P4 1.548497 1_555
O29 P5 1.548497 1_555
O30 P6 1.548497 1_555
O31 P7 1.548497 1_555
O32 P8 1.547390 1_555
O33 P9 1.547390 1_555
O34 P10 1.547390 1_555
O35 P11 1.547390 1_555
O36 P12 1.547390 1_555
O37 P13 1.547390 1_555
O38 P14 1.547390 1_555
O39 P15 1.547390 1_555
O40 P8 1.552030 1_555
O41 P9 1.552030 1_555
O42 P10 1.552030 1_555
O43 P11 1.552030 1_555
O44 P12 1.552030 1_555
O45 P13 1.552030 1_555
O46 P14 1.552030 1_555
O47 P15 1.552030 1_555
O48 P8 1.555967 1_555
O49 P9 1.555967 1_555
O50 P10 1.555967 1_555
O51 P11 1.555967 1_555
O52 P12 1.555967 1_555
O53 P13 1.555967 1_555
O54 P14 1.555967 1_555
O55 P15 1.555967 1_555
O56 P13 1.519580 1_555
O57 P12 1.519580 1_565
O58 P15 1.519580 1_545
O59 P14 1.519580 1_555
O60 P9 1.519580 1_555
O61 P8 1.519580 1_545
O62 P11 1.519580 1_565
O63 P10 1.519580 1_555
