# generated using pymatgen
data_Li2Cr3CuO8
_symmetry_space_group_name_H-M   'P 1'
_cell_length_a   5.77092778
_cell_length_b   5.77092778
_cell_length_c   9.65733100
_cell_angle_alpha   90.00000000
_cell_angle_beta   90.00000000
_cell_angle_gamma   119.99999750
_symmetry_Int_Tables_number   1
_chemical_formula_structural   Li2Cr3CuO8
_chemical_formula_sum   'Li4 Cr6 Cu2 O16'
_cell_volume   278.53452754
_cell_formula_units_Z   2
loop_
 _symmetry_equiv_pos_site_id
 _symmetry_equiv_pos_as_xyz
  1  'x, y, z'
loop_
 _atom_site_type_symbol
 _atom_site_label
 _atom_site_symmetry_multiplicity
 _atom_site_fract_x
 _atom_site_fract_y
 _atom_site_fract_z
 _atom_site_occupancy
  Li  Li0  1  0.66666700  0.33333300  0.89371500  1
  Li  Li1  1  0.00000000  0.00000000  0.99664200  1
  Li  Li2  1  0.00000000  0.00000000  0.49664200  1
  Li  Li3  1  0.33333300  0.66666700  0.39371500  1
  Cr  Cr0  1  0.82827100  0.17172900  0.21482300  1
  Cr  Cr1  1  0.82827100  0.65654100  0.21482300  1
  Cr  Cr2  1  0.34345900  0.17172900  0.21482300  1
  Cr  Cr3  1  0.65654100  0.82827100  0.71482300  1
  Cr  Cr4  1  0.17172900  0.34345900  0.71482300  1
  Cr  Cr5  1  0.17172900  0.82827100  0.71482300  1
  Cu  Cu0  1  0.66666700  0.33333300  0.49537100  1
  Cu  Cu1  1  0.33333300  0.66666700  0.99537100  1
  O  O0  1  0.84276000  0.15724000  0.60968900  1
  O  O1  1  0.96435200  0.48217600  0.32982500  1
  O  O2  1  0.66666700  0.33333300  0.10021800  1
  O  O3  1  0.00000000  0.00000000  0.31013500  1
  O  O4  1  0.00000000  0.00000000  0.81013500  1
  O  O5  1  0.84276000  0.68552100  0.60968900  1
  O  O6  1  0.51782400  0.03564800  0.32982500  1
  O  O7  1  0.51782400  0.48217600  0.32982500  1
  O  O8  1  0.68552100  0.84276000  0.10968900  1
  O  O9  1  0.31447900  0.15724000  0.60968900  1
  O  O10  1  0.48217600  0.51782400  0.82982500  1
  O  O11  1  0.48217600  0.96435200  0.82982500  1
  O  O12  1  0.33333300  0.66666700  0.60021800  1
  O  O13  1  0.15724000  0.31447900  0.10968900  1
  O  O14  1  0.03564800  0.51782400  0.82982500  1
  O  O15  1  0.15724000  0.84276000  0.10968900  1
loop_
_geom_bond_atom_site_label_1
_geom_bond_atom_site_label_2
_geom_bond_distance
_geom_bond_site_symmetry_2
Li0 O14 1.944566 1_655
Li0 O11 1.944566 1_545
Li0 O10 1.944571 1_555
Li0 O2 1.994268 1_556
Li1 O4 1.801160 1_555
Li1 O13 1.913662 1_556
Li1 O8 1.913662 1_446
Li1 O15 1.913666 1_546
Li2 O3 1.801160 1_555
Li2 O9 1.913662 1_555
Li2 O5 1.913662 1_445
Li2 O0 1.913666 1_455
Li3 O6 1.944566 1_565
Li3 O1 1.944566 1_455
Li3 O7 1.944571 1_555
Li3 O12 1.994268 1_555
Cr0 O1 1.911269 1_555
Cr0 O6 1.911269 1_555
Cr0 O8 1.936413 1_545
Cr0 O13 1.936413 1_655
Cr0 O3 1.947742 1_655
Cr0 O2 1.958115 1_555
Cr1 O1 1.911265 1_555
Cr1 O7 1.911268 1_555
Cr1 O8 1.936413 1_555
Cr1 O15 1.936413 1_655
Cr1 O3 1.947747 1_665
Cr1 O2 1.958115 1_555
Cr2 O6 1.911265 1_555
Cr2 O7 1.911268 1_555
Cr2 O13 1.936413 1_555
Cr2 O15 1.936413 1_545
Cr2 O3 1.947747 1_555
Cr2 O2 1.958115 1_555
Cr3 O11 1.911265 1_555
Cr3 O10 1.911268 1_555
Cr3 O5 1.936413 1_555
Cr3 O0 1.936413 1_565
Cr3 O4 1.947747 1_665
Cr3 O12 1.958115 1_555
Cr4 O14 1.911265 1_555
Cr4 O10 1.911268 1_555
Cr4 O9 1.936413 1_555
Cr4 O0 1.936413 1_455
Cr4 O4 1.947747 1_555
Cr4 O12 1.958115 1_555
Cr5 O11 1.911269 1_555
Cr5 O14 1.911269 1_555
Cr5 O5 1.936413 1_455
Cr5 O9 1.936413 1_565
Cr5 O4 1.947742 1_565
Cr5 O12 1.958115 1_555
Cu0 O0 2.077725 1_555
Cu0 O5 2.077733 1_555
Cu0 O9 2.077733 1_555
Cu0 O1 2.183891 1_555
Cu0 O6 2.183891 1_555
Cu0 O7 2.183894 1_555
Cu1 O15 2.077725 1_556
Cu1 O8 2.077733 1_556
Cu1 O13 2.077733 1_556
Cu1 O11 2.183891 1_555
Cu1 O14 2.183891 1_555
Cu1 O10 2.183894 1_555
