# generated using pymatgen
data_Na3Sb(PO4)2
_symmetry_space_group_name_H-M   'P 1'
_cell_length_a   5.39379900
_cell_length_b   14.12780700
_cell_length_c   20.12593783
_cell_angle_alpha   69.57077283
_cell_angle_beta   90.00000000
_cell_angle_gamma   90.00000000
_symmetry_Int_Tables_number   1
_chemical_formula_structural   Na3Sb(PO4)2
_chemical_formula_sum   'Na24 Sb8 P16 O64'
_cell_volume   1437.18758478
_cell_formula_units_Z   8
loop_
 _symmetry_equiv_pos_site_id
 _symmetry_equiv_pos_as_xyz
  1  'x, y, z'
loop_
 _atom_site_type_symbol
 _atom_site_label
 _atom_site_symmetry_multiplicity
 _atom_site_fract_x
 _atom_site_fract_y
 _atom_site_fract_z
 _atom_site_occupancy
  Na  Na0  1  0.74349700  0.68862700  0.96491600  1
  Na  Na1  1  0.24920600  0.79880200  0.86387000  1
  Na  Na2  1  0.70473700  0.94601900  0.80028900  1
  Na  Na3  1  0.75650300  0.18862700  0.96491600  1
  Na  Na4  1  0.25079400  0.29880200  0.86387000  1
  Na  Na5  1  0.79526300  0.44601900  0.80028900  1
  Na  Na6  1  0.24319000  0.74970900  0.69772800  1
  Na  Na7  1  0.75473500  0.66073500  0.63828600  1
  Na  Na8  1  0.25681000  0.24970900  0.69772800  1
  Na  Na9  1  0.24511500  0.65511500  0.53458900  1
  Na  Na10  1  0.74526500  0.16073500  0.63828600  1
  Na  Na11  1  0.74511500  0.84488500  0.46541100  1
  Na  Na12  1  0.25488500  0.15511500  0.53458900  1
  Na  Na13  1  0.25473500  0.83926500  0.36171400  1
  Na  Na14  1  0.75488500  0.34488500  0.46541100  1
  Na  Na15  1  0.74319000  0.75029100  0.30227200  1
  Na  Na16  1  0.24526500  0.33926500  0.36171400  1
  Na  Na17  1  0.75681000  0.25029100  0.30227200  1
  Na  Na18  1  0.20473700  0.55398100  0.19971100  1
  Na  Na19  1  0.74920600  0.70119800  0.13613000  1
  Na  Na20  1  0.24349700  0.81137300  0.03508400  1
  Na  Na21  1  0.29526300  0.05398100  0.19971100  1
  Na  Na22  1  0.75079400  0.20119800  0.13613000  1
  Na  Na23  1  0.25650300  0.31137300  0.03508400  1
  Sb  Sb0  1  0.31205200  0.53653400  0.87497800  1
  Sb  Sb1  1  0.18794800  0.03653400  0.87497800  1
  Sb  Sb2  1  0.70299600  0.91264500  0.62328200  1
  Sb  Sb3  1  0.79700400  0.41264500  0.62328200  1
  Sb  Sb4  1  0.20299600  0.58735500  0.37671800  1
  Sb  Sb5  1  0.29700400  0.08735500  0.37671800  1
  Sb  Sb6  1  0.81205200  0.96346600  0.12502200  1
  Sb  Sb7  1  0.68794800  0.46346600  0.12502200  1
  P  P0  1  0.72589100  0.92104200  0.95841800  1
  P  P1  1  0.77410900  0.42104200  0.95841800  1
  P  P2  1  0.77045800  0.71220300  0.79140300  1
  P  P3  1  0.72954200  0.21220300  0.79140300  1
  P  P4  1  0.27882700  0.50373000  0.70811600  1
  P  P5  1  0.23139100  0.88118000  0.53972500  1
  P  P6  1  0.22117300  0.00373000  0.70811600  1
  P  P7  1  0.26860900  0.38118000  0.53972500  1
  P  P8  1  0.73139100  0.61882000  0.46027500  1
  P  P9  1  0.77882700  0.99627000  0.29188400  1
  P  P10  1  0.76860900  0.11882000  0.46027500  1
  P  P11  1  0.72117300  0.49627000  0.29188400  1
  P  P12  1  0.27045800  0.78779700  0.20859700  1
  P  P13  1  0.22954200  0.28779700  0.20859700  1
  P  P14  1  0.22589100  0.57895800  0.04158200  1
  P  P15  1  0.27410900  0.07895800  0.04158200  1
  O  O0  1  0.48368300  0.91657200  0.91569600  1
  O  O1  1  0.95364800  0.90913600  0.90895000  1
  O  O2  1  0.23309200  0.67499700  0.97514600  1
  O  O3  1  0.74181900  0.52217800  0.96806800  1
  O  O4  1  0.26577600  0.98445100  0.79066300  1
  O  O5  1  0.65708900  0.76859700  0.83646700  1
  O  O6  1  0.01631700  0.41657200  0.91569600  1
  O  O7  1  0.54635200  0.40913600  0.90895000  1
  O  O8  1  0.26690800  0.17499700  0.97514600  1
  O  O9  1  0.05127400  0.69432000  0.80576900  1
  O  O10  1  0.75818100  0.02217800  0.96806800  1
  O  O11  1  0.63296500  0.61080100  0.80111700  1
  O  O12  1  0.94015400  0.99324200  0.69703000  1
  O  O13  1  0.36857500  0.91638900  0.69604500  1
  O  O14  1  0.23422400  0.48445100  0.79066300  1
  O  O15  1  0.84291100  0.26859700  0.83646700  1
  O  O16  1  0.74149200  0.77383100  0.70812500  1
  O  O17  1  0.44872600  0.19432000  0.80576900  1
  O  O18  1  0.86703500  0.11080100  0.80111700  1
  O  O19  1  0.55984600  0.49324200  0.69703000  1
  O  O20  1  0.17901200  0.60798200  0.66284900  1
  O  O21  1  0.13142500  0.41638900  0.69604500  1
  O  O22  1  0.99562500  0.83159400  0.58560100  1
  O  O23  1  0.46495800  0.82207700  0.58621800  1
  O  O24  1  0.75850800  0.27383100  0.70812500  1
  O  O25  1  0.25493900  0.99253900  0.52936400  1
  O  O26  1  0.73003500  0.64836900  0.52688900  1
  O  O27  1  0.32098800  0.10798200  0.66284900  1
  O  O28  1  0.23003500  0.85163100  0.47311100  1
  O  O29  1  0.50437500  0.33159400  0.58560100  1
  O  O30  1  0.03504200  0.32207700  0.58621800  1
  O  O31  1  0.24506100  0.49253900  0.52936400  1
  O  O32  1  0.75493900  0.50746100  0.47063600  1
  O  O33  1  0.96495800  0.67792300  0.41378200  1
  O  O34  1  0.49562500  0.66840600  0.41439900  1
  O  O35  1  0.76996500  0.14836900  0.52688900  1
  O  O36  1  0.67901200  0.89201800  0.33715100  1
  O  O37  1  0.26996500  0.35163100  0.47311100  1
  O  O38  1  0.74506100  0.00746100  0.47063600  1
  O  O39  1  0.24149200  0.72616900  0.29187500  1
  O  O40  1  0.53504200  0.17792300  0.41378200  1
  O  O41  1  0.00437500  0.16840600  0.41439900  1
  O  O42  1  0.86857500  0.58361100  0.30395500  1
  O  O43  1  0.82098800  0.39201800  0.33715100  1
  O  O44  1  0.44015400  0.50675800  0.30297000  1
  O  O45  1  0.13296500  0.88919900  0.19888300  1
  O  O46  1  0.55127400  0.80568000  0.19423100  1
  O  O47  1  0.25850800  0.22616900  0.29187500  1
  O  O48  1  0.15708900  0.73140300  0.16353300  1
  O  O49  1  0.76577600  0.51554900  0.20933700  1
  O  O50  1  0.63142500  0.08361100  0.30395500  1
  O  O51  1  0.05984600  0.00675800  0.30297000  1
  O  O52  1  0.36703500  0.38919900  0.19888300  1
  O  O53  1  0.24181900  0.97782200  0.03193200  1
  O  O54  1  0.94872600  0.30568000  0.19423100  1
  O  O55  1  0.73309200  0.82500300  0.02485400  1
  O  O56  1  0.45364800  0.59086400  0.09105000  1
  O  O57  1  0.98368300  0.58342800  0.08430400  1
  O  O58  1  0.34291100  0.23140300  0.16353300  1
  O  O59  1  0.73422400  0.01554900  0.20933700  1
  O  O60  1  0.25818100  0.47782200  0.03193200  1
  O  O61  1  0.76690800  0.32500300  0.02485400  1
  O  O62  1  0.04635200  0.09086400  0.09105000  1
  O  O63  1  0.51631700  0.08342800  0.08430400  1
loop_
_geom_bond_atom_site_label_1
_geom_bond_atom_site_label_2
_geom_bond_distance
_geom_bond_site_symmetry_2
Na0 O3 2.330193 1_555
Na0 O5 2.477449 1_555
Na0 O55 2.606337 1_556
Na0 O2 2.650565 1_655
Na0 O57 2.677252 1_556
Na0 O2 2.762413 1_555
Na0 O56 2.889370 1_556
Na1 O2 2.312537 1_555
Na1 O5 2.343231 1_555
Na1 O9 2.427132 1_555
Na1 O4 2.521948 1_555
Na1 O0 2.582116 1_555
Na1 O1 2.604157 1_455
Na2 O12 2.325601 1_555
Na2 O5 2.367504 1_555
Na2 O4 2.421725 1_555
Na2 O1 2.461923 1_555
Na2 O18 2.492652 1_565
Na2 O0 2.512958 1_555
Na3 O10 2.330193 1_555
Na3 O15 2.477449 1_555
Na3 O61 2.606337 1_556
Na3 O8 2.650565 1_555
Na3 O63 2.677252 1_556
Na3 O8 2.762413 1_655
Na3 O62 2.889370 1_656
Na4 O8 2.312537 1_555
Na4 O15 2.343231 1_455
Na4 O17 2.427132 1_555
Na4 O14 2.521948 1_555
Na4 O6 2.582116 1_555
Na4 O7 2.604157 1_555
Na5 O19 2.325601 1_555
Na5 O15 2.367504 1_555
Na5 O14 2.421725 1_655
Na5 O7 2.461923 1_555
Na5 O11 2.492652 1_555
Na5 O6 2.512958 1_655
Na6 O9 2.285646 1_555
Na6 O20 2.367062 1_555
Na6 O23 2.431246 1_555
Na6 O13 2.438860 1_555
Na6 O22 2.528126 1_455
Na6 O16 2.726473 1_555
Na6 O16 2.744532 1_455
Na7 O26 2.312602 1_555
Na7 O20 2.404101 1_655
Na7 O16 2.470125 1_555
Na7 O19 2.479753 1_555
Na7 O22 2.617722 1_555
Na7 O23 2.658815 1_555
Na8 O17 2.285646 1_555
Na8 O27 2.367062 1_555
Na8 O30 2.431246 1_555
Na8 O21 2.438860 1_555
Na8 O29 2.528126 1_555
Na8 O24 2.726473 1_455
Na8 O24 2.744532 1_555
Na9 O31 2.335628 1_555
Na9 O20 2.456411 1_555
Na9 O28 2.616773 1_555
Na9 O26 2.623846 1_555
Na9 O34 2.719406 1_555
Na9 O33 2.784213 1_455
Na9 O26 2.786039 1_455
Na10 O35 2.312602 1_555
Na10 O27 2.404101 1_555
Na10 O24 2.470125 1_555
Na10 O12 2.479753 1_545
Na10 O29 2.617722 1_555
Na10 O30 2.658815 1_655
Na11 O38 2.335628 1_565
Na11 O36 2.456411 1_555
Na11 O26 2.616773 1_555
Na11 O28 2.623846 1_655
Na11 O22 2.719406 1_555
Na11 O23 2.784213 1_555
Na11 O28 2.786039 1_555
Na12 O25 2.335628 1_545
Na12 O27 2.456411 1_555
Na12 O37 2.616773 1_555
Na12 O35 2.623846 1_455
Na12 O41 2.719406 1_555
Na12 O40 2.784213 1_555
Na12 O35 2.786039 1_555
Na13 O28 2.312602 1_555
Na13 O36 2.404101 1_555
Na13 O39 2.470125 1_555
Na13 O51 2.479753 1_565
Na13 O34 2.617722 1_555
Na13 O33 2.658815 1_455
Na14 O32 2.335628 1_555
Na14 O43 2.456411 1_555
Na14 O35 2.616773 1_555
Na14 O37 2.623846 1_555
Na14 O29 2.719406 1_555
Na14 O30 2.784213 1_655
Na14 O37 2.786039 1_655
Na15 O46 2.285646 1_555
Na15 O36 2.367062 1_555
Na15 O33 2.431246 1_555
Na15 O42 2.438860 1_555
Na15 O34 2.528126 1_555
Na15 O39 2.726473 1_655
Na15 O39 2.744532 1_555
Na16 O37 2.312602 1_555
Na16 O43 2.404101 1_455
Na16 O47 2.470125 1_555
Na16 O44 2.479753 1_555
Na16 O41 2.617722 1_555
Na16 O40 2.658815 1_555
Na17 O54 2.285646 1_555
Na17 O43 2.367062 1_555
Na17 O40 2.431246 1_555
Na17 O50 2.438860 1_555
Na17 O41 2.528126 1_655
Na17 O47 2.726473 1_555
Na17 O47 2.744532 1_655
Na18 O44 2.325601 1_555
Na18 O48 2.367504 1_555
Na18 O49 2.421725 1_455
Na18 O56 2.461923 1_555
Na18 O52 2.492652 1_555
Na18 O57 2.512958 1_455
Na19 O55 2.312537 1_555
Na19 O48 2.343231 1_655
Na19 O46 2.427132 1_555
Na19 O49 2.521948 1_555
Na19 O57 2.582116 1_555
Na19 O56 2.604157 1_555
Na20 O53 2.330193 1_555
Na20 O48 2.477449 1_555
Na20 O2 2.606337 1_554
Na20 O55 2.650565 1_555
Na20 O0 2.677252 1_554
Na20 O55 2.762413 1_455
Na20 O1 2.889370 1_454
Na21 O51 2.325601 1_555
Na21 O58 2.367504 1_555
Na21 O59 2.421725 1_555
Na21 O62 2.461923 1_555
Na21 O45 2.492652 1_545
Na21 O63 2.512958 1_555
Na22 O61 2.312537 1_555
Na22 O58 2.343231 1_555
Na22 O54 2.427132 1_555
Na22 O59 2.521948 1_555
Na22 O63 2.582116 1_555
Na22 O62 2.604157 1_655
Na23 O60 2.330193 1_555
Na23 O58 2.477449 1_555
Na23 O8 2.606337 1_554
Na23 O61 2.650565 1_455
Na23 O6 2.677252 1_554
Na23 O61 2.762413 1_555
Na23 O7 2.889370 1_554
O0 P0 1.577315 1_555
O0 Sb1 2.262475 1_565
O1 P0 1.626515 1_555
O1 Sb1 2.108311 1_665
O2 P14 1.537461 1_556
O3 P1 1.517673 1_555
O4 P6 1.605058 1_565
O4 Sb1 2.113965 1_565
O5 P2 1.528299 1_555
O6 P1 1.577315 1_455
O6 Sb0 2.262475 1_555
O7 P1 1.626515 1_555
O7 Sb0 2.108311 1_555
O8 P15 1.537461 1_556
O9 P2 1.546170 1_455
O9 Sb0 2.592342 1_555
O10 P0 1.517673 1_545
O11 P2 1.563647 1_555
O11 Sb0 2.284284 1_555
O12 P6 1.546720 1_665
O12 Sb2 2.513099 1_555
O13 P6 1.556601 1_565
O13 Sb2 2.335616 1_555
O14 P4 1.605058 1_555
O14 Sb0 2.113965 1_555
O15 P3 1.528299 1_555
O16 P2 1.604021 1_555
O16 Sb2 2.113560 1_555
O17 P3 1.546170 1_555
O17 Sb1 2.592342 1_555
O18 P3 1.563647 1_555
O18 Sb1 2.284284 1_655
O19 P4 1.546720 1_555
O19 Sb3 2.513099 1_555
O20 P4 1.533758 1_555
O21 P4 1.556601 1_555
O21 Sb3 2.335616 1_455
O22 P5 1.583937 1_655
O22 Sb2 2.232447 1_555
O23 P5 1.616933 1_555
O23 Sb2 2.123302 1_555
O24 P3 1.604021 1_555
O24 Sb3 2.113560 1_555
O25 P5 1.518465 1_555
O26 P8 1.537021 1_555
O27 P6 1.533758 1_555
O28 P5 1.537021 1_555
O29 P7 1.583937 1_555
O29 Sb3 2.232447 1_555
O30 P7 1.616933 1_555
O30 Sb3 2.123302 1_455
O31 P7 1.518465 1_555
O32 P8 1.518465 1_555
O33 P8 1.616933 1_555
O33 Sb4 2.123302 1_655
O34 P8 1.583937 1_555
O34 Sb4 2.232447 1_555
O35 P10 1.537021 1_555
O36 P9 1.533758 1_555
O37 P7 1.537021 1_555
O38 P10 1.518465 1_555
O39 P12 1.604021 1_555
O39 Sb4 2.113560 1_555
O40 P10 1.616933 1_555
O40 Sb5 2.123302 1_555
O41 P10 1.583937 1_455
O41 Sb5 2.232447 1_555
O42 P11 1.556601 1_555
O42 Sb4 2.335616 1_655
O43 P11 1.533758 1_555
O44 P11 1.546720 1_555
O44 Sb4 2.513099 1_555
O45 P12 1.563647 1_555
O45 Sb6 2.284284 1_455
O46 P12 1.546170 1_555
O46 Sb6 2.592342 1_555
O47 P13 1.604021 1_555
O47 Sb5 2.113560 1_555
O48 P12 1.528299 1_555
O49 P11 1.605058 1_555
O49 Sb7 2.113965 1_555
O50 P9 1.556601 1_545
O50 Sb5 2.335616 1_555
O51 P9 1.546720 1_445
O51 Sb5 2.513099 1_555
O52 P13 1.563647 1_555
O52 Sb7 2.284284 1_555
O53 P15 1.517673 1_565
O54 P13 1.546170 1_655
O54 Sb7 2.592342 1_555
O55 P0 1.537461 1_554
O56 P14 1.626515 1_555
O56 Sb7 2.108311 1_555
O57 P14 1.577315 1_655
O57 Sb7 2.262475 1_555
O58 P13 1.528299 1_555
O59 P9 1.605058 1_545
O59 Sb6 2.113965 1_545
O60 P14 1.517673 1_555
O61 P1 1.537461 1_554
O62 P15 1.626515 1_555
O62 Sb6 2.108311 1_445
O63 P15 1.577315 1_555
O63 Sb6 2.262475 1_545
