# generated using pymatgen
data_LiCuPO4
_symmetry_space_group_name_H-M   'P 1'
_cell_length_a   4.87858772
_cell_length_b   4.87858772
_cell_length_c   16.38515714
_cell_angle_alpha   89.80311366
_cell_angle_beta   89.80311366
_cell_angle_gamma   91.62758734
_symmetry_Int_Tables_number   1
_chemical_formula_structural   LiCuPO4
_chemical_formula_sum   'Li4 Cu4 P4 O16'
_cell_volume   389.81479577
_cell_formula_units_Z   4
loop_
 _symmetry_equiv_pos_site_id
 _symmetry_equiv_pos_as_xyz
  1  'x, y, z'
loop_
 _atom_site_type_symbol
 _atom_site_label
 _atom_site_symmetry_multiplicity
 _atom_site_fract_x
 _atom_site_fract_y
 _atom_site_fract_z
 _atom_site_occupancy
  Li  Li0  1  0.38874100  0.83740700  0.93738300  1
  Li  Li1  1  0.16259300  0.61125900  0.56261700  1
  Li  Li2  1  0.83740700  0.38874100  0.43738300  1
  Li  Li3  1  0.61125900  0.16259300  0.06261700  1
  Cu  Cu0  1  0.66497700  0.83430100  0.75029600  1
  Cu  Cu1  1  0.83430100  0.66497700  0.25029600  1
  Cu  Cu2  1  0.16569900  0.33502300  0.74970400  1
  Cu  Cu3  1  0.33502300  0.16569900  0.24970400  1
  P  P0  1  0.68888600  0.35442900  0.63571600  1
  P  P1  1  0.64557100  0.31111400  0.86428400  1
  P  P2  1  0.35442900  0.68888600  0.13571600  1
  P  P3  1  0.31111400  0.64557100  0.36428400  1
  O  O0  1  0.86565100  0.53440500  0.69983700  1
  O  O1  1  0.53440500  0.86565100  0.19983700  1
  O  O2  1  0.95067700  0.25453300  0.84714600  1
  O  O3  1  0.56815800  0.61683300  0.85029800  1
  O  O4  1  0.78513200  0.43637900  0.55103500  1
  O  O5  1  0.25453300  0.95067700  0.34714600  1
  O  O6  1  0.61683300  0.56815800  0.35029800  1
  O  O7  1  0.43637900  0.78513200  0.05103500  1
  O  O8  1  0.56362100  0.21486800  0.94896500  1
  O  O9  1  0.38316700  0.43184200  0.64970200  1
  O  O10  1  0.74546700  0.04932300  0.65285400  1
  O  O11  1  0.21486800  0.56362100  0.44896500  1
  O  O12  1  0.43184200  0.38316700  0.14970200  1
  O  O13  1  0.04932300  0.74546700  0.15285400  1
  O  O14  1  0.46559500  0.13434900  0.80016300  1
  O  O15  1  0.13434900  0.46559500  0.30016300  1
loop_
_geom_bond_atom_site_label_1
_geom_bond_atom_site_label_2
_geom_bond_distance
_geom_bond_site_symmetry_2
Li0 O7 1.894714 1_556
Li0 O3 2.003907 1_555
Li0 O8 2.017229 1_565
Li1 O11 1.894714 1_555
Li1 O9 2.003907 1_555
Li1 O4 2.017229 1_455
Li2 O4 1.894714 1_555
Li2 O6 2.003907 1_555
Li2 O11 2.017229 1_655
Li3 O8 1.894714 1_554
Li3 O12 2.003907 1_555
Li3 O7 2.017229 1_545
Cu0 O10 1.940238 1_565
Cu0 O14 1.959630 1_565
Cu0 O0 1.966393 1_555
Cu0 O3 1.996948 1_555
Cu1 O13 1.940238 1_655
Cu1 O15 1.959630 1_655
Cu1 O1 1.966393 1_555
Cu1 O6 1.996948 1_555
Cu2 O2 1.940238 1_455
Cu2 O0 1.959630 1_455
Cu2 O14 1.966393 1_555
Cu2 O9 1.996948 1_555
Cu3 O5 1.940238 1_545
Cu3 O1 1.959630 1_545
Cu3 O15 1.966393 1_555
Cu3 O12 1.996948 1_555
O0 P0 1.608723 1_555
O1 P2 1.608723 1_555
O2 P1 1.546493 1_555
O3 P1 1.565214 1_555
O4 P0 1.512133 1_555
O5 P3 1.546493 1_555
O6 P3 1.565214 1_555
O7 P2 1.512133 1_555
O8 P1 1.512133 1_555
O9 P0 1.565214 1_555
O10 P0 1.546493 1_555
O11 P3 1.512133 1_555
O12 P2 1.565214 1_555
O13 P2 1.546493 1_555
O14 P1 1.608723 1_555
O15 P3 1.608723 1_555
