# generated using pymatgen
data_CrP4O11
_symmetry_space_group_name_H-M   'P 1'
_cell_length_a   22.58777300
_cell_length_b   5.41781600
_cell_length_c   7.72662624
_cell_angle_alpha   71.89065094
_cell_angle_beta   90.00000000
_cell_angle_gamma   90.00000000
_symmetry_Int_Tables_number   1
_chemical_formula_structural   CrP4O11
_chemical_formula_sum   'Cr4 P16 O44'
_cell_volume   898.71856049
_cell_formula_units_Z   4
loop_
 _symmetry_equiv_pos_site_id
 _symmetry_equiv_pos_as_xyz
  1  'x, y, z'
loop_
 _atom_site_type_symbol
 _atom_site_label
 _atom_site_symmetry_multiplicity
 _atom_site_fract_x
 _atom_site_fract_y
 _atom_site_fract_z
 _atom_site_occupancy
  Cr  Cr0  1  0.88718000  0.99529400  0.87418800  1
  Cr  Cr1  1  0.61282000  0.99529400  0.37418800  1
  Cr  Cr2  1  0.38718000  0.00470600  0.62581200  1
  Cr  Cr3  1  0.11282000  0.00470600  0.12581200  1
  P  P0  1  0.57196900  0.68913000  0.82259200  1
  P  P1  1  0.19510700  0.59616600  0.96561800  1
  P  P2  1  0.17958000  0.66877400  0.56038700  1
  P  P3  1  0.96537000  0.59408700  0.70794200  1
  P  P4  1  0.92803100  0.68913000  0.32259200  1
  P  P5  1  0.30489300  0.59616600  0.46561800  1
  P  P6  1  0.46537000  0.40591300  0.79205800  1
  P  P7  1  0.67958000  0.33122600  0.93961300  1
  P  P8  1  0.32042000  0.66877400  0.06038700  1
  P  P9  1  0.53463000  0.59408700  0.20794200  1
  P  P10  1  0.69510700  0.40383400  0.53438200  1
  P  P11  1  0.07196900  0.31087000  0.67740800  1
  P  P12  1  0.03463000  0.40591300  0.29205800  1
  P  P13  1  0.82042000  0.33122600  0.43961300  1
  P  P14  1  0.80489300  0.40383400  0.03438200  1
  P  P15  1  0.42803100  0.31087000  0.17740800  1
  O  O0  1  0.34255500  0.90206000  0.92172600  1
  O  O1  1  0.57350100  0.92002300  0.66216300  1
  O  O2  1  0.54596800  0.75618800  0.99246900  1
  O  O3  1  0.95539800  0.77853800  0.81200800  1
  O  O4  1  0.83743000  0.65263200  0.98551500  1
  O  O5  1  0.15744500  0.90206000  0.42172600  1
  O  O6  1  0.19544600  0.72622500  0.74343800  1
  O  O7  1  0.31910800  0.80619800  0.54506400  1
  O  O8  1  0.43609200  0.66307900  0.74778000  1
  O  O9  1  0.26537800  0.52841500  0.00362100  1
  O  O10  1  0.63642500  0.57648300  0.88598200  1
  O  O11  1  0.92649900  0.92002300  0.16216300  1
  O  O12  1  0.95403200  0.75618800  0.49246900  1
  O  O13  1  0.54460200  0.77853800  0.31200800  1
  O  O14  1  0.03752300  0.55676800  0.69857200  1
  O  O15  1  0.66257000  0.65263200  0.48551500  1
  O  O16  1  0.30455400  0.72622500  0.24343800  1
  O  O17  1  0.18089200  0.80619800  0.04506400  1
  O  O18  1  0.53752300  0.44323200  0.80142800  1
  O  O19  1  0.06390800  0.66307900  0.24778000  1
  O  O20  1  0.23462200  0.52841500  0.50362100  1
  O  O21  1  0.86357500  0.57648300  0.38598200  1
  O  O22  1  0.13642500  0.42351700  0.61401800  1
  O  O23  1  0.76537800  0.47158500  0.49637900  1
  O  O24  1  0.93609200  0.33692100  0.75222000  1
  O  O25  1  0.46247700  0.55676800  0.19857200  1
  O  O26  1  0.81910800  0.19380200  0.95493600  1
  O  O27  1  0.69544600  0.27377500  0.75656200  1
  O  O28  1  0.33743000  0.34736800  0.51448500  1
  O  O29  1  0.96247700  0.44323200  0.30142800  1
  O  O30  1  0.45539800  0.22146200  0.68799200  1
  O  O31  1  0.04596800  0.24381200  0.50753100  1
  O  O32  1  0.07350100  0.07997700  0.83783700  1
  O  O33  1  0.36357500  0.42351700  0.11401800  1
  O  O34  1  0.73462200  0.47158500  0.99637900  1
  O  O35  1  0.56390800  0.33692100  0.25222000  1
  O  O36  1  0.68089200  0.19380200  0.45493600  1
  O  O37  1  0.80455400  0.27377500  0.25656200  1
  O  O38  1  0.84255500  0.09794000  0.57827400  1
  O  O39  1  0.16257000  0.34736800  0.01448500  1
  O  O40  1  0.04460200  0.22146200  0.18799200  1
  O  O41  1  0.45403200  0.24381200  0.00753100  1
  O  O42  1  0.42649900  0.07997700  0.33783700  1
  O  O43  1  0.65744500  0.09794000  0.07827400  1
loop_
_geom_bond_atom_site_label_1
_geom_bond_atom_site_label_2
_geom_bond_distance
_geom_bond_site_symmetry_2
Cr0 O26 2.080206 1_565
Cr0 O3 2.082067 1_555
Cr0 O24 2.109530 1_565
Cr0 O4 2.111039 1_555
Cr0 O11 2.311264 1_556
Cr0 O38 2.400528 1_565
Cr1 O36 2.080206 1_565
Cr1 O13 2.082067 1_555
Cr1 O35 2.109530 1_565
Cr1 O15 2.111039 1_555
Cr1 O1 2.311264 1_555
Cr1 O43 2.400528 1_565
Cr2 O7 2.080206 1_545
Cr2 O30 2.082067 1_555
Cr2 O8 2.109530 1_545
Cr2 O28 2.111039 1_555
Cr2 O42 2.311264 1_555
Cr2 O0 2.400528 1_545
Cr3 O17 2.080206 1_545
Cr3 O40 2.082067 1_555
Cr3 O19 2.109530 1_545
Cr3 O39 2.111039 1_555
Cr3 O32 2.311264 1_554
Cr3 O5 2.400528 1_545
O0 P8 1.467473 1_556
O1 P0 1.462401 1_555
O2 P0 1.579945 1_555
O2 P9 1.643088 1_556
O3 P3 1.481705 1_555
O4 P14 1.477582 1_556
O5 P2 1.467473 1_555
O6 P2 1.580958 1_555
O6 P1 1.640622 1_555
O7 P5 1.486268 1_555
O8 P6 1.483001 1_555
O9 P8 1.588625 1_555
O9 P1 1.635042 1_554
O10 P7 1.595368 1_555
O10 P0 1.595691 1_555
O11 P4 1.462401 1_555
O12 P4 1.579945 1_555
O12 P3 1.643088 1_555
O13 P9 1.481705 1_555
O14 P11 1.594486 1_555
O14 P3 1.646630 1_455
O15 P10 1.477582 1_555
O16 P8 1.580958 1_555
O16 P5 1.640622 1_555
O17 P1 1.486268 1_554
O18 P0 1.594486 1_555
O18 P6 1.646630 1_555
O19 P12 1.483001 1_555
O20 P2 1.588625 1_555
O20 P5 1.635042 1_555
O21 P13 1.595368 1_555
O21 P4 1.595691 1_555
O22 P2 1.595368 1_555
O22 P11 1.595691 1_555
O23 P13 1.588625 1_555
O23 P10 1.635042 1_555
O24 P3 1.483001 1_555
O25 P15 1.594486 1_555
O25 P9 1.646630 1_555
O26 P14 1.486268 1_556
O27 P7 1.580958 1_555
O27 P10 1.640622 1_555
O28 P5 1.477582 1_555
O29 P4 1.594486 1_555
O29 P12 1.646630 1_655
O30 P6 1.481705 1_555
O31 P11 1.579945 1_555
O31 P12 1.643088 1_555
O32 P11 1.462401 1_555
O33 P8 1.595368 1_555
O33 P15 1.595691 1_555
O34 P7 1.588625 1_555
O34 P14 1.635042 1_556
O35 P9 1.483001 1_555
O36 P10 1.486268 1_555
O37 P13 1.580958 1_555
O37 P14 1.640622 1_555
O38 P13 1.467473 1_555
O39 P1 1.477582 1_554
O40 P12 1.481705 1_555
O41 P15 1.579945 1_555
O41 P6 1.643088 1_554
O42 P15 1.462401 1_555
O43 P7 1.467473 1_554
