# generated using pymatgen
data_Li4V3Cr3(CuO8)2
_symmetry_space_group_name_H-M   'P 1'
_cell_length_a   5.83872489
_cell_length_b   5.89897127
_cell_length_c   9.75097151
_cell_angle_alpha   86.73980973
_cell_angle_beta   90.61734256
_cell_angle_gamma   120.27604439
_symmetry_Int_Tables_number   1
_chemical_formula_structural   Li4V3Cr3(CuO8)2
_chemical_formula_sum   'Li4 V3 Cr3 Cu2 O16'
_cell_volume   289.50829583
_cell_formula_units_Z   1
loop_
 _symmetry_equiv_pos_site_id
 _symmetry_equiv_pos_as_xyz
  1  'x, y, z'
loop_
 _atom_site_type_symbol
 _atom_site_label
 _atom_site_symmetry_multiplicity
 _atom_site_fract_x
 _atom_site_fract_y
 _atom_site_fract_z
 _atom_site_occupancy
  Li  Li0  1  0.33933400  0.65615900  0.90241700  1
  Li  Li1  1  0.01541500  0.03339600  0.99531900  1
  Li  Li2  1  0.99088100  0.01510400  0.49257900  1
  Li  Li3  1  0.67717300  0.32381700  0.39458400  1
  V  V0  1  0.85095100  0.64159100  0.72677600  1
  V  V1  1  0.67469000  0.81459900  0.21055100  1
  V  V2  1  0.78880400  0.11710900  0.70277700  1
  Cr  Cr0  1  0.19224600  0.84810600  0.21746300  1
  Cr  Cr1  1  0.17278400  0.34412500  0.21302600  1
  Cr  Cr2  1  0.32900000  0.17931000  0.71295800  1
  Cu  Cu0  1  0.31177000  0.66281100  0.48347300  1
  Cu  Cu1  1  0.66186300  0.33341500  0.00074100  1
  O  O0  1  0.13776800  0.84247400  0.60784600  1
  O  O1  1  0.04195900  0.51465300  0.33283900  1
  O  O2  1  0.36255100  0.69371600  0.10558700  1
  O  O3  1  0.99612600  0.99143500  0.31216400  1
  O  O4  1  0.97572000  0.98538000  0.81143000  1
  O  O5  1  0.12845500  0.32205000  0.60520100  1
  O  O6  1  0.50050100  0.95670800  0.33899500  1
  O  O7  1  0.50403800  0.51863600  0.32617600  1
  O  O8  1  0.32735800  0.17592500  0.10166200  1
  O  O9  1  0.66046200  0.84367000  0.60348200  1
  O  O10  1  0.51724100  0.47886600  0.83152900  1
  O  O11  1  0.51752600  0.01774600  0.81996100  1
  O  O12  1  0.67691300  0.34598100  0.60827600  1
  O  O13  1  0.84718300  0.70371500  0.10562100  1
  O  O14  1  0.96760900  0.47944500  0.83805700  1
  O  O15  1  0.83368000  0.16035700  0.10635200  1
loop_
_geom_bond_atom_site_label_1
_geom_bond_atom_site_label_2
_geom_bond_distance
_geom_bond_site_symmetry_2
Li0 O10 1.960539 1_555
Li0 O11 1.965667 1_565
Li0 O14 1.988682 1_455
Li0 O2 2.001521 1_556
Li1 O4 1.825310 1_445
Li1 O8 1.901009 1_556
Li1 O13 1.939708 1_446
Li1 O15 1.943540 1_456
Li2 O3 1.774458 1_545
Li2 O0 1.940497 1_645
Li2 O9 1.966564 1_545
Li2 O5 1.967314 1_655
Li3 O1 1.923294 1_655
Li3 O7 1.963995 1_555
Li3 O6 1.979026 1_545
Li3 O12 2.095275 1_555
Cr0 O8 1.967107 1_565
Cr0 O6 1.982892 1_555
Cr0 O1 1.983437 1_555
Cr0 O3 1.991641 1_455
Cr0 O2 2.014400 1_555
Cr0 O13 2.074103 1_455
Cr1 O1 1.971798 1_555
Cr1 O3 1.988920 1_445
Cr1 O8 2.006194 1_555
Cr1 O2 2.013275 1_555
Cr1 O7 2.023211 1_555
Cr1 O15 2.024082 1_455
Cr2 O10 1.978368 1_555
Cr2 O4 2.005943 1_445
Cr2 O5 2.012741 1_555
Cr2 O12 2.012889 1_555
Cr2 O11 2.031896 1_555
Cr2 O0 2.053102 1_545
Cu0 O6 2.008478 1_555
Cu0 O1 2.027531 1_555
Cu0 O5 2.044923 1_555
Cu0 O9 2.133788 1_555
Cu0 O0 2.210116 1_555
Cu0 O7 2.341853 1_555
Cu1 O8 1.937492 1_555
Cu1 O15 1.999972 1_555
Cu1 O10 2.170518 1_554
Cu1 O14 2.190959 1_554
Cu1 O13 2.198908 1_555
Cu1 O11 2.458472 1_554
O0 V0 1.854206 1_455
O2 V1 1.899980 1_555
O3 V1 1.922395 1_555
O4 V2 1.911523 1_565
O4 V0 2.003154 1_555
O5 V2 1.947301 1_455
O6 V1 2.076611 1_555
O7 V1 1.832563 1_555
O9 V2 1.744705 1_565
O9 V0 2.290948 1_555
O10 V0 1.951063 1_555
O11 V2 1.784576 1_555
O12 V0 1.955939 1_555
O12 V2 1.957963 1_555
O13 V1 1.803231 1_555
O14 V0 1.754769 1_555
O14 V2 2.332268 1_555
O15 V1 1.982317 1_545
