# generated using pymatgen
data_Li4Nb3V3Cr2O16
_symmetry_space_group_name_H-M   'P 1'
_cell_length_a   6.03979464
_cell_length_b   6.03676020
_cell_length_c   9.80421333
_cell_angle_alpha   89.99929212
_cell_angle_beta   89.27687583
_cell_angle_gamma   119.98246127
_symmetry_Int_Tables_number   1
_chemical_formula_structural   Li4Nb3V3Cr2O16
_chemical_formula_sum   'Li4 Nb3 V3 Cr2 O16'
_cell_volume   309.59936277
_cell_formula_units_Z   1
loop_
 _symmetry_equiv_pos_site_id
 _symmetry_equiv_pos_as_xyz
  1  'x, y, z'
loop_
 _atom_site_type_symbol
 _atom_site_label
 _atom_site_symmetry_multiplicity
 _atom_site_fract_x
 _atom_site_fract_y
 _atom_site_fract_z
 _atom_site_occupancy
  Li  Li0  1  0.33314600  0.66658500  0.89785400  1
  Li  Li1  1  0.01594900  0.00798900  0.99368600  1
  Li  Li2  1  0.01743000  0.00873000  0.49530900  1
  Li  Li3  1  0.66886300  0.33443200  0.38686200  1
  Nb  Nb0  1  0.66275700  0.83139500  0.21368500  1
  Nb  Nb1  1  0.82295200  0.64873200  0.71244900  1
  Nb  Nb2  1  0.82293500  0.17423000  0.71245800  1
  V  V0  1  0.17297000  0.83196700  0.21273100  1
  V  V1  1  0.17296600  0.34101800  0.21272400  1
  V  V2  1  0.34643500  0.17322800  0.71184300  1
  Cr  Cr0  1  0.32250600  0.66123900  0.48148400  1
  Cr  Cr1  1  0.66050200  0.33027100  0.98969400  1
  O  O0  1  0.15208900  0.82016200  0.60060300  1
  O  O1  1  0.04147400  0.52074700  0.33712800  1
  O  O2  1  0.34624800  0.67315100  0.10014600  1
  O  O3  1  0.99580800  0.99790500  0.31344200  1
  O  O4  1  0.99565100  0.99783200  0.81037400  1
  O  O5  1  0.15208400  0.33193400  0.60060600  1
  O  O6  1  0.48344600  0.95973000  0.34176000  1
  O  O7  1  0.48343500  0.52371000  0.34175300  1
  O  O8  1  0.32512700  0.16258800  0.10280200  1
  O  O9  1  0.66271900  0.83136900  0.60118600  1
  O  O10  1  0.52729800  0.48806600  0.84707500  1
  O  O11  1  0.52730200  0.03926600  0.84707900  1
  O  O12  1  0.66783400  0.33393500  0.58599700  1
  O  O13  1  0.82880400  0.66867700  0.10320600  1
  O  O14  1  0.96246200  0.48124000  0.85068300  1
  O  O15  1  0.82880300  0.16017200  0.10321800  1
loop_
_geom_bond_atom_site_label_1
_geom_bond_atom_site_label_2
_geom_bond_distance
_geom_bond_site_symmetry_2
Li0 O2 1.985496 1_556
Li0 O14 2.000178 1_455
Li0 O10 2.008146 1_555
Li0 O11 2.008204 1_565
Li1 O4 1.801909 1_445
Li1 O8 1.952216 1_556
Li1 O13 2.069190 1_446
Li1 O15 2.069321 1_456
Li2 O3 1.788292 1_445
Li2 O5 1.992305 1_555
Li2 O0 1.992358 1_545
Li2 O9 2.113039 1_445
Li3 O12 1.952291 1_555
Li3 O1 2.002481 1_655
Li3 O6 2.011705 1_545
Li3 O7 2.011706 1_555
Nb0 O2 2.008640 1_555
Nb0 O3 2.010496 1_555
Nb0 O15 2.025116 1_565
Nb0 O13 2.025124 1_555
Nb0 O6 2.038161 1_555
Nb0 O7 2.038275 1_555
Nb1 O10 2.020146 1_555
Nb1 O0 2.028308 1_655
Nb1 O12 2.067853 1_555
Nb1 O4 2.068649 1_555
Nb1 O9 2.105986 1_555
Nb1 O14 2.109365 1_555
Nb2 O11 2.020034 1_555
Nb2 O5 2.028392 1_655
Nb2 O12 2.067905 1_555
Nb2 O4 2.068632 1_545
Nb2 O9 2.106034 1_545
Nb2 O14 2.109376 1_555
Cr0 O1 2.055555 1_555
Cr0 O7 2.069722 1_555
Cr0 O6 2.069801 1_555
Cr0 O5 2.073604 1_555
Cr0 O0 2.073738 1_555
Cr0 O9 2.146164 1_555
Cr1 O8 2.061887 1_556
Cr1 O14 2.071282 1_555
Cr1 O10 2.074638 1_555
Cr1 O11 2.074673 1_555
Cr1 O15 2.097203 1_556
Cr1 O13 2.097208 1_556
O0 V2 2.154509 1_565
O1 V0 2.032763 1_555
O1 V1 2.032816 1_555
O2 V0 2.050992 1_555
O2 V1 2.051127 1_555
O3 V0 2.041570 1_655
O3 V1 2.041666 1_665
O4 V2 2.061370 1_665
O5 V2 2.154414 1_555
O6 V0 2.079890 1_555
O7 V1 2.079859 1_555
O8 V1 2.032408 1_555
O8 V0 2.032581 1_545
O10 V2 2.127200 1_555
O11 V2 2.127152 1_555
O12 V2 2.070984 1_555
O13 V0 2.110476 1_655
O15 V1 2.110363 1_655
