# generated using pymatgen
data_Li3VPCO7
_symmetry_space_group_name_H-M   'P 1'
_cell_length_a   6.61646600
_cell_length_b   8.50891991
_cell_length_c   9.97820890
_cell_angle_alpha   85.09826828
_cell_angle_beta   89.42896260
_cell_angle_gamma   89.07039731
_symmetry_Int_Tables_number   1
_chemical_formula_structural   Li3VPCO7
_chemical_formula_sum   'Li12 V4 P4 C4 O28'
_cell_volume   559.61402493
_cell_formula_units_Z   4
loop_
 _symmetry_equiv_pos_site_id
 _symmetry_equiv_pos_as_xyz
  1  'x, y, z'
loop_
 _atom_site_type_symbol
 _atom_site_label
 _atom_site_symmetry_multiplicity
 _atom_site_fract_x
 _atom_site_fract_y
 _atom_site_fract_z
 _atom_site_occupancy
  Li  Li0  1  0.25637100  0.90048600  0.60939700  1
  Li  Li1  1  0.25830800  0.90171400  0.11750100  1
  Li  Li2  1  0.48601200  0.71896100  0.89189400  1
  Li  Li3  1  0.01782900  0.72156800  0.36081700  1
  Li  Li4  1  0.47847200  0.71959600  0.36127800  1
  Li  Li5  1  0.74023800  0.65261200  0.12293800  1
  Li  Li6  1  0.52960900  0.28305600  0.62284600  1
  Li  Li7  1  0.97035000  0.28280900  0.62214600  1
  Li  Li8  1  0.53449200  0.28346800  0.12705300  1
  Li  Li9  1  0.96650400  0.28087100  0.12679500  1
  Li  Li10  1  0.74876800  0.10822900  0.89196600  1
  Li  Li11  1  0.74683200  0.09235800  0.37719700  1
  V  V0  1  0.99100300  0.74089700  0.88779200  1
  V  V1  1  0.74750000  0.67081400  0.59897300  1
  V  V2  1  0.25073900  0.33060400  0.89675000  1
  V  V3  1  0.25047100  0.32879300  0.39669100  1
  P  P0  1  0.24421000  0.59220100  0.63978300  1
  P  P1  1  0.25426700  0.58805000  0.14068400  1
  P  P2  1  0.75008200  0.41347200  0.85967600  1
  P  P3  1  0.74949700  0.40818500  0.36021000  1
  C  C0  1  0.75406300  0.96547800  0.65214700  1
  C  C1  1  0.75911300  0.95740600  0.14418200  1
  C  C2  1  0.25178000  0.03747600  0.84722800  1
  C  C3  1  0.24981300  0.03510700  0.34719700  1
  O  O0  1  0.74569100  0.92948800  0.52942000  1
  O  O1  1  0.24516300  0.89044400  0.81847900  1
  O  O2  1  0.77274400  0.92405600  0.01865500  1
  O  O3  1  0.75992600  0.84673000  0.74623100  1
  O  O4  1  0.24920700  0.88921900  0.31970900  1
  O  O5  1  0.75208800  0.84774600  0.24137800  1
  O  O6  1  0.06457200  0.69564100  0.58285400  1
  O  O7  1  0.42974100  0.69210600  0.59258700  1
  O  O8  1  0.06348100  0.68552500  0.09217200  1
  O  O9  1  0.43607100  0.69114200  0.09170700  1
  O  O10  1  0.74410700  0.57847000  0.91413600  1
  O  O11  1  0.22896000  0.57403700  0.79870300  1
  O  O12  1  0.74583800  0.57628200  0.40891600  1
  O  O13  1  0.24942600  0.56701300  0.29793700  1
  O  O14  1  0.75106100  0.43277100  0.70217500  1
  O  O15  1  0.25013600  0.42414000  0.59181300  1
  O  O16  1  0.75008500  0.42492000  0.20454600  1
  O  O17  1  0.25714800  0.42151800  0.08880600  1
  O  O18  1  0.93340500  0.31018000  0.91175200  1
  O  O19  1  0.56837200  0.31150400  0.91158800  1
  O  O20  1  0.56837400  0.30639100  0.41642400  1
  O  O21  1  0.93309100  0.30660300  0.41613000  1
  O  O22  1  0.25645400  0.14953500  0.75090800  1
  O  O23  1  0.75335400  0.10853900  0.68579500  1
  O  O24  1  0.24961800  0.14884400  0.25104400  1
  O  O25  1  0.25355200  0.07322900  0.97060800  1
  O  O26  1  0.75074100  0.10587000  0.17174000  1
  O  O27  1  0.25127100  0.07384700  0.47064700  1
loop_
_geom_bond_atom_site_label_1
_geom_bond_atom_site_label_2
_geom_bond_distance
_geom_bond_site_symmetry_2
Li0 O27 1.934989 1_565
Li0 O1 2.081335 1_555
Li0 O7 2.113954 1_555
Li0 O6 2.208174 1_555
Li1 O25 1.978154 1_564
Li1 O4 2.011731 1_555
Li1 O9 2.159706 1_555
Li1 O8 2.296159 1_555
Li2 O9 2.012241 1_556
Li2 O10 2.071337 1_555
Li2 O1 2.229422 1_555
Li2 O11 2.360827 1_555
Li2 O3 2.514052 1_555
Li3 O4 2.122558 1_555
Li3 O13 2.127842 1_555
Li3 O12 2.225041 1_455
Li3 O6 2.231774 1_555
Li3 O5 2.329465 1_455
Li4 O4 2.096530 1_555
Li4 O13 2.145907 1_555
Li4 O12 2.165671 1_555
Li4 O7 2.319724 1_555
Li4 O5 2.386574 1_555
Li5 O16 2.036726 1_555
Li5 O9 2.056314 1_555
Li5 O5 2.121583 1_555
Li5 O8 2.176805 1_655
Li5 O10 2.227674 1_554
Li5 O2 2.462650 1_555
Li6 O20 2.066131 1_555
Li6 O23 2.139861 1_555
Li6 O14 2.156927 1_555
Li6 O15 2.198212 1_555
Li6 O22 2.441827 1_555
Li7 O21 2.065164 1_555
Li7 O14 2.112349 1_555
Li7 O23 2.133900 1_555
Li7 O15 2.227909 1_655
Li7 O22 2.500003 1_655
Li8 O16 2.078005 1_555
Li8 O26 2.087356 1_555
Li8 O19 2.152660 1_554
Li8 O17 2.181796 1_555
Li8 O24 2.485345 1_555
Li9 O16 2.058657 1_555
Li9 O26 2.097273 1_555
Li9 O18 2.151864 1_554
Li9 O17 2.292727 1_655
Li9 O24 2.459273 1_655
Li10 O2 1.932981 1_546
Li10 O23 2.056916 1_555
Li10 O19 2.107343 1_555
Li10 O18 2.148288 1_555
Li11 O0 1.966751 1_545
Li11 O26 2.043411 1_555
Li11 O20 2.215168 1_555
Li11 O21 2.279571 1_555
Li11 O5 2.578523 1_545
C0 O0 1.289370 1_555
C0 O23 1.290032 1_565
C0 O3 1.319516 1_555
C1 O5 1.288125 1_555
C1 O2 1.309642 1_555
C1 O26 1.315796 1_565
C2 O25 1.293341 1_555
C2 O22 1.295219 1_555
C2 O1 1.308731 1_545
C3 O4 1.294049 1_545
C3 O27 1.302244 1_555
C3 O24 1.303234 1_555
O0 V1 2.250471 1_555
O1 V0 2.195750 1_455
O2 V0 2.540970 1_554
O3 V1 2.188300 1_555
O3 V0 2.219175 1_555
O6 P0 1.550526 1_555
O6 V1 2.115068 1_455
O7 P0 1.550885 1_555
O7 V1 2.108431 1_555
O8 P1 1.557339 1_555
O8 V0 2.111598 1_454
O9 P1 1.550658 1_555
O10 P2 1.547934 1_555
O10 V0 2.156486 1_555
O11 P0 1.582423 1_555
O11 V2 2.217028 1_555
O11 V0 2.323824 1_455
O12 P3 1.549207 1_555
O12 V1 2.122488 1_555
O13 P1 1.564077 1_555
O13 V3 2.176715 1_555
O14 P2 1.566076 1_555
O14 V1 2.192276 1_555
O15 P0 1.546085 1_555
O15 V3 2.172255 1_555
O16 P3 1.547569 1_555
O17 P1 1.549359 1_555
O17 V2 2.128085 1_554
O18 P2 1.553594 1_555
O18 V2 2.112388 1_655
O19 P2 1.552807 1_555
O19 V2 2.110947 1_555
O20 P3 1.561492 1_555
O20 V3 2.118538 1_555
O21 P3 1.559189 1_555
O21 V3 2.116952 1_655
O22 V2 2.207508 1_555
O24 V3 2.199389 1_555
O25 V2 2.250030 1_555
O27 V3 2.230842 1_555
