# generated using pymatgen
data_GeWO4
_symmetry_space_group_name_H-M   'P 1'
_cell_length_a   7.12084600
_cell_length_b   7.67560900
_cell_length_c   14.78709865
_cell_angle_alpha   58.89448051
_cell_angle_beta   90.00000000
_cell_angle_gamma   90.00000000
_symmetry_Int_Tables_number   1
_chemical_formula_structural   GeWO4
_chemical_formula_sum   'Ge8 W8 O32'
_cell_volume   692.00848043
_cell_formula_units_Z   8
loop_
 _symmetry_equiv_pos_site_id
 _symmetry_equiv_pos_as_xyz
  1  'x, y, z'
loop_
 _atom_site_type_symbol
 _atom_site_label
 _atom_site_symmetry_multiplicity
 _atom_site_fract_x
 _atom_site_fract_y
 _atom_site_fract_z
 _atom_site_occupancy
  Ge  Ge0  1  0.03673500  0.59929000  0.81041500  1
  Ge  Ge1  1  0.24156100  0.97719200  0.86875000  1
  Ge  Ge2  1  0.74156100  0.02280800  0.63125000  1
  Ge  Ge3  1  0.53673500  0.40071000  0.68958500  1
  Ge  Ge4  1  0.46326500  0.59929000  0.31041500  1
  Ge  Ge5  1  0.25843900  0.97719200  0.36875000  1
  Ge  Ge6  1  0.75843900  0.02280800  0.13125000  1
  Ge  Ge7  1  0.96326500  0.40071000  0.18958500  1
  W  W0  1  0.82698300  0.99720300  0.92191400  1
  W  W1  1  0.55261700  0.43518200  0.91799700  1
  W  W2  1  0.05261700  0.56481800  0.58200300  1
  W  W3  1  0.32698300  0.00279700  0.57808600  1
  W  W4  1  0.67301700  0.99720300  0.42191400  1
  W  W5  1  0.94738300  0.43518200  0.41799700  1
  W  W6  1  0.44738300  0.56481800  0.08200300  1
  W  W7  1  0.17301700  0.00279700  0.07808600  1
  O  O0  1  0.63801500  0.81164700  0.97903100  1
  O  O1  1  0.72412500  0.19403300  0.97298000  1
  O  O2  1  0.37489300  0.60380900  0.93442800  1
  O  O3  1  0.08085100  0.13447800  0.91828700  1
  O  O4  1  0.98896300  0.86087500  0.87715700  1
  O  O5  1  0.72858800  0.61939900  0.83921600  1
  O  O6  1  0.44296400  0.40981800  0.81111500  1
  O  O7  1  0.71782300  0.17835500  0.79490000  1
  O  O8  1  0.21782300  0.82164500  0.70510000  1
  O  O9  1  0.94296400  0.59018200  0.68888500  1
  O  O10  1  0.22858800  0.38060100  0.66078400  1
  O  O11  1  0.48896300  0.13912500  0.62284300  1
  O  O12  1  0.58085100  0.86552200  0.58171300  1
  O  O13  1  0.22412500  0.80596700  0.52702000  1
  O  O14  1  0.87489300  0.39619100  0.56557200  1
  O  O15  1  0.13801500  0.18835300  0.52096900  1
  O  O16  1  0.86198500  0.81164700  0.47903100  1
  O  O17  1  0.12510700  0.60380900  0.43442800  1
  O  O18  1  0.77587500  0.19403300  0.47298000  1
  O  O19  1  0.41914900  0.13447800  0.41828700  1
  O  O20  1  0.51103700  0.86087500  0.37715700  1
  O  O21  1  0.77141200  0.61939900  0.33921600  1
  O  O22  1  0.05703600  0.40981800  0.31111500  1
  O  O23  1  0.78217700  0.17835500  0.29490000  1
  O  O24  1  0.28217700  0.82164500  0.20510000  1
  O  O25  1  0.55703600  0.59018200  0.18888500  1
  O  O26  1  0.27141200  0.38060100  0.16078400  1
  O  O27  1  0.01103700  0.13912500  0.12284300  1
  O  O28  1  0.91914900  0.86552200  0.08171300  1
  O  O29  1  0.62510700  0.39619100  0.06557200  1
  O  O30  1  0.27587500  0.80596700  0.02702000  1
  O  O31  1  0.36198500  0.18835300  0.02096900  1
loop_
_geom_bond_atom_site_label_1
_geom_bond_atom_site_label_2
_geom_bond_distance
_geom_bond_site_symmetry_2
Ge0 O9 1.951932 1_455
Ge0 O8 2.062686 1_555
Ge0 O5 2.255644 1_455
Ge1 O4 1.983239 1_455
Ge1 O30 2.021433 1_556
Ge1 O3 2.053634 1_565
Ge2 O11 1.983239 1_555
Ge2 O18 2.021433 1_555
Ge2 O12 2.053634 1_545
Ge3 O6 1.951932 1_555
Ge3 O7 2.062686 1_555
Ge3 O10 2.255644 1_555
Ge4 O25 1.951932 1_555
Ge4 O24 2.062686 1_555
Ge4 O21 2.255644 1_555
Ge5 O20 1.983239 1_555
Ge5 O13 2.021433 1_555
Ge5 O19 2.053634 1_565
Ge6 O27 1.983239 1_655
Ge6 O1 2.021433 1_554
Ge6 O28 2.053634 1_545
Ge7 O22 1.951932 1_655
Ge7 O23 2.062686 1_555
Ge7 O26 2.255644 1_655
O0 W0 1.819237 1_555
O0 W6 2.184014 1_556
O1 W1 2.005921 1_555
O1 W0 2.137262 1_545
O2 W1 1.913326 1_555
O2 W6 2.107902 1_556
O3 W0 2.079107 1_445
O3 W7 2.137338 1_556
O4 W0 1.891806 1_555
O5 W1 1.795730 1_555
O6 W1 1.861022 1_555
O7 W0 1.834884 1_545
O8 W3 1.834884 1_565
O9 W2 1.861022 1_655
O10 W2 1.795730 1_555
O11 W3 1.891806 1_555
O12 W3 2.079107 1_565
O12 W4 2.137338 1_555
O13 W2 2.005921 1_555
O13 W3 2.137262 1_565
O14 W2 1.913326 1_655
O14 W5 2.107902 1_555
O15 W3 1.819237 1_555
O15 W5 2.184014 1_455
O16 W4 1.819237 1_555
O16 W2 2.184014 1_655
O17 W5 1.913326 1_455
O17 W2 2.107902 1_555
O18 W5 2.005921 1_555
O18 W4 2.137262 1_545
O19 W4 2.079107 1_545
O19 W3 2.137338 1_555
O20 W4 1.891806 1_555
O21 W5 1.795730 1_555
O22 W5 1.861022 1_455
O23 W4 1.834884 1_545
O24 W7 1.834884 1_565
O25 W6 1.861022 1_555
O26 W6 1.795730 1_555
O27 W7 1.891806 1_555
O28 W7 2.079107 1_665
O28 W0 2.137338 1_554
O29 W6 1.913326 1_555
O29 W1 2.107902 1_554
O30 W6 2.005921 1_555
O30 W7 2.137262 1_565
O31 W7 1.819237 1_555
O31 W1 2.184014 1_554
