# generated using pymatgen
data_LiCoSiO4
_symmetry_space_group_name_H-M   'P 1'
_cell_length_a   5.08464248
_cell_length_b   5.08464248
_cell_length_c   8.57161215
_cell_angle_alpha   75.76458096
_cell_angle_beta   75.76458096
_cell_angle_gamma   65.32781516
_symmetry_Int_Tables_number   1
_chemical_formula_structural   LiCoSiO4
_chemical_formula_sum   'Li2 Co2 Si2 O8'
_cell_volume   192.59402158
_cell_formula_units_Z   2
loop_
 _symmetry_equiv_pos_site_id
 _symmetry_equiv_pos_as_xyz
  1  'x, y, z'
loop_
 _atom_site_type_symbol
 _atom_site_label
 _atom_site_symmetry_multiplicity
 _atom_site_fract_x
 _atom_site_fract_y
 _atom_site_fract_z
 _atom_site_occupancy
  Li  Li0  1  0.70902500  0.82508200  0.53779700  1
  Li  Li1  1  0.82508200  0.70902500  0.03779700  1
  Co  Co0  1  0.32729000  0.89715100  0.86068800  1
  Co  Co1  1  0.89715100  0.32729000  0.36068800  1
  Si  Si0  1  0.72658500  0.25638900  0.74480100  1
  Si  Si1  1  0.25638900  0.72658500  0.24480100  1
  O  O0  1  0.03349500  0.22778100  0.78896100  1
  O  O1  1  0.61007100  0.02583600  0.88628100  1
  O  O2  1  0.51912000  0.61051100  0.72786700  1
  O  O3  1  0.75909200  0.16071700  0.56855600  1
  O  O4  1  0.22778100  0.03349500  0.28896100  1
  O  O5  1  0.02583600  0.61007100  0.38628100  1
  O  O6  1  0.61051100  0.51912000  0.22786700  1
  O  O7  1  0.16071700  0.75909200  0.06855600  1
loop_
_geom_bond_atom_site_label_1
_geom_bond_atom_site_label_2
_geom_bond_distance
_geom_bond_site_symmetry_2
Li0 O3 1.914093 1_565
Li0 O5 1.917278 1_655
Li0 O2 2.002154 1_555
Li1 O7 1.914093 1_655
Li1 O1 1.917278 1_564
Li1 O6 2.002154 1_555
Co0 O0 1.811778 1_565
Co0 O2 1.858721 1_555
Co0 O7 1.877189 1_556
Co0 O1 1.885417 1_565
Co1 O4 1.811778 1_655
Co1 O6 1.858721 1_555
Co1 O3 1.877189 1_555
Co1 O5 1.885417 1_655
O0 Si0 1.635117 1_455
O1 Si0 1.650201 1_555
O2 Si0 1.654387 1_555
O3 Si0 1.648541 1_555
O4 Si1 1.635117 1_545
O5 Si1 1.650201 1_555
O6 Si1 1.654387 1_555
O7 Si1 1.648541 1_555
