# generated using pymatgen
data_Mn3V3(TeO8)2
_symmetry_space_group_name_H-M   'P 1'
_cell_length_a   5.93304200
_cell_length_b   5.94413536
_cell_length_c   10.53962651
_cell_angle_alpha   89.41087317
_cell_angle_beta   89.67990254
_cell_angle_gamma   60.89551374
_symmetry_Int_Tables_number   1
_chemical_formula_structural   Mn3V3(TeO8)2
_chemical_formula_sum   'Mn3 V3 Te2 O16'
_cell_volume   324.74882216
_cell_formula_units_Z   1
loop_
 _symmetry_equiv_pos_site_id
 _symmetry_equiv_pos_as_xyz
  1  'x, y, z'
loop_
 _atom_site_type_symbol
 _atom_site_label
 _atom_site_symmetry_multiplicity
 _atom_site_fract_x
 _atom_site_fract_y
 _atom_site_fract_z
 _atom_site_occupancy
  Mn  Mn0  1  0.81811100  0.33792900  0.20244300  1
  Mn  Mn1  1  0.66917400  0.16275600  0.71161900  1
  Mn  Mn2  1  0.17228600  0.16401300  0.71073100  1
  V  V0  1  0.87979400  0.79246300  0.20173400  1
  V  V1  1  0.34992400  0.84751800  0.23721500  1
  V  V2  1  0.18096000  0.64645300  0.73596600  1
  Te  Te0  1  0.66679400  0.67188600  0.51939800  1
  Te  Te1  1  0.36316400  0.27010400  0.99387600  1
  O  O0  1  0.83827800  0.82684300  0.60997200  1
  O  O1  1  0.48715400  0.98645300  0.32353800  1
  O  O2  1  0.65686300  0.67796400  0.12163600  1
  O  O3  1  0.98964000  0.00653600  0.29273900  1
  O  O4  1  0.00175100  0.99775600  0.79324600  1
  O  O5  1  0.33954200  0.83011000  0.60986400  1
  O  O6  1  0.96909200  0.52845800  0.30340200  1
  O  O7  1  0.47226300  0.55438200  0.31459600  1
  O  O8  1  0.14187700  0.68966700  0.10798300  1
  O  O9  1  0.82980800  0.34493900  0.60576300  1
  O  O10  1  0.46408800  0.51775600  0.81942600  1
  O  O11  1  0.02742000  0.50830200  0.81993100  1
  O  O12  1  0.33712100  0.33591500  0.62773400  1
  O  O13  1  0.66947700  0.13810000  0.10460900  1
  O  O14  1  0.48504100  0.03557900  0.85089700  1
  O  O15  1  0.19057600  0.12811900  0.09740300  1
loop_
_geom_bond_atom_site_label_1
_geom_bond_atom_site_label_2
_geom_bond_distance
_geom_bond_site_symmetry_2
Mn0 O2 1.954104 1_555
Mn0 O3 1.960556 1_555
Mn0 O6 2.059035 1_555
Mn0 O13 2.075122 1_555
Mn0 O7 2.167710 1_555
Mn0 O15 2.232585 1_655
Mn1 O4 1.927314 1_645
Mn1 O12 1.936603 1_555
Mn1 O0 2.055323 1_545
Mn1 O9 2.071968 1_555
Mn1 O14 2.163901 1_555
Mn1 O10 2.181854 1_555
Mn2 O4 1.924037 1_545
Mn2 O12 1.926113 1_555
Mn2 O5 2.042011 1_545
Mn2 O9 2.093833 1_455
Mn2 O11 2.139576 1_555
Mn2 O14 2.199497 1_555
O0 Te0 1.932724 1_555
O0 V2 2.219669 1_655
O1 V1 1.688352 1_555
O1 V0 2.405903 1_555
O2 V0 1.955845 1_555
O2 V1 2.007736 1_555
O3 V0 1.950067 1_545
O3 V1 1.958828 1_645
O4 V2 1.927270 1_555
O5 Te0 1.945458 1_555
O5 V2 2.190623 1_555
O6 V0 1.747712 1_555
O7 V1 1.724859 1_555
O8 V0 1.684794 1_455
O8 V1 2.330441 1_555
O8 Te1 2.499715 1_554
O9 Te0 1.919846 1_555
O10 V2 1.712691 1_555
O10 Te1 2.587600 1_555
O11 V2 1.729487 1_555
O11 Te1 2.564658 1_555
O12 V2 1.983612 1_555
O13 Te1 1.974395 1_554
O13 V0 2.074376 1_545
O14 Te1 1.946157 1_555
O15 Te1 1.939248 1_554
O15 V1 2.068385 1_545
