# generated using pymatgen
data_Na4Bi2C4SO16
_symmetry_space_group_name_H-M   'P 1'
_cell_length_a   10.44563978
_cell_length_b   10.31829318
_cell_length_c   10.30570760
_cell_angle_alpha   60.85923192
_cell_angle_beta   59.62990846
_cell_angle_gamma   59.51085962
_symmetry_Int_Tables_number   1
_chemical_formula_structural   Na4Bi2C4SO16
_chemical_formula_sum   'Na8 Bi4 C8 S2 O32'
_cell_volume   785.15788874
_cell_formula_units_Z   2
loop_
 _symmetry_equiv_pos_site_id
 _symmetry_equiv_pos_as_xyz
  1  'x, y, z'
loop_
 _atom_site_type_symbol
 _atom_site_label
 _atom_site_symmetry_multiplicity
 _atom_site_fract_x
 _atom_site_fract_y
 _atom_site_fract_z
 _atom_site_occupancy
  Na  Na0  1  0.20439700  0.79560300  0.20439700  1
  Na  Na1  1  0.79539200  0.79539200  0.20460800  1
  Na  Na2  1  0.79672300  0.20327700  0.20327700  1
  Na  Na3  1  0.20327700  0.79672300  0.79672300  1
  Na  Na4  1  0.05763900  0.44236100  0.44236100  1
  Na  Na5  1  0.79560300  0.20439700  0.79560300  1
  Na  Na6  1  0.20460800  0.20460800  0.79539200  1
  Na  Na7  1  0.44236100  0.05763900  0.05763900  1
  Bi  Bi0  1  0.61567600  0.62854200  0.62993300  1
  Bi  Bi1  1  0.12584900  0.62993300  0.62854200  1
  Bi  Bi2  1  0.62993300  0.12584900  0.61567600  1
  Bi  Bi3  1  0.62854200  0.61567600  0.12584900  1
  C  C0  1  0.40362900  0.78703800  0.40382500  1
  C  C1  1  0.85263000  0.84122500  0.45184600  1
  C  C2  1  0.45184700  0.85429900  0.85263000  1
  C  C3  1  0.84122500  0.85263000  0.85429900  1
  C  C4  1  0.78703800  0.40362900  0.40550700  1
  C  C5  1  0.40382500  0.40550700  0.40362900  1
  C  C6  1  0.40550700  0.40382500  0.78703800  1
  C  C7  1  0.85429900  0.45184700  0.84122500  1
  S  S0  1  0.25000000  0.25000000  0.25000000  1
  S  S1  1  0.00000000  0.00000000  0.00000000  1
  O  O0  1  0.52416500  0.79609500  0.27160300  1
  O  O1  1  0.98616500  0.72265000  0.45151800  1
  O  O2  1  0.28036400  0.78152600  0.40817200  1
  O  O3  1  0.73705700  0.82570000  0.45243900  1
  O  O4  1  0.40822200  0.77963900  0.53073500  1
  O  O5  1  0.19527700  0.18839300  0.18870600  1
  O  O6  1  0.42762300  0.18870600  0.18839300  1
  O  O7  1  0.83888000  0.97560100  0.44737300  1
  O  O8  1  0.44737300  0.73814600  0.83888000  1
  O  O9  1  0.97560100  0.83888000  0.73814600  1
  O  O10  1  0.18870600  0.42762300  0.19527700  1
  O  O11  1  0.18839300  0.19527700  0.42762300  1
  O  O12  1  0.53073500  0.28140500  0.40822200  1
  O  O13  1  0.77963900  0.40822200  0.28140500  1
  O  O14  1  0.82570000  0.73705700  0.98480300  1
  O  O15  1  0.45243900  0.98480300  0.73705700  1
  O  O16  1  0.78152600  0.28036400  0.52993900  1
  O  O17  1  0.40817200  0.52993900  0.28036400  1
  O  O18  1  0.72265000  0.98616500  0.83966700  1
  O  O19  1  0.45151800  0.83966700  0.98616500  1
  O  O20  1  0.05973800  0.05746000  0.82304200  1
  O  O21  1  0.05976100  0.82304200  0.05746000  1
  O  O22  1  0.79609500  0.52416500  0.40813600  1
  O  O23  1  0.27160300  0.40813600  0.52416500  1
  O  O24  1  0.40813600  0.27160300  0.79609500  1
  O  O25  1  0.05746000  0.05973800  0.05976100  1
  O  O26  1  0.82304200  0.05976100  0.05973800  1
  O  O27  1  0.83966700  0.45151800  0.72265000  1
  O  O28  1  0.52993900  0.40817200  0.78152600  1
  O  O29  1  0.98480300  0.45243900  0.82570000  1
  O  O30  1  0.28140500  0.53073500  0.77963900  1
  O  O31  1  0.73814600  0.44737300  0.97560100  1
loop_
_geom_bond_atom_site_label_1
_geom_bond_atom_site_label_2
_geom_bond_distance
_geom_bond_site_symmetry_2
Na0 O21 2.473369 1_555
Na0 O25 2.473374 1_565
Na0 O19 2.500581 1_554
Na0 O1 2.500581 1_455
Na0 O17 2.516337 1_555
Na0 O2 2.516342 1_555
Na1 O3 2.450147 1_555
Na1 O14 2.450157 1_554
Na1 O26 2.480039 1_565
Na1 O21 2.480039 1_655
Na1 O22 2.551373 1_555
Na1 O0 2.551376 1_555
Na2 O26 2.401207 1_555
Na2 O25 2.401212 1_655
Na2 O12 2.506395 1_555
Na2 O13 2.506400 1_555
Na2 O31 2.521069 1_554
Na2 O7 2.521069 1_545
Na3 O21 2.401216 1_556
Na3 O20 2.401216 1_565
Na3 O30 2.506390 1_555
Na3 O4 2.506393 1_555
Na3 O9 2.521069 1_455
Na3 O8 2.521069 1_555
Na4 O10 2.241043 1_555
Na4 O11 2.241043 1_555
Na4 O23 2.577791 1_555
Na4 O22 2.577801 1_455
Na4 O27 2.633261 1_455
Na4 O1 2.633261 1_455
Na5 O26 2.473378 1_556
Na5 O20 2.473378 1_655
Na5 O27 2.500581 1_555
Na5 O18 2.500581 1_545
Na5 O16 2.516332 1_555
Na5 O28 2.516335 1_555
Na6 O29 2.450151 1_455
Na6 O15 2.450152 1_545
Na6 O20 2.480030 1_555
Na6 O25 2.480035 1_556
Na6 O24 2.551366 1_555
Na6 O23 2.551372 1_555
Na7 O6 2.241034 1_555
Na7 O5 2.241039 1_555
Na7 O0 2.577795 1_545
Na7 O24 2.577798 1_554
Na7 O19 2.633261 1_544
Na7 O18 2.633261 1_544
Bi0 O4 2.330478 1_555
Bi0 O8 2.352204 1_555
Bi0 O28 2.367509 1_555
Bi0 O3 2.395865 1_555
Bi0 O22 2.432781 1_555
Bi0 O27 2.438814 1_555
Bi1 O30 2.330486 1_555
Bi1 O9 2.352204 1_455
Bi1 O2 2.367515 1_555
Bi1 O29 2.395871 1_455
Bi1 O23 2.432782 1_555
Bi1 O1 2.438814 1_455
Bi2 O12 2.330478 1_555
Bi2 O7 2.352204 1_545
Bi2 O16 2.367518 1_555
Bi2 O15 2.395873 1_545
Bi2 O24 2.432776 1_555
Bi2 O18 2.438814 1_545
Bi3 O13 2.330484 1_555
Bi3 O31 2.352204 1_554
Bi3 O17 2.367509 1_555
Bi3 O14 2.395864 1_554
Bi3 O0 2.432773 1_555
Bi3 O19 2.438814 1_554
C0 O2 1.294840 1_555
C0 O4 1.296615 1_555
C0 O0 1.308185 1_555
C1 O3 1.292648 1_555
C1 O7 1.299072 1_555
C1 O1 1.307694 1_555
C2 O15 1.292642 1_555
C2 O8 1.299077 1_555
C2 O19 1.307689 1_555
C3 O14 1.292643 1_555
C3 O9 1.299072 1_555
C3 O18 1.307694 1_555
C4 O16 1.294850 1_555
C4 O13 1.296595 1_555
C4 O22 1.308185 1_555
C5 O17 1.294851 1_555
C5 O12 1.296606 1_555
C5 O23 1.308185 1_555
C6 O28 1.294861 1_555
C6 O30 1.296605 1_555
C6 O24 1.308185 1_555
C7 O29 1.292633 1_555
C7 O31 1.299072 1_555
C7 O27 1.307699 1_555
O5 S0 1.501584 1_555
O6 S0 1.501576 1_555
O10 S0 1.501576 1_555
O11 S0 1.501576 1_555
O20 S1 1.496127 1_556
O21 S1 1.496127 1_565
O25 S1 1.496136 1_555
O26 S1 1.496127 1_655
