# generated using pymatgen
data_CsMnH24(SO10)2
_symmetry_space_group_name_H-M   'P 1'
_cell_length_a   12.37209200
_cell_length_b   12.42967700
_cell_length_c   12.53830700
_cell_angle_alpha   90.00000000
_cell_angle_beta   90.00000000
_cell_angle_gamma   90.00000000
_symmetry_Int_Tables_number   1
_chemical_formula_structural   CsMnH24(SO10)2
_chemical_formula_sum   'Cs4 Mn4 H96 S8 O80'
_cell_volume   1928.15473506
_cell_formula_units_Z   4
loop_
 _symmetry_equiv_pos_site_id
 _symmetry_equiv_pos_as_xyz
  1  'x, y, z'
loop_
 _atom_site_type_symbol
 _atom_site_label
 _atom_site_symmetry_multiplicity
 _atom_site_fract_x
 _atom_site_fract_y
 _atom_site_fract_z
 _atom_site_occupancy
  Cs  Cs0  1  0.00000000  0.00000000  0.50000000  1
  Cs  Cs1  1  0.00000000  0.50000000  0.00000000  1
  Cs  Cs2  1  0.50000000  0.00000000  0.00000000  1
  Cs  Cs3  1  0.50000000  0.50000000  0.50000000  1
  Mn  Mn0  1  0.50000000  0.50000000  0.00000000  1
  Mn  Mn1  1  0.50000000  0.00000000  0.50000000  1
  Mn  Mn2  1  0.00000000  0.50000000  0.50000000  1
  Mn  Mn3  1  0.00000000  0.00000000  0.00000000  1
  H  H0  1  0.22934100  0.51489600  0.22738100  1
  H  H1  1  0.77065900  0.01489600  0.27261900  1
  H  H2  1  0.27065900  0.48510400  0.72738100  1
  H  H3  1  0.72934100  0.98510400  0.77261900  1
  H  H4  1  0.77065900  0.48510400  0.77261900  1
  H  H5  1  0.22934100  0.98510400  0.72738100  1
  H  H6  1  0.72934100  0.51489600  0.27261900  1
  H  H7  1  0.27065900  0.01489600  0.22738100  1
  H  H8  1  0.19169500  0.63340100  0.21468700  1
  H  H9  1  0.80830500  0.13340100  0.28531300  1
  H  H10  1  0.30830500  0.36659900  0.71468700  1
  H  H11  1  0.69169500  0.86659900  0.78531300  1
  H  H12  1  0.80830500  0.36659900  0.78531300  1
  H  H13  1  0.19169500  0.86659900  0.71468700  1
  H  H14  1  0.69169500  0.63340100  0.28531300  1
  H  H15  1  0.30830500  0.13340100  0.21468700  1
  H  H16  1  0.26908100  0.78507700  0.01176200  1
  H  H17  1  0.73091900  0.28507700  0.48823800  1
  H  H18  1  0.23091900  0.21492300  0.51176200  1
  H  H19  1  0.76908100  0.71492300  0.98823800  1
  H  H20  1  0.73091900  0.21492300  0.98823800  1
  H  H21  1  0.26908100  0.71492300  0.51176200  1
  H  H22  1  0.76908100  0.78507700  0.48823800  1
  H  H23  1  0.23091900  0.28507700  0.01176200  1
  H  H24  1  0.27928900  0.82592800  0.12946800  1
  H  H25  1  0.72071100  0.32592800  0.37053200  1
  H  H26  1  0.22071100  0.17407200  0.62946800  1
  H  H27  1  0.77928900  0.67407200  0.87053200  1
  H  H28  1  0.72071100  0.17407200  0.87053200  1
  H  H29  1  0.27928900  0.67407200  0.62946800  1
  H  H30  1  0.77928900  0.82592800  0.37053200  1
  H  H31  1  0.22071100  0.32592800  0.12946800  1
  H  H32  1  0.49948800  0.73232200  0.27978500  1
  H  H33  1  0.50051200  0.23232200  0.22021500  1
  H  H34  1  0.00051200  0.26767800  0.77978500  1
  H  H35  1  0.99948800  0.76767800  0.72021500  1
  H  H36  1  0.50051200  0.26767800  0.72021500  1
  H  H37  1  0.49948800  0.76767800  0.77978500  1
  H  H38  1  0.99948800  0.73232200  0.22021500  1
  H  H39  1  0.00051200  0.23232200  0.27978500  1
  H  H40  1  0.37986000  0.72921500  0.31893000  1
  H  H41  1  0.62014000  0.22921500  0.18107000  1
  H  H42  1  0.12014000  0.27078500  0.81893000  1
  H  H43  1  0.87986000  0.77078500  0.68107000  1
  H  H44  1  0.62014000  0.27078500  0.68107000  1
  H  H45  1  0.37986000  0.77078500  0.81893000  1
  H  H46  1  0.87986000  0.72921500  0.18107000  1
  H  H47  1  0.12014000  0.22921500  0.31893000  1
  H  H48  1  0.48355900  0.70423200  0.93326200  1
  H  H49  1  0.51644100  0.20423200  0.56673800  1
  H  H50  1  0.01644100  0.29576800  0.43326200  1
  H  H51  1  0.98355900  0.79576800  0.06673800  1
  H  H52  1  0.51644100  0.29576800  0.06673800  1
  H  H53  1  0.48355900  0.79576800  0.43326200  1
  H  H54  1  0.98355900  0.70423200  0.56673800  1
  H  H55  1  0.01644100  0.20423200  0.93326200  1
  H  H56  1  0.53002000  0.69968000  0.06026900  1
  H  H57  1  0.46998000  0.19968000  0.43973100  1
  H  H58  1  0.96998000  0.30032000  0.56026900  1
  H  H59  1  0.03002000  0.80032000  0.93973100  1
  H  H60  1  0.46998000  0.30032000  0.93973100  1
  H  H61  1  0.53002000  0.80032000  0.56026900  1
  H  H62  1  0.03002000  0.69968000  0.43973100  1
  H  H63  1  0.96998000  0.19968000  0.06026900  1
  H  H64  1  0.56782000  0.52417900  0.21766800  1
  H  H65  1  0.43218000  0.02417900  0.28233200  1
  H  H66  1  0.93218000  0.47582100  0.71766800  1
  H  H67  1  0.06782000  0.97582100  0.78233200  1
  H  H68  1  0.43218000  0.47582100  0.78233200  1
  H  H69  1  0.56782000  0.97582100  0.71766800  1
  H  H70  1  0.06782000  0.52417900  0.28233200  1
  H  H71  1  0.93218000  0.02417900  0.21766800  1
  H  H72  1  0.44475400  0.47848800  0.21604700  1
  H  H73  1  0.55524600  0.97848800  0.28395300  1
  H  H74  1  0.05524600  0.52151200  0.71604700  1
  H  H75  1  0.94475400  0.02151200  0.78395300  1
  H  H76  1  0.55524600  0.52151200  0.78395300  1
  H  H77  1  0.44475400  0.02151200  0.71604700  1
  H  H78  1  0.94475400  0.47848800  0.28395300  1
  H  H79  1  0.05524600  0.97848800  0.21604700  1
  H  H80  1  0.29379900  0.43978300  0.02587300  1
  H  H81  1  0.70620100  0.93978300  0.47412700  1
  H  H82  1  0.20620100  0.56021700  0.52587300  1
  H  H83  1  0.79379900  0.06021700  0.97412700  1
  H  H84  1  0.70620100  0.56021700  0.97412700  1
  H  H85  1  0.29379900  0.06021700  0.52587300  1
  H  H86  1  0.79379900  0.43978300  0.47412700  1
  H  H87  1  0.20620100  0.93978300  0.02587300  1
  H  H88  1  0.30041100  0.56736700  0.98073600  1
  H  H89  1  0.69958900  0.06736700  0.51926400  1
  H  H90  1  0.19958900  0.43263300  0.48073600  1
  H  H91  1  0.80041100  0.93263300  0.01926400  1
  H  H92  1  0.69958900  0.43263300  0.01926400  1
  H  H93  1  0.30041100  0.93263300  0.48073600  1
  H  H94  1  0.80041100  0.56736700  0.51926400  1
  H  H95  1  0.19958900  0.06736700  0.98073600  1
  S  S0  1  0.17766500  0.82759800  0.33332400  1
  S  S1  1  0.82233500  0.32759800  0.16667600  1
  S  S2  1  0.32233500  0.17240200  0.83332400  1
  S  S3  1  0.67766500  0.67240200  0.66667600  1
  S  S4  1  0.82233500  0.17240200  0.66667600  1
  S  S5  1  0.17766500  0.67240200  0.83332400  1
  S  S6  1  0.67766500  0.82759800  0.16667600  1
  S  S7  1  0.32233500  0.32759800  0.33332400  1
  O  O0  1  0.24992600  0.76547100  0.25930100  1
  O  O1  1  0.75007400  0.26547100  0.24069900  1
  O  O2  1  0.25007400  0.23452900  0.75930100  1
  O  O3  1  0.74992600  0.73452900  0.74069900  1
  O  O4  1  0.75007400  0.23452900  0.74069900  1
  O  O5  1  0.24992600  0.73452900  0.75930100  1
  O  O6  1  0.74992600  0.76547100  0.24069900  1
  O  O7  1  0.25007400  0.26547100  0.25930100  1
  O  O8  1  0.06969200  0.77387900  0.33952600  1
  O  O9  1  0.93030800  0.27387900  0.16047400  1
  O  O10  1  0.43030800  0.22612100  0.83952600  1
  O  O11  1  0.56969200  0.72612100  0.66047400  1
  O  O12  1  0.93030800  0.22612100  0.66047400  1
  O  O13  1  0.06969200  0.72612100  0.83952600  1
  O  O14  1  0.56969200  0.77387900  0.16047400  1
  O  O15  1  0.43030800  0.27387900  0.33952600  1
  O  O16  1  0.16392500  0.93974300  0.29366000  1
  O  O17  1  0.83607500  0.43974300  0.20634000  1
  O  O18  1  0.33607500  0.06025700  0.79366000  1
  O  O19  1  0.66392500  0.56025700  0.70634000  1
  O  O20  1  0.83607500  0.06025700  0.70634000  1
  O  O21  1  0.16392500  0.56025700  0.79366000  1
  O  O22  1  0.66392500  0.93974300  0.20634000  1
  O  O23  1  0.33607500  0.43974300  0.29366000  1
  O  O24  1  0.22686000  0.83040000  0.44224300  1
  O  O25  1  0.77314000  0.33040000  0.05775700  1
  O  O26  1  0.27314000  0.16960000  0.94224300  1
  O  O27  1  0.72686000  0.66960000  0.55775700  1
  O  O28  1  0.77314000  0.16960000  0.55775700  1
  O  O29  1  0.22686000  0.66960000  0.94224300  1
  O  O30  1  0.72686000  0.83040000  0.05775700  1
  O  O31  1  0.27314000  0.33040000  0.44224300  1
  O  O32  1  0.16867300  0.55886000  0.20030800  1
  O  O33  1  0.83132700  0.05886000  0.29969200  1
  O  O34  1  0.33132700  0.44114000  0.70030800  1
  O  O35  1  0.66867300  0.94114000  0.79969200  1
  O  O36  1  0.83132700  0.44114000  0.79969200  1
  O  O37  1  0.16867300  0.94114000  0.70030800  1
  O  O38  1  0.66867300  0.55886000  0.29969200  1
  O  O39  1  0.33132700  0.05886000  0.20030800  1
  O  O40  1  0.28787200  0.84968400  0.05471200  1
  O  O41  1  0.71212800  0.34968400  0.44528800  1
  O  O42  1  0.21212800  0.15031600  0.55471200  1
  O  O43  1  0.78787200  0.65031600  0.94528800  1
  O  O44  1  0.71212800  0.15031600  0.94528800  1
  O  O45  1  0.28787200  0.65031600  0.55471200  1
  O  O46  1  0.78787200  0.84968400  0.44528800  1
  O  O47  1  0.21212800  0.34968400  0.05471200  1
  O  O48  1  0.45477800  0.71608900  0.34344100  1
  O  O49  1  0.54522200  0.21608900  0.15655900  1
  O  O50  1  0.04522200  0.28391100  0.84344100  1
  O  O51  1  0.95477800  0.78391100  0.65655900  1
  O  O52  1  0.54522200  0.28391100  0.65655900  1
  O  O53  1  0.45477800  0.78391100  0.84344100  1
  O  O54  1  0.95477800  0.71608900  0.15655900  1
  O  O55  1  0.04522200  0.21608900  0.34344100  1
  O  O56  1  0.50450600  0.65681700  0.99732700  1
  O  O57  1  0.49549400  0.15681700  0.50267300  1
  O  O58  1  0.99549400  0.34318300  0.49732700  1
  O  O59  1  0.00450600  0.84318300  0.00267300  1
  O  O60  1  0.49549400  0.34318300  0.00267300  1
  O  O61  1  0.50450600  0.84318300  0.49732700  1
  O  O62  1  0.00450600  0.65681700  0.50267300  1
  O  O63  1  0.99549400  0.15681700  0.99732700  1
  O  O64  1  0.50699400  0.49880700  0.17095100  1
  O  O65  1  0.49300600  0.99880700  0.32904900  1
  O  O66  1  0.99300600  0.50119300  0.67095100  1
  O  O67  1  0.00699400  0.00119300  0.82904900  1
  O  O68  1  0.49300600  0.50119300  0.82904900  1
  O  O69  1  0.50699400  0.00119300  0.67095100  1
  O  O70  1  0.00699400  0.49880700  0.32904900  1
  O  O71  1  0.99300600  0.99880700  0.17095100  1
  O  O72  1  0.34275600  0.50262200  0.00378500  1
  O  O73  1  0.65724400  0.00262200  0.49621500  1
  O  O74  1  0.15724400  0.49737800  0.50378500  1
  O  O75  1  0.84275600  0.99737800  0.99621500  1
  O  O76  1  0.65724400  0.49737800  0.99621500  1
  O  O77  1  0.34275600  0.99737800  0.50378500  1
  O  O78  1  0.84275600  0.50262200  0.49621500  1
  O  O79  1  0.15724400  0.00262200  0.00378500  1
loop_
_geom_bond_atom_site_label_1
_geom_bond_atom_site_label_2
_geom_bond_distance
_geom_bond_site_symmetry_2
Cs0 O42 3.293821 1_555
Cs0 O46 3.293821 1_445
Cs0 O37 3.346326 1_545
Cs0 O33 3.346326 1_455
Cs0 O16 3.371572 1_545
Cs0 O20 3.371572 1_455
Cs0 O55 3.373498 1_555
Cs0 O51 3.373498 1_445
Cs0 O8 3.562502 1_545
Cs0 O12 3.562502 1_455
Cs0 O24 3.584153 1_545
Cs0 O28 3.584153 1_455
Cs1 O47 3.293821 1_555
Cs1 O43 3.293821 1_454
Cs1 O32 3.346326 1_555
Cs1 O36 3.346326 1_454
Cs1 O21 3.371572 1_554
Cs1 O17 3.371572 1_455
Cs1 O54 3.373498 1_455
Cs1 O50 3.373498 1_554
Cs1 O13 3.562502 1_554
Cs1 O9 3.562502 1_455
Cs1 O25 3.584153 1_455
Cs1 O29 3.584153 1_554
Cs2 O44 3.293821 1_554
Cs2 O40 3.293821 1_545
Cs2 O39 3.346326 1_555
Cs2 O35 3.346326 1_544
Cs2 O22 3.371572 1_545
Cs2 O18 3.371572 1_554
Cs2 O49 3.373498 1_555
Cs2 O53 3.373498 1_544
Cs2 O14 3.562502 1_545
Cs2 O10 3.562502 1_554
Cs2 O30 3.584153 1_545
Cs2 O26 3.584153 1_554
Cs3 O41 3.293821 1_555
Cs3 O45 3.293821 1_555
Cs3 O34 3.346326 1_555
Cs3 O38 3.346326 1_555
Cs3 O19 3.371572 1_555
Cs3 O23 3.371572 1_555
Cs3 O48 3.373498 1_555
Cs3 O52 3.373498 1_555
Cs3 O11 3.562502 1_555
Cs3 O15 3.562502 1_555
Cs3 O31 3.584153 1_555
Cs3 O27 3.584153 1_555
Mn0 O76 1.946289 1_554
Mn0 O72 1.946289 1_555
Mn0 O56 1.950270 1_554
Mn0 O60 1.950270 1_555
Mn0 O64 2.145233 1_555
Mn0 O68 2.145233 1_554
Mn1 O73 1.946289 1_555
Mn1 O77 1.946289 1_545
Mn1 O57 1.950270 1_555
Mn1 O61 1.950270 1_545
Mn1 O69 2.145233 1_555
Mn1 O65 2.145233 1_545
Mn2 O74 1.946289 1_555
Mn2 O78 1.946289 1_455
Mn2 O62 1.950270 1_555
Mn2 O58 1.950270 1_455
Mn2 O66 2.145233 1_455
Mn2 O70 2.145233 1_555
Mn3 O79 1.946289 1_555
Mn3 O75 1.946289 1_444
Mn3 O63 1.950270 1_454
Mn3 O59 1.950270 1_545
Mn3 O71 2.145233 1_445
Mn3 O67 2.145233 1_554
H0 O32 0.988549 1_555
H1 O33 0.988549 1_555
H2 O34 0.988549 1_555
H3 O35 0.988549 1_555
H4 O36 0.988549 1_555
H5 O37 0.988549 1_555
H6 O38 0.988549 1_555
H7 O39 0.988549 1_555
H8 O32 0.985937 1_555
H9 O33 0.985937 1_555
H10 O34 0.985937 1_555
H11 O35 0.985937 1_555
H12 O36 0.985937 1_555
H13 O37 0.985937 1_555
H14 O38 0.985937 1_555
H15 O39 0.985937 1_555
H16 O40 0.994451 1_555
H17 O41 0.994451 1_555
H18 O42 0.994451 1_555
H19 O43 0.994451 1_555
H20 O44 0.994451 1_555
H21 O45 0.994451 1_555
H22 O46 0.994451 1_555
H23 O47 0.994451 1_555
H24 O40 0.988445 1_555
H25 O41 0.988445 1_555
H26 O42 0.988445 1_555
H27 O43 0.988445 1_555
H28 O44 0.988445 1_555
H29 O45 0.988445 1_555
H30 O46 0.988445 1_555
H31 O47 0.988445 1_555
H32 O48 0.991826 1_555
H33 O49 0.991826 1_555
H34 O50 0.991826 1_555
H35 O51 0.991826 1_555
H36 O52 0.991826 1_555
H37 O53 0.991826 1_555
H38 O54 0.991826 1_555
H39 O55 0.991826 1_555
H40 O48 0.990049 1_555
H41 O49 0.990049 1_555
H42 O50 0.990049 1_555
H43 O51 0.990049 1_555
H44 O52 0.990049 1_555
H45 O53 0.990049 1_555
H46 O54 0.990049 1_555
H47 O55 0.990049 1_555
H48 O56 1.029435 1_555
H48 O53 1.541424 1_555
H49 O57 1.029435 1_555
H49 O52 1.541424 1_555
H50 O58 1.029435 1_455
H50 O55 1.541424 1_555
H51 O59 1.029435 1_655
H51 O54 1.541424 1_555
H52 O60 1.029435 1_555
H52 O49 1.541424 1_555
H53 O61 1.029435 1_555
H53 O48 1.541424 1_555
H54 O62 1.029435 1_655
H54 O51 1.541424 1_555
H55 O63 1.029435 1_455
H55 O50 1.541424 1_555
H56 O56 1.003147 1_554
H56 O14 1.634024 1_555
H57 O57 1.003147 1_555
H57 O15 1.634024 1_555
H58 O58 1.003147 1_555
H58 O12 1.634024 1_555
H59 O59 1.003147 1_556
H59 O13 1.634024 1_555
H60 O60 1.003147 1_556
H60 O10 1.634024 1_555
H61 O61 1.003147 1_555
H61 O11 1.634024 1_555
H62 O62 1.003147 1_555
H62 O8 1.634024 1_555
H63 O63 1.003147 1_554
H63 O9 1.634024 1_555
H64 O64 1.004433 1_555
H65 O65 1.004433 1_545
H66 O66 1.004433 1_555
H67 O67 1.004433 1_565
H68 O68 1.004433 1_555
H69 O69 1.004433 1_565
H70 O70 1.004433 1_555
H71 O71 1.004433 1_545
H72 O64 0.988157 1_555
H73 O65 0.988157 1_555
H74 O66 0.988157 1_455
H75 O67 0.988157 1_655
H76 O68 0.988157 1_555
H77 O69 0.988157 1_555
H78 O70 0.988157 1_655
H79 O71 0.988157 1_455
H80 O72 1.026470 1_555
H80 O47 1.551103 1_555
H81 O73 1.026470 1_565
H81 O46 1.551103 1_555
H82 O74 1.026470 1_555
H82 O45 1.551103 1_555
H83 O75 1.026470 1_545
H83 O44 1.551103 1_555
H84 O76 1.026470 1_555
H84 O43 1.551103 1_555
H85 O77 1.026470 1_545
H85 O42 1.551103 1_555
H86 O78 1.026470 1_555
H86 O41 1.551103 1_555
H87 O79 1.026470 1_565
H87 O40 1.551103 1_555
H88 O72 1.002808 1_556
H88 O29 1.635769 1_555
H89 O73 1.002808 1_555
H89 O28 1.635769 1_555
H90 O74 1.002808 1_555
H90 O31 1.635769 1_555
H91 O75 1.002808 1_554
H91 O30 1.635769 1_555
H92 O76 1.002808 1_554
H92 O25 1.635769 1_555
H93 O77 1.002808 1_555
H93 O24 1.635769 1_555
H94 O78 1.002808 1_555
H94 O27 1.635769 1_555
H95 O79 1.002808 1_556
H95 O26 1.635769 1_555
O0 S0 1.502333 1_555
O1 S1 1.502333 1_555
O2 S2 1.502333 1_555
O3 S3 1.502333 1_555
O4 S4 1.502333 1_555
O5 S5 1.502333 1_555
O6 S6 1.502333 1_555
O7 S7 1.502333 1_555
O8 S0 1.495454 1_555
O9 S1 1.495454 1_555
O10 S2 1.495454 1_555
O11 S3 1.495454 1_555
O12 S4 1.495454 1_555
O13 S5 1.495454 1_555
O14 S6 1.495454 1_555
O15 S7 1.495454 1_555
O16 S0 1.489716 1_555
O17 S1 1.489716 1_555
O18 S2 1.489716 1_555
O19 S3 1.489716 1_555
O20 S4 1.489716 1_555
O21 S5 1.489716 1_555
O22 S6 1.489716 1_555
O23 S7 1.489716 1_555
O24 S0 1.495556 1_555
O25 S1 1.495556 1_555
O26 S2 1.495556 1_555
O27 S3 1.495556 1_555
O28 S4 1.495556 1_555
O29 S5 1.495556 1_555
O30 S6 1.495556 1_555
O31 S7 1.495556 1_555
