# generated using pymatgen
data_Li4TiCrO6
_symmetry_space_group_name_H-M   'P 1'
_cell_length_a   5.06926583
_cell_length_b   5.06926583
_cell_length_c   5.11842701
_cell_angle_alpha   80.55462110
_cell_angle_beta   80.55462110
_cell_angle_gamma   120.16291307
_symmetry_Int_Tables_number   1
_chemical_formula_structural   Li4TiCrO6
_chemical_formula_sum   'Li4 Ti1 Cr1 O6'
_cell_volume   107.38947424
_cell_formula_units_Z   1
loop_
 _symmetry_equiv_pos_site_id
 _symmetry_equiv_pos_as_xyz
  1  'x, y, z'
loop_
 _atom_site_type_symbol
 _atom_site_label
 _atom_site_symmetry_multiplicity
 _atom_site_fract_x
 _atom_site_fract_y
 _atom_site_fract_z
 _atom_site_occupancy
  Li  Li0  1  0.00018500  0.99981500  0.50000000  1
  Li  Li1  1  0.49575100  0.50424900  0.00000000  1
  Li  Li2  1  0.65730500  0.34269500  0.50000000  1
  Li  Li3  1  0.33425000  0.66575000  0.50000000  1
  Ti  Ti0  1  0.83175800  0.16824200  0.00000000  1
  Cr  Cr0  1  0.16377500  0.83622500  0.00000000  1
  O  O0  1  0.77682100  0.78389800  0.23238700  1
  O  O1  1  0.21610200  0.22317900  0.76761300  1
  O  O2  1  0.41701400  0.07085000  0.22386500  1
  O  O3  1  0.92915000  0.58298600  0.77613500  1
  O  O4  1  0.57571700  0.93899200  0.77198900  1
  O  O5  1  0.06100800  0.42428300  0.22801100  1
loop_
_geom_bond_atom_site_label_1
_geom_bond_atom_site_label_2
_geom_bond_distance
_geom_bond_site_symmetry_2
Li0 O1 2.027814 1_565
Li0 O0 2.027814 1_455
Li0 O3 2.163390 1_455
Li0 O2 2.163390 1_565
Li0 O5 2.207346 1_565
Li0 O4 2.207346 1_455
Li1 O2 2.107495 1_555
Li1 O3 2.107495 1_554
Li1 O5 2.118019 1_555
Li1 O4 2.118019 1_554
Li1 O0 2.129422 1_555
Li1 O1 2.129422 1_554
Li2 O4 2.079083 1_545
Li2 O5 2.079083 1_655
Li2 O1 2.146152 1_555
Li2 O0 2.146152 1_555
Li2 O2 2.213120 1_555
Li2 O3 2.213120 1_555
Li3 O3 2.092294 1_455
Li3 O2 2.092294 1_565
Li3 O1 2.154088 1_555
Li3 O0 2.154088 1_555
Li3 O4 2.200773 1_555
Li3 O5 2.200773 1_555
Cr0 O2 1.941975 1_565
Cr0 O3 1.941975 1_454
Cr0 O4 1.975223 1_554
Cr0 O5 1.975223 1_555
Cr0 O0 1.985120 1_455
Cr0 O1 1.985120 1_564
O0 Ti0 1.968194 1_565
O1 Ti0 1.968194 1_456
O2 Ti0 1.989350 1_555
O3 Ti0 1.989350 1_556
O4 Ti0 1.955438 1_566
O5 Ti0 1.955438 1_455
