# generated using pymatgen
data_LiMn(PO3)3
_symmetry_space_group_name_H-M   'P 1'
_cell_length_a   8.57620700
_cell_length_b   8.69315900
_cell_length_c   9.00241100
_cell_angle_alpha   90.00000000
_cell_angle_beta   90.00000000
_cell_angle_gamma   90.00000000
_symmetry_Int_Tables_number   1
_chemical_formula_structural   LiMn(PO3)3
_chemical_formula_sum   'Li4 Mn4 P12 O36'
_cell_volume   671.16873010
_cell_formula_units_Z   4
loop_
 _symmetry_equiv_pos_site_id
 _symmetry_equiv_pos_as_xyz
  1  'x, y, z'
loop_
 _atom_site_type_symbol
 _atom_site_label
 _atom_site_symmetry_multiplicity
 _atom_site_fract_x
 _atom_site_fract_y
 _atom_site_fract_z
 _atom_site_occupancy
  Li  Li0  1  0.87245000  0.64437300  0.33376900  1
  Li  Li1  1  0.62755000  0.35562700  0.83376900  1
  Li  Li2  1  0.12755000  0.14437300  0.16623100  1
  Li  Li3  1  0.37245000  0.85562700  0.66623100  1
  Mn  Mn0  1  0.65316800  0.63045100  0.60773500  1
  Mn  Mn1  1  0.84683200  0.36954900  0.10773500  1
  Mn  Mn2  1  0.34683200  0.13045100  0.89226500  1
  Mn  Mn3  1  0.15316800  0.86954900  0.39226500  1
  P  P0  1  0.79998400  0.69453400  0.93215700  1
  P  P1  1  0.02962400  0.68273700  0.68112700  1
  P  P2  1  0.19026800  0.52009600  0.19169700  1
  P  P3  1  0.30973200  0.47990400  0.69169700  1
  P  P4  1  0.47037600  0.31726300  0.18112700  1
  P  P5  1  0.70001600  0.30546600  0.43215700  1
  P  P6  1  0.20001600  0.19453400  0.56784300  1
  P  P7  1  0.97037600  0.18273700  0.81887300  1
  P  P8  1  0.80973200  0.02009600  0.30830300  1
  P  P9  1  0.69026800  0.97990400  0.80830300  1
  P  P10  1  0.52962400  0.81726300  0.31887300  1
  P  P11  1  0.29998400  0.80546600  0.06784300  1
  O  O0  1  0.95924500  0.73112900  0.83988800  1
  O  O1  1  0.63234300  0.68968300  0.37600200  1
  O  O2  1  0.84194800  0.63786800  0.08465200  1
  O  O3  1  0.22918800  0.63398100  0.05313100  1
  O  O4  1  0.90133200  0.62892700  0.57951200  1
  O  O5  1  0.40602400  0.61143700  0.63393400  1
  O  O6  1  0.12773900  0.61346200  0.31950900  1
  O  O7  1  0.69294800  0.59531800  0.84007000  1
  O  O8  1  0.13806600  0.54119600  0.73339300  1
  O  O9  1  0.36193400  0.45880400  0.23339300  1
  O  O10  1  0.80705200  0.40468200  0.34007000  1
  O  O11  1  0.37226100  0.38653800  0.81950900  1
  O  O12  1  0.09397600  0.38856300  0.13393400  1
  O  O13  1  0.59866800  0.37107300  0.07951200  1
  O  O14  1  0.27081200  0.36601900  0.55313100  1
  O  O15  1  0.65805200  0.36213200  0.58465200  1
  O  O16  1  0.86765700  0.31031700  0.87600200  1
  O  O17  1  0.54075500  0.26887100  0.33988800  1
  O  O18  1  0.04075500  0.23112900  0.66011200  1
  O  O19  1  0.36765700  0.18968300  0.12399800  1
  O  O20  1  0.15805200  0.13786800  0.41534800  1
  O  O21  1  0.77081200  0.13398100  0.44686900  1
  O  O22  1  0.09866800  0.12892700  0.92048800  1
  O  O23  1  0.59397600  0.11143700  0.86606600  1
  O  O24  1  0.87226100  0.11346200  0.18049100  1
  O  O25  1  0.30705200  0.09531800  0.65993000  1
  O  O26  1  0.86193400  0.04119600  0.76660700  1
  O  O27  1  0.63806600  0.95880400  0.26660700  1
  O  O28  1  0.19294800  0.90468200  0.15993000  1
  O  O29  1  0.62773900  0.88653800  0.68049100  1
  O  O30  1  0.90602400  0.88856300  0.36606600  1
  O  O31  1  0.40133200  0.87107300  0.42048800  1
  O  O32  1  0.72918800  0.86601900  0.94686900  1
  O  O33  1  0.34194800  0.86213200  0.91534800  1
  O  O34  1  0.13234300  0.81031700  0.62399800  1
  O  O35  1  0.45924500  0.76887100  0.16011200  1
loop_
_geom_bond_atom_site_label_1
_geom_bond_atom_site_label_2
_geom_bond_distance
_geom_bond_site_symmetry_2
Li0 O1 2.130735 1_555
Li0 O10 2.158582 1_555
Li0 O30 2.161863 1_555
Li0 O6 2.209572 1_655
Li0 O4 2.230149 1_555
Li0 O2 2.258567 1_555
Li1 O16 2.130735 1_555
Li1 O7 2.158582 1_555
Li1 O23 2.161863 1_555
Li1 O11 2.209572 1_555
Li1 O13 2.230149 1_556
Li1 O15 2.258567 1_555
Li2 O19 2.130735 1_555
Li2 O28 2.158582 1_545
Li2 O12 2.161863 1_555
Li2 O24 2.209572 1_455
Li2 O22 2.230149 1_554
Li2 O20 2.258567 1_555
Li3 O34 2.130735 1_555
Li3 O25 2.158582 1_565
Li3 O5 2.161863 1_555
Li3 O29 2.209572 1_555
Li3 O31 2.230149 1_555
Li3 O33 2.258567 1_555
Mn0 O5 2.139036 1_555
Mn0 O7 2.141111 1_555
Mn0 O4 2.143459 1_555
Mn0 O1 2.156172 1_555
Mn0 O29 2.330783 1_555
Mn0 O15 2.342152 1_555
Mn1 O12 2.139036 1_655
Mn1 O10 2.141111 1_555
Mn1 O13 2.143459 1_555
Mn1 O16 2.156172 1_554
Mn1 O24 2.330783 1_555
Mn1 O2 2.342152 1_555
Mn2 O23 2.139036 1_555
Mn2 O25 2.141111 1_555
Mn2 O22 2.143459 1_555
Mn2 O19 2.156172 1_556
Mn2 O11 2.330783 1_555
Mn2 O33 2.342152 1_545
Mn3 O30 2.139036 1_455
Mn3 O28 2.141111 1_555
Mn3 O31 2.143459 1_555
Mn3 O34 2.156172 1_555
Mn3 O6 2.330783 1_555
Mn3 O20 2.342152 1_565
O0 P1 1.607479 1_655
O0 P0 1.629949 1_555
O1 P10 1.506851 1_555
O2 P0 1.502273 1_554
O3 P11 1.615088 1_555
O3 P2 1.627154 1_555
O4 P1 1.505393 1_655
O5 P3 1.503274 1_555
O6 P2 1.506739 1_555
O7 P0 1.507917 1_555
O8 P3 1.610061 1_555
O8 P1 1.612547 1_555
O9 P2 1.610061 1_555
O9 P4 1.612547 1_555
O10 P5 1.507917 1_555
O11 P3 1.506739 1_555
O12 P2 1.503274 1_555
O13 P4 1.505393 1_555
O14 P6 1.615088 1_555
O14 P3 1.627154 1_555
O15 P5 1.502273 1_555
O16 P7 1.506851 1_555
O17 P4 1.607479 1_555
O17 P5 1.629949 1_555
O18 P7 1.607479 1_455
O18 P6 1.629949 1_555
O19 P4 1.506851 1_555
O20 P6 1.502273 1_555
O21 P5 1.615088 1_555
O21 P8 1.627154 1_555
O22 P7 1.505393 1_455
O23 P9 1.503274 1_545
O24 P8 1.506739 1_555
O25 P6 1.507917 1_555
O26 P9 1.610061 1_545
O26 P7 1.612547 1_555
O27 P8 1.610061 1_565
O27 P10 1.612547 1_555
O28 P11 1.507917 1_555
O29 P9 1.506739 1_555
O30 P8 1.503274 1_565
O31 P10 1.505393 1_555
O32 P0 1.615088 1_555
O32 P9 1.627154 1_555
O33 P11 1.502273 1_556
O34 P1 1.506851 1_555
O35 P10 1.607479 1_555
O35 P11 1.629949 1_555
