# generated using pymatgen
data_LiLaO2
_symmetry_space_group_name_H-M   'P 1'
_cell_length_a   6.10415801
_cell_length_b   6.70519490
_cell_length_c   7.01340386
_cell_angle_alpha   58.54433262
_cell_angle_beta   90.00000000
_cell_angle_gamma   90.00000000
_symmetry_Int_Tables_number   1
_chemical_formula_structural   LiLaO2
_chemical_formula_sum   'Li4 La4 O8'
_cell_volume   244.87111129
_cell_formula_units_Z   4
loop_
 _symmetry_equiv_pos_site_id
 _symmetry_equiv_pos_as_xyz
  1  'x, y, z'
loop_
 _atom_site_type_symbol
 _atom_site_label
 _atom_site_symmetry_multiplicity
 _atom_site_fract_x
 _atom_site_fract_y
 _atom_site_fract_z
 _atom_site_occupancy
  Li  Li0  1  0.17138333  0.67980202  0.60800291  1
  Li  Li1  1  0.67138333  0.32019798  0.89199709  1
  Li  Li2  1  0.32861667  0.67980202  0.10800291  1
  Li  Li3  1  0.82861667  0.32019798  0.39199709  1
  La  La0  1  0.85745460  0.77975893  0.95815612  1
  La  La1  1  0.64254540  0.77975893  0.45815612  1
  La  La2  1  0.35745460  0.22024107  0.54184388  1
  La  La3  1  0.14254540  0.22024107  0.04184388  1
  O  O0  1  0.20061853  0.96248220  0.89597010  1
  O  O1  1  0.29938147  0.96248220  0.39597010  1
  O  O2  1  0.90170915  0.55426789  0.76580269  1
  O  O3  1  0.40170915  0.44573211  0.73419731  1
  O  O4  1  0.59829085  0.55426789  0.26580269  1
  O  O5  1  0.09829085  0.44573211  0.23419731  1
  O  O6  1  0.70061853  0.03751780  0.60402990  1
  O  O7  1  0.79938147  0.03751780  0.10402990  1
loop_
_geom_bond_atom_site_label_1
_geom_bond_atom_site_label_2
_geom_bond_distance
_geom_bond_site_symmetry_2
Li0 O1 1.863529 1_555
Li0 O2 1.915943 1_455
Li0 O3 1.942559 1_555
Li1 O7 1.863529 1_556
Li1 O3 1.915943 1_555
Li1 O2 1.942559 1_555
Li2 O0 1.863529 1_554
Li2 O4 1.915943 1_555
Li2 O5 1.942559 1_555
Li3 O6 1.863529 1_555
Li3 O5 1.915943 1_655
Li3 O4 1.942559 1_555
La0 O0 2.349789 1_655
La0 O6 2.364750 1_565
La0 O7 2.450483 1_566
La0 O4 2.457511 1_556
La0 O2 2.511523 1_555
La0 O5 2.529847 1_656
La1 O1 2.349789 1_555
La1 O7 2.364750 1_565
La1 O6 2.450483 1_565
La1 O2 2.457511 1_555
La1 O4 2.511523 1_555
La1 O3 2.529847 1_555
La2 O6 2.349789 1_555
La2 O0 2.364750 1_545
La2 O1 2.450483 1_545
La2 O5 2.457511 1_555
La2 O3 2.511523 1_555
La2 O4 2.529847 1_555
La3 O7 2.349789 1_455
La3 O1 2.364750 1_545
La3 O0 2.450483 1_544
La3 O3 2.457511 1_554
La3 O5 2.511523 1_555
La3 O2 2.529847 1_454
