# generated using pymatgen
data_Y13Ho19O48
_symmetry_space_group_name_H-M   'P 1'
_cell_length_a   9.22645800
_cell_length_b   9.22633077
_cell_length_c   15.06623212
_cell_angle_alpha   89.99725089
_cell_angle_beta   89.99272500
_cell_angle_gamma   70.51670933
_symmetry_Int_Tables_number   1
_chemical_formula_structural   Y13Ho19O48
_chemical_formula_sum   'Y13 Ho19 O48'
_cell_volume   1209.09398811
_cell_formula_units_Z   1
loop_
 _symmetry_equiv_pos_site_id
 _symmetry_equiv_pos_as_xyz
  1  'x, y, z'
loop_
 _atom_site_type_symbol
 _atom_site_label
 _atom_site_symmetry_multiplicity
 _atom_site_fract_x
 _atom_site_fract_y
 _atom_site_fract_z
 _atom_site_occupancy
  Y  Y0  1  0.14109100  0.14110800  0.10890700  1
  Y  Y1  1  0.99930800  0.50074200  0.99992300  1
  Y  Y2  1  0.34244700  0.40794100  0.12499700  1
  Y  Y3  1  0.24977600  0.75018000  0.25016500  1
  Y  Y4  1  0.75005300  0.24969900  0.25002000  1
  Y  Y5  1  0.00043000  0.49949000  0.50008600  1
  Y  Y6  1  0.50073800  0.99935300  0.99992100  1
  Y  Y7  1  0.15771000  0.09227400  0.87478100  1
  Y  Y8  1  0.65765100  0.59237400  0.37500500  1
  Y  Y9  1  0.25047600  0.74955300  0.74992000  1
  Y  Y10  1  0.74961200  0.25048900  0.74996100  1
  Y  Y11  1  0.49950400  0.00038300  0.50004900  1
  Y  Y12  1  0.84240900  0.90758900  0.62500100  1
  Ho  Ho0  1  0.15757300  0.09232600  0.37522600  1
  Ho  Ho1  1  0.76598400  0.26648000  0.01627400  1
  Ho  Ho2  1  0.01639200  0.51677400  0.26659000  1
  Ho  Ho3  1  0.35841800  0.35839800  0.39159100  1
  Ho  Ho4  1  0.10882100  0.10888900  0.64114300  1
  Ho  Ho5  1  0.60889800  0.60885000  0.14114900  1
  Ho  Ho6  1  0.73349400  0.23351400  0.48354300  1
  Ho  Ho7  1  0.48390800  0.98347300  0.23379800  1
  Ho  Ho8  1  0.84216200  0.90742100  0.12503200  1
  Ho  Ho9  1  0.34241100  0.40760900  0.62502600  1
  Ho  Ho10  1  0.26638000  0.76630600  0.51639000  1
  Ho  Ho11  1  0.51651200  0.01651400  0.76647400  1
  Ho  Ho12  1  0.39150500  0.39150100  0.85844800  1
  Ho  Ho13  1  0.89151900  0.89157500  0.35851500  1
  Ho  Ho14  1  0.64117200  0.64115100  0.60886600  1
  Ho  Ho15  1  0.98363300  0.48362400  0.73365000  1
  Ho  Ho16  1  0.23360300  0.73324400  0.98338300  1
  Ho  Ho17  1  0.65756100  0.59236000  0.87499000  1
  Ho  Ho18  1  0.85847000  0.85847300  0.89149100  1
  O  O0  1  0.22317600  0.00579200  0.23524300  1
  O  O1  1  0.09198300  0.39701100  0.13599000  1
  O  O2  1  0.39237000  0.15029300  0.12038500  1
  O  O3  1  0.10872000  0.34834900  0.37968200  1
  O  O4  1  0.59974200  0.35901300  0.12970200  1
  O  O5  1  0.40667300  0.10471800  0.36412300  1
  O  O6  1  0.26651200  0.96152100  0.00545400  1
  O  O7  1  0.35478200  0.65772900  0.11399400  1
  O  O8  1  0.71310400  0.01487000  0.25578700  1
  O  O9  1  0.27663800  0.49474300  0.26655000  1
  O  O10  1  0.24354700  0.02732100  0.51550700  1
  O  O11  1  0.90611200  0.12354600  0.13551100  1
  O  O12  1  0.74341800  0.52744500  0.01543200  1
  O  O13  1  0.12657000  0.34260100  0.61455300  1
  O  O14  1  0.62652800  0.84253900  0.11455900  1
  O  O15  1  0.59248300  0.37449300  0.36436400  1
  O  O16  1  0.14515700  0.84326000  0.38605800  1
  O  O17  1  0.23491700  0.53691600  0.49439900  1
  O  O18  1  0.78746900  0.48450600  0.24380800  1
  O  O19  1  0.99973200  0.24082100  0.77061200  1
  O  O20  1  0.49993700  0.74064000  0.27072400  1
  O  O21  1  0.49013700  0.25040300  0.52145800  1
  O  O22  1  0.99010300  0.75054000  0.02138700  1
  O  O23  1  0.90151600  0.14135900  0.37032900  1
  O  O24  1  0.00862400  0.25073700  0.97867600  1
  O  O25  1  0.50926200  0.75026700  0.47926500  1
  O  O26  1  0.49953100  0.25979200  0.72856200  1
  O  O27  1  0.09983700  0.85870700  0.62971000  1
  O  O28  1  0.99956600  0.75993500  0.22860600  1
  O  O29  1  0.85486100  0.15760500  0.61396600  1
  O  O30  1  0.76546500  0.46249300  0.50619100  1
  O  O31  1  0.21313500  0.51500600  0.75565000  1
  O  O32  1  0.37555800  0.15740700  0.88567500  1
  O  O33  1  0.87550100  0.65744200  0.38572900  1
  O  O34  1  0.40750300  0.62346400  0.63549500  1
  O  O35  1  0.72259200  0.50647600  0.73460000  1
  O  O36  1  0.75521900  0.97344300  0.48358800  1
  O  O37  1  0.09253200  0.87437900  0.86423100  1
  O  O38  1  0.25527300  0.47330800  0.98352000  1
  O  O39  1  0.64513800  0.34338500  0.88590200  1
  O  O40  1  0.59235000  0.89522700  0.63605000  1
  O  O41  1  0.28740500  0.98461800  0.74376200  1
  O  O42  1  0.73497600  0.03686300  0.99427300  1
  O  O43  1  0.89124000  0.65019600  0.62030600  1
  O  O44  1  0.40158200  0.64122200  0.87027400  1
  O  O45  1  0.60880900  0.84831800  0.87960200  1
  O  O46  1  0.90657400  0.60476700  0.86399000  1
  O  O47  1  0.77652200  0.99485700  0.76645000  1
loop_
_geom_bond_atom_site_label_1
_geom_bond_atom_site_label_2
_geom_bond_distance
_geom_bond_site_symmetry_2
Ho0 O3 2.253267 1_555
Ho0 O23 2.253575 1_455
Ho0 O0 2.264779 1_555
Ho0 O10 2.266890 1_555
Ho0 O16 2.344347 1_545
Ho0 O5 2.344882 1_555
Ho1 O39 2.253324 1_554
Ho1 O42 2.254830 1_554
Ho1 O4 2.264488 1_555
Ho1 O24 2.266399 1_654
Ho1 O11 2.345406 1_555
Ho1 O12 2.346564 1_555
Ho2 O1 2.250515 1_555
Ho2 O18 2.255499 1_455
Ho2 O28 2.269887 1_455
Ho2 O3 2.271712 1_555
Ho2 O33 2.338884 1_455
Ho2 O9 2.341209 1_555
Ho3 O9 2.251186 1_555
Ho3 O15 2.251188 1_555
Ho3 O5 2.269916 1_555
Ho3 O17 2.271183 1_555
Ho3 O21 2.343230 1_555
Ho3 O3 2.343289 1_555
Ho4 O10 2.251657 1_555
Ho4 O13 2.252200 1_555
Ho4 O29 2.271062 1_455
Ho4 O41 2.271597 1_545
Ho4 O19 2.341386 1_455
Ho4 O27 2.343563 1_545
Ho5 O14 2.251562 1_555
Ho5 O12 2.251621 1_555
Ho5 O18 2.272118 1_555
Ho5 O7 2.272173 1_555
Ho5 O4 2.340984 1_555
Ho5 O20 2.341922 1_555
Ho6 O30 2.254434 1_555
Ho6 O29 2.254521 1_555
Ho6 O23 2.270649 1_555
Ho6 O21 2.271203 1_555
Ho6 O36 2.340288 1_545
Ho6 O15 2.340976 1_555
Ho7 O8 2.252621 1_565
Ho7 O5 2.254471 1_565
Ho7 O20 2.264929 1_555
Ho7 O2 2.266034 1_565
Ho7 O0 2.345099 1_565
Ho7 O14 2.346896 1_555
Ho8 O28 2.253433 1_555
Ho8 O22 2.253525 1_555
Ho8 O11 2.265866 1_565
Ho8 O14 2.266287 1_555
Ho8 O8 2.343857 1_565
Ho8 O42 2.344740 1_564
Ho9 O26 2.253068 1_555
Ho9 O21 2.253269 1_555
Ho9 O13 2.268780 1_555
Ho9 O34 2.269303 1_555
Ho9 O31 2.342816 1_555
Ho9 O17 2.343329 1_555
Ho10 O16 2.254225 1_555
Ho10 O17 2.254603 1_555
Ho10 O27 2.264610 1_555
Ho10 O25 2.266064 1_555
Ho10 O10 2.346404 1_565
Ho10 O34 2.346921 1_555
Ho11 O40 2.254020 1_545
Ho11 O41 2.255480 1_545
Ho11 O26 2.270283 1_555
Ho11 O45 2.270897 1_545
Ho11 O47 2.339921 1_545
Ho11 O32 2.340584 1_555
Ho12 O32 2.250925 1_555
Ho12 O38 2.251021 1_555
Ho12 O39 2.269721 1_555
Ho12 O31 2.270487 1_555
Ho12 O26 2.343357 1_555
Ho12 O44 2.343456 1_555
Ho13 O36 2.251398 1_555
Ho13 O33 2.251495 1_555
Ho13 O8 2.269496 1_565
Ho13 O16 2.269739 1_655
Ho13 O28 2.343456 1_555
Ho13 O23 2.343750 1_565
Ho14 O34 2.251692 1_555
Ho14 O35 2.252613 1_555
Ho14 O40 2.271900 1_555
Ho14 O30 2.272446 1_555
Ho14 O43 2.342772 1_555
Ho14 O25 2.343180 1_555
Ho15 O46 2.254056 1_555
Ho15 O31 2.255355 1_655
Ho15 O19 2.264624 1_555
Ho15 O43 2.265152 1_555
Ho15 O35 2.346637 1_555
Ho15 O13 2.346662 1_655
Ho16 O6 2.250634 1_556
Ho16 O7 2.255785 1_556
Ho16 O44 2.269060 1_555
Ho16 O22 2.271837 1_456
Ho16 O38 2.339177 1_555
Ho16 O37 2.341402 1_555
Ho17 O45 2.252889 1_555
Ho17 O44 2.253016 1_555
Ho17 O35 2.268135 1_555
Ho17 O12 2.268747 1_556
Ho17 O39 2.343618 1_555
Ho17 O46 2.344024 1_555
Ho18 O37 2.250579 1_655
Ho18 O47 2.251578 1_555
Ho18 O42 2.270240 1_565
Ho18 O46 2.270445 1_555
Ho18 O22 2.343151 1_556
Ho18 O45 2.343286 1_555
O0 Y0 2.263764 1_555
O0 Y3 2.299241 1_545
O1 Y0 2.287524 1_555
O1 Y1 2.303048 1_454
O1 Y2 2.352274 1_555
O2 Y2 2.266589 1_555
O2 Y6 2.303053 1_544
O2 Y0 2.354421 1_555
O3 Y5 2.303028 1_555
O4 Y2 2.264839 1_555
O4 Y4 2.300865 1_555
O5 Y11 2.303124 1_555
O6 Y0 2.287938 1_565
O6 Y6 2.302644 1_554
O6 Y7 2.351909 1_564
O7 Y3 2.307297 1_555
O7 Y2 2.350884 1_555
O8 Y4 2.304484 1_555
O9 Y2 2.287750 1_555
O9 Y3 2.299336 1_555
O10 Y11 2.302475 1_555
O11 Y0 2.263039 1_655
O11 Y4 2.299123 1_555
O12 Y1 2.302450 1_554
O13 Y5 2.302276 1_555
O14 Y6 2.302935 1_554
O15 Y8 2.287933 1_555
O15 Y4 2.300007 1_555
O16 Y3 2.303861 1_555
O17 Y5 2.303373 1_555
O18 Y4 2.306536 1_555
O18 Y8 2.353008 1_555
O19 Y7 2.265799 1_655
O19 Y10 2.300697 1_555
O20 Y8 2.264883 1_555
O20 Y3 2.301234 1_555
O21 Y11 2.302121 1_555
O22 Y1 2.300655 1_554
O23 Y4 2.303534 1_555
O24 Y7 2.266710 1_555
O24 Y1 2.301783 1_455
O24 Y0 2.354237 1_556
O25 Y8 2.265678 1_555
O25 Y11 2.300629 1_565
O26 Y10 2.302891 1_555
O27 Y12 2.266109 1_455
O27 Y9 2.300618 1_555
O28 Y3 2.303173 1_655
O29 Y10 2.306526 1_555
O29 Y12 2.353420 1_545
O30 Y5 2.306149 1_655
O30 Y8 2.353100 1_555
O31 Y9 2.303560 1_555
O32 Y7 2.287760 1_555
O32 Y6 2.302164 1_545
O33 Y8 2.287262 1_555
O33 Y5 2.302305 1_655
O34 Y9 2.302099 1_555
O35 Y10 2.302413 1_555
O36 Y12 2.286891 1_555
O36 Y11 2.301838 1_565
O37 Y7 2.288013 1_565
O37 Y9 2.301327 1_555
O38 Y2 2.287088 1_556
O38 Y1 2.302963 1_455
O39 Y10 2.303715 1_555
O40 Y11 2.306397 1_565
O40 Y12 2.353537 1_555
O41 Y9 2.306782 1_555
O41 Y7 2.349843 1_565
O42 Y6 2.301438 1_545
O43 Y12 2.265816 1_555
O43 Y5 2.300944 1_655
O44 Y9 2.302528 1_555
O45 Y6 2.301101 1_555
O46 Y1 2.302171 1_555
O47 Y12 2.287525 1_555
O47 Y10 2.301180 1_565
