# generated using pymatgen
data_Li2NbV3O8
_symmetry_space_group_name_H-M   'P 1'
_cell_length_a   6.01159749
_cell_length_b   6.01159749
_cell_length_c   9.76651900
_cell_angle_alpha   90.00000000
_cell_angle_beta   90.00000000
_cell_angle_gamma   119.99999442
_symmetry_Int_Tables_number   1
_chemical_formula_structural   Li2NbV3O8
_chemical_formula_sum   'Li4 Nb2 V6 O16'
_cell_volume   305.66818960
_cell_formula_units_Z   2
loop_
 _symmetry_equiv_pos_site_id
 _symmetry_equiv_pos_as_xyz
  1  'x, y, z'
loop_
 _atom_site_type_symbol
 _atom_site_label
 _atom_site_symmetry_multiplicity
 _atom_site_fract_x
 _atom_site_fract_y
 _atom_site_fract_z
 _atom_site_occupancy
  Li  Li0  1  0.33333300  0.66666700  0.89894200  1
  Li  Li1  1  0.00000000  0.00000000  0.99287000  1
  Li  Li2  1  0.00000000  0.00000000  0.49287000  1
  Li  Li3  1  0.66666700  0.33333300  0.39894200  1
  Nb  Nb0  1  0.33333300  0.66666700  0.49088500  1
  Nb  Nb1  1  0.66666700  0.33333300  0.99088500  1
  V  V0  1  0.17052700  0.82947300  0.21502500  1
  V  V1  1  0.17052700  0.34105400  0.21502500  1
  V  V2  1  0.65894600  0.82947300  0.21502500  1
  V  V3  1  0.34105400  0.17052700  0.71502500  1
  V  V4  1  0.82947300  0.65894600  0.71502500  1
  V  V5  1  0.82947300  0.17052700  0.71502500  1
  O  O0  1  0.16790800  0.83209200  0.59248200  1
  O  O1  1  0.03794900  0.51897400  0.34410800  1
  O  O2  1  0.33333300  0.66666700  0.10780400  1
  O  O3  1  0.00000000  0.00000000  0.30856900  1
  O  O4  1  0.00000000  0.00000000  0.80856900  1
  O  O5  1  0.16790800  0.33581600  0.59248200  1
  O  O6  1  0.48102600  0.96205100  0.34410800  1
  O  O7  1  0.48102600  0.51897400  0.34410800  1
  O  O8  1  0.33581600  0.16790800  0.09248200  1
  O  O9  1  0.66418400  0.83209200  0.59248200  1
  O  O10  1  0.51897400  0.48102600  0.84410800  1
  O  O11  1  0.51897400  0.03794900  0.84410800  1
  O  O12  1  0.66666700  0.33333300  0.60780400  1
  O  O13  1  0.83209200  0.66418400  0.09248200  1
  O  O14  1  0.96205100  0.48102600  0.84410800  1
  O  O15  1  0.83209200  0.16790800  0.09248200  1
loop_
_geom_bond_atom_site_label_1
_geom_bond_atom_site_label_2
_geom_bond_distance
_geom_bond_site_symmetry_2
Li0 O10 2.005782 1_555
Li0 O14 2.005782 1_455
Li0 O11 2.005782 1_565
Li0 O2 2.039855 1_556
Li1 O4 1.799979 1_555
Li1 O15 2.000774 1_456
Li1 O8 2.000774 1_556
Li1 O13 2.000774 1_446
Li2 O3 1.799979 1_555
Li2 O0 2.000774 1_545
Li2 O5 2.000774 1_555
Li2 O9 2.000774 1_445
Li3 O7 2.005782 1_555
Li3 O1 2.005782 1_655
Li3 O6 2.005782 1_545
Li3 O12 2.039855 1_555
Nb0 O0 1.987828 1_555
Nb0 O5 1.987833 1_555
Nb0 O9 1.987833 1_555
Nb0 O1 2.102340 1_555
Nb0 O6 2.102340 1_555
Nb0 O7 2.102348 1_555
Nb1 O15 1.987828 1_556
Nb1 O8 1.987833 1_556
Nb1 O13 1.987833 1_556
Nb1 O14 2.102340 1_555
Nb1 O11 2.102340 1_555
Nb1 O10 2.102348 1_555
O0 V3 2.130125 1_565
O0 V4 2.130125 1_455
O1 V1 2.054515 1_555
O1 V0 2.054520 1_555
O2 V0 1.992556 1_555
O2 V2 1.992561 1_555
O2 V1 1.992561 1_555
O3 V0 1.996847 1_545
O3 V1 1.996847 1_555
O3 V2 1.996847 1_445
O4 V5 1.996847 1_455
O4 V3 1.996847 1_555
O4 V4 1.996847 1_445
O5 V3 2.130125 1_555
O5 V5 2.130125 1_455
O6 V2 2.054515 1_555
O6 V0 2.054520 1_555
O7 V1 2.054519 1_555
O7 V2 2.054519 1_555
O8 V1 2.130125 1_555
O8 V0 2.130125 1_545
O9 V4 2.130125 1_555
O9 V5 2.130125 1_565
O10 V3 2.054519 1_555
O10 V4 2.054519 1_555
O11 V3 2.054515 1_555
O11 V5 2.054520 1_555
O12 V5 1.992556 1_555
O12 V4 1.992561 1_555
O12 V3 1.992561 1_555
O13 V2 2.130125 1_555
O13 V0 2.130125 1_655
O14 V4 2.054515 1_555
O14 V5 2.054520 1_555
O15 V1 2.130125 1_655
O15 V2 2.130125 1_545
