# generated using pymatgen
data_LiCoBO3
_symmetry_space_group_name_H-M   'P 1'
_cell_length_a   3.11646909
_cell_length_b   9.15708584
_cell_length_c   9.38489997
_cell_angle_alpha   89.99324704
_cell_angle_beta   90.64960494
_cell_angle_gamma   89.45897561
_symmetry_Int_Tables_number   1
_chemical_formula_structural   LiCoBO3
_chemical_formula_sum   'Li4 Co4 B4 O12'
_cell_volume   267.79500412
_cell_formula_units_Z   4
loop_
 _symmetry_equiv_pos_site_id
 _symmetry_equiv_pos_as_xyz
  1  'x, y, z'
loop_
 _atom_site_type_symbol
 _atom_site_label
 _atom_site_symmetry_multiplicity
 _atom_site_fract_x
 _atom_site_fract_y
 _atom_site_fract_z
 _atom_site_occupancy
  Li  Li0  1  0.25345000  0.13453200  0.69694400  1
  Li  Li1  1  0.24581300  0.36540300  0.19692700  1
  Li  Li2  1  0.75429000  0.63459800  0.80307400  1
  Li  Li3  1  0.74652800  0.86546700  0.30305500  1
  Co  Co0  1  0.74378500  0.20203300  0.93806400  1
  Co  Co1  1  0.25615800  0.79796700  0.06193600  1
  Co  Co2  1  0.74992700  0.29795100  0.43790800  1
  Co  Co3  1  0.24990300  0.70205000  0.56209200  1
  B  B0  1  0.24618700  0.10319000  0.21125300  1
  B  B1  1  0.25233900  0.39683000  0.71140200  1
  B  B2  1  0.74767900  0.60316900  0.28859600  1
  B  B3  1  0.75383500  0.89681000  0.78874800  1
  O  O0  1  0.75997200  0.04633200  0.78026900  1
  O  O1  1  0.74595400  0.45363500  0.28025900  1
  O  O2  1  0.25421600  0.54636500  0.71974000  1
  O  O3  1  0.24001900  0.95366800  0.21973200  1
  O  O4  1  0.25173600  0.18828900  0.33368200  1
  O  O5  1  0.25187900  0.31187400  0.83394200  1
  O  O6  1  0.74810700  0.68812800  0.16605700  1
  O  O7  1  0.74836300  0.81171100  0.66631800  1
  O  O8  1  0.24694300  0.17838600  0.08066200  1
  O  O9  1  0.25059200  0.32144800  0.58067800  1
  O  O10  1  0.74931100  0.67855200  0.41932000  1
  O  O11  1  0.75301500  0.82161400  0.91933900  1
loop_
_geom_bond_atom_site_label_1
_geom_bond_atom_site_label_2
_geom_bond_distance
_geom_bond_site_symmetry_2
Li0 O0 1.918220 1_455
Li0 O0 1.924438 1_555
Li0 O9 2.029611 1_555
Li0 O5 2.071409 1_555
Li1 O1 1.920978 1_555
Li1 O1 1.922273 1_455
Li1 O8 2.030705 1_555
Li1 O4 2.067930 1_555
Li2 O2 1.920820 1_555
Li2 O2 1.922454 1_655
Li2 O11 2.030698 1_555
Li2 O7 2.067929 1_555
Li3 O3 1.918249 1_655
Li3 O3 1.924401 1_555
Li3 O10 2.029601 1_555
Li3 O6 2.071387 1_555
Co0 O0 2.056508 1_555
Co0 O8 2.059769 1_656
Co0 O5 2.062365 1_555
Co0 O8 2.070898 1_556
Co0 O5 2.130452 1_655
Co1 O3 2.056511 1_555
Co1 O11 2.059728 1_454
Co1 O6 2.062451 1_555
Co1 O11 2.070927 1_554
Co1 O6 2.130338 1_455
Co2 O1 2.054326 1_555
Co2 O9 2.057946 1_655
Co2 O9 2.074667 1_555
Co2 O4 2.090684 1_555
Co2 O4 2.101457 1_655
Co3 O2 2.054317 1_555
Co3 O10 2.057788 1_455
Co3 O10 2.074852 1_555
Co3 O7 2.091302 1_555
Co3 O7 2.100828 1_455
B0 O3 1.371815 1_545
B0 O4 1.388424 1_555
B0 O8 1.405736 1_555
B1 O2 1.371612 1_555
B1 O5 1.388385 1_555
B1 O9 1.407747 1_555
B2 O1 1.371596 1_555
B2 O6 1.388391 1_555
B2 O10 1.407752 1_555
B3 O0 1.371813 1_565
B3 O7 1.388430 1_555
B3 O11 1.405740 1_555
