# generated using pymatgen
data_Li3Co2(CO3)4
_symmetry_space_group_name_H-M   'P 1'
_cell_length_a   9.71895500
_cell_length_b   7.03480100
_cell_length_c   8.57854643
_cell_angle_alpha   69.67672306
_cell_angle_beta   90.00000000
_cell_angle_gamma   90.00000000
_symmetry_Int_Tables_number   1
_chemical_formula_structural   Li3Co2(CO3)4
_chemical_formula_sum   'Li6 Co4 C8 O24'
_cell_volume   550.01077771
_cell_formula_units_Z   2
loop_
 _symmetry_equiv_pos_site_id
 _symmetry_equiv_pos_as_xyz
  1  'x, y, z'
loop_
 _atom_site_type_symbol
 _atom_site_label
 _atom_site_symmetry_multiplicity
 _atom_site_fract_x
 _atom_site_fract_y
 _atom_site_fract_z
 _atom_site_occupancy
  Li  Li0  1  0.60497100  0.74786600  0.59948400  1
  Li  Li1  1  0.18075400  0.31995100  0.81598000  1
  Li  Li2  1  0.88472700  0.25226400  0.09324400  1
  Li  Li3  1  0.10497100  0.25213400  0.40051600  1
  Li  Li4  1  0.38472700  0.74773600  0.90675600  1
  Li  Li5  1  0.68075400  0.68004900  0.18402000  1
  Co  Co0  1  0.13995600  0.80517100  0.67511200  1
  Co  Co1  1  0.63995600  0.19482900  0.32488800  1
  Co  Co2  1  0.36840400  0.29638400  0.19614700  1
  Co  Co3  1  0.86840400  0.70361600  0.80385300  1
  C  C0  1  0.98490400  0.48417000  0.60247900  1
  C  C1  1  0.51980800  0.97552900  0.11935900  1
  C  C2  1  0.38466600  0.99136400  0.52591800  1
  C  C3  1  0.88466600  0.00863600  0.47408200  1
  C  C4  1  0.11421500  0.48888200  0.02734700  1
  C  C5  1  0.61421500  0.51111800  0.97265300  1
  C  C6  1  0.48490400  0.51583000  0.39752100  1
  C  C7  1  0.01980800  0.02447100  0.88064100  1
  O  O0  1  0.10556800  0.55448300  0.62616800  1
  O  O1  1  0.87835100  0.52322600  0.68340700  1
  O  O2  1  0.47208200  0.62251200  0.48605200  1
  O  O3  1  0.41154000  0.09282200  0.10679800  1
  O  O4  1  0.62732400  0.99310200  0.20251000  1
  O  O5  1  0.01844200  0.15830000  0.94976000  1
  O  O6  1  0.34413700  0.85864100  0.66496200  1
  O  O7  1  0.01465400  0.97603200  0.49681300  1
  O  O8  1  0.79427200  0.91302600  0.58539300  1
  O  O9  1  0.29427200  0.08697400  0.41460700  1
  O  O10  1  0.51465400  0.02396800  0.50318700  1
  O  O11  1  0.84413700  0.14135900  0.33503800  1
  O  O12  1  0.16459900  0.35563200  0.16318400  1
  O  O13  1  0.48260800  0.48666200  0.98443100  1
  O  O14  1  0.69885400  0.41856000  0.09075800  1
  O  O15  1  0.19885400  0.58144000  0.90924200  1
  O  O16  1  0.98260800  0.51333800  0.01556900  1
  O  O17  1  0.66459900  0.64436800  0.83681600  1
  O  O18  1  0.97208200  0.37748800  0.51394800  1
  O  O19  1  0.37835100  0.47677400  0.31659300  1
  O  O20  1  0.60556800  0.44551700  0.37383200  1
  O  O21  1  0.51844200  0.84170000  0.05024000  1
  O  O22  1  0.12732400  0.00689800  0.79749000  1
  O  O23  1  0.91154000  0.90717800  0.89320200  1
loop_
_geom_bond_atom_site_label_1
_geom_bond_atom_site_label_2
_geom_bond_distance
_geom_bond_site_symmetry_2
Li0 O17 1.995347 1_555
Li0 O2 1.997168 1_555
Li0 O10 2.027557 1_565
Li0 O8 2.156822 1_555
Li1 O0 2.010307 1_555
Li1 O5 2.047492 1_555
Li1 O15 2.253259 1_555
Li1 O22 2.321085 1_555
Li2 O16 1.967740 1_555
Li2 O11 1.985616 1_555
Li2 O5 2.050874 1_654
Li2 O14 2.148280 1_555
Li3 O12 1.995347 1_555
Li3 O18 1.997168 1_455
Li3 O7 2.027557 1_545
Li3 O9 2.156822 1_555
Li4 O13 1.967740 1_555
Li4 O6 1.985616 1_555
Li4 O21 2.050874 1_556
Li4 O15 2.148280 1_555
Li5 O20 2.010307 1_555
Li5 O21 2.047492 1_555
Li5 O14 2.253259 1_555
Li5 O4 2.321085 1_555
Co0 O0 1.977981 1_555
Co0 O7 1.997557 1_555
Co0 O6 2.016003 1_555
Co0 O22 2.041067 1_565
Co0 O15 2.154771 1_555
Co1 O20 1.977981 1_555
Co1 O10 1.997557 1_555
Co1 O11 2.016003 1_555
Co1 O4 2.041067 1_545
Co1 O14 2.154771 1_555
Co2 O3 1.891131 1_555
Co2 O19 1.896877 1_555
Co2 O12 2.023677 1_555
Co2 O9 2.069707 1_555
Co2 O13 2.152588 1_554
Co3 O23 1.891131 1_555
Co3 O1 1.896877 1_555
Co3 O17 2.023677 1_555
Co3 O8 2.069707 1_555
Co3 O16 2.152588 1_556
C0 O18 1.245580 1_555
C0 O0 1.315705 1_655
C0 O1 1.327552 1_555
C1 O21 1.275095 1_555
C1 O4 1.295091 1_555
C1 O3 1.318305 1_565
C2 O10 1.286705 1_565
C2 O6 1.294631 1_555
C2 O9 1.299957 1_565
C3 O7 1.286705 1_645
C3 O11 1.294631 1_555
C3 O8 1.299957 1_545
C4 O16 1.289878 1_455
C4 O15 1.291860 1_554
C4 O12 1.310574 1_555
C5 O13 1.289878 1_555
C5 O14 1.291860 1_556
C5 O17 1.310574 1_555
C6 O2 1.245580 1_555
C6 O20 1.315705 1_555
C6 O19 1.327552 1_555
C7 O5 1.275095 1_555
C7 O22 1.295091 1_555
C7 O23 1.318305 1_445
