# generated using pymatgen
data_Li3V3FeO8
_symmetry_space_group_name_H-M   'P 1'
_cell_length_a   10.34894771
_cell_length_b   10.41599340
_cell_length_c   14.71799422
_cell_angle_alpha   19.15929140
_cell_angle_beta   18.96248171
_cell_angle_gamma   32.78118002
_symmetry_Int_Tables_number   1
_chemical_formula_structural   Li3V3FeO8
_chemical_formula_sum   'Li3 V3 Fe1 O8'
_cell_volume   147.18328184
_cell_formula_units_Z   1
loop_
 _symmetry_equiv_pos_site_id
 _symmetry_equiv_pos_as_xyz
  1  'x, y, z'
loop_
 _atom_site_type_symbol
 _atom_site_label
 _atom_site_symmetry_multiplicity
 _atom_site_fract_x
 _atom_site_fract_y
 _atom_site_fract_z
 _atom_site_occupancy
  Li  Li0  1  0.00000100  0.50001300  0.49998900  1
  Li  Li1  1  0.50001400  0.00000400  0.49998700  1
  Li  Li2  1  0.49998600  0.49999100  0.50001500  1
  V  V0  1  0.99994300  0.49996000  0.00006400  1
  V  V1  1  0.49995800  0.99995500  0.00006000  1
  V  V2  1  0.50006900  0.50006400  0.99991900  1
  Fe  Fe0  1  0.00007400  0.00007700  0.99991200  1
  O  O0  1  0.00317700  0.01627100  0.24354700  1
  O  O1  1  0.99334200  0.51435100  0.25713800  1
  O  O2  1  0.50457100  0.99432900  0.26193600  1
  O  O3  1  0.99683900  0.98374500  0.75643400  1
  O  O4  1  0.50371300  0.47719600  0.27376100  1
  O  O5  1  0.00663900  0.48561100  0.74288700  1
  O  O6  1  0.49540200  0.00565800  0.73808100  1
  O  O7  1  0.49627000  0.52277500  0.72626900  1
loop_
_geom_bond_atom_site_label_1
_geom_bond_atom_site_label_2
_geom_bond_distance
_geom_bond_site_symmetry_2
Li0 O6 2.203348 1_564
Li0 O2 2.203380 1_446
Li0 O3 2.209452 1_445
Li0 O0 2.209457 1_565
Li0 O7 2.213278 1_455
Li0 O4 2.213329 1_555
Li1 O0 2.119084 1_655
Li1 O3 2.119086 1_445
Li1 O4 2.146165 1_555
Li1 O7 2.146192 1_545
Li1 O5 2.201552 1_654
Li1 O1 2.201570 1_446
Li2 O0 2.132303 1_556
Li2 O3 2.132380 1_554
Li2 O1 2.149750 1_555
Li2 O5 2.149821 1_555
Li2 O2 2.191638 1_555
Li2 O6 2.191711 1_555
Fe0 O5 1.959535 1_555
Fe0 O1 1.960165 1_446
Fe0 O6 1.960747 1_555
Fe0 O2 1.961287 1_446
Fe0 O4 1.983778 1_555
Fe0 O7 1.984072 1_446
O0 V0 2.014983 1_455
O0 V1 2.033685 1_545
O0 V2 2.075173 1_445
O1 V2 2.013898 1_654
O1 V1 2.014283 1_546
O2 V0 2.007929 1_456
O2 V2 2.042477 1_564
O3 V0 2.015104 1_556
O3 V1 2.033795 1_556
O3 V2 2.075403 1_664
O4 V0 1.941754 1_555
O4 V1 2.092564 1_555
O5 V2 2.013481 1_455
O5 V1 2.013985 1_555
O6 V0 2.007641 1_555
O6 V2 2.042110 1_545
O7 V0 1.941966 1_456
O7 V1 2.092611 1_546
