# generated using pymatgen
data_RbLi2B3Sb2O9
_symmetry_space_group_name_H-M   'P 1'
_cell_length_a   5.62402600
_cell_length_b   6.38121100
_cell_length_c   13.13650781
_cell_angle_alpha   87.57401189
_cell_angle_beta   90.00000000
_cell_angle_gamma   90.00000000
_symmetry_Int_Tables_number   1
_chemical_formula_structural   RbLi2B3Sb2O9
_chemical_formula_sum   'Rb2 Li4 B6 Sb4 O18'
_cell_volume   471.02172132
_cell_formula_units_Z   2
loop_
 _symmetry_equiv_pos_site_id
 _symmetry_equiv_pos_as_xyz
  1  'x, y, z'
loop_
 _atom_site_type_symbol
 _atom_site_label
 _atom_site_symmetry_multiplicity
 _atom_site_fract_x
 _atom_site_fract_y
 _atom_site_fract_z
 _atom_site_occupancy
  Rb  Rb0  1  0.78486900  0.00000000  0.75000000  1
  Rb  Rb1  1  0.21513100  0.00000000  0.25000000  1
  Li  Li0  1  0.88529300  0.48593900  0.85572700  1
  Li  Li1  1  0.88529300  0.51406100  0.64427300  1
  Li  Li2  1  0.11470700  0.48593900  0.35572700  1
  Li  Li3  1  0.11470700  0.51406100  0.14427300  1
  B  B0  1  0.16214000  0.82830100  0.97224800  1
  B  B1  1  0.83786000  0.82830100  0.47224800  1
  B  B2  1  0.39022200  0.50000000  0.75000000  1
  B  B3  1  0.60977800  0.50000000  0.25000000  1
  B  B4  1  0.16214000  0.17169900  0.52775200  1
  B  B5  1  0.83786000  0.17169900  0.02775200  1
  Sb  Sb0  1  0.36786300  0.72997700  0.53868100  1
  Sb  Sb1  1  0.63213700  0.72997700  0.03868100  1
  Sb  Sb2  1  0.36786300  0.27002300  0.96131900  1
  Sb  Sb3  1  0.63213700  0.27002300  0.46131900  1
  O  O0  1  0.29745000  0.97783700  0.91418000  1
  O  O1  1  0.70255000  0.97783700  0.41418000  1
  O  O2  1  0.95842500  0.74700100  0.93318100  1
  O  O3  1  0.04157500  0.74700100  0.43318100  1
  O  O4  1  0.75224400  0.75989000  0.56689100  1
  O  O5  1  0.24775600  0.75989000  0.06689100  1
  O  O6  1  0.24431800  0.60320800  0.67445800  1
  O  O7  1  0.75568200  0.60320800  0.17445800  1
  O  O8  1  0.62927800  0.50000000  0.75000000  1
  O  O9  1  0.37072200  0.50000000  0.25000000  1
  O  O10  1  0.24431800  0.39679200  0.82554200  1
  O  O11  1  0.75568200  0.39679200  0.32554200  1
  O  O12  1  0.75224400  0.24011000  0.93310900  1
  O  O13  1  0.24775600  0.24011000  0.43310900  1
  O  O14  1  0.95842500  0.25299900  0.56681900  1
  O  O15  1  0.04157500  0.25299900  0.06681900  1
  O  O16  1  0.29745000  0.02216300  0.58582000  1
  O  O17  1  0.70255000  0.02216300  0.08582000  1
loop_
_geom_bond_atom_site_label_1
_geom_bond_atom_site_label_2
_geom_bond_distance
_geom_bond_site_symmetry_2
Li0 O12 1.979652 1_555
Li0 O8 1.999906 1_555
Li0 O2 2.030544 1_555
Li0 O10 2.139385 1_655
Li1 O4 1.979652 1_555
Li1 O8 1.999906 1_555
Li1 O14 2.030544 1_555
Li1 O6 2.139385 1_655
Li2 O13 1.979652 1_555
Li2 O9 1.999906 1_555
Li2 O3 2.030544 1_555
Li2 O11 2.139385 1_455
Li3 O5 1.979652 1_555
Li3 O9 1.999906 1_555
Li3 O15 2.030544 1_555
Li3 O7 2.139385 1_455
B0 O2 1.366634 1_455
B0 O5 1.386439 1_556
B0 O0 1.417708 1_555
B1 O3 1.366634 1_655
B1 O4 1.386439 1_555
B1 O1 1.417708 1_555
B2 O8 1.344457 1_555
B2 O6 1.427067 1_555
B2 O10 1.427067 1_555
B3 O9 1.344457 1_555
B3 O7 1.427067 1_555
B3 O11 1.427067 1_555
B4 O14 1.366634 1_455
B4 O13 1.386439 1_555
B4 O16 1.417708 1_555
B5 O15 1.366634 1_655
B5 O12 1.386439 1_554
B5 O17 1.417708 1_555
O0 Sb2 2.028395 1_565
O0 Rb0 3.487155 1_565
O1 Sb3 2.028395 1_565
O1 Rb1 3.487155 1_565
O2 Sb1 2.299390 1_556
O2 Rb0 3.003469 1_565
O3 Sb0 2.299390 1_555
O3 Rb1 3.003469 1_565
O4 Sb0 2.202952 1_555
O4 Rb0 2.911924 1_565
O5 Sb1 2.202952 1_555
O5 Rb1 2.911924 1_565
O6 Sb0 2.048503 1_555
O7 Sb1 2.048503 1_555
O8 Rb0 3.308424 1_555
O8 Rb0 3.308424 1_565
O9 Rb1 3.308424 1_555
O9 Rb1 3.308424 1_565
O10 Sb2 2.048503 1_555
O11 Sb3 2.048503 1_555
O12 Sb2 2.202952 1_555
O12 Rb0 2.911924 1_555
O13 Sb3 2.202952 1_555
O13 Rb1 2.911924 1_555
O14 Sb3 2.299390 1_555
O14 Rb0 3.003469 1_555
O15 Sb2 2.299390 1_554
O15 Rb1 3.003469 1_555
O16 Sb0 2.028395 1_545
O16 Rb0 3.487155 1_555
O17 Sb1 2.028395 1_545
O17 Rb1 3.487155 1_555
