# generated using pymatgen
data_La3Ti4O12
_symmetry_space_group_name_H-M   'P 1'
_cell_length_a   5.55200867
_cell_length_b   5.55200867
_cell_length_c   7.83632700
_cell_angle_alpha   90.00000000
_cell_angle_beta   90.00000000
_cell_angle_gamma   90.68906614
_symmetry_Int_Tables_number   1
_chemical_formula_structural   La3Ti4O12
_chemical_formula_sum   'La3 Ti4 O12'
_cell_volume   241.53574591
_cell_formula_units_Z   1
loop_
 _symmetry_equiv_pos_site_id
 _symmetry_equiv_pos_as_xyz
  1  'x, y, z'
loop_
 _atom_site_type_symbol
 _atom_site_label
 _atom_site_symmetry_multiplicity
 _atom_site_fract_x
 _atom_site_fract_y
 _atom_site_fract_z
 _atom_site_occupancy
  La  La0  1  0.25736500  0.74263500  0.00000000  1
  La  La1  1  0.25634600  0.74365400  0.50000000  1
  La  La2  1  0.75026700  0.24973300  0.00000000  1
  Ti  Ti0  1  0.25115400  0.24825100  0.74285200  1
  Ti  Ti1  1  0.25115400  0.24825100  0.25714800  1
  Ti  Ti2  1  0.75174900  0.74884600  0.74285200  1
  Ti  Ti3  1  0.75174900  0.74884600  0.25714800  1
  O  O0  1  0.99939300  0.00060700  0.80079600  1
  O  O1  1  0.99939300  0.00060700  0.19920400  1
  O  O2  1  0.00644700  0.50824900  0.76400300  1
  O  O3  1  0.00644700  0.50824900  0.23599700  1
  O  O4  1  0.22270900  0.20527100  0.50000000  1
  O  O5  1  0.29899600  0.29035600  0.00000000  1
  O  O6  1  0.49175100  0.99355300  0.76400300  1
  O  O7  1  0.49175100  0.99355300  0.23599700  1
  O  O8  1  0.48207900  0.51792100  0.72062800  1
  O  O9  1  0.48207900  0.51792100  0.27937200  1
  O  O10  1  0.70964400  0.70100400  0.00000000  1
  O  O11  1  0.79472900  0.77729100  0.50000000  1
loop_
_geom_bond_atom_site_label_1
_geom_bond_atom_site_label_2
_geom_bond_distance
_geom_bond_site_symmetry_2
La0 O10 2.524439 1_555
La0 O5 2.524439 1_555
La0 O1 2.566886 1_465
La0 O0 2.566886 1_464
La0 O3 2.647760 1_555
La0 O7 2.647760 1_555
La0 O2 2.647760 1_554
La0 O6 2.647760 1_554
La0 O9 2.818393 1_555
La0 O8 2.818393 1_554
La0 O10 3.046950 1_455
La0 O5 3.046950 1_565
La1 O8 2.483606 1_555
La1 O9 2.483606 1_555
La1 O11 2.571936 1_455
La1 O4 2.571936 1_565
La1 O2 2.805270 1_555
La1 O3 2.805270 1_555
La1 O6 2.805270 1_555
La1 O7 2.805270 1_555
La1 O4 2.992693 1_555
La1 O11 2.992693 1_555
La1 O0 3.110538 1_465
La1 O1 3.110538 1_465
La2 O1 2.511778 1_555
La2 O0 2.511778 1_554
La2 O5 2.518291 1_555
La2 O10 2.518291 1_555
La2 O7 2.730203 1_545
La2 O3 2.730203 1_655
La2 O6 2.730203 1_544
La2 O2 2.730203 1_654
La2 O9 3.046355 1_555
La2 O8 3.046355 1_554
La2 O10 3.052179 1_545
La2 O5 3.052179 1_655
O0 Ti2 2.001037 1_545
O0 Ti0 2.001037 1_655
O1 Ti3 2.001037 1_545
O1 Ti1 2.001037 1_655
O2 Ti2 1.963898 1_455
O2 Ti0 2.001050 1_555
O3 Ti3 1.963898 1_455
O3 Ti1 2.001050 1_555
O4 Ti0 1.924225 1_555
O4 Ti1 1.924225 1_555
O5 Ti1 2.045561 1_555
O5 Ti0 2.045561 1_554
O6 Ti0 1.963898 1_565
O6 Ti2 2.001050 1_555
O7 Ti1 1.963898 1_565
O7 Ti3 2.001050 1_555
O8 Ti0 1.967123 1_555
O8 Ti2 1.967123 1_555
O9 Ti1 1.967123 1_555
O9 Ti3 1.967123 1_555
O10 Ti3 2.045561 1_555
O10 Ti2 2.045561 1_554
O11 Ti2 1.924225 1_555
O11 Ti3 1.924225 1_555
