# generated using pymatgen
data_Li2Fe2Si2O7
_symmetry_space_group_name_H-M   'P 1'
_cell_length_a   5.36926154
_cell_length_b   9.64543751
_cell_length_c   9.31347277
_cell_angle_alpha   118.65330735
_cell_angle_beta   90.03129067
_cell_angle_gamma   104.75610944
_symmetry_Int_Tables_number   1
_chemical_formula_structural   Li2Fe2Si2O7
_chemical_formula_sum   'Li4 Fe4 Si4 O14'
_cell_volume   405.00666381
_cell_formula_units_Z   2
loop_
 _symmetry_equiv_pos_site_id
 _symmetry_equiv_pos_as_xyz
  1  'x, y, z'
loop_
 _atom_site_type_symbol
 _atom_site_label
 _atom_site_symmetry_multiplicity
 _atom_site_fract_x
 _atom_site_fract_y
 _atom_site_fract_z
 _atom_site_occupancy
  Li  Li0  1  0.61576100  0.22310900  0.27901900  1
  Li  Li1  1  0.11577400  0.22314500  0.77903200  1
  Li  Li2  1  0.38428300  0.77696800  0.72112400  1
  Li  Li3  1  0.88427300  0.77694100  0.22110500  1
  Fe  Fe0  1  0.88280200  0.77286000  0.55254000  1
  Fe  Fe1  1  0.11715100  0.22716800  0.44763100  1
  Fe  Fe2  1  0.38281800  0.77282600  0.05252700  1
  Fe  Fe3  1  0.61713200  0.22716400  0.94763700  1
  Si  Si0  1  0.15094700  0.29764200  0.14935400  1
  Si  Si1  1  0.65097700  0.29767800  0.64936100  1
  Si  Si2  1  0.84895200  0.70226000  0.85050300  1
  Si  Si3  1  0.34892300  0.70221700  0.35049400  1
  O  O0  1  0.74990000  0.50002800  0.74947300  1
  O  O1  1  0.24984200  0.49998200  0.24949500  1
  O  O2  1  0.16910500  0.76302400  0.87874700  1
  O  O3  1  0.66907700  0.76297400  0.37872600  1
  O  O4  1  0.73265300  0.76876800  0.73954500  1
  O  O5  1  0.23260700  0.76870300  0.23951700  1
  O  O6  1  0.76123300  0.23158300  0.47047100  1
  O  O7  1  0.26121100  0.23156700  0.97046600  1
  O  O8  1  0.23853700  0.76780500  0.52934300  1
  O  O9  1  0.73854600  0.76782200  0.02935500  1
  O  O10  1  0.26768700  0.23195300  0.26093900  1
  O  O11  1  0.76771300  0.23201000  0.76097000  1
  O  O12  1  0.83083500  0.23687200  0.12129900  1
  O  O13  1  0.33086700  0.23693000  0.62132900  1
loop_
_geom_bond_atom_site_label_1
_geom_bond_atom_site_label_2
_geom_bond_distance
_geom_bond_site_symmetry_2
Li0 O12 1.902540 1_555
Li0 O6 1.903244 1_555
Li0 O10 1.903435 1_555
Li1 O13 1.902533 1_555
Li1 O7 1.903271 1_555
Li1 O11 1.903416 1_455
Li2 O2 1.902640 1_555
Li2 O8 1.903251 1_555
Li2 O4 1.903273 1_555
Li3 O3 1.902745 1_555
Li3 O9 1.903161 1_555
Li3 O5 1.903194 1_655
Fe0 O8 1.932634 1_655
Fe0 O4 1.932912 1_555
Fe0 O3 1.934089 1_555
Fe1 O6 1.931906 1_455
Fe1 O10 1.933435 1_555
Fe1 O13 1.933784 1_555
Fe2 O9 1.932463 1_555
Fe2 O5 1.933025 1_555
Fe2 O2 1.934202 1_554
Fe3 O7 1.931886 1_555
Fe3 O11 1.933528 1_555
Fe3 O12 1.933734 1_556
O0 Si2 1.638266 1_555
O0 Si1 1.639197 1_555
O1 Si3 1.638293 1_555
O1 Si0 1.639113 1_555
O2 Si2 1.645005 1_455
O3 Si3 1.645010 1_555
O4 Si2 1.645747 1_555
O5 Si3 1.645767 1_555
O6 Si1 1.645428 1_555
O7 Si0 1.645434 1_556
O8 Si3 1.645471 1_555
O9 Si2 1.645545 1_554
O10 Si0 1.645430 1_555
O11 Si1 1.645443 1_555
O12 Si0 1.644817 1_655
O13 Si1 1.644806 1_555
