# generated using pymatgen
data_Li2NiP2O7
_symmetry_space_group_name_H-M   'P 1'
_cell_length_a   7.71867821
_cell_length_b   8.38088233
_cell_length_c   8.66280012
_cell_angle_alpha   74.65702770
_cell_angle_beta   102.70348996
_cell_angle_gamma   100.25167798
_symmetry_Int_Tables_number   1
_chemical_formula_structural   Li2NiP2O7
_chemical_formula_sum   'Li8 Ni4 P8 O28'
_cell_volume   522.89809578
_cell_formula_units_Z   4
loop_
 _symmetry_equiv_pos_site_id
 _symmetry_equiv_pos_as_xyz
  1  'x, y, z'
loop_
 _atom_site_type_symbol
 _atom_site_label
 _atom_site_symmetry_multiplicity
 _atom_site_fract_x
 _atom_site_fract_y
 _atom_site_fract_z
 _atom_site_occupancy
  Li  Li0  1  0.79216100  0.00128400  0.45924700  1
  Li  Li1  1  0.29213700  0.50131200  0.45924600  1
  Li  Li2  1  0.70790500  0.49875800  0.54074700  1
  Li  Li3  1  0.20779600  0.99860400  0.54083200  1
  Li  Li4  1  0.82375100  0.88084400  0.84292500  1
  Li  Li5  1  0.32375500  0.38075200  0.84302600  1
  Li  Li6  1  0.67629300  0.61930900  0.15701700  1
  Li  Li7  1  0.17629700  0.11921700  0.15695200  1
  Ni  Ni0  1  0.09779500  0.66104400  0.73365200  1
  Ni  Ni1  1  0.90243900  0.33881500  0.26663600  1
  Ni  Ni2  1  0.59779100  0.16111500  0.73357500  1
  Ni  Ni3  1  0.40220400  0.83894600  0.26676700  1
  P  P0  1  0.78956500  0.99611100  0.13017800  1
  P  P1  1  0.28951900  0.49606600  0.13021800  1
  P  P2  1  0.71055300  0.50396500  0.86989900  1
  P  P3  1  0.21034000  0.00387300  0.86965600  1
  P  P4  1  0.98597600  0.72503200  0.35103700  1
  P  P5  1  0.48600900  0.22502600  0.35099300  1
  P  P6  1  0.51402700  0.77497200  0.64900200  1
  P  P7  1  0.01399000  0.27500000  0.64895600  1
  O  O0  1  0.06837300  0.86363900  0.82009600  1
  O  O1  1  0.56841100  0.36345700  0.82110900  1
  O  O2  1  0.43151800  0.63651000  0.17933900  1
  O  O3  1  0.93170400  0.13652700  0.17905200  1
  O  O4  1  0.67602500  0.21589600  0.33941900  1
  O  O5  1  0.17604300  0.71589000  0.33954300  1
  O  O6  1  0.82393700  0.28409400  0.66050000  1
  O  O7  1  0.32397300  0.78407800  0.66051900  1
  O  O8  1  0.22324100  0.51663200  0.94805900  1
  O  O9  1  0.72342800  0.01686500  0.94802400  1
  O  O10  1  0.27615200  0.98270400  0.05190300  1
  O  O11  1  0.77682800  0.48338800  0.05200800  1
  O  O12  1  0.97470600  0.81285900  0.48299400  1
  O  O13  1  0.47471000  0.31280900  0.48300600  1
  O  O14  1  0.52530900  0.68718400  0.51698600  1
  O  O15  1  0.02527600  0.18726200  0.51693000  1
  O  O16  1  0.90019400  0.83420800  0.16947500  1
  O  O17  1  0.40025800  0.33423100  0.16948900  1
  O  O18  1  0.59980300  0.66580600  0.83052400  1
  O  O19  1  0.09975900  0.16578000  0.83044800  1
  O  O20  1  0.63968700  0.94224600  0.63965000  1
  O  O21  1  0.13968100  0.44225500  0.63970300  1
  O  O22  1  0.86033100  0.55776800  0.36036000  1
  O  O23  1  0.36027400  0.05773500  0.36020900  1
  O  O24  1  0.65046800  0.93988000  0.23927000  1
  O  O25  1  0.15053100  0.43994000  0.23937500  1
  O  O26  1  0.84951100  0.56013400  0.76069700  1
  O  O27  1  0.34956800  0.06017700  0.76075000  1
loop_
_geom_bond_atom_site_label_1
_geom_bond_atom_site_label_2
_geom_bond_distance
_geom_bond_site_symmetry_2
Li0 O20 2.065111 1_545
Li0 O4 2.071909 1_555
Li0 O24 2.119988 1_545
Li0 O15 2.221529 1_655
Li0 O12 2.239194 1_545
Li1 O21 2.065388 1_555
Li1 O5 2.071332 1_555
Li1 O25 2.118919 1_555
Li1 O14 2.221376 1_555
Li1 O13 2.239845 1_555
Li2 O22 2.064755 1_555
Li2 O6 2.071766 1_555
Li2 O26 2.119513 1_555
Li2 O13 2.221889 1_555
Li2 O14 2.239462 1_555
Li3 O23 2.066644 1_565
Li3 O7 2.071259 1_555
Li3 O27 2.120272 1_565
Li3 O12 2.220515 1_455
Li3 O15 2.240289 1_565
Li4 O0 1.975164 1_655
Li4 O9 1.975255 1_565
Li4 O20 2.016070 1_555
Li4 O18 2.271434 1_555
Li5 O1 1.973037 1_555
Li5 O8 1.974826 1_555
Li5 O21 2.016510 1_555
Li5 O19 2.271427 1_555
Li6 O2 1.974882 1_555
Li6 O11 1.975042 1_555
Li6 O22 2.016516 1_555
Li6 O16 2.270477 1_555
Li7 O3 1.973106 1_455
Li7 O10 1.975975 1_545
Li7 O23 2.015694 1_555
Li7 O17 2.271467 1_555
Ni0 O26 1.989604 1_455
Ni0 O7 2.003096 1_555
Ni0 O8 2.070927 1_555
Ni0 O0 2.092893 1_555
Ni0 O21 2.290332 1_555
Ni0 O12 2.301609 1_455
Ni1 O25 1.989059 1_655
Ni1 O4 2.003253 1_555
Ni1 O11 2.073209 1_555
Ni1 O3 2.096019 1_555
Ni1 O22 2.291051 1_555
Ni1 O15 2.297964 1_655
Ni2 O27 1.989471 1_555
Ni2 O6 2.002572 1_555
Ni2 O9 2.071129 1_555
Ni2 O1 2.096471 1_555
Ni2 O20 2.290852 1_545
Ni2 O13 2.300663 1_555
Ni3 O24 1.990362 1_555
Ni3 O5 2.001888 1_555
Ni3 O10 2.072865 1_555
Ni3 O2 2.096480 1_555
Ni3 O23 2.287830 1_565
Ni3 O14 2.298794 1_555
O0 P3 1.538859 1_565
O1 P2 1.539037 1_555
O2 P1 1.539008 1_555
O3 P0 1.538710 1_545
O4 P5 1.508548 1_555
O5 P4 1.508761 1_455
O6 P7 1.508683 1_655
O7 P6 1.508647 1_555
O8 P1 1.521161 1_556
O9 P0 1.520822 1_546
O10 P3 1.520909 1_564
O11 P2 1.520744 1_554
O12 P4 1.538790 1_555
O13 P5 1.539033 1_555
O14 P6 1.539045 1_555
O15 P7 1.538844 1_555
O16 P0 1.651160 1_555
O16 P4 1.656946 1_555
O17 P1 1.651223 1_555
O17 P5 1.656608 1_555
O18 P2 1.651206 1_555
O18 P6 1.656654 1_555
O19 P3 1.651056 1_555
O19 P7 1.656621 1_555
O20 P6 1.550201 1_555
O21 P7 1.550233 1_555
O22 P4 1.550093 1_555
O23 P5 1.550646 1_555
O24 P0 1.516040 1_555
O25 P1 1.515751 1_555
O26 P2 1.515847 1_555
O27 P3 1.515729 1_555
