# generated using pymatgen
data_Mn(CoO2)4
_symmetry_space_group_name_H-M   'P 1'
_cell_length_a   5.68251300
_cell_length_b   5.69120971
_cell_length_c   5.71390876
_cell_angle_alpha   91.12209479
_cell_angle_beta   119.72168614
_cell_angle_gamma   117.60242095
_symmetry_Int_Tables_number   1
_chemical_formula_structural   Mn(CoO2)4
_chemical_formula_sum   'Mn1 Co4 O8'
_cell_volume   134.54642182
_cell_formula_units_Z   1
loop_
 _symmetry_equiv_pos_site_id
 _symmetry_equiv_pos_as_xyz
  1  'x, y, z'
loop_
 _atom_site_type_symbol
 _atom_site_label
 _atom_site_symmetry_multiplicity
 _atom_site_fract_x
 _atom_site_fract_y
 _atom_site_fract_z
 _atom_site_occupancy
  Mn  Mn0  1  0.50000000  0.00000000  0.50000000  1
  Co  Co0  1  0.00000000  0.50000000  0.50000000  1
  Co  Co1  1  0.00000000  0.00000000  0.00000000  1
  Co  Co2  1  0.50000000  0.00000000  0.00000000  1
  Co  Co3  1  0.00000000  0.00000000  0.50000000  1
  O  O0  1  0.54397500  0.80222600  0.26654400  1
  O  O1  1  0.03666500  0.78985200  0.27306900  1
  O  O2  1  0.52613400  0.79058200  0.76245700  1
  O  O3  1  0.04538700  0.79357600  0.76261300  1
  O  O4  1  0.95461300  0.20642400  0.23738700  1
  O  O5  1  0.47386600  0.20941800  0.23754300  1
  O  O6  1  0.96333500  0.21014800  0.72693100  1
  O  O7  1  0.45602500  0.19777400  0.73345600  1
loop_
_geom_bond_atom_site_label_1
_geom_bond_atom_site_label_2
_geom_bond_distance
_geom_bond_site_symmetry_2
Mn0 O7 1.908176 1_555
Mn0 O0 1.908176 1_545
Mn0 O1 1.918319 1_545
Mn0 O6 1.918319 1_555
Mn0 O5 1.924758 1_555
Mn0 O2 1.924758 1_545
Co0 O3 2.056326 1_555
Co0 O4 2.056326 1_455
Co0 O1 2.116393 1_555
Co0 O6 2.116393 1_455
Co0 O2 2.190396 1_555
Co0 O5 2.190396 1_455
Co1 O4 1.962593 1_455
Co1 O3 1.962593 1_544
Co1 O5 1.962711 1_555
Co1 O2 1.962711 1_444
Co1 O1 1.972303 1_545
Co1 O6 1.972303 1_454
Co2 O3 1.882645 1_544
Co2 O4 1.882645 1_555
Co2 O2 1.893497 1_544
Co2 O5 1.893497 1_555
Co2 O7 1.897187 1_554
Co2 O0 1.897187 1_545
Co3 O7 1.890029 1_555
Co3 O0 1.890029 1_445
Co3 O6 1.895576 1_455
Co3 O1 1.895576 1_545
Co3 O4 1.914260 1_455
Co3 O3 1.914260 1_545
