# generated using pymatgen
data_Fe3P8H26NO36
_symmetry_space_group_name_H-M   'P 1'
_cell_length_a   9.90011795
_cell_length_b   9.90011795
_cell_length_c   16.95250765
_cell_angle_alpha   88.96307732
_cell_angle_beta   88.96307732
_cell_angle_gamma   62.17942881
_symmetry_Int_Tables_number   1
_chemical_formula_structural   Fe3P8H26NO36
_chemical_formula_sum   'Fe6 P16 H52 N2 O72'
_cell_volume   1469.17334866
_cell_formula_units_Z   2
loop_
 _symmetry_equiv_pos_site_id
 _symmetry_equiv_pos_as_xyz
  1  'x, y, z'
loop_
 _atom_site_type_symbol
 _atom_site_label
 _atom_site_symmetry_multiplicity
 _atom_site_fract_x
 _atom_site_fract_y
 _atom_site_fract_z
 _atom_site_occupancy
  Fe  Fe0  1  0.23454800  0.18032000  0.75638400  1
  Fe  Fe1  1  0.81968000  0.76545200  0.74361600  1
  Fe  Fe2  1  0.76545200  0.81968000  0.24361600  1
  Fe  Fe3  1  0.18032000  0.23454800  0.25638400  1
  Fe  Fe4  1  0.65300700  0.34699300  0.75000000  1
  Fe  Fe5  1  0.34699300  0.65300700  0.25000000  1
  P  P0  1  0.89299000  0.41994500  0.86916300  1
  P  P1  1  0.58005500  0.10701000  0.63083700  1
  P  P2  1  0.10701000  0.58005500  0.13083700  1
  P  P3  1  0.41994500  0.89299000  0.36916300  1
  P  P4  1  0.98299200  0.13194900  0.64755800  1
  P  P5  1  0.86805100  0.01700800  0.85244200  1
  P  P6  1  0.01700800  0.86805100  0.35244200  1
  P  P7  1  0.13194900  0.98299200  0.14755800  1
  P  P8  1  0.48852100  0.86841300  0.85030800  1
  P  P9  1  0.13158700  0.51147900  0.64969200  1
  P  P10  1  0.51147900  0.13158700  0.14969200  1
  P  P11  1  0.86841300  0.48852100  0.35030800  1
  P  P12  1  0.36645900  0.37094800  0.86900300  1
  P  P13  1  0.62905200  0.63354100  0.63099700  1
  P  P14  1  0.63354100  0.62905200  0.13099700  1
  P  P15  1  0.37094800  0.36645900  0.36900300  1
  H  H0  1  0.48599000  0.14960700  0.01939100  1
  H  H1  1  0.85039300  0.51401000  0.48060900  1
  H  H2  1  0.51401000  0.85039300  0.98060900  1
  H  H3  1  0.14960700  0.48599000  0.51939100  1
  H  H4  1  0.83790600  0.97678200  0.65118700  1
  H  H5  1  0.02321800  0.16209400  0.84881300  1
  H  H6  1  0.16209400  0.02321800  0.34881300  1
  H  H7  1  0.97678200  0.83790600  0.15118700  1
  H  H8  1  0.91272400  0.21507900  0.52037600  1
  H  H9  1  0.78492100  0.08727600  0.97962400  1
  H  H10  1  0.08727600  0.78492100  0.47962400  1
  H  H11  1  0.21507900  0.91272400  0.02037600  1
  H  H12  1  0.24805100  0.22047700  0.95588900  1
  H  H13  1  0.77952300  0.75194900  0.54411100  1
  H  H14  1  0.75194900  0.77952300  0.04411100  1
  H  H15  1  0.22047700  0.24805100  0.45588900  1
  H  H16  1  0.60337200  0.61027200  0.84416100  1
  H  H17  1  0.38972800  0.39662800  0.65583900  1
  H  H18  1  0.39662800  0.38972800  0.15583900  1
  H  H19  1  0.61027200  0.60337200  0.34416100  1
  H  H20  1  0.55843300  0.29437700  0.95715900  1
  H  H21  1  0.70562300  0.44156700  0.54284100  1
  H  H22  1  0.44156700  0.70562300  0.04284100  1
  H  H23  1  0.29437700  0.55843300  0.45715900  1
  H  H24  1  0.04506400  0.53523100  0.85558400  1
  H  H25  1  0.46476900  0.95493600  0.64441600  1
  H  H26  1  0.95493600  0.46476900  0.14441600  1
  H  H27  1  0.53523100  0.04506400  0.35558400  1
  H  H28  1  0.16452700  0.86084800  0.82378200  1
  H  H29  1  0.13915200  0.83547300  0.67621800  1
  H  H30  1  0.83547300  0.13915200  0.17621800  1
  H  H31  1  0.86084800  0.16452700  0.32378200  1
  H  H32  1  0.30782500  0.59901700  0.73243500  1
  H  H33  1  0.40098300  0.69217500  0.76756500  1
  H  H34  1  0.69217500  0.40098300  0.26756500  1
  H  H35  1  0.59901700  0.30782500  0.23243500  1
  H  H36  1  0.32309600  0.16619900  0.53078400  1
  H  H37  1  0.83380100  0.67690400  0.96921600  1
  H  H38  1  0.67690400  0.83380100  0.46921600  1
  H  H39  1  0.16619900  0.32309600  0.03078400  1
  H  H40  1  0.11251700  0.18834400  0.53249800  1
  H  H41  1  0.81165600  0.88748300  0.96750200  1
  H  H42  1  0.88748300  0.81165600  0.46750200  1
  H  H43  1  0.18834400  0.11251700  0.03249800  1
  H  H44  1  0.77791700  0.32329500  0.97368900  1
  H  H45  1  0.67670500  0.22208300  0.52631100  1
  H  H46  1  0.22208300  0.67670500  0.02631100  1
  H  H47  1  0.32329500  0.77791700  0.47368900  1
  H  H48  1  0.71685500  0.31007400  0.05701100  1
  H  H49  1  0.68992600  0.28314500  0.44298900  1
  H  H50  1  0.28314500  0.68992600  0.94298900  1
  H  H51  1  0.31007400  0.71685500  0.55701100  1
  N  N0  1  0.29598300  0.70401700  0.75000000  1
  N  N1  1  0.70401700  0.29598300  0.25000000  1
  O  O0  1  0.44846100  0.05830000  0.66473400  1
  O  O1  1  0.94170000  0.55153900  0.83526600  1
  O  O2  1  0.55153900  0.94170000  0.33526600  1
  O  O3  1  0.05830000  0.44846100  0.16473400  1
  O  O4  1  0.03700200  0.26157900  0.83219500  1
  O  O5  1  0.73842100  0.96299800  0.66780500  1
  O  O6  1  0.96299800  0.73842100  0.16780500  1
  O  O7  1  0.26157900  0.03700200  0.33219500  1
  O  O8  1  0.74635200  0.45748800  0.81912700  1
  O  O9  1  0.54251200  0.25364800  0.68087300  1
  O  O10  1  0.25364800  0.54251200  0.18087300  1
  O  O11  1  0.45748800  0.74635200  0.31912700  1
  O  O12  1  0.19702700  0.75008900  0.81445100  1
  O  O13  1  0.24991100  0.80297300  0.68554900  1
  O  O14  1  0.80297300  0.24991100  0.18554900  1
  O  O15  1  0.75008900  0.19702700  0.31445100  1
  O  O16  1  0.73789600  0.16293600  0.82072100  1
  O  O17  1  0.83706400  0.26210400  0.67927900  1
  O  O18  1  0.26210400  0.83706400  0.17927900  1
  O  O19  1  0.16293600  0.73789600  0.32072100  1
  O  O20  1  0.13015600  0.10479500  0.68525900  1
  O  O21  1  0.89520500  0.86984400  0.81474100  1
  O  O22  1  0.86984400  0.89520500  0.31474100  1
  O  O23  1  0.10479500  0.13015600  0.18525900  1
  O  O24  1  0.97146900  0.98538600  0.63431100  1
  O  O25  1  0.01461400  0.02853100  0.86568900  1
  O  O26  1  0.02853100  0.01461400  0.36568900  1
  O  O27  1  0.98538600  0.97146900  0.13431100  1
  O  O28  1  0.00249100  0.18992900  0.55587700  1
  O  O29  1  0.81007100  0.99750900  0.94412300  1
  O  O30  1  0.99750900  0.81007100  0.44412300  1
  O  O31  1  0.18992900  0.00249100  0.05587700  1
  O  O32  1  0.14529300  0.36594800  0.68755600  1
  O  O33  1  0.63405200  0.85470700  0.81244400  1
  O  O34  1  0.85470700  0.63405200  0.31244400  1
  O  O35  1  0.36594800  0.14529300  0.18755600  1
  O  O36  1  0.33992700  0.97157400  0.80848600  1
  O  O37  1  0.02842600  0.66007300  0.69151400  1
  O  O38  1  0.66007300  0.02842600  0.19151400  1
  O  O39  1  0.97157400  0.33992700  0.30848600  1
  O  O40  1  0.46704300  0.92869800  0.93788600  1
  O  O41  1  0.07130200  0.53295700  0.56211400  1
  O  O42  1  0.53295700  0.07130200  0.06211400  1
  O  O43  1  0.92869800  0.46704300  0.43788600  1
  O  O44  1  0.50035800  0.70279100  0.85749900  1
  O  O45  1  0.29720900  0.49964200  0.64250100  1
  O  O46  1  0.49964200  0.29720900  0.14250100  1
  O  O47  1  0.70279100  0.50035800  0.35749900  1
  O  O48  1  0.34097600  0.24805400  0.82607300  1
  O  O49  1  0.75194600  0.65902400  0.67392700  1
  O  O50  1  0.65902400  0.75194600  0.17392700  1
  O  O51  1  0.24805400  0.34097600  0.32607300  1
  O  O52  1  0.46255100  0.42816300  0.81946000  1
  O  O53  1  0.57183700  0.53744900  0.68054000  1
  O  O54  1  0.53744900  0.57183700  0.18054000  1
  O  O55  1  0.42816300  0.46255100  0.31946000  1
  O  O56  1  0.47009000  0.27681400  0.94417800  1
  O  O57  1  0.72318600  0.52991000  0.55582200  1
  O  O58  1  0.52991000  0.72318600  0.05582200  1
  O  O59  1  0.27681400  0.47009000  0.44417800  1
  O  O60  1  0.21641400  0.49457700  0.90059200  1
  O  O61  1  0.50542300  0.78358600  0.59940800  1
  O  O62  1  0.78358600  0.50542300  0.09940800  1
  O  O63  1  0.49457700  0.21641400  0.40059200  1
  O  O64  1  0.23465200  0.17876500  0.50049200  1
  O  O65  1  0.82123500  0.76534800  0.99950800  1
  O  O66  1  0.76534800  0.82123500  0.49950800  1
  O  O67  1  0.17876500  0.23465200  0.00049200  1
  O  O68  1  0.72524500  0.27361000  0.00259100  1
  O  O69  1  0.72639000  0.27475500  0.49740900  1
  O  O70  1  0.27475500  0.72639000  0.99740900  1
  O  O71  1  0.27361000  0.72524500  0.50259100  1
loop_
_geom_bond_atom_site_label_1
_geom_bond_atom_site_label_2
_geom_bond_distance
_geom_bond_site_symmetry_2
Fe0 O48 1.920622 1_555
Fe0 O20 1.969777 1_555
Fe0 O32 1.990851 1_555
Fe0 O36 2.023428 1_545
Fe0 O4 2.145144 1_555
Fe0 O0 2.432922 1_555
Fe1 O49 1.920622 1_555
Fe1 O21 1.969777 1_555
Fe1 O33 1.990851 1_555
Fe1 O37 2.023428 1_655
Fe1 O5 2.145144 1_555
Fe1 O1 2.432922 1_555
Fe2 O50 1.920622 1_555
Fe2 O22 1.969777 1_555
Fe2 O34 1.990851 1_555
Fe2 O38 2.023428 1_565
Fe2 O6 2.145144 1_555
Fe2 O2 2.432922 1_555
Fe3 O51 1.920622 1_555
Fe3 O23 1.969777 1_555
Fe3 O35 1.990851 1_555
Fe3 O39 2.023428 1_455
Fe3 O7 2.145144 1_555
Fe3 O3 2.432922 1_555
Fe4 O16 1.997999 1_555
Fe4 O17 1.997999 1_555
Fe4 O53 2.031539 1_555
Fe4 O52 2.031539 1_555
Fe4 O8 2.110246 1_555
Fe4 O9 2.110246 1_555
Fe5 O19 1.997999 1_555
Fe5 O18 1.997999 1_555
Fe5 O54 2.031539 1_555
Fe5 O55 2.031539 1_555
Fe5 O11 2.110246 1_555
Fe5 O10 2.110246 1_555
H0 O42 0.998572 1_555
H1 O43 0.998572 1_555
H2 O40 0.998572 1_555
H3 O41 0.998572 1_555
H4 O5 1.087226 1_555
H4 O24 1.388565 1_555
H5 O4 1.087226 1_555
H5 O25 1.388565 1_555
H6 O7 1.087226 1_555
H6 O26 1.388565 1_555
H7 O6 1.087226 1_555
H7 O27 1.388565 1_555
H8 O28 1.010635 1_655
H9 O29 1.010635 1_545
H10 O30 1.010635 1_455
H11 O31 1.010635 1_565
H12 O67 0.978346 1_556
H13 O66 0.978346 1_555
H14 O65 0.978346 1_554
H15 O64 0.978346 1_555
H16 O44 1.028304 1_555
H16 O8 1.573112 1_555
H17 O45 1.028304 1_555
H17 O9 1.573112 1_555
H18 O46 1.028304 1_555
H18 O10 1.573112 1_555
H19 O47 1.028304 1_555
H19 O11 1.573112 1_555
H20 O56 0.996941 1_555
H21 O57 0.996941 1_555
H22 O58 0.996941 1_555
H23 O59 0.996941 1_555
H24 O1 1.023920 1_455
H25 O0 1.023920 1_565
H26 O3 1.023920 1_655
H27 O2 1.023920 1_545
H28 O12 1.003014 1_555
H29 O13 1.003014 1_555
H30 O14 1.003014 1_555
H31 O15 1.003014 1_555
H32 N0 1.038838 1_555
H33 N0 1.038838 1_555
H34 N1 1.038838 1_555
H35 N1 1.038838 1_555
H36 O64 0.978855 1_555
H37 O65 0.978855 1_555
H38 O66 0.978855 1_555
H39 O67 0.978855 1_555
H40 O28 1.145636 1_555
H40 O64 1.279265 1_555
H41 O29 1.145636 1_555
H41 O65 1.279265 1_555
H42 O30 1.145636 1_555
H42 O66 1.279265 1_555
H43 O31 1.145636 1_555
H43 O67 1.279265 1_555
H44 O68 0.987615 1_556
H45 O69 0.987615 1_555
H46 O70 0.987615 1_554
H47 O71 0.987615 1_555
H48 O68 0.984693 1_555
H49 O69 0.984693 1_555
H50 O70 0.984693 1_555
H51 O71 0.984693 1_555
N0 O12 1.387012 1_555
N0 O13 1.387012 1_555
N1 O15 1.387012 1_555
N1 O14 1.387012 1_555
O0 P1 1.676106 1_555
O1 P0 1.676106 1_555
O2 P3 1.676106 1_555
O3 P2 1.676106 1_555
O4 P0 1.673426 1_455
O5 P1 1.673426 1_565
O6 P2 1.673426 1_655
O7 P3 1.673426 1_545
O8 P0 1.579459 1_555
O9 P1 1.579459 1_555
O10 P2 1.579459 1_555
O11 P3 1.579459 1_555
O16 P5 1.515275 1_555
O17 P4 1.515275 1_555
O18 P7 1.515275 1_555
O19 P6 1.515275 1_555
O20 P4 1.505100 1_455
O21 P5 1.505100 1_565
O22 P6 1.505100 1_655
O23 P7 1.505100 1_545
O24 P4 1.528413 1_565
O25 P5 1.528413 1_455
O26 P6 1.528413 1_545
O27 P7 1.528413 1_655
O28 P4 1.686013 1_455
O29 P5 1.686013 1_565
O30 P6 1.686013 1_655
O31 P7 1.686013 1_545
O32 P9 1.514418 1_555
O33 P8 1.514418 1_555
O34 P11 1.514418 1_555
O35 P10 1.514418 1_555
O36 P8 1.522830 1_555
O37 P9 1.522830 1_555
O38 P10 1.522830 1_555
O39 P11 1.522830 1_555
O40 P8 1.583617 1_555
O41 P9 1.583617 1_555
O42 P10 1.583617 1_555
O43 P11 1.583617 1_555
O44 P8 1.590932 1_555
O45 P9 1.590932 1_555
O46 P10 1.590932 1_555
O47 P11 1.590932 1_555
O48 P12 1.548797 1_555
O49 P13 1.548797 1_555
O50 P14 1.548797 1_555
O51 P15 1.548797 1_555
O52 P12 1.545348 1_555
O53 P13 1.545348 1_555
O54 P14 1.545348 1_555
O55 P15 1.545348 1_555
O56 P12 1.630057 1_555
O57 P13 1.630057 1_555
O58 P14 1.630057 1_555
O59 P15 1.630057 1_555
O60 P12 1.513040 1_555
O61 P13 1.513040 1_555
O62 P14 1.513040 1_555
O63 P15 1.513040 1_555
