# generated using pymatgen
data_VP6(WO8)3
_symmetry_space_group_name_H-M   'P 1'
_cell_length_a   8.92477576
_cell_length_b   8.92477576
_cell_length_c   8.92477640
_cell_angle_alpha   58.98266933
_cell_angle_beta   58.98266933
_cell_angle_gamma   58.98266901
_symmetry_Int_Tables_number   1
_chemical_formula_structural   VP6(WO8)3
_chemical_formula_sum   'V1 P6 W3 O24'
_cell_volume   490.99718733
_cell_formula_units_Z   1
loop_
 _symmetry_equiv_pos_site_id
 _symmetry_equiv_pos_as_xyz
  1  'x, y, z'
loop_
 _atom_site_type_symbol
 _atom_site_label
 _atom_site_symmetry_multiplicity
 _atom_site_fract_x
 _atom_site_fract_y
 _atom_site_fract_z
 _atom_site_occupancy
  V  V0  1  0.85838200  0.85838200  0.85838200  1
  P  P0  1  0.75083300  0.03504300  0.46788400  1
  P  P1  1  0.03504300  0.46788400  0.75083300  1
  P  P2  1  0.46788400  0.75083300  0.03504300  1
  P  P3  1  0.54004300  0.24636900  0.96324200  1
  P  P4  1  0.96324200  0.54004300  0.24636900  1
  P  P5  1  0.24636900  0.96324200  0.54004300  1
  W  W0  1  0.14236700  0.14236700  0.14236700  1
  W  W1  1  0.35723100  0.35723100  0.35723100  1
  W  W2  1  0.64233000  0.64233000  0.64233000  1
  O  O0  1  0.28570700  0.13136400  0.50407700  1
  O  O1  1  0.50407700  0.28570700  0.13136400  1
  O  O2  1  0.92014600  0.06317000  0.28605500  1
  O  O3  1  0.13136400  0.50407700  0.28570700  1
  O  O4  1  0.58107800  0.21245100  0.43245100  1
  O  O5  1  0.77589700  0.00879500  0.63443500  1
  O  O6  1  0.06317000  0.28605500  0.92014600  1
  O  O7  1  0.21245100  0.43245100  0.58107800  1
  O  O8  1  0.43245100  0.58107800  0.21245100  1
  O  O9  1  0.36516500  0.22199800  0.99231100  1
  O  O10  1  0.71216200  0.08017700  0.94106200  1
  O  O11  1  0.99231100  0.36516500  0.22199800  1
  O  O12  1  0.00879500  0.63443500  0.77589700  1
  O  O13  1  0.28605500  0.92014600  0.06317000  1
  O  O14  1  0.63443500  0.77589700  0.00879500  1
  O  O15  1  0.55878500  0.42320300  0.78880500  1
  O  O16  1  0.78880500  0.55878500  0.42320300  1
  O  O17  1  0.94106200  0.71216200  0.08017700  1
  O  O18  1  0.22199800  0.99231100  0.36516500  1
  O  O19  1  0.42320300  0.78880500  0.55878500  1
  O  O20  1  0.86704000  0.49014200  0.71979900  1
  O  O21  1  0.08017700  0.94106200  0.71216200  1
  O  O22  1  0.49014200  0.71979900  0.86704000  1
  O  O23  1  0.71979900  0.86704000  0.49014200  1
loop_
_geom_bond_atom_site_label_1
_geom_bond_atom_site_label_2
_geom_bond_distance
_geom_bond_site_symmetry_2
O0 P5 1.551787 1_545
O0 W1 1.982380 1_555
O1 P3 1.551787 1_554
O1 W1 1.982380 1_555
O2 P0 1.556832 1_555
O2 W0 1.991706 1_655
O3 P4 1.551787 1_455
O3 W1 1.982380 1_555
O4 P0 1.551708 1_555
O4 W1 1.984756 1_555
O5 P0 1.498065 1_555
O5 V0 2.017789 1_545
O6 P1 1.556832 1_555
O6 W0 1.991706 1_556
O7 P1 1.551708 1_555
O7 W1 1.984756 1_555
O8 P2 1.551708 1_555
O8 W1 1.984756 1_555
O9 P3 1.557225 1_555
O9 W0 1.995871 1_556
O10 P3 1.496630 1_555
O10 V0 2.004123 1_545
O11 P4 1.557225 1_555
O11 W0 1.995871 1_655
O12 P1 1.498064 1_555
O12 V0 2.017789 1_455
O13 P2 1.556832 1_555
O13 W0 1.991706 1_565
O14 P2 1.498064 1_555
O14 V0 2.017789 1_554
O15 P3 1.553679 1_555
O15 W2 1.988206 1_555
O16 P4 1.553679 1_555
O16 W2 1.988206 1_555
O17 P4 1.496631 1_555
O17 V0 2.004123 1_554
O18 P5 1.557225 1_555
O18 W0 1.995871 1_565
O19 P5 1.553679 1_555
O19 W2 1.988206 1_555
O20 P1 1.558419 1_655
O20 W2 1.999685 1_555
O21 P5 1.496631 1_555
O21 V0 2.004123 1_455
O22 P2 1.558419 1_556
O22 W2 1.999685 1_555
O23 P0 1.558419 1_565
O23 W2 1.999685 1_555
