# generated using pymatgen
data_Li4Cr3Fe2Co3O16
_symmetry_space_group_name_H-M   'P 1'
_cell_length_a   5.70699902
_cell_length_b   5.73045878
_cell_length_c   9.41636174
_cell_angle_alpha   89.98963684
_cell_angle_beta   89.72550909
_cell_angle_gamma   120.13411936
_symmetry_Int_Tables_number   1
_chemical_formula_structural   Li4Cr3Fe2Co3O16
_chemical_formula_sum   'Li4 Cr3 Fe2 Co3 O16'
_cell_volume   266.32718926
_cell_formula_units_Z   1
loop_
 _symmetry_equiv_pos_site_id
 _symmetry_equiv_pos_as_xyz
  1  'x, y, z'
loop_
 _atom_site_type_symbol
 _atom_site_label
 _atom_site_symmetry_multiplicity
 _atom_site_fract_x
 _atom_site_fract_y
 _atom_site_fract_z
 _atom_site_occupancy
  Li  Li0  1  0.33871200  0.66909300  0.89068800  1
  Li  Li1  1  0.98808200  0.99421900  0.99539600  1
  Li  Li2  1  0.99038500  0.99502400  0.49769700  1
  Li  Li3  1  0.66723200  0.33381200  0.39572100  1
  Cr  Cr0  1  0.17328700  0.82699200  0.21452800  1
  Cr  Cr1  1  0.17248400  0.34561200  0.21456100  1
  Cr  Cr2  1  0.34755400  0.17307100  0.71500800  1
  Fe  Fe0  1  0.33829800  0.66895200  0.49886400  1
  Fe  Fe1  1  0.67565400  0.33824600  0.99191300  1
  Co  Co0  1  0.65780500  0.82919600  0.21316300  1
  Co  Co1  1  0.82935800  0.66008700  0.71296600  1
  Co  Co2  1  0.82846100  0.16924100  0.71302200  1
  O  O0  1  0.16495300  0.83858200  0.60229700  1
  O  O1  1  0.03253200  0.51614800  0.33445300  1
  O  O2  1  0.33728700  0.66856200  0.10091100  1
  O  O3  1  0.99731700  0.99838800  0.30735300  1
  O  O4  1  0.99672200  0.99857300  0.80648200  1
  O  O5  1  0.16478400  0.32605000  0.60268900  1
  O  O6  1  0.48002800  0.95993100  0.33769900  1
  O  O7  1  0.48010100  0.52052100  0.33756900  1
  O  O8  1  0.32467800  0.16229700  0.10216000  1
  O  O9  1  0.66889800  0.83455200  0.60571500  1
  O  O10  1  0.52172500  0.48209500  0.83639500  1
  O  O11  1  0.52105000  0.03907200  0.83666000  1
  O  O12  1  0.67346700  0.33727500  0.60515600  1
  O  O13  1  0.83525400  0.67031200  0.10326700  1
  O  O14  1  0.95895300  0.47960700  0.83251900  1
  O  O15  1  0.83493700  0.16479200  0.10299400  1
loop_
_geom_bond_atom_site_label_1
_geom_bond_atom_site_label_2
_geom_bond_distance
_geom_bond_site_symmetry_2
Li0 O11 1.901598 1_565
Li0 O10 1.902469 1_555
Li0 O14 1.955740 1_455
Li0 O2 1.979509 1_556
Li1 O4 1.779153 1_555
Li1 O15 1.896174 1_566
Li1 O13 1.898177 1_556
Li1 O8 1.946688 1_666
Li2 O3 1.792482 1_555
Li2 O9 1.879942 1_555
Li2 O0 1.916293 1_655
Li2 O5 1.918547 1_665
Li3 O1 1.889965 1_655
Li3 O7 1.933334 1_555
Li3 O6 1.933395 1_545
Li3 O12 1.972531 1_555
Cr0 O1 1.909804 1_555
Cr0 O6 1.915936 1_555
Cr0 O2 1.920615 1_555
Cr0 O3 1.928594 1_455
Cr0 O8 1.970200 1_565
Cr0 O13 1.976357 1_455
Cr1 O1 1.908645 1_555
Cr1 O7 1.918705 1_555
Cr1 O2 1.922697 1_555
Cr1 O3 1.927632 1_445
Cr1 O8 1.971258 1_555
Cr1 O15 1.975828 1_455
Cr2 O12 1.907589 1_555
Cr2 O11 1.912110 1_555
Cr2 O10 1.916953 1_555
Cr2 O4 1.929658 1_445
Cr2 O0 1.972862 1_545
Cr2 O5 1.975707 1_555
Fe0 O9 1.921840 1_555
Fe0 O0 1.956736 1_555
Fe0 O5 1.958032 1_555
Fe0 O7 2.089262 1_555
Fe0 O6 2.090652 1_555
Fe0 O1 2.168123 1_555
Fe1 O13 1.954405 1_556
Fe1 O15 1.955588 1_556
Fe1 O8 2.014530 1_556
Fe1 O14 2.045542 1_555
Fe1 O10 2.081993 1_555
Fe1 O11 2.085512 1_555
Co0 O3 1.900397 1_555
Co0 O2 1.907569 1_555
Co0 O7 1.927784 1_555
Co0 O6 1.928179 1_555
Co0 O15 1.957998 1_565
Co0 O13 1.959966 1_555
Co1 O4 1.896992 1_555
Co1 O12 1.897626 1_555
Co1 O10 1.911952 1_555
Co1 O14 1.912992 1_555
Co1 O9 1.945708 1_555
Co1 O0 1.952918 1_655
Co2 O4 1.898377 1_545
Co2 O12 1.898614 1_555
Co2 O11 1.912035 1_555
Co2 O14 1.913849 1_555
Co2 O9 1.945401 1_545
Co2 O5 1.954417 1_655
