# generated using pymatgen
data_Li5(NiO2)4
_symmetry_space_group_name_H-M   'P 1'
_cell_length_a   8.38222800
_cell_length_b   8.38222800
_cell_length_c   8.38222800
_cell_angle_alpha   90.00000000
_cell_angle_beta   90.00000000
_cell_angle_gamma   90.00000000
_symmetry_Int_Tables_number   1
_chemical_formula_structural   Li5(NiO2)4
_chemical_formula_sum   'Li20 Ni16 O32'
_cell_volume   588.94997670
_cell_formula_units_Z   4
loop_
 _symmetry_equiv_pos_site_id
 _symmetry_equiv_pos_as_xyz
  1  'x, y, z'
loop_
 _atom_site_type_symbol
 _atom_site_label
 _atom_site_symmetry_multiplicity
 _atom_site_fract_x
 _atom_site_fract_y
 _atom_site_fract_z
 _atom_site_occupancy
  Li  Li0  1  0.05318700  0.05318700  0.05318700  1
  Li  Li1  1  0.13936300  0.37500000  0.38936300  1
  Li  Li2  1  0.12500000  0.61063700  0.63936300  1
  Li  Li3  1  0.11063700  0.86063700  0.87500000  1
  Li  Li4  1  0.19681300  0.19681300  0.19681300  1
  Li  Li5  1  0.30318700  0.80318700  0.69681300  1
  Li  Li6  1  0.38936300  0.13936300  0.37500000  1
  Li  Li7  1  0.37500000  0.38936300  0.13936300  1
  Li  Li8  1  0.36063700  0.62500000  0.88936300  1
  Li  Li9  1  0.44681300  0.94681300  0.55318700  1
  Li  Li10  1  0.55318700  0.44681300  0.94681300  1
  Li  Li11  1  0.63936300  0.12500000  0.61063700  1
  Li  Li12  1  0.62500000  0.88936300  0.36063700  1
  Li  Li13  1  0.61063700  0.63936300  0.12500000  1
  Li  Li14  1  0.69681300  0.30318700  0.80318700  1
  Li  Li15  1  0.80318700  0.69681300  0.30318700  1
  Li  Li16  1  0.88936300  0.36063700  0.62500000  1
  Li  Li17  1  0.87500000  0.11063700  0.86063700  1
  Li  Li18  1  0.86063700  0.87500000  0.11063700  1
  Li  Li19  1  0.94681300  0.55318700  0.44681300  1
  Ni  Ni0  1  0.12500000  0.87500000  0.37500000  1
  Ni  Ni1  1  0.37500000  0.12500000  0.87500000  1
  Ni  Ni2  1  0.62500000  0.62500000  0.62500000  1
  Ni  Ni3  1  0.87500000  0.37500000  0.12500000  1
  Ni  Ni4  1  0.12405800  0.12594200  0.62500000  1
  Ni  Ni5  1  0.12500000  0.37594200  0.87405800  1
  Ni  Ni6  1  0.12594200  0.62500000  0.12405800  1
  Ni  Ni7  1  0.37405800  0.37500000  0.62405800  1
  Ni  Ni8  1  0.37500000  0.62405800  0.37405800  1
  Ni  Ni9  1  0.37594200  0.87405800  0.12500000  1
  Ni  Ni10  1  0.62405800  0.37405800  0.37500000  1
  Ni  Ni11  1  0.62500000  0.12405800  0.12594200  1
  Ni  Ni12  1  0.62594200  0.87500000  0.87594200  1
  Ni  Ni13  1  0.87405800  0.12500000  0.37594200  1
  Ni  Ni14  1  0.87500000  0.87594200  0.62594200  1
  Ni  Ni15  1  0.87594200  0.62594200  0.87500000  1
  O  O0  1  0.11822500  0.11520900  0.38682800  1
  O  O1  1  0.11317200  0.88177500  0.61520900  1
  O  O2  1  0.12202600  0.62202600  0.87797400  1
  O  O3  1  0.13479100  0.13177500  0.86317200  1
  O  O4  1  0.11520900  0.38682800  0.11822500  1
  O  O5  1  0.12797400  0.37202600  0.62797400  1
  O  O6  1  0.13682800  0.63479100  0.36822500  1
  O  O7  1  0.13177500  0.86317200  0.13479100  1
  O  O8  1  0.36822500  0.13682800  0.63479100  1
  O  O9  1  0.36317200  0.36520900  0.86822500  1
  O  O10  1  0.37202600  0.62797400  0.12797400  1
  O  O11  1  0.38479100  0.61317200  0.61822500  1
  O  O12  1  0.36520900  0.86822500  0.36317200  1
  O  O13  1  0.37797400  0.37797400  0.37797400  1
  O  O14  1  0.38682800  0.11822500  0.11520900  1
  O  O15  1  0.38177500  0.88479100  0.88682800  1
  O  O16  1  0.61822500  0.38479100  0.61317200  1
  O  O17  1  0.61317200  0.61822500  0.38479100  1
  O  O18  1  0.62202600  0.87797400  0.12202600  1
  O  O19  1  0.63479100  0.36822500  0.13682800  1
  O  O20  1  0.61520900  0.11317200  0.88177500  1
  O  O21  1  0.62797400  0.12797400  0.37202600  1
  O  O22  1  0.63682800  0.86520900  0.63177500  1
  O  O23  1  0.63177500  0.63682800  0.86520900  1
  O  O24  1  0.86822500  0.36317200  0.36520900  1
  O  O25  1  0.86317200  0.13479100  0.13177500  1
  O  O26  1  0.87202600  0.87202600  0.87202600  1
  O  O27  1  0.88479100  0.88682800  0.38177500  1
  O  O28  1  0.86520900  0.63177500  0.63682800  1
  O  O29  1  0.87797400  0.12202600  0.62202600  1
  O  O30  1  0.88682800  0.38177500  0.88479100  1
  O  O31  1  0.88177500  0.61520900  0.11317200  1
loop_
_geom_bond_atom_site_label_1
_geom_bond_atom_site_label_2
_geom_bond_distance
_geom_bond_site_symmetry_2
Li0 O3 1.854368 1_554
Li0 O7 1.854368 1_545
Li0 O25 1.854368 1_455
Li1 O13 2.002524 1_555
Li1 O5 2.002524 1_555
Li1 O6 2.184927 1_555
Li1 O0 2.184927 1_555
Li1 O4 2.283894 1_555
Li1 O24 2.283894 1_455
Li2 O5 2.002524 1_555
Li2 O2 2.002524 1_555
Li2 O28 2.184927 1_455
Li2 O11 2.184927 1_555
Li2 O6 2.283894 1_555
Li2 O1 2.283894 1_555
Li3 O2 2.002524 1_555
Li3 O26 2.002524 1_455
Li3 O7 2.184927 1_556
Li3 O1 2.184927 1_555
Li3 O15 2.283894 1_555
Li3 O3 2.283894 1_565
Li4 O0 1.854368 1_555
Li4 O14 1.854368 1_555
Li4 O4 1.854368 1_555
Li5 O15 1.854368 1_555
Li5 O11 1.854368 1_555
Li5 O1 1.854368 1_555
Li6 O13 2.002524 1_555
Li6 O21 2.002524 1_555
Li6 O8 2.184927 1_555
Li6 O14 2.184927 1_555
Li6 O0 2.283894 1_555
Li6 O12 2.283894 1_545
Li7 O13 2.002524 1_555
Li7 O10 2.002524 1_555
Li7 O4 2.184927 1_555
Li7 O19 2.184927 1_555
Li7 O14 2.283894 1_555
Li7 O9 2.283894 1_554
Li8 O2 2.002524 1_555
Li8 O10 2.002524 1_556
Li8 O9 2.184927 1_555
Li8 O15 2.184927 1_555
Li8 O11 2.283894 1_555
Li8 O23 2.283894 1_555
Li9 O22 1.854368 1_555
Li9 O8 1.854368 1_565
Li9 O12 1.854368 1_555
Li10 O19 1.854368 1_556
Li10 O23 1.854368 1_555
Li10 O9 1.854368 1_555
Li11 O21 2.002524 1_555
Li11 O29 2.002524 1_555
Li11 O16 2.184927 1_555
Li11 O22 2.184927 1_545
Li11 O20 2.283894 1_555
Li11 O8 2.283894 1_555
Li12 O18 2.002524 1_555
Li12 O21 2.002524 1_565
Li12 O27 2.184927 1_555
Li12 O12 2.184927 1_555
Li12 O22 2.283894 1_555
Li12 O17 2.283894 1_555
Li13 O10 2.002524 1_555
Li13 O18 2.002524 1_555
Li13 O17 2.184927 1_555
Li13 O23 2.184927 1_554
Li13 O31 2.283894 1_555
Li13 O19 2.283894 1_555
Li14 O30 1.854368 1_555
Li14 O16 1.854368 1_555
Li14 O20 1.854368 1_555
Li15 O17 1.854368 1_555
Li15 O27 1.854368 1_555
Li15 O31 1.854368 1_555
Li16 O29 2.002524 1_555
Li16 O5 2.002524 1_655
Li16 O24 2.184927 1_555
Li16 O30 2.184927 1_555
Li16 O28 2.283894 1_555
Li16 O16 2.283894 1_555
Li17 O29 2.002524 1_555
Li17 O26 2.002524 1_545
Li17 O3 2.184927 1_655
Li17 O20 2.184927 1_555
Li17 O30 2.283894 1_555
Li17 O25 2.283894 1_556
Li18 O26 2.002524 1_554
Li18 O18 2.002524 1_555
Li18 O25 2.184927 1_565
Li18 O31 2.184927 1_555
Li18 O27 2.283894 1_555
Li18 O7 2.283894 1_655
Li19 O6 1.854368 1_655
Li19 O28 1.854368 1_555
Li19 O24 1.854368 1_555
Ni0 O27 2.016726 1_455
Ni0 O12 2.016726 1_555
Ni0 O6 2.016726 1_555
Ni0 O7 2.016726 1_555
Ni0 O1 2.016726 1_555
Ni0 O0 2.016726 1_565
Ni1 O20 2.016726 1_555
Ni1 O9 2.016726 1_555
Ni1 O8 2.016726 1_555
Ni1 O3 2.016726 1_555
Ni1 O15 2.016726 1_545
Ni1 O14 2.016726 1_556
Ni2 O11 2.016726 1_555
Ni2 O22 2.016726 1_555
Ni2 O28 2.016726 1_555
Ni2 O17 2.016726 1_555
Ni2 O23 2.016726 1_555
Ni2 O16 2.016726 1_555
Ni3 O24 2.016726 1_555
Ni3 O19 2.016726 1_555
Ni3 O31 2.016726 1_555
Ni3 O25 2.016726 1_555
Ni3 O30 2.016726 1_554
Ni3 O4 2.016726 1_655
Ni4 O0 1.999036 1_555
Ni4 O3 1.999036 1_555
Ni4 O1 2.050340 1_545
Ni4 O8 2.050340 1_555
Ni4 O29 2.063144 1_455
Ni4 O5 2.063144 1_555
Ni5 O9 1.999036 1_555
Ni5 O30 1.999036 1_455
Ni5 O3 2.050340 1_555
Ni5 O4 2.050340 1_556
Ni5 O5 2.063144 1_555
Ni5 O2 2.063144 1_555
Ni6 O4 1.999036 1_555
Ni6 O7 1.999036 1_555
Ni6 O6 2.050340 1_555
Ni6 O31 2.050340 1_455
Ni6 O2 2.063144 1_554
Ni6 O10 2.063144 1_555
Ni7 O8 1.999036 1_555
Ni7 O11 1.999036 1_555
Ni7 O9 2.050340 1_555
Ni7 O16 2.050340 1_555
Ni7 O5 2.063144 1_555
Ni7 O13 2.063144 1_555
Ni8 O6 1.999036 1_555
Ni8 O17 1.999036 1_555
Ni8 O11 2.050340 1_555
Ni8 O12 2.050340 1_555
Ni8 O13 2.063144 1_555
Ni8 O10 2.063144 1_555
Ni9 O12 1.999036 1_555
Ni9 O15 1.999036 1_554
Ni9 O14 2.050340 1_565
Ni9 O7 2.050340 1_555
Ni9 O10 2.063144 1_555
Ni9 O18 2.063144 1_555
Ni10 O19 1.999036 1_555
Ni10 O16 1.999036 1_555
Ni10 O17 2.050340 1_555
Ni10 O24 2.050340 1_555
Ni10 O21 2.063144 1_555
Ni10 O13 2.063144 1_555
Ni11 O14 1.999036 1_555
Ni11 O25 1.999036 1_555
Ni11 O19 2.050340 1_555
Ni11 O20 2.050340 1_554
Ni11 O18 2.063144 1_545
Ni11 O21 2.063144 1_555
Ni12 O20 1.999036 1_565
Ni12 O23 1.999036 1_555
Ni12 O22 2.050340 1_555
Ni12 O15 2.050340 1_555
Ni12 O26 2.063144 1_555
Ni12 O18 2.063144 1_556
Ni13 O24 1.999036 1_555
Ni13 O27 1.999036 1_545
Ni13 O25 2.050340 1_555
Ni13 O0 2.050340 1_655
Ni13 O29 2.063144 1_555
Ni13 O21 2.063144 1_555
Ni14 O1 1.999036 1_655
Ni14 O22 1.999036 1_555
Ni14 O28 2.050340 1_555
Ni14 O27 2.050340 1_555
Ni14 O26 2.063144 1_555
Ni14 O29 2.063144 1_565
Ni15 O28 1.999036 1_555
Ni15 O31 1.999036 1_556
Ni15 O23 2.050340 1_555
Ni15 O30 2.050340 1_555
Ni15 O2 2.063144 1_655
Ni15 O26 2.063144 1_555
