# generated using pymatgen
data_LiVSiO4
_symmetry_space_group_name_H-M   'P 1'
_cell_length_a   5.41473211
_cell_length_b   9.37670919
_cell_length_c   12.46377900
_cell_angle_alpha   89.99988980
_cell_angle_beta   89.99962105
_cell_angle_gamma   89.97718500
_symmetry_Int_Tables_number   1
_chemical_formula_structural   LiVSiO4
_chemical_formula_sum   'Li6 V6 Si6 O24'
_cell_volume   632.81552749
_cell_formula_units_Z   6
loop_
 _symmetry_equiv_pos_site_id
 _symmetry_equiv_pos_as_xyz
  1  'x, y, z'
loop_
 _atom_site_type_symbol
 _atom_site_label
 _atom_site_symmetry_multiplicity
 _atom_site_fract_x
 _atom_site_fract_y
 _atom_site_fract_z
 _atom_site_occupancy
  Li  Li0  1  0.99999800  0.00000000  0.99992900  1
  Li  Li1  1  0.50000000  0.50000000  0.99996100  1
  Li  Li2  1  0.99999900  0.00000000  0.33333200  1
  Li  Li3  1  0.49999900  0.50000000  0.33332100  1
  Li  Li4  1  0.99999900  0.00000000  0.66668000  1
  Li  Li5  1  0.50000000  0.50000100  0.66666300  1
  V  V0  1  0.25001100  0.24999600  0.16679600  1
  V  V1  1  0.74999600  0.75000100  0.16679700  1
  V  V2  1  0.99999500  0.50000100  0.49987600  1
  V  V3  1  0.74989600  0.25004600  0.83327900  1
  V  V4  1  0.25010100  0.74995400  0.83327800  1
  V  V5  1  0.49999100  0.00000400  0.49981500  1
  Si  Si0  1  0.75001500  0.24999500  0.33336800  1
  Si  Si1  1  0.24998500  0.75000400  0.33336900  1
  Si  Si2  1  0.24985700  0.24994500  0.66663200  1
  Si  Si3  1  0.75013700  0.75006500  0.66663200  1
  Si  Si4  1  0.50000400  0.99999900  0.99996300  1
  Si  Si5  1  0.00000200  0.49999900  0.99996900  1
  O  O0  1  0.78909800  0.39432000  0.40611100  1
  O  O1  1  0.28911300  0.89437500  0.40610200  1
  O  O2  1  0.80309600  0.40831600  0.92721100  1
  O  O3  1  0.30310000  0.90834400  0.92720900  1
  O  O4  1  0.98624600  0.19700200  0.26081800  1
  O  O5  1  0.48613700  0.69703700  0.26078700  1
  O  O6  1  0.01384800  0.19693900  0.73927200  1
  O  O7  1  0.51401000  0.69709800  0.73924700  1
  O  O8  1  0.19688400  0.40820800  0.07265800  1
  O  O9  1  0.69688000  0.90821100  0.07264600  1
  O  O10  1  0.21062100  0.39435500  0.59404600  1
  O  O11  1  0.71070500  0.89447300  0.59405800  1
  O  O12  1  0.28930600  0.10552400  0.59406300  1
  O  O13  1  0.78938900  0.60563400  0.59405700  1
  O  O14  1  0.30312000  0.09178500  0.07264500  1
  O  O15  1  0.80311500  0.59179000  0.07265700  1
  O  O16  1  0.48598300  0.30290600  0.73924500  1
  O  O17  1  0.98615000  0.80306400  0.73927200  1
  O  O18  1  0.51386300  0.30296200  0.26078700  1
  O  O19  1  0.01375700  0.80299800  0.26081900  1
  O  O20  1  0.69689900  0.09165900  0.92720700  1
  O  O21  1  0.19690400  0.59168400  0.92721100  1
  O  O22  1  0.71088800  0.10562600  0.40610100  1
  O  O23  1  0.21090200  0.60568000  0.40611000  1
loop_
_geom_bond_atom_site_label_1
_geom_bond_atom_site_label_2
_geom_bond_distance
_geom_bond_site_symmetry_2
Li0 O3 2.062177 1_645
Li0 O20 2.062194 1_555
Li0 O9 2.063293 1_546
Li0 O14 2.063300 1_656
Li1 O2 2.062425 1_555
Li1 O21 2.062433 1_555
Li1 O15 2.063180 1_556
Li1 O8 2.063186 1_556
Li2 O19 2.057799 1_645
Li2 O4 2.057800 1_555
Li2 O22 2.062270 1_555
Li2 O1 2.062291 1_645
Li3 O5 2.058226 1_555
Li3 O18 2.058237 1_555
Li3 O23 2.062565 1_555
Li3 O0 2.062586 1_555
Li4 O17 2.057744 1_545
Li4 O6 2.057773 1_655
Li4 O11 2.062380 1_545
Li4 O12 2.062381 1_655
Li5 O16 2.059061 1_555
Li5 O7 2.059091 1_555
Li5 O13 2.063149 1_555
Li5 O10 2.063238 1_555
O0 Si0 1.642694 1_555
O0 V2 1.911208 1_555
O1 Si1 1.643012 1_555
O1 V5 1.910498 1_565
O2 Si5 1.642842 1_655
O2 V3 1.912169 1_555
O3 Si4 1.642670 1_555
O3 V4 1.912871 1_555
O4 Si0 1.643235 1_555
O4 V0 1.913254 1_655
O5 Si1 1.643048 1_555
O5 V1 1.913317 1_555
O6 Si2 1.643261 1_555
O6 V3 1.913876 1_455
O7 Si3 1.643476 1_555
O7 V4 1.913275 1_555
O8 Si5 1.642367 1_554
O8 V0 1.913080 1_555
O9 Si4 1.642290 1_554
O9 V1 1.913156 1_555
O10 Si2 1.642236 1_555
O10 V2 1.912781 1_455
O11 Si3 1.642276 1_555
O11 V5 1.913066 1_565
O12 Si2 1.642355 1_555
O12 V5 1.912950 1_555
O13 Si3 1.642336 1_555
O13 V2 1.912731 1_555
O14 Si4 1.642295 1_544
O14 V0 1.913159 1_555
O15 Si5 1.642372 1_654
O15 V1 1.913083 1_555
O16 Si2 1.643451 1_555
O16 V3 1.913335 1_555
O17 Si3 1.643268 1_555
O17 V4 1.913882 1_655
O18 Si0 1.643049 1_555
O18 V0 1.913314 1_555
O19 Si1 1.643233 1_555
O19 V1 1.913258 1_455
O20 Si4 1.642667 1_545
O20 V3 1.912819 1_555
O21 Si5 1.642828 1_555
O21 V4 1.912169 1_555
O22 Si0 1.642991 1_555
O22 V5 1.910521 1_555
O23 Si1 1.642668 1_555
O23 V2 1.911227 1_455
