# generated using pymatgen
data_Tb3SbO7
_symmetry_space_group_name_H-M   'P 1'
_cell_length_a   6.48759437
_cell_length_b   6.48759437
_cell_length_c   7.54435300
_cell_angle_alpha   90.00000000
_cell_angle_beta   90.00000000
_cell_angle_gamma   109.81854054
_symmetry_Int_Tables_number   1
_chemical_formula_structural   Tb3SbO7
_chemical_formula_sum   'Tb6 Sb2 O14'
_cell_volume   298.72622327
_cell_formula_units_Z   2
loop_
 _symmetry_equiv_pos_site_id
 _symmetry_equiv_pos_as_xyz
  1  'x, y, z'
loop_
 _atom_site_type_symbol
 _atom_site_label
 _atom_site_symmetry_multiplicity
 _atom_site_fract_x
 _atom_site_fract_y
 _atom_site_fract_z
 _atom_site_occupancy
  Tb  Tb0  1  0.51289800  0.05439100  0.25000000  1
  Tb  Tb1  1  0.94560900  0.48710200  0.75000000  1
  Tb  Tb2  1  0.00000000  0.00000000  0.00000000  1
  Tb  Tb3  1  0.00000000  0.00000000  0.50000000  1
  Tb  Tb4  1  0.48710200  0.94560900  0.75000000  1
  Tb  Tb5  1  0.05439100  0.51289800  0.25000000  1
  Sb  Sb0  1  0.50000000  0.50000000  0.50000000  1
  Sb  Sb1  1  0.50000000  0.50000000  0.00000000  1
  O  O0  1  0.84915800  0.11600500  0.75000000  1
  O  O1  1  0.88399500  0.15084200  0.25000000  1
  O  O2  1  0.43731100  0.17934700  0.53310100  1
  O  O3  1  0.82065300  0.56268900  0.03310100  1
  O  O4  1  0.82065300  0.56268900  0.46689900  1
  O  O5  1  0.43731100  0.17934700  0.96689900  1
  O  O6  1  0.58764500  0.58764500  0.75000000  1
  O  O7  1  0.41235500  0.41235500  0.25000000  1
  O  O8  1  0.56268900  0.82065300  0.03310100  1
  O  O9  1  0.17934700  0.43731100  0.53310100  1
  O  O10  1  0.56268900  0.82065300  0.46689900  1
  O  O11  1  0.17934700  0.43731100  0.96689900  1
  O  O12  1  0.11600500  0.84915800  0.75000000  1
  O  O13  1  0.15084200  0.88399500  0.25000000  1
loop_
_geom_bond_atom_site_label_1
_geom_bond_atom_site_label_2
_geom_bond_distance
_geom_bond_site_symmetry_2
O0 Tb4 2.231264 1_545
O0 Tb1 2.272930 1_555
O0 Tb2 2.362369 1_656
O0 Tb3 2.362369 1_655
O1 Tb5 2.231264 1_655
O1 Tb0 2.272930 1_555
O1 Tb2 2.362369 1_655
O1 Tb3 2.362369 1_655
O2 Sb0 1.995391 1_555
O2 Tb4 2.326722 1_545
O2 Tb0 2.393514 1_555
O2 Tb3 2.688288 1_555
O3 Sb1 1.995391 1_555
O3 Tb5 2.326722 1_655
O3 Tb1 2.393514 1_554
O3 Tb2 2.688288 1_665
O4 Sb0 1.995391 1_555
O4 Tb5 2.326722 1_655
O4 Tb1 2.393514 1_555
O4 Tb3 2.688288 1_665
O5 Sb1 1.995391 1_556
O5 Tb4 2.326722 1_545
O5 Tb0 2.393514 1_556
O5 Tb2 2.688288 1_556
O6 Sb0 1.996176 1_555
O6 Sb1 1.996176 1_556
O6 Tb1 2.616455 1_555
O6 Tb4 2.616455 1_555
O7 Sb0 1.996176 1_555
O7 Sb1 1.996176 1_555
O7 Tb0 2.616455 1_555
O7 Tb5 2.616455 1_555
O8 Sb1 1.995391 1_555
O8 Tb0 2.326722 1_565
O8 Tb4 2.393514 1_554
O8 Tb2 2.688288 1_665
O9 Sb0 1.995391 1_555
O9 Tb1 2.326722 1_455
O9 Tb5 2.393514 1_555
O9 Tb3 2.688288 1_555
O10 Sb0 1.995391 1_555
O10 Tb0 2.326722 1_565
O10 Tb4 2.393514 1_555
O10 Tb3 2.688288 1_665
O11 Sb1 1.995391 1_556
O11 Tb1 2.326722 1_455
O11 Tb5 2.393514 1_556
O11 Tb2 2.688288 1_556
O12 Tb1 2.231264 1_455
O12 Tb4 2.272930 1_555
O12 Tb3 2.362369 1_565
O12 Tb2 2.362369 1_566
O13 Tb0 2.231264 1_565
O13 Tb5 2.272930 1_555
O13 Tb3 2.362369 1_565
O13 Tb2 2.362369 1_565
