# generated using pymatgen
data_ZnPH5C2N4O3
_symmetry_space_group_name_H-M   'P 1'
_cell_length_a   9.12857115
_cell_length_b   9.12857115
_cell_length_c   10.54255304
_cell_angle_alpha   70.27155603
_cell_angle_beta   70.27155603
_cell_angle_gamma   72.00574896
_symmetry_Int_Tables_number   1
_chemical_formula_structural   ZnPH5C2N4O3
_chemical_formula_sum   'Zn4 P4 H20 C8 N16 O12'
_cell_volume   759.33401124
_cell_formula_units_Z   4
loop_
 _symmetry_equiv_pos_site_id
 _symmetry_equiv_pos_as_xyz
  1  'x, y, z'
loop_
 _atom_site_type_symbol
 _atom_site_label
 _atom_site_symmetry_multiplicity
 _atom_site_fract_x
 _atom_site_fract_y
 _atom_site_fract_z
 _atom_site_occupancy
  Zn  Zn0  1  0.44264000  0.72162200  0.04456500  1
  Zn  Zn1  1  0.27837800  0.55736000  0.45543500  1
  Zn  Zn2  1  0.72162200  0.44264000  0.54456500  1
  Zn  Zn3  1  0.55736000  0.27837800  0.95543500  1
  P  P0  1  0.60902100  0.66695300  0.27875200  1
  P  P1  1  0.66695300  0.60902100  0.77875200  1
  P  P2  1  0.33304700  0.39097900  0.22124800  1
  P  P3  1  0.39097900  0.33304700  0.72124800  1
  H  H0  1  0.91512900  0.85749400  0.09520600  1
  H  H1  1  0.66019200  0.80765800  0.25207200  1
  H  H2  1  0.85749400  0.91512900  0.59520600  1
  H  H3  1  0.29553000  0.91210200  0.39660000  1
  H  H4  1  0.87432800  0.38598200  0.20579700  1
  H  H5  1  0.80765800  0.66019200  0.75207200  1
  H  H6  1  0.79900900  0.42897400  0.06274900  1
  H  H7  1  0.91210200  0.29553000  0.89660000  1
  H  H8  1  0.38598200  0.87432800  0.70579700  1
  H  H9  1  0.57102600  0.20099100  0.43725100  1
  H  H10  1  0.42897400  0.79900900  0.56274900  1
  H  H11  1  0.61401800  0.12567200  0.29420300  1
  H  H12  1  0.08789800  0.70447000  0.10340000  1
  H  H13  1  0.20099100  0.57102600  0.93725100  1
  H  H14  1  0.19234200  0.33980800  0.24792800  1
  H  H15  1  0.12567200  0.61401800  0.79420300  1
  H  H16  1  0.70447000  0.08789800  0.60340000  1
  H  H17  1  0.14250600  0.08487100  0.40479400  1
  H  H18  1  0.33980800  0.19234200  0.74792800  1
  H  H19  1  0.08487100  0.14250600  0.90479400  1
  C  C0  1  0.96279500  0.79505400  0.39731800  1
  C  C1  1  0.79505400  0.96279500  0.89731800  1
  C  C2  1  0.99382100  0.24514800  0.06881800  1
  C  C3  1  0.75485200  0.00617900  0.43118200  1
  C  C4  1  0.24514800  0.99382100  0.56881800  1
  C  C5  1  0.00617900  0.75485200  0.93118200  1
  C  C6  1  0.20494600  0.03720500  0.10268200  1
  C  C7  1  0.03720500  0.20494600  0.60268200  1
  N  N0  1  0.84662000  0.90073200  0.35569500  1
  N  N1  1  0.90073200  0.84662000  0.85569500  1
  N  N2  1  0.22400700  0.99634300  0.44811000  1
  N  N3  1  0.88124300  0.36083500  0.11665800  1
  N  N4  1  0.30490600  0.92761300  0.07082500  1
  N  N5  1  0.99634300  0.22400700  0.94811000  1
  N  N6  1  0.07238700  0.69509400  0.42917500  1
  N  N7  1  0.36083500  0.88124300  0.61665800  1
  N  N8  1  0.63916500  0.11875700  0.38334200  1
  N  N9  1  0.92761300  0.30490600  0.57082500  1
  N  N10  1  0.00365700  0.77599300  0.05189000  1
  N  N11  1  0.69509400  0.07238700  0.92917500  1
  N  N12  1  0.11875700  0.63916500  0.88334200  1
  N  N13  1  0.77599300  0.00365700  0.55189000  1
  N  N14  1  0.09926800  0.15338000  0.14430500  1
  N  N15  1  0.15338000  0.09926800  0.64430500  1
  O  O0  1  0.73047300  0.52856100  0.34533700  1
  O  O1  1  0.43907300  0.69501700  0.37765100  1
  O  O2  1  0.61478300  0.64810300  0.13754600  1
  O  O3  1  0.52856100  0.73047300  0.84533700  1
  O  O4  1  0.69501700  0.43907300  0.87765100  1
  O  O5  1  0.64810300  0.61478300  0.63754600  1
  O  O6  1  0.35189700  0.38521700  0.36245400  1
  O  O7  1  0.30498300  0.56092700  0.12234900  1
  O  O8  1  0.47143900  0.26952700  0.15466300  1
  O  O9  1  0.38521700  0.35189700  0.86245400  1
  O  O10  1  0.56092700  0.30498300  0.62234900  1
  O  O11  1  0.26952700  0.47143900  0.65466300  1
loop_
_geom_bond_atom_site_label_1
_geom_bond_atom_site_label_2
_geom_bond_distance
_geom_bond_site_symmetry_2
H0 N10 1.011874 1_655
H1 P0 1.408961 1_555
H2 N13 1.011874 1_565
H3 N2 1.022203 1_555
H4 N3 1.018065 1_555
H5 P1 1.408961 1_555
H6 N3 1.017008 1_555
H7 N5 1.022203 1_555
H8 N7 1.018065 1_555
H9 N8 1.017008 1_555
H10 N7 1.017008 1_555
H11 N8 1.018065 1_555
H12 N10 1.022203 1_555
H13 N12 1.017008 1_555
H14 P2 1.408961 1_555
H15 N12 1.018065 1_555
H16 N13 1.022203 1_555
H17 N2 1.011874 1_545
H18 P3 1.408961 1_555
H19 N5 1.011874 1_455
C0 N6 1.184145 1_655
C0 N0 1.282249 1_555
C1 N11 1.184145 1_565
C1 N1 1.282249 1_555
C2 N3 1.328487 1_555
C2 N5 1.341823 1_554
C2 N14 1.352976 1_655
C3 N8 1.328487 1_555
C3 N13 1.341823 1_555
C3 N0 1.352976 1_545
C4 N7 1.328487 1_555
C4 N2 1.341823 1_555
C4 N15 1.352976 1_565
C5 N12 1.328487 1_555
C5 N10 1.341823 1_556
C5 N1 1.352976 1_455
C6 N4 1.184145 1_545
C6 N14 1.282249 1_555
C7 N9 1.184145 1_455
C7 N15 1.282249 1_555
N4 Zn0 1.961918 1_555
N6 Zn1 1.961918 1_555
N9 Zn2 1.961918 1_555
N11 Zn3 1.961918 1_555
O0 P0 1.542491 1_555
O0 Zn2 1.961034 1_555
O1 P0 1.549924 1_555
O1 Zn1 2.008594 1_555
O2 P0 1.537207 1_555
O2 Zn0 1.955734 1_555
O3 P1 1.542491 1_555
O3 Zn0 1.961034 1_556
O4 P1 1.549924 1_555
O4 Zn3 2.008594 1_555
O5 P1 1.537207 1_555
O5 Zn2 1.955734 1_555
O6 P2 1.537207 1_555
O6 Zn1 1.955734 1_555
O7 P2 1.549924 1_555
O7 Zn0 2.008594 1_555
O8 P2 1.542491 1_555
O8 Zn3 1.961034 1_554
O9 P3 1.537207 1_555
O9 Zn3 1.955734 1_555
O10 P3 1.549924 1_555
O10 Zn2 2.008594 1_555
O11 P3 1.542491 1_555
O11 Zn1 1.961034 1_555
