# generated using pymatgen
data_VCu13Sn(AsS8)2
_symmetry_space_group_name_H-M   'P 1'
_cell_length_a   10.70217373
_cell_length_b   10.70356945
_cell_length_c   21.42791651
_cell_angle_alpha   90.00000000
_cell_angle_beta   90.00000000
_cell_angle_gamma   90.00000000
_symmetry_Int_Tables_number   1
_chemical_formula_structural   VCu13Sn(AsS8)2
_chemical_formula_sum   'V4 Cu52 Sn4 As8 S64'
_cell_volume   2454.59911637
_cell_formula_units_Z   4
loop_
 _symmetry_equiv_pos_site_id
 _symmetry_equiv_pos_as_xyz
  1  'x, y, z'
loop_
 _atom_site_type_symbol
 _atom_site_label
 _atom_site_symmetry_multiplicity
 _atom_site_fract_x
 _atom_site_fract_y
 _atom_site_fract_z
 _atom_site_occupancy
  V  V0  1  0.00006006  0.00000000  0.00000000  1
  V  V1  1  0.99993994  0.00000000  0.50000000  1
  V  V2  1  0.50000000  0.49947202  0.25000000  1
  V  V3  1  0.50000000  0.50052798  0.75000000  1
  Cu  Cu0  1  0.00100935  0.25578682  0.99965820  1
  Cu  Cu1  1  0.99932797  0.00109489  0.12787304  1
  Cu  Cu2  1  0.00100935  0.74421318  0.00034180  1
  Cu  Cu3  1  0.00208199  0.50031253  0.12489921  1
  Cu  Cu4  1  0.00067203  0.99890511  0.62787304  1
  Cu  Cu5  1  0.99899065  0.74421318  0.49965820  1
  Cu  Cu6  1  0.00208199  0.49968747  0.87510079  1
  Cu  Cu7  1  0.24428540  0.49899602  0.24982429  1
  Cu  Cu8  1  0.24428540  0.50100398  0.75017571  1
  Cu  Cu9  1  0.24987356  0.25003165  0.12504866  1
  Cu  Cu10  1  0.25043622  0.24796846  0.62523356  1
  Cu  Cu11  1  0.25043622  0.75203154  0.37476644  1
  Cu  Cu12  1  0.24987356  0.74996835  0.87495134  1
  Cu  Cu13  1  0.25094406  0.00087325  0.25049303  1
  Cu  Cu14  1  0.25094406  0.99912675  0.74950697  1
  Cu  Cu15  1  0.25093196  0.24864537  0.37463261  1
  Cu  Cu16  1  0.25075178  0.74896594  0.12420863  1
  Cu  Cu17  1  0.25075178  0.25103406  0.87579137  1
  Cu  Cu18  1  0.25093196  0.75135463  0.62536739  1
  Cu  Cu19  1  0.25648436  0.00000000  0.00000000  1
  Cu  Cu20  1  0.25670179  0.00000000  0.50000000  1
  Cu  Cu21  1  0.50000000  0.24353671  0.25000000  1
  Cu  Cu22  1  0.49917706  0.49963847  0.12218400  1
  Cu  Cu23  1  0.50000000  0.24359423  0.75000000  1
  Cu  Cu24  1  0.50082294  0.50036153  0.62218400  1
  Cu  Cu25  1  0.49940187  0.24908856  0.00062736  1
  Cu  Cu26  1  0.50059813  0.24908856  0.49937264  1
  Cu  Cu27  1  0.49917706  0.50036153  0.87781600  1
  Cu  Cu28  1  0.50082294  0.49963847  0.37781600  1
  Cu  Cu29  1  0.49940187  0.75091144  0.99937264  1
  Cu  Cu30  1  0.50000000  0.75640577  0.25000000  1
  Cu  Cu31  1  0.50059813  0.75091144  0.50062736  1
  Cu  Cu32  1  0.50000000  0.75646329  0.75000000  1
  Cu  Cu33  1  0.74329821  0.00000000  0.00000000  1
  Cu  Cu34  1  0.74351564  0.00000000  0.50000000  1
  Cu  Cu35  1  0.74906804  0.24864537  0.12536739  1
  Cu  Cu36  1  0.74924822  0.25103406  0.62420863  1
  Cu  Cu37  1  0.74906804  0.75135463  0.87463261  1
  Cu  Cu38  1  0.74924822  0.74896594  0.37579137  1
  Cu  Cu39  1  0.74905594  0.00087325  0.24950697  1
  Cu  Cu40  1  0.74905594  0.99912675  0.75049303  1
  Cu  Cu41  1  0.75012644  0.25003165  0.37495134  1
  Cu  Cu42  1  0.74956378  0.24796846  0.87476644  1
  Cu  Cu43  1  0.74956378  0.75203154  0.12523356  1
  Cu  Cu44  1  0.75012644  0.74996835  0.62504866  1
  Cu  Cu45  1  0.75571460  0.49899602  0.25017571  1
  Cu  Cu46  1  0.75571460  0.50100398  0.74982429  1
  Cu  Cu47  1  0.99791801  0.49968747  0.62489921  1
  Cu  Cu48  1  0.99899065  0.25578682  0.50034180  1
  Cu  Cu49  1  0.99791801  0.50031253  0.37510079  1
  Cu  Cu50  1  0.00067203  0.00109489  0.37212696  1
  Cu  Cu51  1  0.99932797  0.99890511  0.87212696  1
  Sn  Sn0  1  0.00000000  0.25022623  0.75000000  1
  Sn  Sn1  1  0.25014409  0.50000000  0.50000000  1
  Sn  Sn2  1  0.74985591  0.50000000  0.00000000  1
  Sn  Sn3  1  0.00000000  0.74977377  0.25000000  1
  As  As0  1  0.00000000  0.24976639  0.25000000  1
  As  As1  1  0.24973419  0.50000000  0.00000000  1
  As  As2  1  0.50018167  0.00027212  0.62497874  1
  As  As3  1  0.49981833  0.99972788  0.12497874  1
  As  As4  1  0.49981833  0.00027212  0.87502126  1
  As  As5  1  0.50018167  0.99972788  0.37502126  1
  As  As6  1  0.75026581  0.50000000  0.50000000  1
  As  As7  1  0.00000000  0.75023361  0.75000000  1
  S  S0  1  0.12073127  0.12037315  0.05972637  1
  S  S1  1  0.12018429  0.12037133  0.56034097  1
  S  S2  1  0.12018429  0.87962867  0.43965903  1
  S  S3  1  0.12073127  0.87962685  0.94027363  1
  S  S4  1  0.12427303  0.37217425  0.18645248  1
  S  S5  1  0.13035381  0.37901466  0.68246856  1
  S  S6  1  0.13035381  0.62098534  0.31753144  1
  S  S7  1  0.12427303  0.62782575  0.81354752  1
  S  S8  1  0.12786576  0.12698461  0.31139409  1
  S  S9  1  0.13477208  0.87909310  0.18471184  1
  S  S10  1  0.13477208  0.12090690  0.81528816  1
  S  S11  1  0.12786576  0.87301539  0.68860591  1
  S  S12  1  0.12780391  0.62360070  0.06448743  1
  S  S13  1  0.12093727  0.36873992  0.43311210  1
  S  S14  1  0.12780391  0.37639930  0.93551257  1
  S  S15  1  0.12093727  0.63126008  0.56688790  1
  S  S16  1  0.38011864  0.63456240  0.43519452  1
  S  S17  1  0.37219123  0.62805563  0.93808746  1
  S  S18  1  0.37219123  0.37194437  0.06191254  1
  S  S19  1  0.38011864  0.36543760  0.56480548  1
  S  S20  1  0.37307787  0.87571444  0.81407294  1
  S  S21  1  0.37192276  0.87765657  0.31360187  1
  S  S22  1  0.37307787  0.12428556  0.18592706  1
  S  S23  1  0.37192276  0.12234343  0.68639813  1
  S  S24  1  0.37660955  0.12833419  0.43598424  1
  S  S25  1  0.37692559  0.12664024  0.93627802  1
  S  S26  1  0.37692559  0.87335976  0.06372198  1
  S  S27  1  0.37660955  0.87166581  0.56401576  1
  S  S28  1  0.38042510  0.37933431  0.31029302  1
  S  S29  1  0.37903420  0.61996746  0.19034070  1
  S  S30  1  0.38042510  0.62066569  0.68970698  1
  S  S31  1  0.37903420  0.38003254  0.80965930  1
  S  S32  1  0.61957490  0.37933431  0.18970698  1
  S  S33  1  0.62096580  0.61996746  0.30965930  1
  S  S34  1  0.62096580  0.38003254  0.69034070  1
  S  S35  1  0.61957490  0.62066569  0.81029302  1
  S  S36  1  0.62339045  0.12833419  0.06401576  1
  S  S37  1  0.62307441  0.12664024  0.56372198  1
  S  S38  1  0.62339045  0.87166581  0.93598424  1
  S  S39  1  0.62307441  0.87335976  0.43627802  1
  S  S40  1  0.62692213  0.12428556  0.31407294  1
  S  S41  1  0.62807724  0.12234343  0.81360187  1
  S  S42  1  0.62692213  0.87571444  0.68592706  1
  S  S43  1  0.62807724  0.87765657  0.18639813  1
  S  S44  1  0.61988136  0.63456240  0.06480548  1
  S  S45  1  0.62780877  0.62805563  0.56191254  1
  S  S46  1  0.62780877  0.37194437  0.43808746  1
  S  S47  1  0.61988136  0.36543760  0.93519452  1
  S  S48  1  0.87219609  0.37639930  0.56448743  1
  S  S49  1  0.87906273  0.36873992  0.06688790  1
  S  S50  1  0.87219609  0.62360070  0.43551257  1
  S  S51  1  0.87906273  0.63126008  0.93311210  1
  S  S52  1  0.87213424  0.12698461  0.18860591  1
  S  S53  1  0.86522792  0.87909310  0.31528816  1
  S  S54  1  0.86522792  0.12090690  0.68471184  1
  S  S55  1  0.87213424  0.87301539  0.81139409  1
  S  S56  1  0.87572697  0.37217425  0.31354752  1
  S  S57  1  0.86964619  0.62098534  0.18246856  1
  S  S58  1  0.86964619  0.37901466  0.81753144  1
  S  S59  1  0.87572697  0.62782575  0.68645248  1
  S  S60  1  0.87926873  0.12037315  0.44027363  1
  S  S61  1  0.87981571  0.87962867  0.06034097  1
  S  S62  1  0.87926873  0.87962685  0.55972637  1
  S  S63  1  0.87981571  0.12037133  0.93965903  1
loop_
_geom_bond_atom_site_label_1
_geom_bond_atom_site_label_2
_geom_bond_distance
_geom_bond_site_symmetry_2
Cu0 S49 2.289162 1_456
Cu0 S14 2.323208 1_555
Cu0 S0 2.323617 1_556
Cu0 S63 2.331536 1_455
Cu1 S9 2.299959 1_645
Cu1 S52 2.315656 1_555
Cu1 S61 2.328149 1_545
Cu1 S0 2.334610 1_655
Cu2 S51 2.289162 1_454
Cu2 S12 2.323208 1_555
Cu2 S3 2.323617 1_554
Cu2 S61 2.331536 1_455
Cu3 S57 2.280118 1_455
Cu3 S12 2.286372 1_555
Cu3 S49 2.293876 1_455
Cu3 S4 2.308868 1_555
Cu4 S54 2.299959 1_465
Cu4 S11 2.315656 1_555
Cu4 S1 2.328149 1_565
Cu4 S62 2.334610 1_455
Cu5 S15 2.289162 1_655
Cu5 S50 2.323208 1_555
Cu5 S62 2.323617 1_555
Cu5 S2 2.331536 1_655
Cu6 S58 2.280118 1_455
Cu6 S14 2.286372 1_555
Cu6 S51 2.293876 1_455
Cu6 S7 2.308868 1_555
Cu7 S6 2.301418 1_555
Cu7 S4 2.310041 1_555
Cu7 S29 2.319670 1_555
Cu7 S28 2.332847 1_555
Cu8 S5 2.301418 1_555
Cu8 S7 2.310041 1_555
Cu8 S31 2.319670 1_555
Cu8 S30 2.332847 1_555
Cu9 S18 2.290566 1_555
Cu9 S4 2.290694 1_555
Cu9 S22 2.291687 1_555
Cu9 S0 2.407372 1_555
Cu10 S5 2.263443 1_555
Cu10 S19 2.276786 1_555
Cu10 S23 2.283908 1_555
Cu10 S1 2.396239 1_555
Cu11 S6 2.263443 1_555
Cu11 S16 2.276786 1_555
Cu11 S21 2.283908 1_555
Cu11 S2 2.396239 1_555
Cu12 S17 2.290566 1_555
Cu12 S7 2.290694 1_555
Cu12 S20 2.291687 1_555
Cu12 S3 2.407372 1_555
Cu13 S9 2.287288 1_545
Cu13 S21 2.290069 1_545
Cu13 S8 2.293487 1_555
Cu13 S22 2.316793 1_555
Cu14 S10 2.287288 1_565
Cu14 S23 2.290069 1_565
Cu14 S11 2.293487 1_555
Cu14 S20 2.316793 1_555
Cu15 S13 2.271147 1_555
Cu15 S24 2.279404 1_555
Cu15 S8 2.294916 1_555
Cu15 S28 2.403760 1_555
Cu16 S9 2.271878 1_555
Cu16 S12 2.273668 1_555
Cu16 S26 2.296969 1_555
Cu16 S29 2.408195 1_555
Cu17 S10 2.271878 1_555
Cu17 S14 2.273668 1_555
Cu17 S25 2.296969 1_555
Cu17 S31 2.408195 1_555
Cu18 S15 2.271147 1_555
Cu18 S27 2.279404 1_555
Cu18 S11 2.294916 1_555
Cu18 S30 2.403760 1_555
Cu19 S25 2.315872 1_554
Cu19 S26 2.315872 1_545
Cu19 S0 2.325668 1_555
Cu19 S3 2.325668 1_544
Cu20 S24 2.327077 1_555
Cu20 S27 2.327077 1_545
Cu20 S2 2.338034 1_545
Cu20 S1 2.338034 1_555
Cu21 S22 2.315020 1_555
Cu21 S40 2.315020 1_555
Cu21 S28 2.327987 1_555
Cu21 S32 2.327987 1_555
Cu22 S44 2.294785 1_555
Cu22 S18 2.320128 1_555
Cu22 S32 2.326341 1_555
Cu22 S29 2.333453 1_555
Cu23 S23 2.328204 1_555
Cu23 S41 2.328204 1_555
Cu23 S31 2.333007 1_555
Cu23 S34 2.333007 1_555
Cu24 S19 2.294785 1_555
Cu24 S45 2.320128 1_555
Cu24 S30 2.326341 1_555
Cu24 S34 2.333453 1_555
Cu25 S47 2.275804 1_554
Cu25 S36 2.297016 1_555
Cu25 S18 2.303744 1_555
Cu25 S25 2.310227 1_554
Cu26 S19 2.275804 1_555
Cu26 S24 2.297016 1_555
Cu26 S46 2.303744 1_555
Cu26 S37 2.310227 1_555
Cu27 S47 2.294785 1_555
Cu27 S17 2.320128 1_555
Cu27 S35 2.326341 1_555
Cu27 S31 2.333453 1_555
Cu28 S16 2.294785 1_555
Cu28 S46 2.320128 1_555
Cu28 S28 2.326341 1_555
Cu28 S33 2.333453 1_555
Cu29 S44 2.275804 1_556
Cu29 S38 2.297016 1_555
Cu29 S17 2.303744 1_555
Cu29 S26 2.310227 1_556
Cu30 S21 2.328204 1_555
Cu30 S43 2.328204 1_555
Cu30 S29 2.333007 1_555
Cu30 S33 2.333007 1_555
Cu31 S16 2.275804 1_555
Cu31 S27 2.297016 1_555
Cu31 S45 2.303744 1_555
Cu31 S39 2.310227 1_555
Cu32 S42 2.315020 1_555
Cu32 S20 2.315020 1_555
Cu32 S30 2.327987 1_555
Cu32 S35 2.327987 1_555
Cu33 S38 2.327077 1_544
Cu33 S36 2.327077 1_555
Cu33 S61 2.338034 1_545
Cu33 S63 2.338034 1_554
Cu34 S37 2.315872 1_555
Cu34 S39 2.315872 1_545
Cu34 S60 2.325668 1_555
Cu34 S62 2.325668 1_545
Cu35 S49 2.271147 1_555
Cu35 S36 2.279404 1_555
Cu35 S52 2.294916 1_555
Cu35 S32 2.403760 1_555
Cu36 S54 2.271878 1_555
Cu36 S48 2.273668 1_555
Cu36 S37 2.296969 1_555
Cu36 S34 2.408195 1_555
Cu37 S51 2.271147 1_555
Cu37 S38 2.279404 1_555
Cu37 S55 2.294916 1_555
Cu37 S35 2.403760 1_555
Cu38 S53 2.271878 1_555
Cu38 S50 2.273668 1_555
Cu38 S39 2.296969 1_555
Cu38 S33 2.408195 1_555
Cu39 S53 2.287288 1_545
Cu39 S43 2.290069 1_545
Cu39 S52 2.293487 1_555
Cu39 S40 2.316793 1_555
Cu40 S54 2.287288 1_565
Cu40 S41 2.290069 1_565
Cu40 S55 2.293487 1_555
Cu40 S42 2.316793 1_555
Cu41 S46 2.290566 1_555
Cu41 S56 2.290694 1_555
Cu41 S40 2.291687 1_555
Cu41 S60 2.407372 1_555
Cu42 S58 2.263443 1_555
Cu42 S47 2.276786 1_555
Cu42 S41 2.283908 1_555
Cu42 S63 2.396239 1_555
Cu43 S57 2.263443 1_555
Cu43 S44 2.276786 1_555
Cu43 S43 2.283908 1_555
Cu43 S61 2.396239 1_555
Cu44 S45 2.290566 1_555
Cu44 S59 2.290694 1_555
Cu44 S42 2.291687 1_555
Cu44 S62 2.407372 1_555
Cu45 S57 2.301418 1_555
Cu45 S56 2.310041 1_555
Cu45 S33 2.319670 1_555
Cu45 S32 2.332847 1_555
Cu46 S58 2.301418 1_555
Cu46 S59 2.310041 1_555
Cu46 S34 2.319670 1_555
Cu46 S35 2.332847 1_555
Cu47 S5 2.280118 1_655
Cu47 S48 2.286372 1_555
Cu47 S15 2.293876 1_655
Cu47 S59 2.308868 1_555
Cu48 S13 2.289162 1_655
Cu48 S48 2.323208 1_555
Cu48 S60 2.323617 1_555
Cu48 S1 2.331536 1_655
Cu49 S6 2.280118 1_655
Cu49 S50 2.286372 1_555
Cu49 S13 2.293876 1_655
Cu49 S56 2.308868 1_555
Cu50 S53 2.299959 1_445
Cu50 S8 2.315656 1_555
Cu50 S2 2.328149 1_545
Cu50 S60 2.334610 1_455
Cu51 S10 2.299959 1_665
Cu51 S55 2.315656 1_555
Cu51 S63 2.328149 1_565
Cu51 S3 2.334610 1_655
As0 S8 2.308772 1_555
As0 S52 2.308772 1_455
As0 S4 2.310781 1_555
As0 S56 2.310781 1_455
As1 S17 2.314360 1_554
As1 S18 2.314360 1_555
As1 S14 2.315711 1_554
As1 S12 2.315711 1_555
As2 S37 2.298311 1_555
As2 S42 2.307140 1_545
As2 S23 2.307262 1_555
As2 S27 2.313073 1_545
As3 S26 2.298311 1_555
As3 S22 2.307140 1_565
As3 S43 2.307262 1_555
As3 S36 2.313073 1_565
As4 S25 2.298311 1_555
As4 S20 2.307140 1_545
As4 S41 2.307262 1_555
As4 S38 2.313073 1_545
As5 S39 2.298311 1_555
As5 S40 2.307140 1_565
As5 S21 2.307262 1_555
As5 S24 2.313073 1_565
As6 S45 2.314360 1_555
As6 S46 2.314360 1_555
As6 S48 2.315711 1_555
As6 S50 2.315711 1_555
As7 S11 2.308772 1_555
As7 S55 2.308772 1_455
As7 S59 2.310781 1_455
As7 S7 2.310781 1_555
S0 V0 2.228403 1_555
S1 V1 2.233346 1_455
S2 V1 2.233346 1_465
S3 V0 2.228403 1_566
S5 Sn0 2.437303 1_555
S6 Sn3 2.437303 1_555
S9 Sn3 2.439981 1_555
S10 Sn0 2.439981 1_555
S13 Sn1 2.437266 1_555
S15 Sn1 2.437266 1_555
S16 Sn1 2.436741 1_555
S19 Sn1 2.436741 1_555
S28 V2 2.227184 1_555
S29 V2 2.230164 1_555
S30 V3 2.227184 1_555
S31 V3 2.230164 1_555
S32 V2 2.227184 1_555
S33 V2 2.230164 1_555
S34 V3 2.230164 1_555
S35 V3 2.227184 1_555
S44 Sn2 2.436741 1_555
S47 Sn2 2.436741 1_556
S49 Sn2 2.437266 1_555
S51 Sn2 2.437266 1_556
S53 Sn3 2.439981 1_655
S54 Sn0 2.439981 1_655
S57 Sn3 2.437303 1_655
S58 Sn0 2.437303 1_655
S60 V1 2.228403 1_555
S61 V0 2.233346 1_665
S62 V1 2.228403 1_565
S63 V0 2.233346 1_656
