# generated using pymatgen
data_Li4Cr3(CoO4)3
_symmetry_space_group_name_H-M   'P 1'
_cell_length_a   5.84526800
_cell_length_b   5.92258615
_cell_length_c   6.59316201
_cell_angle_alpha   104.11876933
_cell_angle_beta   102.91707154
_cell_angle_gamma   89.61579932
_symmetry_Int_Tables_number   1
_chemical_formula_structural   Li4Cr3(CoO4)3
_chemical_formula_sum   'Li4 Cr3 Co3 O12'
_cell_volume   215.47667508
_cell_formula_units_Z   1
loop_
 _symmetry_equiv_pos_site_id
 _symmetry_equiv_pos_as_xyz
  1  'x, y, z'
loop_
 _atom_site_type_symbol
 _atom_site_label
 _atom_site_symmetry_multiplicity
 _atom_site_fract_x
 _atom_site_fract_y
 _atom_site_fract_z
 _atom_site_occupancy
  Li  Li0  1  0.17556700  0.15608100  0.65797600  1
  Li  Li1  1  0.82443300  0.84391900  0.34202400  1
  Li  Li2  1  0.50000000  0.50000000  0.00000000  1
  Li  Li3  1  0.00000000  0.50000000  0.00000000  1
  Cr  Cr0  1  0.00000000  0.00000000  0.00000000  1
  Cr  Cr1  1  0.66523800  0.66777600  0.66393400  1
  Cr  Cr2  1  0.33476200  0.33222400  0.33606600  1
  Co  Co0  1  0.50000000  0.00000000  0.00000000  1
  Co  Co1  1  0.16460800  0.66672100  0.66355400  1
  Co  Co2  1  0.83539200  0.33327900  0.33644600  1
  O  O0  1  0.40507000  0.89127200  0.68670100  1
  O  O1  1  0.93144400  0.88999300  0.67557200  1
  O  O2  1  0.59493000  0.10872800  0.31329900  1
  O  O3  1  0.23892800  0.75427300  0.96789600  1
  O  O4  1  0.06855600  0.11000700  0.32442800  1
  O  O5  1  0.75261500  0.75964900  0.98816500  1
  O  O6  1  0.59877200  0.55458100  0.34431900  1
  O  O7  1  0.24738500  0.24035100  0.01183500  1
  O  O8  1  0.07530500  0.55893400  0.35393300  1
  O  O9  1  0.76107200  0.24572700  0.03210400  1
  O  O10  1  0.40122800  0.44541900  0.65568100  1
  O  O11  1  0.92469500  0.44106600  0.64606700  1
loop_
_geom_bond_atom_site_label_1
_geom_bond_atom_site_label_2
_geom_bond_distance
_geom_bond_site_symmetry_2
Li0 O0 2.073246 1_545
Li0 O4 2.096772 1_555
Li0 O1 2.174076 1_445
Li0 O10 2.174519 1_555
Li0 O7 2.205744 1_556
Li0 O11 2.232790 1_455
Li1 O2 2.073246 1_565
Li1 O1 2.096772 1_555
Li1 O4 2.174076 1_665
Li1 O6 2.174519 1_555
Li1 O5 2.205744 1_554
Li1 O8 2.232790 1_655
Li2 O9 2.149829 1_555
Li2 O3 2.149829 1_554
Li2 O6 2.156368 1_555
Li2 O10 2.156368 1_554
Li2 O7 2.166047 1_555
Li2 O5 2.166047 1_554
Li3 O5 2.107173 1_454
Li3 O7 2.107173 1_555
Li3 O9 2.139876 1_455
Li3 O3 2.139876 1_554
Li3 O8 2.215050 1_555
Li3 O11 2.215050 1_454
Cr0 O5 2.011571 1_444
Cr0 O7 2.011571 1_555
Cr0 O9 2.016909 1_455
Cr0 O3 2.016909 1_544
Cr0 O4 2.025043 1_555
Cr0 O1 2.025043 1_444
Cr1 O6 1.997307 1_555
Cr1 O0 2.016298 1_555
Cr1 O10 2.018294 1_555
Cr1 O5 2.018624 1_555
Cr1 O1 2.020915 1_555
Cr1 O11 2.022920 1_555
Cr2 O10 1.997307 1_555
Cr2 O2 2.016298 1_555
Cr2 O6 2.018294 1_555
Cr2 O7 2.018624 1_555
Cr2 O4 2.020915 1_555
Cr2 O8 2.022920 1_555
Co0 O0 1.957758 1_544
Co0 O2 1.957758 1_555
Co0 O7 2.044976 1_555
Co0 O5 2.044976 1_544
Co0 O3 2.055891 1_544
Co0 O9 2.055891 1_555
Co1 O1 1.893512 1_455
Co1 O3 1.894633 1_555
Co1 O0 1.896773 1_555
Co1 O10 1.899515 1_555
Co1 O11 1.908847 1_455
Co1 O8 1.933788 1_555
Co2 O4 1.893512 1_655
Co2 O9 1.894633 1_555
Co2 O2 1.896773 1_555
Co2 O6 1.899515 1_555
Co2 O8 1.908847 1_655
Co2 O11 1.933788 1_555
