# generated using pymatgen
data_Li2VF4
_symmetry_space_group_name_H-M   'P 1'
_cell_length_a   8.87401821
_cell_length_b   8.87401821
_cell_length_c   8.87401830
_cell_angle_alpha   108.79467278
_cell_angle_beta   108.79467278
_cell_angle_gamma   108.79467711
_symmetry_Int_Tables_number   1
_chemical_formula_structural   Li2VF4
_chemical_formula_sum   'Li12 V6 F24'
_cell_volume   551.00924870
_cell_formula_units_Z   6
loop_
 _symmetry_equiv_pos_site_id
 _symmetry_equiv_pos_as_xyz
  1  'x, y, z'
loop_
 _atom_site_type_symbol
 _atom_site_label
 _atom_site_symmetry_multiplicity
 _atom_site_fract_x
 _atom_site_fract_y
 _atom_site_fract_z
 _atom_site_occupancy
  Li  Li0  1  0.92000400  0.03115500  0.28993100  1
  Li  Li1  1  0.71006900  0.07999600  0.96884500  1
  Li  Li2  1  0.63446100  0.21450800  0.34653700  1
  Li  Li3  1  0.96884500  0.71006900  0.07999600  1
  Li  Li4  1  0.65346300  0.36553900  0.78549200  1
  Li  Li5  1  0.78549200  0.65346300  0.36553900  1
  Li  Li6  1  0.21450800  0.34653700  0.63446100  1
  Li  Li7  1  0.34653700  0.63446100  0.21450800  1
  Li  Li8  1  0.03115500  0.28993100  0.92000400  1
  Li  Li9  1  0.36553900  0.78549200  0.65346300  1
  Li  Li10  1  0.28993100  0.92000400  0.03115500  1
  Li  Li11  1  0.07999600  0.96884500  0.71006900  1
  V  V0  1  0.70945800  0.02599000  0.54276100  1
  V  V1  1  0.97401000  0.45723900  0.29054200  1
  V  V2  1  0.45723900  0.29054200  0.97401000  1
  V  V3  1  0.54276100  0.70945800  0.02599000  1
  V  V4  1  0.02599000  0.54276100  0.70945800  1
  V  V5  1  0.29054200  0.97401000  0.45723900  1
  F  F0  1  0.79469500  0.11096300  0.81339200  1
  F  F1  1  0.63320100  0.96004500  0.26750400  1
  F  F2  1  0.88903700  0.18660800  0.20530500  1
  F  F3  1  0.03995500  0.73249600  0.36679900  1
  F  F4  1  0.81995900  0.46380600  0.43957200  1
  F  F5  1  0.46762000  0.15450900  0.12445600  1
  F  F6  1  0.87554400  0.53238000  0.84549100  1
  F  F7  1  0.73249600  0.36679900  0.03995500  1
  F  F8  1  0.56042800  0.18004100  0.53619400  1
  F  F9  1  0.53619400  0.56042800  0.18004100  1
  F  F10  1  0.18660800  0.20530500  0.88903700  1
  F  F11  1  0.84549100  0.87554400  0.53238000  1
  F  F12  1  0.15450900  0.12445600  0.46762000  1
  F  F13  1  0.81339200  0.79469500  0.11096300  1
  F  F14  1  0.46380600  0.43957200  0.81995900  1
  F  F15  1  0.43957200  0.81995900  0.46380600  1
  F  F16  1  0.26750400  0.63320100  0.96004500  1
  F  F17  1  0.12445600  0.46762000  0.15450900  1
  F  F18  1  0.53238000  0.84549100  0.87554400  1
  F  F19  1  0.18004100  0.53619400  0.56042800  1
  F  F20  1  0.96004500  0.26750400  0.63320100  1
  F  F21  1  0.11096300  0.81339200  0.79469500  1
  F  F22  1  0.36679900  0.03995500  0.73249600  1
  F  F23  1  0.20530500  0.88903700  0.18660800  1
loop_
_geom_bond_atom_site_label_1
_geom_bond_atom_site_label_2
_geom_bond_distance
_geom_bond_site_symmetry_2
F0 Li1 1.822442 1_555
F0 Li8 1.850875 1_655
F0 V0 2.050230 1_555
F1 V0 2.127333 1_565
F1 Li2 2.132902 1_565
F1 V3 2.202979 1_555
F1 Li0 2.339479 1_565
F2 Li0 1.822442 1_555
F2 Li1 1.850875 1_554
F2 V1 2.050230 1_555
F3 V1 2.127333 1_455
F3 Li5 2.132902 1_455
F3 V5 2.202978 1_555
F3 Li3 2.339479 1_455
F4 Li2 1.971386 1_555
F4 Li5 2.066977 1_555
F4 V1 2.188112 1_555
F4 V4 2.200318 1_655
F5 Li2 1.815273 1_555
F5 Li10 1.853815 1_545
F5 V2 2.068569 1_554
F6 Li4 1.815273 1_555
F6 Li3 1.853815 1_556
F6 V4 2.068569 1_655
F7 V2 2.127333 1_554
F7 Li4 2.132902 1_554
F7 V1 2.202979 1_555
F7 Li1 2.339479 1_554
F8 Li4 1.971386 1_555
F8 Li2 2.066977 1_555
F8 V0 2.188112 1_555
F8 V5 2.200318 1_545
F9 Li5 1.971386 1_555
F9 Li7 2.066977 1_555
F9 V3 2.188112 1_555
F9 V2 2.200318 1_554
F10 Li8 1.822442 1_555
F10 Li11 1.850875 1_545
F10 V2 2.050230 1_555
F11 Li5 1.815273 1_555
F11 Li11 1.853815 1_655
F11 V0 2.068569 1_565
F12 Li6 1.815273 1_555
F12 Li0 1.853815 1_455
F12 V5 2.068569 1_545
F13 Li3 1.822442 1_555
F13 Li0 1.850875 1_565
F13 V3 2.050230 1_555
F14 Li6 1.971386 1_555
F14 Li4 2.066977 1_555
F14 V2 2.188112 1_555
F14 V3 2.200318 1_556
F15 Li7 1.971386 1_555
F15 Li9 2.066977 1_555
F15 V5 2.188112 1_555
F15 V0 2.200318 1_565
F16 V3 2.127333 1_556
F16 Li7 2.132902 1_556
F16 V4 2.202979 1_555
F16 Li10 2.339479 1_556
F17 Li7 1.815273 1_555
F17 Li8 1.853815 1_554
F17 V1 2.068569 1_455
F18 Li9 1.815273 1_555
F18 Li1 1.853815 1_565
F18 V3 2.068569 1_556
F19 Li9 1.971386 1_555
F19 Li6 2.066977 1_555
F19 V4 2.188112 1_555
F19 V1 2.200318 1_455
F20 V4 2.127333 1_655
F20 Li6 2.132902 1_655
F20 V0 2.202978 1_555
F20 Li8 2.339479 1_655
F21 Li11 1.822442 1_555
F21 Li10 1.850875 1_556
F21 V4 2.050230 1_555
F22 V5 2.127333 1_545
F22 Li9 2.132902 1_545
F22 V2 2.202979 1_555
F22 Li11 2.339479 1_545
F23 Li10 1.822442 1_555
F23 Li3 1.850875 1_455
F23 V5 2.050230 1_555
