# generated using pymatgen
data_Li4V5Cr3O16
_symmetry_space_group_name_H-M   'P 1'
_cell_length_a   5.87839103
_cell_length_b   5.87839103
_cell_length_c   9.57075341
_cell_angle_alpha   89.23048088
_cell_angle_beta   89.23048088
_cell_angle_gamma   60.97572659
_symmetry_Int_Tables_number   1
_chemical_formula_structural   Li4V5Cr3O16
_chemical_formula_sum   'Li4 V5 Cr3 O16'
_cell_volume   289.15289295
_cell_formula_units_Z   1
loop_
 _symmetry_equiv_pos_site_id
 _symmetry_equiv_pos_as_xyz
  1  'x, y, z'
loop_
 _atom_site_type_symbol
 _atom_site_label
 _atom_site_symmetry_multiplicity
 _atom_site_fract_x
 _atom_site_fract_y
 _atom_site_fract_z
 _atom_site_occupancy
  Li  Li0  1  0.66749800  0.66749800  0.89609800  1
  Li  Li1  1  0.99948900  0.99948900  0.99798200  1
  Li  Li2  1  0.99869000  0.99869000  0.49378900  1
  Li  Li3  1  0.33469800  0.33469800  0.39153800  1
  V  V0  1  0.66112800  0.16500900  0.71513800  1
  V  V1  1  0.66305800  0.66305800  0.48591400  1
  V  V2  1  0.82639200  0.82639200  0.21734000  1
  V  V3  1  0.33451500  0.33451500  0.99238800  1
  V  V4  1  0.16500900  0.66112800  0.71513800  1
  Cr  Cr0  1  0.82623300  0.34127900  0.21246600  1
  Cr  Cr1  1  0.34127900  0.82623300  0.21246600  1
  Cr  Cr2  1  0.16928600  0.16928600  0.71346300  1
  O  O0  1  0.82671700  0.32174600  0.60402000  1
  O  O1  1  0.51913100  0.51913100  0.33653200  1
  O  O2  1  0.67661400  0.67661400  0.10329700  1
  O  O3  1  0.99453700  0.99453700  0.30589300  1
  O  O4  1  0.99686900  0.99686900  0.81271100  1
  O  O5  1  0.32174600  0.82671700  0.60402000  1
  O  O6  1  0.96341300  0.52267300  0.34007200  1
  O  O7  1  0.52267300  0.96341300  0.34007200  1
  O  O8  1  0.17297900  0.17297900  0.09099400  1
  O  O9  1  0.83350200  0.83350200  0.60772600  1
  O  O10  1  0.48707400  0.04003100  0.83946500  1
  O  O11  1  0.04003100  0.48707400  0.83946500  1
  O  O12  1  0.33944000  0.33944000  0.60367900  1
  O  O13  1  0.66530700  0.16854700  0.09540000  1
  O  O14  1  0.47832700  0.47832700  0.84423100  1
  O  O15  1  0.16854700  0.66530700  0.09540000  1
loop_
_geom_bond_atom_site_label_1
_geom_bond_atom_site_label_2
_geom_bond_distance
_geom_bond_site_symmetry_2
Li0 O10 1.985975 1_565
Li0 O11 1.985975 1_655
Li0 O2 1.986637 1_556
Li0 O14 1.987258 1_555
Li1 O4 1.773795 1_555
Li1 O15 1.948665 1_656
Li1 O13 1.948665 1_566
Li1 O8 1.982580 1_666
Li2 O3 1.799454 1_555
Li2 O5 1.975764 1_655
Li2 O0 1.975764 1_565
Li2 O9 1.983187 1_555
Li3 O1 1.933369 1_555
Li3 O6 1.975151 1_455
Li3 O7 1.975151 1_545
Li3 O12 2.031666 1_555
Cr0 O1 1.976432 1_555
Cr0 O3 1.987701 1_545
Cr0 O2 2.009474 1_555
Cr0 O13 2.042624 1_555
Cr0 O6 2.043192 1_555
Cr0 O8 2.120264 1_655
Cr1 O1 1.976432 1_555
Cr1 O3 1.987701 1_455
Cr1 O2 2.009474 1_555
Cr1 O15 2.042624 1_555
Cr1 O7 2.043192 1_555
Cr1 O8 2.120264 1_565
Cr2 O4 1.975312 1_445
Cr2 O12 2.004815 1_555
Cr2 O10 2.044481 1_555
Cr2 O11 2.044481 1_555
Cr2 O0 2.058092 1_455
Cr2 O5 2.058092 1_545
O0 V0 1.934825 1_555
O0 V1 2.079434 1_555
O1 V1 2.057972 1_555
O2 V2 1.882968 1_555
O3 V2 1.914489 1_555
O4 V4 1.968750 1_655
O4 V0 1.968750 1_565
O5 V4 1.934825 1_555
O5 V1 2.079434 1_555
O6 V2 1.946734 1_555
O6 V1 2.073058 1_555
O7 V2 1.946734 1_555
O7 V1 2.073058 1_555
O8 V3 1.876386 1_554
O9 V0 1.997709 1_565
O9 V4 1.997709 1_655
O9 V1 2.098521 1_555
O10 V0 1.917206 1_555
O10 V3 2.114093 1_555
O11 V4 1.917206 1_555
O11 V3 2.114093 1_555
O12 V4 1.977002 1_555
O12 V0 1.977002 1_555
O13 V3 1.972254 1_554
O13 V2 2.103002 1_545
O14 V3 2.017198 1_555
O14 V4 2.044120 1_555
O14 V0 2.044120 1_555
O15 V3 1.972254 1_554
O15 V2 2.103002 1_455
