# generated using pymatgen
data_V(SiO3)2
_symmetry_space_group_name_H-M   'P 1'
_cell_length_a   7.05969947
_cell_length_b   7.29878887
_cell_length_c   14.08119905
_cell_angle_alpha   95.94921669
_cell_angle_beta   86.56600439
_cell_angle_gamma   76.64137978
_symmetry_Int_Tables_number   1
_chemical_formula_structural   V(SiO3)2
_chemical_formula_sum   'V6 Si12 O36'
_cell_volume   699.49137395
_cell_formula_units_Z   6
loop_
 _symmetry_equiv_pos_site_id
 _symmetry_equiv_pos_as_xyz
  1  'x, y, z'
loop_
 _atom_site_type_symbol
 _atom_site_label
 _atom_site_symmetry_multiplicity
 _atom_site_fract_x
 _atom_site_fract_y
 _atom_site_fract_z
 _atom_site_occupancy
  V  V0  1  0.75002500  0.49999400  0.24992300  1
  V  V1  1  0.07389100  0.22704700  0.86789200  1
  V  V2  1  0.42614600  0.77289800  0.63214100  1
  V  V3  1  0.24999400  0.50005100  0.75004600  1
  V  V4  1  0.57382700  0.22714900  0.36782500  1
  V  V5  1  0.92621000  0.77297200  0.13207000  1
  Si  Si0  1  0.55965000  0.16157300  0.13509500  1
  Si  Si1  1  0.05957100  0.16154100  0.63521700  1
  Si  Si2  1  0.94029800  0.83851000  0.36478100  1
  Si  Si3  1  0.44038300  0.83840600  0.86493700  1
  Si  Si4  1  0.10576500  0.15545300  0.14212600  1
  Si  Si5  1  0.60566800  0.15538600  0.64220800  1
  Si  Si6  1  0.39422800  0.84461500  0.35780300  1
  Si  Si7  1  0.89426500  0.84459800  0.85790200  1
  Si  Si8  1  0.80286400  0.37352900  0.03024600  1
  Si  Si9  1  0.30286100  0.37341600  0.53026100  1
  Si  Si10  1  0.69716100  0.62653700  0.46972000  1
  Si  Si11  1  0.19718600  0.62640900  0.96977100  1
  O  O0  1  0.42789300  0.04745200  0.33552800  1
  O  O1  1  0.92787300  0.04748700  0.83559800  1
  O  O2  1  0.07215200  0.95255400  0.16444500  1
  O  O3  1  0.57208000  0.95251600  0.66447200  1
  O  O4  1  0.80123600  0.05294200  0.37672200  1
  O  O5  1  0.30135100  0.05288000  0.87693100  1
  O  O6  1  0.69864800  0.94712700  0.12305700  1
  O  O7  1  0.19870100  0.94710700  0.62328400  1
  O  O8  1  0.33455200  0.15595400  0.13150400  1
  O  O9  1  0.83453800  0.15545800  0.63175100  1
  O  O10  1  0.16536300  0.84439800  0.36829600  1
  O  O11  1  0.66549100  0.84403600  0.86850600  1
  O  O12  1  0.60078800  0.28372700  0.23624600  1
  O  O13  1  0.10070200  0.28365200  0.73634900  1
  O  O14  1  0.89923400  0.71646000  0.26362100  1
  O  O15  1  0.39923800  0.71628000  0.76374500  1
  O  O16  1  0.61860300  0.27689900  0.04811600  1
  O  O17  1  0.11856000  0.27680300  0.54819200  1
  O  O18  1  0.88143400  0.72323800  0.45180700  1
  O  O19  1  0.38146100  0.72307200  0.95191700  1
  O  O20  1  0.01194200  0.21456900  0.03991400  1
  O  O21  1  0.51191900  0.21453600  0.53993500  1
  O  O22  1  0.48804700  0.78542900  0.46004700  1
  O  O23  1  0.98810800  0.78536900  0.96012900  1
  O  O24  1  0.98174200  0.32193700  0.22488200  1
  O  O25  1  0.48170400  0.32191500  0.72489600  1
  O  O26  1  0.51826300  0.67809800  0.27510400  1
  O  O27  1  0.01829600  0.67811400  0.77513900  1
  O  O28  1  0.72611700  0.44378700  0.38756400  1
  O  O29  1  0.22608100  0.44375300  0.88759500  1
  O  O30  1  0.77392700  0.55625800  0.11239400  1
  O  O31  1  0.27392000  0.55625600  0.61238400  1
  O  O32  1  0.15175200  0.59044000  0.07988600  1
  O  O33  1  0.65176000  0.59053100  0.57984500  1
  O  O34  1  0.34823900  0.40939700  0.42011700  1
  O  O35  1  0.84829300  0.40948400  0.92011700  1
loop_
_geom_bond_atom_site_label_1
_geom_bond_atom_site_label_2
_geom_bond_distance
_geom_bond_site_symmetry_2
O0 Si6 1.611384 1_545
O0 V4 1.882907 1_555
O1 Si7 1.611728 1_545
O1 V1 1.882529 1_655
O2 Si4 1.611871 1_565
O2 V5 1.882501 1_455
O3 Si5 1.611386 1_565
O3 V2 1.882544 1_555
O4 Si2 1.630111 1_545
O4 V4 1.823098 1_555
O5 Si3 1.630257 1_545
O5 V1 1.823600 1_555
O6 Si0 1.629982 1_565
O6 V5 1.824007 1_555
O7 Si1 1.630307 1_565
O7 V2 1.823180 1_555
O8 Si0 1.602769 1_555
O8 Si4 1.614017 1_555
O9 Si1 1.603011 1_655
O9 Si5 1.613768 1_555
O10 Si2 1.602936 1_455
O10 Si6 1.614005 1_555
O11 Si3 1.602832 1_555
O11 Si7 1.614026 1_555
O12 Si0 1.677476 1_555
O12 V4 1.947374 1_555
O12 V0 2.090092 1_555
O13 Si1 1.677092 1_555
O13 V1 1.946854 1_555
O13 V3 2.091201 1_555
O14 Si2 1.677030 1_555
O14 V5 1.946841 1_555
O14 V0 2.091223 1_555
O15 Si3 1.677859 1_555
O15 V2 1.947778 1_555
O15 V3 2.089901 1_555
O16 Si8 1.635363 1_555
O16 Si0 1.642048 1_555
O17 Si9 1.635665 1_555
O17 Si1 1.642336 1_555
O18 Si10 1.635857 1_555
O18 Si2 1.642106 1_555
O19 Si11 1.635569 1_555
O19 Si3 1.642026 1_555
O20 Si4 1.675488 1_555
O20 Si8 1.675939 1_455
O20 V1 2.450349 1_554
O21 Si9 1.675563 1_555
O21 Si5 1.676130 1_555
O21 V4 2.451707 1_555
O22 Si10 1.675891 1_555
O22 Si6 1.676017 1_555
O22 V2 2.451371 1_555
O23 Si11 1.675863 1_655
O23 Si7 1.675945 1_555
O23 V5 2.449076 1_556
O24 Si4 1.641251 1_655
O24 V0 1.828341 1_555
O25 Si5 1.640721 1_555
O25 V3 1.828686 1_555
O26 Si6 1.640926 1_555
O26 V0 1.828865 1_555
O27 Si7 1.641328 1_455
O27 V3 1.828314 1_555
O28 Si10 1.638618 1_555
O28 V0 2.027521 1_555
O28 V4 2.112713 1_555
O29 Si11 1.638348 1_555
O29 V3 2.026478 1_555
O29 V1 2.112607 1_555
O30 Si8 1.638454 1_555
O30 V0 2.026119 1_555
O30 V5 2.113077 1_555
O31 Si9 1.638812 1_555
O31 V3 2.027813 1_555
O31 V2 2.112448 1_555
O32 Si11 1.624723 1_554
O32 V5 1.877985 1_455
O33 Si10 1.624900 1_555
O33 V2 1.878174 1_555
O34 Si9 1.625072 1_555
O34 V4 1.877627 1_555
O35 Si8 1.624875 1_556
O35 V1 1.878073 1_655
