# generated using pymatgen
data_Na5Ni2P2(CO7)2
_symmetry_space_group_name_H-M   'P 1'
_cell_length_a   6.56776100
_cell_length_b   10.20654250
_cell_length_c   10.43895233
_cell_angle_alpha   118.99777366
_cell_angle_beta   89.99737642
_cell_angle_gamma   90.29194384
_symmetry_Int_Tables_number   1
_chemical_formula_structural   Na5Ni2P2(CO7)2
_chemical_formula_sum   'Na10 Ni4 P4 C4 O28'
_cell_volume   612.03211208
_cell_formula_units_Z   2
loop_
 _symmetry_equiv_pos_site_id
 _symmetry_equiv_pos_as_xyz
  1  'x, y, z'
loop_
 _atom_site_type_symbol
 _atom_site_label
 _atom_site_symmetry_multiplicity
 _atom_site_fract_x
 _atom_site_fract_y
 _atom_site_fract_z
 _atom_site_occupancy
  Na  Na0  1  0.48802000  0.26905000  0.26880100  1
  Na  Na1  1  0.01177400  0.26855900  0.26828800  1
  Na  Na2  1  0.99608000  0.73634200  0.24071100  1
  Na  Na3  1  0.50620600  0.73474500  0.23753600  1
  Na  Na4  1  0.74020800  0.91319500  0.06276500  1
  Na  Na5  1  0.74070200  0.91687300  0.57258100  1
  Na  Na6  1  0.25847800  0.07880800  0.92741400  1
  Na  Na7  1  0.01146200  0.26717400  0.75277900  1
  Na  Na8  1  0.48637400  0.26708600  0.75261100  1
  Na  Na9  1  0.97520600  0.72482000  0.73835200  1
  Ni  Ni0  1  0.75039000  0.34490700  0.06216500  1
  Ni  Ni1  1  0.25379900  0.65470200  0.44193400  1
  Ni  Ni2  1  0.75039700  0.34780900  0.56209300  1
  Ni  Ni3  1  0.25291300  0.65520900  0.93454800  1
  P  P0  1  0.24950200  0.41923700  0.06912800  1
  P  P1  1  0.75081600  0.57850000  0.43000600  1
  P  P2  1  0.25190100  0.42611100  0.57177500  1
  P  P3  1  0.75041300  0.58126400  0.93443900  1
  C  C0  1  0.24666600  0.93617600  0.11048100  1
  C  C1  1  0.24818700  0.93046400  0.61120300  1
  C  C2  1  0.74980400  0.06593300  0.38961200  1
  C  C3  1  0.75521500  0.06633200  0.88747900  1
  O  O0  1  0.74809200  0.12332200  0.03004000  1
  O  O1  1  0.06370600  0.31627900  0.05394100  1
  O  O2  1  0.43587200  0.31846900  0.05506100  1
  O  O3  1  0.75139200  0.42972000  0.28380800  1
  O  O4  1  0.25072800  0.46094300  0.44080800  1
  O  O5  1  0.75704700  0.54330200  0.06312100  1
  O  O6  1  0.24939500  0.56712900  0.21553700  1
  O  O7  1  0.93720100  0.68176900  0.44624200  1
  O  O8  1  0.56494900  0.67821000  0.44199300  1
  O  O9  1  0.25023400  0.84152500  0.16054300  1
  O  O10  1  0.24258000  0.83868300  0.66348700  1
  O  O11  1  0.25541500  0.86838400  0.46913000  1
  O  O12  1  0.75102500  0.92303600  0.30815100  1
  O  O13  1  0.76800000  0.92590700  0.80384200  1
  O  O14  1  0.24899900  0.07805800  0.19325400  1
  O  O15  1  0.24888100  0.07291000  0.69400400  1
  O  O16  1  0.74931900  0.12682500  0.53214500  1
  O  O17  1  0.74891700  0.15600100  0.33417000  1
  O  O18  1  0.74790000  0.16096600  0.83641800  1
  O  O19  1  0.06354500  0.32443300  0.55272400  1
  O  O20  1  0.43913200  0.32670800  0.55495200  1
  O  O21  1  0.74849100  0.43384000  0.78734600  1
  O  O22  1  0.24953000  0.45436400  0.93889100  1
  O  O23  1  0.75647000  0.54031600  0.55695000  1
  O  O24  1  0.24696600  0.57230400  0.71783800  1
  O  O25  1  0.56171200  0.68170900  0.95905400  1
  O  O26  1  0.93750000  0.68201900  0.94784500  1
  O  O27  1  0.24264300  0.87924700  0.96887100  1
loop_
_geom_bond_atom_site_label_1
_geom_bond_atom_site_label_2
_geom_bond_distance
_geom_bond_site_symmetry_2
Na0 O14 2.316194 1_555
Na0 O3 2.329783 1_555
Na0 O17 2.348776 1_555
Na0 O4 2.471860 1_555
Na0 O2 2.538317 1_555
Na0 O20 2.769433 1_555
Na0 O0 2.788049 1_555
Na1 O14 2.318553 1_555
Na1 O3 2.329534 1_455
Na1 O17 2.349234 1_455
Na1 O4 2.470270 1_555
Na1 O1 2.532804 1_555
Na1 O19 2.759249 1_555
Na1 O0 2.789581 1_455
Na2 O6 2.325726 1_655
Na2 O12 2.333975 1_555
Na2 O9 2.343471 1_655
Na2 O5 2.492134 1_555
Na2 O7 2.493890 1_555
Na2 O11 2.695232 1_655
Na2 O26 2.855954 1_554
Na3 O6 2.326820 1_555
Na3 O12 2.327486 1_555
Na3 O9 2.351199 1_555
Na3 O8 2.496702 1_555
Na3 O5 2.535816 1_555
Na3 O11 2.691406 1_555
Na3 O25 2.711663 1_554
Na4 O0 2.329850 1_565
Na4 O25 2.370762 1_554
Na4 O26 2.443781 1_554
Na4 O12 2.515408 1_555
Na4 O17 2.713459 1_565
Na4 O13 2.774069 1_554
Na5 O16 2.376780 1_565
Na5 O13 2.377538 1_555
Na5 O8 2.424130 1_555
Na5 O7 2.475083 1_555
Na5 O18 2.672204 1_565
Na5 O12 2.792221 1_555
Na6 O27 2.280185 1_545
Na6 O15 2.408769 1_555
Na6 O2 2.434611 1_556
Na6 O1 2.486590 1_556
Na6 O10 2.656856 1_545
Na6 O14 2.779504 1_556
Na7 O21 2.332729 1_455
Na7 O15 2.364568 1_555
Na7 O18 2.414992 1_455
Na7 O19 2.449700 1_555
Na7 O22 2.498105 1_555
Na7 O16 2.664079 1_455
Na8 O21 2.315969 1_555
Na8 O15 2.351183 1_555
Na8 O18 2.413841 1_555
Na8 O20 2.437905 1_555
Na8 O22 2.506182 1_555
Na8 O16 2.675607 1_555
Na9 O13 2.280287 1_555
Na9 O24 2.315132 1_655
Na9 O23 2.389817 1_555
Na9 O10 2.429961 1_655
Na9 O26 2.441259 1_555
Na9 O27 2.766753 1_655
Na9 O7 2.872911 1_555
Ni0 O5 2.020358 1_555
Ni0 O3 2.039793 1_555
Ni0 O1 2.075817 1_655
Ni0 O2 2.078527 1_555
Ni0 O0 2.119412 1_555
Ni0 O18 2.188259 1_554
Ni1 O4 1.971938 1_555
Ni1 O8 2.056347 1_555
Ni1 O11 2.058330 1_555
Ni1 O6 2.082503 1_555
Ni1 O7 2.096616 1_455
Ni1 O10 2.161302 1_555
Ni2 O23 1.991610 1_555
Ni2 O20 2.052102 1_555
Ni2 O19 2.068523 1_655
Ni2 O21 2.073293 1_555
Ni2 O16 2.121597 1_555
Ni2 O17 2.231000 1_555
Ni3 O24 1.994723 1_555
Ni3 O25 2.044317 1_555
Ni3 O22 2.072298 1_555
Ni3 O26 2.086724 1_455
Ni3 O27 2.137505 1_555
Ni3 O9 2.198368 1_556
C0 O14 1.276914 1_565
C0 O27 1.300242 1_554
C0 O9 1.302552 1_555
C1 O15 1.281573 1_565
C1 O10 1.293109 1_555
C1 O11 1.300957 1_555
C2 O12 1.283745 1_545
C2 O17 1.302294 1_555
C2 O16 1.305203 1_555
C3 O13 1.269454 1_545
C3 O0 1.310048 1_556
C3 O18 1.311105 1_555
O1 P0 1.563291 1_555
O2 P0 1.563330 1_555
O3 P1 1.545382 1_555
O4 P2 1.570619 1_555
O5 P3 1.568853 1_554
O6 P0 1.541952 1_555
O7 P1 1.565838 1_555
O8 P1 1.559076 1_555
O19 P2 1.560044 1_555
O20 P2 1.553144 1_555
O21 P3 1.543280 1_555
O22 P0 1.565078 1_556
O23 P1 1.552482 1_555
O24 P2 1.531988 1_555
O25 P3 1.552590 1_555
O26 P3 1.560297 1_555
