# generated using pymatgen
data_LiFe7(OF3)3
_symmetry_space_group_name_H-M   'P 1'
_cell_length_a   5.44956828
_cell_length_b   5.72286781
_cell_length_c   9.55733517
_cell_angle_alpha   85.78955832
_cell_angle_beta   71.93454104
_cell_angle_gamma   117.61620899
_symmetry_Int_Tables_number   1
_chemical_formula_structural   LiFe7(OF3)3
_chemical_formula_sum   'Li1 Fe7 O3 F9'
_cell_volume   242.60129623
_cell_formula_units_Z   1
loop_
 _symmetry_equiv_pos_site_id
 _symmetry_equiv_pos_as_xyz
  1  'x, y, z'
loop_
 _atom_site_type_symbol
 _atom_site_label
 _atom_site_symmetry_multiplicity
 _atom_site_fract_x
 _atom_site_fract_y
 _atom_site_fract_z
 _atom_site_occupancy
  Li  Li0  1  0.85724900  0.63357800  0.93189100  1
  Fe  Fe0  1  0.13625300  0.34494100  0.07990400  1
  Fe  Fe1  1  0.18449400  0.90386400  0.57619500  1
  Fe  Fe2  1  0.32311500  0.89005200  0.17153200  1
  Fe  Fe3  1  0.63351600  0.62820700  0.32460400  1
  Fe  Fe4  1  0.35955800  0.36572700  0.66537500  1
  Fe  Fe5  1  0.87929800  0.13889500  0.43576100  1
  Fe  Fe6  1  0.65559000  0.12352600  0.80876400  1
  O  O0  1  0.01985900  0.01209900  0.23322500  1
  O  O1  1  0.27118700  0.29349600  0.47266200  1
  O  O2  1  0.55999100  0.11571000  0.62623100  1
  F  F0  1  0.06615000  0.52848000  0.72266700  1
  F  F1  1  0.43156600  0.88278900  0.36209200  1
  F  F2  1  0.54097900  0.63524700  0.11640900  1
  F  F3  1  0.24349400  0.75699200  0.97301100  1
  F  F4  1  0.74523400  0.22371900  0.01526800  1
  F  F5  1  0.77846400  0.72492500  0.54313500  1
  F  F6  1  0.43525100  0.36604200  0.87240800  1
  F  F7  1  0.93423500  0.95757300  0.79540700  1
  F  F8  1  0.94451700  0.47413700  0.27346200  1
loop_
_geom_bond_atom_site_label_1
_geom_bond_atom_site_label_2
_geom_bond_distance
_geom_bond_site_symmetry_2
Fe0 O0 2.017774 1_555
Fe1 O2 2.068309 1_565
Fe1 O1 2.140982 1_565
Fe2 O0 2.023090 1_565
Fe3 O1 1.983157 1_555
Fe3 O0 2.076461 1_665
Fe4 O1 2.066994 1_555
Fe4 O2 2.157386 1_555
Fe5 O2 2.035978 1_555
Fe5 O1 2.056518 1_655
Fe5 O0 2.159215 1_655
Fe6 O2 1.967315 1_555
F0 Fe4 2.153271 1_555
F0 Fe1 2.169028 1_555
F0 Fe6 2.196545 1_455
F0 Li0 2.248512 1_455
F1 Fe2 2.084992 1_555
F1 Fe1 2.119581 1_555
F1 Fe3 2.186515 1_555
F1 Fe5 2.549276 1_565
F2 Li0 2.052619 1_554
F2 Fe3 2.201042 1_555
F2 Fe0 2.216239 1_555
F2 Fe2 2.267924 1_555
F3 Li0 2.063808 1_455
F3 Fe2 2.187331 1_556
F3 Fe6 2.206888 1_565
F3 Fe0 2.223566 1_556
F4 Fe2 2.132270 1_545
F4 Li0 2.146099 1_554
F4 Fe0 2.216392 1_655
F4 Fe6 2.228698 1_554
F5 Fe1 2.103549 1_655
F5 Fe4 2.108230 1_555
F5 Fe5 2.248117 1_565
F5 Fe3 2.465780 1_555
F6 Fe0 2.092994 1_556
F6 Fe4 2.142753 1_555
F6 Fe6 2.225761 1_555
F6 Li0 2.372840 1_555
F7 Li0 1.974782 1_555
F7 Fe6 2.111562 1_565
F7 Fe1 2.248309 1_655
F7 Fe4 2.267319 1_665
F8 Fe2 2.175175 1_655
F8 Fe0 2.186053 1_655
F8 Fe5 2.191373 1_555
F8 Fe3 2.196288 1_555
