# generated using pymatgen
data_Li4Mn3Fe(BO3)4
_symmetry_space_group_name_H-M   'P 1'
_cell_length_a   5.23854300
_cell_length_b   5.25101069
_cell_length_c   20.93088917
_cell_angle_alpha   91.11298441
_cell_angle_beta   90.76029378
_cell_angle_gamma   119.79410817
_symmetry_Int_Tables_number   1
_chemical_formula_structural   Li4Mn3Fe(BO3)4
_chemical_formula_sum   'Li8 Mn6 Fe2 B8 O24'
_cell_volume   499.38499608
_cell_formula_units_Z   2
loop_
 _symmetry_equiv_pos_site_id
 _symmetry_equiv_pos_as_xyz
  1  'x, y, z'
loop_
 _atom_site_type_symbol
 _atom_site_label
 _atom_site_symmetry_multiplicity
 _atom_site_fract_x
 _atom_site_fract_y
 _atom_site_fract_z
 _atom_site_occupancy
  Li  Li0  1  0.34901400  0.32119400  0.66628300  1
  Li  Li1  1  0.32131000  0.34740400  0.91637400  1
  Li  Li2  1  0.34802700  0.32167300  0.16596000  1
  Li  Li3  1  0.32134000  0.34875400  0.41592500  1
  Li  Li4  1  0.66470900  0.65218200  0.79115900  1
  Li  Li5  1  0.65133300  0.66177300  0.54125900  1
  Li  Li6  1  0.66178000  0.65316300  0.29155800  1
  Li  Li7  1  0.65127400  0.66208500  0.04124400  1
  Mn  Mn0  1  0.99611600  0.32932800  0.55857400  1
  Mn  Mn1  1  0.99347400  0.32653200  0.05889300  1
  Mn  Mn2  1  0.99953000  0.67837700  0.93293400  1
  Mn  Mn3  1  0.99757200  0.67665100  0.43335900  1
  Mn  Mn4  1  0.67537900  0.99802500  0.68432800  1
  Mn  Mn5  1  0.33041200  0.99606900  0.30750400  1
  Fe  Fe0  1  0.68227100  0.99489700  0.18373400  1
  Fe  Fe1  1  0.32425000  0.99969700  0.80862200  1
  B  B0  1  0.65947700  0.00349900  0.93643500  1
  B  B1  1  0.65858900  0.00279500  0.43699600  1
  B  B2  1  0.99408800  0.33190000  0.81184300  1
  B  B3  1  0.99642300  0.33465200  0.31148100  1
  B  B4  1  0.00233000  0.65938200  0.68780400  1
  B  B5  1  0.00337100  0.66080700  0.18683900  1
  B  B6  1  0.33442600  0.99529000  0.56216100  1
  B  B7  1  0.33367500  0.99413900  0.06281400  1
  O  O0  1  0.74541900  0.06819200  0.79271800  1
  O  O1  1  0.75401700  0.07023100  0.29032400  1
  O  O2  1  0.93048700  0.25378200  0.95183800  1
  O  O3  1  0.42154300  0.03375900  0.91586900  1
  O  O4  1  0.93041500  0.25327000  0.45208500  1
  O  O5  1  0.42120800  0.03373900  0.41630800  1
  O  O6  1  0.97315800  0.58146100  0.82621500  1
  O  O7  1  0.35932700  0.26914000  0.56944100  1
  O  O8  1  0.96244800  0.57750400  0.32679200  1
  O  O9  1  0.35866900  0.26847900  0.06963500  1
  O  O10  1  0.26777000  0.34914400  0.81817200  1
  O  O11  1  0.27034500  0.35891100  0.31906200  1
  O  O12  1  0.72674300  0.62997200  0.69469300  1
  O  O13  1  0.72857200  0.63969900  0.19371700  1
  O  O14  1  0.62945100  0.72835800  0.94378800  1
  O  O15  1  0.03351300  0.42204100  0.66700200  1
  O  O16  1  0.62868200  0.72783200  0.44421600  1
  O  O17  1  0.02220700  0.41527400  0.16801700  1
  O  O18  1  0.57748300  0.96181600  0.57759300  1
  O  O19  1  0.57723600  0.96142300  0.07833300  1
  O  O20  1  0.06954700  0.75266800  0.54105700  1
  O  O21  1  0.06975900  0.75167900  0.04143200  1
  O  O22  1  0.25261800  0.93074600  0.70319800  1
  O  O23  1  0.25801300  0.92940900  0.20061500  1
loop_
_geom_bond_atom_site_label_1
_geom_bond_atom_site_label_2
_geom_bond_distance
_geom_bond_site_symmetry_2
Li0 O12 1.908128 1_555
Li0 O15 1.970381 1_555
Li0 O22 2.024486 1_545
Li0 O7 2.045085 1_555
Li1 O14 1.912691 1_555
Li1 O3 1.961409 1_555
Li1 O2 2.009621 1_455
Li1 O10 2.071623 1_555
Li2 O13 1.929662 1_555
Li2 O17 1.997867 1_555
Li2 O23 2.023141 1_545
Li2 O9 2.035348 1_555
Li3 O16 1.910272 1_555
Li3 O5 1.967325 1_555
Li3 O4 2.013336 1_455
Li3 O11 2.046622 1_555
Li4 O6 1.965353 1_555
Li4 O10 1.988353 1_555
Li4 O0 2.007677 1_565
Li4 O12 2.059606 1_555
Li5 O18 1.943529 1_555
Li5 O7 1.968664 1_555
Li5 O20 1.997184 1_655
Li5 O16 2.078952 1_555
Li6 O8 1.945492 1_555
Li6 O11 1.959806 1_555
Li6 O1 1.995317 1_565
Li6 O13 2.087891 1_555
Li7 O19 1.946829 1_555
Li7 O9 1.974337 1_555
Li7 O21 2.000519 1_655
Li7 O14 2.087115 1_554
Mn0 O7 2.088248 1_655
Mn0 O20 2.099902 1_655
Mn0 O18 2.130554 1_545
Mn0 O4 2.248212 1_555
Mn0 O15 2.297062 1_655
Mn1 O9 2.091455 1_655
Mn1 O21 2.103830 1_655
Mn1 O19 2.120184 1_545
Mn1 O2 2.257799 1_554
Mn1 O17 2.310101 1_655
Mn2 O14 2.096178 1_555
Mn2 O3 2.108170 1_665
Mn2 O2 2.120137 1_555
Mn2 O6 2.268342 1_555
Mn2 O21 2.289958 1_656
Mn3 O16 2.093708 1_555
Mn3 O5 2.116599 1_665
Mn3 O4 2.116642 1_555
Mn3 O8 2.264734 1_555
Mn3 O20 2.275061 1_655
Mn4 O12 2.094308 1_555
Mn4 O22 2.106324 1_555
Mn4 O15 2.122949 1_665
Mn4 O18 2.268559 1_555
Mn4 O0 2.286583 1_565
Mn5 O11 2.089871 1_565
Mn5 O1 2.091191 1_565
Mn5 O8 2.134058 1_455
Mn5 O23 2.255421 1_555
Mn5 O5 2.304778 1_565
Fe0 O13 2.011129 1_555
Fe0 O17 2.071078 1_665
Fe0 O23 2.109178 1_555
Fe0 O19 2.248843 1_555
Fe0 O1 2.251870 1_565
Fe1 O10 2.005340 1_565
Fe1 O0 2.084114 1_565
Fe1 O6 2.092074 1_455
Fe1 O22 2.225541 1_555
Fe1 O3 2.279083 1_565
B0 O14 1.385362 1_545
B0 O3 1.396197 1_555
B0 O2 1.401393 1_555
B1 O16 1.384322 1_545
B1 O5 1.396251 1_555
B1 O4 1.402868 1_555
B2 O0 1.395237 1_555
B2 O10 1.395246 1_655
B2 O6 1.395755 1_555
B3 O11 1.382756 1_655
B3 O1 1.394817 1_555
B3 O8 1.404189 1_555
B4 O12 1.383353 1_455
B4 O15 1.397354 1_555
B4 O22 1.402732 1_555
B5 O17 1.391026 1_555
B5 O13 1.397448 1_455
B5 O23 1.398627 1_555
B6 O7 1.382967 1_565
B6 O20 1.395957 1_555
B6 O18 1.403614 1_555
B7 O9 1.384492 1_565
B7 O21 1.394582 1_555
B7 O19 1.404262 1_555
