# generated using pymatgen
data_Li2Mn2CoO6
_symmetry_space_group_name_H-M   'P 1'
_cell_length_a   5.06869078
_cell_length_b   5.09126806
_cell_length_c   10.27648025
_cell_angle_alpha   89.98821654
_cell_angle_beta   90.02503640
_cell_angle_gamma   119.85355891
_symmetry_Int_Tables_number   1
_chemical_formula_structural   Li2Mn2CoO6
_chemical_formula_sum   'Li4 Mn4 Co2 O12'
_cell_volume   230.00417266
_cell_formula_units_Z   2
loop_
 _symmetry_equiv_pos_site_id
 _symmetry_equiv_pos_as_xyz
  1  'x, y, z'
loop_
 _atom_site_type_symbol
 _atom_site_label
 _atom_site_symmetry_multiplicity
 _atom_site_fract_x
 _atom_site_fract_y
 _atom_site_fract_z
 _atom_site_occupancy
  Li  Li0  1  0.66974100  0.49992700  0.74987900  1
  Li  Li1  1  0.83018600  0.49992600  0.25012100  1
  Li  Li2  1  0.16981600  0.50007400  0.74987900  1
  Li  Li3  1  0.33026100  0.50007400  0.25012100  1
  Mn  Mn0  1  0.83696500  0.67393200  0.49999900  1
  Mn  Mn1  1  0.66320600  0.32641500  0.00000000  1
  Mn  Mn2  1  0.33679300  0.67358600  0.00000000  1
  Mn  Mn3  1  0.16303400  0.32606700  0.50000100  1
  Co  Co0  1  0.50000000  0.00000000  0.50000000  1
  Co  Co1  1  0.00000000  0.00000000  0.00000000  1
  O  O0  1  0.14834300  0.00000300  0.59845500  1
  O  O1  1  0.35257500  0.00000400  0.09890200  1
  O  O2  1  0.64742600  0.99999700  0.90109700  1
  O  O3  1  0.85165600  0.99999600  0.40154500  1
  O  O4  1  0.63839400  0.63490600  0.10518500  1
  O  O5  1  0.36160600  0.36509400  0.89481300  1
  O  O6  1  0.50390200  0.36488200  0.39494500  1
  O  O7  1  0.86097600  0.36488200  0.60505300  1
  O  O8  1  0.99650800  0.63490800  0.89481500  1
  O  O9  1  0.13902400  0.63511800  0.39494800  1
  O  O10  1  0.49609800  0.63511600  0.60505500  1
  O  O11  1  0.00349200  0.36509300  0.10518300  1
loop_
_geom_bond_atom_site_label_1
_geom_bond_atom_site_label_2
_geom_bond_distance
_geom_bond_site_symmetry_2
Li0 O5 2.015723 1_555
Li0 O10 2.016161 1_555
Li0 O7 2.071837 1_555
Li0 O8 2.073408 1_555
Li1 O11 2.015756 1_655
Li1 O9 2.016187 1_655
Li1 O6 2.071846 1_555
Li1 O4 2.073438 1_555
Li2 O8 2.015749 1_455
Li2 O7 2.016186 1_455
Li2 O10 2.071840 1_555
Li2 O5 2.073417 1_555
Li3 O4 2.015732 1_555
Li3 O6 2.016163 1_555
Li3 O9 2.071848 1_555
Li3 O11 2.073430 1_555
Mn0 O3 1.913472 1_555
Mn0 O0 1.913485 1_665
Mn0 O6 1.961082 1_555
Mn0 O7 1.961101 1_555
Mn0 O9 1.962480 1_655
Mn0 O10 1.962482 1_555
Mn1 O1 1.915590 1_555
Mn1 O2 1.915608 1_544
Mn1 O5 1.960202 1_554
Mn1 O11 1.960207 1_655
Mn1 O4 1.961763 1_555
Mn1 O8 1.961782 1_554
Mn2 O1 1.915599 1_565
Mn2 O2 1.915600 1_554
Mn2 O4 1.960197 1_555
Mn2 O8 1.960214 1_454
Mn2 O11 1.961769 1_555
Mn2 O5 1.961781 1_554
Mn3 O0 1.913472 1_555
Mn3 O3 1.913485 1_445
Mn3 O10 1.961082 1_555
Mn3 O9 1.961097 1_555
Mn3 O7 1.962484 1_455
Mn3 O6 1.962488 1_555
Co0 O3 2.049968 1_545
Co0 O0 2.049970 1_555
Co0 O9 2.139956 1_545
Co0 O7 2.139962 1_555
Co0 O6 2.140006 1_555
Co0 O10 2.140015 1_545
Co1 O1 2.055499 1_555
Co1 O2 2.055502 1_444
Co1 O11 2.142854 1_555
Co1 O8 2.142860 1_444
Co1 O4 2.142896 1_445
Co1 O5 2.142907 1_554
