# generated using pymatgen
data_MnFe(PO4)2
_symmetry_space_group_name_H-M   'P 1'
_cell_length_a   8.59346222
_cell_length_b   8.59346222
_cell_length_c   8.59346206
_cell_angle_alpha   60.27252915
_cell_angle_beta   60.27252915
_cell_angle_gamma   60.27252349
_symmetry_Int_Tables_number   1
_chemical_formula_structural   MnFe(PO4)2
_chemical_formula_sum   'Mn3 Fe3 P6 O24'
_cell_volume   451.50242217
_cell_formula_units_Z   3
loop_
 _symmetry_equiv_pos_site_id
 _symmetry_equiv_pos_as_xyz
  1  'x, y, z'
loop_
 _atom_site_type_symbol
 _atom_site_label
 _atom_site_symmetry_multiplicity
 _atom_site_fract_x
 _atom_site_fract_y
 _atom_site_fract_z
 _atom_site_occupancy
  Mn  Mn0  1  0.99789500  0.99789500  0.99789500  1
  Mn  Mn1  1  0.14358500  0.14358500  0.14358500  1
  Mn  Mn2  1  0.49996800  0.49996800  0.49996800  1
  Fe  Fe0  1  0.64605100  0.64605100  0.64605100  1
  Fe  Fe1  1  0.85494100  0.85494100  0.85494100  1
  Fe  Fe2  1  0.35500900  0.35500900  0.35500900  1
  P  P0  1  0.95728500  0.25110900  0.53910800  1
  P  P1  1  0.53910800  0.95728500  0.25110900  1
  P  P2  1  0.25110900  0.53910800  0.95728500  1
  P  P3  1  0.75270000  0.45570200  0.04662100  1
  P  P4  1  0.45570200  0.04662100  0.75270000  1
  P  P5  1  0.04662100  0.75270000  0.45570200  1
  O  O0  1  0.50050000  0.11098500  0.31843400  1
  O  O1  1  0.31843400  0.50050000  0.11098500  1
  O  O2  1  0.11098500  0.31843400  0.50050000  1
  O  O3  1  0.94306600  0.08847600  0.73410100  1
  O  O4  1  0.99551100  0.18943600  0.37900600  1
  O  O5  1  0.76026000  0.41235000  0.55400600  1
  O  O6  1  0.73410100  0.94306600  0.08847600  1
  O  O7  1  0.55400600  0.76026000  0.41235000  1
  O  O8  1  0.81470100  0.61235500  0.00786600  1
  O  O9  1  0.41235000  0.55400600  0.76026000  1
  O  O10  1  0.91852600  0.25793300  0.06013300  1
  O  O11  1  0.61235500  0.00786600  0.81470100  1
  O  O12  1  0.37900600  0.99551100  0.18943600  1
  O  O13  1  0.08847600  0.73410100  0.94306600  1
  O  O14  1  0.59239800  0.43560600  0.24341600  1
  O  O15  1  0.18943600  0.37900600  0.99551100  1
  O  O16  1  0.43560600  0.24341600  0.59239800  1
  O  O17  1  0.25793300  0.06013300  0.91852600  1
  O  O18  1  0.24341600  0.59239800  0.43560600  1
  O  O19  1  0.00786600  0.81470100  0.61235500  1
  O  O20  1  0.06013400  0.91852600  0.25793300  1
  O  O21  1  0.88833400  0.69358300  0.48905600  1
  O  O22  1  0.69358300  0.48905600  0.88833400  1
  O  O23  1  0.48905600  0.88833400  0.69358300  1
loop_
_geom_bond_atom_site_label_1
_geom_bond_atom_site_label_2
_geom_bond_distance
_geom_bond_site_symmetry_2
Mn0 O13 2.216373 1_655
Mn0 O3 2.216373 1_565
Mn0 O6 2.216373 1_556
Mn0 O10 2.248727 1_566
Mn0 O17 2.248727 1_665
Mn0 O20 2.248732 1_656
Mn1 O12 1.899350 1_545
Mn1 O4 1.899350 1_455
Mn1 O15 1.899350 1_554
Mn1 O20 2.003053 1_545
Mn1 O10 2.003057 1_455
Mn1 O17 2.003057 1_554
Mn2 O5 2.190655 1_555
Mn2 O9 2.190655 1_555
Mn2 O7 2.190656 1_555
Mn2 O18 2.198706 1_555
Mn2 O14 2.198706 1_555
Mn2 O16 2.198706 1_555
Fe0 O23 1.957817 1_555
Fe0 O22 1.957817 1_555
Fe0 O21 1.957817 1_555
Fe0 O5 2.114925 1_555
Fe0 O7 2.114925 1_555
Fe0 O9 2.114926 1_555
Fe1 O11 1.933816 1_565
Fe1 O19 1.933816 1_655
Fe1 O8 1.933817 1_556
Fe1 O13 2.083249 1_655
Fe1 O6 2.083249 1_556
Fe1 O3 2.083249 1_565
Fe2 O0 1.929549 1_555
Fe2 O1 1.929549 1_555
Fe2 O2 1.929549 1_555
Fe2 O18 2.088850 1_555
Fe2 O16 2.088850 1_555
Fe2 O14 2.088850 1_555
O0 P1 1.523892 1_545
O1 P2 1.523892 1_554
O2 P0 1.523892 1_455
O3 P0 1.555558 1_555
O4 P0 1.544011 1_555
O5 P0 1.561182 1_555
O6 P1 1.555558 1_555
O7 P1 1.561182 1_555
O8 P3 1.515832 1_555
O9 P2 1.561182 1_555
O10 P3 1.580839 1_555
O11 P4 1.515832 1_555
O12 P1 1.544011 1_555
O13 P2 1.555557 1_555
O14 P3 1.556702 1_555
O15 P2 1.544011 1_555
O16 P4 1.556702 1_555
O17 P4 1.580839 1_555
O18 P5 1.556702 1_555
O19 P5 1.515832 1_555
O20 P5 1.580839 1_555
O21 P5 1.531250 1_655
O22 P3 1.531250 1_556
O23 P4 1.531250 1_565
