# generated using pymatgen
data_Y2(SeO4)3
_symmetry_space_group_name_H-M   'P 1'
_cell_length_a   6.83575531
_cell_length_b   6.83575531
_cell_length_c   11.33435204
_cell_angle_alpha   80.70084804
_cell_angle_beta   80.70084804
_cell_angle_gamma   117.17467000
_symmetry_Int_Tables_number   1
_chemical_formula_structural   Y2(SeO4)3
_chemical_formula_sum   'Y4 Se6 O24'
_cell_volume   447.94900553
_cell_formula_units_Z   2
loop_
 _symmetry_equiv_pos_site_id
 _symmetry_equiv_pos_as_xyz
  1  'x, y, z'
loop_
 _atom_site_type_symbol
 _atom_site_label
 _atom_site_symmetry_multiplicity
 _atom_site_fract_x
 _atom_site_fract_y
 _atom_site_fract_z
 _atom_site_occupancy
  Y  Y0  1  0.70058300  0.95031700  0.59408500  1
  Y  Y1  1  0.95031700  0.70058300  0.09408500  1
  Y  Y2  1  0.04968300  0.29941700  0.90591500  1
  Y  Y3  1  0.29941700  0.04968300  0.40591500  1
  Se  Se0  1  0.54838400  0.78680100  0.92214200  1
  Se  Se1  1  0.78680100  0.54838400  0.42214200  1
  Se  Se2  1  0.13209800  0.86790200  0.75000000  1
  Se  Se3  1  0.86790200  0.13209800  0.25000000  1
  Se  Se4  1  0.21319900  0.45161600  0.57785800  1
  Se  Se5  1  0.45161600  0.21319900  0.07785800  1
  O  O0  1  0.62340800  0.73182800  0.78866000  1
  O  O1  1  0.41512800  0.00058100  0.71129300  1
  O  O2  1  0.04525200  0.94140700  0.87680100  1
  O  O3  1  0.69103000  0.62300400  0.54088400  1
  O  O4  1  0.25696000  0.65565200  0.95638500  1
  O  O5  1  0.92853000  0.31887500  0.60881400  1
  O  O6  1  0.73182800  0.62340800  0.28866000  1
  O  O7  1  0.68112500  0.07147000  0.89118600  1
  O  O8  1  0.34434800  0.74304000  0.54361500  1
  O  O9  1  0.37699600  0.30897000  0.95911600  1
  O  O10  1  0.05859300  0.95474800  0.62319900  1
  O  O11  1  0.00058100  0.41512800  0.21129300  1
  O  O12  1  0.99941900  0.58487200  0.78870700  1
  O  O13  1  0.94140700  0.04525200  0.37680100  1
  O  O14  1  0.62300400  0.69103000  0.04088400  1
  O  O15  1  0.65565200  0.25696000  0.45638500  1
  O  O16  1  0.31887500  0.92853000  0.10881400  1
  O  O17  1  0.26817200  0.37659200  0.71134000  1
  O  O18  1  0.07147000  0.68112500  0.39118600  1
  O  O19  1  0.74304000  0.34434800  0.04361500  1
  O  O20  1  0.30897000  0.37699600  0.45911600  1
  O  O21  1  0.95474800  0.05859300  0.12319900  1
  O  O22  1  0.58487200  0.99941900  0.28870700  1
  O  O23  1  0.37659200  0.26817200  0.21134000  1
loop_
_geom_bond_atom_site_label_1
_geom_bond_atom_site_label_2
_geom_bond_distance
_geom_bond_site_symmetry_2
O0 Se0 1.673977 1_555
O0 Y0 2.283088 1_555
O1 Se2 1.659074 1_545
O1 Y0 2.369099 1_545
O2 Se2 1.703105 1_555
O2 Y2 2.509073 1_565
O2 Y1 2.528606 1_456
O3 Se1 1.655976 1_555
O3 Y0 2.385218 1_555
O4 Se0 1.711498 1_555
O4 Y2 2.413562 1_555
O4 Y1 2.570937 1_456
O5 Se4 1.672344 1_655
O5 Y0 2.331807 1_545
O6 Se1 1.673977 1_555
O6 Y1 2.283088 1_555
O7 Se0 1.672344 1_545
O7 Y2 2.331807 1_655
O8 Se4 1.711498 1_555
O8 Y0 2.413562 1_555
O8 Y3 2.570937 1_565
O9 Se5 1.655976 1_556
O9 Y2 2.385218 1_555
O10 Se2 1.703105 1_555
O10 Y0 2.509073 1_455
O10 Y3 2.528606 1_565
O11 Se3 1.659074 1_455
O11 Y1 2.369099 1_455
O12 Se2 1.659074 1_655
O12 Y2 2.369099 1_655
O13 Se3 1.703105 1_555
O13 Y3 2.509073 1_655
O13 Y0 2.528606 1_545
O14 Se0 1.655976 1_554
O14 Y1 2.385218 1_555
O15 Se1 1.711498 1_555
O15 Y3 2.413562 1_555
O15 Y0 2.570937 1_545
O16 Se5 1.672344 1_565
O16 Y1 2.331807 1_455
O17 Se4 1.673977 1_555
O17 Y2 2.283088 1_555
O18 Se1 1.672344 1_455
O18 Y3 2.331807 1_565
O19 Se5 1.711498 1_555
O19 Y1 2.413562 1_555
O19 Y2 2.570937 1_654
O20 Se4 1.655976 1_555
O20 Y3 2.385218 1_555
O21 Se3 1.703105 1_555
O21 Y1 2.509073 1_545
O21 Y2 2.528606 1_654
O22 Se3 1.659074 1_565
O22 Y3 2.369099 1_565
O23 Se5 1.673977 1_555
O23 Y3 2.283088 1_555
