# generated using pymatgen
data_Li4Ti5V3O16
_symmetry_space_group_name_H-M   'P 1'
_cell_length_a   5.95983547
_cell_length_b   5.95983547
_cell_length_c   9.63991751
_cell_angle_alpha   89.93027310
_cell_angle_beta   89.93027310
_cell_angle_gamma   59.90775677
_symmetry_Int_Tables_number   1
_chemical_formula_structural   Li4Ti5V3O16
_chemical_formula_sum   'Li4 Ti5 V3 O16'
_cell_volume   296.25632560
_cell_formula_units_Z   1
loop_
 _symmetry_equiv_pos_site_id
 _symmetry_equiv_pos_as_xyz
  1  'x, y, z'
loop_
 _atom_site_type_symbol
 _atom_site_label
 _atom_site_symmetry_multiplicity
 _atom_site_fract_x
 _atom_site_fract_y
 _atom_site_fract_z
 _atom_site_occupancy
  Li  Li0  1  0.66444300  0.66444300  0.89594700  1
  Li  Li1  1  0.99884000  0.99884000  0.99414800  1
  Li  Li2  1  0.00527500  0.00527500  0.49356900  1
  Li  Li3  1  0.33309800  0.33309800  0.39730800  1
  Ti  Ti0  1  0.83685700  0.34811900  0.21998000  1
  Ti  Ti1  1  0.67003600  0.67003600  0.49969200  1
  Ti  Ti2  1  0.34811900  0.83685700  0.21998000  1
  Ti  Ti3  1  0.17478700  0.17478700  0.72721800  1
  Ti  Ti4  1  0.34444900  0.34444900  0.99670300  1
  V  V0  1  0.82601300  0.82601300  0.21021400  1
  V  V1  1  0.65759000  0.17245400  0.71137600  1
  V  V2  1  0.17245400  0.65759000  0.71137600  1
  O  O0  1  0.83118900  0.34290400  0.59423800  1
  O  O1  1  0.51904200  0.51904200  0.33473300  1
  O  O2  1  0.65482600  0.65482600  0.10133700  1
  O  O3  1  0.00377000  0.00377000  0.30497600  1
  O  O4  1  0.00239400  0.00239400  0.80585100  1
  O  O5  1  0.34290400  0.83118900  0.59423800  1
  O  O6  1  0.95989500  0.50616000  0.34521600  1
  O  O7  1  0.50616000  0.95989500  0.34521600  1
  O  O8  1  0.16801800  0.16801800  0.09901000  1
  O  O9  1  0.83369200  0.83369200  0.59239700  1
  O  O10  1  0.47255400  0.03483100  0.84046100  1
  O  O11  1  0.03483100  0.47255400  0.84046100  1
  O  O12  1  0.32692800  0.32692800  0.60316100  1
  O  O13  1  0.66006900  0.17553600  0.09306100  1
  O  O14  1  0.47715500  0.47715500  0.84325500  1
  O  O15  1  0.17553600  0.66006900  0.09306100  1
loop_
_geom_bond_atom_site_label_1
_geom_bond_atom_site_label_2
_geom_bond_distance
_geom_bond_site_symmetry_2
Li0 O2 1.982293 1_556
Li0 O11 1.983406 1_655
Li0 O10 1.983406 1_565
Li0 O14 2.000497 1_555
Li1 O4 1.815487 1_665
Li1 O13 1.990037 1_566
Li1 O15 1.990037 1_656
Li1 O8 2.019772 1_666
Li2 O3 1.818109 1_555
Li2 O0 1.993985 1_455
Li2 O5 1.993985 1_545
Li2 O9 2.010714 1_445
Li3 O12 1.985339 1_555
Li3 O6 1.991014 1_455
Li3 O7 1.991014 1_545
Li3 O1 2.012047 1_555
O0 Ti1 1.916855 1_555
O0 V1 2.103762 1_555
O0 Ti3 2.187787 1_655
O1 Ti2 1.977846 1_555
O1 Ti0 1.977846 1_555
O1 Ti1 2.228764 1_555
O2 Ti2 1.958485 1_555
O2 Ti0 1.958485 1_555
O2 V0 2.057282 1_555
O3 Ti2 1.955343 1_545
O3 Ti0 1.955343 1_455
O3 V0 2.051662 1_445
O4 Ti3 1.934063 1_555
O4 V2 1.998330 1_545
O4 V1 1.998330 1_455
O5 Ti1 1.916855 1_555
O5 V2 2.103762 1_555
O5 Ti3 2.187787 1_565
O6 Ti0 1.892062 1_555
O6 V0 2.106041 1_555
O6 Ti1 2.112126 1_555
O7 Ti2 1.892062 1_555
O7 V0 2.106041 1_555
O7 Ti1 2.112126 1_555
O8 Ti0 2.068920 1_455
O8 Ti2 2.068920 1_545
O8 Ti4 2.070662 1_554
O9 Ti1 1.912991 1_555
O9 V2 2.090708 1_655
O9 V1 2.090708 1_565
O10 Ti3 1.885451 1_555
O10 V1 2.082917 1_555
O10 Ti4 2.201740 1_555
O11 Ti3 1.885451 1_555
O11 V2 2.082917 1_555
O11 Ti4 2.201740 1_555
O12 Ti3 1.973245 1_555
O12 V1 2.000686 1_555
O12 V2 2.000686 1_555
O13 Ti4 1.875538 1_554
O13 V0 2.126949 1_545
O13 Ti0 2.181273 1_555
O14 Ti4 2.015131 1_555
O14 V1 2.028393 1_555
O14 V2 2.028393 1_555
O15 Ti4 1.875538 1_554
O15 V0 2.126949 1_455
O15 Ti2 2.181273 1_555
