# generated using pymatgen
data_Li3Mn4(BO3)4
_symmetry_space_group_name_H-M   'P 1'
_cell_length_a   9.09437900
_cell_length_b   9.10486240
_cell_length_c   11.64834280
_cell_angle_alpha   91.12395615
_cell_angle_beta   111.75918820
_cell_angle_gamma   119.91835788
_symmetry_Int_Tables_number   1
_chemical_formula_structural   Li3Mn4(BO3)4
_chemical_formula_sum   'Li9 Mn12 B12 O36'
_cell_volume   750.94528607
_cell_formula_units_Z   3
loop_
 _symmetry_equiv_pos_site_id
 _symmetry_equiv_pos_as_xyz
  1  'x, y, z'
loop_
 _atom_site_type_symbol
 _atom_site_label
 _atom_site_symmetry_multiplicity
 _atom_site_fract_x
 _atom_site_fract_y
 _atom_site_fract_z
 _atom_site_occupancy
  Li  Li0  1  0.75171400  0.97336300  0.66908500  1
  Li  Li1  1  0.05827200  0.09472000  0.17322800  1
  Li  Li2  1  0.35494000  0.74841300  0.14902000  1
  Li  Li3  1  0.32235400  0.58795100  0.91016000  1
  Li  Li4  1  0.00702400  0.43518700  0.41626600  1
  Li  Li5  1  0.70980700  0.43399300  0.15973300  1
  Li  Li6  1  0.99904800  0.91906700  0.91352600  1
  Li  Li7  1  0.33667000  0.07503800  0.41916200  1
  Li  Li8  1  0.42972800  0.29545400  0.67262900  1
  Mn  Mn0  1  0.69106800  0.77375300  0.13310400  1
  Mn  Mn1  1  0.32421500  0.41360500  0.38505800  1
  Mn  Mn2  1  0.65856600  0.93916900  0.88740800  1
  Mn  Mn3  1  0.01889400  0.40417300  0.12875500  1
  Mn  Mn4  1  0.05756700  0.30136500  0.63684100  1
  Mn  Mn5  1  0.33027600  0.87884100  0.62497800  1
  Mn  Mn6  1  0.65323900  0.05392600  0.38222700  1
  Mn  Mn7  1  0.94095900  0.73573600  0.38131600  1
  Mn  Mn8  1  0.93211700  0.54310800  0.88162000  1
  Mn  Mn9  1  0.37086300  0.08511800  0.13347500  1
  Mn  Mn10  1  0.72853700  0.61627700  0.62560400  1
  Mn  Mn11  1  0.32423800  0.23748900  0.88058200  1
  B  B0  1  0.35264100  0.41877400  0.11458300  1
  B  B1  1  0.38311300  0.61591900  0.62253400  1
  B  B2  1  0.97999300  0.07899800  0.37787800  1
  B  B3  1  0.27700100  0.72178700  0.36594300  1
  B  B4  1  0.69456200  0.09569700  0.12490000  1
  B  B5  1  0.00516000  0.75097500  0.11690500  1
  B  B6  1  0.99745200  0.24812300  0.87681400  1
  B  B7  1  0.28146700  0.87979400  0.86817500  1
  B  B8  1  0.05294700  0.96068000  0.64035100  1
  B  B9  1  0.63732300  0.38329300  0.37491400  1
  B  B10  1  0.68487000  0.24839400  0.63542000  1
  B  B11  1  0.64157500  0.59062100  0.87595200  1
  O  O0  1  0.84302200  0.90052400  0.33645700  1
  O  O1  1  0.41712400  0.58646700  0.10239700  1
  O  O2  1  0.22571700  0.33691800  0.16631300  1
  O  O3  1  0.54775200  0.99152900  0.15686000  1
  O  O4  1  0.44498900  0.51281600  0.59755600  1
  O  O5  1  0.14546000  0.14518300  0.36531100  1
  O  O6  1  0.41551700  0.81345900  0.32985500  1
  O  O7  1  0.58331400  0.68826400  0.91473100  1
  O  O8  1  0.50473800  0.80114400  0.65654100  1
  O  O9  1  0.17277000  0.53816100  0.33336700  1
  O  O10  1  0.78348000  0.02190400  0.09324100  1
  O  O11  1  0.04804300  0.63811300  0.07170100  1
  O  O12  1  0.20353900  0.54826100  0.60933000  1
  O  O13  1  0.94216100  0.18959600  0.42938500  1
  O  O14  1  0.22731600  0.80827200  0.43205700  1
  O  O15  1  0.14555300  0.33475800  0.84305700  1
  O  O16  1  0.75432400  0.26423800  0.12167900  1
  O  O17  1  0.09324300  0.92252800  0.10973600  1
  O  O18  1  0.40974600  0.93995700  0.81301900  1
  O  O19  1  0.90368000  0.07058700  0.86363700  1
  O  O20  1  0.87437200  0.68300800  0.16653000  1
  O  O21  1  0.19771700  0.71511700  0.88261700  1
  O  O22  1  0.77011400  0.17702800  0.59845300  1
  O  O23  1  0.79448400  0.46601700  0.35184900  1
  O  O24  1  0.09510200  0.86034700  0.58330800  1
  O  O25  1  0.94339300  0.34303400  0.92613200  1
  O  O26  1  0.24827300  0.00057000  0.91323800  1
  O  O27  1  0.79191000  0.42971900  0.69724700  1
  O  O28  1  0.51653600  0.19997300  0.33728300  1
  O  O29  1  0.41616400  0.32134900  0.07262800  1
  O  O30  1  0.59653300  0.48233300  0.43272900  1
  O  O31  1  0.88393300  0.88109300  0.64327600  1
  O  O32  1  0.49810900  0.14903200  0.60970800  1
  O  O33  1  0.80278800  0.67280100  0.85162700  1
  O  O34  1  0.54948900  0.41266500  0.85966500  1
  O  O35  1  0.18782700  0.14336600  0.68931400  1
loop_
_geom_bond_atom_site_label_1
_geom_bond_atom_site_label_2
_geom_bond_distance
_geom_bond_site_symmetry_2
Li0 O31 1.872923 1_555
Li0 O8 1.938929 1_555
Li0 O22 1.998972 1_565
Li0 O19 2.051380 1_565
Li1 O17 1.931932 1_545
Li1 O2 1.984033 1_555
Li1 O5 2.031478 1_555
Li1 O10 2.037072 1_455
Li2 O1 1.953712 1_555
Li2 O6 1.963799 1_555
Li2 O3 1.996083 1_555
Li2 O11 2.216841 1_555
Li3 O21 1.944844 1_555
Li3 O15 1.952085 1_555
Li3 O7 2.052215 1_555
Li3 O1 2.083059 1_556
Li4 O9 1.946416 1_555
Li4 O23 1.962696 1_455
Li4 O13 2.033667 1_455
Li4 O12 2.098880 1_555
Li5 O16 1.865377 1_555
Li5 O20 1.976569 1_555
Li5 O23 2.039282 1_555
Li5 O29 2.105009 1_555
Li6 O33 1.929615 1_555
Li6 O19 1.960734 1_565
Li6 O26 2.003961 1_665
Li6 O17 2.115914 1_656
Li7 O32 2.018524 1_555
Li7 O5 2.034723 1_555
Li7 O28 2.054865 1_555
Li7 O14 2.150932 1_545
Li8 O32 1.956484 1_555
Li8 O34 2.015375 1_555
Li8 O35 2.020829 1_555
Li8 O4 2.141144 1_555
Mn0 O1 2.078487 1_555
Mn0 O10 2.112596 1_565
Mn0 O20 2.125695 1_555
Mn0 O0 2.174282 1_555
Mn0 O7 2.312968 1_554
Mn1 O30 2.062559 1_555
Mn1 O5 2.099058 1_555
Mn1 O9 2.125000 1_555
Mn1 O4 2.248577 1_555
Mn1 O2 2.323010 1_555
Mn2 O19 2.070619 1_565
Mn2 O7 2.102107 1_555
Mn2 O18 2.105736 1_555
Mn2 O10 2.159313 1_566
Mn2 O8 2.468336 1_555
Mn3 O16 2.051887 1_455
Mn3 O2 2.157221 1_555
Mn3 O11 2.161415 1_555
Mn3 O25 2.172009 1_454
Mn3 O9 2.199373 1_555
Mn4 O12 2.070057 1_555
Mn4 O22 2.115871 1_455
Mn4 O15 2.192326 1_555
Mn4 O13 2.221350 1_455
Mn4 O35 2.245889 1_555
Mn5 O24 1.925129 1_555
Mn5 O8 1.962229 1_555
Mn5 O18 2.001750 1_555
Mn5 O14 2.030440 1_555
Mn5 O32 2.210442 1_565
Mn5 O12 2.604460 1_555
Mn6 O6 2.021817 1_545
Mn6 O13 2.096965 1_555
Mn6 O28 2.186719 1_555
Mn6 O22 2.333614 1_555
Mn6 O3 2.380158 1_545
Mn7 O23 2.070685 1_555
Mn7 O0 2.082356 1_555
Mn7 O24 2.156776 1_655
Mn7 O14 2.166882 1_655
Mn7 O20 2.322990 1_555
Mn8 O25 1.944665 1_555
Mn8 O27 1.968148 1_555
Mn8 O33 1.999190 1_555
Mn8 O11 2.011611 1_656
Mn8 O21 2.119496 1_655
Mn9 O17 2.092944 1_545
Mn9 O3 2.107090 1_545
Mn9 O28 2.161820 1_555
Mn9 O29 2.165782 1_555
Mn9 O26 2.315749 1_554
Mn10 O31 2.053986 1_555
Mn10 O30 2.099621 1_555
Mn10 O4 2.141010 1_555
Mn10 O27 2.142275 1_555
Mn10 O33 2.436086 1_555
Mn11 O34 1.981348 1_555
Mn11 O26 2.003890 1_555
Mn11 O35 2.013100 1_555
Mn11 O29 2.048371 1_556
Mn11 O15 2.130790 1_555
B0 O1 1.368316 1_555
B0 O2 1.387834 1_555
B0 O29 1.436283 1_555
B1 O12 1.369929 1_555
B1 O4 1.385699 1_555
B1 O8 1.418677 1_555
B2 O5 1.382480 1_655
B2 O0 1.389063 1_545
B2 O13 1.402604 1_555
B3 O6 1.348253 1_555
B3 O9 1.401884 1_555
B3 O14 1.416489 1_555
B4 O16 1.355372 1_555
B4 O3 1.392815 1_545
B4 O10 1.412332 1_555
B5 O17 1.376584 1_555
B5 O20 1.386146 1_455
B5 O11 1.419890 1_555
B6 O19 1.371798 1_555
B6 O25 1.390035 1_555
B6 O15 1.391386 1_655
B7 O21 1.349896 1_555
B7 O26 1.414874 1_565
B7 O18 1.416290 1_555
B8 O31 1.348181 1_455
B8 O24 1.391904 1_555
B8 O35 1.416130 1_565
B9 O30 1.378177 1_555
B9 O23 1.378806 1_555
B9 O28 1.403588 1_555
B10 O32 1.368356 1_555
B10 O22 1.395580 1_555
B10 O27 1.422078 1_555
B11 O34 1.370831 1_555
B11 O7 1.380843 1_555
B11 O33 1.418343 1_555
