# generated using pymatgen
data_LiFe4(PO4)3
_symmetry_space_group_name_H-M   'P 1'
_cell_length_a   6.38750600
_cell_length_b   9.99943300
_cell_length_c   14.36779700
_cell_angle_alpha   90.00000000
_cell_angle_beta   90.00000000
_cell_angle_gamma   90.00000000
_symmetry_Int_Tables_number   1
_chemical_formula_structural   LiFe4(PO4)3
_chemical_formula_sum   'Li4 Fe16 P12 O48'
_cell_volume   917.69185936
_cell_formula_units_Z   4
loop_
 _symmetry_equiv_pos_site_id
 _symmetry_equiv_pos_as_xyz
  1  'x, y, z'
loop_
 _atom_site_type_symbol
 _atom_site_label
 _atom_site_symmetry_multiplicity
 _atom_site_fract_x
 _atom_site_fract_y
 _atom_site_fract_z
 _atom_site_occupancy
  Li  Li0  1  0.05481200  0.74098100  0.25000000  1
  Li  Li1  1  0.44518800  0.24098100  0.75000000  1
  Li  Li2  1  0.94518800  0.25901900  0.75000000  1
  Li  Li3  1  0.55481200  0.75901900  0.25000000  1
  Fe  Fe0  1  0.85814900  0.15669700  0.38764400  1
  Fe  Fe1  1  0.14185100  0.84330300  0.61235600  1
  Fe  Fe2  1  0.64615200  0.05778200  0.59463700  1
  Fe  Fe3  1  0.35384800  0.94221800  0.09463700  1
  Fe  Fe4  1  0.14185100  0.84330300  0.88764400  1
  Fe  Fe5  1  0.85384800  0.55778200  0.09463700  1
  Fe  Fe6  1  0.14615200  0.44221800  0.90536300  1
  Fe  Fe7  1  0.14615200  0.44221800  0.59463700  1
  Fe  Fe8  1  0.64185100  0.65669700  0.88764400  1
  Fe  Fe9  1  0.64615200  0.05778200  0.90536300  1
  Fe  Fe10  1  0.35814900  0.34330300  0.38764400  1
  Fe  Fe11  1  0.64185100  0.65669700  0.61235600  1
  Fe  Fe12  1  0.85384800  0.55778200  0.40536300  1
  Fe  Fe13  1  0.35814900  0.34330300  0.11235600  1
  Fe  Fe14  1  0.85814900  0.15669700  0.11235600  1
  Fe  Fe15  1  0.35384800  0.94221800  0.40536300  1
  P  P0  1  0.14533200  0.13167900  0.57306100  1
  P  P1  1  0.85466800  0.86832100  0.42693900  1
  P  P2  1  0.35466800  0.63167900  0.07306100  1
  P  P3  1  0.64533200  0.36832100  0.92693900  1
  P  P4  1  0.64533200  0.36832100  0.57306100  1
  P  P5  1  0.35466800  0.63167900  0.42693900  1
  P  P6  1  0.49607900  0.09294500  0.25000000  1
  P  P7  1  0.00392100  0.59294500  0.75000000  1
  P  P8  1  0.50392100  0.90705500  0.75000000  1
  P  P9  1  0.14533200  0.13167900  0.92693900  1
  P  P10  1  0.85466800  0.86832100  0.07306100  1
  P  P11  1  0.99607900  0.40705500  0.25000000  1
  O  O0  1  0.71062800  0.26510200  0.85289300  1
  O  O1  1  0.21062800  0.23489800  0.85289300  1
  O  O2  1  0.47012900  0.46407800  0.60893100  1
  O  O3  1  0.92025800  0.78813100  0.98513800  1
  O  O4  1  0.55478800  0.05864600  0.75000000  1
  O  O5  1  0.94521200  0.55864600  0.25000000  1
  O  O6  1  0.52987100  0.53592200  0.39106900  1
  O  O7  1  0.89983700  0.35139600  0.15897600  1
  O  O8  1  0.39983700  0.14860400  0.15897600  1
  O  O9  1  0.10016300  0.64860400  0.65897600  1
  O  O10  1  0.73676000  0.11826900  0.25000000  1
  O  O11  1  0.02987100  0.96407800  0.10893100  1
  O  O12  1  0.47012900  0.46407800  0.89106900  1
  O  O13  1  0.97012900  0.03592200  0.60893100  1
  O  O14  1  0.02987100  0.96407800  0.39106900  1
  O  O15  1  0.42025800  0.71186900  0.51486200  1
  O  O16  1  0.44521200  0.94135400  0.25000000  1
  O  O17  1  0.05478800  0.44135400  0.75000000  1
  O  O18  1  0.78937200  0.76510200  0.35289300  1
  O  O19  1  0.60016300  0.85139600  0.84102400  1
  O  O20  1  0.57974200  0.28813100  0.48513800  1
  O  O21  1  0.39983700  0.14860400  0.34102400  1
  O  O22  1  0.17150500  0.52967600  0.44970900  1
  O  O23  1  0.89983700  0.35139600  0.34102400  1
  O  O24  1  0.57974200  0.28813100  0.01486200  1
  O  O25  1  0.21062800  0.23489800  0.64710700  1
  O  O26  1  0.10016300  0.64860400  0.84102400  1
  O  O27  1  0.67150500  0.97032400  0.44970900  1
  O  O28  1  0.23676000  0.38173100  0.25000000  1
  O  O29  1  0.07974200  0.21186900  0.01486200  1
  O  O30  1  0.82849500  0.47032400  0.94970900  1
  O  O31  1  0.92025800  0.78813100  0.51486200  1
  O  O32  1  0.07974200  0.21186900  0.48513800  1
  O  O33  1  0.97012900  0.03592200  0.89106900  1
  O  O34  1  0.67150500  0.97032400  0.05029100  1
  O  O35  1  0.32849500  0.02967600  0.94970900  1
  O  O36  1  0.60016300  0.85139600  0.65897600  1
  O  O37  1  0.26324000  0.88173100  0.75000000  1
  O  O38  1  0.28937200  0.73489800  0.35289300  1
  O  O39  1  0.76324000  0.61826900  0.75000000  1
  O  O40  1  0.52987100  0.53592200  0.10893100  1
  O  O41  1  0.42025800  0.71186900  0.98513800  1
  O  O42  1  0.28937200  0.73489800  0.14710700  1
  O  O43  1  0.82849500  0.47032400  0.55029100  1
  O  O44  1  0.78937200  0.76510200  0.14710700  1
  O  O45  1  0.32849500  0.02967600  0.55029100  1
  O  O46  1  0.71062800  0.26510200  0.64710700  1
  O  O47  1  0.17150500  0.52967600  0.05029100  1
loop_
_geom_bond_atom_site_label_1
_geom_bond_atom_site_label_2
_geom_bond_distance
_geom_bond_site_symmetry_2
Li0 O5 1.953030 1_455
Li0 O38 2.105699 1_555
Li0 O42 2.105699 1_555
Li0 O44 2.262388 1_455
Li0 O18 2.262388 1_455
Li1 O4 1.953030 1_555
Li1 O25 2.105699 1_555
Li1 O1 2.105699 1_555
Li1 O46 2.262388 1_555
Li1 O0 2.262388 1_555
Li2 O17 1.953030 1_655
Li2 O46 2.105699 1_555
Li2 O0 2.105699 1_555
Li2 O1 2.262388 1_655
Li2 O25 2.262388 1_655
Li3 O16 1.953030 1_555
Li3 O18 2.105699 1_555
Li3 O44 2.105699 1_555
Li3 O42 2.262388 1_555
Li3 O38 2.262388 1_555
Fe0 O32 2.066388 1_655
Fe0 O23 2.076033 1_555
Fe0 O10 2.158685 1_555
Fe0 O14 2.217058 1_645
Fe0 O27 2.385290 1_545
Fe0 O20 2.617615 1_555
Fe1 O31 2.066388 1_455
Fe1 O9 2.076033 1_555
Fe1 O37 2.158685 1_555
Fe1 O13 2.217058 1_465
Fe1 O45 2.385290 1_565
Fe1 O15 2.617615 1_555
Fe2 O13 2.091027 1_555
Fe2 O45 2.145213 1_555
Fe2 O46 2.244018 1_555
Fe2 O27 2.264285 1_545
Fe2 O36 2.280320 1_545
Fe2 O4 2.307265 1_555
Fe3 O11 2.091027 1_555
Fe3 O34 2.145213 1_555
Fe3 O42 2.244018 1_555
Fe3 O35 2.264285 1_564
Fe3 O8 2.280320 1_565
Fe3 O16 2.307265 1_555
Fe4 O3 2.066388 1_455
Fe4 O26 2.076033 1_555
Fe4 O37 2.158685 1_555
Fe4 O33 2.217058 1_465
Fe4 O35 2.385290 1_565
Fe4 O41 2.617615 1_555
Fe5 O40 2.091027 1_555
Fe5 O47 2.145213 1_655
Fe5 O44 2.244018 1_555
Fe5 O30 2.264285 1_554
Fe5 O7 2.280320 1_555
Fe5 O5 2.307265 1_555
Fe6 O12 2.091027 1_555
Fe6 O30 2.145213 1_455
Fe6 O1 2.244018 1_555
Fe6 O47 2.264285 1_556
Fe6 O26 2.280320 1_555
Fe6 O17 2.307265 1_555
Fe7 O2 2.091027 1_555
Fe7 O43 2.145213 1_455
Fe7 O25 2.244018 1_555
Fe7 O22 2.264285 1_555
Fe7 O9 2.280320 1_555
Fe7 O17 2.307265 1_555
Fe8 O41 2.066388 1_555
Fe8 O19 2.076033 1_555
Fe8 O39 2.158685 1_555
Fe8 O12 2.217058 1_555
Fe8 O30 2.385290 1_555
Fe8 O3 2.617615 1_555
Fe9 O33 2.091027 1_555
Fe9 O35 2.145213 1_555
Fe9 O0 2.244018 1_555
Fe9 O34 2.264285 1_546
Fe9 O19 2.280320 1_545
Fe9 O4 2.307265 1_555
Fe10 O20 2.066388 1_555
Fe10 O21 2.076033 1_555
Fe10 O28 2.158685 1_555
Fe10 O6 2.217058 1_555
Fe10 O22 2.385290 1_555
Fe10 O32 2.617615 1_555
Fe11 O15 2.066388 1_555
Fe11 O36 2.076033 1_555
Fe11 O39 2.158685 1_555
Fe11 O2 2.217058 1_555
Fe11 O43 2.385290 1_555
Fe11 O31 2.617615 1_555
Fe12 O6 2.091027 1_555
Fe12 O22 2.145213 1_655
Fe12 O18 2.244018 1_555
Fe12 O43 2.264285 1_555
Fe12 O23 2.280320 1_555
Fe12 O5 2.307265 1_555
Fe13 O24 2.066388 1_555
Fe13 O8 2.076033 1_555
Fe13 O28 2.158685 1_555
Fe13 O40 2.217058 1_555
Fe13 O47 2.385290 1_555
Fe13 O29 2.617615 1_555
Fe14 O29 2.066388 1_655
Fe14 O7 2.076033 1_555
Fe14 O10 2.158685 1_555
Fe14 O11 2.217058 1_645
Fe14 O34 2.385290 1_545
Fe14 O24 2.617615 1_555
Fe15 O14 2.091027 1_555
Fe15 O27 2.145213 1_555
Fe15 O38 2.244018 1_555
Fe15 O45 2.264285 1_565
Fe15 O21 2.280320 1_565
Fe15 O16 2.307265 1_555
O0 P3 1.539833 1_555
O1 P9 1.539833 1_555
O2 P4 1.560402 1_555
O3 P10 1.553808 1_556
O4 P8 1.550255 1_545
O5 P11 1.550255 1_555
O6 P5 1.560402 1_555
O7 P11 1.548563 1_555
O8 P6 1.548563 1_555
O9 P7 1.548563 1_555
O10 P6 1.558067 1_555
O11 P10 1.560402 1_455
O12 P3 1.560402 1_555
O13 P0 1.560402 1_655
O14 P1 1.560402 1_455
O15 P5 1.553808 1_555
O16 P6 1.550255 1_565
O17 P7 1.550255 1_555
O18 P1 1.539833 1_555
O19 P8 1.548563 1_555
O20 P4 1.553808 1_555
O21 P6 1.548563 1_555
O22 P5 1.586243 1_555
O23 P11 1.548563 1_555
O24 P3 1.553808 1_554
O25 P0 1.539833 1_555
O26 P7 1.548563 1_555
O27 P1 1.586243 1_555
O28 P11 1.558067 1_455
O29 P9 1.553808 1_554
O30 P3 1.586243 1_555
O31 P1 1.553808 1_555
O32 P0 1.553808 1_555
O33 P9 1.560402 1_655
O34 P10 1.586243 1_555
O35 P9 1.586243 1_555
O36 P8 1.548563 1_555
O37 P8 1.558067 1_555
O38 P5 1.539833 1_555
O39 P7 1.558067 1_655
O40 P2 1.560402 1_555
O41 P2 1.553808 1_556
O42 P2 1.539833 1_555
O43 P4 1.586243 1_555
O44 P10 1.539833 1_555
O45 P0 1.586243 1_555
O46 P4 1.539833 1_555
O47 P2 1.586243 1_555
