# generated using pymatgen
data_Li3Fe2Co3O10
_symmetry_space_group_name_H-M   'P 1'
_cell_length_a   2.87658400
_cell_length_b   5.25802800
_cell_length_c   23.33946430
_cell_angle_alpha   86.06061849
_cell_angle_beta   90.00000000
_cell_angle_gamma   90.00000000
_symmetry_Int_Tables_number   1
_chemical_formula_structural   Li3Fe2Co3O10
_chemical_formula_sum   'Li6 Fe4 Co6 O20'
_cell_volume   352.17904724
_cell_formula_units_Z   2
loop_
 _symmetry_equiv_pos_site_id
 _symmetry_equiv_pos_as_xyz
  1  'x, y, z'
loop_
 _atom_site_type_symbol
 _atom_site_label
 _atom_site_symmetry_multiplicity
 _atom_site_fract_x
 _atom_site_fract_y
 _atom_site_fract_z
 _atom_site_occupancy
  Li  Li0  1  0.00000000  0.80190400  0.60416600  1
  Li  Li1  1  0.50000000  0.79405400  0.10085200  1
  Li  Li2  1  0.00000000  0.43621700  0.78774600  1
  Li  Li3  1  0.50000000  0.15978500  0.91288400  1
  Li  Li4  1  0.50000000  0.42886600  0.28652800  1
  Li  Li5  1  0.00000000  0.16874000  0.41115500  1
  Fe  Fe0  1  0.00000000  0.90286800  0.30145200  1
  Fe  Fe1  1  0.00000000  0.49940500  0.50390700  1
  Fe  Fe2  1  0.00000000  0.30596200  0.09582900  1
  Fe  Fe3  1  0.50000000  0.09201800  0.19847100  1
  Co  Co0  1  0.50000000  0.90797900  0.80049300  1
  Co  Co1  1  0.00000000  0.69391400  0.89612300  1
  Co  Co2  1  0.50000000  0.51080800  0.99509900  1
  Co  Co3  1  0.50000000  0.68844200  0.40181600  1
  Co  Co4  1  0.50000000  0.29662700  0.60442600  1
  Co  Co5  1  0.00000000  0.10288500  0.70196900  1
  O  O0  1  0.50000000  0.99912400  0.65317400  1
  O  O1  1  0.50000000  0.79359800  0.94255700  1
  O  O2  1  0.00000000  0.80894600  0.75457900  1
  O  O3  1  0.00000000  0.97892300  0.14482000  1
  O  O4  1  0.00000000  0.80523700  0.44649600  1
  O  O5  1  0.50000000  0.59455900  0.84635700  1
  O  O6  1  0.50000000  0.78013700  0.25436700  1
  O  O7  1  0.50000000  0.60723400  0.55769500  1
  O  O8  1  0.00000000  0.39423900  0.94733300  1
  O  O9  1  0.00000000  0.56972700  0.35620100  1
  O  O10  1  0.00000000  0.40085900  0.64999700  1
  O  O11  1  0.00000000  0.62879300  0.03986300  1
  O  O12  1  0.50000000  0.38391600  0.45006800  1
  O  O13  1  0.50000000  0.20896300  0.75057700  1
  O  O14  1  0.50000000  0.42543200  0.14242500  1
  O  O15  1  0.00000000  0.18289600  0.55939100  1
  O  O16  1  0.00000000  0.01022000  0.84895700  1
  O  O17  1  0.00000000  0.22242700  0.25130200  1
  O  O18  1  0.50000000  0.21539500  0.04295400  1
  O  O19  1  0.50000000  0.00126400  0.35791100  1
loop_
_geom_bond_atom_site_label_1
_geom_bond_atom_site_label_2
_geom_bond_distance
_geom_bond_site_symmetry_2
Li0 O7 2.108392 1_555
Li0 O7 2.108392 1_455
Li0 O0 2.148332 1_455
Li0 O0 2.148332 1_555
Li0 O15 2.194882 1_565
Li0 O10 2.298023 1_555
Li1 O3 2.050288 1_655
Li1 O3 2.050288 1_555
Li1 O14 2.107078 1_555
Li1 O11 2.240517 1_555
Li1 O11 2.240517 1_655
Li1 O18 2.514516 1_565
Li2 O2 2.057103 1_555
Li2 O13 2.095586 1_455
Li2 O13 2.095586 1_555
Li2 O5 2.188521 1_455
Li2 O5 2.188521 1_555
Li2 O16 2.572639 1_555
Li3 O1 2.000914 1_545
Li3 O8 2.090702 1_555
Li3 O8 2.090702 1_655
Li3 O16 2.252662 1_655
Li3 O16 2.252662 1_555
Li4 O6 1.945333 1_555
Li4 O17 2.011336 1_555
Li4 O17 2.011336 1_655
Li4 O9 2.329600 1_555
Li4 O9 2.329600 1_655
Li5 O4 2.029001 1_545
Li5 O12 2.077206 1_455
Li5 O12 2.077206 1_555
Li5 O19 2.130436 1_455
Li5 O19 2.130436 1_555
Li5 O9 2.391410 1_555
Fe0 O6 1.946852 1_555
Fe0 O6 1.946852 1_455
Fe0 O17 1.980662 1_565
Fe0 O19 2.041181 1_565
Fe0 O19 2.041181 1_465
Fe0 O9 2.096088 1_555
Fe1 O7 2.015917 1_455
Fe1 O7 2.015917 1_555
Fe1 O4 2.021208 1_555
Fe1 O12 2.030086 1_455
Fe1 O12 2.030086 1_555
Fe1 O15 2.037260 1_555
Fe2 O14 1.933874 1_555
Fe2 O14 1.933874 1_455
Fe2 O18 1.974624 1_455
Fe2 O18 1.974624 1_555
Fe2 O3 1.998553 1_545
Fe2 O11 2.069517 1_555
Fe3 O3 2.023013 1_645
Fe3 O3 2.023013 1_545
Fe3 O6 2.024151 1_545
Fe3 O17 2.043389 1_655
Fe3 O17 2.043389 1_555
Fe3 O14 2.114084 1_555
Co0 O2 1.888080 1_555
Co0 O2 1.888080 1_655
Co0 O13 1.899602 1_565
Co0 O5 1.902437 1_555
Co0 O16 1.928905 1_565
Co0 O16 1.928905 1_665
Co1 O1 1.896302 1_555
Co1 O1 1.896302 1_455
Co1 O8 1.911177 1_555
Co1 O16 1.930367 1_565
Co1 O5 1.942699 1_555
Co1 O5 1.942699 1_455
Co2 O18 1.849816 1_556
Co2 O1 1.861236 1_555
Co2 O11 1.906341 1_656
Co2 O11 1.906341 1_556
Co2 O8 1.944505 1_555
Co2 O8 1.944505 1_655
Co3 O19 1.877210 1_565
Co3 O12 1.893242 1_555
Co3 O4 1.902960 1_555
Co3 O4 1.902960 1_655
Co3 O9 1.919131 1_555
Co3 O9 1.919131 1_655
Co4 O0 1.870002 1_545
Co4 O10 1.892192 1_555
Co4 O10 1.892192 1_655
Co4 O7 1.900553 1_555
Co4 O15 1.901959 1_655
Co4 O15 1.901959 1_555
Co5 O2 1.906738 1_545
Co5 O10 1.914409 1_555
Co5 O0 1.936153 1_545
Co5 O0 1.936153 1_445
Co5 O13 1.937468 1_455
Co5 O13 1.937468 1_555
