# generated using pymatgen
data_Mn3Cr2Te3O16
_symmetry_space_group_name_H-M   'P 1'
_cell_length_a   6.14913947
_cell_length_b   6.14913947
_cell_length_c   8.96051398
_cell_angle_alpha   88.78493198
_cell_angle_beta   88.78493198
_cell_angle_gamma   60.30944358
_symmetry_Int_Tables_number   1
_chemical_formula_structural   Mn3Cr2Te3O16
_chemical_formula_sum   'Mn3 Cr2 Te3 O16'
_cell_volume   294.24383510
_cell_formula_units_Z   1
loop_
 _symmetry_equiv_pos_site_id
 _symmetry_equiv_pos_as_xyz
  1  'x, y, z'
loop_
 _atom_site_type_symbol
 _atom_site_label
 _atom_site_symmetry_multiplicity
 _atom_site_fract_x
 _atom_site_fract_y
 _atom_site_fract_z
 _atom_site_occupancy
  Mn  Mn0  1  0.17579700  0.17579700  0.78619200  1
  Mn  Mn1  1  0.34113800  0.83192300  0.29022000  1
  Mn  Mn2  1  0.83192300  0.34113800  0.29022000  1
  Cr  Cr0  1  0.32457300  0.32457300  0.50803400  1
  Cr  Cr1  1  0.66343400  0.66343400  0.02257600  1
  Te  Te0  1  0.17631000  0.67249000  0.79361200  1
  Te  Te1  1  0.67249000  0.17631000  0.79361200  1
  Te  Te2  1  0.83822200  0.83822200  0.29756600  1
  O  O0  1  0.17455400  0.66412500  0.39951000  1
  O  O1  1  0.47418000  0.47418000  0.63645500  1
  O  O2  1  0.31172900  0.31172900  0.91009000  1
  O  O3  1  0.01292500  0.01292500  0.67885000  1
  O  O4  1  0.00814000  0.00814000  0.18804700  1
  O  O5  1  0.66412500  0.17455400  0.39951000  1
  O  O6  1  0.05438700  0.45768400  0.65610300  1
  O  O7  1  0.45768400  0.05438700  0.65610300  1
  O  O8  1  0.82698100  0.82698100  0.90745100  1
  O  O9  1  0.16678000  0.16678000  0.39101300  1
  O  O10  1  0.51603900  0.94380100  0.16012000  1
  O  O11  1  0.94380100  0.51603900  0.16012000  1
  O  O12  1  0.65438700  0.65438700  0.40106300  1
  O  O13  1  0.34658000  0.83943000  0.89540500  1
  O  O14  1  0.52622100  0.52622100  0.16707200  1
  O  O15  1  0.83943000  0.34658000  0.89540500  1
loop_
_geom_bond_atom_site_label_1
_geom_bond_atom_site_label_2
_geom_bond_distance
_geom_bond_site_symmetry_2
Mn0 O2 1.844098 1_555
Mn0 O6 1.894716 1_555
Mn0 O7 1.894716 1_555
Mn0 O3 2.001647 1_555
Mn0 O13 2.035835 1_545
Mn0 O15 2.035835 1_455
Mn1 O10 1.906497 1_555
Mn1 O12 1.959738 1_555
Mn1 O14 1.990460 1_555
Mn1 O0 2.008627 1_555
Mn1 O4 2.011126 1_565
Mn1 O9 2.013917 1_565
Mn2 O11 1.906497 1_555
Mn2 O12 1.959738 1_555
Mn2 O14 1.990460 1_555
Mn2 O5 2.008627 1_555
Mn2 O4 2.011126 1_655
Mn2 O9 2.013917 1_655
Cr0 O7 1.948334 1_555
Cr0 O6 1.948334 1_555
Cr0 O1 1.986193 1_555
Cr0 O9 2.000342 1_555
Cr0 O5 2.049395 1_555
Cr0 O0 2.049395 1_555
Cr1 O14 1.926854 1_555
Cr1 O10 1.951279 1_555
Cr1 O11 1.951279 1_555
Cr1 O8 2.000205 1_554
Cr1 O13 2.054002 1_554
Cr1 O15 2.054002 1_554
O0 Te2 2.025609 1_455
O1 Te0 2.139108 1_555
O1 Te1 2.139108 1_555
O2 Te1 2.193764 1_555
O2 Te0 2.193764 1_555
O3 Te0 2.078011 1_545
O3 Te1 2.078011 1_455
O4 Te2 2.034938 1_445
O5 Te2 2.025609 1_545
O6 Te0 2.216798 1_555
O7 Te1 2.216798 1_555
O8 Te0 2.117511 1_655
O8 Te1 2.117511 1_565
O10 Te2 2.158393 1_555
O11 Te2 2.158393 1_555
O12 Te2 2.143070 1_555
O13 Te0 2.031482 1_555
O15 Te1 2.031482 1_555
