# generated using pymatgen
data_Fe3O5F
_symmetry_space_group_name_H-M   'P 1'
_cell_length_a   4.64186600
_cell_length_b   5.53535428
_cell_length_c   7.61296572
_cell_angle_alpha   85.45388449
_cell_angle_beta   88.48959695
_cell_angle_gamma   88.00823476
_symmetry_Int_Tables_number   1
_chemical_formula_structural   Fe3O5F
_chemical_formula_sum   'Fe6 O10 F2'
_cell_volume   194.82244961
_cell_formula_units_Z   2
loop_
 _symmetry_equiv_pos_site_id
 _symmetry_equiv_pos_as_xyz
  1  'x, y, z'
loop_
 _atom_site_type_symbol
 _atom_site_label
 _atom_site_symmetry_multiplicity
 _atom_site_fract_x
 _atom_site_fract_y
 _atom_site_fract_z
 _atom_site_occupancy
  Fe  Fe0  1  0.51390200  0.84356200  0.67099500  1
  Fe  Fe1  1  0.49836500  0.49903600  0.99854800  1
  Fe  Fe2  1  0.51782500  0.17758600  0.34022000  1
  Fe  Fe3  1  0.99545200  0.32441300  0.67206400  1
  Fe  Fe4  1  0.97898400  0.65381200  0.32429100  1
  Fe  Fe5  1  0.99121300  0.99906900  0.99224300  1
  O  O0  1  0.81575700  0.36928900  0.44413700  1
  O  O1  1  0.80167100  0.03519800  0.76710200  1
  O  O2  1  0.80628900  0.71022200  0.09633300  1
  O  O3  1  0.69649000  0.20359400  0.10512400  1
  O  O4  1  0.69091100  0.53847900  0.76662900  1
  O  O5  1  0.69156000  0.87011300  0.43450700  1
  O  O6  1  0.30662200  0.13151500  0.56483100  1
  O  O7  1  0.31014800  0.46160200  0.23215700  1
  O  O8  1  0.30370000  0.79425100  0.89620800  1
  O  O9  1  0.18520700  0.28978000  0.89624700  1
  F  F0  1  0.19682300  0.96249300  0.23410100  1
  F  F1  1  0.19908100  0.63598700  0.56426400  1
loop_
_geom_bond_atom_site_label_1
_geom_bond_atom_site_label_2
_geom_bond_distance
_geom_bond_site_symmetry_2
Fe0 O1 1.928196 1_565
Fe0 O4 1.948644 1_555
Fe0 O8 1.955078 1_555
Fe0 O5 1.957353 1_555
Fe0 O6 1.962078 1_565
Fe1 O8 1.956148 1_555
Fe1 O4 1.957825 1_555
Fe1 O7 1.959953 1_556
Fe1 O3 1.975602 1_556
Fe1 O2 2.067348 1_556
Fe1 O9 2.093087 1_555
Fe2 O3 1.949625 1_555
Fe2 O5 1.950324 1_545
Fe2 O7 1.951701 1_555
Fe2 O6 1.951922 1_555
Fe2 O0 1.989280 1_555
Fe3 O9 1.934180 1_655
Fe3 O0 1.939575 1_555
Fe3 O1 1.943623 1_555
Fe3 O6 1.965117 1_655
Fe3 O4 1.971259 1_555
Fe4 O0 1.925009 1_555
Fe4 O2 1.929218 1_555
Fe4 O5 1.976568 1_555
Fe4 O7 1.983629 1_655
Fe5 O1 1.940306 1_565
Fe5 O2 1.944189 1_556
Fe5 O9 1.952966 1_665
Fe5 O3 1.968852 1_566
Fe5 O8 1.971062 1_655
F0 Fe4 2.076285 1_455
F0 Fe5 2.088597 1_454
F0 Fe2 2.151683 1_565
F1 Fe3 2.095112 1_455
F1 Fe0 2.107914 1_555
F1 Fe4 2.110433 1_455
