# generated using pymatgen
data_LiFeCuO4
_symmetry_space_group_name_H-M   'P 1'
_cell_length_a   5.64619500
_cell_length_b   6.26422497
_cell_length_c   6.26420222
_cell_angle_alpha   52.51150668
_cell_angle_beta   63.21170002
_cell_angle_gamma   63.21185975
_symmetry_Int_Tables_number   1
_chemical_formula_structural   LiFeCuO4
_chemical_formula_sum   'Li2 Fe2 Cu2 O8'
_cell_volume   151.98965750
_cell_formula_units_Z   2
loop_
 _symmetry_equiv_pos_site_id
 _symmetry_equiv_pos_as_xyz
  1  'x, y, z'
loop_
 _atom_site_type_symbol
 _atom_site_label
 _atom_site_symmetry_multiplicity
 _atom_site_fract_x
 _atom_site_fract_y
 _atom_site_fract_z
 _atom_site_occupancy
  Li  Li0  1  0.10473900  0.14523500  0.14523400  1
  Li  Li1  1  0.89526000  0.85476700  0.85476600  1
  Fe  Fe0  1  0.00000200  0.49997300  0.50001900  1
  Fe  Fe1  1  0.50001600  0.49999400  0.49999000  1
  Cu  Cu0  1  0.50000200  0.00000400  0.49998900  1
  Cu  Cu1  1  0.49998900  0.50001300  0.00000100  1
  O  O0  1  0.25574000  0.27616200  0.27615700  1
  O  O1  1  0.23785700  0.28671000  0.73757300  1
  O  O2  1  0.23785500  0.73757600  0.28670800  1
  O  O3  1  0.69193800  0.27616000  0.27616200  1
  O  O4  1  0.30805800  0.72384400  0.72384100  1
  O  O5  1  0.76214200  0.71329600  0.26242100  1
  O  O6  1  0.76213900  0.26242300  0.71329700  1
  O  O7  1  0.74426200  0.72384100  0.72384100  1
loop_
_geom_bond_atom_site_label_1
_geom_bond_atom_site_label_2
_geom_bond_distance
_geom_bond_site_symmetry_2
Li0 O1 1.996789 1_554
Li0 O2 1.996791 1_545
Li0 O3 2.037236 1_455
Li0 O0 2.037514 1_555
Li1 O5 1.996762 1_556
Li1 O6 1.996781 1_565
Li1 O4 2.037218 1_655
Li1 O7 2.037506 1_555
Fe0 O1 1.888682 1_555
Fe0 O6 1.888689 1_455
Fe0 O2 1.888853 1_555
Fe0 O5 1.888855 1_455
Fe0 O0 2.181786 1_555
Fe0 O7 2.181866 1_455
Fe1 O5 1.888733 1_555
Fe1 O6 1.888741 1_555
Fe1 O1 1.888807 1_555
Fe1 O2 1.888811 1_555
Fe1 O3 2.181748 1_555
Fe1 O4 2.181929 1_555
Cu0 O0 1.871028 1_555
Cu0 O3 1.871030 1_555
Cu0 O4 1.871066 1_545
Cu0 O7 1.871090 1_545
Cu0 O5 2.550043 1_545
Cu0 O1 2.550109 1_555
Cu1 O4 1.871027 1_554
Cu1 O0 1.871036 1_555
Cu1 O7 1.871054 1_554
Cu1 O3 1.871088 1_555
Cu1 O2 2.550013 1_555
Cu1 O6 2.550125 1_554
