# generated using pymatgen
data_Li7Sb2P7O24
_symmetry_space_group_name_H-M   'P 1'
_cell_length_a   5.27205700
_cell_length_b   12.07162200
_cell_length_c   15.86184360
_cell_angle_alpha   83.76048821
_cell_angle_beta   90.00000000
_cell_angle_gamma   90.00000000
_symmetry_Int_Tables_number   1
_chemical_formula_structural   Li7Sb2P7O24
_chemical_formula_sum   'Li14 Sb4 P14 O48'
_cell_volume   1003.50394968
_cell_formula_units_Z   2
loop_
 _symmetry_equiv_pos_site_id
 _symmetry_equiv_pos_as_xyz
  1  'x, y, z'
loop_
 _atom_site_type_symbol
 _atom_site_label
 _atom_site_symmetry_multiplicity
 _atom_site_fract_x
 _atom_site_fract_y
 _atom_site_fract_z
 _atom_site_occupancy
  Li  Li0  1  0.26469100  0.47992100  0.05401600  1
  Li  Li1  1  0.18838300  0.11123600  0.13604000  1
  Li  Li2  1  0.73530900  0.97992100  0.05401600  1
  Li  Li3  1  0.81161700  0.61123600  0.13604000  1
  Li  Li4  1  0.84413400  0.44535500  0.41761300  1
  Li  Li5  1  0.15586600  0.94535500  0.41761300  1
  Li  Li6  1  0.29262800  0.25000000  0.50000000  1
  Li  Li7  1  0.70737200  0.75000000  0.50000000  1
  Li  Li8  1  0.84413400  0.05464500  0.58238700  1
  Li  Li9  1  0.15586600  0.55464500  0.58238700  1
  Li  Li10  1  0.18838300  0.38876400  0.86396000  1
  Li  Li11  1  0.26469100  0.02007900  0.94598400  1
  Li  Li12  1  0.81161700  0.88876400  0.86396000  1
  Li  Li13  1  0.73530900  0.52007900  0.94598400  1
  Sb  Sb0  1  0.34824700  0.30697900  0.27525000  1
  Sb  Sb1  1  0.65175300  0.80697900  0.27525000  1
  Sb  Sb2  1  0.34824700  0.19302100  0.72475000  1
  Sb  Sb3  1  0.65175300  0.69302100  0.72475000  1
  P  P0  1  0.55689800  0.25000000  0.00000000  1
  P  P1  1  0.44310200  0.75000000  0.00000000  1
  P  P2  1  0.87286200  0.34360400  0.13115300  1
  P  P3  1  0.12713800  0.84360400  0.13115300  1
  P  P4  1  0.61691300  0.05426900  0.27629300  1
  P  P5  1  0.38308700  0.55426900  0.27629300  1
  P  P6  1  0.83161200  0.19271900  0.39920700  1
  P  P7  1  0.16838800  0.69271900  0.39920700  1
  P  P8  1  0.83161200  0.30728100  0.60079300  1
  P  P9  1  0.16838800  0.80728100  0.60079300  1
  P  P10  1  0.61691300  0.44573100  0.72370700  1
  P  P11  1  0.38308700  0.94573100  0.72370700  1
  P  P12  1  0.87286200  0.15639600  0.86884700  1
  P  P13  1  0.12713800  0.65639600  0.86884700  1
  O  O0  1  0.42015800  0.13939400  0.01452500  1
  O  O1  1  0.57984200  0.63939400  0.01452500  1
  O  O2  1  0.74955100  0.24841800  0.07809500  1
  O  O3  1  0.89980300  0.45337200  0.07536200  1
  O  O4  1  0.25044900  0.74841800  0.07809500  1
  O  O5  1  0.10019700  0.95337200  0.07536200  1
  O  O6  1  0.12686100  0.28436400  0.15489700  1
  O  O7  1  0.74594200  0.99930200  0.20494700  1
  O  O8  1  0.69890700  0.35348500  0.20691700  1
  O  O9  1  0.87313900  0.78436400  0.15489700  1
  O  O10  1  0.25405800  0.49930200  0.20494700  1
  O  O11  1  0.40918100  0.13608600  0.23924500  1
  O  O12  1  0.30109300  0.85348500  0.20691700  1
  O  O13  1  0.59081900  0.63608600  0.23924500  1
  O  O14  1  0.84198200  0.12588600  0.31398900  1
  O  O15  1  0.15801800  0.62588600  0.31398900  1
  O  O16  1  0.99858500  0.29636200  0.37586700  1
  O  O17  1  0.48668000  0.46961600  0.34745200  1
  O  O18  1  0.55003800  0.22341200  0.40890200  1
  O  O19  1  0.00141500  0.79636200  0.37586700  1
  O  O20  1  0.51332000  0.96961600  0.34745200  1
  O  O21  1  0.44996200  0.72341200  0.40890200  1
  O  O22  1  0.94735100  0.11387600  0.46985500  1
  O  O23  1  0.05264900  0.61387600  0.46985500  1
  O  O24  1  0.94735100  0.38612400  0.53014500  1
  O  O25  1  0.05264900  0.88612400  0.53014500  1
  O  O26  1  0.55003800  0.27658800  0.59109800  1
  O  O27  1  0.48668000  0.03038400  0.65254800  1
  O  O28  1  0.99858500  0.20363800  0.62413300  1
  O  O29  1  0.44996200  0.77658800  0.59109800  1
  O  O30  1  0.51332000  0.53038400  0.65254800  1
  O  O31  1  0.00141500  0.70363800  0.62413300  1
  O  O32  1  0.84198200  0.37411400  0.68601100  1
  O  O33  1  0.15801800  0.87411400  0.68601100  1
  O  O34  1  0.40918100  0.36391400  0.76075500  1
  O  O35  1  0.69890700  0.14651500  0.79308300  1
  O  O36  1  0.59081900  0.86391400  0.76075500  1
  O  O37  1  0.74594200  0.50069800  0.79505300  1
  O  O38  1  0.12686100  0.21563600  0.84510300  1
  O  O39  1  0.30109300  0.64651500  0.79308300  1
  O  O40  1  0.25405800  0.00069800  0.79505300  1
  O  O41  1  0.87313900  0.71563600  0.84510300  1
  O  O42  1  0.89980300  0.04662800  0.92463800  1
  O  O43  1  0.74955100  0.25158200  0.92190500  1
  O  O44  1  0.10019700  0.54662800  0.92463800  1
  O  O45  1  0.25044900  0.75158200  0.92190500  1
  O  O46  1  0.42015800  0.36060600  0.98547500  1
  O  O47  1  0.57984200  0.86060600  0.98547500  1
loop_
_geom_bond_atom_site_label_1
_geom_bond_atom_site_label_2
_geom_bond_distance
_geom_bond_site_symmetry_2
Li0 O3 1.973431 1_455
Li0 O46 2.066080 1_554
Li0 O44 2.291882 1_554
Li0 O10 2.431271 1_555
Li0 O1 2.568427 1_555
Li1 O11 2.057087 1_555
Li1 O6 2.167574 1_555
Li1 O5 2.274373 1_545
Li1 O0 2.276250 1_555
Li2 O5 1.973431 1_655
Li2 O47 2.066080 1_554
Li2 O42 2.291882 1_564
Li2 O7 2.431271 1_555
Li2 O0 2.568427 1_565
Li3 O13 2.057087 1_555
Li3 O9 2.167574 1_555
Li3 O3 2.274373 1_555
Li3 O1 2.276250 1_555
Li4 O24 1.927703 1_555
Li4 O16 2.143667 1_555
Li4 O17 2.191995 1_555
Li4 O23 2.529828 1_655
Li5 O25 1.927703 1_555
Li5 O19 2.143667 1_555
Li5 O20 2.191995 1_555
Li5 O22 2.529828 1_465
Li6 O18 2.033093 1_555
Li6 O26 2.033093 1_555
Li6 O28 2.520659 1_455
Li6 O16 2.520659 1_455
Li6 O24 2.532433 1_455
Li6 O22 2.532433 1_455
Li7 O29 2.033093 1_555
Li7 O21 2.033093 1_555
Li7 O31 2.520659 1_655
Li7 O19 2.520659 1_655
Li7 O25 2.532433 1_655
Li7 O23 2.532433 1_655
Li8 O22 1.927703 1_555
Li8 O28 2.143667 1_555
Li8 O27 2.191995 1_555
Li8 O25 2.529828 1_645
Li9 O23 1.927703 1_555
Li9 O31 2.143667 1_555
Li9 O30 2.191995 1_555
Li9 O24 2.529828 1_455
Li10 O34 2.057087 1_555
Li10 O38 2.167574 1_555
Li10 O44 2.274373 1_555
Li10 O46 2.276250 1_555
Li11 O42 1.973431 1_455
Li11 O0 2.066080 1_556
Li11 O5 2.291882 1_546
Li11 O40 2.431271 1_555
Li11 O47 2.568427 1_545
Li12 O36 2.057087 1_555
Li12 O41 2.167574 1_555
Li12 O42 2.274373 1_565
Li12 O47 2.276250 1_555
Li13 O44 1.973431 1_655
Li13 O1 2.066080 1_556
Li13 O3 2.291882 1_556
Li13 O37 2.431271 1_555
Li13 O46 2.568427 1_555
O0 P0 1.512830 1_555
O1 P1 1.512830 1_555
O2 P0 1.600399 1_555
O2 P2 1.631392 1_555
O3 P2 1.517974 1_555
O4 P1 1.600399 1_555
O4 P3 1.631392 1_555
O5 P3 1.517974 1_555
O6 P2 1.545278 1_455
O6 Sb0 2.279130 1_555
O7 P4 1.531975 1_565
O7 Sb1 2.513446 1_555
O8 P2 1.526656 1_555
O8 Sb0 2.185270 1_555
O9 P3 1.545278 1_655
O9 Sb1 2.279130 1_555
O10 P5 1.531975 1_555
O10 Sb0 2.513446 1_555
O11 P4 1.547275 1_555
O11 Sb0 2.222891 1_555
O12 P3 1.526656 1_555
O12 Sb1 2.185270 1_555
O13 P5 1.547275 1_555
O13 Sb1 2.222891 1_555
O14 P4 1.620267 1_555
O14 P6 1.648657 1_555
O15 P5 1.620267 1_555
O15 P7 1.648657 1_555
O16 P6 1.541635 1_555
O16 Sb0 2.432561 1_655
O17 P5 1.538125 1_555
O17 Sb0 2.487474 1_555
O18 P6 1.541745 1_555
O18 Sb0 2.485726 1_555
O19 P7 1.541635 1_555
O19 Sb1 2.432561 1_455
O20 P4 1.538125 1_565
O20 Sb1 2.487474 1_555
O21 P7 1.541745 1_555
O21 Sb1 2.485726 1_555
O22 P6 1.517267 1_555
O23 P7 1.517267 1_555
O24 P8 1.517267 1_555
O25 P9 1.517267 1_555
O26 P8 1.541745 1_555
O26 Sb2 2.485726 1_555
O27 P11 1.538125 1_545
O27 Sb2 2.487474 1_555
O28 P8 1.541635 1_555
O28 Sb2 2.432561 1_655
O29 P9 1.541745 1_555
O29 Sb3 2.485726 1_555
O30 P10 1.538125 1_555
O30 Sb3 2.487474 1_555
O31 P9 1.541635 1_555
O31 Sb3 2.432561 1_455
O32 P10 1.620267 1_555
O32 P8 1.648657 1_555
O33 P11 1.620267 1_555
O33 P9 1.648657 1_555
O34 P10 1.547275 1_555
O34 Sb2 2.222891 1_555
O35 P12 1.526656 1_555
O35 Sb2 2.185270 1_555
O36 P11 1.547275 1_555
O36 Sb3 2.222891 1_555
O37 P10 1.531975 1_555
O37 Sb3 2.513446 1_555
O38 P12 1.545278 1_455
O38 Sb2 2.279130 1_555
O39 P13 1.526656 1_555
O39 Sb3 2.185270 1_555
O40 P11 1.531975 1_545
O40 Sb2 2.513446 1_555
O41 P13 1.545278 1_655
O41 Sb3 2.279130 1_555
O42 P12 1.517974 1_555
O43 P0 1.600399 1_556
O43 P12 1.631392 1_555
O44 P13 1.517974 1_555
O45 P1 1.600399 1_556
O45 P13 1.631392 1_555
O46 P0 1.512830 1_556
O47 P1 1.512830 1_556
