# generated using pymatgen
data_Mn12O5F19
_symmetry_space_group_name_H-M   'P 1'
_cell_length_a   4.81618300
_cell_length_b   5.86798111
_cell_length_c   16.01007662
_cell_angle_alpha   90.28058563
_cell_angle_beta   90.25136381
_cell_angle_gamma   91.07411814
_symmetry_Int_Tables_number   1
_chemical_formula_structural   Mn12O5F19
_chemical_formula_sum   'Mn12 O5 F19'
_cell_volume   452.37564194
_cell_formula_units_Z   1
loop_
 _symmetry_equiv_pos_site_id
 _symmetry_equiv_pos_as_xyz
  1  'x, y, z'
loop_
 _atom_site_type_symbol
 _atom_site_label
 _atom_site_symmetry_multiplicity
 _atom_site_fract_x
 _atom_site_fract_y
 _atom_site_fract_z
 _atom_site_occupancy
  Mn  Mn0  1  0.05102700  0.81537700  0.57958900  1
  Mn  Mn1  1  0.98711200  0.17351300  0.75643200  1
  Mn  Mn2  1  0.00763900  0.86483600  0.91604100  1
  Mn  Mn3  1  0.98609200  0.83695700  0.25337000  1
  Mn  Mn4  1  0.99836500  0.15470000  0.41680100  1
  Mn  Mn5  1  0.02974900  0.16337100  0.09510900  1
  Mn  Mn6  1  0.50958600  0.64917100  0.41293400  1
  Mn  Mn7  1  0.50688100  0.65659800  0.07881500  1
  Mn  Mn8  1  0.50420400  0.64563000  0.75304400  1
  Mn  Mn9  1  0.50106700  0.32304400  0.90645500  1
  Mn  Mn10  1  0.50354900  0.35962600  0.58042000  1
  Mn  Mn11  1  0.48541600  0.34636800  0.24986300  1
  O  O0  1  0.20643900  0.12862400  0.85993500  1
  O  O1  1  0.22406000  0.11691000  0.20386800  1
  O  O2  1  0.31191300  0.60698000  0.51826500  1
  O  O3  1  0.70692700  0.37437400  0.80321200  1
  O  O4  1  0.69945700  0.61174400  0.30486700  1
  F  F0  1  0.22690400  0.89807600  0.70000900  1
  F  F1  1  0.22265900  0.87454800  0.36353800  1
  F  F2  1  0.23053200  0.88858300  0.02933300  1
  F  F3  1  0.24545600  0.10888500  0.52785400  1
  F  F4  1  0.26021000  0.62395300  0.86140300  1
  F  F5  1  0.25298100  0.40214200  0.68725800  1
  F  F6  1  0.26440500  0.38447800  0.35984200  1
  F  F7  1  0.24671200  0.60188100  0.18854400  1
  F  F8  1  0.28631400  0.37400700  0.01885000  1
  F  F9  1  0.73651900  0.60738600  0.96492900  1
  F  F10  1  0.74460100  0.62337400  0.64065300  1
  F  F11  1  0.74712400  0.39001600  0.47177200  1
  F  F12  1  0.72173400  0.38247000  0.14023300  1
  F  F13  1  0.75414900  0.88555200  0.80970700  1
  F  F14  1  0.77480700  0.88138200  0.47255000  1
  F  F15  1  0.77378500  0.13536400  0.64147200  1
  F  F16  1  0.77315100  0.11521300  0.98403900  1
  F  F17  1  0.77509300  0.88253400  0.14076600  1
  F  F18  1  0.74338600  0.11233200  0.30822600  1
loop_
_geom_bond_atom_site_label_1
_geom_bond_atom_site_label_2
_geom_bond_distance
_geom_bond_site_symmetry_2
Mn0 O2 2.023548 1_555
Mn1 O3 1.957277 1_555
Mn1 O0 1.982547 1_655
Mn2 O0 2.021188 1_565
Mn3 O4 2.069840 1_555
Mn3 O1 2.142530 1_665
Mn5 O1 1.995483 1_555
Mn6 O2 1.954685 1_555
Mn6 O4 1.973729 1_555
Mn8 O3 2.048384 1_555
Mn9 O0 1.947172 1_555
Mn9 O3 1.952933 1_555
Mn10 O2 2.001288 1_555
Mn11 O1 1.964240 1_555
Mn11 O4 2.044876 1_555
F0 Mn0 2.151981 1_555
F0 Mn8 2.185299 1_555
F0 Mn1 2.197020 1_465
F1 Mn6 2.086444 1_555
F1 Mn3 2.104018 1_455
F1 Mn4 2.158129 1_465
F2 Mn7 2.078786 1_555
F2 Mn2 2.106314 1_554
F2 Mn5 2.166758 1_565
F3 Mn10 2.080468 1_555
F3 Mn0 2.118852 1_545
F3 Mn4 2.155861 1_455
F4 Mn2 2.074744 1_555
F4 Mn8 2.102662 1_555
F4 Mn9 2.250689 1_555
F5 Mn10 2.114129 1_555
F5 Mn8 2.126957 1_555
F5 Mn1 2.151414 1_455
F6 Mn4 2.061272 1_455
F6 Mn11 2.074814 1_555
F6 Mn6 2.106860 1_555
F7 Mn11 2.145374 1_555
F7 Mn3 2.148909 1_455
F7 Mn7 2.183838 1_555
F8 Mn9 2.102349 1_554
F8 Mn5 2.125080 1_555
F8 Mn7 2.170097 1_555
F9 Mn2 2.132248 1_655
F9 Mn7 2.157684 1_556
F9 Mn9 2.202435 1_555
F10 Mn0 2.089083 1_655
F10 Mn10 2.140379 1_555
F10 Mn8 2.148719 1_555
F11 Mn4 2.050729 1_555
F11 Mn10 2.108743 1_555
F11 Mn6 2.139753 1_555
F12 Mn11 2.105485 1_555
F12 Mn5 2.108866 1_655
F12 Mn7 2.166596 1_555
F13 Mn8 2.041689 1_555
F13 Mn2 2.095909 1_655
F13 Mn1 2.189305 1_565
F14 Mn6 2.076206 1_555
F14 Mn4 2.117989 1_565
F14 Mn0 2.205079 1_655
F15 Mn10 2.108728 1_555
F15 Mn1 2.112810 1_555
F15 Mn0 2.525378 1_645
F16 Mn2 2.162514 1_645
F16 Mn5 2.175305 1_656
F16 Mn9 2.192672 1_555
F17 Mn7 2.078887 1_555
F17 Mn3 2.086415 1_555
F17 Mn5 2.167525 1_665
F18 Mn11 2.090236 1_555
F18 Mn4 2.134740 1_555
F18 Mn3 2.194249 1_545
