# generated using pymatgen
data_NaVP2O7
_symmetry_space_group_name_H-M   'P 1'
_cell_length_a   7.17518203
_cell_length_b   9.66383001
_cell_length_c   9.66417229
_cell_angle_alpha   61.05248058
_cell_angle_beta   81.51909138
_cell_angle_gamma   98.47739910
_symmetry_Int_Tables_number   1
_chemical_formula_structural   NaVP2O7
_chemical_formula_sum   'Na4 V4 P8 O28'
_cell_volume   561.13848335
_cell_formula_units_Z   4
loop_
 _symmetry_equiv_pos_site_id
 _symmetry_equiv_pos_as_xyz
  1  'x, y, z'
loop_
 _atom_site_type_symbol
 _atom_site_label
 _atom_site_symmetry_multiplicity
 _atom_site_fract_x
 _atom_site_fract_y
 _atom_site_fract_z
 _atom_site_occupancy
  Na  Na0  1  0.73815500  0.56935800  0.34336900  1
  Na  Na1  1  0.73827200  0.06942700  0.84343100  1
  Na  Na2  1  0.26179300  0.59331800  0.81940300  1
  Na  Na3  1  0.26181500  0.09334500  0.31934900  1
  V  V0  1  0.73200600  0.85814700  0.63772800  1
  V  V1  1  0.26795700  0.38777500  0.60814300  1
  V  V2  1  0.73207000  0.35809600  0.13774300  1
  V  V3  1  0.26781200  0.88768200  0.10818600  1
  P  P0  1  0.49457200  0.28785300  0.90343700  1
  P  P1  1  0.49457500  0.78796100  0.40342600  1
  P  P2  1  0.50537200  0.65338800  0.03802600  1
  P  P3  1  0.50556900  0.15351700  0.53785900  1
  P  P4  1  0.11487800  0.49664500  0.26622500  1
  P  P5  1  0.11501300  0.99670100  0.76620300  1
  P  P6  1  0.88505700  0.51633800  0.74671300  1
  P  P7  1  0.88507300  0.01625900  0.24671100  1
  O  O0  1  0.81919200  0.16800200  0.13924400  1
  O  O1  1  0.81906600  0.66802400  0.63934600  1
  O  O2  1  0.18093600  0.88941400  0.91796200  1
  O  O3  1  0.18101500  0.38950000  0.41792000  1
  O  O4  1  0.93090400  0.40741500  0.25459300  1
  O  O5  1  0.93100900  0.90763600  0.75447600  1
  O  O6  1  0.06911100  0.50455200  0.65774900  1
  O  O7  1  0.06903900  0.00454100  0.15760600  1
  O  O8  1  0.45410000  0.10884000  0.95090900  1
  O  O9  1  0.45409900  0.60891100  0.45091700  1
  O  O10  1  0.54579200  0.70081300  0.85903200  1
  O  O11  1  0.54596900  0.20079500  0.35887000  1
  O  O12  1  0.49672800  0.31281600  0.04760400  1
  O  O13  1  0.49677400  0.81293100  0.54757300  1
  O  O14  1  0.50310600  0.79754100  0.06296900  1
  O  O15  1  0.50339000  0.29771700  0.56274300  1
  O  O16  1  0.63441200  0.54885800  0.13312800  1
  O  O17  1  0.63455000  0.04907900  0.63304100  1
  O  O18  1  0.36560300  0.38305000  0.79892700  1
  O  O19  1  0.36544300  0.88300700  0.29904300  1
  O  O20  1  0.90807900  0.50235000  0.90923900  1
  O  O21  1  0.90801200  0.00214400  0.40930000  1
  O  O22  1  0.09166400  0.65918000  0.25212700  1
  O  O23  1  0.09189700  0.15924500  0.75215200  1
  O  O24  1  0.71794500  0.35750800  0.78919900  1
  O  O25  1  0.71784200  0.85757900  0.28903300  1
  O  O26  1  0.28203500  0.53911000  0.10746600  1
  O  O27  1  0.28229600  0.03921300  0.60746000  1
loop_
_geom_bond_atom_site_label_1
_geom_bond_atom_site_label_2
_geom_bond_distance
_geom_bond_site_symmetry_2
Na0 O9 2.317299 1_555
Na0 O16 2.348157 1_555
Na0 O22 2.432076 1_655
Na0 O15 2.545346 1_555
Na0 O4 2.585706 1_555
Na0 O25 2.604117 1_555
Na1 O8 2.317035 1_555
Na1 O17 2.348794 1_555
Na1 O23 2.432867 1_655
Na1 O14 2.548090 1_546
Na1 O5 2.585361 1_545
Na1 O24 2.603125 1_555
Na2 O10 2.317197 1_555
Na2 O18 2.348400 1_555
Na2 O20 2.433365 1_455
Na2 O13 2.547471 1_555
Na2 O6 2.583127 1_555
Na2 O26 2.602988 1_556
Na3 O11 2.317421 1_555
Na3 O19 2.347731 1_545
Na3 O21 2.434073 1_455
Na3 O12 2.546523 1_555
Na3 O7 2.584442 1_555
Na3 O27 2.604086 1_555
O0 P7 1.525578 1_555
O0 V2 2.020184 1_555
O1 P6 1.525389 1_555
O1 V0 2.019815 1_555
O2 P5 1.525430 1_555
O2 V3 2.019827 1_556
O3 P4 1.525502 1_555
O3 V1 2.020055 1_555
O4 P4 1.516813 1_655
O4 V2 2.081705 1_555
O5 P5 1.516665 1_655
O5 V0 2.082491 1_555
O6 P6 1.516721 1_455
O6 V1 2.082230 1_555
O7 P7 1.516551 1_455
O7 V3 2.081742 1_545
O8 P0 1.527038 1_555
O8 V3 2.019538 1_546
O9 P1 1.527330 1_555
O9 V1 2.018927 1_555
O10 P2 1.527044 1_556
O10 V0 2.020261 1_555
O11 P3 1.527393 1_555
O11 V2 2.018875 1_555
O12 P0 1.526502 1_554
O12 V2 2.094465 1_555
O13 P1 1.526388 1_555
O13 V0 2.093722 1_555
O14 P2 1.526303 1_555
O14 V3 2.093932 1_555
O15 P3 1.526336 1_555
O15 V1 2.094772 1_555
O16 P2 1.533113 1_555
O16 V2 2.049863 1_555
O17 P3 1.532658 1_555
O17 V0 2.050462 1_545
O18 P0 1.532969 1_555
O18 V1 2.049735 1_555
O19 P1 1.532791 1_555
O19 V3 2.050521 1_555
O20 P6 1.546019 1_555
O20 V2 2.023161 1_556
O21 P7 1.545985 1_555
O21 V0 2.022495 1_545
O22 P4 1.545999 1_555
O22 V3 2.023286 1_555
O23 P5 1.546071 1_545
O23 V1 2.023282 1_555
O24 P6 1.632284 1_555
O24 P0 1.637484 1_555
O25 P7 1.632227 1_565
O25 P1 1.637379 1_555
O26 P4 1.632034 1_555
O26 P2 1.637537 1_555
O27 P5 1.632288 1_545
O27 P3 1.637150 1_555
