# generated using pymatgen
data_Cs3B6H12Se4Br
_symmetry_space_group_name_H-M   'P 1'
_cell_length_a   11.01499123
_cell_length_b   11.01499123
_cell_length_c   9.04026100
_cell_angle_alpha   90.00000000
_cell_angle_beta   90.00000000
_cell_angle_gamma   119.99999535
_symmetry_Int_Tables_number   1
_chemical_formula_structural   Cs3B6H12Se4Br
_chemical_formula_sum   'Cs6 B12 H24 Se8 Br2'
_cell_volume   949.90447188
_cell_formula_units_Z   2
loop_
 _symmetry_equiv_pos_site_id
 _symmetry_equiv_pos_as_xyz
  1  'x, y, z'
loop_
 _atom_site_type_symbol
 _atom_site_label
 _atom_site_symmetry_multiplicity
 _atom_site_fract_x
 _atom_site_fract_y
 _atom_site_fract_z
 _atom_site_occupancy
  Cs  Cs0  1  0.69331400  0.84665700  0.75027900  1
  Cs  Cs1  1  0.15334300  0.84665700  0.75027900  1
  Cs  Cs2  1  0.15334300  0.30668600  0.75027900  1
  Cs  Cs3  1  0.30668600  0.15334300  0.25027900  1
  Cs  Cs4  1  0.84665700  0.15334300  0.25027900  1
  Cs  Cs5  1  0.84665700  0.69331400  0.25027900  1
  B  B0  1  0.76678800  0.23321200  0.88852500  1
  B  B1  1  0.76678800  0.53357500  0.88852500  1
  B  B2  1  0.46642500  0.23321200  0.88852500  1
  B  B3  1  0.23321200  0.76678800  0.38852500  1
  B  B4  1  0.23321200  0.46642500  0.38852500  1
  B  B5  1  0.53357500  0.76678800  0.38852500  1
  B  B6  1  0.56766000  0.43234000  0.58333700  1
  B  B7  1  0.56766000  0.13532000  0.58333700  1
  B  B8  1  0.86468000  0.43234000  0.58333700  1
  B  B9  1  0.43234000  0.56766000  0.08333700  1
  B  B10  1  0.43234000  0.86468000  0.08333700  1
  B  B11  1  0.13532000  0.56766000  0.08333700  1
  H  H0  1  0.70289900  0.11244900  0.92951700  1
  H  H1  1  0.88755100  0.59045000  0.92951700  1
  H  H2  1  0.40955000  0.29710100  0.92951700  1
  H  H3  1  0.88755100  0.29710100  0.92951700  1
  H  H4  1  0.40955000  0.11244900  0.92951700  1
  H  H5  1  0.70289900  0.59045000  0.92951700  1
  H  H6  1  0.29710100  0.88755100  0.42951700  1
  H  H7  1  0.11244900  0.40955000  0.42951700  1
  H  H8  1  0.59045000  0.70289900  0.42951700  1
  H  H9  1  0.11244900  0.70289900  0.42951700  1
  H  H10  1  0.59045000  0.88755100  0.42951700  1
  H  H11  1  0.29710100  0.40955000  0.42951700  1
  H  H12  1  0.50654300  0.49345700  0.62053900  1
  H  H13  1  0.50654300  0.01308500  0.62053900  1
  H  H14  1  0.98691500  0.49345700  0.62053900  1
  H  H15  1  0.49345700  0.50654300  0.12053900  1
  H  H16  1  0.49345700  0.98691500  0.12053900  1
  H  H17  1  0.01308500  0.50654300  0.12053900  1
  H  H18  1  0.57757500  0.42242500  0.45105000  1
  H  H19  1  0.57757500  0.15515100  0.45105000  1
  H  H20  1  0.84484900  0.42242500  0.45105000  1
  H  H21  1  0.42242500  0.57757500  0.95105000  1
  H  H22  1  0.42242500  0.84484900  0.95105000  1
  H  H23  1  0.15515100  0.57757500  0.95105000  1
  Se  Se0  1  0.77180800  0.22819200  0.66025900  1
  Se  Se1  1  0.77180800  0.54361700  0.66025900  1
  Se  Se2  1  0.45638300  0.22819200  0.66025900  1
  Se  Se3  1  0.22819200  0.77180800  0.16025900  1
  Se  Se4  1  0.22819200  0.45638300  0.16025900  1
  Se  Se5  1  0.54361700  0.77180800  0.16025900  1
  Se  Se6  1  0.66666700  0.33333300  0.97792000  1
  Se  Se7  1  0.33333300  0.66666700  0.47792000  1
  Br  Br0  1  0.00000000  0.00000000  0.49585900  1
  Br  Br1  1  0.00000000  0.00000000  0.99585900  1
loop_
_geom_bond_atom_site_label_1
_geom_bond_atom_site_label_2
_geom_bond_distance
_geom_bond_site_symmetry_2
Cs0 H10 3.225795 1_555
Cs0 H8 3.225795 1_555
Cs0 H5 3.301365 1_555
Cs0 H0 3.301365 1_565
Cs1 H6 3.225795 1_555
Cs1 H9 3.225795 1_555
Cs1 H1 3.301365 1_455
Cs1 H4 3.301365 1_565
Cs2 H7 3.225795 1_555
Cs2 H11 3.225795 1_555
Cs2 H2 3.301365 1_555
Cs2 H3 3.301365 1_455
Cs3 H4 3.225795 1_554
Cs3 H2 3.225795 1_554
Cs3 H11 3.301365 1_555
Cs3 H6 3.301365 1_545
Cs4 H3 3.225795 1_554
Cs4 H0 3.225795 1_554
Cs4 H10 3.301365 1_545
Cs4 H7 3.301365 1_655
Cs5 H1 3.225795 1_554
Cs5 H5 3.225795 1_554
Cs5 H8 3.301365 1_555
Cs5 H9 3.301365 1_655
B0 H0 1.210744 1_555
B0 H3 1.210744 1_555
B0 Se0 2.065806 1_555
B0 Se6 2.074085 1_555
B1 H1 1.210744 1_555
B1 H5 1.210753 1_555
B1 Se1 2.065806 1_555
B1 Se6 2.074085 1_555
B2 H4 1.210744 1_555
B2 H2 1.210753 1_555
B2 Se2 2.065806 1_555
B2 Se6 2.074085 1_555
B3 H9 1.210744 1_555
B3 H6 1.210744 1_555
B3 Se3 2.065806 1_555
B3 Se7 2.074085 1_555
B4 H7 1.210744 1_555
B4 H11 1.210753 1_555
B4 Se4 2.065806 1_555
B4 Se7 2.074085 1_555
B5 H10 1.210744 1_555
B5 H8 1.210753 1_555
B5 Se5 2.065806 1_555
B5 Se7 2.074085 1_555
B6 H18 1.210777 1_555
B6 H12 1.213555 1_555
B6 Se1 2.070338 1_555
B6 Se2 2.070338 1_555
B7 H19 1.210779 1_555
B7 H13 1.213564 1_555
B7 Se0 2.070338 1_555
B7 Se2 2.070347 1_555
B8 H20 1.210779 1_555
B8 H14 1.213564 1_555
B8 Se0 2.070338 1_555
B8 Se1 2.070347 1_555
B9 H21 1.210777 1_554
B9 H15 1.213555 1_555
B9 Se5 2.070338 1_555
B9 Se4 2.070338 1_555
B10 H22 1.210779 1_554
B10 H16 1.213564 1_555
B10 Se3 2.070338 1_555
B10 Se5 2.070347 1_555
B11 H23 1.210779 1_554
B11 H17 1.213564 1_555
B11 Se3 2.070338 1_555
B11 Se4 2.070347 1_555
Br0 Cs4 3.672569 1_455
Br0 Cs3 3.672570 1_555
Br0 Cs5 3.672570 1_445
Br0 Cs1 3.721424 1_545
Br0 Cs2 3.721424 1_555
Br0 Cs0 3.721424 1_445
Br1 Cs1 3.672569 1_545
Br1 Cs2 3.672570 1_555
Br1 Cs0 3.672570 1_445
Br1 Cs4 3.721424 1_456
Br1 Cs3 3.721424 1_556
Br1 Cs5 3.721424 1_446
