# generated using pymatgen
data_CoH5SeClO5
_symmetry_space_group_name_H-M   'P 1'
_cell_length_a   7.38482600
_cell_length_b   9.47725600
_cell_length_c   17.36121500
_cell_angle_alpha   90.00000000
_cell_angle_beta   90.00000000
_cell_angle_gamma   90.00000000
_symmetry_Int_Tables_number   1
_chemical_formula_structural   CoH5SeClO5
_chemical_formula_sum   'Co8 H40 Se8 Cl8 O40'
_cell_volume   1215.07474523
_cell_formula_units_Z   8
loop_
 _symmetry_equiv_pos_site_id
 _symmetry_equiv_pos_as_xyz
  1  'x, y, z'
loop_
 _atom_site_type_symbol
 _atom_site_label
 _atom_site_symmetry_multiplicity
 _atom_site_fract_x
 _atom_site_fract_y
 _atom_site_fract_z
 _atom_site_occupancy
  Co  Co0  1  0.00000000  0.00000000  0.00000000  1
  Co  Co1  1  0.00000000  0.00000000  0.50000000  1
  Co  Co2  1  0.93645400  0.15150100  0.75000000  1
  Co  Co3  1  0.43645400  0.34849900  0.25000000  1
  Co  Co4  1  0.50000000  0.50000000  0.00000000  1
  Co  Co5  1  0.50000000  0.50000000  0.50000000  1
  Co  Co6  1  0.56354600  0.65150100  0.75000000  1
  Co  Co7  1  0.06354600  0.84849900  0.25000000  1
  H  H0  1  0.60287200  0.04569000  0.56290000  1
  H  H1  1  0.60287200  0.04569000  0.93710000  1
  H  H2  1  0.59821100  0.08578700  0.70306600  1
  H  H3  1  0.59821100  0.08578700  0.79693400  1
  H  H4  1  0.26181000  0.15395300  0.16551800  1
  H  H5  1  0.26181000  0.15395300  0.33448200  1
  H  H6  1  0.73584100  0.20145100  0.20590300  1
  H  H7  1  0.73584100  0.20145100  0.29409700  1
  H  H8  1  0.39728100  0.23306000  0.10933800  1
  H  H9  1  0.39728100  0.23306000  0.39066200  1
  H  H10  1  0.89728100  0.26694000  0.60933800  1
  H  H11  1  0.89728100  0.26694000  0.89066200  1
  H  H12  1  0.23584100  0.29854900  0.79409700  1
  H  H13  1  0.23584100  0.29854900  0.70590300  1
  H  H14  1  0.76181000  0.34604700  0.83448200  1
  H  H15  1  0.76181000  0.34604700  0.66551800  1
  H  H16  1  0.09821100  0.41421300  0.29693400  1
  H  H17  1  0.09821100  0.41421300  0.20306600  1
  H  H18  1  0.10287200  0.45431000  0.06290000  1
  H  H19  1  0.10287200  0.45431000  0.43710000  1
  H  H20  1  0.89712800  0.54569000  0.56290000  1
  H  H21  1  0.89712800  0.54569000  0.93710000  1
  H  H22  1  0.90178900  0.58578700  0.70306600  1
  H  H23  1  0.90178900  0.58578700  0.79693400  1
  H  H24  1  0.23819000  0.65395300  0.16551800  1
  H  H25  1  0.23819000  0.65395300  0.33448200  1
  H  H26  1  0.76415900  0.70145100  0.20590300  1
  H  H27  1  0.76415900  0.70145100  0.29409700  1
  H  H28  1  0.10271900  0.73306000  0.10933800  1
  H  H29  1  0.10271900  0.73306000  0.39066200  1
  H  H30  1  0.60271900  0.76694000  0.60933800  1
  H  H31  1  0.60271900  0.76694000  0.89066200  1
  H  H32  1  0.26415900  0.79854900  0.70590300  1
  H  H33  1  0.26415900  0.79854900  0.79409700  1
  H  H34  1  0.73819000  0.84604700  0.66551800  1
  H  H35  1  0.73819000  0.84604700  0.83448200  1
  H  H36  1  0.40178900  0.91421300  0.20306600  1
  H  H37  1  0.40178900  0.91421300  0.29693400  1
  H  H38  1  0.39712800  0.95431000  0.06290000  1
  H  H39  1  0.39712800  0.95431000  0.43710000  1
  Se  Se0  1  0.34208700  0.18487700  0.55137700  1
  Se  Se1  1  0.34208700  0.18487700  0.94862300  1
  Se  Se2  1  0.84208700  0.31512300  0.05137700  1
  Se  Se3  1  0.84208700  0.31512300  0.44862300  1
  Se  Se4  1  0.15791300  0.68487700  0.55137700  1
  Se  Se5  1  0.15791300  0.68487700  0.94862300  1
  Se  Se6  1  0.65791300  0.81512300  0.05137700  1
  Se  Se7  1  0.65791300  0.81512300  0.44862300  1
  Cl  Cl0  1  0.97889100  0.02449100  0.14885000  1
  Cl  Cl1  1  0.97889100  0.02449100  0.35115000  1
  Cl  Cl2  1  0.47889100  0.47550900  0.85115000  1
  Cl  Cl3  1  0.47889100  0.47550900  0.64885000  1
  Cl  Cl4  1  0.52110900  0.52449100  0.14885000  1
  Cl  Cl5  1  0.52110900  0.52449100  0.35115000  1
  Cl  Cl6  1  0.02110900  0.97550900  0.64885000  1
  Cl  Cl7  1  0.02110900  0.97550900  0.85115000  1
  O  O0  1  0.27087300  0.04353500  0.00293400  1
  O  O1  1  0.27087300  0.04353500  0.49706600  1
  O  O2  1  0.67325900  0.08338500  0.75000000  1
  O  O3  1  0.53123500  0.10669900  0.60036800  1
  O  O4  1  0.53123500  0.10669900  0.89963200  1
  O  O5  1  0.37985600  0.20100800  0.16379200  1
  O  O6  1  0.37985600  0.20100800  0.33620800  1
  O  O7  1  0.94747300  0.21537500  0.51808300  1
  O  O8  1  0.94747300  0.21537500  0.98191700  1
  O  O9  1  0.20776000  0.23777300  0.75000000  1
  O  O10  1  0.70776000  0.26222700  0.25000000  1
  O  O11  1  0.44747300  0.28462500  0.01808300  1
  O  O12  1  0.44747300  0.28462500  0.48191700  1
  O  O13  1  0.87985700  0.29899200  0.83620800  1
  O  O14  1  0.87985700  0.29899200  0.66379200  1
  O  O15  1  0.03123500  0.39330100  0.10036800  1
  O  O16  1  0.03123500  0.39330100  0.39963200  1
  O  O17  1  0.17325900  0.41661500  0.25000000  1
  O  O18  1  0.77087300  0.45646500  0.99706600  1
  O  O19  1  0.77087300  0.45646500  0.50293400  1
  O  O20  1  0.22912700  0.54353500  0.00293400  1
  O  O21  1  0.22912700  0.54353500  0.49706600  1
  O  O22  1  0.82674100  0.58338500  0.75000000  1
  O  O23  1  0.96876500  0.60669900  0.60036800  1
  O  O24  1  0.96876500  0.60669900  0.89963200  1
  O  O25  1  0.12014400  0.70100800  0.16379200  1
  O  O26  1  0.12014400  0.70100800  0.33620800  1
  O  O27  1  0.55252700  0.71537500  0.51808300  1
  O  O28  1  0.55252700  0.71537500  0.98191700  1
  O  O29  1  0.29224000  0.73777300  0.75000000  1
  O  O30  1  0.79224000  0.76222700  0.25000000  1
  O  O31  1  0.05252700  0.78462500  0.01808300  1
  O  O32  1  0.05252700  0.78462500  0.48191700  1
  O  O33  1  0.62014300  0.79899200  0.66379200  1
  O  O34  1  0.62014300  0.79899200  0.83620800  1
  O  O35  1  0.46876500  0.89330100  0.10036800  1
  O  O36  1  0.46876500  0.89330100  0.39963200  1
  O  O37  1  0.32674100  0.91661500  0.25000000  1
  O  O38  1  0.72912700  0.95646500  0.50293400  1
  O  O39  1  0.72912700  0.95646500  0.99706600  1
loop_
_geom_bond_atom_site_label_1
_geom_bond_atom_site_label_2
_geom_bond_distance
_geom_bond_site_symmetry_2
Co0 O0 2.043093 1_555
Co0 O39 2.043093 1_444
Co0 O31 2.101280 1_545
Co0 O8 2.101280 1_454
Co1 O1 2.043093 1_555
Co1 O38 2.043093 1_445
Co1 O32 2.101280 1_545
Co1 O7 2.101280 1_455
Co2 O2 2.048051 1_555
Co2 O14 2.090120 1_555
Co2 O13 2.090120 1_555
Co2 O9 2.163957 1_655
Co3 O17 2.048051 1_555
Co3 O5 2.090121 1_555
Co3 O6 2.090121 1_555
Co3 O10 2.163957 1_555
Co4 O18 2.043093 1_554
Co4 O20 2.043093 1_555
Co4 O11 2.101280 1_555
Co4 O28 2.101280 1_554
Co5 O21 2.043093 1_555
Co5 O19 2.043093 1_555
Co5 O27 2.101280 1_555
Co5 O12 2.101280 1_555
Co6 O22 2.048051 1_555
Co6 O34 2.090120 1_555
Co6 O33 2.090120 1_555
Co6 O29 2.163957 1_555
Co7 O37 2.048051 1_555
Co7 O25 2.090121 1_555
Co7 O26 2.090121 1_555
Co7 O30 2.163957 1_455
H0 O3 1.018489 1_555
H0 O38 1.633469 1_545
H1 O4 1.018489 1_555
H1 O39 1.633469 1_545
H2 O2 0.985710 1_555
H3 O2 0.985710 1_555
H4 O5 0.979652 1_555
H5 O6 0.979652 1_555
H6 O10 0.980243 1_555
H7 O10 0.980243 1_555
H8 O5 1.001294 1_555
H8 O11 1.698885 1_555
H9 O6 1.001294 1_555
H9 O12 1.698885 1_555
H10 O14 1.001293 1_555
H10 O7 1.698885 1_555
H11 O13 1.001293 1_555
H11 O8 1.698885 1_555
H12 O9 0.980243 1_555
H13 O9 0.980243 1_555
H14 O13 0.979659 1_555
H15 O14 0.979659 1_555
H16 O17 0.985710 1_555
H17 O17 0.985710 1_555
H18 O15 1.018489 1_555
H18 O20 1.633469 1_555
H19 O16 1.018489 1_555
H19 O21 1.633469 1_555
H20 O23 1.018489 1_555
H20 O19 1.633469 1_555
H21 O24 1.018489 1_555
H21 O18 1.633469 1_555
H22 O22 0.985710 1_555
H23 O22 0.985710 1_555
H24 O25 0.979652 1_555
H25 O26 0.979652 1_555
H26 O30 0.980243 1_555
H27 O30 0.980243 1_555
H28 O25 1.001294 1_555
H28 O31 1.698885 1_555
H29 O26 1.001294 1_555
H29 O32 1.698885 1_555
H30 O33 1.001293 1_555
H30 O27 1.698885 1_555
H31 O34 1.001293 1_555
H31 O28 1.698885 1_555
H32 O29 0.980243 1_555
H33 O29 0.980243 1_555
H34 O33 0.979659 1_555
H35 O34 0.979659 1_555
H36 O37 0.985710 1_555
H37 O37 0.985710 1_555
H38 O35 1.018489 1_555
H38 O0 1.633469 1_565
H39 O36 1.018489 1_555
H39 O1 1.633469 1_565
Cl0 Co7 2.501326 1_645
Cl0 Co0 2.599298 1_655
Cl1 Co7 2.501326 1_645
Cl1 Co1 2.599298 1_655
Cl2 Co6 2.501326 1_555
Cl2 Co4 2.599298 1_556
Cl3 Co6 2.501326 1_555
Cl3 Co5 2.599298 1_555
Cl4 Co3 2.501326 1_555
Cl4 Co4 2.599298 1_555
Cl5 Co3 2.501326 1_555
Cl5 Co5 2.599298 1_555
Cl6 Co2 2.501326 1_465
Cl6 Co1 2.599298 1_565
Cl7 Co2 2.501326 1_465
Cl7 Co0 2.599298 1_566
O0 Se1 1.720464 1_554
O1 Se0 1.720464 1_555
O3 Se0 1.795410 1_555
O4 Se1 1.795410 1_555
O7 Se3 1.718594 1_555
O8 Se2 1.718594 1_556
O11 Se1 1.718594 1_554
O12 Se0 1.718594 1_555
O15 Se2 1.795410 1_455
O16 Se3 1.795410 1_455
O18 Se2 1.720464 1_556
O19 Se3 1.720464 1_555
O20 Se5 1.720464 1_554
O21 Se4 1.720464 1_555
O23 Se4 1.795410 1_655
O24 Se5 1.795410 1_655
O27 Se7 1.718594 1_555
O28 Se6 1.718594 1_556
O31 Se5 1.718594 1_554
O32 Se4 1.718594 1_555
O35 Se6 1.795410 1_555
O36 Se7 1.795410 1_555
O38 Se7 1.720464 1_555
O39 Se6 1.720464 1_556
