# generated using pymatgen
data_Li4Fe7(PO4)6
_symmetry_space_group_name_H-M   'P 1'
_cell_length_a   8.96418820
_cell_length_b   8.96418820
_cell_length_c   6.57041619
_cell_angle_alpha   80.42937263
_cell_angle_beta   80.42937263
_cell_angle_gamma   105.57042344
_symmetry_Int_Tables_number   1
_chemical_formula_structural   Li4Fe7(PO4)6
_chemical_formula_sum   'Li4 Fe7 P6 O24'
_cell_volume   489.00514596
_cell_formula_units_Z   1
loop_
 _symmetry_equiv_pos_site_id
 _symmetry_equiv_pos_as_xyz
  1  'x, y, z'
loop_
 _atom_site_type_symbol
 _atom_site_label
 _atom_site_symmetry_multiplicity
 _atom_site_fract_x
 _atom_site_fract_y
 _atom_site_fract_z
 _atom_site_occupancy
  Li  Li0  1  0.00292600  0.00292600  0.49738400  1
  Li  Li1  1  0.62995500  0.62995500  0.58106800  1
  Li  Li2  1  0.33079100  0.56160000  0.49685400  1
  Li  Li3  1  0.56160000  0.33079100  0.49685400  1
  Fe  Fe0  1  0.35708500  0.99760700  0.18109100  1
  Fe  Fe1  1  0.99760700  0.35708500  0.18109100  1
  Fe  Fe2  1  0.99832600  0.99832600  0.99785100  1
  Fe  Fe3  1  0.66419800  0.32707200  0.00217800  1
  Fe  Fe4  1  0.32707200  0.66419800  0.00217800  1
  Fe  Fe5  1  0.63726700  0.99197800  0.82269400  1
  Fe  Fe6  1  0.99197800  0.63726700  0.82269400  1
  P  P0  1  0.27676200  0.90176800  0.69884000  1
  P  P1  1  0.90176800  0.27676200  0.69884000  1
  P  P2  1  0.67005700  0.67005700  0.09420900  1
  P  P3  1  0.32314800  0.32314800  0.91619300  1
  P  P4  1  0.71550700  0.07989800  0.30445900  1
  P  P5  1  0.07989800  0.71550700  0.30445900  1
  O  O0  1  0.65121800  0.96207900  0.51900700  1
  O  O1  1  0.96207900  0.65121800  0.51900700  1
  O  O2  1  0.94938700  0.37309600  0.86963000  1
  O  O3  1  0.37309600  0.94938700  0.86963000  1
  O  O4  1  0.80267800  0.80267800  0.12930200  1
  O  O5  1  0.74294800  0.56849100  0.95483100  1
  O  O6  1  0.56849100  0.74294800  0.95483100  1
  O  O7  1  0.09747500  0.89388300  0.75579700  1
  O  O8  1  0.89388300  0.09747500  0.75579700  1
  O  O9  1  0.26875900  0.72137500  0.71125900  1
  O  O10  1  0.72137500  0.26875900  0.71125900  1
  O  O11  1  0.56435000  0.56435000  0.30769200  1
  O  O12  1  0.43608700  0.43608700  0.71010700  1
  O  O13  1  0.70881500  0.25522000  0.29944500  1
  O  O14  1  0.25522000  0.70881500  0.29944500  1
  O  O15  1  0.89822200  0.10234300  0.24037800  1
  O  O16  1  0.10234300  0.89822200  0.24037800  1
  O  O17  1  0.19362500  0.19362500  0.86984000  1
  O  O18  1  0.61884400  0.02759500  0.13701600  1
  O  O19  1  0.02759500  0.61884400  0.13701600  1
  O  O20  1  0.24478800  0.42343300  0.04996900  1
  O  O21  1  0.42343300  0.24478800  0.04996900  1
  O  O22  1  0.01648800  0.35392500  0.48513300  1
  O  O23  1  0.35392500  0.01648800  0.48513300  1
loop_
_geom_bond_atom_site_label_1
_geom_bond_atom_site_label_2
_geom_bond_distance
_geom_bond_site_symmetry_2
Li0 O8 2.219915 1_455
Li0 O7 2.219915 1_545
Li0 O16 2.236588 1_545
Li0 O15 2.236588 1_455
Li1 O12 2.039099 1_555
Li1 O11 2.105914 1_555
Li2 O14 2.021316 1_555
Li2 O12 2.146107 1_555
Li2 O11 2.241785 1_555
Li2 O9 2.276638 1_555
Li3 O13 2.021316 1_555
Li3 O12 2.146107 1_555
Li3 O11 2.241785 1_555
Li3 O10 2.276638 1_555
Fe0 O23 2.028885 1_565
Fe0 O21 2.119667 1_565
Fe0 O3 2.150603 1_554
Fe0 O16 2.157941 1_555
Fe0 O18 2.252003 1_565
Fe0 O14 2.442488 1_555
Fe1 O22 2.028885 1_655
Fe1 O20 2.119667 1_655
Fe1 O2 2.150603 1_554
Fe1 O15 2.157941 1_555
Fe1 O19 2.252003 1_655
Fe1 O13 2.442488 1_555
Fe2 O17 2.052468 1_665
Fe2 O4 2.058904 1_556
Fe2 O7 2.160482 1_655
Fe2 O8 2.160482 1_565
Fe2 O15 2.163721 1_566
Fe2 O16 2.163721 1_656
Fe3 O21 2.035622 1_555
Fe3 O5 2.039978 1_554
Fe3 O10 2.083250 1_554
Fe3 O13 2.090316 1_555
Fe3 O2 2.457285 1_554
Fe3 O18 2.580797 1_555
Fe4 O20 2.035622 1_555
Fe4 O6 2.039978 1_554
Fe4 O9 2.083250 1_554
Fe4 O14 2.090316 1_555
Fe4 O3 2.457285 1_554
Fe4 O19 2.580797 1_555
Fe5 O0 2.044932 1_555
Fe5 O18 2.128033 1_566
Fe5 O6 2.134464 1_555
Fe5 O8 2.176431 1_565
Fe5 O3 2.254174 1_555
Fe5 O10 2.338500 1_565
Fe6 O1 2.044932 1_555
Fe6 O19 2.128033 1_656
Fe6 O5 2.134464 1_555
Fe6 O7 2.176431 1_655
Fe6 O2 2.254174 1_555
Fe6 O9 2.338500 1_655
O0 P4 1.530612 1_565
O1 P5 1.530612 1_655
O2 P1 1.571883 1_555
O3 P0 1.571883 1_555
O4 P2 1.517696 1_555
O5 P2 1.578657 1_556
O6 P2 1.578657 1_556
O7 P0 1.567877 1_555
O8 P1 1.567877 1_555
O9 P0 1.587022 1_555
O10 P1 1.587022 1_555
O11 P2 1.548325 1_555
O12 P3 1.556114 1_555
O13 P4 1.583896 1_555
O14 P5 1.583896 1_555
O15 P4 1.570364 1_555
O16 P5 1.570364 1_555
O17 P3 1.516700 1_555
O18 P4 1.565711 1_555
O19 P5 1.565711 1_555
O20 P3 1.571811 1_554
O21 P3 1.571811 1_554
O22 P1 1.524014 1_455
O23 P0 1.524014 1_545
