# generated using pymatgen
data_Y(Bi3O5)4
_symmetry_space_group_name_H-M   'P 1'
_cell_length_a   8.97086617
_cell_length_b   8.97086617
_cell_length_c   8.97086617
_cell_angle_alpha   109.47122063
_cell_angle_beta   109.47122063
_cell_angle_gamma   109.47122063
_symmetry_Int_Tables_number   1
_chemical_formula_structural   Y(Bi3O5)4
_chemical_formula_sum   'Y1 Bi12 O20'
_cell_volume   555.75226722
_cell_formula_units_Z   1
loop_
 _symmetry_equiv_pos_site_id
 _symmetry_equiv_pos_as_xyz
  1  'x, y, z'
loop_
 _atom_site_type_symbol
 _atom_site_label
 _atom_site_symmetry_multiplicity
 _atom_site_fract_x
 _atom_site_fract_y
 _atom_site_fract_z
 _atom_site_occupancy
  Y  Y0  1  0.00000000  0.00000000  0.00000000  1
  Bi  Bi0  1  0.81709900  0.14212800  0.31129800  1
  Bi  Bi1  1  0.85787200  0.67497200  0.16917000  1
  Bi  Bi2  1  0.49419900  0.32502800  0.18290100  1
  Bi  Bi3  1  0.32502800  0.18290100  0.49419900  1
  Bi  Bi4  1  0.67497200  0.16917000  0.85787200  1
  Bi  Bi5  1  0.83083000  0.50580100  0.68870200  1
  Bi  Bi6  1  0.18290100  0.49419900  0.32502800  1
  Bi  Bi7  1  0.68870200  0.83083000  0.50580100  1
  Bi  Bi8  1  0.31129800  0.81709900  0.14212800  1
  Bi  Bi9  1  0.14212800  0.31129800  0.81709900  1
  Bi  Bi10  1  0.50580100  0.68870200  0.83083000  1
  Bi  Bi11  1  0.16917000  0.85787200  0.67497200  1
  O  O0  1  0.64811900  0.00000000  0.00000000  1
  O  O1  1  0.75373300  0.37819900  0.11351200  1
  O  O2  1  0.24423800  0.00000000  0.00000000  1
  O  O3  1  0.62446700  0.24626700  0.35977900  1
  O  O4  1  0.88648800  0.26468700  0.64022100  1
  O  O5  1  0.00000000  0.24423800  0.00000000  1
  O  O6  1  0.00000000  0.00000000  0.24423800  1
  O  O7  1  0.73531300  0.62180100  0.37553300  1
  O  O8  1  0.35188100  0.35188100  0.35188100  1
  O  O9  1  0.35977900  0.62446700  0.24626700  1
  O  O10  1  0.64022000  0.88648800  0.26468700  1
  O  O11  1  0.37819900  0.11351200  0.75373300  1
  O  O12  1  0.62180100  0.37553300  0.73531300  1
  O  O13  1  0.00000000  0.64811900  0.00000000  1
  O  O14  1  0.00000000  0.00000000  0.64811900  1
  O  O15  1  0.24626700  0.35977900  0.62446700  1
  O  O16  1  0.75576200  0.75576200  0.75576200  1
  O  O17  1  0.37553300  0.73531300  0.62180100  1
  O  O18  1  0.11351200  0.75373300  0.37819900  1
  O  O19  1  0.26468700  0.64022000  0.88648800  1
loop_
_geom_bond_atom_site_label_1
_geom_bond_atom_site_label_2
_geom_bond_distance
_geom_bond_site_symmetry_2
Bi0 O10 2.108165 1_545
Bi0 O0 2.288626 1_555
Bi0 O3 2.314001 1_555
Bi0 O6 2.494211 1_655
Bi0 O4 2.541553 1_555
Bi1 O18 2.108165 1_655
Bi1 O13 2.288627 1_655
Bi1 O1 2.314018 1_555
Bi1 O6 2.494203 1_665
Bi1 O7 2.541547 1_555
Bi2 O3 2.108159 1_555
Bi2 O8 2.288627 1_555
Bi2 O7 2.314014 1_555
Bi2 O2 2.494206 1_555
Bi2 O1 2.541553 1_555
Bi3 O15 2.108159 1_555
Bi3 O8 2.288627 1_555
Bi3 O12 2.314014 1_555
Bi3 O6 2.494206 1_555
Bi3 O11 2.541553 1_555
Bi4 O1 2.108165 1_556
Bi4 O0 2.288627 1_556
Bi4 O11 2.314018 1_555
Bi4 O5 2.494203 1_656
Bi4 O12 2.541547 1_555
Bi5 O12 2.108165 1_555
Bi5 O13 2.288626 1_656
Bi5 O4 2.314009 1_555
Bi5 O16 2.494211 1_555
Bi5 O3 2.541553 1_555
Bi6 O9 2.108159 1_555
Bi6 O8 2.288627 1_555
Bi6 O17 2.314014 1_555
Bi6 O5 2.494206 1_555
Bi6 O18 2.541553 1_555
Bi7 O7 2.108165 1_555
Bi7 O14 2.288626 1_665
Bi7 O10 2.314009 1_555
Bi7 O16 2.494211 1_555
Bi7 O9 2.541553 1_555
Bi8 O19 2.108165 1_554
Bi8 O13 2.288626 1_555
Bi8 O9 2.314001 1_555
Bi8 O2 2.494211 1_565
Bi8 O10 2.541545 1_555
Bi9 O4 2.108162 1_455
Bi9 O14 2.288626 1_555
Bi9 O15 2.314001 1_555
Bi9 O5 2.494211 1_556
Bi9 O19 2.541545 1_555
Bi10 O17 2.108165 1_555
Bi10 O0 2.288626 1_566
Bi10 O19 2.314009 1_555
Bi10 O16 2.494211 1_555
Bi10 O15 2.541553 1_555
Bi11 O11 2.108165 1_565
Bi11 O14 2.288627 1_565
Bi11 O18 2.314018 1_555
Bi11 O2 2.494203 1_566
Bi11 O17 2.541547 1_555
O2 Y0 2.191026 1_555
O5 Y0 2.191026 1_555
O6 Y0 2.191026 1_555
O16 Y0 2.191026 1_666
