# generated using pymatgen
data_NaLi5Mn2P2(CO7)2
_symmetry_space_group_name_H-M   'P 1'
_cell_length_a   6.63298600
_cell_length_b   8.65351630
_cell_length_c   9.98749898
_cell_angle_alpha   91.56300725
_cell_angle_beta   90.01335515
_cell_angle_gamma   90.43578501
_symmetry_Int_Tables_number   1
_chemical_formula_structural   NaLi5Mn2P2(CO7)2
_chemical_formula_sum   'Na2 Li10 Mn4 P4 C4 O28'
_cell_volume   573.03905790
_cell_formula_units_Z   2
loop_
 _symmetry_equiv_pos_site_id
 _symmetry_equiv_pos_as_xyz
  1  'x, y, z'
loop_
 _atom_site_type_symbol
 _atom_site_label
 _atom_site_symmetry_multiplicity
 _atom_site_fract_x
 _atom_site_fract_y
 _atom_site_fract_z
 _atom_site_occupancy
  Na  Na0  1  0.25512100  0.08500500  0.62163400  1
  Na  Na1  1  0.99761200  0.25080600  0.87693100  1
  Li  Li0  1  0.25468400  0.07759400  0.12531000  1
  Li  Li1  1  0.01860600  0.26365100  0.37952800  1
  Li  Li2  1  0.47977900  0.26524400  0.38212500  1
  Li  Li3  1  0.48103000  0.26667700  0.88676300  1
  Li  Li4  1  0.51718700  0.73915600  0.11695500  1
  Li  Li5  1  0.98291000  0.73950000  0.11592700  1
  Li  Li6  1  0.51896500  0.73435200  0.61538600  1
  Li  Li7  1  0.98135500  0.73490100  0.61553500  1
  Li  Li8  1  0.74931200  0.91658100  0.37347700  1
  Li  Li9  1  0.74189800  0.91389300  0.87638200  1
  Mn  Mn0  1  0.74637000  0.35622400  0.11570400  1
  Mn  Mn1  1  0.74906800  0.35813600  0.60961500  1
  Mn  Mn2  1  0.25053100  0.64582100  0.38547500  1
  Mn  Mn3  1  0.24936900  0.64554900  0.89021800  1
  P  P0  1  0.24975900  0.40549800  0.15069800  1
  P  P1  1  0.25458000  0.41535300  0.64554600  1
  P  P2  1  0.75044000  0.59344100  0.35181700  1
  P  P3  1  0.74518000  0.59595800  0.85461000  1
  C  C0  1  0.74919600  0.04190000  0.13520600  1
  C  C1  1  0.74836800  0.04191800  0.63283200  1
  C  C2  1  0.25021100  0.95169500  0.36035700  1
  C  C3  1  0.25893700  0.95371900  0.86995700  1
  O  O0  1  0.24848100  0.10156200  0.34747400  1
  O  O1  1  0.27849900  0.10088500  0.85241300  1
  O  O2  1  0.75015100  0.08845800  0.01274600  1
  O  O3  1  0.74949100  0.08893500  0.51085600  1
  O  O4  1  0.74630000  0.14113400  0.23502000  1
  O  O5  1  0.74524800  0.14234500  0.73232400  1
  O  O6  1  0.06104900  0.31235300  0.10440900  1
  O  O7  1  0.43122400  0.30948600  0.09728100  1
  O  O8  1  0.06458200  0.32210100  0.59839100  1
  O  O9  1  0.43548200  0.32317200  0.58656100  1
  O  O10  1  0.25484200  0.41353500  0.30764800  1
  O  O11  1  0.75085700  0.42245600  0.39748800  1
  O  O12  1  0.26690100  0.41883000  0.80177300  1
  O  O13  1  0.73221000  0.42752300  0.90399500  1
  O  O14  1  0.25222900  0.57510200  0.10191100  1
  O  O15  1  0.74973200  0.58753000  0.19506700  1
  O  O16  1  0.25105800  0.58551600  0.59991500  1
  O  O17  1  0.74873800  0.58706100  0.69763400  1
  O  O18  1  0.56697600  0.68730200  0.40467500  1
  O  O19  1  0.93514200  0.68768300  0.40502800  1
  O  O20  1  0.56590000  0.69733800  0.90429000  1
  O  O21  1  0.93390800  0.68529700  0.90795700  1
  O  O22  1  0.25059800  0.86229500  0.25346900  1
  O  O23  1  0.24783500  0.85838100  0.76718600  1
  O  O24  1  0.25178500  0.89034000  0.47676200  1
  O  O25  1  0.24945500  0.90124100  0.99058900  1
  O  O26  1  0.75065400  0.89457200  0.16038500  1
  O  O27  1  0.75020800  0.89499900  0.65876700  1
loop_
_geom_bond_atom_site_label_1
_geom_bond_atom_site_label_2
_geom_bond_distance
_geom_bond_site_symmetry_2
Na0 O24 2.190469 1_545
Na0 O1 2.310356 1_555
Na0 O9 2.409073 1_555
Na0 O8 2.434339 1_555
Na0 O23 2.472971 1_545
Na0 O0 2.746179 1_555
Na1 O1 2.287778 1_655
Na1 O13 2.351435 1_555
Na1 O6 2.356384 1_656
Na1 O5 2.381147 1_555
Na1 O12 2.426666 1_655
Na1 O2 2.564719 1_556
Na1 O8 2.899493 1_655
Li0 O25 2.006913 1_544
Li0 O0 2.223315 1_555
Li0 O22 2.289009 1_545
Li0 O7 2.339102 1_555
Li0 O6 2.425460 1_555
Li1 O0 2.098342 1_555
Li1 O10 2.161802 1_555
Li1 O8 2.250332 1_555
Li1 O11 2.258003 1_455
Li1 O4 2.521035 1_455
Li2 O0 2.102318 1_555
Li2 O9 2.110276 1_555
Li2 O10 2.122911 1_555
Li2 O11 2.249136 1_555
Li2 O4 2.526117 1_555
Li3 O1 1.980989 1_555
Li3 O12 2.135477 1_555
Li3 O7 2.150994 1_556
Li3 O13 2.166629 1_555
Li3 O5 2.558831 1_555
Li4 O26 2.081149 1_555
Li4 O20 2.169530 1_554
Li4 O15 2.189863 1_555
Li4 O14 2.253204 1_555
Li4 O22 2.464096 1_555
Li4 O25 2.616725 1_554
Li5 O26 2.090564 1_555
Li5 O21 2.141077 1_554
Li5 O15 2.184647 1_555
Li5 O14 2.294023 1_655
Li5 O22 2.461580 1_655
Li5 O25 2.590512 1_654
Li6 O27 2.099359 1_555
Li6 O18 2.156744 1_555
Li6 O17 2.169852 1_555
Li6 O16 2.189684 1_555
Li6 O23 2.574223 1_555
Li7 O27 2.111035 1_555
Li7 O19 2.152230 1_555
Li7 O17 2.171983 1_555
Li7 O16 2.218113 1_655
Li7 O23 2.538074 1_655
Li7 O24 2.648394 1_655
Li8 O3 1.998849 1_565
Li8 O26 2.131607 1_555
Li8 O18 2.343874 1_555
Li8 O19 2.369196 1_555
Li8 O4 2.415726 1_565
Li9 O2 2.006553 1_566
Li9 O27 2.175862 1_555
Li9 O20 2.224320 1_555
Li9 O21 2.388888 1_555
Li9 O5 2.476545 1_565
Mn0 O6 2.126814 1_655
Mn0 O15 2.132599 1_555
Mn0 O7 2.133058 1_555
Mn0 O13 2.220883 1_554
Mn0 O4 2.237284 1_555
Mn0 O2 2.509574 1_555
Mn1 O9 2.111258 1_555
Mn1 O8 2.120789 1_655
Mn1 O17 2.145286 1_555
Mn1 O11 2.205158 1_555
Mn1 O5 2.261365 1_555
Mn1 O3 2.504874 1_555
Mn2 O19 2.133908 1_455
Mn2 O18 2.134459 1_555
Mn2 O10 2.135679 1_555
Mn2 O16 2.218174 1_555
Mn2 O24 2.281019 1_555
Mn2 O22 2.319920 1_555
Mn3 O21 2.129750 1_455
Mn3 O12 2.133521 1_555
Mn3 O20 2.147278 1_555
Mn3 O14 2.216451 1_556
Mn3 O23 2.241823 1_555
Mn3 O25 2.404090 1_555
C0 O2 1.298116 1_555
C0 O4 1.298125 1_555
C0 O26 1.306290 1_545
C1 O3 1.294869 1_555
C1 O5 1.302397 1_555
C1 O27 1.304536 1_545
C2 O24 1.291271 1_555
C2 O22 1.301203 1_555
C2 O0 1.306868 1_565
C3 O1 1.295770 1_565
C3 O25 1.300461 1_555
C3 O23 1.300944 1_555
O6 P0 1.547338 1_555
O7 P0 1.554039 1_555
O8 P1 1.557160 1_555
O9 P1 1.553198 1_555
O10 P0 1.567527 1_555
O11 P2 1.560202 1_555
O12 P1 1.561895 1_555
O13 P3 1.553215 1_555
O14 P0 1.558974 1_555
O15 P2 1.564986 1_555
O16 P1 1.553593 1_555
O17 P3 1.567780 1_555
O18 P2 1.552815 1_555
O19 P2 1.552193 1_555
O20 P3 1.556387 1_555
O21 P3 1.552782 1_555
