# generated using pymatgen
data_Li2VF6
_symmetry_space_group_name_H-M   'P 1'
_cell_length_a   5.80893364
_cell_length_b   5.80893364
_cell_length_c   4.87355900
_cell_angle_alpha   90.00000000
_cell_angle_beta   90.00000000
_cell_angle_gamma   119.99999593
_symmetry_Int_Tables_number   1
_chemical_formula_structural   Li2VF6
_chemical_formula_sum   'Li2 V1 F6'
_cell_volume   142.41958252
_cell_formula_units_Z   1
loop_
 _symmetry_equiv_pos_site_id
 _symmetry_equiv_pos_as_xyz
  1  'x, y, z'
loop_
 _atom_site_type_symbol
 _atom_site_label
 _atom_site_symmetry_multiplicity
 _atom_site_fract_x
 _atom_site_fract_y
 _atom_site_fract_z
 _atom_site_occupancy
  Li  Li0  1  0.33333300  0.66666700  0.71203600  1
  Li  Li1  1  0.66666700  0.33333300  0.28796400  1
  V  V0  1  0.00000000  0.00000000  0.00000000  1
  F  F0  1  0.15446200  0.84553800  0.77801000  1
  F  F1  1  0.84553800  0.69107700  0.22199000  1
  F  F2  1  0.30892300  0.15446200  0.22199000  1
  F  F3  1  0.69107700  0.84553800  0.77801000  1
  F  F4  1  0.15446200  0.30892300  0.77801000  1
  F  F5  1  0.84553800  0.15446200  0.22199000  1
loop_
_geom_bond_atom_site_label_1
_geom_bond_atom_site_label_2
_geom_bond_distance
_geom_bond_site_symmetry_2
F0 Li0 1.828183 1_555
F0 V0 1.893592 1_566
F1 Li1 1.828193 1_555
F1 V0 1.893588 1_665
F2 Li1 1.828193 1_555
F2 V0 1.893588 1_555
F3 Li0 1.828193 1_555
F3 V0 1.893588 1_666
F4 Li0 1.828193 1_555
F4 V0 1.893588 1_556
F5 Li1 1.828183 1_555
F5 V0 1.893592 1_655
