# generated using pymatgen
data_Li4Mn3Sn5O16
_symmetry_space_group_name_H-M   'P 1'
_cell_length_a   6.26257661
_cell_length_b   10.67180604
_cell_length_c   9.96301796
_cell_angle_alpha   91.00973921
_cell_angle_beta   91.72333978
_cell_angle_gamma   88.37543937
_symmetry_Int_Tables_number   1
_chemical_formula_structural   Li4Mn3Sn5O16
_chemical_formula_sum   'Li8 Mn6 Sn10 O32'
_cell_volume   665.19600293
_cell_formula_units_Z   2
loop_
 _symmetry_equiv_pos_site_id
 _symmetry_equiv_pos_as_xyz
  1  'x, y, z'
loop_
 _atom_site_type_symbol
 _atom_site_label
 _atom_site_symmetry_multiplicity
 _atom_site_fract_x
 _atom_site_fract_y
 _atom_site_fract_z
 _atom_site_occupancy
  Li  Li0  1  0.99497300  0.33166100  0.89633400  1
  Li  Li1  1  0.49494800  0.83167500  0.89629700  1
  Li  Li2  1  0.48189400  0.49404600  0.98665300  1
  Li  Li3  1  0.98192600  0.99400300  0.98664200  1
  Li  Li4  1  0.49855900  0.49952400  0.49448500  1
  Li  Li5  1  0.99857600  0.99949600  0.49450500  1
  Li  Li6  1  0.49711100  0.16570800  0.40187700  1
  Li  Li7  1  0.99711300  0.66572700  0.40184600  1
  Mn  Mn0  1  0.74648800  0.91572400  0.21411600  1
  Mn  Mn1  1  0.50018100  0.33053400  0.71237400  1
  Mn  Mn2  1  0.00006600  0.83054400  0.71243900  1
  Mn  Mn3  1  0.24678900  0.41547300  0.21405600  1
  Mn  Mn4  1  0.74585800  0.08488400  0.71229800  1
  Mn  Mn5  1  0.24589000  0.58487800  0.71238200  1
  Sn  Sn0  1  0.00966300  0.33653100  0.49266300  1
  Sn  Sn1  1  0.50961500  0.83652500  0.49265000  1
  Sn  Sn2  1  0.25523500  0.08502700  0.71624000  1
  Sn  Sn3  1  0.75522500  0.58505500  0.71626900  1
  Sn  Sn4  1  0.50363500  0.16790200  0.98687000  1
  Sn  Sn5  1  0.00374900  0.66794200  0.98691600  1
  Sn  Sn6  1  0.75618400  0.41608800  0.21423800  1
  Sn  Sn7  1  0.25606800  0.91603400  0.21424100  1
  Sn  Sn8  1  0.00225200  0.16999800  0.21425900  1
  Sn  Sn9  1  0.50223700  0.66997800  0.21421900  1
  O  O0  1  0.77500300  0.25831700  0.34301200  1
  O  O1  1  0.27498600  0.75833000  0.34305000  1
  O  O2  1  0.98855700  0.32945900  0.09994900  1
  O  O3  1  0.48856800  0.82951100  0.09993000  1
  O  O4  1  0.00876400  0.00290800  0.31169700  1
  O  O5  1  0.50881400  0.50291000  0.31167200  1
  O  O6  1  0.49518500  0.49854100  0.80241200  1
  O  O7  1  0.99522900  0.99841200  0.80239600  1
  O  O8  1  0.24331400  0.08109400  0.09604200  1
  O  O9  1  0.74332200  0.58110200  0.09601200  1
  O  O10  1  0.26704800  0.42241800  0.60069500  1
  O  O11  1  0.76709200  0.92230000  0.60063900  1
  O  O12  1  0.50619100  0.16874500  0.61187400  1
  O  O13  1  0.00628200  0.66876000  0.61203000  1
  O  O14  1  0.71450800  0.23825300  0.83113100  1
  O  O15  1  0.21470800  0.73830000  0.83091200  1
  O  O16  1  0.75476400  0.42192200  0.59543600  1
  O  O17  1  0.25476500  0.92192300  0.59539700  1
  O  O18  1  0.01019400  0.16641700  0.59544800  1
  O  O19  1  0.51022700  0.66640100  0.59543100  1
  O  O20  1  0.99082500  0.48325600  0.34933300  1
  O  O21  1  0.49075700  0.98329300  0.34933700  1
  O  O22  1  0.22033000  0.25373000  0.34935100  1
  O  O23  1  0.72023800  0.75374200  0.34929700  1
  O  O24  1  0.26867500  0.23954200  0.84813600  1
  O  O25  1  0.76875400  0.73959000  0.84817000  1
  O  O26  1  0.49379500  0.01456500  0.84816600  1
  O  O27  1  0.99379300  0.51460400  0.84819400  1
  O  O28  1  0.50935400  0.33755000  0.09137700  1
  O  O29  1  0.00946700  0.83752400  0.09142800  1
  O  O30  1  0.76098900  0.08591100  0.09139500  1
  O  O31  1  0.26097600  0.58601200  0.09146300  1
loop_
_geom_bond_atom_site_label_1
_geom_bond_atom_site_label_2
_geom_bond_distance
_geom_bond_site_symmetry_2
Li0 O24 2.018024 1_655
Li0 O27 2.018331 1_555
Li0 O2 2.030788 1_556
Li0 O14 2.123337 1_555
Li1 O26 2.017764 1_565
Li1 O25 2.018227 1_555
Li1 O3 2.030944 1_556
Li1 O15 2.122490 1_555
Li2 O6 1.841511 1_555
Li2 O31 1.985330 1_556
Li2 O28 1.985383 1_556
Li2 O9 2.161938 1_556
Li3 O7 1.841526 1_555
Li3 O30 1.984819 1_566
Li3 O29 1.985585 1_656
Li3 O8 2.162108 1_666
Li4 O5 1.825460 1_555
Li4 O10 2.022256 1_555
Li4 O19 2.031794 1_555
Li4 O16 2.031947 1_555
Li5 O4 1.825393 1_665
Li5 O11 2.022132 1_555
Li5 O17 2.031467 1_655
Li5 O18 2.032174 1_665
Li6 O22 2.007794 1_555
Li6 O21 2.008095 1_545
Li6 O12 2.090971 1_555
Li6 O0 2.128086 1_555
Li7 O23 2.008312 1_555
Li7 O20 2.008591 1_555
Li7 O13 2.092832 1_655
Li7 O1 2.127743 1_655
Mn0 O4 2.113634 1_665
Mn0 O3 2.164848 1_555
Mn0 O30 2.212704 1_565
Mn0 O29 2.215883 1_655
Mn0 O21 2.220338 1_555
Mn0 O23 2.222748 1_555
Mn1 O12 1.980585 1_555
Mn1 O6 1.990509 1_555
Mn1 O14 2.010462 1_555
Mn1 O10 2.047129 1_555
Mn1 O16 2.256189 1_555
Mn1 O24 2.262414 1_555
Mn2 O13 1.980107 1_555
Mn2 O7 1.988831 1_455
Mn2 O15 2.009897 1_555
Mn2 O11 2.046449 1_455
Mn2 O17 2.257243 1_555
Mn2 O25 2.261220 1_455
Mn3 O5 2.113792 1_555
Mn3 O2 2.164983 1_455
Mn3 O28 2.212869 1_555
Mn3 O31 2.214948 1_555
Mn3 O22 2.221589 1_555
Mn3 O20 2.222423 1_455
Mn4 O12 1.979863 1_555
Mn4 O7 1.989834 1_545
Mn4 O14 2.011611 1_555
Mn4 O11 2.047801 1_545
Mn4 O18 2.255241 1_655
Mn4 O26 2.262496 1_555
Mn5 O13 1.979340 1_555
Mn5 O6 1.988531 1_555
Mn5 O15 2.010227 1_555
Mn5 O10 2.046816 1_555
Mn5 O19 2.255750 1_555
Mn5 O27 2.262127 1_455
O0 Sn8 2.133161 1_655
O0 Sn6 2.133204 1_555
O0 Sn0 2.230081 1_655
O1 Sn7 2.132857 1_555
O1 Sn9 2.133792 1_555
O1 Sn1 2.229551 1_555
O2 Sn8 2.062632 1_655
O2 Sn6 2.062832 1_555
O3 Sn7 2.063048 1_555
O3 Sn9 2.063154 1_555
O4 Sn8 2.044066 1_555
O4 Sn7 2.044074 1_545
O5 Sn9 2.043925 1_555
O5 Sn6 2.044046 1_555
O6 Sn3 2.106731 1_555
O7 Sn2 2.107122 1_665
O8 Sn8 2.133733 1_555
O8 Sn7 2.134358 1_545
O8 Sn4 2.219658 1_554
O9 Sn9 2.133655 1_555
O9 Sn6 2.134099 1_555
O9 Sn5 2.219923 1_654
O10 Sn0 2.131062 1_555
O11 Sn1 2.130764 1_555
O12 Sn2 2.135430 1_555
O13 Sn3 2.135197 1_455
O14 Sn4 2.221653 1_555
O15 Sn5 2.223925 1_555
O16 Sn3 2.099122 1_555
O16 Sn0 2.100012 1_655
O17 Sn2 2.098925 1_565
O17 Sn1 2.099678 1_555
O18 Sn2 2.099493 1_555
O18 Sn0 2.099863 1_555
O19 Sn3 2.099371 1_555
O19 Sn1 2.099917 1_555
O20 Sn6 2.095582 1_555
O20 Sn0 2.136140 1_655
O21 Sn7 2.096137 1_555
O21 Sn1 2.136368 1_555
O22 Sn8 2.095578 1_555
O22 Sn0 2.136075 1_555
O23 Sn9 2.095330 1_555
O23 Sn1 2.136106 1_555
O24 Sn2 2.092318 1_555
O24 Sn4 2.123985 1_555
O25 Sn3 2.092539 1_555
O25 Sn5 2.124237 1_655
O26 Sn2 2.092391 1_555
O26 Sn4 2.124175 1_555
O27 Sn3 2.092378 1_555
O27 Sn5 2.124320 1_655
O28 Sn4 2.073190 1_554
O28 Sn6 2.124568 1_555
O29 Sn5 2.072605 1_554
O29 Sn7 2.123150 1_555
O30 Sn4 2.073372 1_554
O30 Sn8 2.124497 1_655
O31 Sn5 2.072616 1_554
O31 Sn9 2.123342 1_555
