# generated using pymatgen
data_Zn(FeO2)2
_symmetry_space_group_name_H-M   'P 1'
_cell_length_a   6.02339696
_cell_length_b   6.01606334
_cell_length_c   29.99296834
_cell_angle_alpha   60.22872707
_cell_angle_beta   60.04986140
_cell_angle_gamma   59.62799061
_symmetry_Int_Tables_number   1
_chemical_formula_structural   Zn(FeO2)2
_chemical_formula_sum   'Zn10 Fe20 O40'
_cell_volume   767.93843314
_cell_formula_units_Z   10
loop_
 _symmetry_equiv_pos_site_id
 _symmetry_equiv_pos_as_xyz
  1  'x, y, z'
loop_
 _atom_site_type_symbol
 _atom_site_label
 _atom_site_symmetry_multiplicity
 _atom_site_fract_x
 _atom_site_fract_y
 _atom_site_fract_z
 _atom_site_occupancy
  Zn  Zn0  1  0.13757100  0.12610700  0.02223700  1
  Zn  Zn1  1  0.13410300  0.12519200  0.22393300  1
  Zn  Zn2  1  0.13483900  0.12067900  0.42385700  1
  Zn  Zn3  1  0.00279800  0.50232800  0.09923400  1
  Zn  Zn4  1  0.00308600  0.49985100  0.29931400  1
  Zn  Zn5  1  0.49722200  0.99944200  0.70104100  1
  Zn  Zn6  1  0.99832400  0.49829500  0.50052700  1
  Zn  Zn7  1  0.99812800  0.49711400  0.70113600  1
  Zn  Zn8  1  0.49736600  0.00102200  0.90019400  1
  Zn  Zn9  1  0.00280100  0.49762600  0.89977700  1
  Fe  Fe0  1  0.49784500  0.49716500  0.99980700  1
  Fe  Fe1  1  0.49703200  0.50105100  0.09880600  1
  Fe  Fe2  1  0.49827800  0.00639300  0.09950800  1
  Fe  Fe3  1  0.49754500  0.49697600  0.20125500  1
  Fe  Fe4  1  0.50006800  0.49914900  0.29891900  1
  Fe  Fe5  1  0.86516700  0.88158500  0.17534600  1
  Fe  Fe6  1  0.49901700  0.00382400  0.29959500  1
  Fe  Fe7  1  0.49570400  0.49969500  0.40121800  1
  Fe  Fe8  1  0.12979600  0.12815800  0.62603500  1
  Fe  Fe9  1  0.49790800  0.49919800  0.50066900  1
  Fe  Fe10  1  0.86754100  0.87857400  0.37522500  1
  Fe  Fe11  1  0.49695300  0.00258800  0.50004600  1
  Fe  Fe12  1  0.49874500  0.50180700  0.60159900  1
  Fe  Fe13  1  0.13454000  0.13509200  0.82277800  1
  Fe  Fe14  1  0.49873300  0.49921700  0.70066700  1
  Fe  Fe15  1  0.86015400  0.87253000  0.57805500  1
  Fe  Fe16  1  0.50093500  0.50115500  0.79881400  1
  Fe  Fe17  1  0.49838900  0.49863800  0.89861100  1
  Fe  Fe18  1  0.86632200  0.86697400  0.77668100  1
  Fe  Fe19  1  0.86666500  0.86929700  0.97534700  1
  O  O0  1  0.27368700  0.25183400  0.05060000  1
  O  O1  1  0.27235600  0.72129100  0.04996800  1
  O  O2  1  0.27289500  0.25668000  0.14387200  1
  O  O3  1  0.26677000  0.74569400  0.14913600  1
  O  O4  1  0.26972100  0.25774700  0.25052800  1
  O  O5  1  0.72533400  0.25510600  0.05157200  1
  O  O6  1  0.73404600  0.27304900  0.14935600  1
  O  O7  1  0.73338100  0.74545300  0.05448200  1
  O  O8  1  0.27909800  0.24715000  0.34365500  1
  O  O9  1  0.26931600  0.72174100  0.25161200  1
  O  O10  1  0.26534700  0.73842800  0.35027800  1
  O  O11  1  0.26932100  0.25146000  0.45203800  1
  O  O12  1  0.72753600  0.26027900  0.25168500  1
  O  O13  1  0.73271300  0.74677800  0.15062600  1
  O  O14  1  0.73391800  0.27011700  0.35033200  1
  O  O15  1  0.72802800  0.75506700  0.25488300  1
  O  O16  1  0.26607100  0.24975400  0.54761800  1
  O  O17  1  0.26672400  0.71670100  0.45319500  1
  O  O18  1  0.26902200  0.74125000  0.55132800  1
  O  O19  1  0.26771800  0.27059900  0.64754800  1
  O  O20  1  0.72205500  0.25386300  0.45374800  1
  O  O21  1  0.73449400  0.74003200  0.35138300  1
  O  O22  1  0.72779300  0.27141600  0.55281200  1
  O  O23  1  0.73118400  0.74592700  0.45475100  1
  O  O24  1  0.27044600  0.27079400  0.74425900  1
  O  O25  1  0.27228600  0.72936000  0.65066800  1
  O  O26  1  0.27173600  0.72639200  0.74947600  1
  O  O27  1  0.27112300  0.27130100  0.84540600  1
  O  O28  1  0.72981200  0.27544400  0.64997000  1
  O  O29  1  0.72621700  0.74152500  0.55182600  1
  O  O30  1  0.72680600  0.27172200  0.74912300  1
  O  O31  1  0.73035700  0.73236300  0.65494400  1
  O  O32  1  0.26470000  0.26413700  0.94243600  1
  O  O33  1  0.27728300  0.73523900  0.84691900  1
  O  O34  1  0.26516400  0.72971800  0.94856100  1
  O  O35  1  0.73410800  0.27851700  0.84654000  1
  O  O36  1  0.73359200  0.73428800  0.75145600  1
  O  O37  1  0.74234700  0.74455000  0.85319900  1
  O  O38  1  0.73293400  0.26593900  0.94731200  1
  O  O39  1  0.73898600  0.73457200  0.95067200  1
loop_
_geom_bond_atom_site_label_1
_geom_bond_atom_site_label_2
_geom_bond_distance
_geom_bond_site_symmetry_2
Fe0 O1 2.012103 1_556
Fe0 O0 2.012621 1_556
Fe0 O39 2.047360 1_555
Fe0 O5 2.066371 1_556
Fe0 O34 2.077664 1_555
Fe0 O38 2.091937 1_555
Fe1 O1 1.992829 1_555
Fe1 O2 2.005647 1_555
Fe1 O5 2.041129 1_555
Fe1 O7 2.059552 1_555
Fe1 O6 2.081840 1_555
Fe1 O3 2.102416 1_555
Fe2 O0 1.993147 1_555
Fe2 O2 1.999923 1_555
Fe2 O5 2.036178 1_555
Fe2 O7 2.059438 1_545
Fe2 O13 2.082668 1_545
Fe2 O3 2.107292 1_545
Fe3 O4 1.999627 1_555
Fe3 O9 2.018587 1_555
Fe3 O12 2.047708 1_555
Fe3 O6 2.048151 1_555
Fe3 O13 2.075938 1_555
Fe3 O3 2.087655 1_555
Fe4 O9 1.984541 1_555
Fe4 O12 2.010469 1_555
Fe4 O8 2.026688 1_555
Fe4 O15 2.075525 1_555
Fe4 O14 2.087250 1_555
Fe4 O10 2.100812 1_555
Fe5 O13 1.919908 1_555
Fe5 O6 1.920548 1_565
Fe5 O15 1.953858 1_555
Fe5 O3 1.969166 1_655
Fe6 O8 1.963741 1_555
Fe6 O15 1.999815 1_545
Fe6 O4 2.017513 1_555
Fe6 O12 2.076244 1_555
Fe6 O21 2.102048 1_545
Fe6 O10 2.137033 1_545
Fe7 O17 2.022471 1_555
Fe7 O11 2.033797 1_555
Fe7 O14 2.049025 1_555
Fe7 O21 2.050282 1_555
Fe7 O10 2.060269 1_555
Fe7 O20 2.078523 1_555
Fe8 O19 1.909203 1_555
Fe8 O16 1.926537 1_555
Fe8 O25 1.956833 1_545
Fe8 O28 1.962400 1_455
Fe9 O17 1.991404 1_555
Fe9 O20 2.032790 1_555
Fe9 O23 2.054524 1_555
Fe9 O16 2.059638 1_555
Fe9 O22 2.087167 1_555
Fe9 O18 2.098894 1_555
Fe10 O21 1.920368 1_555
Fe10 O14 1.920982 1_565
Fe10 O10 1.950797 1_655
Fe10 O23 1.953744 1_555
Fe11 O11 1.987314 1_555
Fe11 O20 2.039596 1_555
Fe11 O23 2.046158 1_545
Fe11 O16 2.053161 1_555
Fe11 O29 2.076432 1_545
Fe11 O18 2.096501 1_545
Fe12 O19 1.977194 1_555
Fe12 O29 2.000882 1_555
Fe12 O25 2.002177 1_555
Fe12 O22 2.007573 1_555
Fe12 O28 2.008469 1_555
Fe12 O18 2.042975 1_555
Fe13 O27 1.897480 1_555
Fe13 O24 1.929843 1_555
Fe13 O33 1.962283 1_545
Fe13 O35 1.964630 1_455
Fe14 O24 1.954512 1_555
Fe14 O31 1.988149 1_555
Fe14 O26 1.994764 1_555
Fe14 O30 1.997384 1_555
Fe14 O28 2.021519 1_555
Fe14 O25 2.024110 1_555
Fe15 O31 1.890972 1_555
Fe15 O29 1.945066 1_555
Fe15 O22 1.957360 1_565
Fe15 O18 2.005545 1_655
Fe16 O27 1.966290 1_555
Fe16 O36 1.992536 1_555
Fe16 O35 2.004183 1_555
Fe16 O33 2.009560 1_555
Fe16 O26 2.022056 1_555
Fe16 O30 2.024036 1_555
Fe17 O32 2.004623 1_555
Fe17 O38 2.029560 1_555
Fe17 O34 2.035326 1_555
Fe17 O35 2.036451 1_555
Fe17 O33 2.038798 1_555
Fe17 O37 2.098087 1_555
Fe18 O37 1.879755 1_555
Fe18 O36 1.922976 1_555
Fe18 O30 1.985994 1_565
Fe18 O26 1.987862 1_655
Fe19 O39 1.894843 1_555
Fe19 O7 1.944017 1_556
Fe19 O38 1.946782 1_565
Fe19 O34 1.954057 1_655
O0 Zn0 1.982549 1_555
O0 Zn3 2.093106 1_555
O1 Zn0 1.986283 1_565
O1 Zn3 2.095044 1_555
O2 Zn1 1.966895 1_555
O2 Zn3 2.098087 1_555
O4 Zn1 1.969913 1_555
O4 Zn4 2.060675 1_555
O5 Zn0 2.022386 1_655
O6 Zn3 2.133521 1_655
O7 Zn3 2.097498 1_655
O8 Zn2 1.970858 1_555
O8 Zn4 2.118467 1_555
O9 Zn1 1.979601 1_565
O9 Zn4 2.092289 1_555
O11 Zn2 1.994529 1_555
O11 Zn6 2.075541 1_455
O12 Zn1 1.993586 1_655
O13 Zn3 2.124437 1_655
O14 Zn4 2.137488 1_655
O15 Zn4 2.116239 1_655
O16 Zn6 2.137804 1_455
O17 Zn2 1.983396 1_565
O17 Zn6 2.087940 1_455
O19 Zn7 2.099664 1_455
O19 Zn5 2.116910 1_545
O20 Zn2 2.025053 1_655
O21 Zn4 2.120952 1_655
O22 Zn6 2.132954 1_555
O23 Zn6 2.108120 1_555
O24 Zn5 2.071134 1_545
O24 Zn7 2.080454 1_455
O25 Zn7 2.169667 1_455
O26 Zn5 2.137682 1_555
O27 Zn9 2.115054 1_555
O27 Zn8 2.131452 1_555
O28 Zn5 2.179439 1_545
O29 Zn6 2.118364 1_555
O30 Zn7 2.129605 1_555
O31 Zn5 2.109755 1_555
O31 Zn7 2.121210 1_555
O32 Zn0 1.960570 1_556
O32 Zn8 2.012538 1_555
O32 Zn9 2.022004 1_555
O33 Zn9 2.193737 1_555
O34 Zn8 2.157743 1_565
O35 Zn8 2.204130 1_555
O36 Zn7 2.071461 1_555
O36 Zn5 2.077426 1_555
O37 Zn8 2.079788 1_565
O37 Zn9 2.095319 1_655
O38 Zn9 2.149748 1_655
O39 Zn9 2.082206 1_655
O39 Zn8 2.100164 1_565
