# generated using pymatgen
data_V4CrCoO12
_symmetry_space_group_name_H-M   'P 1'
_cell_length_a   6.75527080
_cell_length_b   6.75527080
_cell_length_c   5.81198409
_cell_angle_alpha   75.27768360
_cell_angle_beta   75.27768360
_cell_angle_gamma   84.48882039
_symmetry_Int_Tables_number   1
_chemical_formula_structural   V4CrCoO12
_chemical_formula_sum   'V4 Cr1 Co1 O12'
_cell_volume   247.95270395
_cell_formula_units_Z   1
loop_
 _symmetry_equiv_pos_site_id
 _symmetry_equiv_pos_as_xyz
  1  'x, y, z'
loop_
 _atom_site_type_symbol
 _atom_site_label
 _atom_site_symmetry_multiplicity
 _atom_site_fract_x
 _atom_site_fract_y
 _atom_site_fract_z
 _atom_site_occupancy
  V  V0  1  0.79330600  0.60764900  0.01570700  1
  V  V1  1  0.61036600  0.79991100  0.50686400  1
  V  V2  1  0.39235100  0.20669400  0.98429300  1
  V  V3  1  0.20008900  0.38963400  0.49313600  1
  Cr  Cr0  1  0.91654400  0.08345600  0.00000000  1
  Co  Co0  1  0.08482100  0.91517900  0.50000000  1
  O  O0  1  0.96388700  0.80701400  0.90416600  1
  O  O1  1  0.91049300  0.36952900  0.03701500  1
  O  O2  1  0.81234000  0.97151900  0.36991700  1
  O  O3  1  0.63551100  0.64673800  0.80698400  1
  O  O4  1  0.63047100  0.08950700  0.96298500  1
  O  O5  1  0.63860600  0.62715900  0.30531100  1
  O  O6  1  0.35326200  0.36448900  0.19301600  1
  O  O7  1  0.37363300  0.90998600  0.53285600  1
  O  O8  1  0.37284100  0.36139400  0.69468900  1
  O  O9  1  0.19298600  0.03611300  0.09583400  1
  O  O10  1  0.09001400  0.62636700  0.46714400  1
  O  O11  1  0.02848100  0.18766000  0.63008300  1
loop_
_geom_bond_atom_site_label_1
_geom_bond_atom_site_label_2
_geom_bond_distance
_geom_bond_site_symmetry_2
Cr0 O4 1.993534 1_554
Cr0 O1 1.993534 1_555
Cr0 O2 2.048490 1_545
Cr0 O11 2.048490 1_654
Cr0 O0 2.055058 1_544
Cr0 O9 2.055058 1_655
Co0 O10 2.004225 1_555
Co0 O7 2.004225 1_555
Co0 O2 2.128631 1_455
Co0 O11 2.128631 1_565
Co0 O0 2.232942 1_455
Co0 O9 2.232942 1_565
O0 V0 1.742562 1_556
O1 V0 1.712741 1_555
O2 V1 1.766867 1_555
O3 V0 1.765767 1_556
O3 V1 1.827989 1_555
O4 V2 1.712741 1_555
O5 V0 1.770540 1_555
O5 V1 1.819054 1_555
O6 V2 1.765767 1_554
O6 V3 1.827989 1_555
O7 V1 1.684952 1_555
O8 V2 1.770540 1_555
O8 V3 1.819054 1_555
O9 V2 1.742562 1_554
O10 V3 1.684952 1_555
O11 V3 1.766867 1_555
