# generated using pymatgen
data_KAl2NiP3(H2O7)2
_symmetry_space_group_name_H-M   'P 1'
_cell_length_a   8.33840006
_cell_length_b   8.33840006
_cell_length_c   8.77404285
_cell_angle_alpha   75.88033809
_cell_angle_beta   75.88033809
_cell_angle_gamma   75.48648542
_symmetry_Int_Tables_number   1
_chemical_formula_structural   KAl2NiP3(H2O7)2
_chemical_formula_sum   'K2 Al4 Ni2 P6 H8 O28'
_cell_volume   561.77661542
_cell_formula_units_Z   2
loop_
 _symmetry_equiv_pos_site_id
 _symmetry_equiv_pos_as_xyz
  1  'x, y, z'
loop_
 _atom_site_type_symbol
 _atom_site_label
 _atom_site_symmetry_multiplicity
 _atom_site_fract_x
 _atom_site_fract_y
 _atom_site_fract_z
 _atom_site_occupancy
  K  K0  1  0.13477500  0.86522500  0.25000000  1
  K  K1  1  0.86522500  0.13477500  0.75000000  1
  Al  Al0  1  0.59494100  0.74936100  0.92684100  1
  Al  Al1  1  0.25063900  0.40505900  0.57315900  1
  Al  Al2  1  0.40505900  0.25063900  0.07315900  1
  Al  Al3  1  0.74936100  0.59494100  0.42684100  1
  Ni  Ni0  1  0.22609300  0.77390700  0.75000000  1
  Ni  Ni1  1  0.77390700  0.22609300  0.25000000  1
  P  P0  1  0.33195500  0.08173000  0.82640500  1
  P  P1  1  0.91827000  0.66804500  0.67359500  1
  P  P2  1  0.66804500  0.91827000  0.17359500  1
  P  P3  1  0.08173000  0.33195500  0.32640500  1
  P  P4  1  0.49809800  0.50190200  0.75000000  1
  P  P5  1  0.50190200  0.49809800  0.25000000  1
  H  H0  1  0.42715200  0.87158200  0.45859600  1
  H  H1  1  0.12841800  0.57284800  0.04140400  1
  H  H2  1  0.57284800  0.12841800  0.54140400  1
  H  H3  1  0.87158200  0.42715200  0.95859600  1
  H  H4  1  0.28134400  0.02041700  0.52033100  1
  H  H5  1  0.97958300  0.71865600  0.97966900  1
  H  H6  1  0.71865600  0.97958300  0.47966900  1
  H  H7  1  0.02041700  0.28134400  0.02033100  1
  O  O0  1  0.00319400  0.80804100  0.67932200  1
  O  O1  1  0.19195900  0.99680600  0.82067800  1
  O  O2  1  0.99680600  0.19195900  0.32067800  1
  O  O3  1  0.80804100  0.00319400  0.17932200  1
  O  O4  1  0.30932300  0.89933500  0.51647400  1
  O  O5  1  0.10066500  0.69067700  0.98352600  1
  O  O6  1  0.69067700  0.10066500  0.48352600  1
  O  O7  1  0.89933500  0.30932300  0.01647400  1
  O  O8  1  0.47319600  0.67093400  0.80678500  1
  O  O9  1  0.32906600  0.52680400  0.69321500  1
  O  O10  1  0.52680400  0.32906600  0.19321500  1
  O  O11  1  0.67093400  0.47319600  0.30678500  1
  O  O12  1  0.52440600  0.34890700  0.88708100  1
  O  O13  1  0.65109300  0.47559400  0.61291900  1
  O  O14  1  0.47559400  0.65109300  0.11291900  1
  O  O15  1  0.34890700  0.52440600  0.38708100  1
  O  O16  1  0.78960200  0.62596600  0.83376600  1
  O  O17  1  0.37403400  0.21039800  0.66623400  1
  O  O18  1  0.21039800  0.37403400  0.16623400  1
  O  O19  1  0.62596600  0.78960200  0.33376600  1
  O  O20  1  0.72746300  0.82483200  0.03069800  1
  O  O21  1  0.17516800  0.27253700  0.46930200  1
  O  O22  1  0.27253700  0.17516800  0.96930200  1
  O  O23  1  0.82483200  0.72746300  0.53069800  1
  O  O24  1  0.50352700  0.95957400  0.84105100  1
  O  O25  1  0.04042600  0.49647300  0.65894900  1
  O  O26  1  0.49647300  0.04042600  0.15894900  1
  O  O27  1  0.95957400  0.50352700  0.34105100  1
loop_
_geom_bond_atom_site_label_1
_geom_bond_atom_site_label_2
_geom_bond_distance
_geom_bond_site_symmetry_2
K0 O3 2.834767 1_465
K0 O2 2.834767 1_465
K0 O15 3.089954 1_555
K0 O14 3.089954 1_555
K0 O4 3.139735 1_555
K0 O5 3.139735 1_554
K0 O23 3.326660 1_455
K0 O22 3.326660 1_564
K1 O0 2.834767 1_645
K1 O1 2.834767 1_645
K1 O13 3.089954 1_555
K1 O12 3.089954 1_555
K1 O7 3.139735 1_556
K1 O6 3.139735 1_555
K1 O20 3.326660 1_546
K1 O21 3.326660 1_655
Al0 O24 1.785103 1_555
Al0 O16 1.812838 1_555
Al0 O14 1.814007 1_556
Al0 O20 1.888673 1_556
Al0 O8 1.938652 1_555
Al1 O25 1.785103 1_555
Al1 O17 1.812838 1_555
Al1 O15 1.814007 1_555
Al1 O21 1.888673 1_555
Al1 O9 1.938652 1_555
Al2 O26 1.785103 1_555
Al2 O18 1.812838 1_555
Al2 O12 1.814007 1_554
Al2 O22 1.888673 1_554
Al2 O10 1.938652 1_555
Al3 O27 1.785103 1_555
Al3 O19 1.812838 1_555
Al3 O13 1.814007 1_555
Al3 O23 1.888673 1_555
Al3 O11 1.938652 1_555
Ni0 O1 2.032517 1_555
Ni0 O0 2.032517 1_555
Ni0 O5 2.097196 1_555
Ni0 O4 2.097196 1_555
Ni0 O8 2.153212 1_555
Ni0 O9 2.153212 1_555
Ni1 O2 2.032517 1_555
Ni1 O3 2.032517 1_555
Ni1 O6 2.097196 1_555
Ni1 O7 2.097196 1_555
Ni1 O11 2.153212 1_555
Ni1 O10 2.153212 1_555
H0 O4 0.988282 1_555
H1 O5 0.988282 1_554
H2 O6 0.988282 1_555
H3 O7 0.988282 1_556
H4 O4 0.984726 1_545
H5 O5 0.984726 1_655
H6 O6 0.984726 1_565
H7 O7 0.984726 1_455
O0 P1 1.525439 1_455
O1 P0 1.525439 1_565
O2 P3 1.525439 1_655
O3 P2 1.525439 1_545
O8 P4 1.556720 1_555
O9 P4 1.556720 1_555
O10 P5 1.556720 1_555
O11 P5 1.556720 1_555
O12 P4 1.536904 1_555
O13 P4 1.536904 1_555
O14 P5 1.536904 1_555
O15 P5 1.536904 1_555
O16 P1 1.568967 1_555
O17 P0 1.568967 1_555
O18 P3 1.568967 1_555
O19 P2 1.568967 1_555
O20 P2 1.550654 1_555
O21 P3 1.550654 1_555
O22 P0 1.550654 1_555
O23 P1 1.550654 1_555
O24 P0 1.547966 1_565
O25 P1 1.547966 1_455
O26 P2 1.547966 1_545
O27 P3 1.547966 1_655
