# generated using pymatgen
data_SrBi5O9
_symmetry_space_group_name_H-M   'P 1'
_cell_length_a   3.90348900
_cell_length_b   7.00828380
_cell_length_c   10.70225432
_cell_angle_alpha   97.10007326
_cell_angle_beta   99.68495469
_cell_angle_gamma   89.86727984
_symmetry_Int_Tables_number   1
_chemical_formula_structural   SrBi5O9
_chemical_formula_sum   'Sr1 Bi5 O9'
_cell_volume   286.34201507
_cell_formula_units_Z   1
loop_
 _symmetry_equiv_pos_site_id
 _symmetry_equiv_pos_as_xyz
  1  'x, y, z'
loop_
 _atom_site_type_symbol
 _atom_site_label
 _atom_site_symmetry_multiplicity
 _atom_site_fract_x
 _atom_site_fract_y
 _atom_site_fract_z
 _atom_site_occupancy
  Sr  Sr0  1  0.00702000  0.99735200  0.00786600  1
  Bi  Bi0  1  0.65057200  0.89356900  0.31422300  1
  Bi  Bi1  1  0.85743400  0.61319700  0.69603000  1
  Bi  Bi2  1  0.49408300  0.49381800  0.97679200  1
  Bi  Bi3  1  0.36843100  0.12531600  0.69461500  1
  Bi  Bi4  1  0.14464600  0.39297400  0.29808700  1
  O  O0  1  0.83143000  0.15986300  0.61356300  1
  O  O1  1  0.55777900  0.84562600  0.11540900  1
  O  O2  1  0.96111600  0.65243300  0.89945800  1
  O  O3  1  0.64464400  0.22379100  0.29517000  1
  O  O4  1  0.39566800  0.45030700  0.75051200  1
  O  O5  1  0.37396000  0.81611400  0.70089100  1
  O  O6  1  0.05140000  0.36584700  0.09787000  1
  O  O7  1  0.15466600  0.72458500  0.32478100  1
  O  O8  1  0.45617800  0.15707700  0.89943400  1
loop_
_geom_bond_atom_site_label_1
_geom_bond_atom_site_label_2
_geom_bond_distance
_geom_bond_site_symmetry_2
Bi0 O1 2.082298 1_555
Bi0 O7 2.287952 1_655
Bi0 O7 2.297778 1_555
Bi0 O3 2.347951 1_565
Bi1 O2 2.129647 1_555
Bi1 O4 2.328065 1_555
Bi1 O5 2.364116 1_555
Bi1 O4 2.408029 1_655
Bi1 O5 2.459686 1_655
Bi2 O4 2.368586 1_555
Bi2 O8 2.398794 1_555
Bi2 O2 2.426164 1_455
Bi2 O2 2.447189 1_555
Bi2 O6 2.552909 1_556
Bi2 O6 2.558506 1_656
Bi2 O1 2.704848 1_556
Bi3 O8 2.144518 1_555
Bi3 O0 2.154718 1_455
Bi3 O0 2.158442 1_555
Bi3 O5 2.176244 1_545
Bi3 O4 2.280278 1_555
Bi4 O6 2.096975 1_555
Bi4 O3 2.279742 1_455
Bi4 O3 2.284015 1_555
Bi4 O7 2.305811 1_555
O1 Sr0 2.553583 1_655
O1 Sr0 2.556713 1_555
O2 Sr0 2.541701 1_656
O6 Sr0 2.637846 1_545
O8 Sr0 2.586219 1_546
O8 Sr0 2.587188 1_646
