# generated using pymatgen
data_SrH6C2S2N2O3
_symmetry_space_group_name_H-M   'P 1'
_cell_length_a   7.16382100
_cell_length_b   9.54118500
_cell_length_c   15.96400306
_cell_angle_alpha   57.65764609
_cell_angle_beta   90.00000000
_cell_angle_gamma   90.00000000
_symmetry_Int_Tables_number   1
_chemical_formula_structural   SrH6C2S2N2O3
_chemical_formula_sum   'Sr4 H24 C8 S8 N8 O12'
_cell_volume   921.88550554
_cell_formula_units_Z   4
loop_
 _symmetry_equiv_pos_site_id
 _symmetry_equiv_pos_as_xyz
  1  'x, y, z'
loop_
 _atom_site_type_symbol
 _atom_site_label
 _atom_site_symmetry_multiplicity
 _atom_site_fract_x
 _atom_site_fract_y
 _atom_site_fract_z
 _atom_site_occupancy
  Sr  Sr0  1  0.75305300  0.65716200  0.45149300  1
  Sr  Sr1  1  0.74694700  0.65716200  0.95149300  1
  Sr  Sr2  1  0.24694700  0.34283800  0.54850700  1
  Sr  Sr3  1  0.25305300  0.34283800  0.04850700  1
  H  H0  1  0.99037100  0.67795200  0.26981200  1
  H  H1  1  0.50962900  0.67795200  0.76981200  1
  H  H2  1  0.00962900  0.32204800  0.73018800  1
  H  H3  1  0.49037100  0.32204800  0.23018800  1
  H  H4  1  0.81651700  0.56145500  0.29593800  1
  H  H5  1  0.68348300  0.56145500  0.79593800  1
  H  H6  1  0.18348300  0.43854500  0.70406200  1
  H  H7  1  0.31651700  0.43854500  0.20406200  1
  H  H8  1  0.78666100  0.04982800  0.30782200  1
  H  H9  1  0.71333900  0.04982800  0.80782200  1
  H  H10  1  0.21333900  0.95017200  0.69217800  1
  H  H11  1  0.28666100  0.95017200  0.19217800  1
  H  H12  1  0.81916300  0.97666400  0.24073500  1
  H  H13  1  0.68083700  0.97666400  0.74073500  1
  H  H14  1  0.18083700  0.02333600  0.75926500  1
  H  H15  1  0.31916300  0.02333600  0.25926500  1
  H  H16  1  0.93501600  0.76361100  0.59234900  1
  H  H17  1  0.56498400  0.76361100  0.09234900  1
  H  H18  1  0.06498400  0.23638900  0.40765100  1
  H  H19  1  0.43501600  0.23638900  0.90765100  1
  H  H20  1  0.73600700  0.84284300  0.57471100  1
  H  H21  1  0.76399300  0.84284300  0.07471100  1
  H  H22  1  0.26399300  0.15715700  0.42528900  1
  H  H23  1  0.23600700  0.15715700  0.92528900  1
  C  C0  1  0.39630600  0.61331800  0.30708600  1
  C  C1  1  0.10369400  0.61331800  0.80708600  1
  C  C2  1  0.60369400  0.38668200  0.69291400  1
  C  C3  1  0.89630600  0.38668200  0.19291400  1
  C  C4  1  0.23790400  0.76141200  0.45707100  1
  C  C5  1  0.26209600  0.76141200  0.95707100  1
  C  C6  1  0.76209600  0.23858800  0.54292900  1
  C  C7  1  0.73790400  0.23858800  0.04292900  1
  S  S0  1  0.29338100  0.69637300  0.19926400  1
  S  S1  1  0.20661900  0.69637300  0.69926400  1
  S  S2  1  0.70661900  0.30362700  0.80073600  1
  S  S3  1  0.79338100  0.30362700  0.30073600  1
  S  S4  1  0.39909200  0.89719300  0.43489400  1
  S  S5  1  0.10090800  0.89719300  0.93489400  1
  S  S6  1  0.60090800  0.10280700  0.56510600  1
  S  S7  1  0.89909200  0.10280700  0.06510600  1
  N  N0  1  0.46766900  0.55368500  0.38641200  1
  N  N1  1  0.03233100  0.55368500  0.88641200  1
  N  N2  1  0.53233100  0.44631500  0.61358800  1
  N  N3  1  0.96766900  0.44631500  0.11358800  1
  N  N4  1  0.12219400  0.65999700  0.47335500  1
  N  N5  1  0.37780600  0.65999700  0.97335500  1
  N  N6  1  0.87780600  0.34000300  0.52664500  1
  N  N7  1  0.62219400  0.34000300  0.02664500  1
  O  O0  1  0.86472900  0.65497500  0.29909900  1
  O  O1  1  0.63527100  0.65497500  0.79909900  1
  O  O2  1  0.13527100  0.34502500  0.70090100  1
  O  O3  1  0.36472900  0.34502500  0.20090100  1
  O  O4  1  0.81422900  0.94722500  0.30984100  1
  O  O5  1  0.68577100  0.94722500  0.80984100  1
  O  O6  1  0.18577100  0.05277500  0.69015900  1
  O  O7  1  0.31422900  0.05277500  0.19015900  1
  O  O8  1  0.81612100  0.77821800  0.55795800  1
  O  O9  1  0.68387900  0.77821800  0.05795800  1
  O  O10  1  0.18387900  0.22178200  0.44204200  1
  O  O11  1  0.31612100  0.22178200  0.94204200  1
loop_
_geom_bond_atom_site_label_1
_geom_bond_atom_site_label_2
_geom_bond_distance
_geom_bond_site_symmetry_2
H0 O0 0.983424 1_555
H1 O1 0.983424 1_555
H2 O2 0.983424 1_555
H3 O3 0.983424 1_555
H4 O0 0.982953 1_555
H5 O1 0.982953 1_555
H6 O2 0.982953 1_555
H7 O3 0.982953 1_555
H8 O4 0.982157 1_545
H9 O5 0.982157 1_545
H10 O6 0.982157 1_565
H11 O7 0.982157 1_565
H12 O4 0.982682 1_555
H13 O5 0.982682 1_555
H14 O6 0.982682 1_555
H15 O7 0.982682 1_555
H16 O8 0.982060 1_555
H17 O9 0.982060 1_555
H18 O10 0.982060 1_555
H19 O11 0.982060 1_555
H20 O8 0.978545 1_555
H21 O9 0.978545 1_555
H22 O10 0.978545 1_555
H23 O11 0.978545 1_555
C0 N0 1.190726 1_555
C0 S0 1.635536 1_555
C1 N1 1.190726 1_555
C1 S1 1.635536 1_555
C2 N2 1.190726 1_555
C2 S2 1.635536 1_555
C3 N3 1.190726 1_555
C3 S3 1.635536 1_555
C4 N4 1.192412 1_555
C4 S4 1.626756 1_555
C5 N5 1.192412 1_555
C5 S5 1.626756 1_555
C6 N6 1.192412 1_555
C6 S6 1.626756 1_555
C7 N7 1.192412 1_555
C7 S7 1.626756 1_555
S4 Sr0 3.331016 1_555
S5 Sr1 3.331016 1_455
S6 Sr2 3.331016 1_555
S7 Sr3 3.331016 1_655
N0 Sr0 2.707658 1_555
N0 Sr2 2.770112 1_555
N1 Sr1 2.707658 1_455
N1 Sr3 2.770112 1_556
N2 Sr2 2.707658 1_555
N2 Sr0 2.770112 1_555
N3 Sr3 2.707658 1_655
N3 Sr1 2.770112 1_554
N4 Sr0 2.669421 1_455
N4 Sr2 2.740575 1_555
N5 Sr1 2.669421 1_555
N5 Sr3 2.740575 1_556
N6 Sr2 2.669421 1_655
N6 Sr0 2.740575 1_555
N7 Sr3 2.669421 1_555
N7 Sr1 2.740575 1_554
O0 Sr0 2.571653 1_555
O1 Sr1 2.571653 1_555
O2 Sr2 2.571653 1_555
O3 Sr3 2.571653 1_555
O4 Sr0 2.503769 1_555
O5 Sr1 2.503769 1_555
O6 Sr2 2.503769 1_555
O7 Sr3 2.503769 1_555
O8 Sr0 2.554851 1_555
O9 Sr1 2.554851 1_554
O10 Sr2 2.554851 1_555
O11 Sr3 2.554851 1_556
