# generated using pymatgen
data_LiSiBiO4
_symmetry_space_group_name_H-M   'P 1'
_cell_length_a   10.11593192
_cell_length_b   10.11593192
_cell_length_c   8.21303100
_cell_angle_alpha   90.00000000
_cell_angle_beta   90.00000000
_cell_angle_gamma   119.99999946
_symmetry_Int_Tables_number   1
_chemical_formula_structural   LiSiBiO4
_chemical_formula_sum   'Li8 Si8 Bi8 O32'
_cell_volume   727.85671277
_cell_formula_units_Z   8
loop_
 _symmetry_equiv_pos_site_id
 _symmetry_equiv_pos_as_xyz
  1  'x, y, z'
loop_
 _atom_site_type_symbol
 _atom_site_label
 _atom_site_symmetry_multiplicity
 _atom_site_fract_x
 _atom_site_fract_y
 _atom_site_fract_z
 _atom_site_occupancy
  Li  Li0  1  0.23437400  0.91715100  0.69561500  1
  Li  Li1  1  0.08284900  0.31722300  0.69561500  1
  Li  Li2  1  0.33333300  0.66666700  0.21391000  1
  Li  Li3  1  0.31722300  0.23437400  0.19561500  1
  Li  Li4  1  0.68277700  0.76562600  0.69561500  1
  Li  Li5  1  0.66666700  0.33333300  0.71391000  1
  Li  Li6  1  0.91715100  0.68277700  0.19561500  1
  Li  Li7  1  0.76562600  0.08284900  0.19561500  1
  Si  Si0  1  0.22128100  0.90687100  0.32366600  1
  Si  Si1  1  0.09312900  0.31441000  0.32366600  1
  Si  Si2  1  0.33333300  0.66666700  0.75502900  1
  Si  Si3  1  0.31441000  0.22128100  0.82366600  1
  Si  Si4  1  0.68559000  0.77871900  0.32366600  1
  Si  Si5  1  0.66666700  0.33333300  0.25502900  1
  Si  Si6  1  0.90687100  0.68559000  0.82366600  1
  Si  Si7  1  0.77871900  0.09312900  0.82366600  1
  Bi  Bi0  1  0.02578200  0.49078500  0.97958400  1
  Bi  Bi1  1  0.46500200  0.97421800  0.97958400  1
  Bi  Bi2  1  0.00000000  0.00000000  0.04827800  1
  Bi  Bi3  1  0.00000000  0.00000000  0.54827800  1
  Bi  Bi4  1  0.49078500  0.46500200  0.47958400  1
  Bi  Bi5  1  0.50921500  0.53499800  0.97958400  1
  Bi  Bi6  1  0.53499800  0.02578200  0.47958400  1
  Bi  Bi7  1  0.97421800  0.50921500  0.47958400  1
  O  O0  1  0.06510800  0.74888200  0.36717100  1
  O  O1  1  0.01309300  0.83027200  0.70064900  1
  O  O2  1  0.29984400  0.01645300  0.48514100  1
  O  O3  1  0.98354700  0.28339100  0.48514100  1
  O  O4  1  0.12949100  0.48505400  0.25756000  1
  O  O5  1  0.15861700  0.54076400  0.69824200  1
  O  O6  1  0.35556200  0.87050900  0.25756000  1
  O  O7  1  0.38214700  0.84138300  0.69824200  1
  O  O8  1  0.33333300  0.66666700  0.95979000  1
  O  O9  1  0.25111800  0.31622600  0.36717100  1
  O  O10  1  0.16972800  0.18282100  0.70064900  1
  O  O11  1  0.51494600  0.64443800  0.25756000  1
  O  O12  1  0.45923600  0.61785300  0.69824200  1
  O  O13  1  0.28339100  0.29984400  0.98514100  1
  O  O14  1  0.81717900  0.98690700  0.70064900  1
  O  O15  1  0.68377400  0.93489200  0.36717100  1
  O  O16  1  0.18282100  0.01309300  0.20064900  1
  O  O17  1  0.31622600  0.06510800  0.86717100  1
  O  O18  1  0.71660900  0.70015600  0.48514100  1
  O  O19  1  0.48505400  0.35556200  0.75756000  1
  O  O20  1  0.54076400  0.38214700  0.19824200  1
  O  O21  1  0.83027200  0.81717900  0.20064900  1
  O  O22  1  0.74888200  0.68377400  0.86717100  1
  O  O23  1  0.66666700  0.33333300  0.45979000  1
  O  O24  1  0.64443800  0.12949100  0.75756000  1
  O  O25  1  0.61785300  0.15861700  0.19824200  1
  O  O26  1  0.87050900  0.51494600  0.75756000  1
  O  O27  1  0.84138300  0.45923600  0.19824200  1
  O  O28  1  0.01645300  0.71660900  0.98514100  1
  O  O29  1  0.70015600  0.98354700  0.98514100  1
  O  O30  1  0.93489200  0.25111800  0.86717100  1
  O  O31  1  0.98690700  0.16972800  0.20064900  1
loop_
_geom_bond_atom_site_label_1
_geom_bond_atom_site_label_2
_geom_bond_distance
_geom_bond_site_symmetry_2
Li0 O17 1.916180 1_565
Li0 O2 1.941798 1_565
Li0 O1 1.953849 1_555
Li0 O7 1.992060 1_555
Li1 O30 1.916180 1_455
Li1 O3 1.941798 1_455
Li1 O10 1.953849 1_555
Li1 O5 1.992060 1_555
Li2 O11 1.991848 1_555
Li2 O6 1.991848 1_555
Li2 O4 1.991848 1_555
Li2 O8 2.087095 1_554
Li3 O9 1.916180 1_555
Li3 O13 1.941798 1_554
Li3 O16 1.953849 1_555
Li3 O20 1.992060 1_555
Li4 O22 1.916180 1_555
Li4 O18 1.941798 1_555
Li4 O14 1.953849 1_555
Li4 O12 1.992060 1_555
Li5 O19 1.991848 1_555
Li5 O24 1.991848 1_555
Li5 O26 1.991848 1_555
Li5 O23 2.087095 1_555
Li6 O0 1.916180 1_655
Li6 O28 1.941798 1_654
Li6 O21 1.953849 1_555
Li6 O27 1.992060 1_555
Li7 O15 1.916180 1_545
Li7 O29 1.941798 1_544
Li7 O31 1.953849 1_555
Li7 O25 1.992060 1_555
Bi0 O30 2.312273 1_455
Bi0 O28 2.333484 1_555
Bi0 O27 2.492225 1_456
Bi0 O26 2.497189 1_455
Bi0 O4 2.525278 1_556
Bi0 O5 2.592508 1_555
Bi0 O8 2.708496 1_555
Bi1 O17 2.312264 1_565
Bi1 O29 2.333494 1_555
Bi1 O25 2.492227 1_566
Bi1 O24 2.497197 1_565
Bi1 O6 2.525278 1_556
Bi1 O7 2.592508 1_555
Bi1 O8 2.708496 1_555
Bi2 O31 2.181505 1_455
Bi2 O16 2.181505 1_555
Bi2 O21 2.181505 1_445
Bi3 O1 2.181505 1_545
Bi3 O14 2.181505 1_445
Bi3 O10 2.181505 1_555
Bi4 O9 2.312272 1_555
Bi4 O18 2.333490 1_555
Bi4 O12 2.492232 1_555
Bi4 O11 2.497203 1_555
Bi4 O19 2.525278 1_555
Bi4 O20 2.592504 1_555
Bi4 O23 2.708496 1_555
Bi5 O22 2.312272 1_555
Bi5 O13 2.333490 1_555
Bi5 O20 2.492232 1_556
Bi5 O19 2.497203 1_555
Bi5 O11 2.525278 1_556
Bi5 O12 2.592504 1_555
Bi5 O8 2.708496 1_555
Bi6 O15 2.312264 1_545
Bi6 O2 2.333494 1_555
Bi6 O7 2.492227 1_545
Bi6 O6 2.497197 1_545
Bi6 O24 2.525278 1_555
Bi6 O25 2.592508 1_555
Bi6 O23 2.708496 1_555
Bi7 O0 2.312273 1_655
Bi7 O3 2.333484 1_555
Bi7 O5 2.492225 1_655
Bi7 O4 2.497189 1_655
Bi7 O26 2.525278 1_555
Bi7 O27 2.592508 1_555
Bi7 O23 2.708496 1_555
O0 Si0 1.628775 1_555
O1 Si6 1.656756 1_455
O2 Si0 1.654766 1_545
O3 Si1 1.654766 1_655
O4 Si1 1.665820 1_555
O5 Si2 1.646929 1_555
O6 Si0 1.665811 1_555
O7 Si2 1.646927 1_555
O8 Si2 1.681708 1_555
O9 Si1 1.628775 1_555
O10 Si3 1.656756 1_555
O11 Si4 1.665817 1_555
O12 Si2 1.646936 1_555
O13 Si3 1.654766 1_555
O14 Si7 1.656756 1_565
O15 Si4 1.628775 1_555
O16 Si0 1.656756 1_545
O17 Si3 1.628775 1_555
O18 Si4 1.654766 1_555
O19 Si3 1.665817 1_555
O20 Si5 1.646936 1_555
O21 Si4 1.656756 1_555
O22 Si6 1.628775 1_555
O23 Si5 1.681708 1_555
O24 Si7 1.665811 1_555
O25 Si5 1.646927 1_555
O26 Si6 1.665820 1_555
O27 Si5 1.646929 1_555
O28 Si6 1.654766 1_455
O29 Si7 1.654766 1_565
O30 Si7 1.628775 1_555
O31 Si1 1.656756 1_655
