# generated using pymatgen
data_NaTi4O8
_symmetry_space_group_name_H-M   'P 1'
_cell_length_a   11.31069200
_cell_length_b   5.93846500
_cell_length_c   11.35222180
_cell_angle_alpha   58.68129249
_cell_angle_beta   90.00000000
_cell_angle_gamma   90.00000000
_symmetry_Int_Tables_number   1
_chemical_formula_structural   NaTi4O8
_chemical_formula_sum   'Na4 Ti16 O32'
_cell_volume   651.40207826
_cell_formula_units_Z   4
loop_
 _symmetry_equiv_pos_site_id
 _symmetry_equiv_pos_as_xyz
  1  'x, y, z'
loop_
 _atom_site_type_symbol
 _atom_site_label
 _atom_site_symmetry_multiplicity
 _atom_site_fract_x
 _atom_site_fract_y
 _atom_site_fract_z
 _atom_site_occupancy
  Na  Na0  1  0.42640400  0.75050600  0.90141000  1
  Na  Na1  1  0.92640400  0.24949400  0.59859000  1
  Na  Na2  1  0.07359600  0.75050600  0.40141000  1
  Na  Na3  1  0.57359600  0.24949400  0.09859000  1
  Ti  Ti0  1  0.87528200  0.89379500  0.98387400  1
  Ti  Ti1  1  0.87673100  0.39346200  0.97884100  1
  Ti  Ti2  1  0.66975100  0.86825400  0.75675000  1
  Ti  Ti3  1  0.65444000  0.36086900  0.76458700  1
  Ti  Ti4  1  0.16975100  0.13174600  0.74325000  1
  Ti  Ti5  1  0.15444000  0.63913100  0.73541300  1
  Ti  Ti6  1  0.37673100  0.60653800  0.52115900  1
  Ti  Ti7  1  0.37528200  0.10620500  0.51612600  1
  Ti  Ti8  1  0.62326900  0.39346200  0.47884100  1
  Ti  Ti9  1  0.62471800  0.89379500  0.48387400  1
  Ti  Ti10  1  0.83024900  0.86825400  0.25675000  1
  Ti  Ti11  1  0.84556000  0.36086900  0.26458700  1
  Ti  Ti12  1  0.34556000  0.63913100  0.23541300  1
  Ti  Ti13  1  0.33024900  0.13174600  0.24325000  1
  Ti  Ti14  1  0.12326900  0.60653800  0.02115900  1
  Ti  Ti15  1  0.12471800  0.10620500  0.01612600  1
  O  O0  1  0.04172700  0.97205000  0.90211000  1
  O  O1  1  0.04133500  0.47344700  0.90104400  1
  O  O2  1  0.23059300  0.75595700  0.86746100  1
  O  O3  1  0.22949500  0.26168200  0.86440500  1
  O  O4  1  0.81249500  0.75756200  0.86961700  1
  O  O5  1  0.80588100  0.24931200  0.87322000  1
  O  O6  1  0.59053100  0.02464600  0.84584900  1
  O  O7  1  0.59174100  0.52975600  0.85349600  1
  O  O8  1  0.09053100  0.97535400  0.65415100  1
  O  O9  1  0.09174100  0.47024400  0.64650400  1
  O  O10  1  0.31249500  0.24243800  0.63038300  1
  O  O11  1  0.30588100  0.75068800  0.62678000  1
  O  O12  1  0.73059300  0.24404300  0.63253900  1
  O  O13  1  0.72949500  0.73831800  0.63559500  1
  O  O14  1  0.54172700  0.02795000  0.59789000  1
  O  O15  1  0.54133500  0.52655300  0.59895600  1
  O  O16  1  0.45866500  0.47344700  0.40104400  1
  O  O17  1  0.45827300  0.97205000  0.40211000  1
  O  O18  1  0.27050500  0.26168200  0.36440500  1
  O  O19  1  0.26940700  0.75595700  0.36746100  1
  O  O20  1  0.69411900  0.24931200  0.37322000  1
  O  O21  1  0.68750500  0.75756200  0.36961700  1
  O  O22  1  0.90825900  0.52975600  0.35349600  1
  O  O23  1  0.90946900  0.02464600  0.34584900  1
  O  O24  1  0.40825900  0.47024400  0.14650400  1
  O  O25  1  0.40946900  0.97535400  0.15415100  1
  O  O26  1  0.19411900  0.75068800  0.12678000  1
  O  O27  1  0.18750500  0.24243800  0.13038300  1
  O  O28  1  0.77050500  0.73831800  0.13559500  1
  O  O29  1  0.76940700  0.24404300  0.13253900  1
  O  O30  1  0.95866500  0.52655300  0.09895600  1
  O  O31  1  0.95827300  0.02795000  0.09789000  1
loop_
_geom_bond_atom_site_label_1
_geom_bond_atom_site_label_2
_geom_bond_distance
_geom_bond_site_symmetry_2
Na0 O2 2.245387 1_555
Na0 O6 2.329554 1_565
Na0 O24 2.395730 1_556
Na0 O7 2.500565 1_555
Na1 O12 2.245387 1_555
Na1 O8 2.329554 1_645
Na1 O22 2.395730 1_555
Na1 O9 2.500565 1_655
Na2 O19 2.245387 1_555
Na2 O23 2.329554 1_465
Na2 O9 2.395730 1_555
Na2 O22 2.500565 1_455
Na3 O29 2.245387 1_555
Na3 O25 2.329554 1_545
Na3 O7 2.395730 1_554
Na3 O24 2.500565 1_555
O0 Ti0 2.042867 1_455
O0 Ti15 2.064732 1_566
O0 Ti14 2.083001 1_556
O0 Ti4 2.114356 1_565
O1 Ti1 2.008915 1_455
O1 Ti5 2.053497 1_555
O1 Ti15 2.095331 1_556
O1 Ti14 2.112629 1_556
O2 Ti14 1.922440 1_556
O2 Ti4 2.042211 1_565
O2 Ti5 2.133425 1_555
O3 Ti15 1.889516 1_556
O3 Ti4 2.011713 1_555
O3 Ti5 2.115871 1_555
O4 Ti2 1.950622 1_555
O4 Ti0 1.982960 1_555
O4 Ti1 1.988283 1_555
O5 Ti1 1.969695 1_555
O5 Ti0 1.973410 1_545
O5 Ti3 2.011075 1_555
O6 Ti3 1.856149 1_555
O6 Ti2 1.914436 1_545
O7 Ti3 1.892051 1_555
O7 Ti2 1.931414 1_555
O8 Ti5 1.856149 1_555
O8 Ti4 1.914436 1_565
O9 Ti5 1.892051 1_555
O9 Ti4 1.931414 1_555
O10 Ti4 1.950622 1_555
O10 Ti7 1.982960 1_555
O10 Ti6 1.988283 1_555
O11 Ti6 1.969695 1_555
O11 Ti7 1.973410 1_565
O11 Ti5 2.011075 1_555
O12 Ti8 1.922440 1_555
O12 Ti2 2.042211 1_545
O12 Ti3 2.133425 1_555
O13 Ti9 1.889516 1_555
O13 Ti2 2.011713 1_555
O13 Ti3 2.115871 1_555
O14 Ti7 2.042867 1_555
O14 Ti9 2.064732 1_545
O14 Ti8 2.083001 1_555
O14 Ti2 2.114356 1_545
O15 Ti6 2.008915 1_555
O15 Ti3 2.053497 1_555
O15 Ti9 2.095331 1_555
O15 Ti8 2.112629 1_555
O16 Ti8 2.008915 1_555
O16 Ti12 2.053497 1_555
O16 Ti7 2.095331 1_555
O16 Ti6 2.112629 1_555
O17 Ti9 2.042867 1_555
O17 Ti7 2.064732 1_565
O17 Ti6 2.083001 1_555
O17 Ti13 2.114356 1_565
O18 Ti7 1.889516 1_555
O18 Ti13 2.011713 1_555
O18 Ti12 2.115871 1_555
O19 Ti6 1.922440 1_555
O19 Ti13 2.042211 1_565
O19 Ti12 2.133425 1_555
O20 Ti8 1.969695 1_555
O20 Ti9 1.973410 1_545
O20 Ti11 2.011075 1_555
O21 Ti10 1.950622 1_555
O21 Ti9 1.982960 1_555
O21 Ti8 1.988283 1_555
O22 Ti11 1.892051 1_555
O22 Ti10 1.931414 1_555
O23 Ti11 1.856149 1_555
O23 Ti10 1.914436 1_545
O24 Ti12 1.892051 1_555
O24 Ti13 1.931414 1_555
O25 Ti12 1.856149 1_555
O25 Ti13 1.914436 1_565
O26 Ti14 1.969695 1_555
O26 Ti15 1.973410 1_565
O26 Ti12 2.011075 1_555
O27 Ti13 1.950622 1_555
O27 Ti15 1.982960 1_555
O27 Ti14 1.988283 1_555
O28 Ti0 1.889516 1_554
O28 Ti10 2.011713 1_555
O28 Ti11 2.115871 1_555
O29 Ti1 1.922440 1_554
O29 Ti10 2.042211 1_545
O29 Ti11 2.133425 1_555
O30 Ti14 2.008915 1_655
O30 Ti11 2.053497 1_555
O30 Ti0 2.095331 1_554
O30 Ti1 2.112629 1_554
O31 Ti15 2.042867 1_655
O31 Ti0 2.064732 1_544
O31 Ti1 2.083001 1_554
O31 Ti10 2.114356 1_545
