# generated using pymatgen
data_YbSb2
_symmetry_space_group_name_H-M   'P 1'
_cell_length_a   4.31480098
_cell_length_b   4.29449961
_cell_length_c   8.83594408
_cell_angle_alpha   75.93555791
_cell_angle_beta   90.00000000
_cell_angle_gamma   90.00000000
_symmetry_Int_Tables_number   1
_chemical_formula_structural   YbSb2
_chemical_formula_sum   'Yb2 Sb4'
_cell_volume   158.82114920
_cell_formula_units_Z   2
loop_
 _symmetry_equiv_pos_site_id
 _symmetry_equiv_pos_as_xyz
  1  'x, y, z'
loop_
 _atom_site_type_symbol
 _atom_site_label
 _atom_site_symmetry_multiplicity
 _atom_site_fract_x
 _atom_site_fract_y
 _atom_site_fract_z
 _atom_site_occupancy
  Yb  Yb0  1  0.75000000  0.89028367  0.21943265  1
  Yb  Yb1  1  0.25000000  0.10971633  0.78056735  1
  Sb  Sb0  1  0.75000000  0.56869743  0.86260514  1
  Sb  Sb1  1  0.25000000  0.43130257  0.13739486  1
  Sb  Sb2  1  0.75000000  0.24936951  0.50126099  1
  Sb  Sb3  1  0.25000000  0.75063049  0.49873901  1
loop_
_geom_bond_atom_site_label_1
_geom_bond_atom_site_label_2
_geom_bond_distance
_geom_bond_site_symmetry_2
Sb0 Yb1 3.124017 1_665
Sb0 Yb1 3.124017 1_565
Sb0 Yb1 3.124017 1_655
Sb0 Yb1 3.124017 1_555
Sb0 Yb0 3.736904 1_546
Sb0 Yb0 3.736904 1_556
Sb1 Yb0 3.124017 1_445
Sb1 Yb0 3.124017 1_455
Sb1 Yb0 3.124017 1_545
Sb1 Yb0 3.124017 1_555
Sb1 Yb1 3.736904 1_564
Sb1 Yb1 3.736904 1_554
Sb2 Sb3 3.043933 1_655
Sb2 Sb3 3.043933 1_555
Sb2 Sb3 3.043933 1_645
Sb2 Sb3 3.043933 1_545
Sb2 Yb1 3.222638 1_555
Sb2 Yb1 3.222638 1_655
Sb2 Yb0 3.231975 1_555
Sb2 Yb0 3.231975 1_545
Sb3 Yb0 3.222638 1_455
Sb3 Yb0 3.222638 1_555
Sb3 Yb1 3.231975 1_555
Sb3 Yb1 3.231975 1_565
