# generated using pymatgen
data_LiNiPO4
_symmetry_space_group_name_H-M   'P 1'
_cell_length_a   4.68547500
_cell_length_b   10.30198100
_cell_length_c   6.15411200
_cell_angle_alpha   89.99937019
_cell_angle_beta   89.99996915
_cell_angle_gamma   89.99995330
_symmetry_Int_Tables_number   1
_chemical_formula_structural   LiNiPO4
_chemical_formula_sum   'Li4 Ni4 P4 O16'
_cell_volume   297.05698261
_cell_formula_units_Z   4
loop_
 _symmetry_equiv_pos_site_id
 _symmetry_equiv_pos_as_xyz
  1  'x, y, z'
loop_
 _atom_site_type_symbol
 _atom_site_label
 _atom_site_symmetry_multiplicity
 _atom_site_fract_x
 _atom_site_fract_y
 _atom_site_fract_z
 _atom_site_occupancy
  Li  Li0  1  0.48383300  0.21542800  0.74999700  1
  Li  Li1  1  0.98383300  0.28457300  0.25000300  1
  Li  Li2  1  0.01616700  0.71542700  0.74999700  1
  Li  Li3  1  0.51616700  0.78457300  0.25000300  1
  Ni  Ni0  1  0.00000000  0.00000000  0.50000000  1
  Ni  Ni1  1  0.50000100  0.50000000  0.50000000  1
  Ni  Ni2  1  0.00000000  0.00000000  0.00000000  1
  Ni  Ni3  1  0.50000000  0.50000000  0.00000000  1
  P  P0  1  0.41349000  0.09250200  0.24999400  1
  P  P1  1  0.91349000  0.40749700  0.75000500  1
  P  P2  1  0.08650900  0.59250200  0.24999400  1
  P  P3  1  0.58651100  0.90749800  0.75000600  1
  O  O0  1  0.72674900  0.04918500  0.75000400  1
  O  O1  1  0.22674900  0.45081500  0.24999700  1
  O  O2  1  0.77325100  0.54918500  0.75000300  1
  O  O3  1  0.27325100  0.95081500  0.24999600  1
  O  O4  1  0.74465600  0.08587800  0.24999600  1
  O  O5  1  0.24465700  0.41412200  0.75000400  1
  O  O6  1  0.75534400  0.58587800  0.24999600  1
  O  O7  1  0.25534300  0.91412200  0.75000400  1
  O  O8  1  0.28929700  0.15654100  0.04259700  1
  O  O9  1  0.28930000  0.15654100  0.45739000  1
  O  O10  1  0.78929900  0.34345800  0.54261000  1
  O  O11  1  0.78929700  0.34345900  0.95740400  1
  O  O12  1  0.21070300  0.65654100  0.04259600  1
  O  O13  1  0.21070100  0.65654100  0.45739000  1
  O  O14  1  0.71070000  0.84345900  0.54261000  1
  O  O15  1  0.71070300  0.84345900  0.95740300  1
loop_
_geom_bond_atom_site_label_1
_geom_bond_atom_site_label_2
_geom_bond_distance
_geom_bond_site_symmetry_2
Li0 O0 2.056344 1_555
Li0 O8 2.107444 1_556
Li0 O9 2.107487 1_555
Li0 O10 2.327447 1_555
Li0 O11 2.327532 1_555
Li0 O5 2.333630 1_555
Li1 O1 2.056337 1_655
Li1 O11 2.107436 1_554
Li1 O10 2.107482 1_555
Li1 O9 2.327461 1_655
Li1 O8 2.327532 1_655
Li1 O4 2.333643 1_555
Li2 O2 2.056337 1_455
Li2 O12 2.107436 1_556
Li2 O13 2.107484 1_555
Li2 O14 2.327461 1_455
Li2 O15 2.327532 1_455
Li2 O7 2.333641 1_555
Li3 O3 2.056336 1_555
Li3 O15 2.107441 1_554
Li3 O14 2.107484 1_555
Li3 O13 2.327459 1_555
Li3 O12 2.327537 1_555
Li3 O6 2.333642 1_555
Ni0 O3 2.064728 1_545
Ni0 O0 2.064728 1_455
Ni0 O9 2.122947 1_555
Ni0 O14 2.122947 1_445
Ni0 O7 2.140377 1_545
Ni0 O4 2.140380 1_455
Ni1 O2 2.064722 1_555
Ni1 O1 2.064728 1_555
Ni1 O13 2.122945 1_555
Ni1 O10 2.122947 1_555
Ni1 O6 2.140377 1_555
Ni1 O5 2.140379 1_555
Ni2 O3 2.064684 1_545
Ni2 O0 2.064684 1_454
Ni2 O8 2.122932 1_555
Ni2 O15 2.122932 1_444
Ni2 O7 2.140355 1_544
Ni2 O4 2.140357 1_455
Ni3 O2 2.064688 1_554
Ni3 O1 2.064688 1_555
Ni3 O12 2.122930 1_555
Ni3 O11 2.122930 1_554
Ni3 O5 2.140356 1_554
Ni3 O6 2.140359 1_555
O0 P3 1.600736 1_545
O1 P2 1.600739 1_555
O2 P1 1.600746 1_555
O3 P0 1.600738 1_565
O4 P0 1.553170 1_555
O5 P1 1.553175 1_455
O6 P2 1.553165 1_655
O7 P3 1.553179 1_555
O8 P0 1.550126 1_555
O9 P0 1.550127 1_555
O10 P1 1.550124 1_555
O11 P1 1.550131 1_555
O12 P2 1.550132 1_555
O13 P2 1.550131 1_555
O14 P3 1.550125 1_555
O15 P3 1.550124 1_555
