# generated using pymatgen
data_LiCr3O8
_symmetry_space_group_name_H-M   'P 1'
_cell_length_a   5.58265800
_cell_length_b   8.13674800
_cell_length_c   14.66766100
_cell_angle_alpha   90.00000000
_cell_angle_beta   90.00000000
_cell_angle_gamma   90.00000000
_symmetry_Int_Tables_number   1
_chemical_formula_structural   LiCr3O8
_chemical_formula_sum   'Li4 Cr12 O32'
_cell_volume   666.27382658
_cell_formula_units_Z   4
loop_
 _symmetry_equiv_pos_site_id
 _symmetry_equiv_pos_as_xyz
  1  'x, y, z'
loop_
 _atom_site_type_symbol
 _atom_site_label
 _atom_site_symmetry_multiplicity
 _atom_site_fract_x
 _atom_site_fract_y
 _atom_site_fract_z
 _atom_site_occupancy
  Li  Li0  1  0.25000000  0.49937200  0.28505600  1
  Li  Li1  1  0.75000000  0.99937200  0.21494400  1
  Li  Li2  1  0.25000000  0.00062800  0.78505600  1
  Li  Li3  1  0.75000000  0.50062800  0.71494400  1
  Cr  Cr0  1  0.75000000  0.23816800  0.05655200  1
  Cr  Cr1  1  0.75000000  0.64674100  0.08758600  1
  Cr  Cr2  1  0.25000000  0.03162200  0.12194900  1
  Cr  Cr3  1  0.75000000  0.53162200  0.37805100  1
  Cr  Cr4  1  0.25000000  0.14674100  0.41241400  1
  Cr  Cr5  1  0.25000000  0.73816800  0.44344800  1
  Cr  Cr6  1  0.75000000  0.26183200  0.55655200  1
  Cr  Cr7  1  0.75000000  0.85325900  0.58758600  1
  Cr  Cr8  1  0.25000000  0.46837800  0.62194900  1
  Cr  Cr9  1  0.75000000  0.96837800  0.87805100  1
  Cr  Cr10  1  0.25000000  0.35325900  0.91241400  1
  Cr  Cr11  1  0.25000000  0.76183200  0.94344800  1
  O  O0  1  0.25000000  0.97304700  0.01331500  1
  O  O1  1  0.99415900  0.68036600  0.02495200  1
  O  O2  1  0.50584100  0.68036600  0.02495200  1
  O  O3  1  0.75000000  0.45009400  0.12397100  1
  O  O4  1  0.50818900  0.13911500  0.14349400  1
  O  O5  1  0.99181100  0.13911500  0.14349400  1
  O  O6  1  0.75000000  0.76632000  0.17742100  1
  O  O7  1  0.25000000  0.87412700  0.18742000  1
  O  O8  1  0.75000000  0.37412700  0.31258000  1
  O  O9  1  0.25000000  0.26632000  0.32257900  1
  O  O10  1  0.49181100  0.63911500  0.35650600  1
  O  O11  1  0.00818900  0.63911500  0.35650600  1
  O  O12  1  0.25000000  0.95009400  0.37602900  1
  O  O13  1  0.49415900  0.18036600  0.47504800  1
  O  O14  1  0.00584100  0.18036600  0.47504800  1
  O  O15  1  0.75000000  0.47304700  0.48668500  1
  O  O16  1  0.25000000  0.52695300  0.51331500  1
  O  O17  1  0.99415900  0.81963400  0.52495200  1
  O  O18  1  0.50584100  0.81963400  0.52495200  1
  O  O19  1  0.75000000  0.04990600  0.62397100  1
  O  O20  1  0.99181100  0.36088500  0.64349400  1
  O  O21  1  0.50818900  0.36088500  0.64349400  1
  O  O22  1  0.75000000  0.73368000  0.67742100  1
  O  O23  1  0.25000000  0.62587300  0.68742000  1
  O  O24  1  0.75000000  0.12587300  0.81258000  1
  O  O25  1  0.25000000  0.23368000  0.82257900  1
  O  O26  1  0.49181100  0.86088500  0.85650600  1
  O  O27  1  0.00818900  0.86088500  0.85650600  1
  O  O28  1  0.25000000  0.54990600  0.87602900  1
  O  O29  1  0.49415900  0.31963400  0.97504800  1
  O  O30  1  0.00584100  0.31963400  0.97504800  1
  O  O31  1  0.75000000  0.02695300  0.98668500  1
loop_
_geom_bond_atom_site_label_1
_geom_bond_atom_site_label_2
_geom_bond_distance
_geom_bond_site_symmetry_2
Li0 O9 1.974541 1_555
Li0 O10 2.052697 1_555
Li0 O11 2.052697 1_555
Li1 O6 1.974541 1_555
Li1 O4 2.052697 1_565
Li1 O5 2.052697 1_565
Li2 O25 1.974541 1_555
Li2 O27 2.052697 1_545
Li2 O26 2.052697 1_545
Li3 O22 1.974541 1_555
Li3 O21 2.052697 1_555
Li3 O20 2.052697 1_555
Cr0 O30 1.976996 1_654
Cr0 O29 1.976996 1_554
Cr0 O3 1.987812 1_555
Cr0 O31 2.000945 1_554
Cr0 O4 2.024394 1_555
Cr0 O5 2.024394 1_555
Cr1 O6 1.637972 1_555
Cr1 O1 1.666367 1_555
Cr1 O2 1.666367 1_555
Cr1 O3 1.686722 1_555
Cr2 O7 1.601382 1_545
Cr2 O0 1.663160 1_545
Cr2 O5 1.715356 1_455
Cr2 O4 1.715356 1_555
Cr3 O8 1.601382 1_555
Cr3 O15 1.663160 1_555
Cr3 O10 1.715356 1_555
Cr3 O11 1.715356 1_655
Cr4 O9 1.637972 1_555
Cr4 O13 1.666367 1_555
Cr4 O14 1.666367 1_555
Cr4 O12 1.686722 1_545
Cr5 O18 1.976996 1_555
Cr5 O17 1.976996 1_455
Cr5 O12 1.987812 1_555
Cr5 O16 2.000945 1_555
Cr5 O10 2.024394 1_555
Cr5 O11 2.024394 1_555
Cr6 O14 1.976996 1_655
Cr6 O13 1.976996 1_555
Cr6 O19 1.987812 1_555
Cr6 O15 2.000945 1_555
Cr6 O20 2.024394 1_555
Cr6 O21 2.024394 1_555
Cr7 O22 1.637972 1_555
Cr7 O17 1.666367 1_555
Cr7 O18 1.666367 1_555
Cr7 O19 1.686722 1_565
Cr8 O23 1.601382 1_555
Cr8 O16 1.663160 1_555
Cr8 O20 1.715356 1_455
Cr8 O21 1.715356 1_555
Cr9 O24 1.601382 1_565
Cr9 O31 1.663160 1_565
Cr9 O27 1.715356 1_655
Cr9 O26 1.715356 1_555
Cr10 O25 1.637972 1_555
Cr10 O29 1.666367 1_555
Cr10 O30 1.666367 1_555
Cr10 O28 1.686722 1_555
Cr11 O2 1.976996 1_556
Cr11 O1 1.976996 1_456
Cr11 O28 1.987812 1_555
Cr11 O0 2.000945 1_556
Cr11 O27 2.024394 1_555
Cr11 O26 2.024394 1_555
