# generated using pymatgen
data_Li4Ti3V3(CoO8)2
_symmetry_space_group_name_H-M   'P 1'
_cell_length_a   5.89599300
_cell_length_b   5.92403483
_cell_length_c   9.78220569
_cell_angle_alpha   90.05924104
_cell_angle_beta   90.06495573
_cell_angle_gamma   119.55848681
_symmetry_Int_Tables_number   1
_chemical_formula_structural   Li4Ti3V3(CoO8)2
_chemical_formula_sum   'Li4 Ti3 V3 Co2 O16'
_cell_volume   297.20492589
_cell_formula_units_Z   1
loop_
 _symmetry_equiv_pos_site_id
 _symmetry_equiv_pos_as_xyz
  1  'x, y, z'
loop_
 _atom_site_type_symbol
 _atom_site_label
 _atom_site_symmetry_multiplicity
 _atom_site_fract_x
 _atom_site_fract_y
 _atom_site_fract_z
 _atom_site_occupancy
  Li  Li0  1  0.33415100  0.66702600  0.10747700  1
  Li  Li1  1  0.99912900  0.00518100  0.00305100  1
  Li  Li2  1  0.99681200  0.99348200  0.50143900  1
  Li  Li3  1  0.66781200  0.33422800  0.60637000  1
  Ti  Ti0  1  0.18150500  0.34034600  0.78620400  1
  Ti  Ti1  1  0.17192900  0.82939400  0.77851500  1
  Ti  Ti2  1  0.34142100  0.17936000  0.28211700  1
  V  V0  1  0.66774600  0.83460700  0.79001300  1
  V  V1  1  0.84156700  0.66071500  0.28641700  1
  V  V2  1  0.82649300  0.16091500  0.28741000  1
  Co  Co0  1  0.33085300  0.66844000  0.50919600  1
  Co  Co1  1  0.66595600  0.33301100  0.00463700  1
  O  O0  1  0.14365800  0.31230500  0.39209500  1
  O  O1  1  0.03388300  0.52300700  0.67162800  1
  O  O2  1  0.32934500  0.66920200  0.89609400  1
  O  O3  1  0.00162900  0.00224000  0.68572100  1
  O  O4  1  0.00083800  0.99738100  0.18629400  1
  O  O5  1  0.16442500  0.84244200  0.39441600  1
  O  O6  1  0.47628100  0.51234600  0.66788100  1
  O  O7  1  0.49055900  0.96499500  0.67377000  1
  O  O8  1  0.31693500  0.15981200  0.89480800  1
  O  O9  1  0.68245600  0.82781000  0.39010800  1
  O  O10  1  0.52977200  0.03480400  0.17426800  1
  O  O11  1  0.50588700  0.47178800  0.16794500  1
  O  O12  1  0.66229100  0.33072300  0.39695300  1
  O  O13  1  0.84304800  0.16436900  0.89396600  1
  O  O14  1  0.96347500  0.49287400  0.17123600  1
  O  O15  1  0.83014600  0.68690400  0.89213200  1
loop_
_geom_bond_atom_site_label_1
_geom_bond_atom_site_label_2
_geom_bond_distance
_geom_bond_site_symmetry_2
Li0 O11 1.966818 1_555
Li0 O14 2.002407 1_455
Li0 O10 2.005016 1_565
Li0 O2 2.068095 1_554
Li1 O4 1.793309 1_645
Li1 O13 1.931565 1_554
Li1 O8 1.945345 1_654
Li1 O15 1.965935 1_544
Li2 O3 1.803166 1_665
Li2 O5 1.935486 1_655
Li2 O9 1.945001 1_555
Li2 O0 1.963126 1_665
Li3 O6 1.981555 1_555
Li3 O1 1.982573 1_655
Li3 O7 2.015083 1_545
Li3 O12 2.048703 1_555
Co0 O5 2.069765 1_555
Co0 O9 2.150049 1_555
Co0 O0 2.162442 1_555
Co0 O6 2.186805 1_555
Co0 O1 2.203083 1_555
Co0 O7 2.218867 1_555
Co1 O13 2.071193 1_554
Co1 O8 2.085956 1_554
Co1 O15 2.132691 1_554
Co1 O11 2.210166 1_555
Co1 O14 2.231864 1_555
Co1 O10 2.264649 1_555
O0 V2 1.920680 1_455
O0 Ti2 2.011063 1_555
O1 Ti1 1.893865 1_555
O1 Ti0 2.028351 1_555
O2 Ti1 1.988399 1_555
O2 Ti0 2.007182 1_555
O2 V0 2.023795 1_555
O3 Ti1 1.973541 1_545
O3 V0 1.995032 1_445
O3 Ti0 2.000128 1_555
O4 Ti2 1.982674 1_565
O4 V2 1.989078 1_465
O4 V1 1.994271 1_455
O5 V1 1.967200 1_455
O5 Ti2 2.057086 1_565
O6 Ti0 1.912684 1_555
O6 V0 2.052379 1_555
O7 Ti1 1.934322 1_555
O7 V0 1.943276 1_555
O8 Ti0 1.937279 1_555
O8 Ti1 2.049051 1_545
O9 V1 1.950656 1_555
O9 V2 1.994265 1_565
O10 V2 1.883642 1_555
O10 Ti2 2.004665 1_555
O11 Ti2 1.880902 1_555
O11 V1 2.078333 1_555
O12 Ti2 1.991091 1_555
O12 V2 2.014565 1_555
O12 V1 2.018983 1_555
O13 V0 1.979898 1_545
O13 Ti0 2.033405 1_655
O14 V1 1.865312 1_555
O14 V2 2.061730 1_555
O15 V0 1.872590 1_555
O15 Ti1 2.082637 1_655
