# generated using pymatgen
data_Li2Co2(SO4)3
_symmetry_space_group_name_H-M   'P 1'
_cell_length_a   8.66036300
_cell_length_b   8.83685500
_cell_length_c   12.23585100
_cell_angle_alpha   90.00000000
_cell_angle_beta   90.00000000
_cell_angle_gamma   90.00000000
_symmetry_Int_Tables_number   1
_chemical_formula_structural   Li2Co2(SO4)3
_chemical_formula_sum   'Li8 Co8 S12 O48'
_cell_volume   936.41422973
_cell_formula_units_Z   4
loop_
 _symmetry_equiv_pos_site_id
 _symmetry_equiv_pos_as_xyz
  1  'x, y, z'
loop_
 _atom_site_type_symbol
 _atom_site_label
 _atom_site_symmetry_multiplicity
 _atom_site_fract_x
 _atom_site_fract_y
 _atom_site_fract_z
 _atom_site_occupancy
  Li  Li0  1  0.21791500  0.27558500  0.18361900  1
  Li  Li1  1  0.78208500  0.77558500  0.18361900  1
  Li  Li2  1  0.28208500  0.77558500  0.31638100  1
  Li  Li3  1  0.71791500  0.27558500  0.31638100  1
  Li  Li4  1  0.28208500  0.72441500  0.68361900  1
  Li  Li5  1  0.71791500  0.22441500  0.68361900  1
  Li  Li6  1  0.21791500  0.22441500  0.81638100  1
  Li  Li7  1  0.78208500  0.72441500  0.81638100  1
  Co  Co0  1  0.25375700  0.96263300  0.11330800  1
  Co  Co1  1  0.74624300  0.46263300  0.11330800  1
  Co  Co2  1  0.75375700  0.96263300  0.38669200  1
  Co  Co3  1  0.24624300  0.46263300  0.38669200  1
  Co  Co4  1  0.24624300  0.03736700  0.61330800  1
  Co  Co5  1  0.75375700  0.53736700  0.61330800  1
  Co  Co6  1  0.25375700  0.53736700  0.88669200  1
  Co  Co7  1  0.74624300  0.03736700  0.88669200  1
  S  S0  1  0.45942400  0.25000000  0.00000000  1
  S  S1  1  0.54057600  0.75000000  0.00000000  1
  S  S2  1  0.10115600  0.60582500  0.14457300  1
  S  S3  1  0.89884400  0.10582500  0.14457300  1
  S  S4  1  0.39884400  0.10582500  0.35542700  1
  S  S5  1  0.60115600  0.60582500  0.35542700  1
  S  S6  1  0.04057600  0.75000000  0.50000000  1
  S  S7  1  0.95942400  0.25000000  0.50000000  1
  S  S8  1  0.39884400  0.39417500  0.64457300  1
  S  S9  1  0.60115600  0.89417500  0.64457300  1
  S  S10  1  0.10115600  0.89417500  0.85542700  1
  S  S11  1  0.89884400  0.39417500  0.85542700  1
  O  O0  1  0.13577800  0.57485600  0.02982900  1
  O  O1  1  0.86422200  0.07485600  0.02982900  1
  O  O2  1  0.55107500  0.36403400  0.05843500  1
  O  O3  1  0.44892500  0.86403400  0.05843500  1
  O  O4  1  0.35754300  0.17440200  0.08253900  1
  O  O5  1  0.64245700  0.67440200  0.08253900  1
  O  O6  1  0.07035000  0.11140400  0.16084800  1
  O  O7  1  0.92965000  0.61140400  0.16084800  1
  O  O8  1  0.16671600  0.75420200  0.18015500  1
  O  O9  1  0.83328400  0.25420200  0.18015500  1
  O  O10  1  0.83338600  0.98353300  0.21572500  1
  O  O11  1  0.16661400  0.48353300  0.21572500  1
  O  O12  1  0.33338600  0.98353300  0.28427500  1
  O  O13  1  0.66661400  0.48353300  0.28427500  1
  O  O14  1  0.66671600  0.75420200  0.31984500  1
  O  O15  1  0.33328400  0.25420200  0.31984500  1
  O  O16  1  0.42965000  0.61140400  0.33915200  1
  O  O17  1  0.57035000  0.11140400  0.33915200  1
  O  O18  1  0.14245700  0.67440200  0.41746100  1
  O  O19  1  0.85754300  0.17440200  0.41746100  1
  O  O20  1  0.05107500  0.36403400  0.44156500  1
  O  O21  1  0.94892500  0.86403400  0.44156500  1
  O  O22  1  0.63577800  0.57485600  0.47017100  1
  O  O23  1  0.36422200  0.07485600  0.47017100  1
  O  O24  1  0.36422200  0.42514400  0.52982900  1
  O  O25  1  0.63577800  0.92514400  0.52982900  1
  O  O26  1  0.05107500  0.13596600  0.55843500  1
  O  O27  1  0.94892500  0.63596600  0.55843500  1
  O  O28  1  0.14245700  0.82559800  0.58253900  1
  O  O29  1  0.85754300  0.32559800  0.58253900  1
  O  O30  1  0.42965000  0.88859600  0.66084800  1
  O  O31  1  0.57035000  0.38859600  0.66084800  1
  O  O32  1  0.33328400  0.24579800  0.68015500  1
  O  O33  1  0.66671600  0.74579800  0.68015500  1
  O  O34  1  0.33338600  0.51646700  0.71572500  1
  O  O35  1  0.66661400  0.01646700  0.71572500  1
  O  O36  1  0.16661400  0.01646700  0.78427500  1
  O  O37  1  0.83338600  0.51646700  0.78427500  1
  O  O38  1  0.16671600  0.74579800  0.81984500  1
  O  O39  1  0.83328400  0.24579800  0.81984500  1
  O  O40  1  0.07035000  0.38859600  0.83915200  1
  O  O41  1  0.92965000  0.88859600  0.83915200  1
  O  O42  1  0.35754300  0.32559800  0.91746100  1
  O  O43  1  0.64245700  0.82559800  0.91746100  1
  O  O44  1  0.44892500  0.63596600  0.94156500  1
  O  O45  1  0.55107500  0.13596600  0.94156500  1
  O  O46  1  0.13577800  0.92514400  0.97017100  1
  O  O47  1  0.86422200  0.42514400  0.97017100  1
loop_
_geom_bond_atom_site_label_1
_geom_bond_atom_site_label_2
_geom_bond_distance
_geom_bond_site_symmetry_2
Li0 O11 1.930936 1_555
Li0 O4 1.947150 1_555
Li0 O15 1.952521 1_555
Li0 O6 1.953401 1_555
Li1 O10 1.930936 1_555
Li1 O5 1.947150 1_555
Li1 O14 1.952521 1_555
Li1 O7 1.953401 1_555
Li2 O12 1.930936 1_555
Li2 O18 1.947150 1_555
Li2 O8 1.952521 1_555
Li2 O16 1.953401 1_555
Li3 O13 1.930936 1_555
Li3 O19 1.947150 1_555
Li3 O9 1.952521 1_555
Li3 O17 1.953401 1_555
Li4 O34 1.930936 1_555
Li4 O28 1.947150 1_555
Li4 O38 1.952521 1_555
Li4 O30 1.953401 1_555
Li5 O35 1.930936 1_555
Li5 O29 1.947150 1_555
Li5 O39 1.952521 1_555
Li5 O31 1.953401 1_555
Li6 O36 1.930936 1_555
Li6 O42 1.947150 1_555
Li6 O32 1.952521 1_555
Li6 O40 1.953401 1_555
Li7 O37 1.930936 1_555
Li7 O43 1.947150 1_555
Li7 O33 1.952521 1_555
Li7 O41 1.953401 1_555
Co0 O3 2.016640 1_555
Co0 O46 2.054536 1_554
Co0 O4 2.109896 1_565
Co0 O6 2.142345 1_565
Co0 O8 2.151682 1_555
Co0 O12 2.210393 1_555
Co1 O2 2.016640 1_555
Co1 O47 2.054536 1_554
Co1 O5 2.109896 1_555
Co1 O7 2.142345 1_555
Co1 O9 2.151682 1_555
Co1 O13 2.210393 1_555
Co2 O21 2.016640 1_555
Co2 O25 2.054536 1_555
Co2 O19 2.109896 1_565
Co2 O17 2.142345 1_565
Co2 O14 2.151682 1_555
Co2 O10 2.210393 1_555
Co3 O20 2.016640 1_555
Co3 O24 2.054536 1_555
Co3 O18 2.109896 1_555
Co3 O16 2.142345 1_555
Co3 O15 2.151682 1_555
Co3 O11 2.210393 1_555
Co4 O26 2.016640 1_555
Co4 O23 2.054536 1_555
Co4 O28 2.109896 1_545
Co4 O30 2.142345 1_545
Co4 O32 2.151682 1_555
Co4 O36 2.210393 1_555
Co5 O27 2.016640 1_555
Co5 O22 2.054536 1_555
Co5 O29 2.109896 1_555
Co5 O31 2.142345 1_555
Co5 O33 2.151682 1_555
Co5 O37 2.210393 1_555
Co6 O44 2.016640 1_555
Co6 O0 2.054536 1_556
Co6 O42 2.109896 1_555
Co6 O40 2.142345 1_555
Co6 O38 2.151682 1_555
Co6 O34 2.210393 1_555
Co7 O45 2.016640 1_555
Co7 O1 2.054536 1_556
Co7 O43 2.109896 1_545
Co7 O41 2.142345 1_545
Co7 O39 2.151682 1_555
Co7 O35 2.210393 1_555
O0 S2 1.461502 1_555
O1 S3 1.461502 1_555
O2 S0 1.468571 1_555
O3 S1 1.468571 1_555
O4 S0 1.498251 1_555
O5 S1 1.498251 1_555
O6 S3 1.499405 1_455
O7 S2 1.499405 1_655
O8 S2 1.493696 1_555
O9 S3 1.493696 1_555
O10 S3 1.499060 1_565
O11 S2 1.499060 1_555
O12 S4 1.499060 1_565
O13 S5 1.499060 1_555
O14 S5 1.493696 1_555
O15 S4 1.493696 1_555
O16 S5 1.499405 1_555
O17 S4 1.499405 1_555
O18 S6 1.498251 1_555
O19 S7 1.498251 1_555
O20 S7 1.468571 1_455
O21 S6 1.468571 1_655
O22 S5 1.461502 1_555
O23 S4 1.461502 1_555
O24 S8 1.461502 1_555
O25 S9 1.461502 1_555
O26 S7 1.468571 1_455
O27 S6 1.468571 1_655
O28 S6 1.498251 1_555
O29 S7 1.498251 1_555
O30 S9 1.499405 1_555
O31 S8 1.499405 1_555
O32 S8 1.493696 1_555
O33 S9 1.493696 1_555
O34 S8 1.499060 1_555
O35 S9 1.499060 1_545
O36 S10 1.499060 1_545
O37 S11 1.499060 1_555
O38 S10 1.493696 1_555
O39 S11 1.493696 1_555
O40 S11 1.499405 1_455
O41 S10 1.499405 1_655
O42 S0 1.498251 1_556
O43 S1 1.498251 1_556
O44 S1 1.468571 1_556
O45 S0 1.468571 1_556
O46 S10 1.461502 1_555
O47 S11 1.461502 1_555
