# generated using pymatgen
data_LiVCrP2(HO5)2
_symmetry_space_group_name_H-M   'P 1'
_cell_length_a   5.19899100
_cell_length_b   7.36452726
_cell_length_c   10.19724665
_cell_angle_alpha   103.09396795
_cell_angle_beta   99.73817237
_cell_angle_gamma   105.49023678
_symmetry_Int_Tables_number   1
_chemical_formula_structural   LiVCrP2(HO5)2
_chemical_formula_sum   'Li2 V2 Cr2 P4 H4 O20'
_cell_volume   355.33039073
_cell_formula_units_Z   2
loop_
 _symmetry_equiv_pos_site_id
 _symmetry_equiv_pos_as_xyz
  1  'x, y, z'
loop_
 _atom_site_type_symbol
 _atom_site_label
 _atom_site_symmetry_multiplicity
 _atom_site_fract_x
 _atom_site_fract_y
 _atom_site_fract_z
 _atom_site_occupancy
  Li  Li0  1  0.35193700  0.12890300  0.27926600  1
  Li  Li1  1  0.64806300  0.87109700  0.72073400  1
  V  V0  1  0.74457800  0.74320100  0.24884800  1
  V  V1  1  0.25542200  0.25679900  0.75115200  1
  Cr  Cr0  1  0.00000000  0.00000000  0.00000000  1
  Cr  Cr1  1  0.50000000  0.50000000  0.50000000  1
  P  P0  1  0.61376400  0.28604700  0.06302900  1
  P  P1  1  0.88885800  0.20751300  0.43738400  1
  P  P2  1  0.11114200  0.79248700  0.56261600  1
  P  P3  1  0.38623600  0.71395300  0.93697100  1
  H  H0  1  0.14875400  0.79499200  0.14230400  1
  H  H1  1  0.32999100  0.68273800  0.34550800  1
  H  H2  1  0.67000900  0.31726200  0.65449200  1
  H  H3  1  0.85124600  0.20500800  0.85769600  1
  O  O0  1  0.79066900  0.15742900  0.08801800  1
  O  O1  1  0.34477100  0.21916400  0.10840800  1
  O  O2  1  0.43946800  0.71596200  0.09343400  1
  O  O3  1  0.77736900  0.50243200  0.15298400  1
  O  O4  1  0.70953600  0.99893900  0.34205200  1
  O  O5  1  0.03484200  0.88129600  0.16252000  1
  O  O6  1  0.16383200  0.26930600  0.39692000  1
  O  O7  1  0.48101000  0.62518900  0.34377700  1
  O  O8  1  0.71199700  0.33954700  0.41172800  1
  O  O9  1  0.06305200  0.78935900  0.40614300  1
  O  O10  1  0.93694800  0.21064100  0.59385700  1
  O  O11  1  0.28800300  0.66045300  0.58827200  1
  O  O12  1  0.51899000  0.37481100  0.65622300  1
  O  O13  1  0.83616800  0.73069400  0.60308000  1
  O  O14  1  0.96515800  0.11870400  0.83748000  1
  O  O15  1  0.29046400  0.00106100  0.65794800  1
  O  O16  1  0.22263100  0.49756800  0.84701600  1
  O  O17  1  0.56053200  0.28403800  0.90656600  1
  O  O18  1  0.65522900  0.78083600  0.89159200  1
  O  O19  1  0.20933100  0.84257100  0.91198200  1
loop_
_geom_bond_atom_site_label_1
_geom_bond_atom_site_label_2
_geom_bond_distance
_geom_bond_site_symmetry_2
Li0 O6 1.959571 1_555
Li0 O1 1.998705 1_555
Li0 O5 2.051083 1_545
Li0 O8 2.092673 1_555
Li0 O4 2.368104 1_545
Li1 O13 1.959571 1_555
Li1 O18 1.998705 1_555
Li1 O14 2.051083 1_565
Li1 O11 2.092673 1_555
Li1 O15 2.368104 1_565
Cr0 O0 1.966497 1_455
Cr0 O19 1.966497 1_544
Cr0 O1 2.003989 1_555
Cr0 O18 2.003989 1_444
Cr0 O14 2.045238 1_454
Cr0 O5 2.045238 1_545
Cr1 O11 1.992659 1_555
Cr1 O8 1.992659 1_555
Cr1 O13 2.007289 1_555
Cr1 O6 2.007289 1_555
Cr1 O7 2.014555 1_555
Cr1 O12 2.014555 1_555
H0 O5 0.990049 1_555
H1 O7 0.987640 1_555
H2 O12 0.987640 1_555
H3 O14 0.990049 1_555
O0 P0 1.517714 1_555
O1 P0 1.538434 1_555
O2 P3 1.568486 1_554
O2 V0 1.975753 1_555
O3 P0 1.566557 1_555
O3 V0 1.887113 1_555
O4 P1 1.557415 1_565
O4 V0 1.978498 1_555
O5 V0 2.030231 1_455
O6 P1 1.535643 1_455
O7 V0 1.940071 1_555
O8 P1 1.539768 1_555
O9 P2 1.566612 1_555
O9 V0 1.995912 1_455
O10 P1 1.566612 1_555
O10 V1 1.995912 1_655
O11 P2 1.539768 1_555
O12 V1 1.940071 1_555
O13 P2 1.535643 1_655
O14 V1 2.030231 1_655
O15 P2 1.557415 1_545
O15 V1 1.978498 1_555
O16 P3 1.566557 1_555
O16 V1 1.887113 1_555
O17 P0 1.568486 1_556
O17 V1 1.975753 1_555
O18 P3 1.538434 1_555
O19 P3 1.517714 1_555
