# generated using pymatgen
data_V3O5F
_symmetry_space_group_name_H-M   'P 1'
_cell_length_a   5.51567600
_cell_length_b   5.52144976
_cell_length_c   7.26034888
_cell_angle_alpha   70.89633226
_cell_angle_beta   71.01897333
_cell_angle_gamma   73.85538789
_symmetry_Int_Tables_number   1
_chemical_formula_structural   V3O5F
_chemical_formula_sum   'V6 O10 F2'
_cell_volume   193.89488686
_cell_formula_units_Z   2
loop_
 _symmetry_equiv_pos_site_id
 _symmetry_equiv_pos_as_xyz
  1  'x, y, z'
loop_
 _atom_site_type_symbol
 _atom_site_label
 _atom_site_symmetry_multiplicity
 _atom_site_fract_x
 _atom_site_fract_y
 _atom_site_fract_z
 _atom_site_occupancy
  V  V0  1  0.31022100  0.32268100  0.18402600  1
  V  V1  1  0.66147000  0.66515100  0.32935800  1
  V  V2  1  0.34621500  0.35649400  0.66378300  1
  V  V3  1  0.67509400  0.69325900  0.81990700  1
  V  V4  1  0.99166400  0.99710800  0.48887200  1
  V  V5  1  0.02414900  0.96627300  0.01542800  1
  O  O0  1  0.37158800  0.97427300  0.32294100  1
  O  O1  1  0.02853300  0.63145000  0.67332400  1
  O  O2  1  0.78324100  0.78247500  0.01931100  1
  O  O3  1  0.41427600  0.42334300  0.38032500  1
  O  O4  1  0.90730800  0.89806800  0.29544400  1
  O  O5  1  0.21989300  0.22448700  0.96386200  1
  O  O6  1  0.56379000  0.57139900  0.63949100  1
  O  O7  1  0.31652100  0.68125000  0.00372600  1
  O  O8  1  0.95953800  0.37203500  0.32958900  1
  O  O9  1  0.62415800  0.04066900  0.67074300  1
  F  F0  1  0.10360000  0.09845500  0.69914700  1
  F  F1  1  0.69874200  0.30113400  0.00072300  1
loop_
_geom_bond_atom_site_label_1
_geom_bond_atom_site_label_2
_geom_bond_distance
_geom_bond_site_symmetry_2
O0 V0 1.849988 1_565
O0 V1 1.987599 1_555
O0 V4 2.041758 1_455
O1 V3 1.888807 1_455
O1 V2 1.972411 1_555
O1 V4 2.022385 1_455
O2 V5 1.871667 1_655
O2 V3 1.971400 1_554
O2 V1 2.059596 1_555
O3 V2 1.894682 1_555
O3 V0 1.974208 1_555
O3 V1 2.034515 1_555
O4 V5 1.863285 1_655
O4 V4 1.885992 1_555
O4 V1 2.024471 1_555
O5 V5 1.892672 1_546
O5 V2 2.004716 1_555
O5 V0 2.081543 1_556
O6 V2 1.842965 1_555
O6 V3 1.968535 1_555
O6 V1 2.057007 1_555
O7 V5 1.916109 1_555
O7 V0 1.986646 1_555
O7 V3 1.998771 1_554
O8 V0 1.870324 1_655
O8 V1 1.960227 1_555
O8 V4 2.004131 1_545
O9 V3 1.862728 1_545
O9 V2 1.974755 1_555
O9 V4 2.026309 1_545
F0 V4 2.095116 1_445
F0 V5 2.103333 1_546
F0 V2 2.117527 1_555
F1 V0 2.117592 1_555
F1 V3 2.126489 1_554
F1 V5 2.191183 1_645
