# generated using pymatgen
data_Li3VOF5
_symmetry_space_group_name_H-M   'P 1'
_cell_length_a   5.04903600
_cell_length_b   8.61268712
_cell_length_c   9.84363866
_cell_angle_alpha   90.17877603
_cell_angle_beta   90.16845974
_cell_angle_gamma   90.12384277
_symmetry_Int_Tables_number   1
_chemical_formula_structural   Li3VOF5
_chemical_formula_sum   'Li12 V4 O4 F20'
_cell_volume   428.05323801
_cell_formula_units_Z   4
loop_
 _symmetry_equiv_pos_site_id
 _symmetry_equiv_pos_as_xyz
  1  'x, y, z'
loop_
 _atom_site_type_symbol
 _atom_site_label
 _atom_site_symmetry_multiplicity
 _atom_site_fract_x
 _atom_site_fract_y
 _atom_site_fract_z
 _atom_site_occupancy
  Li  Li0  1  0.51296400  0.54067900  0.89089000  1
  Li  Li1  1  0.98785200  0.14607500  0.87193300  1
  Li  Li2  1  0.50722000  0.95546000  0.85080500  1
  Li  Li3  1  0.99225800  0.45548700  0.65162600  1
  Li  Li4  1  0.49950600  0.64964100  0.62738100  1
  Li  Li5  1  0.99780100  0.04016500  0.60844800  1
  Li  Li6  1  0.50009200  0.95617700  0.39425000  1
  Li  Li7  1  0.99373600  0.35101500  0.37459200  1
  Li  Li8  1  0.49452300  0.54879100  0.35186500  1
  Li  Li9  1  0.99734800  0.04705400  0.14630800  1
  Li  Li10  1  0.48653900  0.84983900  0.12788500  1
  Li  Li11  1  0.00381100  0.45414900  0.10558300  1
  V  V0  1  0.02945300  0.75953600  0.89288000  1
  V  V1  1  0.47564000  0.25955900  0.61746000  1
  V  V2  1  0.97572500  0.74034400  0.38189000  1
  V  V3  1  0.49991400  0.23967100  0.12773900  1
  O  O0  1  0.16731100  0.90503500  0.98632700  1
  O  O1  1  0.14467000  0.60045200  0.96878700  1
  O  O2  1  0.19965400  0.25732200  0.52381600  1
  O  O3  1  0.69874200  0.74268100  0.47474400  1
  F  F0  1  0.68351900  0.75753700  0.97516100  1
  F  F1  1  0.85302400  0.93444900  0.77205700  1
  F  F2  1  0.30163900  0.76854100  0.75787800  1
  F  F3  1  0.81657300  0.61985700  0.75310500  1
  F  F4  1  0.32204500  0.11240500  0.75073400  1
  F  F5  1  0.80570000  0.26664900  0.73572400  1
  F  F6  1  0.35856300  0.44139200  0.72791800  1
  F  F7  1  0.66017600  0.09054400  0.52512500  1
  F  F8  1  0.68261100  0.41242900  0.50968100  1
  F  F9  1  0.18273400  0.58829900  0.48979000  1
  F  F10  1  0.16075300  0.90995400  0.47398600  1
  F  F11  1  0.85619800  0.55897500  0.27118600  1
  F  F12  1  0.30523000  0.73338200  0.26415400  1
  F  F13  1  0.82054500  0.88717800  0.24812600  1
  F  F14  1  0.31603300  0.38945300  0.24923200  1
  F  F15  1  0.82136500  0.23074700  0.24013500  1
  F  F16  1  0.35297100  0.05852100  0.22666800  1
  F  F17  1  0.65647200  0.41064300  0.02505400  1
  F  F18  1  0.17081300  0.24555300  0.02053200  1
  F  F19  1  0.67943400  0.08436400  0.00854400  1
loop_
_geom_bond_atom_site_label_1
_geom_bond_atom_site_label_2
_geom_bond_distance
_geom_bond_site_symmetry_2
Li0 O1 2.078678 1_555
Li1 O0 2.532885 1_645
Li2 O0 2.219795 1_555
Li3 O2 2.365246 1_655
Li4 O3 1.981032 1_555
Li5 O2 2.288503 1_655
Li6 O3 2.242164 1_555
Li7 O2 1.972777 1_655
Li8 O3 2.299455 1_555
Li9 O0 2.170944 1_644
Li10 O0 2.181697 1_554
Li11 O1 1.979687 1_554
O0 V0 1.698897 1_555
O1 V0 1.667720 1_555
O2 V1 1.668545 1_555
O3 V2 1.673068 1_555
F0 V0 1.927514 1_655
F0 Li10 1.971285 1_556
F0 Li0 2.212980 1_555
F0 Li2 2.282501 1_555
F1 Li2 1.921071 1_555
F1 Li5 1.992556 1_565
F1 V0 2.118549 1_655
F1 Li1 2.175231 1_565
F2 V0 1.916136 1_555
F2 Li4 1.923699 1_555
F2 Li2 2.117514 1_555
F3 Li3 1.946950 1_555
F3 Li4 2.037730 1_555
F3 V0 2.114471 1_655
F3 Li0 2.160547 1_555
F4 Li2 1.918330 1_545
F4 V1 1.985166 1_555
F4 Li1 2.089590 1_455
F4 Li5 2.237333 1_455
F5 Li1 1.930683 1_555
F5 V1 2.030726 1_555
F5 Li3 2.055262 1_555
F5 Li5 2.513059 1_555
F6 Li0 1.973262 1_555
F6 V1 1.995345 1_555
F6 Li3 1.998174 1_455
F6 Li4 2.170820 1_555
F7 Li6 1.905981 1_545
F7 Li5 1.940137 1_555
F7 V1 1.953410 1_555
F8 V1 1.990076 1_555
F8 Li3 2.124980 1_555
F8 Li7 2.127725 1_555
F8 Li8 2.168414 1_555
F9 V2 1.985813 1_455
F9 Li8 2.109337 1_555
F9 Li4 2.156551 1_555
F9 Li3 2.187873 1_455
F10 Li5 1.920323 1_465
F10 Li6 1.927944 1_555
F10 V2 1.951766 1_455
F11 V2 1.993296 1_555
F11 Li8 1.995333 1_555
F11 Li11 2.007187 1_655
F11 Li7 2.176915 1_555
F12 Li10 1.911806 1_555
F12 V2 2.031240 1_455
F12 Li8 2.048592 1_555
F12 Li6 2.501821 1_555
F13 Li9 1.925096 1_565
F13 V2 1.988859 1_555
F13 Li10 2.081313 1_555
F13 Li6 2.247774 1_555
F14 Li8 1.922698 1_555
F14 V3 1.989590 1_555
F14 Li7 2.071822 1_455
F14 Li11 2.188758 1_555
F15 Li7 1.887572 1_555
F15 V3 1.963337 1_555
F15 Li9 2.036502 1_555
F16 Li9 1.962115 1_455
F16 V3 1.985368 1_555
F16 Li6 2.013624 1_545
F16 Li10 2.151477 1_545
F17 Li0 1.878984 1_554
F17 V3 1.955463 1_555
F17 Li11 1.957412 1_655
F18 Li1 1.925587 1_454
F18 V3 1.966642 1_555
F18 Li11 2.154273 1_555
F18 Li9 2.288194 1_455
F19 V3 1.997281 1_555
F19 Li2 2.092059 1_544
F19 Li9 2.123899 1_555
F19 Li1 2.128133 1_554
