# generated using pymatgen
data_ThSO6
_symmetry_space_group_name_H-M   'P 1'
_cell_length_a   6.32626700
_cell_length_b   7.36414100
_cell_length_c   11.94659600
_cell_angle_alpha   90.00000000
_cell_angle_beta   90.00000000
_cell_angle_gamma   90.00000000
_symmetry_Int_Tables_number   1
_chemical_formula_structural   ThSO6
_chemical_formula_sum   'Th4 S4 O24'
_cell_volume   556.56230626
_cell_formula_units_Z   4
loop_
 _symmetry_equiv_pos_site_id
 _symmetry_equiv_pos_as_xyz
  1  'x, y, z'
loop_
 _atom_site_type_symbol
 _atom_site_label
 _atom_site_symmetry_multiplicity
 _atom_site_fract_x
 _atom_site_fract_y
 _atom_site_fract_z
 _atom_site_occupancy
  Th  Th0  1  0.25000000  0.32729900  0.57676000  1
  Th  Th1  1  0.25000000  0.17270100  0.07676000  1
  Th  Th2  1  0.75000000  0.67270100  0.42324000  1
  Th  Th3  1  0.75000000  0.82729900  0.92324000  1
  S  S0  1  0.25000000  0.55476600  0.86192400  1
  S  S1  1  0.25000000  0.94523400  0.36192400  1
  S  S2  1  0.75000000  0.44523400  0.13807600  1
  S  S3  1  0.75000000  0.05476600  0.63807600  1
  O  O0  1  0.25000000  0.45616400  0.97062600  1
  O  O1  1  0.25000000  0.04383600  0.47062600  1
  O  O2  1  0.75000000  0.54383600  0.02937400  1
  O  O3  1  0.75000000  0.95616400  0.52937400  1
  O  O4  1  0.25000000  0.41975000  0.76925200  1
  O  O5  1  0.25000000  0.08025000  0.26925200  1
  O  O6  1  0.75000000  0.58025000  0.23074800  1
  O  O7  1  0.75000000  0.91975000  0.73074800  1
  O  O8  1  0.05873300  0.66958200  0.85248700  1
  O  O9  1  0.44126700  0.83041800  0.35248700  1
  O  O10  1  0.55873300  0.33041800  0.14751300  1
  O  O11  1  0.94126700  0.16958200  0.64751300  1
  O  O12  1  0.94126700  0.33041800  0.14751300  1
  O  O13  1  0.55873300  0.16958200  0.64751300  1
  O  O14  1  0.44126700  0.66958200  0.85248700  1
  O  O15  1  0.05873300  0.83041800  0.35248700  1
  O  O16  1  0.00066900  0.05949700  0.94827000  1
  O  O17  1  0.49933100  0.44050300  0.44827000  1
  O  O18  1  0.50066900  0.94050300  0.05173000  1
  O  O19  1  0.99933100  0.55949700  0.55173000  1
  O  O20  1  0.99933100  0.94050300  0.05173000  1
  O  O21  1  0.50066900  0.55949700  0.55173000  1
  O  O22  1  0.49933100  0.05949700  0.94827000  1
  O  O23  1  0.00066900  0.44050300  0.44827000  1
loop_
_geom_bond_atom_site_label_1
_geom_bond_atom_site_label_2
_geom_bond_distance
_geom_bond_site_symmetry_2
O0 S0 1.487837 1_555
O0 Th1 2.442369 1_556
O1 S1 1.487837 1_545
O1 Th0 2.442369 1_555
O2 S2 1.487837 1_555
O2 Th3 2.442369 1_554
O3 S3 1.487837 1_565
O3 Th2 2.442369 1_555
O4 S0 1.488049 1_555
O4 Th0 2.398289 1_555
O5 S1 1.488049 1_545
O5 Th1 2.398289 1_555
O6 S2 1.488049 1_555
O6 Th2 2.398289 1_555
O7 S3 1.488049 1_565
O7 Th3 2.398289 1_555
O8 S0 1.480450 1_555
O8 Th3 2.424486 1_455
O9 S1 1.480450 1_555
O9 Th2 2.424486 1_555
O10 S2 1.480450 1_555
O10 Th1 2.424486 1_555
O11 S3 1.480450 1_555
O11 Th0 2.424486 1_655
O12 S2 1.480450 1_555
O12 Th1 2.424486 1_655
O13 S3 1.480450 1_555
O13 Th0 2.424486 1_555
O14 S0 1.480450 1_555
O14 Th3 2.424486 1_555
O15 S1 1.480450 1_555
O15 Th2 2.424486 1_455
O16 O20 1.515136 1_446
O16 Th3 2.351184 1_445
O16 Th1 2.353558 1_556
O17 O21 1.515136 1_555
O17 Th2 2.351184 1_555
O17 Th0 2.353558 1_555
O18 O22 1.515136 1_564
O18 Th1 2.351184 1_565
O18 Th3 2.353558 1_554
O19 O23 1.515136 1_655
O19 Th0 2.351184 1_655
O19 Th2 2.353558 1_555
O20 Th1 2.351184 1_665
O20 Th3 2.353558 1_554
O21 Th0 2.351184 1_555
O21 Th2 2.353558 1_555
O22 Th3 2.351184 1_545
O22 Th1 2.353558 1_556
O23 Th2 2.351184 1_455
O23 Th0 2.353558 1_555
