# generated using pymatgen
data_LiV2O4
_symmetry_space_group_name_H-M   'P 1'
_cell_length_a   5.28240661
_cell_length_b   10.55222035
_cell_length_c   10.11043458
_cell_angle_alpha   16.63486002
_cell_angle_beta   28.08216782
_cell_angle_gamma   32.29081485
_symmetry_Int_Tables_number   1
_chemical_formula_structural   LiV2O4
_chemical_formula_sum   'Li1 V2 O4'
_cell_volume   75.94550216
_cell_formula_units_Z   1
loop_
 _symmetry_equiv_pos_site_id
 _symmetry_equiv_pos_as_xyz
  1  'x, y, z'
loop_
 _atom_site_type_symbol
 _atom_site_label
 _atom_site_symmetry_multiplicity
 _atom_site_fract_x
 _atom_site_fract_y
 _atom_site_fract_z
 _atom_site_occupancy
  Li  Li0  1  0.50000000  0.50000000  0.50000000  1
  V  V0  1  0.00000400  0.49999800  0.99999900  1
  V  V1  1  0.99999400  0.00000200  0.00000300  1
  O  O0  1  0.28985100  0.49994000  0.25357000  1
  O  O1  1  0.71015000  0.50006000  0.74642900  1
  O  O2  1  0.25351700  0.00005000  0.26388600  1
  O  O3  1  0.74648400  0.99995000  0.73611300  1
loop_
_geom_bond_atom_site_label_1
_geom_bond_atom_site_label_2
_geom_bond_distance
_geom_bond_site_symmetry_2
Li0 O2 2.228438 1_556
Li0 O3 2.228443 1_554
Li0 O2 2.228762 1_565
Li0 O3 2.228766 1_545
Li0 O0 2.295925 1_655
Li0 O1 2.295925 1_455
O0 V0 1.917212 1_654
O0 V1 2.025480 1_456
O0 V1 2.025862 1_465
O1 V0 1.917203 1_555
O1 V1 2.025449 1_565
O1 V1 2.025813 1_556
O2 V1 2.025451 1_555
O2 V0 2.032459 1_554
O2 V0 2.032586 1_545
O3 V1 2.025461 1_466
O3 V0 2.032484 1_655
O3 V0 2.032593 1_664
