# generated using pymatgen
data_Na5(NiO2)9
_symmetry_space_group_name_H-M   'P 1'
_cell_length_a   5.71641566
_cell_length_b   7.44865374
_cell_length_c   8.56867784
_cell_angle_alpha   100.67377620
_cell_angle_beta   105.59232226
_cell_angle_gamma   95.32987914
_symmetry_Int_Tables_number   1
_chemical_formula_structural   Na5(NiO2)9
_chemical_formula_sum   'Na5 Ni9 O18'
_cell_volume   341.39765187
_cell_formula_units_Z   1
loop_
 _symmetry_equiv_pos_site_id
 _symmetry_equiv_pos_as_xyz
  1  'x, y, z'
loop_
 _atom_site_type_symbol
 _atom_site_label
 _atom_site_symmetry_multiplicity
 _atom_site_fract_x
 _atom_site_fract_y
 _atom_site_fract_z
 _atom_site_occupancy
  Na  Na0  1  0.00563176  0.34092599  0.87040780  1
  Na  Na1  1  0.00000000  0.00000000  0.00000000  1
  Na  Na2  1  0.99436824  0.65907401  0.12959220  1
  Na  Na3  1  0.00445590  0.70711505  0.48710289  1
  Na  Na4  1  0.99554410  0.29288495  0.51289711  1
  Ni  Ni0  1  0.50137540  0.83231833  0.72569028  1
  Ni  Ni1  1  0.50706348  0.49928369  0.83390924  1
  Ni  Ni2  1  0.50253935  0.16720584  0.94054063  1
  Ni  Ni3  1  0.49746065  0.83279416  0.05945937  1
  Ni  Ni4  1  0.49293652  0.50071631  0.16609076  1
  Ni  Ni5  1  0.49862460  0.16768167  0.27430972  1
  Ni  Ni6  1  0.49379427  0.83440237  0.39189891  1
  Ni  Ni7  1  0.50000000  0.50000000  0.50000000  1
  Ni  Ni8  1  0.50620573  0.16559763  0.60810109  1
  O  O0  1  0.69705150  0.39992726  0.66582684  1
  O  O1  1  0.32809402  0.25728459  0.75480628  1
  O  O2  1  0.68337980  0.08153350  0.79493392  1
  O  O3  1  0.68629098  0.73959440  0.92584464  1
  O  O4  1  0.32302596  0.92678233  0.88127531  1
  O  O5  1  0.68952021  0.40343187  0.00493360  1
  O  O6  1  0.31047979  0.59656813  0.99506640  1
  O  O7  1  0.67697404  0.07321767  0.11872469  1
  O  O8  1  0.67190598  0.74271541  0.24519372  1
  O  O9  1  0.31370902  0.26040560  0.07415536  1
  O  O10  1  0.31662020  0.91846650  0.20506608  1
  O  O11  1  0.67526675  0.42111996  0.34976767  1
  O  O12  1  0.30294850  0.60007274  0.33417316  1
  O  O13  1  0.68233603  0.06626192  0.46922376  1
  O  O14  1  0.32985741  0.25972812  0.43260966  1
  O  O15  1  0.67014259  0.74027188  0.56739034  1
  O  O16  1  0.31766397  0.93373808  0.53077624  1
  O  O17  1  0.32473325  0.57888004  0.65023233  1
loop_
_geom_bond_atom_site_label_1
_geom_bond_atom_site_label_2
_geom_bond_distance
_geom_bond_site_symmetry_2
Na0 O0 2.268214 1_455
Na0 O6 2.330901 1_555
Na0 O9 2.332473 1_556
Na0 O1 2.394478 1_555
Na0 O2 2.404213 1_455
Na0 O5 2.426542 1_456
Na1 O10 2.371093 1_545
Na1 O2 2.371093 1_454
Na1 O3 2.380469 1_444
Na1 O9 2.380469 1_555
Na1 O7 2.394480 1_455
Na1 O4 2.394480 1_544
Na2 O12 2.268214 1_655
Na2 O5 2.330901 1_555
Na2 O3 2.332473 1_554
Na2 O8 2.394478 1_555
Na2 O10 2.404213 1_655
Na2 O6 2.426542 1_654
Na3 O15 2.217658 1_455
Na3 O16 2.244875 1_555
Na3 O17 2.379477 1_555
Na3 O8 2.481877 1_455
Na3 O12 2.516365 1_555
Na3 O11 2.569084 1_455
Na4 O14 2.217658 1_655
Na4 O13 2.244875 1_555
Na4 O11 2.379477 1_555
Na4 O1 2.481877 1_655
Na4 O0 2.516365 1_555
Na4 O17 2.569084 1_655
Ni0 O15 1.929390 1_555
Ni0 O2 1.944674 1_565
Ni0 O4 1.956600 1_555
Ni0 O17 1.960639 1_555
Ni0 O16 2.033431 1_555
Ni0 O3 2.033630 1_555
Ni1 O5 1.857255 1_556
Ni1 O17 1.869097 1_555
Ni1 O3 1.891400 1_555
Ni1 O1 1.894031 1_555
Ni1 O6 2.075968 1_555
Ni1 O0 2.096871 1_555
Ni2 O9 1.862006 1_556
Ni2 O5 1.875338 1_556
Ni2 O7 1.876897 1_556
Ni2 O2 1.885077 1_555
Ni2 O4 1.886680 1_545
Ni2 O1 1.908972 1_555
Ni3 O3 1.862006 1_554
Ni3 O6 1.875338 1_554
Ni3 O4 1.876897 1_554
Ni3 O10 1.885077 1_555
Ni3 O7 1.886680 1_565
Ni3 O8 1.908972 1_555
Ni4 O6 1.857255 1_554
Ni4 O11 1.869097 1_555
Ni4 O9 1.891400 1_555
Ni4 O8 1.894031 1_555
Ni4 O5 2.075968 1_555
Ni4 O12 2.096871 1_555
Ni5 O14 1.929390 1_555
Ni5 O10 1.944674 1_545
Ni5 O7 1.956600 1_555
Ni5 O11 1.960639 1_555
Ni5 O13 2.033431 1_555
Ni5 O9 2.033630 1_555
Ni6 O13 1.851947 1_565
Ni6 O16 1.852999 1_555
Ni6 O15 1.864402 1_555
Ni6 O12 1.875563 1_555
Ni6 O8 1.892749 1_555
Ni6 O10 1.896913 1_555
Ni7 O14 1.863950 1_555
Ni7 O15 1.863950 1_555
Ni7 O11 1.878472 1_555
Ni7 O17 1.878472 1_555
Ni7 O12 1.879198 1_555
Ni7 O0 1.879198 1_555
Ni8 O16 1.851947 1_545
Ni8 O13 1.852999 1_555
Ni8 O14 1.864402 1_555
Ni8 O0 1.875563 1_555
Ni8 O1 1.892749 1_555
Ni8 O2 1.896913 1_555
