# generated using pymatgen
data_NaV2(PO4)3
_symmetry_space_group_name_H-M   'P 1'
_cell_length_a   8.86015600
_cell_length_b   8.51647100
_cell_length_c   14.44866729
_cell_angle_alpha   55.84505049
_cell_angle_beta   90.00000000
_cell_angle_gamma   90.00000000
_symmetry_Int_Tables_number   1
_chemical_formula_structural   NaV2(PO4)3
_chemical_formula_sum   'Na4 V8 P12 O48'
_cell_volume   902.21184166
_cell_formula_units_Z   4
loop_
 _symmetry_equiv_pos_site_id
 _symmetry_equiv_pos_as_xyz
  1  'x, y, z'
loop_
 _atom_site_type_symbol
 _atom_site_label
 _atom_site_symmetry_multiplicity
 _atom_site_fract_x
 _atom_site_fract_y
 _atom_site_fract_z
 _atom_site_occupancy
  Na  Na0  1  0.80582700  0.97717900  0.34534400  1
  Na  Na1  1  0.30582700  0.02282100  0.15465600  1
  Na  Na2  1  0.69417300  0.97717900  0.84534400  1
  Na  Na3  1  0.19417300  0.02282100  0.65465600  1
  V  V0  1  0.53413500  0.36599100  0.88621600  1
  V  V1  1  0.96730700  0.14506500  0.10911100  1
  V  V2  1  0.03413500  0.63400900  0.61378400  1
  V  V3  1  0.46730700  0.85493500  0.39088900  1
  V  V4  1  0.53269300  0.14506500  0.60911100  1
  V  V5  1  0.96586500  0.36599100  0.38621600  1
  V  V6  1  0.03269300  0.85493500  0.89088900  1
  V  V7  1  0.46586500  0.63400900  0.11378400  1
  P  P0  1  0.25050100  0.47035900  0.00074900  1
  P  P1  1  0.38679400  0.73947500  0.65103100  1
  P  P2  1  0.12152100  0.03927800  0.35453000  1
  P  P3  1  0.62152100  0.96072200  0.14547000  1
  P  P4  1  0.88679400  0.26052500  0.84896900  1
  P  P5  1  0.75050100  0.52964100  0.49925100  1
  P  P6  1  0.24949900  0.47035900  0.50074900  1
  P  P7  1  0.11320600  0.73947500  0.15103100  1
  P  P8  1  0.37847900  0.03927800  0.85453000  1
  P  P9  1  0.87847900  0.96072200  0.64547000  1
  P  P10  1  0.61320600  0.26052500  0.34896900  1
  P  P11  1  0.74949900  0.52964100  0.99925100  1
  O  O0  1  0.85677300  0.36548100  0.07449900  1
  O  O1  1  0.89393400  0.80522800  0.62153000  1
  O  O2  1  0.57731000  0.09479300  0.33862300  1
  O  O3  1  0.67883900  0.50982000  0.90690200  1
  O  O4  1  0.37544800  0.46811700  0.92792700  1
  O  O5  1  0.21359000  0.71463100  0.66337100  1
  O  O6  1  0.43226000  0.80749200  0.52887500  1
  O  O7  1  0.01740100  0.09786400  0.25262500  1
  O  O8  1  0.16608100  0.27966700  0.05941700  1
  O  O9  1  0.28333000  0.02049400  0.32400900  1
  O  O10  1  0.05814600  0.84923900  0.45316400  1
  O  O11  1  0.48076700  0.56180700  0.72970400  1
  O  O12  1  0.98076700  0.43819300  0.77029600  1
  O  O13  1  0.55814600  0.15076100  0.04683600  1
  O  O14  1  0.78333000  0.97950600  0.17599100  1
  O  O15  1  0.66608100  0.72033300  0.44058300  1
  O  O16  1  0.93226000  0.19250800  0.97112500  1
  O  O17  1  0.51740100  0.90213600  0.24737500  1
  O  O18  1  0.71359000  0.28536900  0.83662900  1
  O  O19  1  0.87544800  0.53188300  0.57207300  1
  O  O20  1  0.17883900  0.49018000  0.59309800  1
  O  O21  1  0.39393400  0.19477200  0.87847000  1
  O  O22  1  0.07731000  0.90520700  0.16137700  1
  O  O23  1  0.35677300  0.63451900  0.42550100  1
  O  O24  1  0.64322700  0.36548100  0.57449900  1
  O  O25  1  0.92269000  0.09479300  0.83862300  1
  O  O26  1  0.60606600  0.80522800  0.12153000  1
  O  O27  1  0.82116100  0.50982000  0.40690200  1
  O  O28  1  0.12455200  0.46811700  0.42792700  1
  O  O29  1  0.28641000  0.71463100  0.16337100  1
  O  O30  1  0.48259900  0.09786400  0.75262500  1
  O  O31  1  0.06774000  0.80749200  0.02887500  1
  O  O32  1  0.33391900  0.27966700  0.55941700  1
  O  O33  1  0.21667000  0.02049400  0.82400900  1
  O  O34  1  0.44185400  0.84923900  0.95316400  1
  O  O35  1  0.01923300  0.56180700  0.22970400  1
  O  O36  1  0.51923300  0.43819300  0.27029600  1
  O  O37  1  0.94185400  0.15076100  0.54683600  1
  O  O38  1  0.71667000  0.97950600  0.67599100  1
  O  O39  1  0.83391900  0.72033300  0.94058300  1
  O  O40  1  0.98259900  0.90213600  0.74737500  1
  O  O41  1  0.56774000  0.19250800  0.47112500  1
  O  O42  1  0.78641000  0.28536900  0.33662900  1
  O  O43  1  0.62455200  0.53188300  0.07207300  1
  O  O44  1  0.32116100  0.49018000  0.09309800  1
  O  O45  1  0.42269000  0.90520700  0.66137700  1
  O  O46  1  0.10606600  0.19477200  0.37847000  1
  O  O47  1  0.14322700  0.63451900  0.92550100  1
loop_
_geom_bond_atom_site_label_1
_geom_bond_atom_site_label_2
_geom_bond_distance
_geom_bond_site_symmetry_2
Na0 O7 2.195232 1_665
Na0 O15 2.198084 1_555
Na0 O2 2.236721 1_565
Na0 O14 2.443996 1_555
Na0 O42 2.561903 1_565
Na0 O10 2.589592 1_655
Na1 O17 2.195232 1_545
Na1 O8 2.198084 1_555
Na1 O22 2.236721 1_545
Na1 O9 2.443996 1_555
Na1 O29 2.561903 1_545
Na1 O13 2.589592 1_555
Na2 O30 2.195232 1_565
Na2 O39 2.198084 1_555
Na2 O25 2.236721 1_565
Na2 O38 2.443996 1_555
Na2 O18 2.561903 1_565
Na2 O34 2.589592 1_555
Na3 O40 2.195232 1_445
Na3 O32 2.198084 1_555
Na3 O45 2.236721 1_545
Na3 O33 2.443996 1_555
Na3 O5 2.561903 1_545
Na3 O37 2.589592 1_455
O0 P11 1.527502 1_554
O0 V1 1.918037 1_555
O1 P9 1.551260 1_555
O1 V2 1.965995 1_655
O2 P10 1.533822 1_555
O2 V3 1.990190 1_545
O3 P11 1.566451 1_555
O3 V0 1.909089 1_555
O4 P0 1.534786 1_556
O4 V0 1.919653 1_555
O5 P1 1.545716 1_555
O5 V2 2.016244 1_555
O6 P1 1.570033 1_555
O6 V3 1.824841 1_555
O7 P2 1.563016 1_555
O7 V1 1.929347 1_455
O8 P0 1.539377 1_555
O8 V1 2.001781 1_455
O9 P2 1.534483 1_555
O9 V3 2.012221 1_545
O10 P2 1.541363 1_565
O10 V2 2.003601 1_555
O11 P1 1.530870 1_555
O11 V0 1.970781 1_555
O12 P4 1.530870 1_555
O12 V2 1.970781 1_655
O13 P3 1.541363 1_545
O13 V0 2.003601 1_554
O14 P3 1.534483 1_555
O14 V1 2.012221 1_565
O15 P5 1.539377 1_555
O15 V3 2.001781 1_555
O16 P4 1.570033 1_555
O16 V1 1.824841 1_556
O17 P3 1.563016 1_555
O17 V3 1.929347 1_555
O18 P4 1.545716 1_555
O18 V0 2.016244 1_555
O19 P5 1.534786 1_555
O19 V2 1.919653 1_655
O20 P6 1.566451 1_555
O20 V2 1.909089 1_555
O21 P8 1.551260 1_555
O21 V0 1.965995 1_555
O22 P7 1.533822 1_555
O22 V1 1.990190 1_465
O23 P6 1.527502 1_555
O23 V3 1.918037 1_555
O24 P5 1.527502 1_555
O24 V4 1.918037 1_555
O25 P4 1.533822 1_555
O25 V6 1.990190 1_645
O26 P3 1.551260 1_555
O26 V7 1.965995 1_555
O27 P5 1.566451 1_555
O27 V5 1.909089 1_555
O28 P6 1.534786 1_555
O28 V5 1.919653 1_455
O29 P7 1.545716 1_555
O29 V7 2.016244 1_555
O30 P8 1.563016 1_555
O30 V4 1.929347 1_555
O31 P7 1.570033 1_555
O31 V6 1.824841 1_554
O32 P6 1.539377 1_555
O32 V4 2.001781 1_555
O33 P8 1.534483 1_555
O33 V6 2.012221 1_545
O34 P8 1.541363 1_565
O34 V7 2.003601 1_556
O35 P7 1.530870 1_555
O35 V5 1.970781 1_455
O36 P10 1.530870 1_555
O36 V7 1.970781 1_555
O37 P9 1.541363 1_545
O37 V5 2.003601 1_555
O38 P9 1.534483 1_555
O38 V4 2.012221 1_565
O39 P11 1.539377 1_555
O39 V6 2.001781 1_655
O40 P9 1.563016 1_555
O40 V6 1.929347 1_655
O41 P10 1.570033 1_555
O41 V4 1.824841 1_555
O42 P10 1.545716 1_555
O42 V5 2.016244 1_555
O43 P11 1.534786 1_554
O43 V7 1.919653 1_555
O44 P0 1.566451 1_555
O44 V7 1.909089 1_555
O45 P1 1.533822 1_555
O45 V4 1.990190 1_565
O46 P2 1.551260 1_555
O46 V5 1.965995 1_455
O47 P0 1.527502 1_556
O47 V6 1.918037 1_555
