# generated using pymatgen
data_Li7Ni(O2F)2
_symmetry_space_group_name_H-M   'P 1'
_cell_length_a   5.35613720
_cell_length_b   5.83111588
_cell_length_c   10.11206988
_cell_angle_alpha   83.23851276
_cell_angle_beta   80.05091951
_cell_angle_gamma   119.66298142
_symmetry_Int_Tables_number   1
_chemical_formula_structural   Li7Ni(O2F)2
_chemical_formula_sum   'Li14 Ni2 O8 F4'
_cell_volume   262.57584538
_cell_formula_units_Z   2
loop_
 _symmetry_equiv_pos_site_id
 _symmetry_equiv_pos_as_xyz
  1  'x, y, z'
loop_
 _atom_site_type_symbol
 _atom_site_label
 _atom_site_symmetry_multiplicity
 _atom_site_fract_x
 _atom_site_fract_y
 _atom_site_fract_z
 _atom_site_occupancy
  Li  Li0  1  0.09391200  0.03680500  0.22695300  1
  Li  Li1  1  0.09564200  0.62189700  0.74595500  1
  Li  Li2  1  0.48558000  0.94330000  0.38432100  1
  Li  Li3  1  0.53857200  0.57254600  0.11505700  1
  Li  Li4  1  0.26546800  0.21703400  0.44223100  1
  Li  Li5  1  0.23709400  0.72000100  0.96208700  1
  Li  Li6  1  0.30475300  0.34842200  0.67677100  1
  Li  Li7  1  0.72289400  0.23868300  0.06057700  1
  Li  Li8  1  0.75489200  0.77454900  0.52706700  1
  Li  Li9  1  0.47673700  0.49489200  0.89262600  1
  Li  Li10  1  0.52480700  0.02977100  0.61642000  1
  Li  Li11  1  0.93141600  0.46393500  0.27901600  1
  Li  Li12  1  0.89096400  0.90327000  0.75119000  1
  Li  Li13  1  0.65238800  0.14914100  0.83672500  1
  Ni  Ni0  1  0.04248200  0.03999000  0.95712800  1
  Ni  Ni1  1  0.00482100  0.49373600  0.50835700  1
  O  O0  1  0.08601100  0.82435300  0.39762200  1
  O  O1  1  0.24363700  0.96338900  0.80226000  1
  O  O2  1  0.36516100  0.19369800  0.02897300  1
  O  O3  1  0.34794800  0.68046100  0.56537100  1
  O  O4  1  0.06525600  0.36954000  0.89225500  1
  O  O5  1  0.65211900  0.30975900  0.46264800  1
  O  O6  1  0.65603800  0.83563300  0.93778900  1
  O  O7  1  0.93835300  0.15956000  0.60802300  1
  F  F0  1  0.25345100  0.39885200  0.27878300  1
  F  F1  1  0.90636800  0.60948300  0.11056700  1
  F  F2  1  0.75112700  0.05398100  0.21345600  1
  F  F3  1  0.71210700  0.55331800  0.71977500  1
loop_
_geom_bond_atom_site_label_1
_geom_bond_atom_site_label_2
_geom_bond_distance
_geom_bond_site_symmetry_2
Li0 O0 1.983525 1_545
Li0 O2 2.050311 1_555
Li1 O4 1.883512 1_555
Li1 O1 1.943782 1_555
Li1 O3 1.954760 1_555
Li2 O0 1.867810 1_555
Li2 O3 1.999711 1_555
Li2 O5 2.178355 1_565
Li3 O6 1.992465 1_554
Li3 O2 2.280763 1_555
Li4 O5 1.920818 1_555
Li4 O7 2.065005 1_455
Li4 O0 2.141262 1_545
Li5 O6 1.955277 1_555
Li5 O1 2.004634 1_555
Li5 O4 2.055398 1_555
Li6 O3 2.006039 1_555
Li6 O7 2.014936 1_455
Li6 O1 2.283932 1_545
Li6 O4 2.379571 1_555
Li7 O2 1.891059 1_555
Li7 O4 2.018079 1_654
Li8 O0 1.881913 1_655
Li8 O3 1.917419 1_555
Li8 O7 2.281039 1_565
Li9 O2 1.857117 1_556
Li9 O6 1.885520 1_555
Li9 O4 1.949529 1_555
Li10 O5 1.866084 1_555
Li10 O7 1.935685 1_555
Li10 O3 1.954331 1_545
Li10 O1 2.055022 1_545
Li11 O5 1.951937 1_555
Li11 O0 2.399000 1_655
Li12 O7 1.838972 1_565
Li12 O1 1.918866 1_655
Li12 O6 1.952535 1_555
Li13 O6 1.997275 1_545
Li13 O1 2.023166 1_545
Li13 O4 2.154803 1_655
Li13 O2 2.386341 1_556
Li13 O7 2.519695 1_555
Ni0 O2 1.836341 1_556
Ni0 O6 1.869736 1_445
Ni0 O4 1.892468 1_555
Ni0 O1 1.967441 1_545
Ni1 O5 1.829161 1_455
Ni1 O3 1.851714 1_555
Ni1 O0 1.911346 1_555
Ni1 O7 1.914813 1_455
F0 Li3 1.816472 1_555
F0 Li4 1.884567 1_555
F0 Li11 1.940595 1_455
F0 Li0 2.022746 1_555
F1 Li3 1.864414 1_555
F1 Li11 1.868427 1_555
F1 Li5 1.879024 1_654
F1 Li7 2.054794 1_555
F2 Li2 1.845116 1_545
F2 Li7 1.850038 1_555
F2 Li0 1.914405 1_655
F2 Li11 2.322925 1_555
F3 Li9 1.853027 1_555
F3 Li12 1.872330 1_555
F3 Li1 1.962079 1_655
F3 Li6 2.060829 1_555
F3 Li8 2.115457 1_555
F3 Li13 2.349940 1_555
