# generated using pymatgen
data_Li4Cr3GaO8
_symmetry_space_group_name_H-M   'P 1'
_cell_length_a   5.14049400
_cell_length_b   5.92846065
_cell_length_c   10.68779034
_cell_angle_alpha   73.90527060
_cell_angle_beta   76.11000092
_cell_angle_gamma   73.23146107
_symmetry_Int_Tables_number   1
_chemical_formula_structural   Li4Cr3GaO8
_chemical_formula_sum   'Li8 Cr6 Ga2 O16'
_cell_volume   295.06807581
_cell_formula_units_Z   2
loop_
 _symmetry_equiv_pos_site_id
 _symmetry_equiv_pos_as_xyz
  1  'x, y, z'
loop_
 _atom_site_type_symbol
 _atom_site_label
 _atom_site_symmetry_multiplicity
 _atom_site_fract_x
 _atom_site_fract_y
 _atom_site_fract_z
 _atom_site_occupancy
  Li  Li0  1  0.00000000  0.00000000  0.50000000  1
  Li  Li1  1  0.99998800  0.62480300  0.75014100  1
  Li  Li2  1  0.00001200  0.37519700  0.24985900  1
  Li  Li3  1  0.99997300  0.75009800  0.99989000  1
  Li  Li4  1  0.00000000  0.50000000  0.50000000  1
  Li  Li5  1  0.99949300  0.12525900  0.74994500  1
  Li  Li6  1  0.00050700  0.87474100  0.25005500  1
  Li  Li7  1  0.00002700  0.24990200  0.00011000  1
  Cr  Cr0  1  0.50000400  0.56231100  0.12510000  1
  Cr  Cr1  1  0.50019500  0.31241200  0.62482700  1
  Cr  Cr2  1  0.49999500  0.93747800  0.87482000  1
  Cr  Cr3  1  0.49980500  0.68758800  0.37517300  1
  Cr  Cr4  1  0.50000500  0.06252200  0.12518000  1
  Cr  Cr5  1  0.49999600  0.43768900  0.87490000  1
  Ga  Ga0  1  0.49996500  0.81270900  0.62488900  1
  Ga  Ga1  1  0.50003500  0.18729100  0.37511100  1
  O  O0  1  0.27527800  0.40094800  0.06040000  1
  O  O1  1  0.72595800  0.22371300  0.18961600  1
  O  O2  1  0.27376200  0.15065700  0.56036300  1
  O  O3  1  0.72564000  0.97363700  0.68935800  1
  O  O4  1  0.72472200  0.59905200  0.93960000  1
  O  O5  1  0.27404200  0.77628700  0.81038400  1
  O  O6  1  0.27464600  0.52594400  0.31052900  1
  O  O7  1  0.72540500  0.34895900  0.43938600  1
  O  O8  1  0.27558000  0.90107200  0.06022000  1
  O  O9  1  0.72435100  0.72386900  0.18976700  1
  O  O10  1  0.27459500  0.65104100  0.56061400  1
  O  O11  1  0.72535400  0.47405600  0.68947100  1
  O  O12  1  0.27564900  0.27613100  0.81023300  1
  O  O13  1  0.27436000  0.02636300  0.31064200  1
  O  O14  1  0.72442000  0.09892800  0.93978000  1
  O  O15  1  0.72623800  0.84934300  0.43963700  1
loop_
_geom_bond_atom_site_label_1
_geom_bond_atom_site_label_2
_geom_bond_distance
_geom_bond_site_symmetry_2
Li0 O2 2.162179 1_555
Li0 O15 2.162179 1_445
Li0 O3 2.165817 1_445
Li0 O13 2.165817 1_555
Li0 O7 2.168643 1_455
Li0 O10 2.168643 1_545
Li1 O5 2.166067 1_655
Li1 O10 2.167755 1_655
Li1 O3 2.167914 1_555
Li1 O11 2.168185 1_555
Li1 O4 2.168721 1_555
Li1 O12 2.168881 1_655
Li2 O1 2.166067 1_455
Li2 O7 2.167755 1_455
Li2 O13 2.167914 1_555
Li2 O6 2.168185 1_555
Li2 O0 2.168721 1_555
Li2 O9 2.168881 1_455
Li3 O5 2.166348 1_655
Li3 O14 2.169307 1_565
Li3 O4 2.169757 1_555
Li3 O0 2.170840 1_656
Li3 O8 2.171250 1_656
Li3 O9 2.172927 1_556
Li4 O6 2.167390 1_555
Li4 O11 2.167390 1_455
Li4 O15 2.167783 1_455
Li4 O2 2.167783 1_555
Li4 O10 2.168866 1_555
Li4 O7 2.168866 1_455
Li5 O11 2.166654 1_555
Li5 O2 2.167428 1_655
Li5 O3 2.167850 1_545
Li5 O5 2.168235 1_645
Li5 O14 2.171323 1_555
Li5 O12 2.172961 1_655
Li6 O6 2.166654 1_555
Li6 O15 2.167428 1_455
Li6 O13 2.167850 1_565
Li6 O1 2.168235 1_465
Li6 O8 2.171323 1_555
Li6 O9 2.172961 1_455
Li7 O1 2.166348 1_455
Li7 O8 2.169307 1_545
Li7 O0 2.169757 1_555
Li7 O4 2.170840 1_454
Li7 O14 2.171250 1_454
Li7 O12 2.172927 1_554
Cr0 O9 2.027835 1_555
Cr0 O0 2.028739 1_555
Cr0 O4 2.029450 1_554
Cr0 O8 2.029825 1_555
Cr0 O6 2.030039 1_555
Cr0 O1 2.031211 1_555
Cr1 O12 2.028312 1_555
Cr1 O7 2.029865 1_555
Cr1 O10 2.030023 1_555
Cr1 O3 2.031048 1_545
Cr1 O11 2.031344 1_555
Cr1 O2 2.035819 1_555
Cr2 O8 2.028014 1_556
Cr2 O12 2.028574 1_565
Cr2 O4 2.028725 1_555
Cr2 O14 2.029589 1_565
Cr2 O3 2.030867 1_555
Cr2 O5 2.031251 1_555
Cr3 O9 2.028312 1_555
Cr3 O10 2.029865 1_555
Cr3 O7 2.030023 1_555
Cr3 O13 2.031048 1_565
Cr3 O6 2.031344 1_555
Cr3 O15 2.035819 1_555
Cr4 O14 2.028014 1_554
Cr4 O9 2.028574 1_545
Cr4 O0 2.028725 1_555
Cr4 O8 2.029589 1_545
Cr4 O13 2.030867 1_555
Cr4 O1 2.031251 1_555
Cr5 O12 2.027835 1_555
Cr5 O4 2.028739 1_555
Cr5 O0 2.029450 1_556
Cr5 O14 2.029825 1_555
Cr5 O11 2.030039 1_555
Cr5 O5 2.031211 1_555
Ga0 O2 2.028898 1_565
Ga0 O3 2.029201 1_555
Ga0 O10 2.029909 1_555
Ga0 O15 2.030243 1_555
Ga0 O11 2.030525 1_555
Ga0 O5 2.031678 1_555
Ga1 O15 2.028898 1_545
Ga1 O13 2.029201 1_555
Ga1 O7 2.029909 1_555
Ga1 O2 2.030243 1_555
Ga1 O6 2.030525 1_555
Ga1 O1 2.031678 1_555
