# generated using pymatgen
data_Li2CuSiO4
_symmetry_space_group_name_H-M   'P 1'
_cell_length_a   5.14707000
_cell_length_b   6.89460000
_cell_length_c   10.09513351
_cell_angle_alpha   89.81344890
_cell_angle_beta   90.00000000
_cell_angle_gamma   90.00000000
_symmetry_Int_Tables_number   1
_chemical_formula_structural   Li2CuSiO4
_chemical_formula_sum   'Li8 Cu4 Si4 O16'
_cell_volume   358.24399112
_cell_formula_units_Z   4
loop_
 _symmetry_equiv_pos_site_id
 _symmetry_equiv_pos_as_xyz
  1  'x, y, z'
loop_
 _atom_site_type_symbol
 _atom_site_label
 _atom_site_symmetry_multiplicity
 _atom_site_fract_x
 _atom_site_fract_y
 _atom_site_fract_z
 _atom_site_occupancy
  Li  Li0  1  0.24367300  0.00364100  0.84419300  1
  Li  Li1  1  0.25632700  0.00364100  0.34419300  1
  Li  Li2  1  0.37891600  0.23943300  0.65793400  1
  Li  Li3  1  0.12108400  0.23943300  0.15793400  1
  Li  Li4  1  0.87891600  0.76056700  0.84206600  1
  Li  Li5  1  0.62108400  0.76056700  0.34206600  1
  Li  Li6  1  0.74367300  0.99635900  0.65580700  1
  Li  Li7  1  0.75632700  0.99635900  0.15580700  1
  Cu  Cu0  1  0.27380500  0.49897200  0.86632500  1
  Cu  Cu1  1  0.77380500  0.50102800  0.63367500  1
  Cu  Cu2  1  0.22619500  0.49897200  0.36632500  1
  Cu  Cu3  1  0.72619500  0.50102800  0.13367500  1
  Si  Si0  1  0.74885500  0.24147200  0.89830800  1
  Si  Si1  1  0.75114500  0.24147200  0.39830800  1
  Si  Si2  1  0.24885500  0.75852800  0.60169200  1
  Si  Si3  1  0.25114500  0.75852800  0.10169200  1
  O  O0  1  0.86219600  0.04144200  0.83936000  1
  O  O1  1  0.63780400  0.04144200  0.33936000  1
  O  O2  1  0.43428600  0.25238300  0.86007900  1
  O  O3  1  0.71182500  0.25107300  0.56096200  1
  O  O4  1  0.06571400  0.25238300  0.36007900  1
  O  O5  1  0.88885400  0.44030200  0.83285900  1
  O  O6  1  0.78817500  0.25107300  0.06096200  1
  O  O7  1  0.61114600  0.44030200  0.33285900  1
  O  O8  1  0.38885400  0.55969800  0.66714100  1
  O  O9  1  0.21182500  0.74892700  0.93903800  1
  O  O10  1  0.11114600  0.55969800  0.16714100  1
  O  O11  1  0.93428600  0.74761700  0.63992100  1
  O  O12  1  0.28817500  0.74892700  0.43903800  1
  O  O13  1  0.56571400  0.74761700  0.13992100  1
  O  O14  1  0.36219600  0.95855800  0.66064000  1
  O  O15  1  0.13780400  0.95855800  0.16064000  1
loop_
_geom_bond_atom_site_label_1
_geom_bond_atom_site_label_2
_geom_bond_distance
_geom_bond_site_symmetry_2
Li0 O14 1.976386 1_545
Li0 O0 1.981290 1_455
Li0 O2 1.982728 1_555
Li0 O9 2.004181 1_545
Li1 O15 1.976386 1_545
Li1 O1 1.981290 1_555
Li1 O4 1.982728 1_555
Li1 O12 2.004181 1_545
Li2 O14 1.938536 1_545
Li2 O3 1.974934 1_555
Li2 O2 2.062706 1_555
Li2 O8 2.210949 1_555
Li3 O15 1.938536 1_545
Li3 O6 1.974934 1_455
Li3 O4 2.062706 1_555
Li3 O10 2.210949 1_555
Li4 O0 1.938536 1_565
Li4 O9 1.974934 1_655
Li4 O11 2.062706 1_555
Li4 O5 2.210949 1_555
Li5 O1 1.938536 1_565
Li5 O12 1.974934 1_555
Li5 O13 2.062706 1_555
Li5 O7 2.210949 1_555
Li6 O0 1.976386 1_565
Li6 O14 1.981290 1_555
Li6 O11 1.982728 1_555
Li6 O3 2.004181 1_565
Li7 O1 1.976386 1_565
Li7 O15 1.981290 1_655
Li7 O13 1.982728 1_555
Li7 O6 2.004181 1_565
Cu0 O2 1.891405 1_555
Cu0 O9 1.902297 1_555
Cu0 O5 2.050483 1_455
Cu0 O8 2.136292 1_555
Cu1 O11 1.891405 1_555
Cu1 O3 1.902297 1_555
Cu1 O8 2.050483 1_555
Cu1 O5 2.136292 1_555
Cu2 O4 1.891405 1_555
Cu2 O12 1.902297 1_555
Cu2 O7 2.050483 1_555
Cu2 O10 2.136292 1_555
Cu3 O13 1.891405 1_555
Cu3 O6 1.902297 1_555
Cu3 O10 2.050483 1_655
Cu3 O7 2.136292 1_555
O0 Si0 1.613007 1_555
O1 Si1 1.613007 1_555
O2 Si0 1.666110 1_555
O3 Si1 1.655976 1_555
O4 Si1 1.666110 1_455
O5 Si0 1.682002 1_555
O6 Si0 1.655976 1_554
O7 Si1 1.682002 1_555
O8 Si2 1.682002 1_555
O9 Si3 1.655976 1_556
O10 Si3 1.682002 1_555
O11 Si2 1.666110 1_655
O12 Si2 1.655976 1_555
O13 Si3 1.666110 1_555
O14 Si2 1.613007 1_555
O15 Si3 1.613007 1_555
