# generated using pymatgen
data_Li7Mn(OF)3
_symmetry_space_group_name_H-M   'P 1'
_cell_length_a   6.32145984
_cell_length_b   10.03350181
_cell_length_c   9.37050833
_cell_angle_alpha   102.49095592
_cell_angle_beta   73.80645304
_cell_angle_gamma   93.22415578
_symmetry_Int_Tables_number   1
_chemical_formula_structural   Li7Mn(OF)3
_chemical_formula_sum   'Li28 Mn4 O12 F12'
_cell_volume   557.24213809
_cell_formula_units_Z   4
loop_
 _symmetry_equiv_pos_site_id
 _symmetry_equiv_pos_as_xyz
  1  'x, y, z'
loop_
 _atom_site_type_symbol
 _atom_site_label
 _atom_site_symmetry_multiplicity
 _atom_site_fract_x
 _atom_site_fract_y
 _atom_site_fract_z
 _atom_site_occupancy
  Li  Li0  1  0.35720800  0.98675500  0.11370700  1
  Li  Li1  1  0.85715600  0.48676300  0.11369600  1
  Li  Li2  1  0.60730200  0.23674500  0.61369900  1
  Li  Li3  1  0.10731900  0.73675100  0.61370200  1
  Li  Li4  1  0.65306100  0.00642000  0.23443300  1
  Li  Li5  1  0.15301000  0.50645200  0.23443700  1
  Li  Li6  1  0.90305700  0.25633600  0.73437700  1
  Li  Li7  1  0.40294000  0.75635700  0.73446000  1
  Li  Li8  1  0.03047900  0.01838000  0.33995700  1
  Li  Li9  1  0.53056700  0.51843700  0.33986400  1
  Li  Li10  1  0.28051200  0.26819200  0.83971200  1
  Li  Li11  1  0.78050800  0.76819500  0.83977500  1
  Li  Li12  1  0.70181400  0.71203900  0.17457300  1
  Li  Li13  1  0.20187700  0.21202900  0.17457800  1
  Li  Li14  1  0.95199600  0.96185600  0.67465700  1
  Li  Li15  1  0.45198100  0.46186900  0.67468100  1
  Li  Li16  1  0.12723500  0.73791500  0.25040100  1
  Li  Li17  1  0.62738400  0.23788500  0.25028300  1
  Li  Li18  1  0.37743200  0.98763000  0.75058900  1
  Li  Li19  1  0.87740100  0.48760500  0.75059900  1
  Li  Li20  1  0.33252300  0.99560100  0.45062400  1
  Li  Li21  1  0.83255200  0.49557100  0.45061600  1
  Li  Li22  1  0.58233700  0.24547000  0.95036600  1
  Li  Li23  1  0.08230100  0.74548500  0.95039900  1
  Li  Li24  1  0.36867600  0.75188900  0.38915100  1
  Li  Li25  1  0.86869700  0.25187200  0.38918000  1
  Li  Li26  1  0.61896600  0.00182400  0.88916400  1
  Li  Li27  1  0.11892900  0.50181700  0.88915900  1
  Mn  Mn0  1  0.27829000  0.27726700  0.49007900  1
  Mn  Mn1  1  0.52826300  0.52688600  0.99030200  1
  Mn  Mn2  1  0.77780900  0.77714600  0.49027500  1
  Mn  Mn3  1  0.02813900  0.02716300  0.99040100  1
  O  O0  1  0.35437600  0.11168800  0.30250300  1
  O  O1  1  0.85437000  0.61168700  0.30251600  1
  O  O2  1  0.60439500  0.36167000  0.80245700  1
  O  O3  1  0.10440600  0.86168700  0.80248700  1
  O  O4  1  0.39626800  0.62471200  0.21064300  1
  O  O5  1  0.89622100  0.12472900  0.21069300  1
  O  O6  1  0.64641400  0.87448000  0.71073400  1
  O  O7  1  0.14643300  0.37456400  0.71061600  1
  O  O8  1  0.10015900  0.85927400  0.46198600  1
  O  O9  1  0.60026300  0.35933900  0.46192800  1
  O  O10  1  0.35020800  0.10923800  0.96200100  1
  O  O11  1  0.85020300  0.60923100  0.96199000  1
  F  F0  1  0.64348200  0.90524500  0.03746600  1
  F  F1  1  0.14327600  0.40520700  0.03754600  1
  F  F2  1  0.89354100  0.15532700  0.53746800  1
  F  F3  1  0.39387400  0.65527800  0.53730000  1
  F  F4  1  0.11487900  0.86239000  0.13090700  1
  F  F5  1  0.61489100  0.36240200  0.13088200  1
  F  F6  1  0.36670800  0.11181900  0.63115200  1
  F  F7  1  0.86671100  0.61182400  0.63115500  1
  F  F8  1  0.60507200  0.87741000  0.35791000  1
  F  F9  1  0.10508600  0.37740300  0.35790000  1
  F  F10  1  0.85507500  0.12741500  0.85791500  1
  F  F11  1  0.35506900  0.62741100  0.85790300  1
loop_
_geom_bond_atom_site_label_1
_geom_bond_atom_site_label_2
_geom_bond_distance
_geom_bond_site_symmetry_2
Li0 O0 1.930537 1_565
Li0 O10 2.080861 1_564
Li1 O1 1.930731 1_555
Li1 O11 2.080677 1_554
Li2 O2 1.930126 1_555
Li2 O9 2.082242 1_555
Li3 O3 1.930363 1_555
Li3 O8 2.081482 1_555
Li4 O5 1.881382 1_555
Li4 O0 2.085330 1_555
Li5 O4 1.881559 1_555
Li5 O1 2.084921 1_455
Li6 O7 1.881914 1_655
Li6 O2 2.085527 1_555
Li7 O6 1.881727 1_555
Li7 O3 2.084848 1_555
Li8 O5 2.135516 1_455
Li8 O0 2.172009 1_555
Li8 O8 2.280280 1_545
Li9 O4 2.134872 1_555
Li9 O1 2.171258 1_555
Li9 O9 2.280483 1_555
Li10 O7 2.133767 1_555
Li10 O2 2.172652 1_555
Li10 O10 2.280791 1_555
Li11 O6 2.132855 1_555
Li11 O3 2.172790 1_655
Li11 O11 2.280380 1_555
Li12 O11 2.022331 1_554
Li12 O4 2.046033 1_555
Li12 O1 2.158113 1_555
Li13 O10 2.022154 1_554
Li13 O5 2.046527 1_455
Li13 O0 2.157687 1_555
Li14 O8 2.021904 1_655
Li14 O6 2.046433 1_555
Li14 O3 2.155583 1_655
Li15 O9 2.022473 1_555
Li15 O7 2.045960 1_555
Li15 O2 2.155388 1_555
Li16 O4 2.000512 1_555
Li16 O8 2.057370 1_555
Li16 O1 2.090406 1_455
Li17 O5 1.999486 1_555
Li17 O9 2.058154 1_555
Li17 O0 2.091005 1_555
Li18 O6 1.999781 1_555
Li18 O10 2.056883 1_565
Li18 O3 2.089130 1_555
Li19 O7 1.999207 1_655
Li19 O11 2.056819 1_555
Li19 O2 2.088940 1_555
Li20 O8 1.946712 1_555
Li20 O0 1.968877 1_565
Li21 O9 1.945741 1_555
Li21 O1 1.968968 1_555
Li22 O10 1.945024 1_555
Li22 O2 1.967895 1_555
Li23 O11 1.945036 1_455
Li23 O3 1.967886 1_555
Li24 O4 1.842729 1_555
Li24 O8 1.936335 1_555
Li25 O5 1.842465 1_555
Li25 O9 1.936356 1_555
Li26 O6 1.843144 1_545
Li26 O10 1.937722 1_555
Li27 O7 1.843418 1_555
Li27 O11 1.937559 1_455
Mn0 O7 2.043645 1_555
Mn0 O0 2.106186 1_555
Mn0 O9 2.120439 1_555
Mn1 O4 2.043825 1_556
Mn1 O2 2.105454 1_555
Mn1 O11 2.121154 1_555
Mn2 O6 2.042725 1_555
Mn2 O1 2.106590 1_555
Mn2 O8 2.122719 1_655
Mn3 O5 2.042645 1_456
Mn3 O3 2.107493 1_545
Mn3 O10 2.120861 1_555
F0 Li26 1.900980 1_564
F0 Li0 1.909652 1_555
F0 Li4 1.919807 1_565
F0 Li11 2.051805 1_554
F0 Mn3 2.627578 1_664
F1 Li27 1.901542 1_554
F1 Li1 1.908978 1_455
F1 Li5 1.919687 1_555
F1 Li10 2.052765 1_554
F1 Mn1 2.628297 1_554
F2 Li25 1.901289 1_555
F2 Li2 1.909088 1_555
F2 Li6 1.918704 1_555
F2 Li8 2.050094 1_655
F2 Mn0 2.628206 1_655
F3 Li24 1.901315 1_555
F3 Li3 1.911070 1_555
F3 Li7 1.920176 1_555
F3 Li9 2.048792 1_555
F3 Mn2 2.623458 1_555
F4 Li16 1.866642 1_555
F4 Li23 1.894245 1_554
F4 Li0 1.914139 1_555
F4 Li8 2.180903 1_565
F4 Mn3 2.492704 1_564
F5 Li17 1.866535 1_555
F5 Li22 1.894368 1_554
F5 Li1 1.913814 1_555
F5 Li9 2.180699 1_555
F5 Mn1 2.490636 1_554
F6 Li18 1.861419 1_545
F6 Li20 1.894820 1_545
F6 Li2 1.909588 1_555
F6 Li10 2.180308 1_555
F6 Mn0 2.506251 1_555
F7 Li19 1.861658 1_555
F7 Li21 1.894994 1_555
F7 Li3 1.909659 1_655
F7 Li11 2.180676 1_555
F7 Mn2 2.505177 1_555
F8 Li4 1.874625 1_565
F8 Li24 1.899668 1_555
F8 Li20 2.019594 1_555
F8 Li12 2.091311 1_555
F8 Mn2 2.271902 1_555
F9 Li5 1.874869 1_555
F9 Li25 1.899731 1_455
F9 Li21 2.019397 1_455
F9 Li13 2.091283 1_555
F9 Mn0 2.271739 1_555
F10 Li6 1.874312 1_555
F10 Li26 1.898851 1_555
F10 Li22 2.019611 1_555
F10 Li14 2.092206 1_545
F10 Mn3 2.274071 1_655
F11 Li7 1.873909 1_555
F11 Li27 1.899015 1_555
F11 Li23 2.019886 1_555
F11 Li15 2.091900 1_555
F11 Mn1 2.275590 1_555
