# generated using pymatgen
data_Li8Mn7V(PO4)12
_symmetry_space_group_name_H-M   'P 1'
_cell_length_a   8.54867800
_cell_length_b   8.82444709
_cell_length_c   12.06812581
_cell_angle_alpha   90.32846245
_cell_angle_beta   90.19678759
_cell_angle_gamma   90.55371856
_symmetry_Int_Tables_number   1
_chemical_formula_structural   Li8Mn7V(PO4)12
_chemical_formula_sum   'Li8 Mn7 V1 P12 O48'
_cell_volume   910.32449387
_cell_formula_units_Z   1
loop_
 _symmetry_equiv_pos_site_id
 _symmetry_equiv_pos_as_xyz
  1  'x, y, z'
loop_
 _atom_site_type_symbol
 _atom_site_label
 _atom_site_symmetry_multiplicity
 _atom_site_fract_x
 _atom_site_fract_y
 _atom_site_fract_z
 _atom_site_occupancy
  Li  Li0  1  0.21586900  0.72262600  0.18179500  1
  Li  Li1  1  0.21931800  0.77820700  0.81804400  1
  Li  Li2  1  0.28066300  0.22448300  0.31824500  1
  Li  Li3  1  0.28149800  0.27715800  0.68129700  1
  Li  Li4  1  0.71644400  0.72731300  0.31621200  1
  Li  Li5  1  0.71520900  0.78132900  0.68061800  1
  Li  Li6  1  0.78161300  0.22323000  0.18263900  1
  Li  Li7  1  0.78441500  0.27932900  0.82236200  1
  Mn  Mn0  1  0.25039900  0.96346700  0.61501400  1
  Mn  Mn1  1  0.25056400  0.53753500  0.38741200  1
  Mn  Mn2  1  0.25133600  0.03675400  0.11303800  1
  Mn  Mn3  1  0.25302700  0.46228200  0.88752900  1
  Mn  Mn4  1  0.74916700  0.53782500  0.11250800  1
  Mn  Mn5  1  0.75006000  0.96450400  0.88642800  1
  Mn  Mn6  1  0.74815300  0.03550700  0.38609500  1
  V  V0  1  0.75569000  0.46247100  0.61197900  1
  P  P0  1  0.03540700  0.24724400  0.49713600  1
  P  P1  1  0.10488000  0.39574300  0.14425300  1
  P  P2  1  0.10692700  0.10561500  0.85411800  1
  P  P3  1  0.39675700  0.60240600  0.65049200  1
  P  P4  1  0.39334300  0.89750800  0.35308700  1
  P  P5  1  0.46632400  0.74950400  0.00071700  1
  P  P6  1  0.53403200  0.25167300  0.00103300  1
  P  P7  1  0.60268400  0.39706700  0.35384400  1
  P  P8  1  0.60549000  0.10700800  0.64696600  1
  P  P9  1  0.89833800  0.60581000  0.84939700  1
  P  P10  1  0.89424200  0.89642600  0.14512800  1
  P  P11  1  0.96766100  0.74580500  0.49912900  1
  O  O0  1  0.06166500  0.63735800  0.42685800  1
  O  O1  1  0.05963500  0.85005000  0.57726900  1
  O  O2  1  0.07704800  0.89825200  0.15553600  1
  O  O3  1  0.07965200  0.60137100  0.83807300  1
  O  O4  1  0.13371200  0.17059900  0.58526400  1
  O  O5  1  0.13820400  0.33516900  0.41658900  1
  O  O6  1  0.15333100  0.43603300  0.02559000  1
  O  O7  1  0.15649600  0.06177500  0.97149000  1
  O  O8  1  0.15678300  0.23313400  0.17771700  1
  O  O9  1  0.16034300  0.26859500  0.82183500  1
  O  O10  1  0.17820500  0.51474200  0.22273100  1
  O  O11  1  0.17815700  0.98646200  0.77419400  1
  O  O12  1  0.32177700  0.01867600  0.27356600  1
  O  O13  1  0.32718600  0.47985500  0.72984100  1
  O  O14  1  0.35095200  0.76187400  0.68517800  1
  O  O15  1  0.34084100  0.73752600  0.31935500  1
  O  O16  1  0.34644800  0.55853800  0.53400400  1
  O  O17  1  0.34332400  0.94110400  0.47045600  1
  O  O18  1  0.35754400  0.83751100  0.08233100  1
  O  O19  1  0.35491700  0.65955500  0.91997900  1
  O  O20  1  0.42471800  0.10849800  0.65838800  1
  O  O21  1  0.42150700  0.39883800  0.34811100  1
  O  O22  1  0.43872300  0.14305400  0.07506700  1
  O  O23  1  0.43917800  0.35788400  0.92547300  1
  O  O24  1  0.56025000  0.64288800  0.07434700  1
  O  O25  1  0.55861700  0.85586500  0.92553500  1
  O  O26  1  0.58099100  0.59185800  0.65784900  1
  O  O27  1  0.57502300  0.90088100  0.34298200  1
  O  O28  1  0.63946900  0.33906500  0.08450800  1
  O  O29  1  0.63999400  0.16831900  0.91910500  1
  O  O30  1  0.65451800  0.06226400  0.53113700  1
  O  O31  1  0.65463800  0.43130900  0.47885800  1
  O  O32  1  0.65566700  0.23930700  0.32086300  1
  O  O33  1  0.66425900  0.27213900  0.67689600  1
  O  O34  1  0.67524600  0.52167800  0.28400200  1
  O  O35  1  0.67770800  0.99024100  0.72773000  1
  O  O36  1  0.82421900  0.01540200  0.22491500  1
  O  O37  1  0.82945500  0.48314900  0.76449000  1
  O  O38  1  0.84266700  0.73455000  0.17798500  1
  O  O39  1  0.84425000  0.76304500  0.81446200  1
  O  O40  1  0.84472800  0.55787800  0.96258100  1
  O  O41  1  0.84627900  0.93709900  0.02720900  1
  O  O42  1  0.85449900  0.64944900  0.57942700  1
  O  O43  1  0.85382200  0.82764700  0.42354100  1
  O  O44  1  0.92587500  0.10446100  0.84349000  1
  O  O45  1  0.92318900  0.39891000  0.15443900  1
  O  O46  1  0.93629900  0.13884700  0.42706600  1
  O  O47  1  0.92848000  0.36146800  0.56517400  1
loop_
_geom_bond_atom_site_label_1
_geom_bond_atom_site_label_2
_geom_bond_distance
_geom_bond_site_symmetry_2
Li0 O10 1.926925 1_555
Li0 O15 1.974121 1_555
Li0 O18 1.983850 1_555
Li0 O2 1.987272 1_555
Li1 O11 1.950255 1_555
Li1 O14 1.967480 1_555
Li1 O3 1.972146 1_555
Li1 O19 1.995433 1_555
Li2 O12 1.927436 1_555
Li2 O5 1.966047 1_555
Li2 O21 1.975272 1_555
Li2 O8 1.998537 1_555
Li3 O13 1.915220 1_555
Li3 O4 1.943695 1_555
Li3 O20 1.955353 1_555
Li3 O9 1.991722 1_555
Li4 O34 1.883238 1_555
Li4 O43 1.948625 1_555
Li4 O27 1.986123 1_555
Li4 O38 1.990817 1_555
Li5 O35 1.955837 1_555
Li5 O39 1.961157 1_555
Li5 O26 2.035434 1_555
Li5 O42 2.069783 1_555
Li6 O36 1.943902 1_555
Li6 O28 1.987937 1_555
Li6 O45 1.989119 1_555
Li6 O32 1.993614 1_555
Li7 O29 1.961272 1_555
Li7 O37 1.968208 1_555
Li7 O44 1.986723 1_555
Li7 O33 2.031250 1_555
Mn0 O17 1.929256 1_555
Mn0 O1 1.956206 1_555
Mn0 O20 2.020573 1_565
Mn0 O11 2.029515 1_555
Mn0 O4 2.122545 1_565
Mn0 O14 2.159251 1_555
Mn1 O0 1.907415 1_555
Mn1 O16 1.954291 1_555
Mn1 O21 1.972592 1_555
Mn1 O5 2.052303 1_555
Mn1 O10 2.087434 1_555
Mn1 O15 2.092694 1_555
Mn2 O7 1.903250 1_554
Mn2 O22 1.907078 1_555
Mn2 O2 1.988455 1_545
Mn2 O18 2.019573 1_545
Mn2 O12 2.034325 1_555
Mn2 O8 2.069207 1_555
Mn3 O6 1.888490 1_556
Mn3 O23 1.902351 1_555
Mn3 O19 1.975613 1_555
Mn3 O13 2.014232 1_555
Mn3 O3 2.024073 1_555
Mn3 O9 2.032631 1_555
Mn4 O24 1.925764 1_555
Mn4 O40 1.995847 1_554
Mn4 O45 2.002270 1_555
Mn4 O28 2.007279 1_555
Mn4 O38 2.056708 1_555
Mn4 O34 2.171071 1_555
Mn5 O41 1.902760 1_556
Mn5 O25 1.949456 1_555
Mn5 O44 2.007391 1_565
Mn5 O35 2.025253 1_555
Mn5 O29 2.074311 1_565
Mn5 O39 2.139590 1_555
Mn6 O46 1.903690 1_555
Mn6 O30 1.941357 1_555
Mn6 O27 1.956064 1_545
Mn6 O36 2.060304 1_555
Mn6 O43 2.103192 1_545
Mn6 O32 2.125698 1_555
O0 P11 1.527222 1_455
O1 P11 1.524683 1_455
O2 P10 1.567279 1_455
O3 P9 1.557325 1_455
O4 P0 1.519176 1_555
O5 P0 1.523311 1_555
O6 P1 1.534850 1_555
O7 P2 1.530005 1_555
O8 P1 1.561000 1_555
O9 P2 1.556823 1_555
O10 P1 1.537658 1_555
O11 P2 1.552887 1_565
O12 P4 1.568091 1_545
O13 P3 1.563195 1_555
O14 P3 1.521129 1_555
O15 P4 1.529743 1_555
O16 P3 1.515737 1_555
O17 P4 1.529114 1_555
O18 P5 1.565073 1_555
O19 P5 1.567351 1_556
O20 P8 1.552144 1_555
O21 P7 1.550365 1_555
O22 P6 1.542904 1_555
O23 P6 1.544952 1_556
O24 P5 1.529289 1_555
O25 P5 1.525449 1_556
O26 P3 1.580824 1_555
O26 V0 1.967699 1_555
O27 P4 1.558332 1_555
O28 P6 1.547063 1_555
O29 P6 1.532915 1_556
O30 P8 1.512089 1_555
O31 P7 1.597582 1_555
O31 V0 1.839455 1_555
O32 P7 1.519443 1_555
O33 P8 1.576337 1_555
O33 V0 2.009868 1_555
O34 P7 1.518356 1_555
O35 P8 1.553234 1_565
O36 P10 1.546695 1_545
O37 P9 1.593469 1_555
O37 V0 1.950492 1_555
O38 P10 1.545205 1_555
O39 P9 1.527907 1_555
O40 P9 1.503945 1_555
O41 P10 1.525363 1_555
O42 P11 1.611789 1_555
O42 V0 1.890243 1_555
O43 P11 1.521779 1_555
O44 P2 1.552552 1_655
O45 P1 1.559002 1_655
O46 P0 1.522497 1_655
O47 P0 1.593489 1_655
O47 V0 1.822298 1_555
