# generated using pymatgen
data_FeOF
_symmetry_space_group_name_H-M   'P 1'
_cell_length_a   3.10957600
_cell_length_b   9.45457200
_cell_length_c   9.45474900
_cell_angle_alpha   89.81181848
_cell_angle_beta   90.00000000
_cell_angle_gamma   90.00000000
_symmetry_Int_Tables_number   1
_chemical_formula_structural   FeOF
_chemical_formula_sum   'Fe8 O8 F8'
_cell_volume   277.96538105
_cell_formula_units_Z   8
loop_
 _symmetry_equiv_pos_site_id
 _symmetry_equiv_pos_as_xyz
  1  'x, y, z'
loop_
 _atom_site_type_symbol
 _atom_site_label
 _atom_site_symmetry_multiplicity
 _atom_site_fract_x
 _atom_site_fract_y
 _atom_site_fract_z
 _atom_site_occupancy
  Fe  Fe0  1  0.00000000  0.00398600  0.01869300  1
  Fe  Fe1  1  0.00000000  0.98831700  0.49008700  1
  Fe  Fe2  1  0.50000000  0.76947900  0.24602200  1
  Fe  Fe3  1  0.50000000  0.75987800  0.72629700  1
  Fe  Fe4  1  0.00000000  0.50418900  0.51816800  1
  Fe  Fe5  1  0.00000000  0.48721800  0.98943300  1
  Fe  Fe6  1  0.50000000  0.22626400  0.25978500  1
  Fe  Fe7  1  0.50000000  0.26625200  0.74354000  1
  O  O0  1  0.50000000  0.89790600  0.40319900  1
  O  O1  1  0.00000000  0.84116200  0.14579700  1
  O  O2  1  0.00000000  0.85496600  0.65573300  1
  O  O3  1  0.50000000  0.59783200  0.59836900  1
  O  O4  1  0.50000000  0.40047100  0.90548600  1
  O  O5  1  0.00000000  0.34402000  0.64910000  1
  O  O6  1  0.00000000  0.15434800  0.35586700  1
  O  O7  1  0.50000000  0.10273100  0.09377200  1
  F  F0  1  0.50000000  0.90420700  0.90133700  1
  F  F1  1  0.00000000  0.64564800  0.34253200  1
  F  F2  1  0.00000000  0.65538500  0.85457400  1
  F  F3  1  0.50000000  0.59175600  0.09836600  1
  F  F4  1  0.50000000  0.40608500  0.39883600  1
  F  F5  1  0.00000000  0.35316300  0.15797300  1
  F  F6  1  0.00000000  0.14780000  0.84324000  1
  F  F7  1  0.50000000  0.09693700  0.60379700  1
loop_
_geom_bond_atom_site_label_1
_geom_bond_atom_site_label_2
_geom_bond_distance
_geom_bond_site_symmetry_2
Fe0 O7 1.948642 1_555
Fe0 O7 1.948642 1_455
Fe0 O1 1.949838 1_545
Fe1 O0 1.956406 1_555
Fe1 O0 1.956406 1_455
Fe1 O2 2.007333 1_555
Fe1 O6 2.015301 1_565
Fe2 O0 1.922132 1_555
Fe2 O1 1.941756 1_555
Fe2 O1 1.941756 1_655
Fe3 O2 1.914880 1_655
Fe3 O2 1.914880 1_555
Fe3 O3 1.955092 1_555
Fe4 O3 1.944381 1_455
Fe4 O3 1.944381 1_555
Fe4 O5 1.952780 1_555
Fe5 O4 1.929832 1_455
Fe5 O4 1.929832 1_555
Fe6 O6 1.923764 1_555
Fe6 O6 1.923764 1_655
Fe6 O7 1.959549 1_555
Fe7 O5 1.936736 1_555
Fe7 O5 1.936736 1_655
Fe7 O4 1.991866 1_555
F0 Fe0 2.131979 1_566
F0 Fe0 2.131979 1_666
F0 Fe3 2.148435 1_555
F1 Fe4 2.128783 1_555
F1 Fe2 2.147944 1_455
F1 Fe2 2.147944 1_555
F2 Fe5 2.034794 1_555
F2 Fe3 2.203738 1_555
F2 Fe3 2.203738 1_455
F3 Fe5 2.112268 1_654
F3 Fe5 2.112268 1_554
F3 Fe2 2.188094 1_555
F4 Fe4 2.134833 1_555
F4 Fe4 2.134833 1_655
F4 Fe6 2.152566 1_555
F5 Fe5 2.032824 1_554
F5 Fe6 2.185373 1_555
F5 Fe6 2.185373 1_455
F6 Fe7 2.133824 1_555
F6 Fe7 2.133824 1_455
F6 Fe0 2.141448 1_556
F7 Fe7 2.078971 1_555
F7 Fe1 2.152927 1_545
F7 Fe1 2.152927 1_645
