# generated using pymatgen
data_Li2VFe3O8
_symmetry_space_group_name_H-M   'P 1'
_cell_length_a   8.48098500
_cell_length_b   8.48098500
_cell_length_c   8.48098500
_cell_angle_alpha   90.00000000
_cell_angle_beta   90.00000000
_cell_angle_gamma   90.00000000
_symmetry_Int_Tables_number   1
_chemical_formula_structural   Li2VFe3O8
_chemical_formula_sum   'Li8 V4 Fe12 O32'
_cell_volume   610.01271192
_cell_formula_units_Z   4
loop_
 _symmetry_equiv_pos_site_id
 _symmetry_equiv_pos_as_xyz
  1  'x, y, z'
loop_
 _atom_site_type_symbol
 _atom_site_label
 _atom_site_symmetry_multiplicity
 _atom_site_fract_x
 _atom_site_fract_y
 _atom_site_fract_z
 _atom_site_occupancy
  Li  Li0  1  0.49945000  0.49945000  0.49945000  1
  Li  Li1  1  0.75055000  0.75055000  0.75055000  1
  Li  Li2  1  0.74945000  0.24945000  0.25055000  1
  Li  Li3  1  0.00055000  0.50055000  0.99945000  1
  Li  Li4  1  0.99945000  0.00055000  0.50055000  1
  Li  Li5  1  0.25055000  0.74945000  0.24945000  1
  Li  Li6  1  0.24945000  0.25055000  0.74945000  1
  Li  Li7  1  0.50055000  0.99945000  0.00055000  1
  V  V0  1  0.62500000  0.37500000  0.87500000  1
  V  V1  1  0.87500000  0.62500000  0.37500000  1
  V  V2  1  0.12500000  0.12500000  0.12500000  1
  V  V3  1  0.37500000  0.87500000  0.62500000  1
  Fe  Fe0  1  0.62455600  0.62544400  0.12500000  1
  Fe  Fe1  1  0.62500000  0.87544400  0.37455600  1
  Fe  Fe2  1  0.62544400  0.12500000  0.62455600  1
  Fe  Fe3  1  0.87455600  0.87500000  0.12455600  1
  Fe  Fe4  1  0.87500000  0.12455600  0.87455600  1
  Fe  Fe5  1  0.87544400  0.37455600  0.62500000  1
  Fe  Fe6  1  0.12455600  0.87455600  0.87500000  1
  Fe  Fe7  1  0.12500000  0.62455600  0.62544400  1
  Fe  Fe8  1  0.12544400  0.37500000  0.37544400  1
  Fe  Fe9  1  0.37455600  0.62500000  0.87544400  1
  Fe  Fe10  1  0.37500000  0.37544400  0.12544400  1
  Fe  Fe11  1  0.37544400  0.12544400  0.37500000  1
  O  O0  1  0.61858400  0.60121900  0.88187400  1
  O  O1  1  0.61812600  0.38141600  0.10121900  1
  O  O2  1  0.61201400  0.11201400  0.38798600  1
  O  O3  1  0.64878100  0.63141600  0.36812600  1
  O  O4  1  0.60121900  0.88187400  0.61858400  1
  O  O5  1  0.63798600  0.86201400  0.13798600  1
  O  O6  1  0.63187400  0.14878100  0.86858400  1
  O  O7  1  0.63141600  0.36812600  0.64878100  1
  O  O8  1  0.86858400  0.63187400  0.14878100  1
  O  O9  1  0.86812600  0.85121900  0.36858400  1
  O  O10  1  0.86201400  0.13798600  0.63798600  1
  O  O11  1  0.89878100  0.11812600  0.11858400  1
  O  O12  1  0.85121900  0.36858400  0.86812600  1
  O  O13  1  0.88798600  0.88798600  0.88798600  1
  O  O14  1  0.88187400  0.61858400  0.60121900  1
  O  O15  1  0.88141600  0.39878100  0.38187400  1
  O  O16  1  0.11858400  0.89878100  0.11812600  1
  O  O17  1  0.11812600  0.11858400  0.89878100  1
  O  O18  1  0.11201400  0.38798600  0.61201400  1
  O  O19  1  0.14878100  0.86858400  0.63187400  1
  O  O20  1  0.10121900  0.61812600  0.38141600  1
  O  O21  1  0.13798600  0.63798600  0.86201400  1
  O  O22  1  0.13187400  0.35121900  0.13141600  1
  O  O23  1  0.13141600  0.13187400  0.35121900  1
  O  O24  1  0.36858400  0.86812600  0.85121900  1
  O  O25  1  0.36812600  0.64878100  0.63141600  1
  O  O26  1  0.36201400  0.36201400  0.36201400  1
  O  O27  1  0.39878100  0.38187400  0.88141600  1
  O  O28  1  0.35121900  0.13141600  0.13187400  1
  O  O29  1  0.38798600  0.61201400  0.11201400  1
  O  O30  1  0.38187400  0.88141600  0.39878100  1
  O  O31  1  0.38141600  0.10121900  0.61812600  1
loop_
_geom_bond_atom_site_label_1
_geom_bond_atom_site_label_2
_geom_bond_distance
_geom_bond_site_symmetry_2
Li0 O26 2.018866 1_555
Li0 O3 2.024110 1_555
Li0 O7 2.024110 1_555
Li0 O25 2.024110 1_555
Li1 O13 2.018866 1_555
Li1 O4 2.024110 1_555
Li1 O0 2.024110 1_555
Li1 O14 2.024110 1_555
Li2 O2 2.018866 1_555
Li2 O1 2.024110 1_555
Li2 O15 2.024110 1_555
Li2 O11 2.024110 1_555
Li3 O21 2.018866 1_555
Li3 O22 2.024110 1_556
Li3 O12 2.024110 1_455
Li3 O8 2.024110 1_456
Li4 O10 2.018866 1_555
Li4 O9 2.024110 1_545
Li4 O23 2.024110 1_655
Li4 O19 2.024110 1_645
Li5 O29 2.018866 1_555
Li5 O20 2.024110 1_555
Li5 O30 2.024110 1_555
Li5 O16 2.024110 1_555
Li6 O18 2.018866 1_555
Li6 O31 2.024110 1_555
Li6 O27 2.024110 1_555
Li6 O17 2.024110 1_555
Li7 O5 2.018866 1_555
Li7 O28 2.024110 1_565
Li7 O24 2.024110 1_554
Li7 O6 2.024110 1_564
Fe0 O5 2.012593 1_555
Fe0 O29 2.012593 1_555
Fe0 O0 2.072777 1_554
Fe0 O3 2.072777 1_555
Fe0 O8 2.080117 1_555
Fe0 O1 2.080117 1_555
Fe1 O5 2.012593 1_555
Fe1 O2 2.012593 1_565
Fe1 O9 2.072777 1_555
Fe1 O30 2.072777 1_555
Fe1 O4 2.080117 1_555
Fe1 O3 2.080117 1_555
Fe2 O10 2.012593 1_555
Fe2 O2 2.012593 1_555
Fe2 O4 2.072777 1_545
Fe2 O7 2.072777 1_555
Fe2 O31 2.080117 1_555
Fe2 O6 2.080117 1_555
Fe3 O5 2.012593 1_555
Fe3 O13 2.012593 1_554
Fe3 O8 2.072777 1_555
Fe3 O11 2.072777 1_565
Fe3 O16 2.080117 1_655
Fe3 O9 2.080117 1_555
Fe4 O13 2.012593 1_545
Fe4 O10 2.012593 1_555
Fe4 O17 2.072777 1_655
Fe4 O6 2.072777 1_555
Fe4 O11 2.080117 1_556
Fe4 O12 2.080117 1_555
Fe5 O10 2.012593 1_555
Fe5 O18 2.012593 1_655
Fe5 O12 2.072777 1_555
Fe5 O15 2.072777 1_555
Fe5 O7 2.080117 1_555
Fe5 O14 2.080117 1_555
Fe6 O21 2.012593 1_555
Fe6 O13 2.012593 1_455
Fe6 O16 2.072777 1_556
Fe6 O19 2.072777 1_555
Fe6 O24 2.080117 1_555
Fe6 O17 2.080117 1_565
Fe7 O21 2.012593 1_555
Fe7 O18 2.012593 1_555
Fe7 O14 2.072777 1_455
Fe7 O25 2.072777 1_555
Fe7 O19 2.080117 1_555
Fe7 O20 2.080117 1_555
Fe8 O18 2.012593 1_555
Fe8 O26 2.012593 1_555
Fe8 O20 2.072777 1_555
Fe8 O23 2.072777 1_555
Fe8 O15 2.080117 1_455
Fe8 O22 2.080117 1_555
Fe9 O21 2.012593 1_555
Fe9 O29 2.012593 1_556
Fe9 O24 2.072777 1_555
Fe9 O27 2.072777 1_555
Fe9 O0 2.080117 1_555
Fe9 O25 2.080117 1_555
Fe10 O29 2.012593 1_555
Fe10 O26 2.012593 1_555
Fe10 O1 2.072777 1_555
Fe10 O22 2.072777 1_555
Fe10 O27 2.080117 1_554
Fe10 O28 2.080117 1_555
Fe11 O2 2.012593 1_555
Fe11 O26 2.012593 1_555
Fe11 O31 2.072777 1_555
Fe11 O28 2.072777 1_555
Fe11 O23 2.080117 1_555
Fe11 O30 2.080117 1_545
O0 V0 1.920217 1_555
O1 V0 1.920217 1_554
O3 V1 1.920217 1_555
O4 V3 1.920217 1_555
O6 V0 1.920217 1_555
O7 V0 1.920217 1_555
O8 V1 1.920217 1_555
O9 V1 1.920217 1_555
O11 V2 1.920217 1_655
O12 V0 1.920217 1_555
O14 V1 1.920217 1_555
O15 V1 1.920217 1_555
O16 V2 1.920217 1_565
O17 V2 1.920217 1_556
O19 V3 1.920217 1_555
O20 V1 1.920217 1_455
O22 V2 1.920217 1_555
O23 V2 1.920217 1_555
O24 V3 1.920217 1_555
O25 V3 1.920217 1_555
O27 V0 1.920217 1_555
O28 V2 1.920217 1_555
O30 V3 1.920217 1_555
O31 V3 1.920217 1_545
