# generated using pymatgen
data_Ba5(Ga3O7)2
_symmetry_space_group_name_H-M   'P 1'
_cell_length_a   8.54774320
_cell_length_b   8.54774320
_cell_length_c   11.53987600
_cell_angle_alpha   90.00000000
_cell_angle_beta   90.00000000
_cell_angle_gamma   91.69369095
_symmetry_Int_Tables_number   1
_chemical_formula_structural   Ba5(Ga3O7)2
_chemical_formula_sum   'Ba10 Ga12 O28'
_cell_volume   842.78015090
_cell_formula_units_Z   2
loop_
 _symmetry_equiv_pos_site_id
 _symmetry_equiv_pos_as_xyz
  1  'x, y, z'
loop_
 _atom_site_type_symbol
 _atom_site_label
 _atom_site_symmetry_multiplicity
 _atom_site_fract_x
 _atom_site_fract_y
 _atom_site_fract_z
 _atom_site_occupancy
  Ba  Ba0  1  0.97615400  0.28367900  0.93508000  1
  Ba  Ba1  1  0.71632100  0.02384600  0.43508000  1
  Ba  Ba2  1  0.97495900  0.68732800  0.86816700  1
  Ba  Ba3  1  0.31267200  0.02504100  0.36816700  1
  Ba  Ba4  1  0.48758500  0.48758500  0.40971800  1
  Ba  Ba5  1  0.51241500  0.51241500  0.90971800  1
  Ba  Ba6  1  0.02504100  0.31267200  0.36816700  1
  Ba  Ba7  1  0.68732800  0.97495900  0.86816700  1
  Ba  Ba8  1  0.28367900  0.97615400  0.93508000  1
  Ba  Ba9  1  0.02384600  0.71632100  0.43508000  1
  Ga  Ga0  1  0.84150400  0.35558000  0.65075100  1
  Ga  Ga1  1  0.64442000  0.15849600  0.15075100  1
  Ga  Ga2  1  0.78642200  0.51164700  0.17144400  1
  Ga  Ga3  1  0.48835300  0.21357800  0.67144400  1
  Ga  Ga4  1  0.69943900  0.69943900  0.62678400  1
  Ga  Ga5  1  0.30056100  0.30056100  0.12678400  1
  Ga  Ga6  1  0.00590400  0.00590400  0.64933300  1
  Ga  Ga7  1  0.99409600  0.99409600  0.14933300  1
  Ga  Ga8  1  0.51164700  0.78642200  0.17144400  1
  Ga  Ga9  1  0.21357800  0.48835300  0.67144400  1
  Ga  Ga10  1  0.35558000  0.84150400  0.65075100  1
  Ga  Ga11  1  0.15849600  0.64442000  0.15075100  1
  O  O0  1  0.93168000  0.18541100  0.57047400  1
  O  O1  1  0.81458900  0.06832000  0.07047400  1
  O  O2  1  0.73323000  0.31329300  0.24848300  1
  O  O3  1  0.68670700  0.26677000  0.74848300  1
  O  O4  1  0.98869100  0.55935400  0.23752400  1
  O  O5  1  0.44064600  0.01130900  0.73752400  1
  O  O6  1  0.79897300  0.49503300  0.01385800  1
  O  O7  1  0.50496700  0.20102700  0.51385800  1
  O  O8  1  0.77247600  0.51624800  0.55023600  1
  O  O9  1  0.48375200  0.22752400  0.05023600  1
  O  O10  1  0.00050700  0.00050700  0.80864700  1
  O  O11  1  0.14525000  0.14525000  0.08955200  1
  O  O12  1  0.64866900  0.64866900  0.24024600  1
  O  O13  1  0.99949300  0.99949300  0.30864700  1
  O  O14  1  0.35133100  0.35133100  0.74024600  1
  O  O15  1  0.69419100  0.69419100  0.78337000  1
  O  O16  1  0.30580900  0.30580900  0.28337000  1
  O  O17  1  0.85475000  0.85475000  0.58955200  1
  O  O18  1  0.51624800  0.77247600  0.55023600  1
  O  O19  1  0.22752400  0.48375200  0.05023600  1
  O  O20  1  0.20102700  0.50496700  0.51385800  1
  O  O21  1  0.49503300  0.79897300  0.01385800  1
  O  O22  1  0.01130900  0.44064600  0.73752400  1
  O  O23  1  0.55935400  0.98869100  0.23752400  1
  O  O24  1  0.26677000  0.68670700  0.74848300  1
  O  O25  1  0.31329300  0.73323000  0.24848300  1
  O  O26  1  0.18541100  0.93168000  0.57047400  1
  O  O27  1  0.06832000  0.81458900  0.07047400  1
loop_
_geom_bond_atom_site_label_1
_geom_bond_atom_site_label_2
_geom_bond_distance
_geom_bond_site_symmetry_2
Ba0 O6 2.558453 1_556
Ba0 O11 2.601530 1_656
Ba0 O22 2.657822 1_655
Ba0 O1 2.754412 1_556
Ba0 O10 2.839118 1_655
Ba0 O19 3.014979 1_656
Ba0 O3 3.279900 1_555
Ba1 O7 2.558453 1_555
Ba1 O17 2.601530 1_545
Ba1 O23 2.657822 1_545
Ba1 O0 2.754412 1_555
Ba1 O13 2.839118 1_545
Ba1 O18 3.014979 1_545
Ba1 O2 3.279900 1_555
Ba2 O15 2.594031 1_555
Ba2 O22 2.618057 1_655
Ba2 O27 2.686852 1_656
Ba2 O6 2.764967 1_556
Ba2 O10 2.766060 1_665
Ba2 O24 2.851318 1_655
Ba3 O16 2.594031 1_555
Ba3 O23 2.618057 1_545
Ba3 O26 2.686852 1_545
Ba3 O7 2.764967 1_555
Ba3 O13 2.766060 1_445
Ba3 O25 2.851318 1_545
Ba4 O16 2.609905 1_555
Ba4 O7 2.736330 1_555
Ba4 O20 2.736330 1_555
Ba4 O12 2.739411 1_555
Ba4 O18 2.929897 1_555
Ba4 O8 2.929897 1_555
Ba4 O2 3.205489 1_555
Ba4 O25 3.205489 1_555
Ba5 O15 2.609905 1_555
Ba5 O6 2.736330 1_556
Ba5 O21 2.736330 1_556
Ba5 O14 2.739411 1_555
Ba5 O9 2.929897 1_556
Ba5 O19 2.929897 1_556
Ba5 O3 3.205489 1_555
Ba5 O24 3.205489 1_555
Ba6 O16 2.594031 1_555
Ba6 O4 2.618057 1_455
Ba6 O0 2.686852 1_455
Ba6 O20 2.764967 1_555
Ba6 O13 2.766060 1_445
Ba6 O2 2.851318 1_455
Ba7 O15 2.594031 1_555
Ba7 O5 2.618057 1_565
Ba7 O1 2.686852 1_566
Ba7 O21 2.764967 1_556
Ba7 O10 2.766060 1_665
Ba7 O3 2.851318 1_565
Ba8 O21 2.558453 1_556
Ba8 O11 2.601530 1_566
Ba8 O5 2.657822 1_565
Ba8 O27 2.754412 1_556
Ba8 O10 2.839118 1_565
Ba8 O9 3.014979 1_566
Ba8 O24 3.279900 1_555
Ba9 O20 2.558453 1_555
Ba9 O17 2.601530 1_455
Ba9 O4 2.657822 1_455
Ba9 O26 2.754412 1_555
Ba9 O13 2.839118 1_455
Ba9 O8 3.014979 1_455
Ba9 O25 3.279900 1_555
Ga0 O3 1.881390 1_555
Ga0 O22 1.890959 1_655
Ga0 O8 1.904617 1_555
Ga0 O0 1.906397 1_555
Ga1 O2 1.881390 1_555
Ga1 O23 1.890959 1_545
Ga1 O9 1.904617 1_555
Ga1 O1 1.906397 1_555
Ga2 O6 1.827458 1_555
Ga2 O12 1.862830 1_555
Ga2 O4 1.922329 1_555
Ga2 O2 1.956058 1_555
Ga3 O7 1.827458 1_555
Ga3 O14 1.862830 1_555
Ga3 O5 1.922329 1_555
Ga3 O3 1.956058 1_555
Ga4 O15 1.808063 1_555
Ga4 O17 1.898748 1_555
Ga4 O8 1.918281 1_555
Ga4 O18 1.918281 1_555
Ga5 O16 1.808063 1_555
Ga5 O11 1.898748 1_555
Ga5 O19 1.918281 1_555
Ga5 O9 1.918281 1_555
Ga6 O10 1.839587 1_555
Ga6 O26 1.908542 1_545
Ga6 O0 1.908542 1_455
Ga6 O17 1.927666 1_445
Ga7 O13 1.839587 1_555
Ga7 O1 1.908542 1_565
Ga7 O27 1.908542 1_655
Ga7 O11 1.927666 1_665
Ga8 O21 1.827458 1_555
Ga8 O12 1.862830 1_555
Ga8 O23 1.922329 1_555
Ga8 O25 1.956058 1_555
Ga9 O20 1.827458 1_555
Ga9 O14 1.862830 1_555
Ga9 O22 1.922329 1_555
Ga9 O24 1.956058 1_555
Ga10 O24 1.881390 1_555
Ga10 O5 1.890959 1_565
Ga10 O18 1.904617 1_555
Ga10 O26 1.906397 1_555
Ga11 O25 1.881390 1_555
Ga11 O4 1.890959 1_455
Ga11 O19 1.904617 1_555
Ga11 O27 1.906397 1_555
