# generated using pymatgen
data_Hg(NCl)2
_symmetry_space_group_name_H-M   'P 1'
_cell_length_a   3.81115100
_cell_length_b   6.10762105
_cell_length_c   6.10762105
_cell_angle_alpha   103.39683124
_cell_angle_beta   90.00000000
_cell_angle_gamma   90.00000000
_symmetry_Int_Tables_number   1
_chemical_formula_structural   Hg(NCl)2
_chemical_formula_sum   'Hg1 N2 Cl2'
_cell_volume   138.29893521
_cell_formula_units_Z   1
loop_
 _symmetry_equiv_pos_site_id
 _symmetry_equiv_pos_as_xyz
  1  'x, y, z'
loop_
 _atom_site_type_symbol
 _atom_site_label
 _atom_site_symmetry_multiplicity
 _atom_site_fract_x
 _atom_site_fract_y
 _atom_site_fract_z
 _atom_site_occupancy
  Hg  Hg0  1  0.00000000  0.00000000  0.00000000  1
  N  N0  1  0.00000000  0.27909900  0.72090100  1
  N  N1  1  0.00000000  0.72090100  0.27909900  1
  Cl  Cl0  1  0.50000000  0.76449200  0.76449200  1
  Cl  Cl1  1  0.50000000  0.23550800  0.23550800  1
loop_
_geom_bond_atom_site_label_1
_geom_bond_atom_site_label_2
_geom_bond_distance
_geom_bond_site_symmetry_2
Hg0 N1 2.675450 1_545
Hg0 N0 2.675450 1_554
Cl0 Hg0 2.609680 1_666
Cl0 Hg0 2.609680 1_566
Cl1 Hg0 2.609680 1_555
Cl1 Hg0 2.609680 1_655
