# generated using pymatgen
data_Li3Ti2Mn5O12
_symmetry_space_group_name_H-M   'P 1'
_cell_length_a   5.14223900
_cell_length_b   5.26031035
_cell_length_c   29.81397721
_cell_angle_alpha   90.34680557
_cell_angle_beta   91.12112599
_cell_angle_gamma   118.25523859
_symmetry_Int_Tables_number   1
_chemical_formula_structural   Li3Ti2Mn5O12
_chemical_formula_sum   'Li9 Ti6 Mn15 O36'
_cell_volume   710.12600585
_cell_formula_units_Z   3
loop_
 _symmetry_equiv_pos_site_id
 _symmetry_equiv_pos_as_xyz
  1  'x, y, z'
loop_
 _atom_site_type_symbol
 _atom_site_label
 _atom_site_symmetry_multiplicity
 _atom_site_fract_x
 _atom_site_fract_y
 _atom_site_fract_z
 _atom_site_occupancy
  Li  Li0  1  0.81427100  0.15862800  0.49562400  1
  Li  Li1  1  0.84375200  0.16896800  0.00249500  1
  Li  Li2  1  0.49847800  0.15382300  0.82869500  1
  Li  Li3  1  0.50374700  0.16675300  0.33646200  1
  Li  Li4  1  0.16826500  0.16293100  0.16281100  1
  Li  Li5  1  0.83330000  0.84168000  0.08378400  1
  Li  Li6  1  0.49113800  0.84262500  0.67111000  1
  Li  Li7  1  0.49828300  0.83596700  0.41681400  1
  Li  Li8  1  0.14896300  0.82833800  0.75117400  1
  Ti  Ti0  1  0.84875600  0.49430400  0.91860300  1
  Ti  Ti1  1  0.82067800  0.50692700  0.41487500  1
  Ti  Ti2  1  0.47156400  0.49140900  0.74781400  1
  Ti  Ti3  1  0.50842200  0.49383300  0.25156700  1
  Ti  Ti4  1  0.19468400  0.51556800  0.58505300  1
  Ti  Ti5  1  0.15718500  0.50614200  0.08175800  1
  Mn  Mn0  1  0.81393600  0.14861300  0.75195000  1
  Mn  Mn1  1  0.83130300  0.15891700  0.24884400  1
  Mn  Mn2  1  0.51570100  0.17505700  0.58233800  1
  Mn  Mn3  1  0.48340600  0.15029100  0.08398100  1
  Mn  Mn4  1  0.17231600  0.15814600  0.91491500  1
  Mn  Mn5  1  0.14504000  0.14957800  0.41818100  1
  Mn  Mn6  1  0.84361700  0.51700100  0.67015000  1
  Mn  Mn7  1  0.83177000  0.51677200  0.16366800  1
  Mn  Mn8  1  0.51531400  0.51696600  0.00352300  1
  Mn  Mn9  1  0.49410700  0.50864500  0.49713900  1
  Mn  Mn10  1  0.85771300  0.85236300  0.58158100  1
  Mn  Mn11  1  0.17965600  0.51400600  0.33687200  1
  Mn  Mn12  1  0.16060400  0.51278700  0.83053800  1
  Mn  Mn13  1  0.51605900  0.83305500  0.91559300  1
  Mn  Mn14  1  0.17566400  0.83545300  0.24920900  1
  O  O0  1  0.84992400  0.21258900  0.61889300  1
  O  O1  1  0.84351700  0.21410100  0.12192500  1
  O  O2  1  0.85992400  0.23223900  0.87387400  1
  O  O3  1  0.85065900  0.20113500  0.37952800  1
  O  O4  1  0.55248200  0.18087600  0.95126100  1
  O  O5  1  0.50580500  0.21507800  0.45588100  1
  O  O6  1  0.52326600  0.18758300  0.71357000  1
  O  O7  1  0.51386800  0.22744300  0.20824700  1
  O  O8  1  0.82570600  0.46480900  0.54648600  1
  O  O9  1  0.82910100  0.46284100  0.04471000  1
  O  O10  1  0.79227100  0.44597700  0.78697500  1
  O  O11  1  0.82060700  0.49752900  0.28819700  1
  O  O12  1  0.16906100  0.20783800  0.78876000  1
  O  O13  1  0.21258500  0.18613800  0.28572200  1
  O  O14  1  0.20947800  0.21204000  0.54555400  1
  O  O15  1  0.18882700  0.20167600  0.04588100  1
  O  O16  1  0.52051100  0.51709900  0.88138700  1
  O  O17  1  0.49947300  0.47017700  0.37800500  1
  O  O18  1  0.46108500  0.44647400  0.11988200  1
  O  O19  1  0.50553900  0.52760500  0.62222500  1
  O  O20  1  0.81788000  0.81435800  0.95283900  1
  O  O21  1  0.18036500  0.50626600  0.71120700  1
  O  O22  1  0.79611600  0.79629400  0.45655200  1
  O  O23  1  0.84979200  0.81663100  0.21204500  1
  O  O24  1  0.17920800  0.51724400  0.21439000  1
  O  O25  1  0.79143800  0.81288000  0.71689400  1
  O  O26  1  0.12081700  0.43953200  0.45420800  1
  O  O27  1  0.15888700  0.49494300  0.95513200  1
  O  O28  1  0.47739900  0.81555900  0.28637100  1
  O  O29  1  0.45700600  0.78912900  0.79093000  1
  O  O30  1  0.48467700  0.79466800  0.54167900  1
  O  O31  1  0.48369600  0.82116600  0.05024000  1
  O  O32  1  0.20665100  0.84153500  0.61818300  1
  O  O33  1  0.19029600  0.81422900  0.87845700  1
  O  O34  1  0.13943800  0.80473700  0.12189500  1
  O  O35  1  0.14994400  0.82114400  0.38423000  1
loop_
_geom_bond_atom_site_label_1
_geom_bond_atom_site_label_2
_geom_bond_distance
_geom_bond_site_symmetry_2
Li0 O26 2.021345 1_655
Li0 O5 2.094009 1_555
Li0 O8 2.185007 1_555
Li0 O22 2.190634 1_545
Li0 O30 2.339658 1_545
Li0 O14 2.400184 1_655
Li1 O9 2.017390 1_555
Li1 O15 2.114213 1_655
Li1 O4 2.140316 1_554
Li1 O27 2.246831 1_654
Li1 O20 2.326558 1_544
Li1 O31 2.393535 1_545
Li2 O10 2.022317 1_555
Li2 O29 2.137887 1_545
Li2 O2 2.146726 1_555
Li2 O12 2.179134 1_555
Li2 O33 2.312437 1_545
Li2 O16 2.425728 1_555
Li3 O17 2.022972 1_555
Li3 O3 2.113217 1_555
Li3 O13 2.144368 1_555
Li3 O11 2.278341 1_555
Li3 O28 2.320169 1_545
Li3 O35 2.375814 1_545
Li4 O18 2.025382 1_555
Li4 O7 2.106595 1_555
Li4 O1 2.167238 1_455
Li4 O34 2.181962 1_545
Li4 O23 2.335991 1_445
Li4 O24 2.388362 1_555
Li5 O31 1.997089 1_555
Li5 O34 2.007324 1_655
Li5 O1 2.237623 1_565
Li5 O15 2.243716 1_665
Li5 O9 2.293261 1_555
Li5 O18 2.341771 1_555
Li6 O25 2.102660 1_555
Li6 O32 2.128778 1_555
Li6 O21 2.129971 1_555
Li6 O6 2.145389 1_565
Li6 O19 2.228637 1_555
Li6 O0 2.522790 1_565
Li7 O35 1.989249 1_555
Li7 O22 2.006829 1_555
Li7 O3 2.240117 1_565
Li7 O17 2.241808 1_555
Li7 O5 2.287401 1_565
Li7 O26 2.374799 1_555
Li8 O29 2.048270 1_555
Li8 O25 2.053064 1_455
Li8 O21 2.135028 1_555
Li8 O12 2.241565 1_565
Li8 O10 2.271279 1_455
Li8 O6 2.280138 1_565
Mn0 O10 1.923387 1_555
Mn0 O6 1.952301 1_555
Mn0 O25 2.001046 1_545
Mn0 O12 2.003752 1_655
Mn0 O29 2.262558 1_545
Mn0 O21 2.307888 1_655
Mn1 O23 2.144033 1_545
Mn1 O11 2.149944 1_555
Mn1 O24 2.170537 1_655
Mn1 O13 2.172880 1_655
Mn1 O7 2.178178 1_555
Mn1 O28 2.194982 1_545
Mn2 O0 1.945086 1_555
Mn2 O8 1.947515 1_555
Mn2 O14 1.986250 1_555
Mn2 O32 2.048175 1_545
Mn2 O19 2.218920 1_555
Mn2 O30 2.271472 1_545
Mn3 O18 1.933952 1_555
Mn3 O15 1.995499 1_555
Mn3 O31 1.997689 1_545
Mn3 O1 2.036277 1_555
Mn3 O9 2.138116 1_555
Mn3 O34 2.183897 1_545
Mn4 O33 2.145088 1_545
Mn4 O16 2.159243 1_555
Mn4 O27 2.162074 1_555
Mn4 O4 2.168964 1_555
Mn4 O2 2.179734 1_455
Mn4 O20 2.203494 1_445
Mn5 O26 1.913344 1_555
Mn5 O3 2.004326 1_455
Mn5 O35 2.007764 1_545
Mn5 O5 2.032766 1_555
Mn5 O17 2.190973 1_555
Mn5 O22 2.220515 1_445
Mn6 O21 2.123814 1_655
Mn6 O6 2.190916 1_555
Mn6 O25 2.195537 1_555
Mn6 O0 2.218564 1_555
Mn6 O19 2.250013 1_555
Mn6 O32 2.434670 1_655
Mn7 O1 2.038976 1_555
Mn7 O34 2.044403 1_655
Mn7 O23 2.098979 1_555
Mn7 O7 2.123446 1_555
Mn7 O18 2.168806 1_555
Mn7 O24 2.317074 1_655
Mn8 O9 2.134053 1_555
Mn8 O15 2.153169 1_555
Mn8 O31 2.180639 1_555
Mn8 O20 2.228796 1_554
Mn8 O27 2.268838 1_554
Mn8 O4 2.426553 1_554
Mn9 O5 1.992297 1_555
Mn9 O22 2.009088 1_555
Mn9 O30 2.019121 1_555
Mn9 O14 2.146600 1_555
Mn9 O26 2.166235 1_555
Mn9 O8 2.324539 1_555
Mn10 O32 2.105840 1_655
Mn10 O30 2.131225 1_555
Mn10 O19 2.201847 1_555
Mn10 O14 2.205835 1_665
Mn10 O0 2.208577 1_565
Mn10 O8 2.219852 1_555
Mn11 O17 2.131943 1_555
Mn11 O3 2.159036 1_455
Mn11 O35 2.200393 1_555
Mn11 O28 2.224181 1_555
Mn11 O11 2.294445 1_455
Mn11 O13 2.362957 1_555
Mn12 O29 1.955535 1_555
Mn12 O12 2.042189 1_555
Mn12 O2 2.044187 1_455
Mn12 O33 2.076911 1_555
Mn12 O10 2.160041 1_455
Mn12 O16 2.360941 1_555
Mn13 O20 1.931319 1_555
Mn13 O33 1.952126 1_555
Mn13 O16 1.954304 1_555
Mn13 O4 2.039047 1_565
Mn13 O27 2.223401 1_555
Mn13 O2 2.384372 1_565
Mn14 O28 1.932306 1_555
Mn14 O23 1.953054 1_455
Mn14 O24 1.971909 1_555
Mn14 O13 2.063990 1_565
Mn14 O11 2.209000 1_455
Mn14 O7 2.342243 1_565
O0 Ti4 2.028599 1_655
O1 Ti5 2.036548 1_655
O2 Ti0 1.933321 1_555
O3 Ti1 1.985557 1_555
O4 Ti0 1.920071 1_555
O5 Ti1 2.054228 1_555
O6 Ti2 2.015068 1_555
O7 Ti3 1.910275 1_555
O8 Ti4 2.103494 1_655
O9 Ti5 1.917907 1_655
O10 Ti2 2.107408 1_555
O11 Ti3 1.916168 1_555
O12 Ti2 2.008606 1_555
O13 Ti3 1.928791 1_555
O14 Ti4 2.009384 1_555
O15 Ti5 1.992104 1_555
O16 Ti0 2.052925 1_555
O17 Ti1 1.896818 1_555
O18 Ti5 2.057126 1_555
O19 Ti4 1.902994 1_555
O20 Ti0 2.034733 1_555
O21 Ti2 1.867457 1_555
O22 Ti1 2.010508 1_555
O23 Ti3 2.153172 1_555
O24 Ti3 2.057964 1_555
O25 Ti2 1.964600 1_555
O26 Ti1 2.082101 1_455
O27 Ti0 1.912144 1_455
O28 Ti3 2.051131 1_555
O29 Ti2 2.049652 1_555
O30 Ti4 2.019162 1_555
O31 Ti5 1.973420 1_555
O32 Ti4 1.948533 1_555
O33 Ti0 2.158129 1_455
O34 Ti5 2.006147 1_555
O35 Ti1 1.965369 1_455
