# generated using pymatgen
data_Li3MnSi2O7
_symmetry_space_group_name_H-M   'P 1'
_cell_length_a   4.99454200
_cell_length_b   8.97578400
_cell_length_c   12.48482200
_cell_angle_alpha   90.00000000
_cell_angle_beta   90.00000000
_cell_angle_gamma   90.00000000
_symmetry_Int_Tables_number   1
_chemical_formula_structural   Li3MnSi2O7
_chemical_formula_sum   'Li12 Mn4 Si8 O28'
_cell_volume   559.69369846
_cell_formula_units_Z   4
loop_
 _symmetry_equiv_pos_site_id
 _symmetry_equiv_pos_as_xyz
  1  'x, y, z'
loop_
 _atom_site_type_symbol
 _atom_site_label
 _atom_site_symmetry_multiplicity
 _atom_site_fract_x
 _atom_site_fract_y
 _atom_site_fract_z
 _atom_site_occupancy
  Li  Li0  1  0.02003000  0.33605900  0.09343600  1
  Li  Li1  1  0.02003000  0.33605900  0.40656400  1
  Li  Li2  1  0.01137000  0.02920000  0.25000000  1
  Li  Li3  1  0.48863000  0.52920000  0.25000000  1
  Li  Li4  1  0.47997000  0.83605900  0.09343600  1
  Li  Li5  1  0.47997000  0.83605900  0.40656400  1
  Li  Li6  1  0.52003000  0.16394100  0.59343600  1
  Li  Li7  1  0.52003000  0.16394100  0.90656400  1
  Li  Li8  1  0.51137000  0.47080000  0.75000000  1
  Li  Li9  1  0.98863000  0.97080000  0.75000000  1
  Li  Li10  1  0.97997000  0.66394100  0.90656400  1
  Li  Li11  1  0.97997000  0.66394100  0.59343600  1
  Mn  Mn0  1  0.00000000  0.00000000  0.00000000  1
  Mn  Mn1  1  0.00000000  0.00000000  0.50000000  1
  Mn  Mn2  1  0.50000000  0.50000000  0.50000000  1
  Mn  Mn3  1  0.50000000  0.50000000  0.00000000  1
  Si  Si0  1  0.99577900  0.31191700  0.63158100  1
  Si  Si1  1  0.99577900  0.31191700  0.86841900  1
  Si  Si2  1  0.50422100  0.81191700  0.63158100  1
  Si  Si3  1  0.50422100  0.81191700  0.86841900  1
  Si  Si4  1  0.49577900  0.18808300  0.13158100  1
  Si  Si5  1  0.49577900  0.18808300  0.36841900  1
  Si  Si6  1  0.00422100  0.68808300  0.13158100  1
  Si  Si7  1  0.00422100  0.68808300  0.36841900  1
  O  O0  1  0.07906800  0.86739600  0.12439500  1
  O  O1  1  0.07906800  0.86739600  0.37560500  1
  O  O2  1  0.12373000  0.62833000  0.25000000  1
  O  O3  1  0.17411900  0.60601300  0.03632100  1
  O  O4  1  0.17411900  0.60601300  0.46367900  1
  O  O5  1  0.18764700  0.84709800  0.62529800  1
  O  O6  1  0.18764700  0.84709800  0.87470200  1
  O  O7  1  0.31235300  0.34709800  0.62529800  1
  O  O8  1  0.31235300  0.34709800  0.87470200  1
  O  O9  1  0.32588100  0.10601300  0.03632100  1
  O  O10  1  0.32588100  0.10601300  0.46367900  1
  O  O11  1  0.37627000  0.12833000  0.25000000  1
  O  O12  1  0.42093200  0.36739600  0.12439500  1
  O  O13  1  0.42093200  0.36739600  0.37560500  1
  O  O14  1  0.57906800  0.63260400  0.62439500  1
  O  O15  1  0.57906800  0.63260400  0.87560500  1
  O  O16  1  0.62373000  0.87167000  0.75000000  1
  O  O17  1  0.67411900  0.89398700  0.53632100  1
  O  O18  1  0.67411900  0.89398700  0.96367900  1
  O  O19  1  0.68764700  0.65290200  0.12529800  1
  O  O20  1  0.68764700  0.65290200  0.37470200  1
  O  O21  1  0.81235300  0.15290200  0.37470200  1
  O  O22  1  0.81235300  0.15290200  0.12529800  1
  O  O23  1  0.82588100  0.39398700  0.53632100  1
  O  O24  1  0.82588100  0.39398700  0.96367900  1
  O  O25  1  0.87627000  0.37167000  0.75000000  1
  O  O26  1  0.92093200  0.13260400  0.62439500  1
  O  O27  1  0.92093200  0.13260400  0.87560500  1
loop_
_geom_bond_atom_site_label_1
_geom_bond_atom_site_label_2
_geom_bond_distance
_geom_bond_site_symmetry_2
Li0 O24 1.958319 1_454
Li0 O22 1.984135 1_455
Li0 O12 2.058593 1_555
Li1 O23 1.958319 1_455
Li1 O21 1.984135 1_455
Li1 O13 2.058593 1_555
Li2 O11 2.028109 1_555
Li2 O21 2.155164 1_455
Li2 O22 2.155164 1_455
Li2 O1 2.163947 1_545
Li2 O0 2.163947 1_545
Li3 O2 2.028109 1_555
Li3 O20 2.155164 1_555
Li3 O19 2.155164 1_555
Li3 O12 2.163947 1_555
Li3 O13 2.163947 1_555
Li4 O18 1.958319 1_554
Li4 O19 1.984135 1_555
Li4 O0 2.058593 1_555
Li5 O17 1.958319 1_555
Li5 O20 1.984135 1_555
Li5 O1 2.058593 1_555
Li6 O10 1.958319 1_555
Li6 O7 1.984135 1_555
Li6 O26 2.058593 1_555
Li7 O9 1.958319 1_556
Li7 O8 1.984135 1_555
Li7 O27 2.058593 1_555
Li8 O25 2.028109 1_555
Li8 O7 2.155164 1_555
Li8 O8 2.155164 1_555
Li8 O14 2.163947 1_555
Li8 O15 2.163947 1_555
Li9 O16 2.028109 1_555
Li9 O5 2.155164 1_655
Li9 O6 2.155164 1_655
Li9 O27 2.163947 1_565
Li9 O26 2.163947 1_565
Li10 O3 1.958319 1_656
Li10 O6 1.984135 1_655
Li10 O15 2.058593 1_555
Li11 O4 1.958319 1_655
Li11 O5 1.984135 1_655
Li11 O14 2.058593 1_555
Mn0 O9 1.939134 1_555
Mn0 O18 1.939134 1_444
Mn0 O27 1.996134 1_454
Mn0 O0 1.996134 1_545
Mn0 O22 2.282322 1_455
Mn0 O6 2.282322 1_544
Mn1 O10 1.939134 1_555
Mn1 O17 1.939134 1_445
Mn1 O1 1.996134 1_545
Mn1 O26 1.996134 1_455
Mn1 O21 2.282322 1_455
Mn1 O5 2.282322 1_545
Mn2 O4 1.939134 1_555
Mn2 O23 1.939134 1_555
Mn2 O13 1.996134 1_555
Mn2 O14 1.996134 1_555
Mn2 O20 2.282322 1_555
Mn2 O7 2.282322 1_555
Mn3 O3 1.939134 1_555
Mn3 O24 1.939134 1_554
Mn3 O12 1.996134 1_555
Mn3 O15 1.996134 1_554
Mn3 O19 2.282322 1_555
Mn3 O8 2.282322 1_554
O0 Si6 1.654752 1_555
O1 Si7 1.654752 1_555
O2 Si6 1.682176 1_555
O2 Si7 1.682176 1_555
O3 Si6 1.636198 1_555
O4 Si7 1.636198 1_555
O5 Si2 1.614273 1_555
O6 Si3 1.614273 1_555
O7 Si0 1.614273 1_455
O8 Si1 1.614273 1_455
O9 Si4 1.636198 1_555
O10 Si5 1.636198 1_555
O11 Si5 1.682176 1_555
O11 Si4 1.682176 1_555
O12 Si4 1.654752 1_555
O13 Si5 1.654752 1_555
O14 Si2 1.654752 1_555
O15 Si3 1.654752 1_555
O16 Si2 1.682176 1_555
O16 Si3 1.682176 1_555
O17 Si2 1.636198 1_555
O18 Si3 1.636198 1_555
O19 Si6 1.614273 1_655
O20 Si7 1.614273 1_655
O21 Si5 1.614273 1_555
O22 Si4 1.614273 1_555
O23 Si0 1.636198 1_555
O24 Si1 1.636198 1_555
O25 Si1 1.682176 1_555
O25 Si0 1.682176 1_555
O26 Si0 1.654752 1_555
O27 Si1 1.654752 1_555
