# generated using pymatgen
data_LiVOF2
_symmetry_space_group_name_H-M   'P 1'
_cell_length_a   5.47583200
_cell_length_b   8.97287025
_cell_length_c   10.12959662
_cell_angle_alpha   90.38528017
_cell_angle_beta   90.20040787
_cell_angle_gamma   90.39035811
_symmetry_Int_Tables_number   1
_chemical_formula_structural   LiVOF2
_chemical_formula_sum   'Li8 V8 O8 F16'
_cell_volume   497.68096329
_cell_formula_units_Z   8
loop_
 _symmetry_equiv_pos_site_id
 _symmetry_equiv_pos_as_xyz
  1  'x, y, z'
loop_
 _atom_site_type_symbol
 _atom_site_label
 _atom_site_symmetry_multiplicity
 _atom_site_fract_x
 _atom_site_fract_y
 _atom_site_fract_z
 _atom_site_occupancy
  Li  Li0  1  0.46816900  0.41966200  0.21026800  1
  Li  Li1  1  0.96421100  0.58983100  0.21206400  1
  Li  Li2  1  0.96538400  0.07955200  0.28520800  1
  Li  Li3  1  0.45165600  0.90762400  0.29346100  1
  Li  Li4  1  0.52953400  0.07853000  0.69622200  1
  Li  Li5  1  0.03440900  0.92267900  0.69578200  1
  Li  Li6  1  0.03935400  0.41507700  0.79299800  1
  Li  Li7  1  0.53825800  0.57608900  0.80850300  1
  V  V0  1  0.75052900  0.90570000  0.01129600  1
  V  V1  1  0.74017400  0.26105700  0.01234100  1
  V  V2  1  0.23363500  0.73919000  0.01186600  1
  V  V3  1  0.25421300  0.09500100  0.01113700  1
  V  V4  1  0.76705200  0.41876600  0.49594300  1
  V  V5  1  0.73055100  0.76220100  0.49123200  1
  V  V6  1  0.25898700  0.24680100  0.49231400  1
  V  V7  1  0.24393800  0.58508000  0.49746600  1
  O  O0  1  0.90835000  0.08646500  0.09082000  1
  O  O1  1  0.40444900  0.91460700  0.09165600  1
  O  O2  1  0.43152900  0.24661500  0.09504700  1
  O  O3  1  0.92443400  0.75378700  0.09254300  1
  O  O4  1  0.41846600  0.74522900  0.41770400  1
  O  O5  1  0.42531600  0.41640500  0.40909800  1
  O  O6  1  0.90242300  0.59122000  0.40468300  1
  O  O7  1  0.07859400  0.40768500  0.59769700  1
  F  F0  1  0.81369000  0.41812200  0.14584900  1
  F  F1  1  0.31106600  0.58933100  0.14980200  1
  F  F2  1  0.79522600  0.91979200  0.35519300  1
  F  F3  1  0.30538000  0.08365700  0.36328900  1
  F  F4  1  0.93799200  0.25976100  0.38692100  1
  F  F5  1  0.58871900  0.58069100  0.61858500  1
  F  F6  1  0.59436000  0.24712800  0.59274300  1
  F  F7  1  0.06562500  0.73694400  0.61093100  1
  F  F8  1  0.70448400  0.91825400  0.63274300  1
  F  F9  1  0.19552500  0.09127200  0.63238200  1
  F  F10  1  0.70681700  0.40984000  0.86722500  1
  F  F11  1  0.20678500  0.58013100  0.87252700  1
  F  F12  1  0.07844000  0.23684000  0.89228700  1
  F  F13  1  0.57147300  0.76414300  0.88987100  1
  F  F14  1  0.58094400  0.08600700  0.88624800  1
  F  F15  1  0.07985500  0.91323500  0.88604900  1
loop_
_geom_bond_atom_site_label_1
_geom_bond_atom_site_label_2
_geom_bond_distance
_geom_bond_site_symmetry_2
Li0 O2 1.945041 1_555
Li0 O5 2.028889 1_555
Li1 O3 1.924581 1_555
Li1 O6 1.981407 1_555
Li2 O0 1.994050 1_555
Li3 O4 1.939812 1_555
Li3 O1 2.061010 1_555
Li6 O7 1.991413 1_555
O0 V1 1.991361 1_555
O0 V0 1.996254 1_545
O0 V3 2.062457 1_655
O1 V2 1.990761 1_555
O1 V3 1.998316 1_565
O1 V0 2.066954 1_555
O2 V3 1.864566 1_555
O2 V1 1.892999 1_555
O3 V0 1.862653 1_555
O3 V2 1.887584 1_655
O4 V5 1.866650 1_555
O4 V7 1.906146 1_555
O5 V6 1.964640 1_555
O5 V7 2.021598 1_555
O5 V4 2.064884 1_555
O6 V4 1.951132 1_555
O6 V5 2.003861 1_555
O6 V7 2.091258 1_655
O7 V4 1.993475 1_455
O7 V6 2.050688 1_555
O7 V7 2.095888 1_555
F0 Li1 1.862254 1_555
F0 V1 1.984947 1_555
F0 Li0 2.003644 1_555
F1 Li0 1.860019 1_555
F1 V2 1.992250 1_555
F1 Li1 2.003413 1_455
F2 Li2 1.850882 1_565
F2 Li3 1.982526 1_555
F2 V5 2.011635 1_555
F3 Li3 1.908652 1_545
F3 V6 1.974154 1_555
F3 Li2 2.020260 1_455
F4 Li2 1.918511 1_555
F4 V4 2.033607 1_555
F4 V6 2.057707 1_655
F5 Li7 1.945165 1_555
F5 V4 2.147439 1_555
F5 V5 2.222151 1_555
F5 V7 2.248703 1_555
F6 Li4 1.878811 1_555
F6 V4 2.057791 1_555
F6 V6 2.096252 1_555
F7 Li5 1.879120 1_555
F7 V7 2.033751 1_555
F7 V5 2.209490 1_455
F8 Li4 1.846648 1_565
F8 Li5 1.914106 1_655
F8 V5 2.003246 1_555
F9 Li5 1.864965 1_545
F9 Li4 1.942160 1_555
F9 V6 2.026044 1_555
F10 Li7 1.859534 1_555
F10 Li6 1.972859 1_655
F10 V1 2.001063 1_556
F11 Li6 1.908723 1_555
F11 Li7 1.930100 1_555
F11 V2 2.004830 1_556
F12 Li6 1.907852 1_555
F12 V3 2.006180 1_556
F12 V1 2.230420 1_456
F13 Li7 1.880361 1_555
F13 V0 2.010256 1_556
F13 V2 2.239106 1_556
F14 Li4 1.945033 1_555
F14 V1 2.192106 1_556
F14 V3 2.196434 1_556
F14 V0 2.263656 1_546
F15 Li5 1.944950 1_555
F15 V2 2.193036 1_556
F15 V0 2.209454 1_456
F15 V3 2.262663 1_566
