# generated using pymatgen
data_Li8Co(O2F)2
_symmetry_space_group_name_H-M   'P 1'
_cell_length_a   6.34576153
_cell_length_b   9.86397236
_cell_length_c   9.18345766
_cell_angle_alpha   97.62019911
_cell_angle_beta   76.81608074
_cell_angle_gamma   91.21645644
_symmetry_Int_Tables_number   1
_chemical_formula_structural   Li8Co(O2F)2
_chemical_formula_sum   'Li32 Co4 O16 F8'
_cell_volume   554.71542702
_cell_formula_units_Z   4
loop_
 _symmetry_equiv_pos_site_id
 _symmetry_equiv_pos_as_xyz
  1  'x, y, z'
loop_
 _atom_site_type_symbol
 _atom_site_label
 _atom_site_symmetry_multiplicity
 _atom_site_fract_x
 _atom_site_fract_y
 _atom_site_fract_z
 _atom_site_occupancy
  Li  Li0  1  0.84243500  0.50180400  0.11755400  1
  Li  Li1  1  0.09240700  0.75185800  0.61764000  1
  Li  Li2  1  0.34257600  0.00175800  0.11779900  1
  Li  Li3  1  0.59264200  0.25170900  0.61769400  1
  Li  Li4  1  0.90742100  0.24824300  0.38219800  1
  Li  Li5  1  0.15759400  0.49814100  0.88236200  1
  Li  Li6  1  0.40756500  0.74819600  0.38244500  1
  Li  Li7  1  0.65736000  0.99829000  0.88230600  1
  Li  Li8  1  0.89435900  0.25460300  0.05769700  1
  Li  Li9  1  0.14444200  0.50461300  0.55768300  1
  Li  Li10  1  0.39469500  0.75459700  0.05775700  1
  Li  Li11  1  0.64466000  0.00460400  0.55776900  1
  Li  Li12  1  0.85530100  0.49540200  0.44224400  1
  Li  Li13  1  0.10556200  0.74538700  0.94231600  1
  Li  Li14  1  0.35563900  0.99539700  0.44230400  1
  Li  Li15  1  0.60534300  0.24539600  0.94223000  1
  Li  Li16  1  0.14986900  0.50805300  0.24027000  1
  Li  Li17  1  0.40002100  0.75796700  0.74031800  1
  Li  Li18  1  0.65016400  0.00801300  0.24022800  1
  Li  Li19  1  0.90003200  0.25809600  0.74022500  1
  Li  Li20  1  0.59983100  0.24198500  0.25977000  1
  Li  Li21  1  0.84998300  0.49203400  0.75968400  1
  Li  Li22  1  0.10012700  0.74194700  0.25973000  1
  Li  Li23  1  0.34997300  0.99190600  0.75977500  1
  Li  Li24  1  0.51112500  0.49727600  0.30205300  1
  Li  Li25  1  0.76133800  0.74736000  0.80215800  1
  Li  Li26  1  0.01122900  0.99725500  0.30221300  1
  Li  Li27  1  0.26113600  0.24719600  0.80210900  1
  Li  Li28  1  0.23876800  0.25274600  0.19778600  1
  Li  Li29  1  0.48866300  0.50264000  0.69784600  1
  Li  Li30  1  0.73887600  0.75272500  0.19794600  1
  Li  Li31  1  0.98886700  0.00280200  0.69789400  1
  Co  Co0  1  0.49998900  0.49999600  0.99996300  1
  Co  Co1  1  0.75000700  0.75000300  0.50003800  1
  Co  Co2  1  0.00001900  0.00000800  0.00003600  1
  Co  Co3  1  0.24998200  0.24999200  0.49996400  1
  O  O0  1  0.61343500  0.36879100  0.11814500  1
  O  O1  1  0.86352900  0.61891300  0.61810600  1
  O  O2  1  0.11387000  0.86883700  0.11820000  1
  O  O3  1  0.36385700  0.11874700  0.61823100  1
  O  O4  1  0.13613000  0.38116300  0.38180000  1
  O  O5  1  0.38647200  0.63108600  0.88189500  1
  O  O6  1  0.63656400  0.88120900  0.38185300  1
  O  O7  1  0.88614400  0.13125200  0.88176900  1
  O  O8  1  0.85872700  0.61578600  0.29666800  1
  O  O9  1  0.10862100  0.86580200  0.79679600  1
  O  O10  1  0.35876500  0.11579500  0.29676600  1
  O  O11  1  0.60884000  0.36576100  0.79666400  1
  O  O12  1  0.89122900  0.13420300  0.20323200  1
  O  O13  1  0.14138700  0.38419800  0.70320400  1
  O  O14  1  0.39126800  0.63421400  0.20333300  1
  O  O15  1  0.64116600  0.88423900  0.70333400  1
  F  F0  1  0.11719900  0.39122400  0.05139900  1
  F  F1  1  0.36717400  0.64133800  0.55153500  1
  F  F2  1  0.61779500  0.89121700  0.05137400  1
  F  F3  1  0.86788700  0.14111600  0.55125100  1
  F  F4  1  0.63220200  0.35877600  0.44862000  1
  F  F5  1  0.88283500  0.60866300  0.94846600  1
  F  F6  1  0.13279900  0.85877500  0.44860300  1
  F  F7  1  0.38210200  0.10889300  0.94875400  1
loop_
_geom_bond_atom_site_label_1
_geom_bond_atom_site_label_2
_geom_bond_distance
_geom_bond_site_symmetry_2
Li0 O8 1.887481 1_555
Li0 O0 1.936630 1_555
Li1 O9 1.887493 1_555
Li1 O1 1.935707 1_455
Li2 O10 1.886497 1_555
Li2 O2 1.934795 1_545
Li3 O11 1.886604 1_555
Li3 O3 1.935333 1_555
Li4 O12 1.886509 1_555
Li4 O4 1.934805 1_655
Li5 O13 1.887492 1_555
Li5 O5 1.935707 1_555
Li6 O14 1.887474 1_555
Li6 O6 1.936625 1_555
Li7 O15 1.886608 1_555
Li7 O7 1.935328 1_565
Li8 O12 1.898675 1_555
Li8 O7 1.899416 1_554
Li8 O0 2.054938 1_555
Li9 O13 1.898758 1_555
Li9 O4 1.899740 1_555
Li9 O1 2.055468 1_455
Li10 O14 1.898542 1_555
Li10 O5 1.899791 1_554
Li10 O2 2.054697 1_555
Li11 O15 1.898267 1_545
Li11 O6 1.899403 1_545
Li11 O3 2.054075 1_555
Li12 O8 1.898551 1_555
Li12 O1 1.899798 1_555
Li12 O4 2.054712 1_655
Li13 O9 1.898746 1_555
Li13 O2 1.899742 1_556
Li13 O5 2.055457 1_555
Li14 O10 1.898686 1_565
Li14 O3 1.899407 1_565
Li14 O6 2.054943 1_555
Li15 O11 1.898271 1_555
Li15 O0 1.899390 1_556
Li15 O7 2.054070 1_555
Li16 O4 1.907521 1_555
Li16 O14 1.950461 1_555
Li16 O8 2.076476 1_455
Li17 O5 1.907931 1_555
Li17 O15 1.950021 1_555
Li17 O9 2.078343 1_555
Li18 O6 1.907659 1_545
Li18 O12 1.949137 1_555
Li18 O10 2.078066 1_555
Li19 O7 1.907163 1_555
Li19 O13 1.949943 1_655
Li19 O11 2.076403 1_555
Li20 O0 1.907671 1_555
Li20 O10 1.949142 1_555
Li20 O12 2.078060 1_555
Li21 O1 1.907926 1_555
Li21 O11 1.950016 1_555
Li21 O13 2.078369 1_655
Li22 O2 1.907518 1_555
Li22 O8 1.950466 1_455
Li22 O14 2.076471 1_555
Li23 O3 1.907144 1_565
Li23 O9 1.949941 1_555
Li23 O15 2.076417 1_555
Li24 O0 1.961439 1_555
Li24 O14 1.976830 1_555
Li24 O8 2.467914 1_555
Li25 O1 1.962051 1_555
Li25 O15 1.978009 1_555
Li25 O9 2.465853 1_655
Li26 O2 1.962070 1_555
Li26 O12 1.978889 1_465
Li26 O10 2.467612 1_565
Li27 O3 1.961443 1_555
Li27 O13 1.978043 1_555
Li27 O11 2.468665 1_555
Li28 O4 1.962068 1_555
Li28 O10 1.978896 1_555
Li28 O12 2.467644 1_455
Li29 O5 1.962026 1_555
Li29 O11 1.977990 1_555
Li29 O13 2.465819 1_555
Li30 O6 1.961429 1_555
Li30 O8 1.976830 1_555
Li30 O14 2.467950 1_555
Li31 O7 1.961431 1_555
Li31 O9 1.978026 1_645
Li31 O15 2.468644 1_545
Co0 O5 2.033285 1_555
Co0 O0 2.034606 1_556
Co0 O11 2.123897 1_555
Co0 O14 2.124168 1_556
Co0 F5 2.602807 1_555
Co0 F0 2.602911 1_556
Co1 O1 2.033301 1_555
Co1 O6 2.034623 1_555
Co1 O15 2.123873 1_555
Co1 O8 2.124162 1_555
Co1 F1 2.602726 1_555
Co1 F6 2.602922 1_655
Co2 O2 2.035509 1_545
Co2 O7 2.036759 1_454
Co2 O12 2.122957 1_455
Co2 O9 2.123141 1_544
Co2 F7 2.599382 1_554
Co2 F2 2.599797 1_445
Co3 O4 2.035512 1_555
Co3 O3 2.036766 1_555
Co3 O10 2.122975 1_555
Co3 O13 2.123135 1_555
Co3 F3 2.599413 1_455
Co3 F4 2.599747 1_555
F0 Li8 1.929129 1_455
F0 Li5 1.956761 1_554
F0 Li16 2.000806 1_555
F0 Li0 2.005180 1_455
F0 Li28 2.296301 1_555
F0 Li27 2.516425 1_554
F1 Li9 1.929409 1_555
F1 Li6 1.956796 1_555
F1 Li17 1.999569 1_555
F1 Li1 2.004872 1_555
F1 Li29 2.297015 1_555
F1 Li24 2.517917 1_555
F2 Li10 1.930262 1_555
F2 Li7 1.958316 1_554
F2 Li18 1.999978 1_565
F2 Li2 2.007406 1_565
F2 Li30 2.296163 1_555
F2 Li25 2.514734 1_554
F3 Li11 1.930050 1_555
F3 Li4 1.958556 1_555
F3 Li19 2.001300 1_555
F3 Li3 2.007813 1_555
F3 Li31 2.295145 1_555
F3 Li26 2.513310 1_645
F4 Li12 1.930301 1_555
F4 Li3 1.958326 1_555
F4 Li20 1.999929 1_555
F4 Li4 2.007364 1_555
F4 Li24 2.296171 1_555
F4 Li29 2.514830 1_555
F5 Li13 1.929379 1_655
F5 Li0 1.956783 1_556
F5 Li21 1.999570 1_555
F5 Li5 2.004840 1_655
F5 Li25 2.297013 1_555
F5 Li30 2.517912 1_556
F6 Li14 1.929136 1_555
F6 Li1 1.956762 1_555
F6 Li22 2.000820 1_555
F6 Li6 2.005186 1_555
F6 Li26 2.296338 1_555
F6 Li31 2.516422 1_465
F7 Li15 1.930050 1_555
F7 Li2 1.958548 1_556
F7 Li23 2.001340 1_545
F7 Li7 2.007933 1_545
F7 Li27 2.295042 1_555
F7 Li28 2.513224 1_556
