# generated using pymatgen
data_Li2MnP4H3O14
_symmetry_space_group_name_H-M   'P 1'
_cell_length_a   7.60824700
_cell_length_b   4.87236800
_cell_length_c   16.38926737
_cell_angle_alpha   82.21350296
_cell_angle_beta   90.00000000
_cell_angle_gamma   90.00000000
_symmetry_Int_Tables_number   1
_chemical_formula_structural   Li2MnP4H3O14
_chemical_formula_sum   'Li4 Mn2 P8 H6 O28'
_cell_volume   601.95131603
_cell_formula_units_Z   2
loop_
 _symmetry_equiv_pos_site_id
 _symmetry_equiv_pos_as_xyz
  1  'x, y, z'
loop_
 _atom_site_type_symbol
 _atom_site_label
 _atom_site_symmetry_multiplicity
 _atom_site_fract_x
 _atom_site_fract_y
 _atom_site_fract_z
 _atom_site_occupancy
  Li  Li0  1  0.13378300  0.78721200  0.15241200  1
  Li  Li1  1  0.63378300  0.21278800  0.34758800  1
  Li  Li2  1  0.36621700  0.78721200  0.65241200  1
  Li  Li3  1  0.86621700  0.21278800  0.84758800  1
  Mn  Mn0  1  0.50000000  0.00000000  0.00000000  1
  Mn  Mn1  1  0.00000000  0.00000000  0.50000000  1
  P  P0  1  0.76773300  0.47640100  0.55421000  1
  P  P1  1  0.46566400  0.34886100  0.79910900  1
  P  P2  1  0.96566400  0.65113900  0.70089100  1
  P  P3  1  0.26773300  0.52359900  0.94579000  1
  P  P4  1  0.73226700  0.47640100  0.05421000  1
  P  P5  1  0.03433600  0.34886100  0.29910900  1
  P  P6  1  0.53433600  0.65113900  0.20089100  1
  P  P7  1  0.23226700  0.52359900  0.44579000  1
  H  H0  1  0.16043600  0.31096000  0.75427600  1
  H  H1  1  0.50000000  0.50000000  0.50000000  1
  H  H2  1  0.66043600  0.68904000  0.74572400  1
  H  H3  1  0.33956400  0.31096000  0.25427600  1
  H  H4  1  0.00000000  0.50000000  0.00000000  1
  H  H5  1  0.83956400  0.68904000  0.24572400  1
  O  O0  1  0.60759000  0.19489700  0.85150400  1
  O  O1  1  0.85111900  0.47563800  0.64196800  1
  O  O2  1  0.57185500  0.54545200  0.56202000  1
  O  O3  1  0.66442600  0.81090600  0.24611400  1
  O  O4  1  0.53756500  0.59657400  0.73572500  1
  O  O5  1  0.03756500  0.40342600  0.76427500  1
  O  O6  1  0.85944300  0.68493100  0.48926800  1
  O  O7  1  0.07185500  0.45454800  0.93798000  1
  O  O8  1  0.35111900  0.52436200  0.85803200  1
  O  O9  1  0.21165900  0.81894800  0.46781100  1
  O  O10  1  0.83557400  0.81090600  0.74611400  1
  O  O11  1  0.71165900  0.18105200  0.03218900  1
  O  O12  1  0.10759000  0.80510300  0.64849600  1
  O  O13  1  0.64055700  0.68493100  0.98926800  1
  O  O14  1  0.35944300  0.31506900  0.01073200  1
  O  O15  1  0.89241000  0.19489700  0.35150400  1
  O  O16  1  0.28834100  0.81894800  0.96781100  1
  O  O17  1  0.16442600  0.18909400  0.25388600  1
  O  O18  1  0.78834100  0.18105200  0.53218900  1
  O  O19  1  0.64888100  0.47563800  0.14196800  1
  O  O20  1  0.92814500  0.54545200  0.06202000  1
  O  O21  1  0.14055700  0.31506900  0.51073200  1
  O  O22  1  0.96243500  0.59657400  0.23572500  1
  O  O23  1  0.46243500  0.40342600  0.26427500  1
  O  O24  1  0.33557400  0.18909400  0.75388600  1
  O  O25  1  0.42814500  0.45454800  0.43798000  1
  O  O26  1  0.14888100  0.52436200  0.35803200  1
  O  O27  1  0.39241000  0.80510300  0.14849600  1
loop_
_geom_bond_atom_site_label_1
_geom_bond_atom_site_label_2
_geom_bond_distance
_geom_bond_site_symmetry_2
Li0 O27 1.970289 1_555
Li0 O22 2.020659 1_455
Li1 O15 1.970289 1_555
Li1 O23 2.020659 1_555
Li2 O12 1.970289 1_555
Li2 O4 2.020659 1_555
Li3 O0 1.970289 1_555
Li3 O5 2.020659 1_655
Mn0 O14 1.898508 1_555
Mn0 O13 1.898508 1_544
Mn0 O16 1.943154 1_544
Mn0 O11 1.943154 1_555
Mn0 O0 2.620818 1_554
Mn0 O27 2.620818 1_545
Mn1 O21 1.898508 1_555
Mn1 O6 1.898508 1_445
Mn1 O9 1.943154 1_545
Mn1 O18 1.943154 1_455
Mn1 O12 2.620818 1_545
Mn1 O15 2.620818 1_455
H0 O5 1.060070 1_555
H0 O24 1.459170 1_555
H1 O2 1.200877 1_555
H1 O25 1.200877 1_555
H2 O4 1.060070 1_555
H2 O10 1.459170 1_555
H3 O23 1.060070 1_555
H3 O17 1.459170 1_555
H4 O7 1.200877 1_554
H4 O20 1.200877 1_455
H5 O22 1.060070 1_555
H5 O3 1.459170 1_555
O0 P1 1.513797 1_555
O1 P0 1.571538 1_555
O1 P2 1.626972 1_555
O2 P0 1.536947 1_555
O3 P6 1.513692 1_555
O4 P1 1.579679 1_555
O5 P2 1.579679 1_455
O6 P0 1.535905 1_555
O7 P3 1.536947 1_555
O8 P3 1.571538 1_555
O8 P1 1.626972 1_555
O9 P7 1.538320 1_555
O10 P2 1.513692 1_555
O11 P4 1.538320 1_555
O12 P2 1.513797 1_455
O13 P4 1.535905 1_556
O14 P3 1.535905 1_554
O15 P5 1.513797 1_655
O16 P3 1.538320 1_555
O17 P5 1.513692 1_555
O18 P0 1.538320 1_555
O19 P4 1.571538 1_555
O19 P6 1.626972 1_555
O20 P4 1.536947 1_555
O21 P7 1.535905 1_555
O22 P5 1.579679 1_655
O23 P6 1.579679 1_555
O24 P1 1.513692 1_555
O25 P7 1.536947 1_555
O26 P7 1.571538 1_555
O26 P5 1.626972 1_555
O27 P6 1.513797 1_555
