# generated using pymatgen
data_Sr2MnMoO6
_symmetry_space_group_name_H-M   'P 1'
_cell_length_a   8.09607600
_cell_length_b   8.09607600
_cell_length_c   8.16243600
_cell_angle_alpha   90.00000000
_cell_angle_beta   90.00000000
_cell_angle_gamma   90.00000000
_symmetry_Int_Tables_number   1
_chemical_formula_structural   Sr2MnMoO6
_chemical_formula_sum   'Sr8 Mn4 Mo4 O24'
_cell_volume   535.01867538
_cell_formula_units_Z   4
loop_
 _symmetry_equiv_pos_site_id
 _symmetry_equiv_pos_as_xyz
  1  'x, y, z'
loop_
 _atom_site_type_symbol
 _atom_site_label
 _atom_site_symmetry_multiplicity
 _atom_site_fract_x
 _atom_site_fract_y
 _atom_site_fract_z
 _atom_site_occupancy
  Sr  Sr0  1  0.00000000  0.00000000  0.00000000  1
  Sr  Sr1  1  0.50000000  0.00000000  0.01274200  1
  Sr  Sr2  1  0.00000000  0.50000000  0.48725800  1
  Sr  Sr3  1  0.50000000  0.50000000  0.00000000  1
  Sr  Sr4  1  0.00000000  0.00000000  0.50000000  1
  Sr  Sr5  1  0.00000000  0.50000000  0.98725800  1
  Sr  Sr6  1  0.50000000  0.50000000  0.50000000  1
  Sr  Sr7  1  0.50000000  0.00000000  0.51274200  1
  Mn  Mn0  1  0.25000000  0.75000000  0.25000000  1
  Mn  Mn1  1  0.75000000  0.75000000  0.75000000  1
  Mn  Mn2  1  0.75000000  0.25000000  0.25000000  1
  Mn  Mn3  1  0.25000000  0.25000000  0.75000000  1
  Mo  Mo0  1  0.25000000  0.25000000  0.25000000  1
  Mo  Mo1  1  0.75000000  0.75000000  0.25000000  1
  Mo  Mo2  1  0.25000000  0.75000000  0.75000000  1
  Mo  Mo3  1  0.75000000  0.25000000  0.75000000  1
  O  O0  1  0.48613900  0.29291000  0.22846700  1
  O  O1  1  0.72754200  0.26950500  0.51280400  1
  O  O2  1  0.01386100  0.20709000  0.27153300  1
  O  O3  1  0.29291000  0.51386100  0.77153300  1
  O  O4  1  0.20386000  0.48599600  0.23180900  1
  O  O5  1  0.51386100  0.70709000  0.22846700  1
  O  O6  1  0.76950500  0.77245800  0.01280400  1
  O  O7  1  0.79291000  0.01386100  0.72846700  1
  O  O8  1  0.29614000  0.01400400  0.26819100  1
  O  O9  1  0.77245800  0.23049500  0.98719600  1
  O  O10  1  0.79614000  0.51400400  0.23180900  1
  O  O11  1  0.98613900  0.79291000  0.27153300  1
  O  O12  1  0.01400400  0.70386000  0.73180900  1
  O  O13  1  0.51400400  0.20386000  0.76819100  1
  O  O14  1  0.23049500  0.22754200  0.01280400  1
  O  O15  1  0.73049500  0.72754200  0.48719600  1
  O  O16  1  0.70386000  0.98599600  0.26819100  1
  O  O17  1  0.48599600  0.79614000  0.76819100  1
  O  O18  1  0.70709000  0.48613900  0.77153300  1
  O  O19  1  0.98599600  0.29614000  0.73180900  1
  O  O20  1  0.27245800  0.73049500  0.51280400  1
  O  O21  1  0.20709000  0.98613900  0.72846700  1
  O  O22  1  0.22754200  0.76950500  0.98719600  1
  O  O23  1  0.26950500  0.27245800  0.48719600  1
loop_
_geom_bond_atom_site_label_1
_geom_bond_atom_site_label_2
_geom_bond_distance
_geom_bond_site_symmetry_2
Mn0 O20 2.158597 1_555
Mn0 O22 2.158597 1_554
Mn0 O11 2.171427 1_455
Mn0 O5 2.171427 1_555
Mn0 O8 2.174868 1_565
Mn0 O4 2.174868 1_555
Mn1 O6 2.158597 1_556
Mn1 O15 2.158597 1_555
Mn1 O18 2.171427 1_555
Mn1 O7 2.171427 1_565
Mn1 O12 2.174868 1_655
Mn1 O17 2.174868 1_555
Mn2 O1 2.158597 1_555
Mn2 O9 2.158597 1_554
Mn2 O2 2.171427 1_655
Mn2 O0 2.171427 1_555
Mn2 O10 2.174868 1_555
Mn2 O16 2.174868 1_545
Mn3 O14 2.158597 1_556
Mn3 O23 2.158597 1_555
Mn3 O3 2.171427 1_555
Mn3 O21 2.171427 1_545
Mn3 O13 2.174868 1_555
Mn3 O19 2.174868 1_455
Mo0 O23 1.951017 1_555
Mo0 O14 1.951017 1_555
Mo0 O2 1.951040 1_555
Mo0 O0 1.951040 1_555
Mo0 O4 1.952470 1_555
Mo0 O8 1.952470 1_555
Mo1 O15 1.951017 1_555
Mo1 O6 1.951017 1_555
Mo1 O11 1.951040 1_555
Mo1 O5 1.951040 1_555
Mo1 O16 1.952470 1_555
Mo1 O10 1.952470 1_555
Mo2 O22 1.951017 1_555
Mo2 O20 1.951017 1_555
Mo2 O3 1.951040 1_555
Mo2 O21 1.951040 1_555
Mo2 O17 1.952470 1_555
Mo2 O12 1.952470 1_555
Mo3 O9 1.951017 1_555
Mo3 O1 1.951017 1_555
Mo3 O18 1.951040 1_555
Mo3 O7 1.951040 1_555
Mo3 O13 1.952470 1_555
Mo3 O19 1.952470 1_555
O0 Sr3 2.510237 1_555
O0 Sr6 2.781355 1_555
O0 Sr1 2.955807 1_555
O1 Sr6 2.624302 1_555
O1 Sr7 2.855612 1_555
O1 Sr2 2.896819 1_655
O1 Sr4 3.104430 1_655
O2 Sr4 2.510237 1_555
O2 Sr0 2.781355 1_555
O2 Sr2 2.955807 1_555
O3 Sr3 2.510237 1_556
O3 Sr6 2.781355 1_555
O3 Sr5 2.955807 1_555
O4 Sr5 2.592573 1_554
O4 Sr2 2.661668 1_555
O5 Sr3 2.510237 1_555
O5 Sr6 2.781355 1_555
O5 Sr1 2.955807 1_565
O6 Sr0 2.624302 1_665
O6 Sr1 2.855612 1_565
O6 Sr5 2.896819 1_654
O6 Sr3 3.104430 1_555
O7 Sr4 2.510237 1_655
O7 Sr0 2.781355 1_656
O7 Sr7 2.955807 1_555
O8 Sr7 2.592573 1_555
O8 Sr1 2.661668 1_555
O9 Sr0 2.624302 1_656
O9 Sr5 2.855612 1_655
O9 Sr1 2.896819 1_556
O9 Sr3 3.104430 1_556
O10 Sr5 2.592573 1_654
O10 Sr2 2.661668 1_655
O11 Sr4 2.510237 1_665
O11 Sr0 2.781355 1_665
O11 Sr2 2.955807 1_655
O12 Sr2 2.592573 1_555
O12 Sr5 2.661668 1_555
O13 Sr1 2.592573 1_556
O13 Sr7 2.661668 1_555
O14 Sr0 2.624302 1_555
O14 Sr1 2.855612 1_555
O14 Sr5 2.896819 1_554
O14 Sr3 3.104430 1_555
O15 Sr6 2.624302 1_555
O15 Sr2 2.855612 1_655
O15 Sr7 2.896819 1_565
O15 Sr4 3.104430 1_665
O16 Sr7 2.592573 1_565
O16 Sr1 2.661668 1_565
O17 Sr1 2.592573 1_566
O17 Sr7 2.661668 1_565
O18 Sr3 2.510237 1_556
O18 Sr6 2.781355 1_555
O18 Sr5 2.955807 1_655
O19 Sr2 2.592573 1_655
O19 Sr5 2.661668 1_655
O20 Sr6 2.624302 1_555
O20 Sr7 2.855612 1_565
O20 Sr2 2.896819 1_555
O20 Sr4 3.104430 1_565
O21 Sr4 2.510237 1_565
O21 Sr0 2.781355 1_566
O21 Sr7 2.955807 1_565
O22 Sr0 2.624302 1_566
O22 Sr5 2.855612 1_555
O22 Sr1 2.896819 1_566
O22 Sr3 3.104430 1_556
O23 Sr6 2.624302 1_555
O23 Sr2 2.855612 1_555
O23 Sr7 2.896819 1_555
O23 Sr4 3.104430 1_555
