# generated using pymatgen
data_LiVNiO4
_symmetry_space_group_name_H-M   'P 1'
_cell_length_a   4.93077800
_cell_length_b   6.02826700
_cell_length_c   10.40339300
_cell_angle_alpha   90.00000000
_cell_angle_beta   90.00294991
_cell_angle_gamma   90.00009400
_symmetry_Int_Tables_number   1
_chemical_formula_structural   LiVNiO4
_chemical_formula_sum   'Li4 V4 Ni4 O16'
_cell_volume   309.23093502
_cell_formula_units_Z   4
loop_
 _symmetry_equiv_pos_site_id
 _symmetry_equiv_pos_as_xyz
  1  'x, y, z'
loop_
 _atom_site_type_symbol
 _atom_site_label
 _atom_site_symmetry_multiplicity
 _atom_site_fract_x
 _atom_site_fract_y
 _atom_site_fract_z
 _atom_site_occupancy
  Li  Li0  1  0.99999900  0.99999500  0.00000000  1
  Li  Li1  1  0.50000000  0.99999300  0.50000000  1
  Li  Li2  1  0.99999900  0.50000800  0.00000000  1
  Li  Li3  1  0.50000000  0.50000800  0.50000000  1
  V  V0  1  0.43049100  0.24999600  0.09457300  1
  V  V1  1  0.06952800  0.25000500  0.59457900  1
  V  V2  1  0.93047200  0.75000100  0.40543600  1
  V  V3  1  0.56950200  0.74999600  0.90541100  1
  Ni  Ni0  1  0.50650100  0.25001500  0.76908200  1
  Ni  Ni1  1  0.49351500  0.74998200  0.23090500  1
  Ni  Ni2  1  0.99349600  0.24998600  0.26912400  1
  Ni  Ni3  1  0.00649300  0.75000200  0.73087800  1
  O  O0  1  0.20282800  0.25000200  0.44016500  1
  O  O1  1  0.29718000  0.25000000  0.94016700  1
  O  O2  1  0.79717500  0.75000000  0.55982600  1
  O  O3  1  0.70282100  0.75000200  0.05982700  1
  O  O4  1  0.78273400  0.25000200  0.09613800  1
  O  O5  1  0.71729100  0.25000100  0.59611800  1
  O  O6  1  0.28271300  0.75000100  0.40388100  1
  O  O7  1  0.21727800  0.75000000  0.90386500  1
  O  O8  1  0.27316600  0.02177000  0.16939100  1
  O  O9  1  0.22686200  0.02177900  0.66936500  1
  O  O10  1  0.27316600  0.47823400  0.16939200  1
  O  O11  1  0.22686200  0.47822200  0.66936500  1
  O  O12  1  0.72682300  0.52179100  0.83061800  1
  O  O13  1  0.77314200  0.52178400  0.33063900  1
  O  O14  1  0.77313800  0.97821600  0.33063800  1
  O  O15  1  0.72682300  0.97821000  0.83061900  1
loop_
_geom_bond_atom_site_label_1
_geom_bond_atom_site_label_2
_geom_bond_distance
_geom_bond_site_symmetry_2
Li0 O7 2.102222 1_654
Li0 O4 2.102253 1_565
Li0 O3 2.192203 1_555
Li0 O1 2.192281 1_664
Li0 O15 2.221814 1_554
Li0 O8 2.221866 1_665
Li1 O6 2.102095 1_555
Li1 O5 2.102169 1_565
Li1 O2 2.192151 1_555
Li1 O0 2.192234 1_565
Li1 O14 2.221651 1_555
Li1 O9 2.221679 1_565
Li2 O7 2.102206 1_654
Li2 O4 2.102246 1_555
Li2 O3 2.192211 1_555
Li2 O1 2.192296 1_654
Li2 O12 2.221822 1_554
Li2 O10 2.221874 1_655
Li3 O6 2.102101 1_555
Li3 O5 2.102167 1_555
Li3 O2 2.192143 1_555
Li3 O0 2.192218 1_555
Li3 O13 2.221654 1_555
Li3 O11 2.221679 1_555
Ni0 O1 2.057515 1_555
Ni0 O12 2.067386 1_555
Ni0 O15 2.067531 1_545
Ni0 O5 2.078063 1_555
Ni0 O11 2.206756 1_555
Ni0 O9 2.206862 1_555
Ni1 O3 2.057415 1_555
Ni1 O10 2.067248 1_555
Ni1 O8 2.067445 1_565
Ni1 O6 2.078200 1_555
Ni1 O13 2.206768 1_555
Ni1 O14 2.206884 1_555
Ni2 O0 2.057055 1_655
Ni2 O14 2.067414 1_545
Ni2 O13 2.067544 1_555
Ni2 O4 2.078099 1_555
Ni2 O8 2.207030 1_655
Ni2 O10 2.207143 1_655
Ni3 O2 2.057119 1_455
Ni3 O9 2.067473 1_565
Ni3 O11 2.067490 1_555
Ni3 O7 2.078165 1_555
Ni3 O15 2.207039 1_455
Ni3 O12 2.207043 1_455
O0 V1 1.735722 1_555
O1 V0 1.735603 1_556
O2 V2 1.735486 1_555
O3 V3 1.735714 1_554
O4 V0 1.736908 1_555
O5 V1 1.736877 1_655
O6 V2 1.736898 1_455
O7 V3 1.736812 1_555
O8 V0 1.760828 1_555
O9 V1 1.760667 1_555
O10 V0 1.760891 1_555
O11 V1 1.760623 1_555
O12 V3 1.760607 1_555
O13 V2 1.760664 1_555
O14 V2 1.760670 1_555
O15 V3 1.760643 1_555
