# generated using pymatgen
data_Ba2YI7
_symmetry_space_group_name_H-M   'P 1'
_cell_length_a   13.08309421
_cell_length_b   13.08309421
_cell_length_c   13.59048029
_cell_angle_alpha   63.92690720
_cell_angle_beta   63.92690720
_cell_angle_gamma   67.78473316
_symmetry_Int_Tables_number   1
_chemical_formula_structural   Ba2YI7
_chemical_formula_sum   'Ba8 Y4 I28'
_cell_volume   1826.91575630
_cell_formula_units_Z   4
loop_
 _symmetry_equiv_pos_site_id
 _symmetry_equiv_pos_as_xyz
  1  'x, y, z'
loop_
 _atom_site_type_symbol
 _atom_site_label
 _atom_site_symmetry_multiplicity
 _atom_site_fract_x
 _atom_site_fract_y
 _atom_site_fract_z
 _atom_site_occupancy
  Ba  Ba0  1  0.25671800  0.89578800  0.45272400  1
  Ba  Ba1  1  0.32061900  0.44056200  0.47754000  1
  Ba  Ba2  1  0.44056200  0.32061900  0.97754000  1
  Ba  Ba3  1  0.10421200  0.74328200  0.04727600  1
  Ba  Ba4  1  0.89578800  0.25671800  0.95272400  1
  Ba  Ba5  1  0.55943800  0.67938100  0.02246000  1
  Ba  Ba6  1  0.67938100  0.55943800  0.52246000  1
  Ba  Ba7  1  0.74328200  0.10421200  0.54727600  1
  Y  Y0  1  0.01282100  0.33110600  0.32848400  1
  Y  Y1  1  0.66889400  0.98717900  0.17151600  1
  Y  Y2  1  0.33110600  0.01282100  0.82848400  1
  Y  Y3  1  0.98717900  0.66889400  0.67151600  1
  I  I0  1  0.22644000  0.62003400  0.69362000  1
  I  I1  1  0.09298300  0.03686200  0.82162500  1
  I  I2  1  0.03536700  0.42422800  0.66096600  1
  I  I3  1  0.44759000  0.13193200  0.56869300  1
  I  I4  1  0.22580600  0.22165200  0.40159400  1
  I  I5  1  0.42422800  0.03536700  0.16096600  1
  I  I6  1  0.13193200  0.44759000  0.06869300  1
  I  I7  1  0.77834800  0.77419400  0.09840600  1
  I  I8  1  0.12762400  0.72685800  0.41503800  1
  I  I9  1  0.62003400  0.22644000  0.19362000  1
  I  I10  1  0.72685800  0.12762400  0.91503800  1
  I  I11  1  0.35136100  0.51704700  0.16337300  1
  I  I12  1  0.96313800  0.90701700  0.67837500  1
  I  I13  1  0.51704700  0.35136100  0.66337300  1
  I  I14  1  0.48295300  0.64863900  0.33662700  1
  I  I15  1  0.03686200  0.09298300  0.32162500  1
  I  I16  1  0.64863900  0.48295300  0.83662700  1
  I  I17  1  0.27314200  0.87237600  0.08496200  1
  I  I18  1  0.37996600  0.77356000  0.80638000  1
  I  I19  1  0.87237600  0.27314200  0.58496200  1
  I  I20  1  0.22165200  0.22580600  0.90159400  1
  I  I21  1  0.86806800  0.55241000  0.93130700  1
  I  I22  1  0.57577200  0.96463300  0.83903400  1
  I  I23  1  0.77419400  0.77834800  0.59840600  1
  I  I24  1  0.55241000  0.86806800  0.43130700  1
  I  I25  1  0.96463300  0.57577200  0.33903400  1
  I  I26  1  0.90701700  0.96313800  0.17837500  1
  I  I27  1  0.77356000  0.37996600  0.30638000  1
loop_
_geom_bond_atom_site_label_1
_geom_bond_atom_site_label_2
_geom_bond_distance
_geom_bond_site_symmetry_2
Ba0 I8 3.546491 1_555
Ba0 I5 3.589230 1_565
Ba0 I15 3.599577 1_565
Ba0 I24 3.636500 1_555
Ba0 I0 3.667294 1_555
Ba0 I12 3.714058 1_455
Ba0 I14 3.853314 1_555
Ba0 I4 3.893756 1_565
Ba1 I14 3.435543 1_555
Ba1 I2 3.484899 1_555
Ba1 I3 3.596957 1_555
Ba1 I8 3.614381 1_555
Ba1 I11 3.798997 1_555
Ba1 I13 3.897599 1_555
Ba1 I0 4.043288 1_555
Ba1 I4 4.149339 1_555
Ba2 I16 3.435543 1_555
Ba2 I5 3.484899 1_556
Ba2 I6 3.596957 1_556
Ba2 I10 3.614381 1_555
Ba2 I13 3.798997 1_555
Ba2 I11 3.897599 1_556
Ba2 I9 4.043288 1_556
Ba2 I20 4.149339 1_555
Ba3 I17 3.546491 1_555
Ba3 I25 3.589230 1_455
Ba3 I26 3.599577 1_455
Ba3 I6 3.636500 1_555
Ba3 I18 3.667294 1_554
Ba3 I1 3.714058 1_564
Ba3 I11 3.853314 1_555
Ba3 I7 3.893756 1_455
Ba4 I10 3.546491 1_555
Ba4 I2 3.589230 1_655
Ba4 I1 3.599577 1_655
Ba4 I21 3.636500 1_555
Ba4 I9 3.667294 1_556
Ba4 I26 3.714058 1_546
Ba4 I16 3.853314 1_555
Ba4 I20 3.893756 1_655
Ba5 I11 3.435543 1_555
Ba5 I22 3.484899 1_554
Ba5 I21 3.596957 1_554
Ba5 I17 3.614381 1_555
Ba5 I14 3.798997 1_555
Ba5 I16 3.897599 1_554
Ba5 I18 4.043288 1_554
Ba5 I7 4.149339 1_555
Ba6 I13 3.435543 1_555
Ba6 I25 3.484899 1_555
Ba6 I24 3.596957 1_555
Ba6 I19 3.614381 1_555
Ba6 I16 3.798997 1_555
Ba6 I14 3.897599 1_555
Ba6 I27 4.043288 1_555
Ba6 I23 4.149339 1_555
Ba7 I19 3.546491 1_555
Ba7 I22 3.589230 1_545
Ba7 I12 3.599577 1_545
Ba7 I3 3.636500 1_555
Ba7 I27 3.667294 1_555
Ba7 I15 3.714058 1_655
Ba7 I13 3.853314 1_555
Ba7 I23 3.893756 1_545
I0 Y3 3.072813 1_455
I1 Y2 3.049883 1_555
I2 Y3 3.076089 1_455
I3 Y2 3.073469 1_555
I4 Y0 2.994688 1_555
I5 Y1 3.076089 1_545
I6 Y0 3.073469 1_555
I7 Y1 2.994688 1_555
I8 Y3 3.033356 1_455
I9 Y1 3.072813 1_545
I10 Y1 3.033356 1_546
I12 Y3 3.049883 1_555
I15 Y0 3.049883 1_555
I17 Y2 3.033356 1_564
I18 Y2 3.072813 1_565
I19 Y0 3.033356 1_655
I20 Y2 2.994688 1_555
I21 Y3 3.073469 1_555
I22 Y2 3.076089 1_565
I23 Y3 2.994688 1_555
I24 Y1 3.073469 1_555
I25 Y0 3.076089 1_655
I26 Y1 3.049883 1_555
I27 Y0 3.072813 1_655
