# generated using pymatgen
data_Li4V3Co3(SbO8)2
_symmetry_space_group_name_H-M   'P 1'
_cell_length_a   5.95888800
_cell_length_b   6.00051307
_cell_length_c   9.74585312
_cell_angle_alpha   90.72687469
_cell_angle_beta   90.19422459
_cell_angle_gamma   119.70629658
_symmetry_Int_Tables_number   1
_chemical_formula_structural   Li4V3Co3(SbO8)2
_chemical_formula_sum   'Li4 V3 Co3 Sb2 O16'
_cell_volume   302.63553385
_cell_formula_units_Z   1
loop_
 _symmetry_equiv_pos_site_id
 _symmetry_equiv_pos_as_xyz
  1  'x, y, z'
loop_
 _atom_site_type_symbol
 _atom_site_label
 _atom_site_symmetry_multiplicity
 _atom_site_fract_x
 _atom_site_fract_y
 _atom_site_fract_z
 _atom_site_occupancy
  Li  Li0  1  0.67032700  0.33702100  0.09350600  1
  Li  Li1  1  0.99639800  0.99438900  0.00407200  1
  Li  Li2  1  0.00478000  0.99933500  0.51595900  1
  Li  Li3  1  0.33867800  0.67792100  0.60287700  1
  V  V0  1  0.82389000  0.64846400  0.77805600  1
  V  V1  1  0.65530000  0.81617200  0.28980400  1
  V  V2  1  0.17169700  0.82883400  0.27814400  1
  Co  Co0  1  0.82945900  0.17238000  0.78926000  1
  Co  Co1  1  0.34265800  0.17350500  0.78889500  1
  Co  Co2  1  0.17102000  0.34149500  0.29169400  1
  Sb  Sb0  1  0.65727100  0.31951800  0.51434900  1
  Sb  Sb1  1  0.32968600  0.66216300  0.00585500  1
  O  O0  1  0.82081000  0.14667800  0.39979100  1
  O  O1  1  0.51869700  0.03812400  0.64987300  1
  O  O2  1  0.68723900  0.37262100  0.89414700  1
  O  O3  1  0.98454900  0.97213900  0.70305900  1
  O  O4  1  0.99680500  0.97897000  0.19702900  1
  O  O5  1  0.32704000  0.16031500  0.40296200  1
  O  O6  1  0.96766500  0.49619300  0.64481200  1
  O  O7  1  0.52727800  0.49631300  0.64588200  1
  O  O8  1  0.16305600  0.32284000  0.91557600  1
  O  O9  1  0.82695200  0.66059200  0.39604600  1
  O  O10  1  0.50233100  0.54122900  0.16221200  1
  O  O11  1  0.04306100  0.52823900  0.15744400  1
  O  O12  1  0.34048700  0.70127600  0.39366900  1
  O  O13  1  0.66217200  0.82501200  0.90914300  1
  O  O14  1  0.47859900  0.96164600  0.15999300  1
  O  O15  1  0.16239600  0.82661700  0.90804700  1
loop_
_geom_bond_atom_site_label_1
_geom_bond_atom_site_label_2
_geom_bond_distance
_geom_bond_site_symmetry_2
Li0 O2 1.954805 1_554
Li0 O11 2.021060 1_655
Li0 O10 2.037517 1_555
Li0 O14 2.071277 1_545
Li1 O4 1.884030 1_555
Li1 O8 1.929640 1_664
Li1 O13 1.952664 1_554
Li1 O15 1.958841 1_654
Li2 O3 1.831850 1_455
Li2 O5 2.009056 1_565
Li2 O0 2.059818 1_465
Li2 O9 2.101621 1_455
Li3 O1 1.925034 1_565
Li3 O7 1.961743 1_555
Li3 O6 1.967723 1_455
Li3 O12 2.045193 1_555
Co0 O3 2.020836 1_545
Co0 O2 2.047141 1_555
Co0 O1 2.097653 1_555
Co0 O8 2.111559 1_655
Co0 O13 2.171126 1_545
Co0 O6 2.219631 1_555
Co1 O3 2.029830 1_445
Co1 O2 2.054022 1_555
Co1 O8 2.098574 1_555
Co1 O1 2.102933 1_555
Co1 O15 2.165353 1_545
Co1 O7 2.207219 1_555
Co2 O5 2.060841 1_555
Co2 O4 2.089344 1_445
Co2 O11 2.103846 1_555
Co2 O12 2.108610 1_555
Co2 O0 2.111803 1_455
Co2 O10 2.153286 1_555
O0 V1 2.013741 1_545
O0 Sb0 2.061918 1_555
O1 Sb0 1.989854 1_555
O2 V0 1.844116 1_555
O3 V0 1.849558 1_555
O4 V2 1.861630 1_655
O4 V1 1.994399 1_555
O5 Sb0 2.014792 1_555
O5 V2 2.097407 1_545
O6 V0 2.002109 1_555
O6 Sb0 2.041574 1_555
O7 V0 1.993047 1_555
O7 Sb0 2.038480 1_555
O8 Sb1 1.962314 1_556
O9 V1 1.988369 1_555
O9 V2 2.132983 1_655
O9 Sb0 2.134745 1_555
O10 V1 1.883824 1_555
O10 Sb1 2.159714 1_555
O11 V2 1.947939 1_555
O11 Sb1 2.105335 1_555
O12 V2 1.908485 1_555
O12 V1 1.941097 1_555
O13 Sb1 1.971246 1_556
O13 V0 2.160759 1_555
O14 V2 1.974486 1_555
O14 V1 2.097891 1_555
O14 Sb1 2.148358 1_555
O15 Sb1 1.966862 1_556
O15 V0 2.151206 1_455
