# generated using pymatgen
data_Ba3La2Cl12
_symmetry_space_group_name_H-M   'P 1'
_cell_length_a   9.31874156
_cell_length_b   10.09916236
_cell_length_c   13.57781788
_cell_angle_alpha   109.55155742
_cell_angle_beta   111.18987667
_cell_angle_gamma   94.20303472
_symmetry_Int_Tables_number   1
_chemical_formula_structural   Ba3La2Cl12
_chemical_formula_sum   'Ba6 La4 Cl24'
_cell_volume   1094.95078910
_cell_formula_units_Z   2
loop_
 _symmetry_equiv_pos_site_id
 _symmetry_equiv_pos_as_xyz
  1  'x, y, z'
loop_
 _atom_site_type_symbol
 _atom_site_label
 _atom_site_symmetry_multiplicity
 _atom_site_fract_x
 _atom_site_fract_y
 _atom_site_fract_z
 _atom_site_occupancy
  Ba  Ba0  1  0.22079100  0.76974000  0.63259800  1
  Ba  Ba1  1  0.20175800  0.30692300  0.20721200  1
  Ba  Ba2  1  0.58818900  0.21285500  0.97053600  1
  Ba  Ba3  1  0.41181100  0.78714500  0.02946400  1
  Ba  Ba4  1  0.79824200  0.69307700  0.79278800  1
  Ba  Ba5  1  0.77920900  0.23026000  0.36740200  1
  La  La0  1  0.00565000  0.22891200  0.79609600  1
  La  La1  1  0.36665700  0.27952900  0.57655300  1
  La  La2  1  0.63334300  0.72047100  0.42344700  1
  La  La3  1  0.99435000  0.77108800  0.20390400  1
  Cl  Cl0  1  0.13272300  0.67253800  0.79743300  1
  Cl  Cl1  1  0.21947000  0.45541500  0.98640800  1
  Cl  Cl2  1  0.07556300  0.23606700  0.61070700  1
  Cl  Cl3  1  0.22511500  0.06277000  0.83824900  1
  Cl  Cl4  1  0.16275500  0.42963700  0.46520100  1
  Cl  Cl5  1  0.08658600  0.85100700  0.05299900  1
  Cl  Cl6  1  0.24313600  0.64779000  0.29846900  1
  Cl  Cl7  1  0.16483200  0.04835500  0.36591900  1
  Cl  Cl8  1  0.54471200  0.88163800  0.86974000  1
  Cl  Cl9  1  0.46941800  0.52119400  0.76991000  1
  Cl  Cl10  1  0.44475400  0.08664400  0.68163600  1
  Cl  Cl11  1  0.51512600  0.70073900  0.58164800  1
  Cl  Cl12  1  0.48487400  0.29926100  0.41835200  1
  Cl  Cl13  1  0.55524600  0.91335600  0.31836400  1
  Cl  Cl14  1  0.53058200  0.47880600  0.23009000  1
  Cl  Cl15  1  0.45528800  0.11836200  0.13026000  1
  Cl  Cl16  1  0.83516800  0.95164500  0.63408100  1
  Cl  Cl17  1  0.75686400  0.35221000  0.70153100  1
  Cl  Cl18  1  0.91341400  0.14899300  0.94700100  1
  Cl  Cl19  1  0.83724500  0.57036300  0.53479900  1
  Cl  Cl20  1  0.77488500  0.93723000  0.16175100  1
  Cl  Cl21  1  0.92443700  0.76393300  0.38929300  1
  Cl  Cl22  1  0.78053000  0.54458500  0.01359200  1
  Cl  Cl23  1  0.86727700  0.32746200  0.20256700  1
loop_
_geom_bond_atom_site_label_1
_geom_bond_atom_site_label_2
_geom_bond_distance
_geom_bond_site_symmetry_2
Ba0 Cl0 3.053935 1_555
Ba0 Cl11 3.133134 1_555
Ba0 Cl8 3.285498 1_555
Ba0 Cl4 3.296960 1_555
Ba0 Cl3 3.305560 1_565
Ba0 Cl10 3.410592 1_565
Ba0 Cl21 3.434355 1_455
Ba0 Cl19 3.509524 1_455
Ba1 Cl23 3.118292 1_455
Ba1 Cl12 3.145759 1_555
Ba1 Cl6 3.184290 1_555
Ba1 Cl14 3.266578 1_555
Ba1 Cl18 3.314182 1_454
Ba1 Cl15 3.378190 1_555
Ba1 Cl4 3.466887 1_555
Ba2 Cl23 3.037083 1_556
Ba2 Cl8 3.092367 1_545
Ba2 Cl3 3.162879 1_555
Ba2 Cl15 3.209580 1_556
Ba2 Cl18 3.248360 1_555
Ba2 Cl10 3.378126 1_555
Ba2 Cl22 3.439420 1_556
Ba3 Cl0 3.037083 1_554
Ba3 Cl15 3.092367 1_565
Ba3 Cl20 3.162879 1_555
Ba3 Cl8 3.209580 1_554
Ba3 Cl5 3.248360 1_555
Ba3 Cl13 3.378126 1_555
Ba3 Cl1 3.439420 1_554
Ba4 Cl0 3.118292 1_655
Ba4 Cl11 3.145759 1_555
Ba4 Cl17 3.184290 1_555
Ba4 Cl9 3.266578 1_555
Ba4 Cl5 3.314182 1_656
Ba4 Cl8 3.378190 1_555
Ba4 Cl19 3.466887 1_555
Ba5 Cl23 3.053935 1_555
Ba5 Cl12 3.133134 1_555
Ba5 Cl15 3.285498 1_555
Ba5 Cl19 3.296960 1_555
Ba5 Cl20 3.305560 1_545
Ba5 Cl13 3.410592 1_545
Ba5 Cl2 3.434355 1_655
Ba5 Cl4 3.509524 1_655
Cl1 La0 2.744721 1_555
Cl2 La0 2.840114 1_555
Cl2 La1 2.938907 1_555
Cl3 La0 2.761352 1_555
Cl4 La1 2.841469 1_555
Cl5 La3 2.804780 1_455
Cl6 La3 2.813419 1_455
Cl6 La2 3.309824 1_555
Cl7 La3 2.811159 1_445
Cl7 La1 2.857638 1_555
Cl9 La1 2.705087 1_555
Cl10 La1 2.770814 1_555
Cl11 La2 2.798626 1_555
Cl12 La1 2.798626 1_555
Cl13 La2 2.770814 1_555
Cl14 La2 2.705087 1_555
Cl16 La0 2.811159 1_665
Cl16 La2 2.857638 1_555
Cl17 La0 2.813419 1_655
Cl17 La1 3.309824 1_555
Cl18 La0 2.804780 1_655
Cl19 La2 2.841469 1_555
Cl20 La3 2.761352 1_555
Cl21 La3 2.840114 1_555
Cl21 La2 2.938907 1_555
Cl22 La3 2.744721 1_555
