# generated using pymatgen
data_Sn2N2O
_symmetry_space_group_name_H-M   'P 1'
_cell_length_a   8.84809409
_cell_length_b   8.85839209
_cell_length_c   8.87024960
_cell_angle_alpha   109.59676412
_cell_angle_beta   109.54555240
_cell_angle_gamma   109.29540956
_symmetry_Int_Tables_number   1
_chemical_formula_structural   Sn2N2O
_chemical_formula_sum   'Sn16 N16 O8'
_cell_volume   535.04086978
_cell_formula_units_Z   8
loop_
 _symmetry_equiv_pos_site_id
 _symmetry_equiv_pos_as_xyz
  1  'x, y, z'
loop_
 _atom_site_type_symbol
 _atom_site_label
 _atom_site_symmetry_multiplicity
 _atom_site_fract_x
 _atom_site_fract_y
 _atom_site_fract_z
 _atom_site_occupancy
  Sn  Sn0  1  0.49942200  0.99387200  0.99150300  1
  Sn  Sn1  1  0.75798300  0.29091900  0.54266800  1
  Sn  Sn2  1  0.21631400  0.95449300  0.25037100  1
  Sn  Sn3  1  0.71660400  0.46359500  0.24960300  1
  Sn  Sn4  1  0.25015700  0.21668800  0.95807400  1
  Sn  Sn5  1  0.46692100  0.24947800  0.72364200  1
  Sn  Sn6  1  0.99281200  0.50463900  0.99693400  1
  Sn  Sn7  1  0.96938000  0.25570400  0.21865200  1
  Sn  Sn8  1  0.01109300  0.00378200  0.51213700  1
  Sn  Sn9  1  0.50381700  0.50868400  0.50863700  1
  Sn  Sn10  1  0.02589800  0.74310500  0.77471900  1
  Sn  Sn11  1  0.52602800  0.75243000  0.28044900  1
  Sn  Sn12  1  0.74494500  0.78499000  0.02279400  1
  Sn  Sn13  1  0.77979900  0.02811300  0.75097800  1
  Sn  Sn14  1  0.28227900  0.53265900  0.74840200  1
  Sn  Sn15  1  0.24807800  0.71371400  0.46334000  1
  N  N0  1  0.74249500  0.00749500  0.96734500  1
  N  N1  1  0.50692900  0.23380700  0.97422000  1
  N  N2  1  0.75918300  0.53143400  0.52238200  1
  N  N3  1  0.72270300  0.25410000  0.76116300  1
  N  N4  1  0.23569600  0.96494500  0.50397900  1
  N  N5  1  0.50555600  0.77180800  0.04551100  1
  N  N6  1  0.26573100  0.72568200  0.22205900  1
  N  N7  1  0.95146400  0.49760700  0.22705000  1
  N  N8  1  0.22896000  0.45099600  0.45395500  1
  N  N9  1  0.54458200  0.53197100  0.76861700  1
  N  N10  1  0.95853600  0.74301900  0.99900000  1
  N  N11  1  0.54358500  0.77465300  0.53817000  1
  N  N12  1  0.99455600  0.96032100  0.73669800  1
  N  N13  1  0.22769900  0.27454200  0.73635100  1
  N  N14  1  0.03634300  0.49527700  0.76686100  1
  N  N15  1  0.26439800  0.77263300  0.72764600  1
  O  O0  1  0.28025500  0.01379600  0.05705400  1
  O  O1  1  0.77224000  0.04049100  0.48664400  1
  O  O2  1  0.73393800  0.21723200  0.27943200  1
  O  O3  1  0.99728200  0.04549700  0.28273700  1
  O  O4  1  0.44902100  0.46454800  0.21827200  1
  O  O5  1  0.77436100  0.73086400  0.27871100  1
  O  O6  1  0.45577300  0.21973400  0.44015000  1
  O  O7  1  0.05719100  0.28068200  0.01309000  1
loop_
_geom_bond_atom_site_label_1
_geom_bond_atom_site_label_2
_geom_bond_distance
_geom_bond_site_symmetry_2
N0 Sn13 2.108295 1_555
N0 Sn7 2.152776 1_556
N0 Sn12 2.190610 1_546
N0 Sn0 2.200075 1_545
N1 Sn0 2.162750 1_545
N1 Sn3 2.165361 1_556
N1 Sn4 2.178360 1_555
N1 Sn5 2.190414 1_555
N2 Sn3 2.150041 1_555
N2 Sn9 2.158492 1_555
N2 Sn1 2.194389 1_555
N2 Sn10 2.195673 1_655
N3 Sn5 2.158719 1_555
N3 Sn1 2.172931 1_555
N3 Sn13 2.201930 1_555
N3 Sn6 2.246761 1_555
N4 Sn8 2.145777 1_565
N4 Sn2 2.165684 1_555
N4 Sn15 2.178124 1_555
N4 Sn5 2.228348 1_565
N5 Sn11 2.100736 1_555
N5 Sn12 2.163020 1_555
N5 Sn0 2.188003 1_554
N5 Sn14 2.311184 1_554
N6 Sn11 2.094679 1_555
N6 Sn6 2.163032 1_454
N6 Sn2 2.163399 1_555
N6 Sn15 2.231844 1_555
N7 Sn3 2.086615 1_555
N7 Sn7 2.178967 1_555
N7 Sn6 2.207730 1_554
N7 Sn15 2.291969 1_655
N8 Sn7 2.090163 1_455
N8 Sn9 2.152662 1_555
N8 Sn15 2.247694 1_555
N8 Sn14 2.291301 1_555
N9 Sn12 2.135313 1_556
N9 Sn9 2.136786 1_555
N9 Sn5 2.214497 1_555
N9 Sn14 2.269428 1_555
N10 Sn12 2.105473 1_556
N10 Sn2 2.157475 1_656
N10 Sn6 2.225407 1_555
N10 Sn10 2.259909 1_655
N11 Sn13 2.094886 1_565
N11 Sn9 2.172525 1_555
N11 Sn11 2.174672 1_555
N11 Sn15 2.287814 1_555
N12 Sn10 2.149072 1_655
N12 Sn4 2.184248 1_665
N12 Sn8 2.193069 1_665
N12 Sn13 2.202627 1_565
N13 Sn14 2.131781 1_555
N13 Sn8 2.143168 1_555
N13 Sn4 2.156878 1_555
N13 Sn5 2.235107 1_555
N14 Sn1 2.158522 1_455
N14 Sn14 2.161082 1_555
N14 Sn6 2.180287 1_455
N14 Sn10 2.206523 1_555
N15 Sn0 2.148541 1_555
N15 Sn15 2.166243 1_555
N15 Sn10 2.234739 1_555
N15 Sn14 2.245707 1_555
O0 Sn2 2.143238 1_545
O0 Sn0 2.245349 1_544
O0 Sn4 2.300092 1_554
O0 Sn10 2.391813 1_544
O1 Sn1 2.161367 1_555
O1 Sn8 2.192498 1_655
O1 Sn11 2.265387 1_545
O1 Sn13 2.363584 1_555
O2 Sn1 2.115859 1_555
O2 Sn0 2.257073 1_544
O2 Sn7 2.269833 1_555
O2 Sn3 2.331890 1_555
O3 Sn8 2.158678 1_655
O3 Sn7 2.184363 1_555
O3 Sn12 2.282074 1_545
O3 Sn2 2.395361 1_645
O4 Sn4 2.138690 1_554
O4 Sn11 2.220037 1_555
O4 Sn3 2.292891 1_555
O4 Sn9 2.320640 1_555
O5 Sn3 2.152969 1_555
O5 Sn8 2.216525 1_665
O5 Sn11 2.272191 1_555
O5 Sn12 2.422394 1_555
O6 Sn2 2.124583 1_545
O6 Sn9 2.272998 1_555
O6 Sn1 2.291010 1_555
O6 Sn5 2.403123 1_555
O7 Sn4 2.118078 1_554
O7 Sn7 2.254398 1_455
O7 Sn6 2.272403 1_454
O7 Sn13 2.344923 1_454
