# generated using pymatgen
data_Li2Ti(NiO3)2
_symmetry_space_group_name_H-M   'P 1'
_cell_length_a   7.80998452
_cell_length_b   7.80998452
_cell_length_c   5.90383317
_cell_angle_alpha   78.23793664
_cell_angle_beta   78.23793664
_cell_angle_gamma   67.74231666
_symmetry_Int_Tables_number   1
_chemical_formula_structural   Li2Ti(NiO3)2
_chemical_formula_sum   'Li6 Ti3 Ni6 O18'
_cell_volume   323.07697743
_cell_formula_units_Z   3
loop_
 _symmetry_equiv_pos_site_id
 _symmetry_equiv_pos_as_xyz
  1  'x, y, z'
loop_
 _atom_site_type_symbol
 _atom_site_label
 _atom_site_symmetry_multiplicity
 _atom_site_fract_x
 _atom_site_fract_y
 _atom_site_fract_z
 _atom_site_occupancy
  Li  Li0  1  0.00455800  0.34498200  0.66817400  1
  Li  Li1  1  0.34498200  0.00455800  0.66817400  1
  Li  Li2  1  0.99544200  0.65501800  0.33182600  1
  Li  Li3  1  0.65501800  0.99544200  0.33182600  1
  Li  Li4  1  0.32463100  0.67536900  0.00000000  1
  Li  Li5  1  0.67536900  0.32463100  0.00000000  1
  Ti  Ti0  1  0.32895600  0.67104400  0.50000000  1
  Ti  Ti1  1  0.00000000  0.00000000  0.50000000  1
  Ti  Ti2  1  0.67104400  0.32895600  0.50000000  1
  Ni  Ni0  1  0.00580100  0.33362100  0.16274600  1
  Ni  Ni1  1  0.66384300  0.66384300  0.15864400  1
  Ni  Ni2  1  0.33362100  0.00580100  0.16274600  1
  Ni  Ni3  1  0.99419900  0.66637900  0.83725400  1
  Ni  Ni4  1  0.66637900  0.99419900  0.83725400  1
  Ni  Ni5  1  0.33615700  0.33615700  0.84135600  1
  O  O0  1  0.51258900  0.51258900  0.26298300  1
  O  O1  1  0.84778800  0.48473400  0.94757300  1
  O  O2  1  0.48473400  0.84778800  0.94757300  1
  O  O3  1  0.48741100  0.48741100  0.73701700  1
  O  O4  1  0.83449900  0.47984400  0.39564300  1
  O  O5  1  0.47984400  0.83449900  0.39564300  1
  O  O6  1  0.15221200  0.51526600  0.05242700  1
  O  O7  1  0.81174100  0.81174100  0.07042000  1
  O  O8  1  0.51526600  0.15221200  0.05242700  1
  O  O9  1  0.16550100  0.52015600  0.60435700  1
  O  O10  1  0.84198700  0.84198700  0.61108600  1
  O  O11  1  0.52015600  0.16550100  0.60435700  1
  O  O12  1  0.16059200  0.82648100  0.28083400  1
  O  O13  1  0.82648100  0.16059200  0.28083400  1
  O  O14  1  0.18825900  0.18825900  0.92958000  1
  O  O15  1  0.17351900  0.83940800  0.71916600  1
  O  O16  1  0.83940800  0.17351900  0.71916600  1
  O  O17  1  0.15801300  0.15801300  0.38891400  1
loop_
_geom_bond_atom_site_label_1
_geom_bond_atom_site_label_2
_geom_bond_distance
_geom_bond_site_symmetry_2
Li0 O1 2.075951 1_455
Li0 O9 2.119697 1_555
Li0 O16 2.129155 1_455
Li0 O4 2.140741 1_455
Li0 O14 2.177288 1_555
Li0 O17 2.266502 1_555
Li1 O2 2.075951 1_545
Li1 O11 2.119697 1_555
Li1 O15 2.129155 1_545
Li1 O5 2.140741 1_545
Li1 O14 2.177288 1_555
Li1 O17 2.266502 1_555
Li2 O6 2.075951 1_655
Li2 O4 2.119697 1_555
Li2 O12 2.129155 1_655
Li2 O9 2.140741 1_655
Li2 O7 2.177288 1_555
Li2 O10 2.266502 1_555
Li3 O8 2.075951 1_565
Li3 O5 2.119697 1_555
Li3 O13 2.129155 1_565
Li3 O11 2.140741 1_565
Li3 O7 2.177288 1_555
Li3 O10 2.266502 1_555
Li4 O2 2.102483 1_554
Li4 O6 2.102483 1_555
Li4 O12 2.137632 1_555
Li4 O15 2.137632 1_554
Li4 O0 2.211881 1_555
Li4 O3 2.211881 1_554
Li5 O1 2.102483 1_554
Li5 O8 2.102483 1_555
Li5 O13 2.137632 1_555
Li5 O16 2.137632 1_554
Li5 O0 2.211881 1_555
Li5 O3 2.211881 1_554
Ni0 O1 1.858538 1_454
Ni0 O4 1.928062 1_455
Ni0 O17 1.934561 1_555
Ni0 O14 1.956090 1_554
Ni0 O6 2.071910 1_555
Ni0 O13 2.219256 1_455
Ni1 O7 1.860075 1_555
Ni1 O0 1.906340 1_555
Ni1 O1 2.007956 1_554
Ni1 O2 2.007956 1_554
Ni1 O4 2.070956 1_555
Ni1 O5 2.070956 1_555
Ni2 O2 1.858538 1_544
Ni2 O5 1.928062 1_545
Ni2 O17 1.934561 1_555
Ni2 O14 1.956090 1_554
Ni2 O8 2.071910 1_555
Ni2 O12 2.219256 1_545
Ni3 O6 1.858538 1_656
Ni3 O9 1.928062 1_655
Ni3 O10 1.934561 1_555
Ni3 O7 1.956090 1_556
Ni3 O1 2.071910 1_555
Ni3 O15 2.219256 1_655
Ni4 O8 1.858538 1_566
Ni4 O11 1.928062 1_565
Ni4 O10 1.934561 1_555
Ni4 O7 1.956090 1_556
Ni4 O2 2.071910 1_555
Ni4 O16 2.219256 1_565
Ni5 O14 1.860075 1_555
Ni5 O3 1.906340 1_555
Ni5 O8 2.007956 1_556
Ni5 O6 2.007956 1_556
Ni5 O9 2.070956 1_555
Ni5 O11 2.070956 1_555
O0 Ti2 2.022300 1_555
O0 Ti0 2.022300 1_555
O3 Ti0 2.022300 1_555
O3 Ti2 2.022300 1_555
O4 Ti2 1.980130 1_555
O5 Ti0 1.980130 1_555
O9 Ti0 1.980130 1_555
O10 Ti1 1.992432 1_665
O11 Ti2 1.980130 1_555
O12 Ti0 1.928979 1_555
O12 Ti1 1.962008 1_565
O13 Ti2 1.928979 1_555
O13 Ti1 1.962008 1_655
O15 Ti0 1.928979 1_555
O15 Ti1 1.962008 1_565
O16 Ti2 1.928979 1_555
O16 Ti1 1.962008 1_655
O17 Ti1 1.992432 1_555
