# generated using pymatgen
data_Er2TeO6
_symmetry_space_group_name_H-M   'P 1'
_cell_length_a   5.20445601
_cell_length_b   8.98306713
_cell_length_c   9.83772457
_cell_angle_alpha   90.00000000
_cell_angle_beta   90.00000000
_cell_angle_gamma   90.00000000
_symmetry_Int_Tables_number   1
_chemical_formula_structural   Er2TeO6
_chemical_formula_sum   'Er8 Te4 O24'
_cell_volume   459.93307984
_cell_formula_units_Z   4
loop_
 _symmetry_equiv_pos_site_id
 _symmetry_equiv_pos_as_xyz
  1  'x, y, z'
loop_
 _atom_site_type_symbol
 _atom_site_label
 _atom_site_symmetry_multiplicity
 _atom_site_fract_x
 _atom_site_fract_y
 _atom_site_fract_z
 _atom_site_occupancy
  Er  Er0  1  0.01872359  0.39604622  0.03712158  1
  Er  Er1  1  0.03920311  0.28290842  0.63415289  1
  Er  Er2  1  0.46079689  0.71709158  0.13415289  1
  Er  Er3  1  0.48127641  0.60395378  0.53712158  1
  Er  Er4  1  0.51872359  0.10395378  0.96287842  1
  Er  Er5  1  0.53920311  0.21709158  0.36584711  1
  Er  Er6  1  0.96079689  0.78290842  0.86584711  1
  Er  Er7  1  0.98127641  0.89604622  0.46287842  1
  Te  Te0  1  0.03840196  0.00493895  0.14907182  1
  Te  Te1  1  0.46159804  0.99506105  0.64907182  1
  Te  Te2  1  0.53840196  0.49506105  0.85092818  1
  Te  Te3  1  0.96159804  0.50493895  0.35092818  1
  O  O0  1  0.08785240  0.65558888  0.47098131  1
  O  O1  1  0.16868934  0.55099490  0.19867296  1
  O  O2  1  0.18911724  0.85810364  0.26282999  1
  O  O3  1  0.17869781  0.85946907  0.67945762  1
  O  O4  1  0.23409380  0.38495253  0.42949249  1
  O  O5  1  0.25678999  0.08538181  0.50473210  1
  O  O6  1  0.24321001  0.91461819  0.00473210  1
  O  O7  1  0.26590620  0.61504747  0.92949249  1
  O  O8  1  0.32130219  0.14053093  0.17945762  1
  O  O9  1  0.31088276  0.14189636  0.76282999  1
  O  O10  1  0.33131066  0.44900510  0.69867296  1
  O  O11  1  0.41214760  0.34441112  0.97098131  1
  O  O12  1  0.58785240  0.84441112  0.52901869  1
  O  O13  1  0.66868934  0.94900510  0.80132704  1
  O  O14  1  0.68911724  0.64189636  0.73717001  1
  O  O15  1  0.67869781  0.64053093  0.32054238  1
  O  O16  1  0.73409380  0.11504747  0.57050751  1
  O  O17  1  0.75678999  0.41461819  0.49526790  1
  O  O18  1  0.74321001  0.58538181  0.99526790  1
  O  O19  1  0.76590620  0.88495253  0.07050751  1
  O  O20  1  0.82130219  0.35946907  0.82054238  1
  O  O21  1  0.81088276  0.35810364  0.23717001  1
  O  O22  1  0.83131066  0.05099490  0.30132704  1
  O  O23  1  0.91214760  0.15558888  0.02901869  1
loop_
_geom_bond_atom_site_label_1
_geom_bond_atom_site_label_2
_geom_bond_distance
_geom_bond_site_symmetry_2
Er0 O11 2.197957 1_554
Er0 O23 2.231548 1_455
Er0 O1 2.252212 1_555
Er0 O18 2.262381 1_454
Er0 O21 2.271421 1_455
Er0 O20 2.388161 1_454
Er0 O7 2.578051 1_554
Er1 O10 2.222681 1_555
Er1 O20 2.263040 1_455
Er1 O16 2.277571 1_455
Er1 O9 2.281731 1_555
Er1 O17 2.329593 1_455
Er1 O4 2.433688 1_555
Er1 O5 2.460063 1_555
Er2 O1 2.222681 1_555
Er2 O15 2.263040 1_555
Er2 O19 2.277571 1_555
Er2 O2 2.281731 1_555
Er2 O18 2.329593 1_554
Er2 O7 2.433688 1_554
Er2 O6 2.460063 1_555
Er3 O0 2.197957 1_555
Er3 O12 2.231548 1_555
Er3 O10 2.252212 1_555
Er3 O17 2.262381 1_555
Er3 O14 2.271421 1_555
Er3 O15 2.388161 1_555
Er3 O4 2.578051 1_555
Er4 O23 2.197957 1_556
Er4 O11 2.231548 1_555
Er4 O13 2.252212 1_545
Er4 O6 2.262381 1_546
Er4 O9 2.271421 1_555
Er4 O8 2.388161 1_556
Er4 O19 2.578051 1_546
Er5 O22 2.222681 1_555
Er5 O8 2.263040 1_555
Er5 O4 2.277571 1_555
Er5 O21 2.281731 1_555
Er5 O5 2.329593 1_555
Er5 O16 2.433688 1_555
Er5 O17 2.460063 1_555
Er6 O13 2.222681 1_555
Er6 O3 2.263040 1_655
Er6 O7 2.277571 1_655
Er6 O14 2.281731 1_555
Er6 O6 2.329593 1_656
Er6 O19 2.433688 1_556
Er6 O18 2.460063 1_555
Er7 O12 2.197957 1_555
Er7 O0 2.231548 1_655
Er7 O22 2.252212 1_565
Er7 O5 2.262381 1_665
Er7 O2 2.271421 1_655
Er7 O3 2.388161 1_655
Er7 O16 2.578051 1_565
O0 Te3 1.912604 1_455
O1 Te3 1.891125 1_455
O2 Te0 1.899354 1_565
O3 Te1 1.934102 1_555
O4 Te3 1.941748 1_455
O5 Te1 1.952128 1_545
O6 Te0 1.952128 1_565
O7 Te2 1.941748 1_555
O8 Te0 1.934102 1_555
O9 Te1 1.899354 1_545
O10 Te2 1.891125 1_555
O11 Te2 1.912604 1_555
O12 Te1 1.912604 1_555
O13 Te1 1.891125 1_555
O14 Te2 1.899354 1_555
O15 Te3 1.934102 1_555
O16 Te1 1.941748 1_545
O17 Te3 1.952128 1_555
O18 Te2 1.952128 1_555
O19 Te0 1.941748 1_665
O20 Te2 1.934102 1_555
O21 Te3 1.899354 1_555
O22 Te0 1.891125 1_655
O23 Te0 1.912604 1_655
