# generated using pymatgen
data_H12OsC4N(OF)3
_symmetry_space_group_name_H-M   'P 1'
_cell_length_a   10.79201149
_cell_length_b   10.79201149
_cell_length_c   11.60960625
_cell_angle_alpha   57.52168291
_cell_angle_beta   57.52168291
_cell_angle_gamma   78.83764200
_symmetry_Int_Tables_number   1
_chemical_formula_structural   H12OsC4N(OF)3
_chemical_formula_sum   'H48 Os4 C16 N4 O12 F12'
_cell_volume   953.68628559
_cell_formula_units_Z   4
loop_
 _symmetry_equiv_pos_site_id
 _symmetry_equiv_pos_as_xyz
  1  'x, y, z'
loop_
 _atom_site_type_symbol
 _atom_site_label
 _atom_site_symmetry_multiplicity
 _atom_site_fract_x
 _atom_site_fract_y
 _atom_site_fract_z
 _atom_site_occupancy
  H  H0  1  0.66993600  0.31915000  0.88527300  1
  H  H1  1  0.68085000  0.33006400  0.61472700  1
  H  H2  1  0.33006400  0.68085000  0.11472700  1
  H  H3  1  0.31915000  0.66993600  0.38527300  1
  H  H4  1  0.65893300  0.12092100  0.00314000  1
  H  H5  1  0.87907900  0.34106700  0.49686000  1
  H  H6  1  0.34106700  0.87907900  0.99686000  1
  H  H7  1  0.12092100  0.65893300  0.50314000  1
  H  H8  1  0.55313200  0.20037700  0.90793100  1
  H  H9  1  0.79962300  0.44686800  0.59206900  1
  H  H10  1  0.44686800  0.79962300  0.09206900  1
  H  H11  1  0.20037700  0.55313200  0.40793100  1
  H  H12  1  0.09599800  0.87577100  0.63253000  1
  H  H13  1  0.12422900  0.90400200  0.86747000  1
  H  H14  1  0.90400200  0.12422900  0.36747000  1
  H  H15  1  0.87577100  0.09599800  0.13253000  1
  H  H16  1  0.29253800  0.89026600  0.50233000  1
  H  H17  1  0.10973400  0.70746200  0.99767000  1
  H  H18  1  0.70746200  0.10973400  0.49767000  1
  H  H19  1  0.89026600  0.29253800  0.00233000  1
  H  H20  1  0.22184000  0.00776800  0.58332900  1
  H  H21  1  0.99223200  0.77816000  0.91667100  1
  H  H22  1  0.77816000  0.99223200  0.41667100  1
  H  H23  1  0.00776800  0.22184000  0.08332900  1
  H  H24  1  0.38334300  0.91872800  0.69460600  1
  H  H25  1  0.08127200  0.61665700  0.80539400  1
  H  H26  1  0.61665700  0.08127200  0.30539400  1
  H  H27  1  0.91872800  0.38334300  0.19460600  1
  H  H28  1  0.45440800  0.80142800  0.61229400  1
  H  H29  1  0.19857200  0.54559200  0.88770600  1
  H  H30  1  0.54559200  0.19857200  0.38770600  1
  H  H31  1  0.80142800  0.45440800  0.11229400  1
  H  H32  1  0.37542900  0.72324800  0.82173500  1
  H  H33  1  0.27675200  0.62457100  0.67826500  1
  H  H34  1  0.62457100  0.27675200  0.17826500  1
  H  H35  1  0.72324800  0.37542900  0.32173500  1
  H  H36  1  0.66593400  0.05847400  0.77281900  1
  H  H37  1  0.94152600  0.33406600  0.72718100  1
  H  H38  1  0.33406600  0.94152600  0.22718100  1
  H  H39  1  0.05847400  0.66593400  0.27281900  1
  H  H40  1  0.77045000  0.97926300  0.87022800  1
  H  H41  1  0.02073700  0.22955000  0.62977200  1
  H  H42  1  0.22955000  0.02073700  0.12977200  1
  H  H43  1  0.97926300  0.77045000  0.37022800  1
  H  H44  1  0.86457200  0.07372600  0.65630300  1
  H  H45  1  0.92627400  0.13542800  0.84369700  1
  H  H46  1  0.13542800  0.92627400  0.34369700  1
  H  H47  1  0.07372600  0.86457200  0.15630300  1
  Os  Os0  1  0.26560500  0.33281800  0.20169200  1
  Os  Os1  1  0.66718200  0.73439500  0.29830800  1
  Os  Os2  1  0.73439500  0.66718200  0.79830800  1
  Os  Os3  1  0.33281800  0.26560500  0.70169200  1
  C  C0  1  0.65770600  0.21350600  0.89737700  1
  C  C1  1  0.78649400  0.34229400  0.60262300  1
  C  C2  1  0.34229400  0.78649400  0.10262300  1
  C  C3  1  0.21350600  0.65770600  0.39737700  1
  C  C4  1  0.20598700  0.89764200  0.60652700  1
  C  C5  1  0.10235800  0.79401300  0.89347300  1
  C  C6  1  0.79401300  0.10235800  0.39347300  1
  C  C7  1  0.89764200  0.20598700  0.10652700  1
  C  C8  1  0.36876700  0.80859500  0.71682600  1
  C  C9  1  0.19140500  0.63123300  0.78317400  1
  C  C10  1  0.63123300  0.19140500  0.28317400  1
  C  C11  1  0.80859500  0.36876700  0.21682600  1
  C  C12  1  0.76978800  0.07084600  0.76363800  1
  C  C13  1  0.92915400  0.23021200  0.73636200  1
  C  C14  1  0.23021200  0.92915400  0.23636200  1
  C  C15  1  0.07084600  0.76978800  0.26363800  1
  N  N0  1  0.78518300  0.21481700  0.75000000  1
  N  N1  1  0.21481700  0.78518300  0.25000000  1
  N  N2  1  0.21756000  0.78244000  0.75000000  1
  N  N3  1  0.78244000  0.21756000  0.25000000  1
  O  O0  1  0.37893100  0.46848100  0.00351000  1
  O  O1  1  0.53151900  0.62106900  0.49649000  1
  O  O2  1  0.62106900  0.53151900  0.99649000  1
  O  O3  1  0.46848100  0.37893100  0.50351000  1
  O  O4  1  0.36134600  0.18225900  0.21483200  1
  O  O5  1  0.81774100  0.63865400  0.28516800  1
  O  O6  1  0.63865400  0.81774100  0.78516800  1
  O  O7  1  0.18225900  0.36134600  0.71483200  1
  O  O8  1  0.30277000  0.38298000  0.29983700  1
  O  O9  1  0.61702000  0.69723000  0.20016300  1
  O  O10  1  0.69723000  0.61702000  0.70016300  1
  O  O11  1  0.38298000  0.30277000  0.79983700  1
  F  F0  1  0.11041900  0.47076600  0.21204700  1
  F  F1  1  0.52923400  0.88958100  0.28795300  1
  F  F2  1  0.88958100  0.52923400  0.78795300  1
  F  F3  1  0.47076600  0.11041900  0.71204700  1
  F  F4  1  0.08960900  0.19617200  0.41237100  1
  F  F5  1  0.80382800  0.91039100  0.08762900  1
  F  F6  1  0.91039100  0.80382800  0.58762900  1
  F  F7  1  0.19617200  0.08960900  0.91237100  1
  F  F8  1  0.16146800  0.27896400  0.13269000  1
  F  F9  1  0.72103600  0.83853200  0.36731000  1
  F  F10  1  0.83853200  0.72103600  0.86731000  1
  F  F11  1  0.27896400  0.16146800  0.63269000  1
loop_
_geom_bond_atom_site_label_1
_geom_bond_atom_site_label_2
_geom_bond_distance
_geom_bond_site_symmetry_2
C0 H4 1.095870 1_556
C0 H0 1.096952 1_555
C0 H8 1.097043 1_555
C0 N0 1.507947 1_555
C1 H5 1.095870 1_555
C1 H1 1.096952 1_555
C1 H9 1.097043 1_555
C1 N0 1.507947 1_555
C2 H6 1.095870 1_554
C2 H2 1.096952 1_555
C2 H10 1.097043 1_555
C2 N1 1.507947 1_555
C3 H7 1.095870 1_555
C3 H3 1.096952 1_555
C3 H11 1.097043 1_555
C3 N1 1.507947 1_555
C4 H20 1.095343 1_565
C4 H12 1.096782 1_555
C4 H16 1.096943 1_555
C4 N2 1.508317 1_555
C5 H21 1.095343 1_455
C5 H13 1.096782 1_555
C5 H17 1.096943 1_555
C5 N2 1.508317 1_555
C6 H22 1.095343 1_545
C6 H14 1.096782 1_555
C6 H18 1.096943 1_555
C6 N3 1.508317 1_555
C7 H23 1.095343 1_655
C7 H15 1.096782 1_555
C7 H19 1.096943 1_555
C7 N3 1.508317 1_555
C8 H32 1.095700 1_555
C8 H28 1.096132 1_555
C8 H24 1.097034 1_555
C8 N2 1.509136 1_555
C9 H33 1.095700 1_555
C9 H29 1.096132 1_555
C9 H25 1.097034 1_555
C9 N2 1.509136 1_555
C10 H34 1.095700 1_555
C10 H30 1.096132 1_555
C10 H26 1.097034 1_555
C10 N3 1.509136 1_555
C11 H35 1.095700 1_555
C11 H31 1.096132 1_555
C11 H27 1.097034 1_555
C11 N3 1.509136 1_555
C12 H36 1.095319 1_555
C12 H40 1.096118 1_545
C12 H44 1.096308 1_555
C12 N0 1.508067 1_555
C13 H37 1.095319 1_555
C13 H41 1.096118 1_655
C13 H45 1.096308 1_555
C13 N0 1.508067 1_555
C14 H38 1.095319 1_555
C14 H42 1.096118 1_565
C14 H46 1.096308 1_555
C14 N1 1.508067 1_555
C15 H39 1.095319 1_555
C15 H43 1.096118 1_455
C15 H47 1.096308 1_555
C15 N1 1.508067 1_555
O0 Os0 1.728164 1_555
O1 Os1 1.728164 1_555
O2 Os2 1.728164 1_555
O3 Os3 1.728164 1_555
O4 Os0 1.727427 1_555
O5 Os1 1.727427 1_555
O6 Os2 1.727427 1_555
O7 Os3 1.727427 1_555
O8 Os0 1.729028 1_555
O9 Os1 1.729028 1_555
O10 Os2 1.729028 1_555
O11 Os3 1.729028 1_555
F0 Os0 2.011534 1_555
F1 Os1 2.011534 1_555
F2 Os2 2.011534 1_555
F3 Os3 2.011534 1_555
F4 Os0 1.996548 1_555
F5 Os1 1.996548 1_555
F6 Os2 1.996548 1_555
F7 Os3 1.996548 1_555
F8 Os0 1.990568 1_555
F9 Os1 1.990568 1_555
F10 Os2 1.990568 1_555
F11 Os3 1.990568 1_555
