# generated using pymatgen
data_SrPHO4
_symmetry_space_group_name_H-M   'P 1'
_cell_length_a   8.19401200
_cell_length_b   9.42839400
_cell_length_c   18.27578000
_cell_angle_alpha   90.00000000
_cell_angle_beta   90.00000000
_cell_angle_gamma   90.00000000
_symmetry_Int_Tables_number   1
_chemical_formula_structural   SrPHO4
_chemical_formula_sum   'Sr16 P16 H16 O64'
_cell_volume   1411.92048709
_cell_formula_units_Z   16
loop_
 _symmetry_equiv_pos_site_id
 _symmetry_equiv_pos_as_xyz
  1  'x, y, z'
loop_
 _atom_site_type_symbol
 _atom_site_label
 _atom_site_symmetry_multiplicity
 _atom_site_fract_x
 _atom_site_fract_y
 _atom_site_fract_z
 _atom_site_occupancy
  Sr  Sr0  1  0.62154000  0.32105900  0.37486300  1
  Sr  Sr1  1  0.12154000  0.17894100  0.62513700  1
  Sr  Sr2  1  0.37846000  0.82105900  0.12513700  1
  Sr  Sr3  1  0.87846000  0.67894100  0.87486300  1
  Sr  Sr4  1  0.37846000  0.67894100  0.62513700  1
  Sr  Sr5  1  0.87846000  0.82105900  0.37486300  1
  Sr  Sr6  1  0.62154000  0.17894100  0.87486300  1
  Sr  Sr7  1  0.12154000  0.32105900  0.12513700  1
  Sr  Sr8  1  0.36942500  0.68249000  0.38256700  1
  Sr  Sr9  1  0.86942500  0.81751000  0.61743300  1
  Sr  Sr10  1  0.63057500  0.18249000  0.11743300  1
  Sr  Sr11  1  0.13057500  0.31751000  0.88256700  1
  Sr  Sr12  1  0.63057500  0.31751000  0.61743300  1
  Sr  Sr13  1  0.13057500  0.18249000  0.38256700  1
  Sr  Sr14  1  0.36942500  0.81751000  0.88256700  1
  Sr  Sr15  1  0.86942500  0.68249000  0.11743300  1
  P  P0  1  0.75168500  0.07939800  0.49584100  1
  P  P1  1  0.25168500  0.42060200  0.50415900  1
  P  P2  1  0.24831500  0.57939800  0.00415900  1
  P  P3  1  0.74831500  0.92060200  0.99584100  1
  P  P4  1  0.24831500  0.92060200  0.50415900  1
  P  P5  1  0.74831500  0.57939800  0.49584100  1
  P  P6  1  0.75168500  0.42060200  0.99584100  1
  P  P7  1  0.25168500  0.07939800  0.00415900  1
  P  P8  1  0.01784100  0.47860600  0.29420600  1
  P  P9  1  0.51784100  0.02139400  0.70579400  1
  P  P10  1  0.98215900  0.97860600  0.20579400  1
  P  P11  1  0.48215900  0.52139400  0.79420600  1
  P  P12  1  0.98215900  0.52139400  0.70579400  1
  P  P13  1  0.48215900  0.97860600  0.29420600  1
  P  P14  1  0.01784100  0.02139400  0.79420600  1
  P  P15  1  0.51784100  0.47860600  0.20579400  1
  H  H0  1  0.58570200  0.88691500  0.49642500  1
  H  H1  1  0.08570200  0.61308500  0.50357500  1
  H  H2  1  0.41429800  0.38691500  0.00357500  1
  H  H3  1  0.91429800  0.11308500  0.99642500  1
  H  H4  1  0.41429800  0.11308500  0.50357500  1
  H  H5  1  0.91429800  0.38691500  0.49642500  1
  H  H6  1  0.58570200  0.61308500  0.99642500  1
  H  H7  1  0.08570200  0.88691500  0.00357500  1
  H  H8  1  0.28586000  0.42388200  0.28119300  1
  H  H9  1  0.78586000  0.07611800  0.71880700  1
  H  H10  1  0.71414000  0.92388200  0.21880700  1
  H  H11  1  0.21414000  0.57611800  0.78119300  1
  H  H12  1  0.71414000  0.57611800  0.71880700  1
  H  H13  1  0.21414000  0.92388200  0.28119300  1
  H  H14  1  0.28586000  0.07611800  0.78119300  1
  H  H15  1  0.78586000  0.42388200  0.21880700  1
  O  O0  1  0.59020200  0.16417700  0.49651200  1
  O  O1  1  0.09020200  0.33582300  0.50348800  1
  O  O2  1  0.40979800  0.66417700  0.00348800  1
  O  O3  1  0.90979800  0.83582300  0.99651200  1
  O  O4  1  0.40979800  0.83582300  0.50348800  1
  O  O5  1  0.90979800  0.66417700  0.49651200  1
  O  O6  1  0.59020200  0.33582300  0.99651200  1
  O  O7  1  0.09020200  0.16417700  0.00348800  1
  O  O8  1  0.84648800  0.10399000  0.42456300  1
  O  O9  1  0.34648800  0.39601000  0.57543700  1
  O  O10  1  0.15351200  0.60399000  0.07543700  1
  O  O11  1  0.65351200  0.89601000  0.92456300  1
  O  O12  1  0.15351200  0.89601000  0.57543700  1
  O  O13  1  0.65351200  0.60399000  0.42456300  1
  O  O14  1  0.84648800  0.39601000  0.92456300  1
  O  O15  1  0.34648800  0.10399000  0.07543700  1
  O  O16  1  0.84921800  0.10581900  0.56640000  1
  O  O17  1  0.34921800  0.39418100  0.43360000  1
  O  O18  1  0.15078200  0.60581900  0.93360000  1
  O  O19  1  0.65078200  0.89418100  0.06640000  1
  O  O20  1  0.15078200  0.89418100  0.43360000  1
  O  O21  1  0.65078200  0.60581900  0.56640000  1
  O  O22  1  0.84921800  0.39418100  0.06640000  1
  O  O23  1  0.34921800  0.10581900  0.93360000  1
  O  O24  1  0.70864600  0.91194400  0.49744100  1
  O  O25  1  0.20864600  0.58805600  0.50255900  1
  O  O26  1  0.29135400  0.41194400  0.00255900  1
  O  O27  1  0.79135400  0.08805600  0.99744100  1
  O  O28  1  0.29135400  0.08805600  0.50255900  1
  O  O29  1  0.79135400  0.41194400  0.49744100  1
  O  O30  1  0.70864600  0.58805600  0.99744100  1
  O  O31  1  0.20864600  0.91194400  0.00255900  1
  O  O32  1  0.07647400  0.61883700  0.32750900  1
  O  O33  1  0.57647400  0.88116300  0.67249100  1
  O  O34  1  0.92352600  0.11883700  0.17249100  1
  O  O35  1  0.42352600  0.38116300  0.82750900  1
  O  O36  1  0.92352600  0.38116300  0.67249100  1
  O  O37  1  0.42352600  0.11883700  0.32750900  1
  O  O38  1  0.07647400  0.88116300  0.82750900  1
  O  O39  1  0.57647400  0.61883700  0.17249100  1
  O  O40  1  0.17192200  0.37415300  0.27893200  1
  O  O41  1  0.67192200  0.12584700  0.72106800  1
  O  O42  1  0.82807800  0.87415300  0.22106800  1
  O  O43  1  0.32807800  0.62584700  0.77893200  1
  O  O44  1  0.82807800  0.62584700  0.72106800  1
  O  O45  1  0.32807800  0.87415300  0.27893200  1
  O  O46  1  0.17192200  0.12584700  0.77893200  1
  O  O47  1  0.67192200  0.37415300  0.22106800  1
  O  O48  1  0.94159100  0.49932600  0.21663400  1
  O  O49  1  0.44159100  0.00067400  0.78336600  1
  O  O50  1  0.05840900  0.99932600  0.28336600  1
  O  O51  1  0.55840900  0.50067400  0.71663400  1
  O  O52  1  0.05840900  0.50067400  0.78336600  1
  O  O53  1  0.55840900  0.99932600  0.21663400  1
  O  O54  1  0.94159100  0.00067400  0.71663400  1
  O  O55  1  0.44159100  0.49932600  0.28336600  1
  O  O56  1  0.90913100  0.38774600  0.34301400  1
  O  O57  1  0.40913100  0.11225400  0.65698600  1
  O  O58  1  0.09086900  0.88774600  0.15698600  1
  O  O59  1  0.59086900  0.61225400  0.84301400  1
  O  O60  1  0.09086900  0.61225400  0.65698600  1
  O  O61  1  0.59086900  0.88774600  0.34301400  1
  O  O62  1  0.90913100  0.11225400  0.84301400  1
  O  O63  1  0.40913100  0.38774600  0.15698600  1
loop_
_geom_bond_atom_site_label_1
_geom_bond_atom_site_label_2
_geom_bond_distance
_geom_bond_site_symmetry_2
H0 O24 1.034842 1_555
H0 O4 1.525198 1_555
H1 O25 1.034842 1_555
H1 O5 1.525198 1_455
H2 O26 1.034842 1_555
H2 O6 1.525198 1_554
H3 O27 1.034842 1_555
H3 O7 1.525198 1_656
H4 O28 1.034842 1_555
H4 O0 1.525198 1_555
H5 O29 1.034842 1_555
H5 O1 1.525198 1_655
H6 O30 1.034842 1_555
H6 O2 1.525198 1_556
H7 O31 1.034842 1_555
H7 O3 1.525198 1_454
H8 O40 1.045547 1_555
H8 O55 1.461465 1_555
H9 O41 1.045547 1_555
H9 O54 1.461465 1_555
H10 O42 1.045547 1_555
H10 O53 1.461465 1_555
H11 O43 1.045547 1_555
H11 O52 1.461465 1_555
H12 O44 1.045547 1_555
H12 O51 1.461465 1_555
H13 O45 1.045547 1_555
H13 O50 1.461465 1_555
H14 O46 1.045547 1_555
H14 O49 1.461465 1_555
H15 O47 1.045547 1_555
H15 O48 1.461465 1_555
O0 P0 1.545937 1_555
O0 Sr12 2.661431 1_555
O0 Sr0 2.682641 1_555
O1 P1 1.545937 1_555
O1 Sr13 2.661431 1_555
O1 Sr1 2.682641 1_555
O2 P2 1.545937 1_555
O2 Sr14 2.661431 1_554
O2 Sr2 2.682641 1_555
O3 P3 1.545937 1_555
O3 Sr15 2.661431 1_556
O3 Sr3 2.682641 1_555
O4 P4 1.545937 1_555
O4 Sr8 2.661431 1_555
O4 Sr4 2.682641 1_555
O5 P5 1.545937 1_555
O5 Sr9 2.661431 1_555
O5 Sr5 2.682641 1_555
O6 P6 1.545937 1_555
O6 Sr10 2.661431 1_556
O6 Sr6 2.682641 1_555
O7 P7 1.545937 1_555
O7 Sr11 2.661431 1_554
O7 Sr7 2.682641 1_555
O8 P0 1.534318 1_555
O8 Sr13 2.560385 1_655
O8 Sr5 2.830135 1_545
O8 Sr0 2.900194 1_555
O9 P1 1.534318 1_555
O9 Sr12 2.560385 1_555
O9 Sr4 2.830135 1_555
O9 Sr1 2.900194 1_555
O10 P2 1.534318 1_555
O10 Sr15 2.560385 1_455
O10 Sr7 2.830135 1_555
O10 Sr2 2.900194 1_555
O11 P3 1.534318 1_555
O11 Sr14 2.560385 1_555
O11 Sr6 2.830135 1_565
O11 Sr3 2.900194 1_555
O12 P4 1.534318 1_555
O12 Sr9 2.560385 1_455
O12 Sr1 2.830135 1_565
O12 Sr4 2.900194 1_555
O13 P5 1.534318 1_555
O13 Sr8 2.560385 1_555
O13 Sr0 2.830135 1_555
O13 Sr5 2.900194 1_555
O14 P6 1.534318 1_555
O14 Sr11 2.560385 1_655
O14 Sr3 2.830135 1_555
O14 Sr6 2.900194 1_555
O15 P7 1.534318 1_555
O15 Sr10 2.560385 1_555
O15 Sr2 2.830135 1_545
O15 Sr7 2.900194 1_555
O16 P0 1.537406 1_555
O16 Sr1 2.570373 1_655
O16 Sr12 2.839579 1_555
O16 Sr9 2.878609 1_545
O17 P1 1.537406 1_555
O17 Sr0 2.570373 1_555
O17 Sr13 2.839579 1_555
O17 Sr8 2.878609 1_555
O18 P2 1.537406 1_556
O18 Sr3 2.570373 1_455
O18 Sr14 2.839579 1_555
O18 Sr11 2.878609 1_555
O19 P3 1.537406 1_554
O19 Sr2 2.570373 1_555
O19 Sr15 2.839579 1_555
O19 Sr10 2.878609 1_565
O20 P4 1.537406 1_555
O20 Sr5 2.570373 1_455
O20 Sr8 2.839579 1_555
O20 Sr13 2.878609 1_565
O21 P5 1.537406 1_555
O21 Sr4 2.570373 1_555
O21 Sr9 2.839579 1_555
O21 Sr12 2.878609 1_555
O22 P6 1.537406 1_554
O22 Sr7 2.570373 1_655
O22 Sr10 2.839579 1_555
O22 Sr15 2.878609 1_555
O23 P7 1.537406 1_556
O23 Sr6 2.570373 1_555
O23 Sr11 2.839579 1_555
O23 Sr14 2.878609 1_545
O24 P0 1.617994 1_565
O24 Sr9 2.708758 1_555
O24 Sr5 2.772899 1_555
O25 P1 1.617994 1_555
O25 Sr8 2.708758 1_555
O25 Sr4 2.772899 1_555
O26 P2 1.617994 1_555
O26 Sr11 2.708758 1_554
O26 Sr7 2.772899 1_555
O27 P3 1.617994 1_545
O27 Sr10 2.708758 1_556
O27 Sr6 2.772899 1_555
O28 P4 1.617994 1_545
O28 Sr13 2.708758 1_555
O28 Sr1 2.772899 1_555
O29 P5 1.617994 1_555
O29 Sr12 2.708758 1_555
O29 Sr0 2.772899 1_555
O30 P6 1.617994 1_555
O30 Sr15 2.708758 1_556
O30 Sr3 2.772899 1_555
O31 P7 1.617994 1_565
O31 Sr14 2.708758 1_554
O31 Sr2 2.772899 1_555
O32 P8 1.532759 1_555
O32 Sr5 2.648925 1_455
O32 Sr8 2.671105 1_555
O33 P9 1.532759 1_565
O33 Sr4 2.648925 1_555
O33 Sr9 2.671105 1_555
O34 P10 1.532759 1_545
O34 Sr7 2.648925 1_655
O34 Sr10 2.671105 1_555
O35 P11 1.532759 1_555
O35 Sr6 2.648925 1_555
O35 Sr11 2.671105 1_555
O36 P12 1.532759 1_555
O36 Sr1 2.648925 1_655
O36 Sr12 2.671105 1_555
O37 P13 1.532759 1_545
O37 Sr0 2.648925 1_555
O37 Sr13 2.671105 1_555
O38 P14 1.532759 1_565
O38 Sr3 2.648925 1_455
O38 Sr14 2.671105 1_555
O39 P15 1.532759 1_555
O39 Sr2 2.648925 1_555
O39 Sr15 2.671105 1_555
O40 P8 1.625365 1_555
O40 Sr13 2.639617 1_555
O40 Sr7 2.884647 1_555
O41 P9 1.625365 1_555
O41 Sr12 2.639617 1_555
O41 Sr6 2.884647 1_555
O42 P10 1.625365 1_555
O42 Sr15 2.639617 1_555
O42 Sr5 2.884647 1_555
O43 P11 1.625365 1_555
O43 Sr14 2.639617 1_555
O43 Sr4 2.884647 1_555
O44 P12 1.625365 1_555
O44 Sr9 2.639617 1_555
O44 Sr3 2.884647 1_555
O45 P13 1.625365 1_555
O45 Sr8 2.639617 1_555
O45 Sr2 2.884647 1_555
O46 P14 1.625365 1_555
O46 Sr11 2.639617 1_555
O46 Sr1 2.884647 1_555
O47 P15 1.625365 1_555
O47 Sr10 2.639617 1_555
O47 Sr0 2.884647 1_555
O48 P8 1.561529 1_655
O48 Sr15 2.572719 1_555
O48 Sr7 2.792013 1_655
O49 P9 1.561529 1_555
O49 Sr14 2.572719 1_545
O49 Sr6 2.792013 1_555
O50 P10 1.561529 1_455
O50 Sr13 2.572719 1_565
O50 Sr5 2.792013 1_455
O51 P11 1.561529 1_555
O51 Sr12 2.572719 1_555
O51 Sr4 2.792013 1_555
O52 P12 1.561529 1_455
O52 Sr11 2.572719 1_555
O52 Sr3 2.792013 1_455
O53 P13 1.561529 1_555
O53 Sr10 2.572719 1_565
O53 Sr2 2.792013 1_555
O54 P14 1.561529 1_655
O54 Sr9 2.572719 1_545
O54 Sr1 2.792013 1_655
O55 P15 1.561529 1_555
O55 Sr8 2.572719 1_555
O55 Sr0 2.792013 1_555
O56 P8 1.524145 1_655
O56 Sr0 2.507456 1_555
O56 Sr13 2.749568 1_655
O57 P9 1.524145 1_555
O57 Sr1 2.507456 1_555
O57 Sr12 2.749568 1_555
O58 P10 1.524145 1_455
O58 Sr2 2.507456 1_555
O58 Sr15 2.749568 1_455
O59 P11 1.524145 1_555
O59 Sr3 2.507456 1_555
O59 Sr14 2.749568 1_555
O60 P12 1.524145 1_455
O60 Sr4 2.507456 1_555
O60 Sr9 2.749568 1_455
O61 P13 1.524145 1_555
O61 Sr5 2.507456 1_555
O61 Sr8 2.749568 1_555
O62 P14 1.524145 1_655
O62 Sr6 2.507456 1_555
O62 Sr11 2.749568 1_655
O63 P15 1.524145 1_555
O63 Sr7 2.507456 1_555
O63 Sr10 2.749568 1_555
