# generated using pymatgen
data_Na7(WO3)9
_symmetry_space_group_name_H-M   'P 1'
_cell_length_a   6.86485000
_cell_length_b   8.83571905
_cell_length_c   9.70191552
_cell_angle_alpha   100.84301436
_cell_angle_beta   90.03643765
_cell_angle_gamma   104.66533700
_symmetry_Int_Tables_number   1
_chemical_formula_structural   Na7(WO3)9
_chemical_formula_sum   'Na7 W9 O27'
_cell_volume   558.42029252
_cell_formula_units_Z   1
loop_
 _symmetry_equiv_pos_site_id
 _symmetry_equiv_pos_as_xyz
  1  'x, y, z'
loop_
 _atom_site_type_symbol
 _atom_site_label
 _atom_site_symmetry_multiplicity
 _atom_site_fract_x
 _atom_site_fract_y
 _atom_site_fract_z
 _atom_site_occupancy
  Na  Na0  1  0.22199900  0.66689700  0.10955800  1
  Na  Na1  1  0.88859000  0.66802500  0.44404200  1
  Na  Na2  1  0.44399600  0.33089000  0.22096600  1
  Na  Na3  1  0.55523000  0.66515200  0.77894800  1
  Na  Na4  1  0.33405200  0.00291300  0.66740600  1
  Na  Na5  1  0.11018100  0.33093800  0.55523600  1
  Na  Na6  1  0.99953300  0.00233300  0.00173600  1
  W  W0  1  0.72279300  0.66689100  0.11135400  1
  W  W1  1  0.94346300  0.33059400  0.22075100  1
  W  W2  1  0.61340700  0.33208500  0.55584900  1
  W  W3  1  0.83372000  0.00101800  0.66730900  1
  W  W4  1  0.38952400  0.66933600  0.44264600  1
  W  W5  1  0.16525600  0.00150700  0.33461200  1
  W  W6  1  0.27895300  0.33554700  0.88673700  1
  W  W7  1  0.49975600  0.00367500  0.00091300  1
  W  W8  1  0.05345400  0.66398900  0.77891100  1
  O  O0  1  0.61228200  0.82838100  0.05335800  1
  O  O1  1  0.82867900  0.50722100  0.16785700  1
  O  O2  1  0.71683000  0.16098200  0.10847100  1
  O  O3  1  0.95793600  0.83415600  0.22138400  1
  O  O4  1  0.10992000  0.33723600  0.06261600  1
  O  O5  1  0.54877800  0.66144400  0.28085700  1
  O  O6  1  0.33480900  0.99716400  0.15992400  1
  O  O7  1  0.78149300  0.34184100  0.38400600  1
  O  O8  1  0.93927900  0.83677200  0.72183600  1
  O  O9  1  0.27566100  0.82723100  0.39279000  1
  O  O10  1  0.72020600  0.16434400  0.61055800  1
  O  O11  1  0.49853200  0.49810300  0.49744200  1
  O  O12  1  0.83633100  0.50261800  0.66019100  1
  O  O13  1  0.06195300  0.16959900  0.27741500  1
  O  O14  1  0.38445700  0.16333800  0.44170800  1
  O  O15  1  0.60250100  0.82553400  0.55779700  1
  O  O16  1  0.17028300  0.50422300  0.33878000  1
  O  O17  1  0.44005600  0.33275400  0.71758500  1
  O  O18  1  0.22324500  0.66835100  0.61197100  1
  O  O19  1  0.66105200  0.99245600  0.83709300  1
  O  O20  1  0.89544700  0.67659000  0.94173700  1
  O  O21  1  0.00526400  0.00042800  0.50444900  1
  O  O22  1  0.38568200  0.16051900  0.94560100  1
  O  O23  1  0.17446800  0.50386100  0.83066600  1
  O  O24  1  0.48906500  0.49703400  0.00244500  1
  O  O25  1  0.28530000  0.83481700  0.89029400  1
  O  O26  1  0.06214000  0.16787700  0.78197600  1
loop_
_geom_bond_atom_site_label_1
_geom_bond_atom_site_label_2
_geom_bond_distance
_geom_bond_site_symmetry_2
Na0 O3 2.720834 1_455
Na0 O24 2.739096 1_555
Na0 O4 2.765760 1_555
Na0 O6 2.769988 1_555
Na0 O25 2.788855 1_554
Na0 O23 2.792362 1_554
Na0 O20 2.797984 1_454
Na0 O0 2.805411 1_555
Na0 O5 2.806561 1_555
Na0 O9 2.821948 1_555
Na0 O1 2.823856 1_455
Na0 O16 2.843053 1_555
Na1 O7 2.735157 1_555
Na1 O12 2.747888 1_555
Na1 O1 2.763704 1_555
Na1 O9 2.767468 1_655
Na1 O16 2.782212 1_655
Na1 O21 2.787784 1_665
Na1 O15 2.796578 1_555
Na1 O8 2.798594 1_555
Na1 O5 2.800655 1_555
Na1 O3 2.808616 1_555
Na1 O18 2.814672 1_655
Na1 O11 2.819817 1_555
Na2 O13 2.759029 1_555
Na2 O5 2.771753 1_555
Na2 O24 2.772593 1_555
Na2 O7 2.775530 1_555
Na2 O4 2.777768 1_555
Na2 O22 2.782808 1_554
Na2 O11 2.783093 1_555
Na2 O2 2.786189 1_555
Na2 O6 2.798344 1_545
Na2 O14 2.798733 1_555
Na2 O1 2.808405 1_555
Na2 O16 2.825583 1_555
Na3 O23 2.738540 1_555
Na3 O19 2.744329 1_555
Na3 O0 2.754876 1_556
Na3 O15 2.762062 1_555
Na3 O25 2.765477 1_555
Na3 O17 2.787676 1_555
Na3 O20 2.788384 1_555
Na3 O8 2.801953 1_555
Na3 O18 2.804336 1_555
Na3 O12 2.810198 1_555
Na3 O11 2.824944 1_555
Na3 O24 2.825960 1_556
Na4 O21 2.748044 1_555
Na4 O26 2.759549 1_555
Na4 O17 2.766236 1_555
Na4 O22 2.772064 1_555
Na4 O10 2.783737 1_555
Na4 O9 2.792187 1_545
Na4 O15 2.796646 1_545
Na4 O14 2.800740 1_555
Na4 O18 2.805194 1_545
Na4 O19 2.813451 1_545
Na4 O25 2.819882 1_545
Na4 O8 2.838541 1_445
Na5 O17 2.752616 1_555
Na5 O21 2.771789 1_555
Na5 O13 2.778701 1_555
Na5 O12 2.781602 1_455
Na5 O14 2.784259 1_555
Na5 O23 2.791207 1_555
Na5 O16 2.795644 1_555
Na5 O11 2.814793 1_555
Na5 O10 2.815228 1_455
Na5 O26 2.824272 1_555
Na5 O18 2.829110 1_555
Na5 O7 2.832999 1_455
Na6 O20 2.731499 1_544
Na6 O2 2.763618 1_555
Na6 O22 2.772969 1_654
Na6 O13 2.777063 1_655
Na6 O26 2.779608 1_654
Na6 O6 2.780293 1_645
Na6 O19 2.792583 1_544
Na6 O3 2.794304 1_545
Na6 O8 2.807654 1_544
Na6 O4 2.808178 1_655
Na6 O0 2.811187 1_545
Na6 O25 2.842368 1_644
O0 W0 1.943647 1_555
O0 W7 2.038716 1_565
O1 W0 1.904983 1_555
O1 W1 2.059922 1_555
O2 W7 1.909192 1_555
O2 W1 2.013984 1_555
O3 W5 1.933922 1_665
O3 W0 2.031191 1_555
O4 W1 1.914463 1_455
O4 W6 2.064001 1_554
O5 W4 1.914031 1_555
O5 W0 2.033940 1_555
O6 W7 1.915224 1_565
O6 W5 2.056525 1_565
O7 W1 1.937488 1_555
O7 W2 2.030914 1_555
O8 W3 1.931810 1_565
O8 W8 2.043294 1_655
O9 W4 1.896542 1_555
O9 W5 2.044891 1_565
O10 W3 1.964878 1_555
O10 W2 1.965095 1_555
O11 W2 1.998164 1_555
O11 W4 2.001768 1_555
O12 W8 1.971073 1_655
O12 W2 1.973241 1_555
O13 W5 1.964586 1_555
O13 W1 1.966453 1_455
O14 W5 1.933416 1_555
O14 W2 2.027227 1_555
O15 W4 1.920040 1_555
O15 W3 2.045562 1_565
O16 W4 1.934473 1_555
O16 W1 2.053434 1_455
O17 W2 1.969995 1_555
O17 W6 1.979350 1_555
O18 W8 1.996610 1_555
O18 W4 2.001125 1_555
O19 W7 1.939203 1_566
O19 W3 2.031769 1_565
O20 W8 1.918761 1_655
O20 W0 2.030834 1_556
O21 W3 1.971236 1_455
O21 W5 1.981003 1_555
O22 W7 1.910633 1_556
O22 W6 2.039636 1_555
O23 W8 1.950885 1_555
O23 W6 1.966244 1_555
O24 W6 1.931268 1_554
O24 W0 2.031066 1_555
O25 W7 1.956671 1_566
O25 W8 2.036392 1_555
O26 W6 1.938603 1_555
O26 W3 2.019949 1_455
