# generated using pymatgen
data_Li2TiNi3O8
_symmetry_space_group_name_H-M   'P 1'
_cell_length_a   7.98478600
_cell_length_b   8.16497200
_cell_length_c   8.42009200
_cell_angle_alpha   90.00000000
_cell_angle_beta   90.00000000
_cell_angle_gamma   90.00000000
_symmetry_Int_Tables_number   1
_chemical_formula_structural   Li2TiNi3O8
_chemical_formula_sum   'Li8 Ti4 Ni12 O32'
_cell_volume   548.95256365
_cell_formula_units_Z   4
loop_
 _symmetry_equiv_pos_site_id
 _symmetry_equiv_pos_as_xyz
  1  'x, y, z'
loop_
 _atom_site_type_symbol
 _atom_site_label
 _atom_site_symmetry_multiplicity
 _atom_site_fract_x
 _atom_site_fract_y
 _atom_site_fract_z
 _atom_site_occupancy
  Li  Li0  1  0.49386700  0.49465500  0.50435000  1
  Li  Li1  1  0.75795800  0.75720600  0.75024700  1
  Li  Li2  1  0.74204200  0.24279400  0.25024700  1
  Li  Li3  1  0.00613300  0.50534500  0.00435000  1
  Li  Li4  1  0.99386700  0.00534500  0.49565000  1
  Li  Li5  1  0.25795800  0.74279400  0.24975300  1
  Li  Li6  1  0.24204200  0.25720600  0.74975300  1
  Li  Li7  1  0.50613300  0.99465500  0.99565000  1
  Ti  Ti0  1  0.63562500  0.38424900  0.87525500  1
  Ti  Ti1  1  0.86437500  0.61575100  0.37525500  1
  Ti  Ti2  1  0.13562500  0.11575100  0.12474500  1
  Ti  Ti3  1  0.36437500  0.88424900  0.62474500  1
  Ni  Ni0  1  0.62489400  0.62900000  0.12124500  1
  Ni  Ni1  1  0.62453900  0.87811600  0.37574200  1
  Ni  Ni2  1  0.62665300  0.12447200  0.62775900  1
  Ni  Ni3  1  0.87334700  0.87552800  0.12775900  1
  Ni  Ni4  1  0.87546100  0.12188400  0.87574200  1
  Ni  Ni5  1  0.87510600  0.37100000  0.62124500  1
  Ni  Ni6  1  0.12489400  0.87100000  0.87875500  1
  Ni  Ni7  1  0.12453900  0.62188400  0.62425800  1
  Ni  Ni8  1  0.12665300  0.37552800  0.37224100  1
  Ni  Ni9  1  0.37334700  0.62447200  0.87224100  1
  Ni  Ni10  1  0.37546100  0.37811600  0.12425800  1
  Ni  Ni11  1  0.37510600  0.12900000  0.37875500  1
  O  O0  1  0.60907100  0.61493800  0.86947500  1
  O  O1  1  0.61050400  0.38960600  0.11062200  1
  O  O2  1  0.61054700  0.11955900  0.40371500  1
  O  O3  1  0.63214400  0.63400600  0.37258800  1
  O  O4  1  0.61897800  0.89558400  0.61754800  1
  O  O5  1  0.63985100  0.85973300  0.13523400  1
  O  O6  1  0.64122700  0.13251000  0.85369200  1
  O  O7  1  0.63792100  0.35659600  0.63722000  1
  O  O8  1  0.86207900  0.64340400  0.13722000  1
  O  O9  1  0.85877300  0.86749000  0.35369200  1
  O  O10  1  0.86014900  0.14026700  0.63523400  1
  O  O11  1  0.88102200  0.10441600  0.11754800  1
  O  O12  1  0.86785600  0.36599400  0.87258800  1
  O  O13  1  0.88945300  0.88044100  0.90371500  1
  O  O14  1  0.88949600  0.61039400  0.61062200  1
  O  O15  1  0.89092900  0.38506200  0.36947500  1
  O  O16  1  0.10907100  0.88506200  0.13052500  1
  O  O17  1  0.11050400  0.11039400  0.88937800  1
  O  O18  1  0.11054700  0.38044100  0.59628500  1
  O  O19  1  0.13214400  0.86599400  0.62741200  1
  O  O20  1  0.11897800  0.60441600  0.38245200  1
  O  O21  1  0.13985100  0.64026700  0.86476600  1
  O  O22  1  0.14122700  0.36749000  0.14630800  1
  O  O23  1  0.13792100  0.14340400  0.36278000  1
  O  O24  1  0.36207900  0.85659600  0.86278000  1
  O  O25  1  0.35877300  0.63251000  0.64630800  1
  O  O26  1  0.36014900  0.35973300  0.36476600  1
  O  O27  1  0.38102200  0.39558400  0.88245200  1
  O  O28  1  0.36785600  0.13400600  0.12741200  1
  O  O29  1  0.38945300  0.61955900  0.09628500  1
  O  O30  1  0.38949600  0.88960600  0.38937800  1
  O  O31  1  0.39092900  0.11493800  0.63052500  1
loop_
_geom_bond_atom_site_label_1
_geom_bond_atom_site_label_2
_geom_bond_distance
_geom_bond_site_symmetry_2
Li0 O26 1.932603 1_555
Li0 O3 1.935077 1_555
Li0 O7 1.960970 1_555
Li0 O25 1.964501 1_555
Li1 O4 1.938170 1_555
Li1 O0 1.941778 1_555
Li1 O13 1.945429 1_555
Li1 O14 1.980460 1_555
Li2 O11 1.938170 1_555
Li2 O15 1.941778 1_555
Li2 O2 1.945429 1_555
Li2 O1 1.980460 1_555
Li3 O21 1.932603 1_554
Li3 O12 1.935077 1_454
Li3 O8 1.960970 1_455
Li3 O22 1.964501 1_555
Li4 O10 1.932603 1_555
Li4 O19 1.935077 1_645
Li4 O23 1.960970 1_655
Li4 O9 1.964501 1_545
Li5 O20 1.938170 1_555
Li5 O16 1.941778 1_555
Li5 O29 1.945429 1_555
Li5 O30 1.980460 1_555
Li6 O27 1.938170 1_555
Li6 O31 1.941778 1_555
Li6 O18 1.945429 1_555
Li6 O17 1.980460 1_555
Li7 O5 1.932603 1_556
Li7 O28 1.935077 1_566
Li7 O24 1.960970 1_555
Li7 O6 1.964501 1_565
Ni0 O5 1.891381 1_555
Ni0 O29 1.893227 1_555
Ni0 O8 1.902281 1_555
Ni0 O1 1.960062 1_555
Ni0 O3 2.117517 1_555
Ni0 O0 2.126790 1_554
Ni1 O9 1.881502 1_555
Ni1 O30 1.882616 1_555
Ni1 O2 1.988537 1_565
Ni1 O3 1.994253 1_555
Ni1 O5 2.034332 1_555
Ni1 O4 2.041501 1_555
Ni2 O10 1.869930 1_555
Ni2 O4 1.871844 1_545
Ni2 O31 1.883959 1_555
Ni2 O2 1.891275 1_555
Ni2 O7 1.899092 1_555
Ni2 O6 1.907062 1_555
Ni3 O5 1.869930 1_555
Ni3 O11 1.871844 1_565
Ni3 O16 1.883959 1_655
Ni3 O13 1.891275 1_554
Ni3 O8 1.899092 1_555
Ni3 O9 1.907062 1_555
Ni4 O6 1.881502 1_555
Ni4 O17 1.882616 1_655
Ni4 O13 1.988537 1_545
Ni4 O12 1.994253 1_555
Ni4 O10 2.034332 1_555
Ni4 O11 2.041501 1_556
Ni5 O10 1.891381 1_555
Ni5 O18 1.893227 1_655
Ni5 O7 1.902281 1_555
Ni5 O14 1.960062 1_555
Ni5 O12 2.117517 1_555
Ni5 O15 2.126790 1_555
Ni6 O21 1.891381 1_555
Ni6 O13 1.893227 1_455
Ni6 O24 1.902281 1_555
Ni6 O17 1.960062 1_565
Ni6 O19 2.117517 1_555
Ni6 O16 2.126790 1_556
Ni7 O25 1.881502 1_555
Ni7 O14 1.882616 1_455
Ni7 O18 1.988537 1_555
Ni7 O19 1.994253 1_555
Ni7 O21 2.034332 1_555
Ni7 O20 2.041501 1_555
Ni8 O26 1.869930 1_555
Ni8 O20 1.871844 1_555
Ni8 O15 1.883959 1_455
Ni8 O18 1.891275 1_555
Ni8 O23 1.899092 1_555
Ni8 O22 1.907062 1_555
Ni9 O21 1.869930 1_555
Ni9 O27 1.871844 1_555
Ni9 O0 1.883959 1_555
Ni9 O29 1.891275 1_556
Ni9 O24 1.899092 1_555
Ni9 O25 1.907062 1_555
Ni10 O22 1.881502 1_555
Ni10 O1 1.882616 1_555
Ni10 O29 1.988537 1_555
Ni10 O28 1.994253 1_555
Ni10 O26 2.034332 1_555
Ni10 O27 2.041501 1_554
Ni11 O26 1.891381 1_555
Ni11 O2 1.893227 1_555
Ni11 O23 1.902281 1_555
Ni11 O30 1.960062 1_545
Ni11 O28 2.117517 1_555
Ni11 O31 2.126790 1_555
O0 Ti0 1.896090 1_555
O1 Ti0 1.992417 1_554
O3 Ti1 1.860431 1_555
O4 Ti3 2.035958 1_555
O6 Ti0 2.063930 1_555
O7 Ti0 2.017037 1_555
O8 Ti1 2.017037 1_555
O9 Ti1 2.063930 1_555
O11 Ti2 2.035958 1_655
O12 Ti0 1.860431 1_555
O14 Ti1 1.992417 1_555
O15 Ti1 1.896090 1_555
O16 Ti2 1.896090 1_565
O17 Ti2 1.992417 1_556
O19 Ti3 1.860431 1_555
O20 Ti1 2.035958 1_455
O22 Ti2 2.063930 1_555
O23 Ti2 2.017037 1_555
O24 Ti3 2.017037 1_555
O25 Ti3 2.063930 1_555
O27 Ti0 2.035958 1_555
O28 Ti2 1.860431 1_555
O30 Ti3 1.992417 1_555
O31 Ti3 1.896090 1_545
