# generated using pymatgen
data_Li2VFe(P2O7)2
_symmetry_space_group_name_H-M   'P 1'
_cell_length_a   9.58671855
_cell_length_b   9.58702116
_cell_length_c   7.03812374
_cell_angle_alpha   99.47892969
_cell_angle_beta   99.46935998
_cell_angle_gamma   118.76568407
_symmetry_Int_Tables_number   1
_chemical_formula_structural   Li2VFe(P2O7)2
_chemical_formula_sum   'Li4 V2 Fe2 P8 O28'
_cell_volume   536.60338925
_cell_formula_units_Z   2
loop_
 _symmetry_equiv_pos_site_id
 _symmetry_equiv_pos_as_xyz
  1  'x, y, z'
loop_
 _atom_site_type_symbol
 _atom_site_label
 _atom_site_symmetry_multiplicity
 _atom_site_fract_x
 _atom_site_fract_y
 _atom_site_fract_z
 _atom_site_occupancy
  Li  Li0  1  0.15662100  0.01963000  0.67618900  1
  Li  Li1  1  0.73055700  0.09354100  0.32319300  1
  Li  Li2  1  0.23012400  0.59348700  0.32380400  1
  Li  Li3  1  0.65630700  0.51963800  0.67665200  1
  V  V0  1  0.85815100  0.35755400  0.72871300  1
  V  V1  1  0.89245000  0.89173400  0.27159600  1
  Fe  Fe0  1  0.39206600  0.39141500  0.26788200  1
  Fe  Fe1  1  0.35873600  0.85798700  0.73202600  1
  P  P0  1  0.11004500  0.29043400  0.52113900  1
  P  P1  1  0.75201800  0.03599100  0.91445200  1
  P  P2  1  0.25240600  0.53572900  0.91450200  1
  P  P3  1  0.45936100  0.14053500  0.47839600  1
  P  P4  1  0.60922600  0.78981700  0.52212400  1
  P  P5  1  0.71377200  0.49791100  0.08579200  1
  P  P6  1  0.21450700  0.99778600  0.08535700  1
  P  P7  1  0.96043800  0.64025600  0.47837300  1
  O  O0  1  0.07496500  0.11269600  0.48227600  1
  O  O1  1  0.35943800  0.03834500  0.60540800  1
  O  O2  1  0.58369700  0.01723400  0.91558300  1
  O  O3  1  0.08535700  0.51863400  0.91864800  1
  O  O4  1  0.22098300  0.37380200  0.75360500  1
  O  O5  1  0.37621000  0.02913300  0.24620400  1
  O  O6  1  0.23268900  0.16548100  0.08298200  1
  O  O7  1  0.21236300  0.39045700  0.39415800  1
  O  O8  1  0.45369500  0.29914500  0.49187500  1
  O  O9  1  0.13773500  0.67472500  0.51794900  1
  O  O10  1  0.63700400  0.17548900  0.51735600  1
  O  O11  1  0.86365700  0.18713400  0.85143500  1
  O  O12  1  0.36383500  0.68794900  0.85353600  1
  O  O13  1  0.21917500  0.91291000  0.88389300  1
  O  O14  1  0.71710500  0.41319200  0.88501100  1
  O  O15  1  0.33708800  0.53080300  0.11590400  1
  O  O16  1  0.83665500  0.03289300  0.11518600  1
  O  O17  1  0.06309200  0.88588700  0.14710100  1
  O  O18  1  0.56173700  0.38678000  0.14773100  1
  O  O19  1  0.57470900  0.61259000  0.48229400  1
  O  O20  1  0.45089800  0.79632100  0.50785700  1
  O  O21  1  0.95143900  0.29524400  0.50596000  1
  O  O22  1  0.85948900  0.53769000  0.60538800  1
  O  O23  1  0.72096800  0.87412300  0.75350900  1
  O  O24  1  0.87581500  0.52893000  0.24667300  1
  O  O25  1  0.73144900  0.66552300  0.08282600  1
  O  O26  1  0.71154500  0.89051600  0.39493800  1
  O  O27  1  0.95485100  0.79851000  0.49452700  1
loop_
_geom_bond_atom_site_label_1
_geom_bond_atom_site_label_2
_geom_bond_distance
_geom_bond_site_symmetry_2
Li0 O0 1.998314 1_555
Li0 O1 2.018228 1_555
Li0 O27 2.053564 1_445
Li0 O13 2.082811 1_545
Li1 O10 2.004209 1_555
Li1 O26 2.022189 1_545
Li1 O21 2.054597 1_555
Li1 O16 2.072353 1_555
Li2 O9 1.992428 1_555
Li2 O7 2.022144 1_555
Li2 O20 2.060579 1_555
Li2 O15 2.085874 1_555
Li3 O19 1.999392 1_555
Li3 O22 2.025151 1_555
Li3 O8 2.060131 1_555
Li3 O14 2.077444 1_555
Fe0 O18 1.967905 1_555
Fe0 O6 1.987913 1_555
Fe0 O15 2.042260 1_555
Fe0 O7 2.061338 1_555
Fe0 O8 2.067066 1_555
Fe0 O19 2.083873 1_555
Fe1 O12 1.978205 1_555
Fe1 O2 1.978784 1_565
Fe1 O13 2.042789 1_555
Fe1 O20 2.067257 1_555
Fe1 O1 2.069364 1_565
Fe1 O9 2.083473 1_555
O0 P0 1.534972 1_555
O0 V1 2.071716 1_445
O1 P3 1.530854 1_555
O2 P1 1.536774 1_555
O3 P2 1.535155 1_555
O3 V0 2.010162 1_455
O4 P0 1.620317 1_555
O4 P2 1.625327 1_555
O5 P3 1.619811 1_555
O5 P6 1.623922 1_545
O6 P6 1.534746 1_545
O7 P0 1.531609 1_555
O8 P3 1.535528 1_555
O9 P7 1.532668 1_455
O10 P3 1.534457 1_555
O10 V0 2.073569 1_555
O11 P1 1.522190 1_555
O11 V0 1.987710 1_555
O12 P2 1.520389 1_555
O13 P6 1.533150 1_556
O14 P5 1.522961 1_556
O14 V0 2.076852 1_555
O15 P2 1.533256 1_554
O16 P1 1.521526 1_554
O16 V1 2.079175 1_545
O17 P6 1.519577 1_555
O17 V1 1.997691 1_455
O18 P5 1.522164 1_555
O19 P4 1.531804 1_555
O20 P4 1.536499 1_555
O21 P0 1.530082 1_655
O21 V0 2.069206 1_555
O22 P7 1.536524 1_555
O22 V0 2.052321 1_555
O23 P4 1.616171 1_555
O23 P1 1.626461 1_565
O24 P7 1.616983 1_555
O24 P5 1.627720 1_555
O25 P5 1.536686 1_555
O25 V1 2.001316 1_555
O26 P4 1.535450 1_555
O26 V1 2.059296 1_555
O27 P7 1.530047 1_555
O27 V1 2.070281 1_555
