# generated using pymatgen
data_Sr2Ti6N2O11
_symmetry_space_group_name_H-M   'P 1'
_cell_length_a   7.80399505
_cell_length_b   7.80399505
_cell_length_c   9.33634307
_cell_angle_alpha   80.96641373
_cell_angle_beta   80.96641373
_cell_angle_gamma   28.58745220
_symmetry_Int_Tables_number   1
_chemical_formula_structural   Sr2Ti6N2O11
_chemical_formula_sum   'Sr2 Ti6 N2 O11'
_cell_volume   268.48206038
_cell_formula_units_Z   1
loop_
 _symmetry_equiv_pos_site_id
 _symmetry_equiv_pos_as_xyz
  1  'x, y, z'
loop_
 _atom_site_type_symbol
 _atom_site_label
 _atom_site_symmetry_multiplicity
 _atom_site_fract_x
 _atom_site_fract_y
 _atom_site_fract_z
 _atom_site_occupancy
  Sr  Sr0  1  0.53926200  0.53926200  0.22291100  1
  Sr  Sr1  1  0.44416500  0.44416500  0.75761800  1
  Ti  Ti0  1  0.11945900  0.11945900  0.90059200  1
  Ti  Ti1  1  0.16292700  0.16292700  0.57261600  1
  Ti  Ti2  1  0.22875300  0.22875300  0.23559500  1
  Ti  Ti3  1  0.76015700  0.76015700  0.76845500  1
  Ti  Ti4  1  0.83121300  0.83121300  0.43383100  1
  Ti  Ti5  1  0.87457500  0.87457500  0.07747900  1
  N  N0  1  0.22955100  0.22955100  0.75191800  1
  N  N1  1  0.83743000  0.83743000  0.90205100  1
  O  O0  1  0.05945300  0.05945300  0.70898000  1
  O  O1  1  0.12479200  0.12479200  0.38252900  1
  O  O2  1  0.15984600  0.15984600  0.09351000  1
  O  O3  1  0.63101400  0.63101400  0.89636400  1
  O  O4  1  0.69270200  0.69270200  0.56542400  1
  O  O5  1  0.75649300  0.75649300  0.24233800  1
  O  O6  1  0.29567800  0.29567800  0.42751900  1
  O  O7  1  0.35780100  0.35780100  0.12170900  1
  O  O8  1  0.86878500  0.86878500  0.61137000  1
  O  O9  1  0.93287100  0.93287100  0.30600600  1
  O  O10  1  0.99779800  0.99779800  0.00934500  1
loop_
_geom_bond_atom_site_label_1
_geom_bond_atom_site_label_2
_geom_bond_distance
_geom_bond_site_symmetry_2
N0 Ti0 1.987554 1_555
N0 Ti3 1.993403 1_455
N0 Ti3 1.993403 1_545
N0 Ti1 2.089118 1_555
N1 Ti5 1.815597 1_556
N1 Ti3 1.842310 1_555
N1 Sr1 2.726064 1_655
N1 Sr1 2.726064 1_565
O0 Ti1 1.850542 1_555
O0 Ti0 2.133122 1_555
O0 Sr1 2.588919 1_545
O0 Sr1 2.588919 1_455
O1 Ti2 1.911886 1_555
O1 Ti1 1.952951 1_555
O1 Sr0 2.869042 1_545
O1 Sr0 2.869042 1_455
O2 Ti2 1.814928 1_555
O2 Ti0 1.993441 1_554
O2 Sr0 2.790019 1_545
O2 Sr0 2.790019 1_455
O3 Ti0 1.934486 1_565
O3 Ti0 1.934486 1_655
O3 Ti3 2.117890 1_555
O3 Sr0 3.138417 1_556
O4 Ti1 1.977343 1_565
O4 Ti1 1.977343 1_655
O4 Ti4 2.250377 1_555
O4 Ti3 2.293640 1_555
O5 Ti2 1.975076 1_655
O5 Ti2 1.975076 1_565
O5 Ti5 2.160542 1_555
O5 Ti4 2.264581 1_555
O6 Ti4 2.003739 1_455
O6 Ti4 2.003739 1_545
O6 Ti2 2.196171 1_555
O6 Ti1 2.232737 1_555
O7 Ti5 1.978209 1_455
O7 Ti5 1.978209 1_545
O7 Ti2 2.065831 1_555
O7 Sr0 3.043967 1_555
O8 Ti4 1.837307 1_555
O8 Ti3 2.017286 1_555
O8 Sr1 2.716811 1_565
O8 Sr1 2.716811 1_655
O9 Ti4 1.787092 1_555
O9 Ti5 2.437074 1_555
O9 Sr0 2.549321 1_565
O9 Sr0 2.549321 1_655
O10 Ti5 1.869206 1_555
O10 Ti0 1.952295 1_664
O10 Sr0 2.913182 1_565
O10 Sr0 2.913182 1_655
