# generated using pymatgen
data_LiCoSiO4
_symmetry_space_group_name_H-M   'P 1'
_cell_length_a   8.01311900
_cell_length_b   8.63778500
_cell_length_c   17.34467685
_cell_angle_alpha   60.34661146
_cell_angle_beta   90.00000000
_cell_angle_gamma   90.00000000
_symmetry_Int_Tables_number   1
_chemical_formula_structural   LiCoSiO4
_chemical_formula_sum   'Li12 Co12 Si12 O48'
_cell_volume   1043.29496191
_cell_formula_units_Z   12
loop_
 _symmetry_equiv_pos_site_id
 _symmetry_equiv_pos_as_xyz
  1  'x, y, z'
loop_
 _atom_site_type_symbol
 _atom_site_label
 _atom_site_symmetry_multiplicity
 _atom_site_fract_x
 _atom_site_fract_y
 _atom_site_fract_z
 _atom_site_occupancy
  Li  Li0  1  0.47176300  0.21925800  0.05718500  1
  Li  Li1  1  0.53367100  0.86363400  0.40442800  1
  Li  Li2  1  0.34903800  0.50556700  0.74941500  1
  Li  Li3  1  0.84903800  0.49443300  0.75058500  1
  Li  Li4  1  0.03367100  0.13636600  0.09557200  1
  Li  Li5  1  0.97176300  0.78074200  0.44281500  1
  Li  Li6  1  0.02823700  0.21925800  0.55718500  1
  Li  Li7  1  0.96632900  0.86363400  0.90442800  1
  Li  Li8  1  0.15096200  0.50556700  0.24941500  1
  Li  Li9  1  0.65096200  0.49443300  0.25058500  1
  Li  Li10  1  0.46632900  0.13636600  0.59557200  1
  Li  Li11  1  0.52823700  0.78074200  0.94281500  1
  Co  Co0  1  0.76926600  0.85962400  0.59483100  1
  Co  Co1  1  0.70964500  0.17962400  0.22861100  1
  Co  Co2  1  0.77391000  0.45590700  0.92884800  1
  Co  Co3  1  0.27391000  0.54409300  0.57115200  1
  Co  Co4  1  0.20964500  0.82037600  0.27138900  1
  Co  Co5  1  0.26926600  0.14037600  0.90516900  1
  Co  Co6  1  0.73073400  0.85962400  0.09483100  1
  Co  Co7  1  0.79035500  0.17962400  0.72861100  1
  Co  Co8  1  0.72609000  0.45590700  0.42884800  1
  Co  Co9  1  0.22609000  0.54409300  0.07115200  1
  Co  Co10  1  0.29035500  0.82037600  0.77138900  1
  Co  Co11  1  0.23073400  0.14037600  0.40516900  1
  Si  Si0  1  0.16324600  0.85606800  0.59335000  1
  Si  Si1  1  0.32581300  0.18972100  0.22549200  1
  Si  Si2  1  0.16846700  0.46715500  0.92347600  1
  Si  Si3  1  0.66846700  0.53284500  0.57652400  1
  Si  Si4  1  0.82581300  0.81027900  0.27450800  1
  Si  Si5  1  0.66324600  0.14393200  0.90665000  1
  Si  Si6  1  0.33675400  0.85606800  0.09335000  1
  Si  Si7  1  0.17418700  0.18972100  0.72549200  1
  Si  Si8  1  0.33153300  0.46715500  0.42347600  1
  Si  Si9  1  0.83153300  0.53284500  0.07652400  1
  Si  Si10  1  0.67418700  0.81027900  0.77450800  1
  Si  Si11  1  0.83675400  0.14393200  0.40665000  1
  O  O0  1  0.01700900  0.06983800  0.39266200  1
  O  O1  1  0.85638300  0.31528000  0.13815900  1
  O  O2  1  0.72671800  0.96639800  0.47380300  1
  O  O3  1  0.77061600  0.62039600  0.80608700  1
  O  O4  1  0.28177000  0.41928800  0.01177100  1
  O  O5  1  0.50293400  0.22836000  0.17116700  1
  O  O6  1  0.36468000  0.08795000  0.33331300  1
  O  O7  1  0.26473300  0.74171500  0.68719600  1
  O  O8  1  0.98792100  0.36539600  0.96138000  1
  O  O9  1  0.12967400  0.72818600  0.54854400  1
  O  O10  1  0.26031800  0.38763000  0.86565700  1
  O  O11  1  0.20889000  0.06568100  0.19924200  1
  O  O12  1  0.76031800  0.61237000  0.63434300  1
  O  O13  1  0.70889000  0.93431900  0.30075800  1
  O  O14  1  0.62967400  0.27181400  0.95145600  1
  O  O15  1  0.48792100  0.63460400  0.53862000  1
  O  O16  1  0.76473300  0.25828500  0.81280400  1
  O  O17  1  0.86468000  0.91205000  0.16668700  1
  O  O18  1  0.00293400  0.77164000  0.32883300  1
  O  O19  1  0.27061600  0.37960400  0.69391300  1
  O  O20  1  0.78177000  0.58071200  0.48822900  1
  O  O21  1  0.22671800  0.03360200  0.02619700  1
  O  O22  1  0.35638300  0.68472000  0.36184100  1
  O  O23  1  0.51700900  0.93016200  0.10733800  1
  O  O24  1  0.48299100  0.06983800  0.89266200  1
  O  O25  1  0.64361700  0.31528000  0.63815900  1
  O  O26  1  0.77328200  0.96639800  0.97380300  1
  O  O27  1  0.21823000  0.41928800  0.51177100  1
  O  O28  1  0.72938400  0.62039600  0.30608700  1
  O  O29  1  0.99706600  0.22836000  0.67116700  1
  O  O30  1  0.13532000  0.08795000  0.83331300  1
  O  O31  1  0.23526700  0.74171500  0.18719600  1
  O  O32  1  0.51207900  0.36539600  0.46138000  1
  O  O33  1  0.37032600  0.72818600  0.04854400  1
  O  O34  1  0.29111000  0.06568100  0.69924200  1
  O  O35  1  0.23968200  0.38763000  0.36565700  1
  O  O36  1  0.79111000  0.93431900  0.80075800  1
  O  O37  1  0.73968200  0.61237000  0.13434300  1
  O  O38  1  0.87032600  0.27181400  0.45145600  1
  O  O39  1  0.01207900  0.63460400  0.03862000  1
  O  O40  1  0.73526700  0.25828500  0.31280400  1
  O  O41  1  0.63532000  0.91205000  0.66668700  1
  O  O42  1  0.49706600  0.77164000  0.82883300  1
  O  O43  1  0.71823000  0.58071200  0.98822900  1
  O  O44  1  0.22938400  0.37960400  0.19391300  1
  O  O45  1  0.27328200  0.03360200  0.52619700  1
  O  O46  1  0.14361700  0.68472000  0.86184100  1
  O  O47  1  0.98299100  0.93016200  0.60733800  1
loop_
_geom_bond_atom_site_label_1
_geom_bond_atom_site_label_2
_geom_bond_distance
_geom_bond_site_symmetry_2
Li0 O5 2.032443 1_555
Li0 O14 2.084805 1_554
Li0 O4 2.139373 1_555
Li0 O23 2.230352 1_545
Li1 O13 2.119209 1_555
Li1 O6 2.178198 1_565
Li1 O15 2.215677 1_555
Li1 O2 2.384459 1_555
Li1 O22 2.466107 1_555
Li2 O19 1.881987 1_555
Li2 O10 1.890984 1_555
Li2 O7 1.898303 1_555
Li3 O3 1.881987 1_555
Li3 O12 1.890984 1_555
Li3 O16 1.898303 1_555
Li4 O11 2.119209 1_555
Li4 O17 2.178198 1_445
Li4 O8 2.215677 1_454
Li4 O21 2.384459 1_555
Li4 O1 2.466107 1_455
Li5 O18 2.032443 1_655
Li5 O9 2.084805 1_655
Li5 O20 2.139373 1_555
Li5 O0 2.230352 1_665
Li6 O29 2.032443 1_455
Li6 O38 2.084805 1_455
Li6 O27 2.139373 1_555
Li6 O47 2.230352 1_445
Li7 O36 2.119209 1_555
Li7 O30 2.178198 1_665
Li7 O39 2.215677 1_656
Li7 O26 2.384459 1_555
Li7 O46 2.466107 1_655
Li8 O44 1.881987 1_555
Li8 O35 1.890984 1_555
Li8 O31 1.898303 1_555
Li9 O28 1.881987 1_555
Li9 O37 1.890984 1_555
Li9 O40 1.898303 1_555
Li10 O34 2.119209 1_555
Li10 O41 2.178198 1_545
Li10 O32 2.215677 1_555
Li10 O45 2.384459 1_555
Li10 O25 2.466107 1_555
Li11 O42 2.032443 1_555
Li11 O33 2.084805 1_556
Li11 O43 2.139373 1_555
Li11 O24 2.230352 1_565
Co0 O2 1.859495 1_555
Co0 O41 1.862491 1_555
Co0 O47 1.866037 1_555
Co0 O12 1.894159 1_555
Co1 O1 1.843337 1_555
Co1 O13 1.852560 1_545
Co1 O5 1.870442 1_555
Co1 O40 1.902127 1_555
Co2 O14 1.844231 1_555
Co2 O8 1.853098 1_555
Co2 O43 1.876349 1_555
Co2 O3 1.886692 1_555
Co3 O9 1.844231 1_555
Co3 O15 1.853098 1_555
Co3 O27 1.876349 1_555
Co3 O19 1.886692 1_555
Co4 O22 1.843337 1_555
Co4 O11 1.852560 1_565
Co4 O18 1.870442 1_555
Co4 O31 1.902127 1_555
Co5 O21 1.859495 1_556
Co5 O30 1.862491 1_555
Co5 O24 1.866037 1_555
Co5 O10 1.894159 1_555
Co6 O26 1.859495 1_554
Co6 O17 1.862491 1_555
Co6 O23 1.866037 1_555
Co6 O37 1.894159 1_555
Co7 O25 1.843337 1_555
Co7 O36 1.852560 1_545
Co7 O29 1.870442 1_555
Co7 O16 1.902127 1_555
Co8 O38 1.844231 1_555
Co8 O32 1.853098 1_555
Co8 O20 1.876349 1_555
Co8 O28 1.886692 1_555
Co9 O33 1.844231 1_555
Co9 O39 1.853098 1_555
Co9 O4 1.876349 1_555
Co9 O44 1.886692 1_555
Co10 O46 1.843337 1_555
Co10 O34 1.852560 1_565
Co10 O42 1.870442 1_555
Co10 O7 1.902127 1_555
Co11 O45 1.859495 1_555
Co11 O6 1.862491 1_555
Co11 O0 1.866037 1_555
Co11 O35 1.894159 1_555
O0 Si11 1.645730 1_455
O1 Si9 1.651137 1_555
O2 Si11 1.648732 1_565
O3 Si10 1.642645 1_555
O4 Si2 1.647433 1_554
O5 Si1 1.643909 1_555
O6 Si1 1.655416 1_555
O7 Si0 1.641822 1_555
O8 Si2 1.651078 1_655
O9 Si0 1.657088 1_555
O10 Si2 1.643452 1_555
O11 Si1 1.647961 1_555
O12 Si3 1.643452 1_555
O13 Si4 1.647961 1_555
O14 Si5 1.657088 1_555
O15 Si3 1.651078 1_555
O16 Si5 1.641822 1_555
O17 Si4 1.655416 1_555
O18 Si4 1.643909 1_455
O19 Si7 1.642645 1_555
O20 Si3 1.647433 1_555
O21 Si6 1.648732 1_545
O22 Si8 1.651137 1_555
O23 Si6 1.645730 1_555
O24 Si5 1.645730 1_555
O25 Si3 1.651137 1_555
O26 Si5 1.648732 1_565
O27 Si8 1.647433 1_555
O28 Si4 1.642645 1_555
O29 Si7 1.643909 1_655
O30 Si7 1.655416 1_555
O31 Si6 1.641822 1_555
O32 Si8 1.651078 1_555
O33 Si6 1.657088 1_555
O34 Si7 1.647961 1_555
O35 Si8 1.643452 1_555
O36 Si10 1.647961 1_555
O37 Si9 1.643452 1_555
O38 Si11 1.657088 1_555
O39 Si9 1.651078 1_455
O40 Si11 1.641822 1_555
O41 Si10 1.655416 1_555
O42 Si10 1.643909 1_555
O43 Si9 1.647433 1_556
O44 Si1 1.642645 1_555
O45 Si0 1.648732 1_545
O46 Si2 1.651137 1_555
O47 Si0 1.645730 1_655
