# generated using pymatgen
data_Li2FeSi3O8
_symmetry_space_group_name_H-M   'P 1'
_cell_length_a   7.81268795
_cell_length_b   10.92538266
_cell_length_c   8.31314800
_cell_angle_alpha   89.99939679
_cell_angle_beta   90.00005865
_cell_angle_gamma   93.47843336
_symmetry_Int_Tables_number   1
_chemical_formula_structural   Li2FeSi3O8
_chemical_formula_sum   'Li8 Fe4 Si12 O32'
_cell_volume   708.27483584
_cell_formula_units_Z   4
loop_
 _symmetry_equiv_pos_site_id
 _symmetry_equiv_pos_as_xyz
  1  'x, y, z'
loop_
 _atom_site_type_symbol
 _atom_site_label
 _atom_site_symmetry_multiplicity
 _atom_site_fract_x
 _atom_site_fract_y
 _atom_site_fract_z
 _atom_site_occupancy
  Li  Li0  1  0.53406800  0.29575300  0.32298600  1
  Li  Li1  1  0.03436000  0.79564000  0.32281800  1
  Li  Li2  1  0.46588700  0.70431500  0.82296200  1
  Li  Li3  1  0.96554600  0.20438700  0.82281900  1
  Li  Li4  1  0.56780000  0.00350400  0.81667300  1
  Li  Li5  1  0.06672500  0.50333200  0.81585300  1
  Li  Li6  1  0.43213500  0.99654800  0.31683000  1
  Li  Li7  1  0.93326100  0.49667000  0.31589100  1
  Fe  Fe0  1  0.70333800  0.32284200  0.99880200  1
  Fe  Fe1  1  0.29694700  0.67713400  0.49860500  1
  Fe  Fe2  1  0.20358500  0.82318800  0.99873500  1
  Fe  Fe3  1  0.79653200  0.17679600  0.49861900  1
  Si  Si0  1  0.22723500  0.18262000  0.52802800  1
  Si  Si1  1  0.72774400  0.68228400  0.52799800  1
  Si  Si2  1  0.77279400  0.81738400  0.02800500  1
  Si  Si3  1  0.27228600  0.31771600  0.02799200  1
  Si  Si4  1  0.15033800  0.08425400  0.17970600  1
  Si  Si5  1  0.65081000  0.58391700  0.17976000  1
  Si  Si6  1  0.84964500  0.91570900  0.67968600  1
  Si  Si7  1  0.34918900  0.41608000  0.67976300  1
  Si  Si8  1  0.24530100  0.93125600  0.65850800  1
  Si  Si9  1  0.74473200  0.43086900  0.65856700  1
  Si  Si10  1  0.75464700  0.06874400  0.15852000  1
  Si  Si11  1  0.25524300  0.56913200  0.15856100  1
  O  O0  1  0.54877900  0.44756100  0.73084400  1
  O  O1  1  0.04920000  0.94749200  0.73063800  1
  O  O2  1  0.45121100  0.55241600  0.23085000  1
  O  O3  1  0.95077800  0.05249800  0.23064200  1
  O  O4  1  0.64716400  0.68987100  0.03740900  1
  O  O5  1  0.14641700  0.19032000  0.03751400  1
  O  O6  1  0.35281400  0.31013100  0.53739300  1
  O  O7  1  0.85357700  0.80966400  0.53749800  1
  O  O8  1  0.24978100  0.14770400  0.33693200  1
  O  O9  1  0.75039200  0.64739200  0.33692000  1
  O  O10  1  0.75017400  0.85226700  0.83688300  1
  O  O11  1  0.24958000  0.35258500  0.83689900  1
  O  O12  1  0.46357600  0.30166600  0.08758700  1
  O  O13  1  0.96409800  0.80154200  0.08757800  1
  O  O14  1  0.53641300  0.69835700  0.58760500  1
  O  O15  1  0.03590500  0.19847100  0.58765000  1
  O  O16  1  0.32514600  0.07523300  0.62796000  1
  O  O17  1  0.82521500  0.57472000  0.62797700  1
  O  O18  1  0.67483600  0.92476600  0.12790800  1
  O  O19  1  0.17475300  0.42527400  0.12793900  1
  O  O20  1  0.26174300  0.97015100  0.13797300  1
  O  O21  1  0.76190900  0.46964500  0.13808400  1
  O  O22  1  0.73822200  0.02983400  0.63790600  1
  O  O23  1  0.23809300  0.53036000  0.63806400  1
  O  O24  1  0.24202000  0.85738700  0.48840500  1
  O  O25  1  0.74092500  0.35681300  0.48861100  1
  O  O26  1  0.75798900  0.14262500  0.98836900  1
  O  O27  1  0.25909500  0.64317600  0.98860300  1
  O  O28  1  0.35689300  0.87475200  0.80381200  1
  O  O29  1  0.85627000  0.37434500  0.80384300  1
  O  O30  1  0.64313700  0.12526100  0.30379800  1
  O  O31  1  0.14374600  0.62564900  0.30381700  1
loop_
_geom_bond_atom_site_label_1
_geom_bond_atom_site_label_2
_geom_bond_distance
_geom_bond_site_symmetry_2
Li0 O12 2.035012 1_555
Li0 O30 2.100900 1_555
Li0 O25 2.195856 1_555
Li0 O6 2.287773 1_555
Li1 O13 2.033246 1_455
Li1 O31 2.096938 1_555
Li1 O24 2.202116 1_555
Li1 O7 2.286845 1_455
Li2 O14 2.034775 1_555
Li2 O28 2.100057 1_555
Li2 O27 2.195792 1_555
Li2 O4 2.288216 1_556
Li3 O15 2.032895 1_655
Li3 O29 2.096194 1_555
Li3 O26 2.201382 1_555
Li3 O5 2.287414 1_656
Li4 O22 2.004390 1_555
Li4 O28 2.103322 1_545
Li4 O10 2.252602 1_545
Li4 O26 2.506268 1_555
Li4 O16 2.617153 1_555
Li5 O23 2.004038 1_555
Li5 O29 2.101950 1_455
Li5 O11 2.251551 1_555
Li5 O27 2.525250 1_555
Li5 O17 2.605067 1_455
Li6 O20 2.004870 1_555
Li6 O30 2.103680 1_565
Li6 O8 2.251749 1_565
Li6 O24 2.505606 1_555
Li6 O18 2.618679 1_555
Li7 O21 2.004065 1_555
Li7 O31 2.102094 1_655
Li7 O9 2.251407 1_555
Li7 O25 2.525024 1_555
Li7 O19 2.605383 1_655
Fe0 O21 2.008350 1_556
Fe0 O12 2.013586 1_556
Fe0 O26 2.041707 1_555
Fe0 O29 2.071072 1_555
Fe1 O23 2.009329 1_555
Fe1 O14 2.012138 1_555
Fe1 O24 2.042586 1_555
Fe1 O31 2.071099 1_555
Fe2 O20 2.008935 1_556
Fe2 O13 2.012087 1_456
Fe2 O27 2.041222 1_555
Fe2 O28 2.072643 1_555
Fe3 O22 2.009354 1_555
Fe3 O15 2.011859 1_655
Fe3 O25 2.041436 1_555
Fe3 O30 2.072294 1_555
O0 Si7 1.632502 1_555
O0 Si9 1.664895 1_555
O1 Si6 1.632473 1_455
O1 Si8 1.664709 1_555
O2 Si5 1.632620 1_555
O2 Si11 1.665080 1_555
O3 Si4 1.632429 1_655
O3 Si10 1.664918 1_555
O4 Si2 1.656608 1_555
O4 Si5 1.656863 1_555
O5 Si3 1.656638 1_555
O5 Si4 1.656905 1_555
O6 Si0 1.656361 1_555
O6 Si7 1.656945 1_555
O7 Si1 1.656338 1_555
O7 Si6 1.656743 1_555
O8 Si0 1.645720 1_555
O8 Si4 1.651416 1_555
O9 Si1 1.645610 1_555
O9 Si5 1.651572 1_555
O10 Si2 1.645905 1_556
O10 Si6 1.651278 1_555
O11 Si3 1.645717 1_556
O11 Si7 1.651583 1_555
O12 Si3 1.594204 1_555
O13 Si2 1.593873 1_555
O14 Si1 1.594581 1_555
O15 Si0 1.594209 1_555
O16 Si0 1.661528 1_555
O16 Si8 1.675973 1_545
O17 Si1 1.661417 1_555
O17 Si9 1.676344 1_555
O18 Si2 1.661565 1_555
O18 Si10 1.675985 1_565
O19 Si3 1.661492 1_555
O19 Si11 1.676477 1_555
O20 Si4 1.601138 1_565
O21 Si5 1.601124 1_555
O22 Si6 1.601494 1_545
O23 Si7 1.601216 1_555
O24 Si8 1.627621 1_555
O25 Si9 1.627518 1_555
O26 Si10 1.628011 1_556
O27 Si11 1.627449 1_556
O28 Si8 1.632661 1_555
O29 Si9 1.632344 1_555
O30 Si10 1.632214 1_555
O31 Si11 1.632022 1_555
