# generated using pymatgen
data_Ti17(NO4)6
_symmetry_space_group_name_H-M   'P 1'
_cell_length_a   9.66617600
_cell_length_b   11.29218595
_cell_length_c   11.47860777
_cell_angle_alpha   99.74220008
_cell_angle_beta   90.00622943
_cell_angle_gamma   115.27496377
_symmetry_Int_Tables_number   1
_chemical_formula_structural   Ti17(NO4)6
_chemical_formula_sum   'Ti34 N12 O48'
_cell_volume   1112.94855442
_cell_formula_units_Z   2
loop_
 _symmetry_equiv_pos_site_id
 _symmetry_equiv_pos_as_xyz
  1  'x, y, z'
loop_
 _atom_site_type_symbol
 _atom_site_label
 _atom_site_symmetry_multiplicity
 _atom_site_fract_x
 _atom_site_fract_y
 _atom_site_fract_z
 _atom_site_occupancy
  Ti  Ti0  1  0.93035500  0.57691600  0.92531600  1
  Ti  Ti1  1  0.82336100  0.25055500  0.87295000  1
  Ti  Ti2  1  0.57400500  0.42522100  0.90495200  1
  Ti  Ti3  1  0.39175000  0.05748600  0.84367700  1
  Ti  Ti4  1  0.10229700  0.92309800  0.98293300  1
  Ti  Ti5  1  0.67933700  0.75029200  0.95846000  1
  Ti  Ti6  1  0.89770300  0.07690200  0.01706700  1
  Ti  Ti7  1  0.32066300  0.24970800  0.04154000  1
  Ti  Ti8  1  0.42599500  0.57477900  0.09504800  1
  Ti  Ti9  1  0.06964500  0.42308400  0.07468400  1
  Ti  Ti10  1  0.60825000  0.94251400  0.15632300  1
  Ti  Ti11  1  0.17663900  0.74944500  0.12705000  1
  Ti  Ti12  1  0.67654200  0.74949400  0.28957400  1
  Ti  Ti13  1  0.57593500  0.42894300  0.23786900  1
  Ti  Ti14  1  0.10043400  0.92823100  0.32084400  1
  Ti  Ti15  1  0.39805700  0.07005700  0.17824600  1
  Ti  Ti16  1  0.91213700  0.55308100  0.25857000  1
  Ti  Ti17  1  0.42538200  0.57291200  0.42915800  1
  Ti  Ti18  1  0.06939800  0.42373300  0.39926100  1
  Ti  Ti19  1  0.32224800  0.25047100  0.37346800  1
  Ti  Ti20  1  0.60487900  0.92792500  0.48859200  1
  Ti  Ti21  1  0.17709700  0.74949300  0.45550600  1
  Ti  Ti22  1  0.89552400  0.07697500  0.34088500  1
  Ti  Ti23  1  0.82290300  0.25050700  0.54449400  1
  Ti  Ti24  1  0.93060200  0.57626700  0.60073900  1
  Ti  Ti25  1  0.57461800  0.42708800  0.57084200  1
  Ti  Ti26  1  0.67775200  0.74952900  0.62653200  1
  Ti  Ti27  1  0.39512100  0.07207500  0.51140800  1
  Ti  Ti28  1  0.10447600  0.92302500  0.65911500  1
  Ti  Ti29  1  0.89956600  0.07176900  0.67915600  1
  Ti  Ti30  1  0.42406500  0.57105700  0.76213100  1
  Ti  Ti31  1  0.08786300  0.44691900  0.74143000  1
  Ti  Ti32  1  0.32345800  0.25050600  0.71042600  1
  Ti  Ti33  1  0.60194300  0.92994300  0.82175400  1
  N  N0  1  0.39344400  0.24910600  0.87566000  1
  N  N1  1  0.09534400  0.74948700  0.97177600  1
  N  N2  1  0.60655600  0.75089400  0.12434000  1
  N  N3  1  0.90465600  0.25051300  0.02822400  1
  N  N4  1  0.39207000  0.25008000  0.20754700  1
  N  N5  1  0.10243100  0.75060000  0.29244400  1
  N  N6  1  0.90492000  0.25055400  0.38954000  1
  N  N7  1  0.60569900  0.75024400  0.45816200  1
  N  N8  1  0.39430100  0.24975600  0.54183800  1
  N  N9  1  0.09508000  0.74944600  0.61046000  1
  N  N10  1  0.60793000  0.74992000  0.79245300  1
  N  N11  1  0.89756900  0.24940000  0.70755600  1
  O  O0  1  0.89242400  0.88055100  0.97663700  1
  O  O1  1  0.02926800  0.43837900  0.90461600  1
  O  O2  1  0.47031000  0.56357500  0.92738900  1
  O  O3  1  0.73775400  0.38084900  0.89932600  1
  O  O4  1  0.76121200  0.61869400  0.93623500  1
  O  O5  1  0.65875000  0.93844300  0.99005200  1
  O  O6  1  0.61050500  0.12274800  0.85343600  1
  O  O7  1  0.84635100  0.06626100  0.84224600  1
  O  O8  1  0.52969000  0.43642500  0.07261100  1
  O  O9  1  0.10757600  0.11944900  0.02336300  1
  O  O10  1  0.38949500  0.87725200  0.14656400  1
  O  O11  1  0.34125000  0.06155700  0.00994800  1
  O  O12  1  0.97073200  0.56162100  0.09538400  1
  O  O13  1  0.23878800  0.38130600  0.06376500  1
  O  O14  1  0.15364900  0.93373900  0.15775400  1
  O  O15  1  0.26224600  0.61915100  0.10067400  1
  O  O16  1  0.46776100  0.56636200  0.26058200  1
  O  O17  1  0.65796800  0.93858100  0.32274400  1
  O  O18  1  0.04842000  0.44879800  0.24163100  1
  O  O19  1  0.73764300  0.38940000  0.23184900  1
  O  O20  1  0.89208000  0.88109700  0.31644400  1
  O  O21  1  0.84977900  0.05168700  0.17545000  1
  O  O22  1  0.59760900  0.10914200  0.18466200  1
  O  O23  1  0.76193600  0.62241100  0.26963900  1
  O  O24  1  0.23894300  0.38148600  0.39598900  1
  O  O25  1  0.26339900  0.62017200  0.43958500  1
  O  O26  1  0.10749300  0.11858700  0.35261200  1
  O  O27  1  0.53024700  0.43695700  0.40587100  1
  O  O28  1  0.97141300  0.56187200  0.42517000  1
  O  O29  1  0.39347400  0.88141800  0.47956600  1
  O  O30  1  0.15888000  0.93656300  0.48761300  1
  O  O31  1  0.34435600  0.06470900  0.34403700  1
  O  O32  1  0.65564400  0.93529100  0.65596300  1
  O  O33  1  0.60652600  0.11858200  0.52043400  1
  O  O34  1  0.84112000  0.06343700  0.51238700  1
  O  O35  1  0.73660100  0.37982800  0.56041500  1
  O  O36  1  0.76105700  0.61851400  0.60401100  1
  O  O37  1  0.02858700  0.43812800  0.57483000  1
  O  O38  1  0.89250700  0.88141300  0.64738800  1
  O  O39  1  0.46975300  0.56304300  0.59412900  1
  O  O40  1  0.10792000  0.11890300  0.68355600  1
  O  O41  1  0.15022100  0.94831300  0.82455000  1
  O  O42  1  0.53223900  0.43363800  0.73941800  1
  O  O43  1  0.34203200  0.06141900  0.67725600  1
  O  O44  1  0.23806400  0.37758900  0.73036100  1
  O  O45  1  0.26235700  0.61060000  0.76815100  1
  O  O46  1  0.40239100  0.89085800  0.81533800  1
  O  O47  1  0.95158000  0.55120200  0.75836900  1
loop_
_geom_bond_atom_site_label_1
_geom_bond_atom_site_label_2
_geom_bond_distance
_geom_bond_site_symmetry_2
N0 Ti2 1.980877 1_555
N0 Ti32 2.018466 1_555
N0 Ti7 2.029892 1_556
N0 Ti3 2.125562 1_555
N1 Ti0 1.902509 1_455
N1 Ti4 1.914886 1_555
N1 Ti11 1.947947 1_556
N2 Ti8 1.980877 1_555
N2 Ti12 2.018466 1_555
N2 Ti5 2.029892 1_554
N2 Ti10 2.125562 1_555
N3 Ti9 1.902509 1_655
N3 Ti6 1.914886 1_555
N3 Ti1 1.947947 1_554
N4 Ti13 2.013927 1_555
N4 Ti19 2.020590 1_555
N4 Ti7 2.025342 1_555
N4 Ti15 2.029294 1_555
N5 Ti14 1.985401 1_555
N5 Ti21 2.009910 1_555
N5 Ti11 2.029503 1_555
N5 Ti16 2.170802 1_455
N6 Ti18 1.906716 1_655
N6 Ti22 1.907772 1_555
N6 Ti23 1.947409 1_555
N7 Ti20 1.980944 1_555
N7 Ti17 1.988093 1_555
N7 Ti12 2.052685 1_555
N7 Ti26 2.056717 1_555
N8 Ti27 1.980944 1_555
N8 Ti25 1.988093 1_555
N8 Ti32 2.052685 1_555
N8 Ti19 2.056717 1_555
N9 Ti24 1.906716 1_455
N9 Ti28 1.907772 1_555
N9 Ti21 1.947409 1_555
N10 Ti30 2.013927 1_555
N10 Ti26 2.020590 1_555
N10 Ti5 2.025342 1_555
N10 Ti33 2.029294 1_555
N11 Ti29 1.985401 1_555
N11 Ti23 2.009910 1_555
N11 Ti1 2.029503 1_555
N11 Ti31 2.170802 1_655
O0 Ti4 1.872825 1_655
O0 Ti5 1.938695 1_555
O0 Ti6 2.165465 1_566
O1 Ti31 1.963034 1_555
O1 Ti9 2.040717 1_556
O1 Ti0 2.137615 1_455
O1 Ti1 2.173968 1_455
O2 Ti8 1.966525 1_556
O2 Ti30 1.972717 1_555
O2 Ti2 2.170932 1_555
O2 Ti5 2.182354 1_555
O3 Ti2 1.851182 1_555
O3 Ti1 1.957062 1_555
O3 Ti0 2.171048 1_555
O4 Ti0 1.884162 1_555
O4 Ti5 1.943123 1_555
O4 Ti2 2.129549 1_555
O5 Ti10 1.967909 1_556
O5 Ti33 1.983607 1_555
O5 Ti6 2.151201 1_566
O5 Ti5 2.187575 1_555
O6 Ti3 1.915253 1_555
O6 Ti1 1.929041 1_555
O6 Ti33 2.111262 1_545
O7 Ti29 1.945588 1_555
O7 Ti6 2.038364 1_556
O7 Ti1 2.156666 1_555
O7 Ti33 2.185895 1_545
O8 Ti2 1.966525 1_554
O8 Ti13 1.972717 1_555
O8 Ti8 2.170932 1_555
O8 Ti7 2.182354 1_555
O9 Ti6 1.872825 1_455
O9 Ti7 1.938695 1_555
O9 Ti4 2.165465 1_544
O10 Ti10 1.915253 1_555
O10 Ti11 1.929041 1_555
O10 Ti15 2.111262 1_565
O11 Ti3 1.967909 1_554
O11 Ti15 1.983607 1_555
O11 Ti4 2.151201 1_544
O11 Ti7 2.187575 1_555
O12 Ti16 1.963034 1_555
O12 Ti0 2.040717 1_554
O12 Ti9 2.137615 1_655
O12 Ti11 2.173968 1_655
O13 Ti9 1.884162 1_555
O13 Ti7 1.943123 1_555
O13 Ti8 2.129549 1_555
O14 Ti14 1.945588 1_555
O14 Ti4 2.038364 1_554
O14 Ti11 2.156666 1_555
O14 Ti15 2.185895 1_565
O15 Ti8 1.851182 1_555
O15 Ti11 1.957062 1_555
O15 Ti9 2.171048 1_555
O16 Ti8 1.968787 1_555
O16 Ti17 1.973621 1_555
O16 Ti12 2.159441 1_555
O16 Ti13 2.194987 1_555
O17 Ti20 1.981645 1_555
O17 Ti10 1.982132 1_555
O17 Ti22 2.140992 1_565
O17 Ti12 2.188274 1_555
O18 Ti18 1.901922 1_555
O18 Ti9 1.913459 1_555
O18 Ti16 2.099314 1_455
O19 Ti13 1.798062 1_555
O19 Ti16 1.871137 1_555
O20 Ti14 1.848649 1_655
O20 Ti12 1.960895 1_555
O20 Ti22 2.167807 1_565
O21 Ti22 1.895153 1_555
O21 Ti6 1.914050 1_555
O21 Ti10 2.114046 1_545
O22 Ti15 1.784065 1_555
O22 Ti10 1.901295 1_545
O23 Ti16 1.916760 1_555
O23 Ti12 1.921840 1_555
O23 Ti13 2.124719 1_555
O24 Ti18 1.891140 1_555
O24 Ti19 1.947281 1_555
O24 Ti17 2.111896 1_555
O25 Ti17 1.855446 1_555
O25 Ti21 1.952385 1_555
O25 Ti18 2.179808 1_555
O26 Ti22 1.895634 1_455
O26 Ti19 1.955435 1_555
O26 Ti14 2.089882 1_545
O27 Ti25 1.973397 1_555
O27 Ti13 1.974162 1_555
O27 Ti17 2.155432 1_555
O27 Ti19 2.175900 1_555
O28 Ti16 1.970311 1_555
O28 Ti24 2.046336 1_555
O28 Ti18 2.126843 1_655
O28 Ti21 2.171637 1_655
O29 Ti20 1.878157 1_555
O29 Ti21 1.967242 1_555
O29 Ti27 2.115039 1_565
O30 Ti14 1.971267 1_555
O30 Ti28 2.051523 1_555
O30 Ti27 2.122566 1_565
O30 Ti21 2.164109 1_555
O31 Ti27 1.962020 1_555
O31 Ti15 1.976622 1_555
O31 Ti19 2.168627 1_555
O31 Ti14 2.182494 1_545
O32 Ti20 1.962020 1_555
O32 Ti33 1.976622 1_555
O32 Ti26 2.168627 1_555
O32 Ti29 2.182494 1_565
O33 Ti27 1.878157 1_555
O33 Ti23 1.967242 1_555
O33 Ti20 2.115039 1_545
O34 Ti29 1.971267 1_555
O34 Ti22 2.051523 1_555
O34 Ti20 2.122566 1_545
O34 Ti23 2.164109 1_555
O35 Ti25 1.855446 1_555
O35 Ti23 1.952385 1_555
O35 Ti24 2.179808 1_555
O36 Ti24 1.891140 1_555
O36 Ti26 1.947281 1_555
O36 Ti25 2.111896 1_555
O37 Ti31 1.970311 1_555
O37 Ti18 2.046336 1_555
O37 Ti24 2.126843 1_455
O37 Ti23 2.171637 1_455
O38 Ti28 1.895634 1_655
O38 Ti26 1.955435 1_555
O38 Ti29 2.089882 1_565
O39 Ti17 1.973397 1_555
O39 Ti30 1.974162 1_555
O39 Ti25 2.155432 1_555
O39 Ti26 2.175900 1_555
O40 Ti29 1.848649 1_455
O40 Ti32 1.960895 1_555
O40 Ti28 2.167807 1_545
O41 Ti28 1.895153 1_555
O41 Ti4 1.914050 1_555
O41 Ti3 2.114046 1_565
O42 Ti2 1.968787 1_555
O42 Ti25 1.973621 1_555
O42 Ti32 2.159441 1_555
O42 Ti30 2.194987 1_555
O43 Ti27 1.981645 1_555
O43 Ti3 1.982132 1_555
O43 Ti28 2.140992 1_545
O43 Ti32 2.188274 1_555
O44 Ti31 1.916760 1_555
O44 Ti32 1.921840 1_555
O44 Ti30 2.124719 1_555
O45 Ti30 1.798062 1_555
O45 Ti31 1.871137 1_555
O46 Ti33 1.784065 1_555
O46 Ti3 1.901295 1_565
O47 Ti24 1.901922 1_555
O47 Ti0 1.913459 1_555
O47 Ti31 2.099314 1_655
