# generated using pymatgen
data_RbCrH4(C2O5)2
_symmetry_space_group_name_H-M   'P 1'
_cell_length_a   6.84455978
_cell_length_b   7.31019900
_cell_length_c   11.37484348
_cell_angle_alpha   71.25901821
_cell_angle_beta   105.86231888
_cell_angle_gamma   89.99755011
_symmetry_Int_Tables_number   1
_chemical_formula_structural   RbCrH4(C2O5)2
_chemical_formula_sum   'Rb2 Cr2 H8 C8 O20'
_cell_volume   516.02559808
_cell_formula_units_Z   2
loop_
 _symmetry_equiv_pos_site_id
 _symmetry_equiv_pos_as_xyz
  1  'x, y, z'
loop_
 _atom_site_type_symbol
 _atom_site_label
 _atom_site_symmetry_multiplicity
 _atom_site_fract_x
 _atom_site_fract_y
 _atom_site_fract_z
 _atom_site_occupancy
  Rb  Rb0  1  0.75002500  0.74998700  0.50001100  1
  Rb  Rb1  1  0.25003500  0.24999900  0.49998300  1
  Cr  Cr0  1  0.49993800  0.50005500  0.99998200  1
  Cr  Cr1  1  0.99985900  0.99998900  0.99998900  1
  H  H0  1  0.70656500  0.06196900  0.10167000  1
  H  H1  1  0.20653300  0.56186900  0.10169000  1
  H  H2  1  0.70657800  0.83638600  0.10165300  1
  H  H3  1  0.20655400  0.33645700  0.10168600  1
  H  H4  1  0.79345300  0.43813800  0.89833300  1
  H  H5  1  0.29339000  0.93802900  0.89837400  1
  H  H6  1  0.79346800  0.66350100  0.89834800  1
  H  H7  1  0.29341100  0.16357200  0.89838900  1
  C  C0  1  0.24848500  0.73015100  0.75275100  1
  C  C1  1  0.74849600  0.23022200  0.75274700  1
  C  C2  1  0.24845500  0.51709800  0.75276900  1
  C  C3  1  0.74846800  0.01702300  0.75276900  1
  C  C4  1  0.25156400  0.98298600  0.24722600  1
  C  C5  1  0.75159900  0.48290100  0.24722500  1
  C  C6  1  0.25152300  0.76978800  0.24723300  1
  C  C7  1  0.75155200  0.26985500  0.24723300  1
  O  O0  1  0.74661200  0.96890900  0.06220500  1
  O  O1  1  0.24689700  0.46885800  0.06229000  1
  O  O2  1  0.75305100  0.53112400  0.93772600  1
  O  O3  1  0.25327800  0.03108300  0.93781900  1
  O  O4  1  0.85371600  0.13567800  0.34122500  1
  O  O5  1  0.35384500  0.63576800  0.34133400  1
  O  O6  1  0.85374700  0.52317700  0.34119800  1
  O  O7  1  0.35386800  0.02295900  0.34130700  1
  O  O8  1  0.64623300  0.97700900  0.65870200  1
  O  O9  1  0.14632600  0.47681000  0.65878600  1
  O  O10  1  0.64622500  0.36422000  0.65863700  1
  O  O11  1  0.14631700  0.86435000  0.65872200  1
  O  O12  1  0.63772300  0.25205400  0.13832400  1
  O  O13  1  0.13781000  0.75117000  0.13861200  1
  O  O14  1  0.63775200  0.60962500  0.13832300  1
  O  O15  1  0.13781100  0.11022900  0.13860400  1
  O  O16  1  0.86217300  0.88977600  0.86141200  1
  O  O17  1  0.36225900  0.39040100  0.86168100  1
  O  O18  1  0.86216400  0.24883800  0.86138200  1
  O  O19  1  0.36224500  0.74798500  0.86165000  1
loop_
_geom_bond_atom_site_label_1
_geom_bond_atom_site_label_2
_geom_bond_distance
_geom_bond_site_symmetry_2
Cr0 O17 2.001342 1_555
Cr0 O19 2.001409 1_555
Cr0 O14 2.001535 1_556
Cr0 O12 2.001951 1_556
Cr0 O1 2.030071 1_556
Cr0 O2 2.030215 1_555
Cr1 O16 2.006493 1_555
Cr1 O18 2.006948 1_565
Cr1 O13 2.007318 1_656
Cr1 O15 2.007426 1_666
Cr1 O0 2.030837 1_556
Cr1 O3 2.031668 1_665
H0 O0 1.001462 1_545
H0 O12 1.675217 1_555
H1 O1 1.001481 1_555
H1 O13 1.671530 1_555
H2 O0 1.001424 1_555
H2 O14 1.675394 1_555
H3 O1 1.001404 1_555
H3 O15 1.671679 1_555
H4 O2 1.001375 1_555
H4 O18 1.671691 1_555
H5 O3 1.001434 1_565
H5 O19 1.675447 1_555
H6 O2 1.001418 1_555
H6 O16 1.671902 1_555
H7 O3 1.001444 1_555
H7 O17 1.675902 1_555
C0 O11 1.229725 1_555
C0 O19 1.316891 1_555
C1 O10 1.229621 1_555
C1 O18 1.316551 1_555
C2 O9 1.229655 1_555
C2 O17 1.316982 1_555
C3 O8 1.229614 1_545
C3 O16 1.316688 1_545
C4 O7 1.229741 1_565
C4 O15 1.316655 1_565
C5 O6 1.229563 1_555
C5 O14 1.317097 1_555
C6 O5 1.229772 1_555
C6 O13 1.316531 1_555
C7 O4 1.229440 1_555
C7 O12 1.317044 1_555
O4 Rb0 3.023904 1_545
O4 Rb1 3.099995 1_655
O5 Rb1 3.024087 1_555
O5 Rb0 3.098578 1_555
O6 Rb0 3.023576 1_555
O6 Rb1 3.100179 1_655
O7 Rb1 3.023818 1_555
O7 Rb0 3.098723 1_545
O8 Rb0 3.023752 1_555
O8 Rb1 3.099007 1_565
O9 Rb1 3.023450 1_555
O9 Rb0 3.100223 1_455
O10 Rb0 3.023954 1_555
O10 Rb1 3.098521 1_555
O11 Rb1 3.023557 1_565
O11 Rb0 3.099774 1_455
