# generated using pymatgen
data_KZnSb
_symmetry_space_group_name_H-M   'P 1'
_cell_length_a   4.52584926
_cell_length_b   4.52585122
_cell_length_c   10.55980790
_cell_angle_alpha   90.00000000
_cell_angle_beta   90.00000000
_cell_angle_gamma   120.00000801
_symmetry_Int_Tables_number   1
_chemical_formula_structural   KZnSb
_chemical_formula_sum   'K2 Zn2 Sb2'
_cell_volume   187.32121787
_cell_formula_units_Z   2
loop_
 _symmetry_equiv_pos_site_id
 _symmetry_equiv_pos_as_xyz
  1  'x, y, z'
loop_
 _atom_site_type_symbol
 _atom_site_label
 _atom_site_symmetry_multiplicity
 _atom_site_fract_x
 _atom_site_fract_y
 _atom_site_fract_z
 _atom_site_occupancy
  K  K0  1  0.00000000  -0.00000000  0.00000000  1
  K  K1  1  0.00000000  -0.00000000  0.50000000  1
  Zn  Zn0  1  0.33333300  0.66666700  0.75000000  1
  Zn  Zn1  1  0.66666700  0.33333300  0.25000000  1
  Sb  Sb0  1  0.33333300  0.66666700  0.25000000  1
  Sb  Sb1  1  0.66666700  0.33333300  0.75000000  1
loop_
_geom_bond_atom_site_label_1
_geom_bond_atom_site_label_2
_geom_bond_distance
_geom_bond_site_symmetry_2
K0 Zn0 3.714446 1_544
K0 Sb1 3.714446 1_454
K0 Zn1 3.714446 1_455
K0 Sb0 3.714446 1_545
K0 Zn0 3.714448 1_444
K0 Sb1 3.714448 1_554
K0 Zn1 3.714448 1_555
K0 Sb0 3.714448 1_445
K0 Zn0 3.714449 1_554
K0 Sb0 3.714449 1_555
K0 Sb1 3.714449 1_444
K0 Zn1 3.714449 1_445
K1 Zn0 3.714446 1_545
K1 Sb1 3.714446 1_455
K1 Zn1 3.714446 1_455
K1 Sb0 3.714446 1_545
K1 Zn0 3.714448 1_445
K1 Sb0 3.714448 1_445
K1 Zn1 3.714448 1_555
K1 Sb1 3.714448 1_555
K1 Sb0 3.714449 1_555
K1 Sb1 3.714449 1_445
K1 Zn0 3.714449 1_555
K1 Zn1 3.714449 1_445
Sb0 Zn1 2.612997 1_455
Sb0 Zn1 2.612999 1_565
Sb0 Zn1 2.613006 1_555
Sb1 Zn0 2.612997 1_655
Sb1 Zn0 2.612999 1_545
Sb1 Zn0 2.613006 1_555
