# generated using pymatgen
data_Fe9(PO4)8
_symmetry_space_group_name_H-M   'P 1'
_cell_length_a   8.82180000
_cell_length_b   8.94020284
_cell_length_c   9.35225797
_cell_angle_alpha   111.46221879
_cell_angle_beta   101.80784955
_cell_angle_gamma   101.00497414
_symmetry_Int_Tables_number   1
_chemical_formula_structural   Fe9(PO4)8
_chemical_formula_sum   'Fe9 P8 O32'
_cell_volume   642.69790619
_cell_formula_units_Z   1
loop_
 _symmetry_equiv_pos_site_id
 _symmetry_equiv_pos_as_xyz
  1  'x, y, z'
loop_
 _atom_site_type_symbol
 _atom_site_label
 _atom_site_symmetry_multiplicity
 _atom_site_fract_x
 _atom_site_fract_y
 _atom_site_fract_z
 _atom_site_occupancy
  Fe  Fe0  1  0.79740900  0.26535200  0.06775200  1
  Fe  Fe1  1  0.28620900  0.14288600  0.57029800  1
  Fe  Fe2  1  0.31634000  0.70416500  0.45906300  1
  Fe  Fe3  1  0.00000000  0.50000000  0.50000000  1
  Fe  Fe4  1  0.71379100  0.85711400  0.42970200  1
  Fe  Fe5  1  0.68366000  0.29583500  0.54093700  1
  Fe  Fe6  1  0.50000000  0.50000000  0.00000000  1
  Fe  Fe7  1  0.20259100  0.73464800  0.93224800  1
  Fe  Fe8  1  0.00000000  0.00000000  0.00000000  1
  P  P0  1  0.39663400  0.96244400  0.29928000  1
  P  P1  1  0.83587800  0.61946500  0.90111500  1
  P  P2  1  0.16412200  0.38053500  0.09888500  1
  P  P3  1  0.66616100  0.45559100  0.27664500  1
  P  P4  1  0.93804800  0.12314100  0.34727100  1
  P  P5  1  0.33383900  0.54440900  0.72335500  1
  P  P6  1  0.60336600  0.03755600  0.70072000  1
  P  P7  1  0.06195200  0.87685900  0.65272900  1
  O  O0  1  0.19775800  0.49834300  0.28331100  1
  O  O1  1  0.12398200  0.17948200  0.41713800  1
  O  O2  1  0.89237200  0.12751200  0.17822500  1
  O  O3  1  0.13134500  0.74251300  0.54543800  1
  O  O4  1  0.71647800  0.13114600  0.63181400  1
  O  O5  1  0.18321400  0.20806000  0.07917100  1
  O  O6  1  0.86841900  0.94955600  0.34150700  1
  O  O7  1  0.98004100  0.35117200  0.01685300  1
  O  O8  1  0.69587700  0.06250700  0.86888800  1
  O  O9  1  0.55124200  0.91027100  0.29296200  1
  O  O10  1  0.37863200  0.58405500  0.59026700  1
  O  O11  1  0.14930600  0.52761800  0.70757600  1
  O  O12  1  0.10762800  0.87248800  0.82177500  1
  O  O13  1  0.72577100  0.52879100  0.96955500  1
  O  O14  1  0.28352200  0.86885400  0.36818600  1
  O  O15  1  0.30412300  0.93749300  0.13111200  1
  O  O16  1  0.80224200  0.50165700  0.71668900  1
  O  O17  1  0.85069400  0.47238200  0.29242400  1
  O  O18  1  0.01995900  0.64882800  0.98314700  1
  O  O19  1  0.81678600  0.79194000  0.92082900  1
  O  O20  1  0.55642000  0.84901400  0.57077500  1
  O  O21  1  0.13158100  0.05044400  0.65849300  1
  O  O22  1  0.27422900  0.47120900  0.03044500  1
  O  O23  1  0.41397200  0.68410900  0.89887900  1
  O  O24  1  0.44358000  0.15098600  0.42922500  1
  O  O25  1  0.87601800  0.82051800  0.58286200  1
  O  O26  1  0.86865500  0.25748700  0.45456200  1
  O  O27  1  0.62136800  0.41594500  0.40973300  1
  O  O28  1  0.58602800  0.31589100  0.10112100  1
  O  O29  1  0.37921900  0.38435000  0.72500300  1
  O  O30  1  0.62078100  0.61565000  0.27499700  1
  O  O31  1  0.44875800  0.08972900  0.70703800  1
loop_
_geom_bond_atom_site_label_1
_geom_bond_atom_site_label_2
_geom_bond_distance
_geom_bond_site_symmetry_2
Fe0 O7 1.876231 1_555
Fe0 O8 1.944201 1_554
Fe0 O28 2.058041 1_555
Fe0 O2 2.063850 1_555
Fe0 O17 2.116467 1_555
Fe1 O21 1.937268 1_555
Fe1 O31 1.967724 1_555
Fe1 O1 1.972228 1_555
Fe1 O29 1.994754 1_555
Fe1 O24 2.110557 1_555
Fe1 O14 2.479158 1_545
Fe2 O0 1.878845 1_555
Fe2 O10 1.968306 1_555
Fe2 O14 1.987898 1_555
Fe2 O3 1.995986 1_555
Fe2 O20 2.076390 1_555
Fe3 O11 2.010748 1_555
Fe3 O17 2.010748 1_455
Fe3 O3 2.095003 1_555
Fe3 O26 2.095003 1_455
Fe4 O6 1.937268 1_555
Fe4 O9 1.967724 1_555
Fe4 O25 1.972228 1_555
Fe4 O30 1.994754 1_555
Fe4 O20 2.110557 1_555
Fe4 O4 2.479158 1_565
Fe5 O16 1.878845 1_555
Fe5 O27 1.968306 1_555
Fe5 O4 1.987898 1_555
Fe5 O26 1.995986 1_555
Fe5 O24 2.076390 1_555
Fe6 O13 2.050418 1_554
Fe6 O22 2.050418 1_555
Fe6 O30 2.308835 1_555
Fe6 O29 2.308835 1_554
Fe6 O28 2.345597 1_555
Fe6 O23 2.345597 1_554
Fe7 O18 1.876231 1_555
Fe7 O15 1.944201 1_556
Fe7 O23 2.058041 1_555
Fe7 O12 2.063850 1_555
Fe7 O11 2.116467 1_555
Fe8 O19 1.993766 1_444
Fe8 O5 1.993766 1_555
Fe8 O2 2.156331 1_455
Fe8 O12 2.156331 1_544
O0 P2 1.585606 1_555
O1 P4 1.541506 1_455
O2 P4 1.566473 1_555
O3 P7 1.573014 1_555
O4 P6 1.565269 1_555
O5 P2 1.530957 1_555
O6 P4 1.532922 1_565
O7 P2 1.573089 1_655
O8 P6 1.528990 1_555
O9 P0 1.528737 1_555
O10 P5 1.517116 1_555
O11 P5 1.576891 1_555
O12 P7 1.566473 1_555
O13 P1 1.530965 1_555
O14 P0 1.565269 1_555
O15 P0 1.528990 1_555
O16 P1 1.585606 1_555
O17 P3 1.576891 1_555
O18 P1 1.573089 1_455
O19 P1 1.530957 1_555
O20 P6 1.586868 1_565
O21 P7 1.532922 1_545
O22 P2 1.530965 1_555
O23 P5 1.562684 1_555
O24 P0 1.586868 1_545
O25 P7 1.541506 1_655
O26 P4 1.573014 1_555
O27 P3 1.517116 1_555
O28 P3 1.562684 1_555
O29 P5 1.562202 1_555
O30 P3 1.562202 1_555
O31 P6 1.528737 1_555
