# generated using pymatgen
data_Li3Mn8(OF3)4
_symmetry_space_group_name_H-M   'P 1'
_cell_length_a   6.19910516
_cell_length_b   6.39713077
_cell_length_c   10.36779442
_cell_angle_alpha   89.00466051
_cell_angle_beta   107.35079171
_cell_angle_gamma   118.94322991
_symmetry_Int_Tables_number   1
_chemical_formula_structural   Li3Mn8(OF3)4
_chemical_formula_sum   'Li3 Mn8 O4 F12'
_cell_volume   339.43584411
_cell_formula_units_Z   1
loop_
 _symmetry_equiv_pos_site_id
 _symmetry_equiv_pos_as_xyz
  1  'x, y, z'
loop_
 _atom_site_type_symbol
 _atom_site_label
 _atom_site_symmetry_multiplicity
 _atom_site_fract_x
 _atom_site_fract_y
 _atom_site_fract_z
 _atom_site_occupancy
  Li  Li0  1  0.99985300  0.99987700  0.99995500  1
  Li  Li1  1  0.61277700  0.80424800  0.42134000  1
  Li  Li2  1  0.38710200  0.19553900  0.57873600  1
  Mn  Mn0  1  0.98669700  0.24882300  0.72421100  1
  Mn  Mn1  1  0.49995300  0.50002700  0.99980800  1
  Mn  Mn2  1  0.99987100  0.50004500  0.99972400  1
  Mn  Mn3  1  0.01479900  0.75343900  0.27673300  1
  Mn  Mn4  1  0.50344200  0.25843400  0.24796900  1
  Mn  Mn5  1  0.00270000  0.25848000  0.24789000  1
  Mn  Mn6  1  0.49602400  0.74120700  0.75173600  1
  Mn  Mn7  1  0.99705100  0.74130500  0.75184900  1
  O  O0  1  0.23515200  0.35920600  0.11256600  1
  O  O1  1  0.76458500  0.64060100  0.88730100  1
  O  O2  1  0.77309500  0.41545100  0.13171600  1
  O  O3  1  0.22851000  0.58615600  0.86917300  1
  F  F0  1  0.73684800  0.11526600  0.35758900  1
  F  F1  1  0.26303700  0.88466600  0.64232200  1
  F  F2  1  0.25034000  0.12499600  0.37617300  1
  F  F3  1  0.74949100  0.87501700  0.62380700  1
  F  F4  1  0.23321800  0.89172600  0.13438400  1
  F  F5  1  0.79076200  0.89022700  0.13356100  1
  F  F6  1  0.76612200  0.10793100  0.86555700  1
  F  F7  1  0.20897100  0.10852100  0.86637000  1
  F  F8  1  0.73119700  0.61027800  0.37058700  1
  F  F9  1  0.25052100  0.61113900  0.37036900  1
  F  F10  1  0.26874800  0.38871900  0.62918300  1
  F  F11  1  0.74913500  0.38867400  0.62939200  1
loop_
_geom_bond_atom_site_label_1
_geom_bond_atom_site_label_2
_geom_bond_distance
_geom_bond_site_symmetry_2
Li0 O1 2.146273 1_555
Li0 O0 2.146367 1_666
Mn0 O3 2.191044 1_655
Mn1 O3 2.116972 1_555
Mn1 O2 2.123658 1_556
Mn1 O1 2.130137 1_555
Mn1 O0 2.132968 1_556
Mn2 O3 2.122974 1_655
Mn2 O1 2.124479 1_555
Mn2 O0 2.127272 1_656
Mn2 O2 2.127727 1_556
Mn3 O2 2.194119 1_455
Mn4 O0 2.183146 1_555
Mn4 O2 2.188702 1_555
Mn5 O0 2.176199 1_555
Mn5 O2 2.191764 1_455
Mn6 O1 2.184341 1_555
Mn6 O3 2.187850 1_555
Mn7 O1 2.177377 1_555
Mn7 O3 2.195192 1_655
F0 Li1 1.939951 1_545
F0 Mn5 2.114074 1_655
F0 Mn4 2.118883 1_555
F1 Li2 1.938429 1_565
F1 Mn7 2.113365 1_455
F1 Mn6 2.117690 1_555
F2 Li2 1.983338 1_555
F2 Mn3 2.161640 1_545
F2 Mn4 2.205753 1_555
F2 Mn5 2.205972 1_555
F3 Li1 1.982463 1_555
F3 Mn0 2.175834 1_565
F3 Mn6 2.205120 1_555
F3 Mn7 2.205694 1_555
F4 Li0 2.060733 1_454
F4 Mn3 2.186596 1_555
F4 Mn4 2.193617 1_565
F4 Mn2 2.393478 1_454
F5 Li0 2.061071 1_554
F5 Mn3 2.190772 1_655
F5 Mn5 2.203015 1_665
F5 Mn1 2.382749 1_554
F6 Li0 2.061678 1_545
F6 Mn0 2.187694 1_555
F6 Mn6 2.194426 1_545
F6 Mn2 2.393261 1_555
F7 Li0 2.060850 1_445
F7 Mn0 2.194589 1_455
F7 Mn7 2.198543 1_445
F7 Mn1 2.387396 1_555
F8 Li1 1.868215 1_555
F8 Mn3 2.075431 1_655
F8 Mn4 2.151438 1_555
F9 Li1 1.864974 1_555
F9 Mn3 2.077761 1_555
F9 Mn5 2.154907 1_555
F10 Li2 1.862245 1_555
F10 Mn0 2.076301 1_455
F10 Mn6 2.154288 1_555
F11 Li2 1.864096 1_555
F11 Mn0 2.077674 1_555
F11 Mn7 2.154707 1_555
