# generated using pymatgen
data_Li4Fe(TeO4)3
_symmetry_space_group_name_H-M   'P 1'
_cell_length_a   8.63835300
_cell_length_b   5.04844700
_cell_length_c   5.22772534
_cell_angle_alpha   88.96474042
_cell_angle_beta   90.00000000
_cell_angle_gamma   90.00000000
_symmetry_Int_Tables_number   1
_chemical_formula_structural   Li4Fe(TeO4)3
_chemical_formula_sum   'Li4 Fe1 Te3 O12'
_cell_volume   227.94528500
_cell_formula_units_Z   1
loop_
 _symmetry_equiv_pos_site_id
 _symmetry_equiv_pos_as_xyz
  1  'x, y, z'
loop_
 _atom_site_type_symbol
 _atom_site_label
 _atom_site_symmetry_multiplicity
 _atom_site_fract_x
 _atom_site_fract_y
 _atom_site_fract_z
 _atom_site_occupancy
  Li  Li0  1  0.28752000  0.00000000  0.00000000  1
  Li  Li1  1  0.15159100  0.50000000  0.00000000  1
  Li  Li2  1  0.70067200  0.00000000  0.50000000  1
  Li  Li3  1  0.82196500  0.50000000  0.50000000  1
  Fe  Fe0  1  0.89649300  0.00000000  0.00000000  1
  Te  Te0  1  0.39312100  0.50000000  0.50000000  1
  Te  Te1  1  0.59894900  0.50000000  0.00000000  1
  Te  Te2  1  0.07481300  0.00000000  0.50000000  1
  O  O0  1  0.74367700  0.26476700  0.84520800  1
  O  O1  1  0.42344400  0.29359100  0.83798600  1
  O  O2  1  0.07899200  0.19927100  0.80988800  1
  O  O3  1  0.57206700  0.70706100  0.67744500  1
  O  O4  1  0.91228700  0.79880600  0.67195100  1
  O  O5  1  0.23643000  0.76549100  0.66571600  1
  O  O6  1  0.23643000  0.23450900  0.33428400  1
  O  O7  1  0.91228700  0.20119400  0.32804900  1
  O  O8  1  0.57206700  0.29293900  0.32255500  1
  O  O9  1  0.07899200  0.80072900  0.19011200  1
  O  O10  1  0.42344400  0.70640900  0.16201400  1
  O  O11  1  0.74367700  0.73523300  0.15479200  1
loop_
_geom_bond_atom_site_label_1
_geom_bond_atom_site_label_2
_geom_bond_distance
_geom_bond_site_symmetry_2
Li0 O10 2.060944 1_545
Li0 O1 2.060944 1_554
Li0 O6 2.173726 1_555
Li0 O5 2.173726 1_544
Li0 O9 2.282212 1_545
Li0 O2 2.282212 1_554
Li1 O9 1.934048 1_555
Li1 O2 1.934048 1_554
Li1 O6 2.302786 1_555
Li1 O5 2.302786 1_554
Li2 O8 2.057235 1_555
Li2 O3 2.057235 1_545
Li2 O7 2.268994 1_555
Li2 O4 2.268994 1_545
Li2 O0 2.295345 1_555
Li2 O11 2.295345 1_545
Li3 O4 1.934270 1_555
Li3 O7 1.934270 1_555
Li3 O0 2.246549 1_555
Li3 O11 2.246549 1_555
Li3 O3 2.578428 1_555
Li3 O8 2.578428 1_555
Fe0 O7 2.013528 1_555
Fe0 O4 2.013528 1_544
Fe0 O0 2.035929 1_554
Fe0 O11 2.035929 1_545
Fe0 O2 2.109264 1_654
Fe0 O9 2.109264 1_645
O0 Te1 1.913865 1_556
O1 Te1 2.033121 1_556
O1 Te0 2.051796 1_555
O2 Te2 1.922675 1_555
O3 Te1 1.981496 1_556
O3 Te0 2.092311 1_555
O4 Te2 1.943663 1_665
O5 Te2 2.015983 1_565
O5 Te0 2.102622 1_555
O6 Te2 2.015983 1_555
O6 Te0 2.102622 1_555
O7 Te2 1.943663 1_655
O8 Te1 1.981496 1_555
O8 Te0 2.092311 1_555
O9 Te2 1.922675 1_565
O10 Te1 2.033121 1_555
O10 Te0 2.051796 1_555
O11 Te1 1.913865 1_555
