# generated using pymatgen
data_Fe2(CO3)3
_symmetry_space_group_name_H-M   'P 1'
_cell_length_a   7.63148901
_cell_length_b   7.63148901
_cell_length_c   7.63148831
_cell_angle_alpha   109.07792927
_cell_angle_beta   109.07792927
_cell_angle_gamma   109.07792998
_symmetry_Int_Tables_number   1
_chemical_formula_structural   Fe2(CO3)3
_chemical_formula_sum   'Fe4 C6 O18'
_cell_volume   347.03421083
_cell_formula_units_Z   2
loop_
 _symmetry_equiv_pos_site_id
 _symmetry_equiv_pos_as_xyz
  1  'x, y, z'
loop_
 _atom_site_type_symbol
 _atom_site_label
 _atom_site_symmetry_multiplicity
 _atom_site_fract_x
 _atom_site_fract_y
 _atom_site_fract_z
 _atom_site_occupancy
  Fe  Fe0  1  0.54123700  0.04155400  0.17074400  1
  Fe  Fe1  1  0.04155400  0.17074400  0.54123700  1
  Fe  Fe2  1  0.45905200  0.45905200  0.45905200  1
  Fe  Fe3  1  0.17074400  0.54123700  0.04155400  1
  C  C0  1  0.25988400  0.17498800  0.94224700  1
  C  C1  1  0.94224700  0.25988400  0.17498800  1
  C  C2  1  0.80642400  0.41258800  0.59878400  1
  C  C3  1  0.41258800  0.59878400  0.80642400  1
  C  C4  1  0.59878400  0.80642400  0.41258800  1
  C  C5  1  0.17498800  0.94224700  0.25988400  1
  O  O0  1  0.35837000  0.06746300  0.94455200  1
  O  O1  1  0.77586600  0.08454800  0.10884900  1
  O  O2  1  0.08454800  0.10884900  0.77586600  1
  O  O3  1  0.35385000  0.10777800  0.32002800  1
  O  O4  1  0.98058000  0.40861200  0.70280200  1
  O  O5  1  0.73214900  0.34612400  0.39617200  1
  O  O6  1  0.71109000  0.47775400  0.68919600  1
  O  O7  1  0.94455200  0.35837000  0.06746300  1
  O  O8  1  0.34612400  0.39617200  0.73214900  1
  O  O9  1  0.32002800  0.35385000  0.10777800  1
  O  O10  1  0.10777800  0.32002800  0.35385000  1
  O  O11  1  0.40861200  0.70280200  0.98058000  1
  O  O12  1  0.68919600  0.71109000  0.47775400  1
  O  O13  1  0.47775400  0.68919600  0.71109000  1
  O  O14  1  0.39617200  0.73214900  0.34612400  1
  O  O15  1  0.70280200  0.98058000  0.40861200  1
  O  O16  1  0.06746300  0.94455200  0.35837000  1
  O  O17  1  0.10884900  0.77586600  0.08454800  1
loop_
_geom_bond_atom_site_label_1
_geom_bond_atom_site_label_2
_geom_bond_distance
_geom_bond_site_symmetry_2
Fe0 O0 1.948098 1_554
Fe0 O1 1.951168 1_555
Fe0 O5 2.004647 1_555
Fe0 O15 2.120409 1_545
Fe0 O11 2.165755 1_544
Fe0 O3 2.181611 1_555
Fe1 O16 1.948098 1_545
Fe1 O2 1.951168 1_555
Fe1 O8 2.004647 1_555
Fe1 O4 2.120409 1_455
Fe1 O15 2.165755 1_445
Fe1 O10 2.181611 1_555
Fe2 O13 2.062280 1_555
Fe2 O6 2.062280 1_555
Fe2 O12 2.062280 1_555
Fe2 O9 2.265742 1_555
Fe2 O3 2.265742 1_555
Fe2 O10 2.265742 1_555
Fe3 O7 1.948098 1_455
Fe3 O17 1.951168 1_555
Fe3 O14 2.004647 1_555
Fe3 O11 2.120409 1_554
Fe3 O4 2.165755 1_454
Fe3 O9 2.181611 1_555
C0 O0 1.281605 1_555
C0 O2 1.298588 1_555
C0 O9 1.324335 1_556
C1 O7 1.281604 1_555
C1 O1 1.298588 1_555
C1 O10 1.324335 1_655
C2 O6 1.262169 1_555
C2 O5 1.302237 1_555
C2 O4 1.322842 1_555
C3 O13 1.262169 1_555
C3 O8 1.302237 1_555
C3 O11 1.322842 1_555
C4 O12 1.262169 1_555
C4 O14 1.302237 1_555
C4 O15 1.322842 1_555
C5 O16 1.281605 1_555
C5 O17 1.298588 1_555
C5 O3 1.324335 1_565
