# generated using pymatgen
data_Na8Co5O14
_symmetry_space_group_name_H-M   'P 1'
_cell_length_a   8.26357600
_cell_length_b   8.46594035
_cell_length_c   10.32211668
_cell_angle_alpha   103.75275790
_cell_angle_beta   103.28577393
_cell_angle_gamma   112.55229055
_symmetry_Int_Tables_number   1
_chemical_formula_structural   Na8Co5O14
_chemical_formula_sum   'Na16 Co10 O28'
_cell_volume   604.89395743
_cell_formula_units_Z   2
loop_
 _symmetry_equiv_pos_site_id
 _symmetry_equiv_pos_as_xyz
  1  'x, y, z'
loop_
 _atom_site_type_symbol
 _atom_site_label
 _atom_site_symmetry_multiplicity
 _atom_site_fract_x
 _atom_site_fract_y
 _atom_site_fract_z
 _atom_site_occupancy
  Na  Na0  1  0.44197100  0.66606900  0.01214400  1
  Na  Na1  1  0.00000000  0.00000000  0.00000000  1
  Na  Na2  1  0.15120800  0.64775400  0.15661100  1
  Na  Na3  1  0.29593900  0.36459400  0.16036500  1
  Na  Na4  1  0.37267200  0.01534200  0.10737900  1
  Na  Na5  1  0.70912100  0.41638500  0.29716200  1
  Na  Na6  1  0.10351900  0.47445000  0.38209000  1
  Na  Na7  1  0.56061200  0.12393500  0.43210200  1
  Na  Na8  1  0.50000000  0.50000000  0.50000000  1
  Na  Na9  1  0.43938800  0.87606500  0.56789800  1
  Na  Na10  1  0.89648100  0.52555000  0.61791000  1
  Na  Na11  1  0.29087900  0.58361500  0.70283800  1
  Na  Na12  1  0.62732800  0.98465800  0.89262100  1
  Na  Na13  1  0.70406100  0.63540600  0.83963500  1
  Na  Na14  1  0.84879200  0.35224600  0.84338900  1
  Na  Na15  1  0.55802900  0.33393100  0.98785600  1
  Co  Co0  1  0.86295200  0.74763600  0.17081300  1
  Co  Co1  1  0.79437400  0.06644500  0.22582100  1
  Co  Co2  1  0.60999900  0.76556400  0.33892200  1
  Co  Co3  1  0.16923300  0.10530200  0.33324800  1
  Co  Co4  1  0.03380600  0.83644400  0.47129800  1
  Co  Co5  1  0.96619400  0.16355600  0.52870200  1
  Co  Co6  1  0.83076700  0.89469800  0.66675200  1
  Co  Co7  1  0.39000100  0.23443600  0.66107800  1
  Co  Co8  1  0.20562600  0.93355500  0.77417900  1
  Co  Co9  1  0.13704800  0.25236400  0.82918700  1
  O  O0  1  0.83702000  0.56776400  0.02281600  1
  O  O1  1  0.74990800  0.85657000  0.06474500  1
  O  O2  1  0.62868100  0.60391700  0.19038200  1
  O  O3  1  0.56637600  0.91101800  0.24035600  1
  O  O4  1  0.69365600  0.16787300  0.12533000  1
  O  O5  1  0.10470300  0.90080000  0.18196500  1
  O  O6  1  0.97896200  0.66153500  0.30824000  1
  O  O7  1  0.92733500  0.96251200  0.35215800  1
  O  O8  1  0.39089800  0.64295200  0.34966400  1
  O  O9  1  0.04111400  0.19669800  0.22850300  1
  O  O10  1  0.39290900  0.23477500  0.31128800  1
  O  O11  1  0.73702000  0.98939300  0.52848800  1
  O  O12  1  0.79083200  0.71335200  0.48382100  1
  O  O13  1  0.85328300  0.25457800  0.40980400  1
  O  O14  1  0.14671700  0.74542200  0.59019600  1
  O  O15  1  0.20916800  0.28664800  0.51617900  1
  O  O16  1  0.26298000  0.01060700  0.47151200  1
  O  O17  1  0.60709100  0.76522500  0.68871200  1
  O  O18  1  0.95888600  0.80330200  0.77149700  1
  O  O19  1  0.60910200  0.35704800  0.65033600  1
  O  O20  1  0.07266500  0.03748800  0.64784200  1
  O  O21  1  0.02103800  0.33846500  0.69176000  1
  O  O22  1  0.89529700  0.09920000  0.81803500  1
  O  O23  1  0.30634400  0.83212700  0.87467000  1
  O  O24  1  0.43362400  0.08898200  0.75964400  1
  O  O25  1  0.37131900  0.39608300  0.80961800  1
  O  O26  1  0.25009200  0.14343000  0.93525500  1
  O  O27  1  0.16298000  0.43223600  0.97718400  1
loop_
_geom_bond_atom_site_label_1
_geom_bond_atom_site_label_2
_geom_bond_distance
_geom_bond_site_symmetry_2
Na0 O27 2.267476 1_554
Na0 O1 2.274161 1_555
Na0 O2 2.412580 1_555
Na0 O3 2.415633 1_555
Na0 O25 2.465552 1_554
Na0 O23 2.583067 1_554
Na1 O1 2.299540 1_445
Na1 O26 2.299540 1_554
Na1 O5 2.354192 1_545
Na1 O22 2.354192 1_454
Na1 O9 2.404545 1_555
Na1 O18 2.404545 1_444
Na2 O5 2.284000 1_555
Na2 O27 2.319676 1_554
Na2 O6 2.356629 1_455
Na2 O0 2.380214 1_455
Na2 O8 2.486347 1_555
Na3 O27 2.269999 1_554
Na3 O10 2.278754 1_555
Na3 O8 2.382147 1_555
Na3 O9 2.410278 1_555
Na3 O26 2.455837 1_554
Na3 O2 2.607346 1_555
Na4 O23 2.333969 1_544
Na4 O10 2.376961 1_555
Na4 O4 2.402187 1_555
Na4 O3 2.424307 1_545
Na4 O5 2.434744 1_545
Na4 O26 2.507984 1_554
Na5 O2 2.341376 1_555
Na5 O4 2.346043 1_555
Na5 O6 2.347943 1_555
Na5 O13 2.453560 1_555
Na5 O12 2.507123 1_555
Na5 O10 2.532427 1_555
Na6 O9 2.286949 1_555
Na6 O13 2.322775 1_455
Na6 O6 2.369178 1_455
Na6 O8 2.404244 1_555
Na6 O14 2.584715 1_555
Na6 O15 2.600262 1_555
Na7 O10 2.261803 1_555
Na7 O13 2.334634 1_555
Na7 O11 2.357568 1_545
Na7 O3 2.362553 1_545
Na7 O16 2.443469 1_555
Na7 O19 2.448374 1_555
Na8 O17 2.285423 1_555
Na8 O10 2.285423 1_555
Na8 O19 2.402571 1_555
Na8 O8 2.402571 1_555
Na8 O15 2.462605 1_555
Na8 O12 2.462605 1_555
Na9 O17 2.261803 1_555
Na9 O14 2.334634 1_555
Na9 O16 2.357568 1_565
Na9 O24 2.362553 1_565
Na9 O11 2.443469 1_555
Na9 O8 2.448374 1_555
Na10 O18 2.286949 1_555
Na10 O14 2.322775 1_655
Na10 O21 2.369178 1_655
Na10 O19 2.404244 1_555
Na10 O13 2.584715 1_555
Na10 O12 2.600262 1_555
Na11 O25 2.341376 1_555
Na11 O23 2.346043 1_555
Na11 O21 2.347943 1_555
Na11 O14 2.453560 1_555
Na11 O15 2.507123 1_555
Na11 O17 2.532427 1_555
Na12 O4 2.333969 1_566
Na12 O17 2.376961 1_555
Na12 O23 2.402187 1_555
Na12 O24 2.424307 1_565
Na12 O22 2.434744 1_565
Na12 O1 2.507984 1_556
Na13 O0 2.269999 1_556
Na13 O17 2.278754 1_555
Na13 O19 2.382147 1_555
Na13 O18 2.410278 1_555
Na13 O1 2.455837 1_556
Na13 O25 2.607346 1_555
Na14 O22 2.284000 1_555
Na14 O0 2.319676 1_556
Na14 O21 2.356629 1_655
Na14 O27 2.380214 1_655
Na14 O19 2.486347 1_555
Na15 O0 2.267476 1_556
Na15 O26 2.274161 1_555
Na15 O25 2.412580 1_555
Na15 O24 2.415633 1_555
Na15 O2 2.465552 1_556
Na15 O4 2.583067 1_556
Co0 O0 1.786522 1_555
Co0 O5 1.876671 1_655
Co0 O1 1.895428 1_555
Co0 O2 1.938761 1_555
Co0 O6 1.966017 1_555
Co0 O7 2.068094 1_555
Co1 O4 1.755246 1_555
Co1 O9 1.899735 1_655
Co1 O3 1.904164 1_545
Co1 O1 1.967281 1_545
Co1 O13 1.980534 1_555
Co1 O7 2.076195 1_545
Co2 O8 1.753084 1_555
Co2 O3 1.857159 1_555
Co2 O2 1.876343 1_555
Co2 O11 2.070905 1_555
Co2 O12 2.111673 1_555
Co2 O7 2.459378 1_555
Co3 O5 1.828639 1_545
Co3 O9 1.840806 1_555
Co3 O10 1.850927 1_555
Co3 O16 1.947277 1_555
Co3 O7 1.983227 1_445
Co3 O15 1.994493 1_555
Co4 O6 1.783412 1_455
Co4 O14 1.856193 1_555
Co4 O16 1.901357 1_565
Co4 O12 1.926774 1_455
Co4 O20 2.039098 1_565
Co4 O7 2.067025 1_455
Co5 O21 1.783412 1_655
Co5 O13 1.856193 1_555
Co5 O11 1.901357 1_545
Co5 O15 1.926774 1_655
Co5 O7 2.039098 1_545
Co5 O20 2.067025 1_655
Co6 O22 1.828639 1_565
Co6 O18 1.840806 1_555
Co6 O17 1.850927 1_555
Co6 O11 1.947277 1_555
Co6 O20 1.983227 1_665
Co6 O12 1.994493 1_555
Co7 O19 1.753084 1_555
Co7 O24 1.857159 1_555
Co7 O25 1.876343 1_555
Co7 O16 2.070905 1_555
Co7 O15 2.111673 1_555
Co7 O20 2.459378 1_555
Co8 O23 1.755246 1_555
Co8 O18 1.899735 1_455
Co8 O24 1.904164 1_565
Co8 O26 1.967281 1_565
Co8 O14 1.980534 1_555
Co8 O20 2.076195 1_565
Co9 O27 1.786522 1_555
Co9 O22 1.876671 1_455
Co9 O26 1.895428 1_555
Co9 O25 1.938761 1_555
Co9 O21 1.966017 1_555
Co9 O20 2.068094 1_555
