# generated using pymatgen
data_Mn(CoO2)2
_symmetry_space_group_name_H-M   'P 1'
_cell_length_a   5.79979300
_cell_length_b   5.85743159
_cell_length_c   10.11989925
_cell_angle_alpha   89.16675613
_cell_angle_beta   106.22685785
_cell_angle_gamma   118.81208752
_symmetry_Int_Tables_number   1
_chemical_formula_structural   Mn(CoO2)2
_chemical_formula_sum   'Mn4 Co8 O16'
_cell_volume   286.26826330
_cell_formula_units_Z   4
loop_
 _symmetry_equiv_pos_site_id
 _symmetry_equiv_pos_as_xyz
  1  'x, y, z'
loop_
 _atom_site_type_symbol
 _atom_site_label
 _atom_site_symmetry_multiplicity
 _atom_site_fract_x
 _atom_site_fract_y
 _atom_site_fract_z
 _atom_site_occupancy
  Mn  Mn0  1  0.99117300  0.74161900  0.74647300  1
  Mn  Mn1  1  0.12549500  0.81982800  0.43882800  1
  Mn  Mn2  1  0.00866600  0.26100900  0.25453100  1
  Mn  Mn3  1  0.50126200  0.99996600  0.00037700  1
  Co  Co0  1  0.12161000  0.31109500  0.93965200  1
  Co  Co1  1  0.86993500  0.18277600  0.56159600  1
  Co  Co2  1  0.50328600  0.75180900  0.25123000  1
  Co  Co3  1  0.49368400  0.74364100  0.74690000  1
  Co  Co4  1  0.49643500  0.24837200  0.74852100  1
  Co  Co5  1  0.50501400  0.25640600  0.25270800  1
  Co  Co6  1  0.49837200  0.50010300  0.49913000  1
  Co  Co7  1  0.87888600  0.68812300  0.06012800  1
  O  O0  1  0.70704900  0.36614700  0.62083500  1
  O  O1  1  0.72567700  0.83184800  0.62523300  1
  O  O2  1  0.24632100  0.63707900  0.85864300  1
  O  O3  1  0.28064800  0.12561100  0.87663200  1
  O  O4  1  0.70997300  0.09451700  0.85953000  1
  O  O5  1  0.27146800  0.89518600  0.64894900  1
  O  O6  1  0.70323800  0.59511800  0.36640100  1
  O  O7  1  0.28198400  0.40055200  0.14515500  1
  O  O8  1  0.72222700  0.60208000  0.85239000  1
  O  O9  1  0.28666100  0.40002600  0.63158200  1
  O  O10  1  0.29087200  0.90635900  0.14003900  1
  O  O11  1  0.72532800  0.10396200  0.35666300  1
  O  O12  1  0.72531000  0.87818200  0.12563600  1
  O  O13  1  0.75733300  0.36430700  0.14350200  1
  O  O14  1  0.27262800  0.17386800  0.37161300  1
  O  O15  1  0.29046200  0.62996900  0.37567500  1
loop_
_geom_bond_atom_site_label_1
_geom_bond_atom_site_label_2
_geom_bond_distance
_geom_bond_site_symmetry_2
Mn0 O2 1.941062 1_655
Mn0 O1 1.966069 1_555
Mn0 O5 1.971621 1_655
Mn0 O8 1.982447 1_555
Mn0 O0 2.141517 1_555
Mn0 O3 2.196153 1_665
Mn1 O15 1.987108 1_555
Mn1 O14 2.017188 1_565
Mn1 O5 2.023403 1_555
Mn1 O6 2.045763 1_455
Mn2 O13 1.915306 1_455
Mn2 O14 1.931315 1_555
Mn2 O11 2.019760 1_455
Mn2 O7 2.027685 1_555
Mn2 O15 2.097010 1_555
Mn2 O12 2.183008 1_445
Mn3 O3 1.931930 1_564
Mn3 O12 1.936696 1_555
Mn3 O10 2.020794 1_555
Mn3 O4 2.024542 1_564
Mn3 O2 2.153072 1_554
Mn3 O13 2.165796 1_565
Co0 O3 1.937210 1_555
Co0 O2 1.948288 1_555
Co0 O7 1.986347 1_556
Co0 O4 1.998822 1_455
Co1 O0 1.928419 1_555
Co1 O11 1.974877 1_555
Co1 O1 1.986186 1_545
Co1 O9 2.016802 1_655
Co2 O15 1.900650 1_555
Co2 O7 1.944662 1_555
Co2 O6 1.945524 1_555
Co2 O11 1.946102 1_565
Co2 O12 1.946820 1_555
Co2 O10 1.968243 1_555
Co3 O2 1.936399 1_555
Co3 O5 1.947993 1_555
Co3 O9 1.952023 1_555
Co3 O8 1.956261 1_555
Co3 O1 1.957206 1_555
Co3 O4 1.969963 1_565
Co4 O0 1.918774 1_555
Co4 O5 1.929160 1_545
Co4 O3 1.943317 1_555
Co4 O8 1.947086 1_555
Co4 O9 1.968815 1_555
Co4 O4 1.968953 1_555
Co5 O6 1.926217 1_555
Co5 O13 1.937631 1_555
Co5 O14 1.938977 1_555
Co5 O7 1.951895 1_555
Co5 O11 1.964160 1_555
Co5 O10 1.966884 1_545
Co6 O15 1.899493 1_555
Co6 O0 1.910895 1_555
Co6 O14 1.935706 1_555
Co6 O6 1.938696 1_555
Co6 O1 1.950676 1_555
Co6 O9 1.962447 1_555
Co7 O12 1.944076 1_555
Co7 O13 1.950258 1_555
Co7 O10 2.000869 1_655
Co7 O8 2.005258 1_554
