# generated using pymatgen
data_Li5Mn2Fe(BO3)4
_symmetry_space_group_name_H-M   'P 1'
_cell_length_a   9.15901400
_cell_length_b   5.29730200
_cell_length_c   10.96699568
_cell_angle_alpha   62.89008166
_cell_angle_beta   90.00000000
_cell_angle_gamma   90.00000000
_symmetry_Int_Tables_number   1
_chemical_formula_structural   Li5Mn2Fe(BO3)4
_chemical_formula_sum   'Li10 Mn4 Fe2 B8 O24'
_cell_volume   473.63794198
_cell_formula_units_Z   2
loop_
 _symmetry_equiv_pos_site_id
 _symmetry_equiv_pos_as_xyz
  1  'x, y, z'
loop_
 _atom_site_type_symbol
 _atom_site_label
 _atom_site_symmetry_multiplicity
 _atom_site_fract_x
 _atom_site_fract_y
 _atom_site_fract_z
 _atom_site_occupancy
  Li  Li0  1  0.23531900  0.48921700  0.34863700  1
  Li  Li1  1  0.91870800  0.45821600  0.37064100  1
  Li  Li2  1  0.24533500  0.93697300  0.87920300  1
  Li  Li3  1  0.41862800  0.54567000  0.12706700  1
  Li  Li4  1  0.73372400  0.50023800  0.16121500  1
  Li  Li5  1  0.75466500  0.93697300  0.37920300  1
  Li  Li6  1  0.76468100  0.48921700  0.84863700  1
  Li  Li7  1  0.08129200  0.45821600  0.87064100  1
  Li  Li8  1  0.58137200  0.54567000  0.62706700  1
  Li  Li9  1  0.26627600  0.50023800  0.66121500  1
  Mn  Mn0  1  0.57100000  0.97207900  0.88047600  1
  Mn  Mn1  1  0.08063900  0.02522300  0.62322500  1
  Mn  Mn2  1  0.42900000  0.97207900  0.38047600  1
  Mn  Mn3  1  0.91936100  0.02522300  0.12322500  1
  Fe  Fe0  1  0.74499900  0.06843600  0.60995000  1
  Fe  Fe1  1  0.25500100  0.06843600  0.10995000  1
  B  B0  1  0.57476100  0.45298700  0.38196800  1
  B  B1  1  0.91482000  0.96915400  0.86485200  1
  B  B2  1  0.07467300  0.54562400  0.12106500  1
  B  B3  1  0.41034800  0.03565200  0.63157900  1
  B  B4  1  0.08518000  0.96915400  0.36485200  1
  B  B5  1  0.42523900  0.45298700  0.88196800  1
  B  B6  1  0.58965200  0.03565200  0.13157900  1
  B  B7  1  0.92532700  0.54562400  0.62106500  1
  O  O0  1  0.58548600  0.82117400  0.09103300  1
  O  O1  1  0.91672400  0.32432600  0.58514800  1
  O  O2  1  0.20316000  0.67947800  0.12434600  1
  O  O3  1  0.93922500  0.61490100  0.15335300  1
  O  O4  1  0.54131300  0.12833800  0.66639500  1
  O  O5  1  0.28297900  0.15883000  0.64301200  1
  O  O6  1  0.43908200  0.38781100  0.34629500  1
  O  O7  1  0.69871300  0.29091800  0.38931600  1
  O  O8  1  0.78344500  0.86476100  0.84322200  1
  O  O9  1  0.04595400  0.88060800  0.83101000  1
  O  O10  1  0.08425600  0.17030800  0.41481900  1
  O  O11  1  0.41119200  0.67907800  0.91217200  1
  O  O12  1  0.08327600  0.32432600  0.08514800  1
  O  O13  1  0.41451400  0.82117400  0.59103300  1
  O  O14  1  0.45868700  0.12833800  0.16639500  1
  O  O15  1  0.71702100  0.15883000  0.14301200  1
  O  O16  1  0.79684000  0.67947800  0.62434600  1
  O  O17  1  0.06077500  0.61490100  0.65335300  1
  O  O18  1  0.21655500  0.86476100  0.34322200  1
  O  O19  1  0.95404600  0.88060800  0.33101000  1
  O  O20  1  0.56091800  0.38781100  0.84629500  1
  O  O21  1  0.30128700  0.29091800  0.88931600  1
  O  O22  1  0.58880800  0.67907800  0.41217200  1
  O  O23  1  0.91574400  0.17030800  0.91481900  1
loop_
_geom_bond_atom_site_label_1
_geom_bond_atom_site_label_2
_geom_bond_distance
_geom_bond_site_symmetry_2
Li0 O6 1.945444 1_555
Li0 O18 1.970528 1_555
Li0 O10 2.043901 1_555
Li0 O2 2.212164 1_555
Li1 O10 2.046058 1_655
Li1 O19 2.100928 1_555
Li1 O1 2.125307 1_555
Li1 O3 2.144817 1_555
Li1 O7 2.172992 1_555
Li2 O9 1.961400 1_555
Li2 O11 1.963294 1_555
Li2 O21 1.994968 1_565
Li2 O5 2.331360 1_565
Li2 O2 2.428060 1_556
Li3 O0 2.023863 1_555
Li3 O14 2.083017 1_555
Li3 O2 2.092520 1_555
Li3 O11 2.130820 1_554
Li3 O6 2.163912 1_555
Li4 O15 1.913931 1_555
Li4 O3 1.967554 1_555
Li4 O0 2.033108 1_555
Li4 O7 2.249930 1_555
Li5 O19 1.961400 1_555
Li5 O22 1.963294 1_555
Li5 O7 1.994968 1_565
Li5 O15 2.331360 1_565
Li5 O16 2.428060 1_555
Li6 O20 1.945444 1_555
Li6 O8 1.970528 1_555
Li6 O23 2.043901 1_555
Li6 O16 2.212164 1_555
Li7 O23 2.046058 1_455
Li7 O9 2.100928 1_555
Li7 O12 2.125307 1_556
Li7 O17 2.144817 1_555
Li7 O21 2.172992 1_555
Li8 O13 2.023863 1_555
Li8 O4 2.083017 1_555
Li8 O16 2.092520 1_555
Li8 O22 2.130820 1_555
Li8 O20 2.163912 1_555
Li9 O5 1.913931 1_555
Li9 O17 1.967554 1_555
Li9 O13 2.033108 1_555
Li9 O21 2.249930 1_555
Mn0 O11 2.044636 1_555
Mn0 O20 2.060725 1_565
Mn0 O0 2.075223 1_556
Mn0 O8 2.118463 1_555
Mn0 O4 2.121359 1_565
Mn1 O5 2.030386 1_555
Mn1 O17 2.052378 1_545
Mn1 O10 2.052979 1_555
Mn1 O9 2.071130 1_545
Mn1 O1 2.082236 1_455
Mn2 O22 2.044636 1_555
Mn2 O6 2.060725 1_565
Mn2 O13 2.075223 1_555
Mn2 O18 2.118463 1_555
Mn2 O14 2.121359 1_565
Mn3 O15 2.030386 1_555
Mn3 O3 2.052378 1_545
Mn3 O23 2.052979 1_554
Mn3 O19 2.071130 1_545
Mn3 O12 2.082236 1_655
Fe0 O1 2.012262 1_555
Fe0 O4 2.035496 1_555
Fe0 O16 2.049209 1_545
Fe0 O7 2.196486 1_555
Fe0 O8 2.305925 1_545
Fe1 O12 2.012262 1_555
Fe1 O14 2.035496 1_555
Fe1 O2 2.049209 1_545
Fe1 O21 2.196486 1_554
Fe1 O18 2.305925 1_545
B0 O22 1.386460 1_555
B0 O6 1.392707 1_555
B0 O7 1.403341 1_555
B1 O8 1.389060 1_555
B1 O9 1.399630 1_655
B1 O23 1.402852 1_565
B2 O2 1.382828 1_555
B2 O3 1.384743 1_455
B2 O12 1.398736 1_555
B3 O5 1.370020 1_555
B3 O13 1.396596 1_545
B3 O4 1.412991 1_555
B4 O18 1.389060 1_555
B4 O19 1.399630 1_455
B4 O10 1.402852 1_565
B5 O11 1.386460 1_555
B5 O20 1.392707 1_555
B5 O21 1.403341 1_555
B6 O15 1.370020 1_555
B6 O0 1.396596 1_545
B6 O14 1.412991 1_555
B7 O16 1.382828 1_555
B7 O17 1.384743 1_655
B7 O1 1.398736 1_555
