# generated using pymatgen
data_Li9Ni15O28
_symmetry_space_group_name_H-M   'P 1'
_cell_length_a   8.22270386
_cell_length_b   8.57633117
_cell_length_c   7.55947288
_cell_angle_alpha   105.70464571
_cell_angle_beta   75.47318965
_cell_angle_gamma   75.49574019
_symmetry_Int_Tables_number   1
_chemical_formula_structural   Li9Ni15O28
_chemical_formula_sum   'Li9 Ni15 O28'
_cell_volume   466.90472722
_cell_formula_units_Z   1
loop_
 _symmetry_equiv_pos_site_id
 _symmetry_equiv_pos_as_xyz
  1  'x, y, z'
loop_
 _atom_site_type_symbol
 _atom_site_label
 _atom_site_symmetry_multiplicity
 _atom_site_fract_x
 _atom_site_fract_y
 _atom_site_fract_z
 _atom_site_occupancy
  Li  Li0  1  0.00000000  0.50000000  0.50000000  1
  Li  Li1  1  0.27177100  0.29229300  0.56801400  1
  Li  Li2  1  0.28013000  0.79267100  0.07370200  1
  Li  Li3  1  0.57506600  0.56988800  0.14914600  1
  Li  Li4  1  0.57922800  0.06375000  0.63981100  1
  Li  Li5  1  0.42077200  0.93625000  0.36018900  1
  Li  Li6  1  0.42493400  0.43011200  0.85085400  1
  Li  Li7  1  0.71987000  0.20732900  0.92629800  1
  Li  Li8  1  0.72822900  0.70770700  0.43198600  1
  Ni  Ni0  1  0.00000000  0.00000000  0.00000000  1
  Ni  Ni1  1  0.07226000  0.07078200  0.64294400  1
  Ni  Ni2  1  0.07597500  0.56844100  0.13538000  1
  Ni  Ni3  1  0.20898800  0.70997500  0.43228900  1
  Ni  Ni4  1  0.21256700  0.21241100  0.92945000  1
  Ni  Ni5  1  0.35902100  0.35425500  0.20807200  1
  Ni  Ni6  1  0.50000000  0.00000000  0.00000000  1
  Ni  Ni7  1  0.64550000  0.14283200  0.28550700  1
  Ni  Ni8  1  0.50000000  0.50000000  0.50000000  1
  Ni  Ni9  1  0.35450000  0.85716800  0.71449300  1
  Ni  Ni10  1  0.64097900  0.64574500  0.79192800  1
  Ni  Ni11  1  0.78743300  0.78758900  0.07055000  1
  Ni  Ni12  1  0.79101200  0.29002500  0.56771100  1
  Ni  Ni13  1  0.92402500  0.43155900  0.86462000  1
  Ni  Ni14  1  0.92774000  0.92921800  0.35705600  1
  O  O0  1  0.01451200  0.29002800  0.60066900  1
  O  O1  1  0.03145900  0.79568600  0.09348100  1
  O  O2  1  0.13747400  0.34957800  0.19560500  1
  O  O3  1  0.16361700  0.41724400  0.87447000  1
  O  O4  1  0.31498900  0.54993700  0.13990000  1
  O  O5  1  0.25653500  0.00262400  0.97777800  1
  O  O6  1  0.25431000  0.49491900  0.46937400  1
  O  O7  1  0.31262700  0.08226500  0.65674100  1
  O  O8  1  0.12531200  0.87145200  0.71100700  1
  O  O9  1  0.17354200  0.91613300  0.38087900  1
  O  O10  1  0.41604800  0.15290700  0.27167400  1
  O  O11  1  0.57778000  0.36856700  0.22918000  1
  O  O12  1  0.44440700  0.70747600  0.44634700  1
  O  O13  1  0.46702600  0.20545900  0.94462100  1
  O  O14  1  0.53297400  0.79454100  0.05537900  1
  O  O15  1  0.55559300  0.29252400  0.55365300  1
  O  O16  1  0.42222000  0.63143300  0.77082000  1
  O  O17  1  0.58395200  0.84709300  0.72832600  1
  O  O18  1  0.82645800  0.08386700  0.61912100  1
  O  O19  1  0.87468800  0.12854800  0.28899300  1
  O  O20  1  0.68737300  0.91773500  0.34325900  1
  O  O21  1  0.74569000  0.50508100  0.53062600  1
  O  O22  1  0.74346500  0.99737600  0.02222200  1
  O  O23  1  0.68501100  0.45006300  0.86010000  1
  O  O24  1  0.83638300  0.58275600  0.12553000  1
  O  O25  1  0.86252600  0.65042200  0.80439500  1
  O  O26  1  0.96854100  0.20431400  0.90651900  1
  O  O27  1  0.98548800  0.70997200  0.39933100  1
loop_
_geom_bond_atom_site_label_1
_geom_bond_atom_site_label_2
_geom_bond_distance
_geom_bond_site_symmetry_2
Li0 O6 2.033295 1_555
Li0 O21 2.033295 1_455
Li0 O0 2.125090 1_555
Li0 O27 2.125090 1_455
Li0 O25 2.143500 1_455
Li0 O2 2.143500 1_555
Li1 O6 2.055910 1_555
Li1 O7 2.066709 1_555
Li1 O0 2.072992 1_555
Li1 O10 2.088418 1_555
Li1 O3 2.109795 1_555
Li1 O15 2.309474 1_555
Li2 O1 2.005510 1_555
Li2 O14 2.053138 1_555
Li2 O5 2.099560 1_564
Li2 O9 2.112949 1_555
Li2 O16 2.157397 1_554
Li2 O4 2.236821 1_555
Li3 O11 1.975008 1_555
Li3 O23 1.993945 1_554
Li3 O12 2.076810 1_555
Li3 O24 2.144320 1_555
Li3 O4 2.204382 1_555
Li3 O14 2.205170 1_555
Li4 O18 2.053702 1_555
Li4 O20 2.075304 1_545
Li4 O13 2.119779 1_555
Li4 O7 2.126297 1_555
Li4 O17 2.133500 1_545
Li4 O15 2.208139 1_555
Li5 O9 2.053702 1_555
Li5 O7 2.075304 1_565
Li5 O14 2.119779 1_555
Li5 O20 2.126297 1_555
Li5 O10 2.133500 1_565
Li5 O12 2.208139 1_555
Li6 O16 1.975008 1_555
Li6 O4 1.993945 1_556
Li6 O15 2.076810 1_555
Li6 O3 2.144320 1_555
Li6 O23 2.204382 1_555
Li6 O13 2.205170 1_555
Li7 O26 2.005510 1_555
Li7 O13 2.053138 1_555
Li7 O22 2.099560 1_546
Li7 O18 2.112949 1_555
Li7 O11 2.157397 1_556
Li7 O23 2.236821 1_555
Li8 O21 2.055910 1_555
Li8 O20 2.066709 1_555
Li8 O27 2.072992 1_555
Li8 O17 2.088418 1_555
Li8 O24 2.109795 1_555
Li8 O12 2.309474 1_555
Ni0 O19 2.011876 1_455
Ni0 O8 2.011876 1_544
Ni0 O1 2.042481 1_545
Ni0 O26 2.042481 1_454
Ni0 O22 2.080000 1_445
Ni0 O5 2.080000 1_554
Ni1 O26 1.852535 1_455
Ni1 O9 1.890490 1_545
Ni1 O8 1.895444 1_545
Ni1 O0 1.953824 1_555
Ni1 O7 2.030357 1_555
Ni1 O18 2.051836 1_455
Ni2 O27 1.870825 1_455
Ni2 O3 1.877564 1_554
Ni2 O4 1.941472 1_555
Ni2 O24 1.964504 1_455
Ni2 O1 2.016836 1_555
Ni2 O2 2.022112 1_555
Ni3 O9 1.879566 1_555
Ni3 O6 1.899286 1_555
Ni3 O27 1.915517 1_455
Ni3 O12 1.960269 1_555
Ni3 O8 2.011571 1_555
Ni3 O4 2.078696 1_555
Ni4 O2 1.882777 1_556
Ni4 O3 1.883029 1_555
Ni4 O5 1.896729 1_555
Ni4 O7 1.901612 1_555
Ni4 O26 2.073379 1_455
Ni4 O13 2.110969 1_555
Ni5 O6 1.853370 1_555
Ni5 O2 1.857370 1_555
Ni5 O4 1.862950 1_555
Ni5 O11 1.876208 1_555
Ni5 O13 1.884851 1_554
Ni5 O10 1.894715 1_555
Ni6 O14 1.889626 1_545
Ni6 O13 1.889626 1_554
Ni6 O17 1.947136 1_544
Ni6 O10 1.947136 1_555
Ni6 O5 2.045649 1_554
Ni6 O22 2.045649 1_545
Ni7 O19 1.865002 1_555
Ni7 O22 1.874729 1_545
Ni7 O10 1.897447 1_555
Ni7 O15 1.915106 1_555
Ni7 O20 2.057845 1_545
Ni7 O11 2.065094 1_555
Ni8 O16 1.898329 1_555
Ni8 O11 1.898329 1_555
Ni8 O15 1.901563 1_555
Ni8 O12 1.901563 1_555
Ni8 O21 2.100030 1_555
Ni8 O6 2.100030 1_555
Ni9 O8 1.865002 1_555
Ni9 O5 1.874729 1_565
Ni9 O17 1.897447 1_555
Ni9 O12 1.915106 1_555
Ni9 O7 2.057845 1_565
Ni9 O16 2.065094 1_555
Ni10 O21 1.853370 1_555
Ni10 O25 1.857370 1_555
Ni10 O23 1.862950 1_555
Ni10 O16 1.876208 1_555
Ni10 O14 1.884851 1_556
Ni10 O17 1.894715 1_555
Ni11 O25 1.882777 1_554
Ni11 O24 1.883029 1_555
Ni11 O22 1.896729 1_555
Ni11 O20 1.901612 1_555
Ni11 O1 2.073379 1_655
Ni11 O14 2.110969 1_555
Ni12 O18 1.879566 1_555
Ni12 O21 1.899286 1_555
Ni12 O0 1.915517 1_655
Ni12 O15 1.960269 1_555
Ni12 O19 2.011571 1_555
Ni12 O23 2.078696 1_555
Ni13 O0 1.870825 1_655
Ni13 O24 1.877564 1_556
Ni13 O23 1.941472 1_555
Ni13 O3 1.964504 1_655
Ni13 O26 2.016836 1_555
Ni13 O25 2.022112 1_555
Ni14 O1 1.852535 1_655
Ni14 O18 1.890490 1_565
Ni14 O19 1.895444 1_565
Ni14 O27 1.953824 1_555
Ni14 O20 2.030357 1_555
Ni14 O9 2.051836 1_655
