# generated using pymatgen
data_Ti5Mn3O16
_symmetry_space_group_name_H-M   'P 1'
_cell_length_a   5.85941885
_cell_length_b   5.85941885
_cell_length_c   9.06020134
_cell_angle_alpha   89.40039570
_cell_angle_beta   89.40039570
_cell_angle_gamma   60.12549721
_symmetry_Int_Tables_number   1
_chemical_formula_structural   Ti5Mn3O16
_chemical_formula_sum   'Ti5 Mn3 O16'
_cell_volume   269.70788016
_cell_formula_units_Z   1
loop_
 _symmetry_equiv_pos_site_id
 _symmetry_equiv_pos_as_xyz
  1  'x, y, z'
loop_
 _atom_site_type_symbol
 _atom_site_label
 _atom_site_symmetry_multiplicity
 _atom_site_fract_x
 _atom_site_fract_y
 _atom_site_fract_z
 _atom_site_occupancy
  Ti  Ti0  1  0.83675800  0.83675800  0.28556800  1
  Ti  Ti1  1  0.66680000  0.17209100  0.78619100  1
  Ti  Ti2  1  0.33025500  0.33025500  0.50496700  1
  Ti  Ti3  1  0.17209100  0.66680000  0.78619100  1
  Ti  Ti4  1  0.66671800  0.66671800  0.00738200  1
  Mn  Mn0  1  0.17117600  0.17117600  0.78863800  1
  Mn  Mn1  1  0.83196400  0.33998800  0.28886400  1
  Mn  Mn2  1  0.33998800  0.83196400  0.28886400  1
  O  O0  1  0.66109500  0.16806800  0.39947800  1
  O  O1  1  0.47822100  0.47822100  0.66091700  1
  O  O2  1  0.33040900  0.33040900  0.89985600  1
  O  O3  1  0.00366200  0.00366200  0.68517000  1
  O  O4  1  0.00454200  0.00454200  0.18557400  1
  O  O5  1  0.16806800  0.66109500  0.39947800  1
  O  O6  1  0.47232700  0.04426900  0.66379100  1
  O  O7  1  0.04426900  0.47232700  0.66379100  1
  O  O8  1  0.82880700  0.82880700  0.90032800  1
  O  O9  1  0.16699300  0.16699300  0.39725100  1
  O  O10  1  0.95548300  0.51788200  0.16347700  1
  O  O11  1  0.51788200  0.95548300  0.16347700  1
  O  O12  1  0.66248400  0.66248400  0.39789700  1
  O  O13  1  0.83037300  0.33802200  0.89921200  1
  O  O14  1  0.52182900  0.52182900  0.16872200  1
  O  O15  1  0.33802200  0.83037300  0.89921200  1
loop_
_geom_bond_atom_site_label_1
_geom_bond_atom_site_label_2
_geom_bond_distance
_geom_bond_site_symmetry_2
Mn0 O6 1.901262 1_555
Mn0 O7 1.901262 1_555
Mn0 O2 1.913887 1_555
Mn0 O3 1.950355 1_555
Mn0 O13 1.995207 1_455
Mn0 O15 1.995207 1_545
Mn1 O10 1.900114 1_555
Mn1 O12 1.918830 1_555
Mn1 O14 1.926301 1_555
Mn1 O4 1.949428 1_655
Mn1 O9 1.970453 1_655
Mn1 O0 1.996024 1_555
Mn2 O11 1.900114 1_555
Mn2 O12 1.918830 1_555
Mn2 O14 1.926301 1_555
Mn2 O4 1.949428 1_565
Mn2 O9 1.970453 1_565
Mn2 O5 1.996024 1_555
O0 Ti2 1.928593 1_555
O0 Ti0 1.980476 1_545
O1 Ti1 1.932833 1_555
O1 Ti3 1.932833 1_555
O1 Ti2 2.073610 1_555
O2 Ti3 1.990513 1_555
O2 Ti1 1.990513 1_555
O3 Ti3 1.936019 1_545
O3 Ti1 1.936019 1_455
O4 Ti0 1.918170 1_445
O5 Ti2 1.928593 1_555
O5 Ti0 1.980476 1_455
O6 Ti1 1.995808 1_555
O6 Ti2 2.038772 1_555
O7 Ti3 1.995808 1_555
O7 Ti2 2.038772 1_555
O8 Ti4 1.898642 1_556
O8 Ti1 2.022684 1_565
O8 Ti3 2.022684 1_655
O9 Ti2 1.932204 1_555
O10 Ti0 1.982643 1_555
O10 Ti4 2.043966 1_555
O11 Ti0 1.982643 1_555
O11 Ti4 2.043966 1_555
O12 Ti0 2.028918 1_555
O13 Ti4 1.941484 1_556
O13 Ti1 1.970319 1_555
O14 Ti4 2.060175 1_555
O15 Ti4 1.941484 1_556
O15 Ti3 1.970319 1_555
