# generated using pymatgen
data_MnV4O12
_symmetry_space_group_name_H-M   'P 1'
_cell_length_a   5.32463317
_cell_length_b   10.91945992
_cell_length_c   9.62081675
_cell_angle_alpha   26.90220511
_cell_angle_beta   50.33853214
_cell_angle_gamma   55.22743071
_symmetry_Int_Tables_number   1
_chemical_formula_structural   MnV4O12
_chemical_formula_sum   'Mn1 V4 O12'
_cell_volume   194.84244339
_cell_formula_units_Z   1
loop_
 _symmetry_equiv_pos_site_id
 _symmetry_equiv_pos_as_xyz
  1  'x, y, z'
loop_
 _atom_site_type_symbol
 _atom_site_label
 _atom_site_symmetry_multiplicity
 _atom_site_fract_x
 _atom_site_fract_y
 _atom_site_fract_z
 _atom_site_occupancy
  Mn  Mn0  1  0.31308100  0.00090300  0.29174600  1
  V  V0  1  0.02732600  0.02231500  0.96322900  1
  V  V1  1  0.95640900  0.48499800  0.03356600  1
  V  V2  1  0.49218700  0.98813500  0.52440000  1
  V  V3  1  0.49490600  0.52758900  0.47879300  1
  O  O0  1  0.33790500  0.28116100  0.13465400  1
  O  O1  1  0.23428800  0.10574800  0.62051400  1
  O  O2  1  0.13266400  0.30681600  0.71996400  1
  O  O3  1  0.87564500  0.17426600  0.24167700  1
  O  O4  1  0.32873000  0.80306600  0.13060800  1
  O  O5  1  0.74604000  0.39398200  0.33783000  1
  O  O6  1  0.23694000  0.66279400  0.56575600  1
  O  O7  1  0.57557600  0.18804700  0.87673000  1
  O  O8  1  0.13835700  0.80352900  0.71132000  1
  O  O9  1  0.83913700  0.68442800  0.23742700  1
  O  O10  1  0.71150900  0.89147500  0.33479100  1
  O  O11  1  0.61859900  0.68074700  0.85629600  1
loop_
_geom_bond_atom_site_label_1
_geom_bond_atom_site_label_2
_geom_bond_distance
_geom_bond_site_symmetry_2
Mn0 O10 1.856721 1_545
Mn0 O0 1.903695 1_555
Mn0 O7 1.911382 1_554
Mn0 O6 1.930958 1_545
Mn0 O8 1.944618 1_545
Mn0 O3 2.004292 1_455
O0 V1 1.878842 1_455
O0 V2 2.123203 1_545
O1 V2 1.695788 1_545
O1 V0 2.016257 1_555
O2 V0 1.669476 1_555
O2 V3 2.128411 1_555
O3 V2 1.866095 1_545
O3 V1 2.038375 1_555
O4 V0 1.714841 1_564
O4 V3 1.956602 1_555
O5 V1 1.645220 1_555
O5 V3 2.178184 1_555
O6 V3 1.785877 1_555
O6 V1 2.323460 1_456
O7 V3 1.885207 1_555
O7 V0 2.158104 1_655
O8 V1 1.850649 1_456
O8 V2 2.094866 1_555
O9 V3 1.655059 1_555
O9 V0 2.249258 1_664
O10 V0 1.898851 1_664
O10 V2 2.261471 1_555
O11 V2 1.722221 1_555
O11 V1 1.934287 1_556
