# generated using pymatgen
data_Li2MnV(P2O7)2
_symmetry_space_group_name_H-M   'P 1'
_cell_length_a   8.33652600
_cell_length_b   7.06888400
_cell_length_c   9.70222665
_cell_angle_alpha   71.23971929
_cell_angle_beta   90.00000000
_cell_angle_gamma   90.00000000
_symmetry_Int_Tables_number   1
_chemical_formula_structural   Li2MnV(P2O7)2
_chemical_formula_sum   'Li4 Mn2 V2 P8 O28'
_cell_volume   541.37582025
_cell_formula_units_Z   2
loop_
 _symmetry_equiv_pos_site_id
 _symmetry_equiv_pos_as_xyz
  1  'x, y, z'
loop_
 _atom_site_type_symbol
 _atom_site_label
 _atom_site_symmetry_multiplicity
 _atom_site_fract_x
 _atom_site_fract_y
 _atom_site_fract_z
 _atom_site_occupancy
  Li  Li0  1  0.85886800  0.66895600  0.91470600  1
  Li  Li1  1  0.35759100  0.32692200  0.59061900  1
  Li  Li2  1  0.85759100  0.67307800  0.40938100  1
  Li  Li3  1  0.35886800  0.33104400  0.08529400  1
  Mn  Mn0  1  0.50066900  0.73068700  0.89193400  1
  Mn  Mn1  1  0.00066900  0.26931300  0.10806600  1
  V  V0  1  0.99811700  0.27344900  0.60517100  1
  V  V1  1  0.49811700  0.72655100  0.39482900  1
  P  P0  1  0.17862700  0.51798800  0.80094700  1
  P  P1  1  0.78918300  0.08882000  0.89472700  1
  P  P2  1  0.28285400  0.91175900  0.60960700  1
  P  P3  1  0.67964300  0.47703300  0.70096400  1
  P  P4  1  0.17964300  0.52296700  0.29903600  1
  P  P5  1  0.78285400  0.08824100  0.39039300  1
  P  P6  1  0.28918300  0.91118000  0.10527300  1
  P  P7  1  0.67862700  0.48201200  0.19905300  1
  O  O0  1  0.32953500  0.85206300  0.97068100  1
  O  O1  1  0.70680600  0.88816900  0.93283700  1
  O  O2  1  0.03566400  0.47869400  0.90735600  1
  O  O3  1  0.34046700  0.49572500  0.87561400  1
  O  O4  1  0.67683600  0.60845500  0.80029600  1
  O  O5  1  0.43309600  0.91329100  0.70210600  1
  O  O6  1  0.15374500  0.75020200  0.70427700  1
  O  O7  1  0.65566900  0.24789400  0.80144300  1
  O  O8  1  0.93770700  0.09527300  0.79941900  1
  O  O9  1  0.17154600  0.39862100  0.69353300  1
  O  O10  1  0.84018600  0.49290800  0.62178600  1
  O  O11  1  0.53746600  0.51462900  0.59483400  1
  O  O12  1  0.32609200  0.85190500  0.47676200  1
  O  O13  1  0.69521100  0.88896500  0.43098100  1
  O  O14  1  0.19521100  0.11103500  0.56901900  1
  O  O15  1  0.82609200  0.14809500  0.52323800  1
  O  O16  1  0.03746600  0.48537100  0.40516600  1
  O  O17  1  0.34018600  0.50709200  0.37821400  1
  O  O18  1  0.67154600  0.60137900  0.30646700  1
  O  O19  1  0.43770700  0.90472700  0.20058100  1
  O  O20  1  0.15566900  0.75210600  0.19855700  1
  O  O21  1  0.65374500  0.24979800  0.29572300  1
  O  O22  1  0.93309600  0.08670900  0.29789400  1
  O  O23  1  0.17683600  0.39154500  0.19970400  1
  O  O24  1  0.84046700  0.50427500  0.12438600  1
  O  O25  1  0.53566400  0.52130600  0.09264400  1
  O  O26  1  0.20680600  0.11183100  0.06716300  1
  O  O27  1  0.82953500  0.14793700  0.02931900  1
loop_
_geom_bond_atom_site_label_1
_geom_bond_atom_site_label_2
_geom_bond_distance
_geom_bond_site_symmetry_2
Li0 O24 1.998507 1_556
Li0 O4 2.005812 1_555
Li0 O2 2.011943 1_655
Li0 O1 2.052924 1_555
Li1 O9 1.996219 1_555
Li1 O11 2.011413 1_555
Li1 O17 2.049829 1_555
Li1 O14 2.100242 1_555
Li2 O18 1.996219 1_555
Li2 O16 2.011413 1_655
Li2 O10 2.049829 1_555
Li2 O13 2.100242 1_555
Li3 O3 1.998507 1_554
Li3 O23 2.005812 1_555
Li3 O25 2.011943 1_555
Li3 O26 2.052924 1_555
Mn0 O0 1.943423 1_555
Mn0 O5 1.961229 1_555
Mn0 O4 2.046469 1_555
Mn0 O25 2.052799 1_556
Mn0 O1 2.152683 1_555
Mn0 O3 2.176355 1_555
Mn1 O27 1.943423 1_455
Mn1 O22 1.961229 1_455
Mn1 O23 2.046469 1_555
Mn1 O2 2.052799 1_554
Mn1 O26 2.152683 1_555
Mn1 O24 2.176355 1_455
O0 P6 1.531020 1_556
O1 P1 1.510890 1_565
O2 P0 1.542395 1_555
O3 P0 1.515433 1_555
O4 P3 1.538924 1_555
O5 P2 1.542895 1_555
O6 P0 1.620779 1_555
O6 P2 1.622233 1_555
O7 P3 1.611909 1_555
O7 P1 1.633350 1_555
O8 P1 1.537236 1_555
O8 V0 1.965966 1_555
O9 P0 1.538563 1_555
O9 V0 2.023893 1_455
O10 P3 1.529221 1_555
O10 V0 2.080118 1_555
O11 P3 1.536142 1_555
O11 V1 2.060939 1_555
O12 P2 1.523467 1_555
O12 V1 1.981619 1_555
O13 P5 1.521979 1_565
O13 V1 2.097585 1_555
O14 P2 1.521979 1_545
O14 V0 2.097585 1_455
O15 P5 1.523467 1_555
O15 V0 1.981619 1_555
O16 P4 1.536142 1_555
O16 V0 2.060939 1_455
O17 P4 1.529221 1_555
O17 V1 2.080118 1_555
O18 P7 1.538563 1_555
O18 V1 2.023893 1_555
O19 P6 1.537236 1_555
O19 V1 1.965966 1_555
O20 P4 1.611909 1_555
O20 P6 1.633350 1_555
O21 P7 1.620779 1_555
O21 P5 1.622233 1_555
O22 P5 1.542895 1_555
O23 P4 1.538924 1_555
O24 P7 1.515433 1_555
O25 P7 1.542395 1_555
O26 P6 1.510890 1_545
O27 P1 1.531020 1_554
