# generated using pymatgen
data_Li3V(CO3)3
_symmetry_space_group_name_H-M   'P 1'
_cell_length_a   5.97984769
_cell_length_b   5.97984769
_cell_length_c   10.22378500
_cell_angle_alpha   90.00000000
_cell_angle_beta   90.00000000
_cell_angle_gamma   103.11681742
_symmetry_Int_Tables_number   1
_chemical_formula_structural   Li3V(CO3)3
_chemical_formula_sum   'Li6 V2 C6 O18'
_cell_volume   356.04960671
_cell_formula_units_Z   2
loop_
 _symmetry_equiv_pos_site_id
 _symmetry_equiv_pos_as_xyz
  1  'x, y, z'
loop_
 _atom_site_type_symbol
 _atom_site_label
 _atom_site_symmetry_multiplicity
 _atom_site_fract_x
 _atom_site_fract_y
 _atom_site_fract_z
 _atom_site_occupancy
  Li  Li0  1  0.10555000  0.10555000  0.00000000  1
  Li  Li1  1  0.35707000  0.39793100  0.25000000  1
  Li  Li2  1  0.16818600  0.72483600  0.25000000  1
  Li  Li3  1  0.10555000  0.10555000  0.50000000  1
  Li  Li4  1  0.72483600  0.16818600  0.75000000  1
  Li  Li5  1  0.39793100  0.35707000  0.75000000  1
  V  V0  1  0.68265600  0.11291700  0.25000000  1
  V  V1  1  0.11291700  0.68265600  0.75000000  1
  C  C0  1  0.57425400  0.15928700  0.01599500  1
  C  C1  1  0.74245900  0.70928400  0.25000000  1
  C  C2  1  0.57425400  0.15928700  0.48400500  1
  C  C3  1  0.15928700  0.57425400  0.51599500  1
  C  C4  1  0.70928400  0.74245900  0.75000000  1
  C  C5  1  0.15928700  0.57425400  0.98400500  1
  O  O0  1  0.77612200  0.13208600  0.05296700  1
  O  O1  1  0.42930600  0.15384000  0.11518100  1
  O  O2  1  0.18384600  0.51794000  0.10066900  1
  O  O3  1  0.76556400  0.50405700  0.25000000  1
  O  O4  1  0.91824400  0.88915200  0.25000000  1
  O  O5  1  0.54239400  0.76310600  0.25000000  1
  O  O6  1  0.18384600  0.51794000  0.39933100  1
  O  O7  1  0.42930600  0.15384000  0.38481900  1
  O  O8  1  0.77612200  0.13208600  0.44703300  1
  O  O9  1  0.13208600  0.77612200  0.55296700  1
  O  O10  1  0.15384000  0.42930600  0.61518100  1
  O  O11  1  0.51794000  0.18384600  0.60066900  1
  O  O12  1  0.76310600  0.54239400  0.75000000  1
  O  O13  1  0.50405700  0.76556400  0.75000000  1
  O  O14  1  0.88915200  0.91824400  0.75000000  1
  O  O15  1  0.51794000  0.18384600  0.89933100  1
  O  O16  1  0.15384000  0.42930600  0.88481900  1
  O  O17  1  0.13208600  0.77612200  0.94703300  1
loop_
_geom_bond_atom_site_label_1
_geom_bond_atom_site_label_2
_geom_bond_distance
_geom_bond_site_symmetry_2
Li0 O17 2.083489 1_544
Li0 O0 2.083489 1_455
Li0 O1 2.228114 1_555
Li0 O16 2.228114 1_554
Li1 O2 2.063077 1_555
Li1 O6 2.063077 1_555
Li1 O1 2.122062 1_555
Li1 O7 2.122062 1_555
Li1 O5 2.213202 1_555
Li1 O3 2.380353 1_555
Li2 O4 1.966189 1_455
Li2 O2 1.980639 1_555
Li2 O6 1.980639 1_555
Li2 O5 2.197106 1_555
Li2 O3 2.469197 1_455
Li3 O8 2.083489 1_455
Li3 O9 2.083489 1_545
Li3 O7 2.228114 1_555
Li3 O10 2.228114 1_555
Li4 O14 1.966189 1_545
Li4 O11 1.980639 1_555
Li4 O15 1.980639 1_555
Li4 O12 2.197106 1_555
Li4 O13 2.469197 1_545
Li5 O11 2.063077 1_555
Li5 O15 2.063077 1_555
Li5 O10 2.122062 1_555
Li5 O16 2.122062 1_555
Li5 O12 2.213202 1_555
Li5 O13 2.380353 1_555
C0 O15 1.257005 1_554
C0 O0 1.309825 1_555
C0 O1 1.329602 1_555
C1 O3 1.265754 1_555
C1 O5 1.307525 1_555
C1 O4 1.322374 1_555
C2 O11 1.257005 1_555
C2 O8 1.309825 1_555
C2 O7 1.329602 1_555
C3 O6 1.257005 1_555
C3 O9 1.309825 1_555
C3 O10 1.329602 1_555
C4 O13 1.265754 1_555
C4 O12 1.307525 1_555
C4 O14 1.322374 1_555
C5 O2 1.257005 1_556
C5 O17 1.309825 1_555
C5 O16 1.329602 1_555
O0 V0 2.086707 1_555
O1 V0 2.103150 1_555
O3 V0 2.278202 1_555
O4 V0 2.151907 1_565
O5 V0 2.069509 1_565
O7 V0 2.103150 1_555
O8 V0 2.086707 1_555
O9 V1 2.086707 1_555
O10 V1 2.103150 1_555
O12 V1 2.069509 1_655
O13 V1 2.278202 1_555
O14 V1 2.151907 1_655
O16 V1 2.103150 1_555
O17 V1 2.086707 1_555
