# generated using pymatgen
data_Li2MnV(PO4)3
_symmetry_space_group_name_H-M   'P 1'
_cell_length_a   9.21058242
_cell_length_b   8.33707477
_cell_length_c   8.28971033
_cell_angle_alpha   60.88306710
_cell_angle_beta   61.90450626
_cell_angle_gamma   91.98576108
_symmetry_Int_Tables_number   1
_chemical_formula_structural   Li2MnV(PO4)3
_chemical_formula_sum   'Li4 Mn2 V2 P6 O24'
_cell_volume   460.95029091
_cell_formula_units_Z   2
loop_
 _symmetry_equiv_pos_site_id
 _symmetry_equiv_pos_as_xyz
  1  'x, y, z'
loop_
 _atom_site_type_symbol
 _atom_site_label
 _atom_site_symmetry_multiplicity
 _atom_site_fract_x
 _atom_site_fract_y
 _atom_site_fract_z
 _atom_site_occupancy
  Li  Li0  1  0.13950100  0.74251400  0.17833700  1
  Li  Li1  1  0.12603500  0.06657500  0.60891800  1
  Li  Li2  1  0.87396500  0.93342500  0.39108200  1
  Li  Li3  1  0.86049900  0.25748600  0.82166300  1
  Mn  Mn0  1  0.56498700  0.84929600  0.28983100  1
  Mn  Mn1  1  0.43501300  0.15070400  0.71016900  1
  V  V0  1  0.04759800  0.35401500  0.29212400  1
  V  V1  1  0.95240200  0.64598500  0.70787600  1
  P  P0  1  0.25400900  0.04554600  0.20639700  1
  P  P1  1  0.24225300  0.46098700  0.49750100  1
  P  P2  1  0.25618600  0.75143000  0.77784000  1
  P  P3  1  0.74381400  0.24857000  0.22216000  1
  P  P4  1  0.75774700  0.53901300  0.50249900  1
  P  P5  1  0.74599100  0.95445400  0.79360300  1
  O  O0  1  0.09773300  0.83900500  0.37219400  1
  O  O1  1  0.27048200  0.12471300  0.98543900  1
  O  O2  1  0.17820500  0.17182600  0.29598700  1
  O  O3  1  0.19180600  0.49816500  0.32779300  1
  O  O4  1  0.08881300  0.47559300  0.68045100  1
  O  O5  1  0.11987900  0.79254200  0.71267400  1
  O  O6  1  0.41729400  0.02792200  0.20077800  1
  O  O7  1  0.24616600  0.25448600  0.61207300  1
  O  O8  1  0.41520600  0.61722500  0.37311000  1
  O  O9  1  0.18607500  0.53597100  0.98007200  1
  O  O10  1  0.26463400  0.88457000  0.85519500  1
  O  O11  1  0.43265500  0.79227800  0.58542600  1
  O  O12  1  0.56734500  0.20772200  0.41457400  1
  O  O13  1  0.73536600  0.11543000  0.14480500  1
  O  O14  1  0.81392500  0.46402900  0.01992800  1
  O  O15  1  0.58479400  0.38277500  0.62689000  1
  O  O16  1  0.75383400  0.74551400  0.38792700  1
  O  O17  1  0.58270600  0.97207800  0.79922200  1
  O  O18  1  0.88012100  0.20745800  0.28732600  1
  O  O19  1  0.91118700  0.52440700  0.31954900  1
  O  O20  1  0.80819400  0.50183500  0.67220700  1
  O  O21  1  0.82179500  0.82817400  0.70401300  1
  O  O22  1  0.72951800  0.87528700  0.01456100  1
  O  O23  1  0.90226700  0.16099500  0.62780600  1
loop_
_geom_bond_atom_site_label_1
_geom_bond_atom_site_label_2
_geom_bond_distance
_geom_bond_site_symmetry_2
Li0 O10 1.953636 1_554
Li0 O0 2.018639 1_555
Li0 O3 2.022630 1_555
Li0 O19 2.108049 1_455
Li1 O7 1.904284 1_555
Li1 O5 1.998824 1_545
Li1 O2 2.076468 1_555
Li1 O23 2.195557 1_455
Li2 O16 1.904284 1_555
Li2 O18 1.998824 1_565
Li2 O21 2.076468 1_555
Li2 O0 2.195557 1_655
Li3 O13 1.953636 1_556
Li3 O23 2.018639 1_555
Li3 O20 2.022630 1_555
Li3 O4 2.108049 1_655
Mn0 O11 1.931105 1_555
Mn0 O8 1.934248 1_555
Mn0 O22 1.946668 1_555
Mn0 O13 2.053472 1_565
Mn0 O6 2.151659 1_565
Mn0 O16 2.277544 1_555
Mn1 O12 1.931105 1_555
Mn1 O15 1.934248 1_555
Mn1 O1 1.946668 1_555
Mn1 O10 2.053472 1_545
Mn1 O17 2.151659 1_545
Mn1 O7 2.277544 1_555
O0 P0 1.608614 1_565
O0 V1 2.027125 1_455
O1 P0 1.538980 1_556
O2 P0 1.571915 1_555
O2 V0 1.967450 1_555
O3 P1 1.578749 1_555
O3 V0 1.975111 1_555
O4 P1 1.576418 1_555
O4 V1 1.953782 1_455
O5 P2 1.572872 1_555
O5 V1 1.961752 1_455
O6 P0 1.497203 1_555
O7 P1 1.520712 1_555
O8 P1 1.516409 1_555
O9 P2 1.556744 1_555
O9 V0 1.886531 1_556
O10 P2 1.543718 1_555
O11 P2 1.514313 1_555
O12 P3 1.514313 1_555
O13 P3 1.543718 1_555
O14 P3 1.556744 1_555
O14 V1 1.886531 1_554
O15 P4 1.516409 1_555
O16 P4 1.520712 1_555
O17 P5 1.497203 1_555
O18 P3 1.572872 1_555
O18 V0 1.961752 1_655
O19 P4 1.576418 1_555
O19 V0 1.953782 1_655
O20 P4 1.578749 1_555
O20 V1 1.975111 1_555
O21 P5 1.571915 1_555
O21 V1 1.967450 1_555
O22 P5 1.538980 1_554
O23 P5 1.608614 1_545
O23 V0 2.027125 1_655
