# generated using pymatgen
data_Li10Mn3Cr3(CoO8)2
_symmetry_space_group_name_H-M   'P 1'
_cell_length_a   5.93634000
_cell_length_b   6.01945510
_cell_length_c   9.87193624
_cell_angle_alpha   91.11073258
_cell_angle_beta   90.75953285
_cell_angle_gamma   118.94454736
_symmetry_Int_Tables_number   1
_chemical_formula_structural   Li10Mn3Cr3(CoO8)2
_chemical_formula_sum   'Li10 Mn3 Cr3 Co2 O16'
_cell_volume   308.53415019
_cell_formula_units_Z   1
loop_
 _symmetry_equiv_pos_site_id
 _symmetry_equiv_pos_as_xyz
  1  'x, y, z'
loop_
 _atom_site_type_symbol
 _atom_site_label
 _atom_site_symmetry_multiplicity
 _atom_site_fract_x
 _atom_site_fract_y
 _atom_site_fract_z
 _atom_site_occupancy
  Li  Li0  1  0.01684700  0.99332100  0.48256000  1
  Li  Li1  1  0.20260800  0.39775900  0.06283400  1
  Li  Li2  1  0.68891600  0.34173600  0.78218400  1
  Li  Li3  1  0.81702600  0.18674800  0.56353800  1
  Li  Li4  1  0.40218400  0.18488200  0.56576100  1
  Li  Li5  1  0.35624200  0.67615400  0.28296100  1
  Li  Li6  1  0.01662500  0.01366500  0.98270500  1
  Li  Li7  1  0.21081400  0.80914200  0.05562500  1
  Li  Li8  1  0.80006100  0.59771500  0.55426800  1
  Li  Li9  1  0.61695600  0.78984800  0.05828400  1
  Mn  Mn0  1  0.84834100  0.17153500  0.28554900  1
  Mn  Mn1  1  0.67875500  0.83347200  0.78386900  1
  Mn  Mn2  1  0.84666700  0.66222300  0.28490800  1
  Cr  Cr0  1  0.18542400  0.34031900  0.78639500  1
  Cr  Cr1  1  0.35208400  0.16803800  0.28549400  1
  Cr  Cr2  1  0.18365300  0.83432700  0.78526200  1
  Co  Co0  1  0.34228100  0.65532100  0.52916800  1
  Co  Co1  1  0.67884600  0.33042200  0.02846700  1
  O  O0  1  0.34085500  0.16529400  0.90377000  1
  O  O1  1  0.16648200  0.31491400  0.40207600  1
  O  O2  1  0.02975800  0.50953800  0.66647800  1
  O  O3  1  0.52936200  0.01685000  0.16921800  1
  O  O4  1  0.85342600  0.16758600  0.89538300  1
  O  O5  1  0.32974800  0.66047200  0.90748800  1
  O  O6  1  0.50647500  0.50556200  0.67282400  1
  O  O7  1  0.18008000  0.83920500  0.39380100  1
  O  O8  1  0.52103000  0.48978100  0.17242800  1
  O  O9  1  0.67319400  0.30165900  0.40807300  1
  O  O10  1  0.50555200  0.97416900  0.67064500  1
  O  O11  1  0.99798700  0.51539200  0.16125300  1
  O  O12  1  0.85390200  0.69320200  0.89789400  1
  O  O13  1  0.68632200  0.79937900  0.41121500  1
  O  O14  1  0.04144100  0.01629800  0.66885500  1
  O  O15  1  0.02181700  0.03130500  0.16964500  1
loop_
_geom_bond_atom_site_label_1
_geom_bond_atom_site_label_2
_geom_bond_distance
_geom_bond_site_symmetry_2
Li0 O14 1.840158 1_565
Li0 O13 1.850175 1_455
Li0 O7 1.851611 1_555
Li0 O1 1.892525 1_565
Li1 O11 1.938557 1_455
Li1 O8 1.989851 1_555
Li1 O5 2.095638 1_554
Li1 O15 2.226692 1_555
Li1 O0 2.481506 1_554
Li2 O4 2.075768 1_555
Li2 O6 2.086865 1_555
Li2 O2 2.132310 1_655
Li2 O12 2.147322 1_555
Li2 O0 2.197500 1_555
Li2 O10 2.198934 1_545
Li3 O2 1.979191 1_655
Li3 O10 1.997101 1_545
Li3 O9 2.034941 1_555
Li3 O14 2.288247 1_655
Li3 O1 2.454706 1_655
Li3 O13 2.526304 1_545
Li4 O10 1.960818 1_545
Li4 O6 1.993317 1_555
Li4 O9 2.125995 1_555
Li4 O14 2.155444 1_555
Li4 O7 2.469428 1_545
Li4 O1 2.496134 1_555
Li5 O7 2.058243 1_555
Li5 O8 2.109331 1_555
Li5 O13 2.117487 1_555
Li5 O3 2.145378 1_565
Li5 O11 2.190466 1_455
Li5 O1 2.267889 1_555
Li6 O15 1.845447 1_556
Li6 O4 1.848724 1_455
Li6 O12 1.862126 1_445
Li6 O0 1.873988 1_555
Li7 O11 1.937578 1_455
Li7 O3 1.999397 1_565
Li7 O5 2.006531 1_554
Li7 O15 2.396143 1_565
Li7 O12 2.416593 1_454
Li7 O0 2.447996 1_564
Li8 O6 1.964287 1_555
Li8 O2 2.012801 1_655
Li8 O9 2.097223 1_555
Li8 O13 2.181355 1_555
Li8 O14 2.456285 1_665
Li8 O7 2.592603 1_655
Li9 O8 1.989184 1_555
Li9 O3 1.995407 1_565
Li9 O5 2.081354 1_554
Li9 O15 2.363093 1_665
Li9 O12 2.374732 1_554
Mn0 O15 1.979244 1_655
Mn0 O9 1.985563 1_555
Mn0 O1 1.990270 1_655
Mn0 O3 1.991416 1_555
Mn0 O11 2.219596 1_555
Mn0 O13 2.352942 1_545
Mn1 O10 1.967966 1_555
Mn1 O12 1.979042 1_555
Mn1 O6 2.018952 1_555
Mn1 O4 2.048733 1_565
Mn1 O5 2.212273 1_555
Mn1 O14 2.226125 1_665
Mn2 O11 1.958051 1_555
Mn2 O13 1.973480 1_555
Mn2 O8 2.000871 1_555
Mn2 O7 2.016489 1_655
Mn2 O15 2.281477 1_665
Mn2 O9 2.285081 1_555
Cr0 O6 2.035606 1_555
Cr0 O14 2.038011 1_555
Cr0 O5 2.040185 1_555
Cr0 O2 2.054688 1_555
Cr0 O4 2.058901 1_455
Cr0 O0 2.064916 1_555
Cr1 O9 2.040097 1_555
Cr1 O15 2.042396 1_555
Cr1 O3 2.042520 1_555
Cr1 O8 2.058154 1_555
Cr1 O1 2.063298 1_555
Cr1 O7 2.063613 1_545
Cr2 O14 2.037463 1_565
Cr2 O10 2.043942 1_555
Cr2 O2 2.045929 1_555
Cr2 O5 2.050111 1_555
Cr2 O12 2.067505 1_455
Cr2 O0 2.071165 1_565
Co0 O2 2.141584 1_555
Co0 O10 2.152519 1_555
Co0 O6 2.153438 1_555
Co0 O1 2.158170 1_555
Co0 O13 2.160321 1_555
Co0 O7 2.234493 1_555
Co1 O11 2.093588 1_555
Co1 O0 2.117974 1_554
Co1 O8 2.160993 1_555
Co1 O4 2.174925 1_554
Co1 O3 2.189526 1_555
Co1 O12 2.336297 1_554
