# generated using pymatgen
data_Li8Mn7Fe(BO3)8
_symmetry_space_group_name_H-M   'P 1'
_cell_length_a   5.24025500
_cell_length_b   6.07597432
_cell_length_c   16.32310456
_cell_angle_alpha   82.34717431
_cell_angle_beta   88.85182109
_cell_angle_gamma   89.23658996
_symmetry_Int_Tables_number   1
_chemical_formula_structural   Li8Mn7Fe(BO3)8
_chemical_formula_sum   'Li8 Mn7 Fe1 B8 O24'
_cell_volume   514.95974808
_cell_formula_units_Z   1
loop_
 _symmetry_equiv_pos_site_id
 _symmetry_equiv_pos_as_xyz
  1  'x, y, z'
loop_
 _atom_site_type_symbol
 _atom_site_label
 _atom_site_symmetry_multiplicity
 _atom_site_fract_x
 _atom_site_fract_y
 _atom_site_fract_z
 _atom_site_occupancy
  Li  Li0  1  0.84666000  0.06372800  0.38937500  1
  Li  Li1  1  0.15161900  0.43545200  0.10957600  1
  Li  Li2  1  0.65159500  0.18683000  0.85948100  1
  Li  Li3  1  0.34842200  0.31316800  0.64085700  1
  Li  Li4  1  0.65154000  0.68866200  0.35799900  1
  Li  Li5  1  0.34824600  0.81233900  0.14122700  1
  Li  Li6  1  0.84777300  0.56376500  0.89141600  1
  Li  Li7  1  0.15141700  0.93645300  0.60920300  1
  Mn  Mn0  1  0.66841100  0.27167500  0.04148800  1
  Mn  Mn1  1  0.16784900  0.02401700  0.79028200  1
  Mn  Mn2  1  0.33208700  0.22693300  0.45996500  1
  Mn  Mn3  1  0.16642700  0.52225700  0.29026600  1
  Mn  Mn4  1  0.83196000  0.47550700  0.70975700  1
  Mn  Mn5  1  0.66789200  0.77410000  0.54009500  1
  Mn  Mn6  1  0.33197400  0.72511800  0.95986800  1
  Fe  Fe0  1  0.83961300  0.97627600  0.20865400  1
  B  B0  1  0.32904700  0.03775800  0.29658800  1
  B  B1  1  0.82956900  0.28538400  0.54775000  1
  B  B2  1  0.67071400  0.46273400  0.20270600  1
  B  B3  1  0.17044100  0.21467200  0.95239400  1
  B  B4  1  0.83077500  0.78495200  0.04920300  1
  B  B5  1  0.32987600  0.53529200  0.79794800  1
  B  B6  1  0.16932900  0.71559700  0.45170000  1
  B  B7  1  0.67006200  0.96466500  0.70209500  1
  O  O0  1  0.58942300  0.01215700  0.30782700  1
  O  O1  1  0.18412900  0.16920100  0.34459900  1
  O  O2  1  0.71306100  0.16961600  0.49106000  1
  O  O3  1  0.28872300  0.33023400  0.00861700  1
  O  O4  1  0.78725700  0.08100900  0.75838900  1
  O  O5  1  0.81872900  0.32722400  0.15642900  1
  O  O6  1  0.31791100  0.07974100  0.90577100  1
  O  O7  1  0.08983400  0.26283600  0.56139300  1
  O  O8  1  0.41021100  0.48676300  0.18898600  1
  O  O9  1  0.90993700  0.23762300  0.93938600  1
  O  O10  1  0.68120700  0.41987000  0.59405200  1
  O  O11  1  0.21285800  0.41931200  0.74152200  1
  O  O12  1  0.78753000  0.57841400  0.25917300  1
  O  O13  1  0.31800500  0.58102500  0.40523300  1
  O  O14  1  0.09138400  0.76283000  0.06156500  1
  O  O15  1  0.58979000  0.51323000  0.81143100  1
  O  O16  1  0.90961900  0.73806100  0.43833000  1
  O  O17  1  0.68345500  0.91866400  0.09720200  1
  O  O18  1  0.18099300  0.67018600  0.84422100  1
  O  O19  1  0.20514200  0.92583900  0.23975200  1
  O  O20  1  0.71191300  0.67200200  0.99219200  1
  O  O21  1  0.28702400  0.83040200  0.50845100  1
  O  O22  1  0.81847200  0.82950600  0.65583600  1
  O  O23  1  0.41009400  0.98692300  0.68869300  1
loop_
_geom_bond_atom_site_label_1
_geom_bond_atom_site_label_2
_geom_bond_distance
_geom_bond_site_symmetry_2
Li0 O0 1.970122 1_555
Li0 O2 1.971013 1_555
Li0 O1 1.981376 1_655
Li0 O16 2.057878 1_545
Li1 O8 1.950109 1_555
Li1 O3 1.965093 1_555
Li1 O5 1.975730 1_455
Li1 O14 2.061183 1_555
Li2 O9 1.954036 1_555
Li2 O4 1.965992 1_555
Li2 O6 1.974408 1_555
Li2 O15 2.057162 1_555
Li3 O7 1.949187 1_555
Li3 O11 1.960571 1_555
Li3 O10 1.972293 1_555
Li3 O23 2.055305 1_545
Li4 O12 1.946229 1_555
Li4 O16 1.955802 1_555
Li4 O13 1.979685 1_555
Li4 O0 2.050594 1_565
Li5 O14 1.943770 1_555
Li5 O19 1.964084 1_555
Li5 O17 1.968591 1_555
Li5 O8 2.051514 1_555
Li6 O15 1.953221 1_555
Li6 O20 1.968255 1_555
Li6 O18 1.975891 1_655
Li6 O9 2.055687 1_555
Li7 O23 1.950029 1_555
Li7 O21 1.961644 1_555
Li7 O22 1.972549 1_455
Li7 O7 2.055891 1_565
Mn0 O3 2.084782 1_555
Mn0 O9 2.103010 1_554
Mn0 O5 2.118837 1_555
Mn0 O17 2.216449 1_545
Mn0 O20 2.470230 1_554
Mn1 O4 2.084166 1_455
Mn1 O23 2.102280 1_545
Mn1 O6 2.126794 1_555
Mn1 O18 2.212739 1_545
Mn1 O11 2.440531 1_555
Mn2 O2 2.083153 1_555
Mn2 O7 2.098760 1_555
Mn2 O1 2.124164 1_555
Mn2 O13 2.217845 1_555
Mn2 O21 2.446780 1_545
Mn3 O12 2.071835 1_455
Mn3 O8 2.101084 1_555
Mn3 O13 2.127414 1_555
Mn3 O1 2.210917 1_555
Mn3 O19 2.490407 1_555
Mn4 O11 2.084614 1_655
Mn4 O15 2.103931 1_555
Mn4 O10 2.131283 1_555
Mn4 O22 2.213645 1_555
Mn4 O4 2.435401 1_555
Mn5 O21 2.084055 1_555
Mn5 O16 2.101663 1_555
Mn5 O22 2.131072 1_555
Mn5 O10 2.215068 1_555
Mn5 O2 2.442753 1_565
Mn6 O20 2.079943 1_555
Mn6 O14 2.099374 1_556
Mn6 O18 2.129682 1_555
Mn6 O6 2.217982 1_565
Mn6 O3 2.437210 1_556
Fe0 O19 2.000622 1_655
Fe0 O17 2.082958 1_555
Fe0 O0 2.094822 1_565
Fe0 O5 2.190658 1_565
Fe0 O12 2.464943 1_555
B0 O0 1.384310 1_555
B0 O19 1.395938 1_545
B0 O1 1.398351 1_555
B1 O7 1.388355 1_655
B1 O2 1.389696 1_555
B1 O10 1.402632 1_555
B2 O12 1.387420 1_555
B2 O8 1.390398 1_555
B2 O5 1.405448 1_555
B3 O3 1.387609 1_556
B3 O9 1.388058 1_455
B3 O6 1.405068 1_555
B4 O14 1.386627 1_655
B4 O20 1.389127 1_554
B4 O17 1.413669 1_555
B5 O15 1.385923 1_555
B5 O11 1.388509 1_555
B5 O18 1.405413 1_555
B6 O16 1.384722 1_455
B6 O21 1.389804 1_555
B6 O13 1.405482 1_555
B7 O23 1.386059 1_555
B7 O4 1.388677 1_565
B7 O22 1.404991 1_555
