# generated using pymatgen
data_Li2Ti3NiO8
_symmetry_space_group_name_H-M   'P 1'
_cell_length_a   5.99089724
_cell_length_b   8.45892145
_cell_length_c   11.92996645
_cell_angle_alpha   90.00331389
_cell_angle_beta   90.00138704
_cell_angle_gamma   89.69424010
_symmetry_Int_Tables_number   1
_chemical_formula_structural   Li2Ti3NiO8
_chemical_formula_sum   'Li8 Ti12 Ni4 O32'
_cell_volume   604.56068261
_cell_formula_units_Z   4
loop_
 _symmetry_equiv_pos_site_id
 _symmetry_equiv_pos_as_xyz
  1  'x, y, z'
loop_
 _atom_site_type_symbol
 _atom_site_label
 _atom_site_symmetry_multiplicity
 _atom_site_fract_x
 _atom_site_fract_y
 _atom_site_fract_z
 _atom_site_occupancy
  Li  Li0  1  0.23741600  0.11886500  0.49991600  1
  Li  Li1  1  0.73738200  0.61878900  0.75006800  1
  Li  Li2  1  0.23736700  0.11890500  0.00002700  1
  Li  Li3  1  0.73735100  0.61882900  0.24995200  1
  Li  Li4  1  0.00173500  0.50080500  0.49990600  1
  Li  Li5  1  0.50165100  0.00095700  0.75007000  1
  Li  Li6  1  0.00164100  0.50090000  0.00002000  1
  Li  Li7  1  0.50160400  0.00104500  0.24997500  1
  Ti  Ti0  1  0.50580100  0.49848500  0.50001600  1
  Ti  Ti1  1  0.00543300  0.99859400  0.74995700  1
  Ti  Ti2  1  0.50544000  0.49842000  0.99988000  1
  Ti  Ti3  1  0.00511400  0.99855000  0.25007100  1
  Ti  Ti4  1  0.75149500  0.25285800  0.62273400  1
  Ti  Ti5  1  0.25084900  0.75283700  0.87289700  1
  Ti  Ti6  1  0.75151800  0.25298000  0.12270200  1
  Ti  Ti7  1  0.25105900  0.75293900  0.37297300  1
  Ti  Ti8  1  0.75122600  0.25283100  0.37718100  1
  Ti  Ti9  1  0.25119900  0.75289300  0.62716100  1
  Ti  Ti10  1  0.75134500  0.25287200  0.87708400  1
  Ti  Ti11  1  0.25111600  0.75303000  0.12717400  1
  Ni  Ni0  1  0.76444500  0.88226200  0.50012600  1
  Ni  Ni1  1  0.26460800  0.38197900  0.74981200  1
  Ni  Ni2  1  0.76436800  0.88259900  0.99991000  1
  Ni  Ni3  1  0.26470900  0.38223400  0.25003200  1
  O  O0  1  0.51970400  0.25903600  0.50012800  1
  O  O1  1  0.01922300  0.76008200  0.74986300  1
  O  O2  1  0.51967400  0.25904100  0.99996800  1
  O  O3  1  0.01927800  0.76002300  0.24998200  1
  O  O4  1  0.48041700  0.74110100  0.49985300  1
  O  O5  1  0.98088700  0.23996700  0.75013100  1
  O  O6  1  0.48018800  0.74102600  0.99985300  1
  O  O7  1  0.98085200  0.23982700  0.25015300  1
  O  O8  1  0.73090100  0.47934800  0.61440300  1
  O  O9  1  0.23012100  0.97930300  0.86450100  1
  O  O10  1  0.73080400  0.47933600  0.11430300  1
  O  O11  1  0.23009300  0.97934300  0.36452800  1
  O  O12  1  0.73085400  0.47939600  0.38570200  1
  O  O13  1  0.23015800  0.97936700  0.63544900  1
  O  O14  1  0.73078300  0.47937300  0.88569400  1
  O  O15  1  0.23012100  0.97931900  0.13549100  1
  O  O16  1  0.95998200  0.25183900  0.50008900  1
  O  O17  1  0.45900100  0.75119800  0.75001900  1
  O  O18  1  0.96005400  0.25187000  0.00005400  1
  O  O19  1  0.45900100  0.75120100  0.24995200  1
  O  O20  1  0.03406400  0.74791400  0.49995400  1
  O  O21  1  0.53465100  0.24890500  0.75023300  1
  O  O22  1  0.03331100  0.74843500  0.99991500  1
  O  O23  1  0.53460300  0.24889500  0.25020800  1
  O  O24  1  0.26796400  0.51723400  0.61596600  1
  O  O25  1  0.76617200  0.01773900  0.86576400  1
  O  O26  1  0.26793000  0.51718300  0.11596800  1
  O  O27  1  0.76583800  0.01763400  0.36580600  1
  O  O28  1  0.26776600  0.51714500  0.38403600  1
  O  O29  1  0.76625000  0.01784000  0.63415100  1
  O  O30  1  0.26728700  0.51690500  0.88403200  1
  O  O31  1  0.76617700  0.01771800  0.13420300  1
loop_
_geom_bond_atom_site_label_1
_geom_bond_atom_site_label_2
_geom_bond_distance
_geom_bond_site_symmetry_2
Li0 O11 2.000981 1_545
Li0 O16 2.001941 1_455
Li0 O13 2.002361 1_545
Li0 O0 2.070579 1_555
Li1 O14 2.002754 1_555
Li1 O8 2.003126 1_555
Li1 O17 2.003982 1_555
Li1 O1 2.073881 1_655
Li2 O18 2.001298 1_455
Li2 O15 2.002133 1_545
Li2 O9 2.002698 1_544
Li2 O2 2.070500 1_554
Li3 O10 2.003240 1_555
Li3 O19 2.003654 1_555
Li3 O12 2.004020 1_555
Li3 O3 2.073814 1_655
Li4 O20 2.100258 1_555
Li4 O28 2.114827 1_555
Li4 O24 2.117194 1_555
Li4 O16 2.122113 1_455
Li4 O12 2.127349 1_455
Li4 O8 2.129474 1_455
Li5 O25 2.106841 1_555
Li5 O21 2.107721 1_555
Li5 O29 2.109074 1_555
Li5 O17 2.129440 1_545
Li5 O9 2.132300 1_545
Li5 O13 2.133470 1_545
Li6 O22 2.103466 1_554
Li6 O30 2.113815 1_554
Li6 O26 2.116506 1_555
Li6 O18 2.122527 1_455
Li6 O10 2.127932 1_455
Li6 O14 2.128265 1_454
Li7 O27 2.106503 1_555
Li7 O23 2.106896 1_555
Li7 O31 2.107680 1_555
Li7 O19 2.130118 1_545
Li7 O15 2.132481 1_545
Li7 O11 2.133182 1_545
Ni0 O29 1.967692 1_565
Ni0 O27 1.969628 1_565
Ni0 O20 1.970018 1_655
Ni0 O4 2.083958 1_555
Ni1 O24 1.964575 1_555
Ni1 O21 1.965956 1_555
Ni1 O30 1.966428 1_555
Ni1 O5 2.086620 1_455
Ni2 O22 1.965818 1_655
Ni2 O25 1.966817 1_565
Ni2 O31 1.968034 1_566
Ni2 O6 2.086715 1_555
Ni3 O28 1.964284 1_555
Ni3 O26 1.965174 1_555
Ni3 O23 1.966494 1_555
Ni3 O7 2.089222 1_455
O0 Ti4 2.017331 1_555
O0 Ti8 2.019225 1_555
O0 Ti0 2.026748 1_555
O1 Ti1 2.018805 1_555
O1 Ti9 2.019177 1_555
O1 Ti5 2.020579 1_555
O2 Ti6 2.018635 1_556
O2 Ti10 2.019286 1_555
O2 Ti2 2.026229 1_555
O3 Ti3 2.019012 1_555
O3 Ti11 2.019482 1_555
O3 Ti7 2.020808 1_555
O4 Ti7 2.046394 1_555
O4 Ti9 2.049634 1_555
O4 Ti0 2.057088 1_555
O5 Ti1 2.046262 1_645
O5 Ti10 2.048247 1_555
O5 Ti4 2.051519 1_555
O6 Ti5 2.046978 1_555
O6 Ti11 2.049245 1_556
O6 Ti2 2.056948 1_555
O7 Ti3 2.045339 1_645
O7 Ti8 2.049288 1_555
O7 Ti6 2.051875 1_555
O8 Ti4 1.921750 1_555
O8 Ti0 1.924740 1_555
O9 Ti5 1.921635 1_555
O9 Ti1 1.924447 1_555
O10 Ti6 1.920705 1_555
O10 Ti2 1.926116 1_554
O11 Ti7 1.921228 1_555
O11 Ti3 1.924873 1_555
O12 Ti8 1.922411 1_555
O12 Ti0 1.923926 1_555
O13 Ti9 1.921737 1_555
O13 Ti1 1.924287 1_555
O14 Ti10 1.921995 1_555
O14 Ti2 1.924033 1_555
O15 Ti11 1.920179 1_555
O15 Ti3 1.926080 1_555
O16 Ti4 1.923777 1_555
O16 Ti8 1.927164 1_555
O17 Ti9 1.923021 1_555
O17 Ti5 1.924603 1_555
O18 Ti6 1.923996 1_555
O18 Ti10 1.927545 1_554
O19 Ti11 1.922620 1_555
O19 Ti7 1.925092 1_555
O20 Ti7 1.996834 1_555
O20 Ti9 1.999364 1_555
O21 Ti10 1.994230 1_555
O21 Ti4 2.000734 1_555
O22 Ti5 1.999164 1_555
O22 Ti11 2.002372 1_556
O23 Ti8 1.995053 1_555
O23 Ti6 2.001097 1_555
O24 Ti0 1.991605 1_555
O24 Ti9 1.999871 1_555
O25 Ti10 1.995049 1_555
O25 Ti1 1.996789 1_645
O26 Ti2 1.991358 1_554
O26 Ti11 2.001478 1_555
O27 Ti8 1.995583 1_555
O27 Ti3 1.996219 1_645
O28 Ti0 1.992610 1_555
O28 Ti7 2.000904 1_555
O29 Ti4 1.994156 1_555
O29 Ti1 1.996477 1_645
O30 Ti2 1.991911 1_555
O30 Ti5 2.002053 1_555
O31 Ti3 1.995881 1_645
O31 Ti6 1.996260 1_555
