# generated using pymatgen
data_Sr5U5O19
_symmetry_space_group_name_H-M   'P 1'
_cell_length_a   4.01337627
_cell_length_b   6.67464590
_cell_length_c   17.20274420
_cell_angle_alpha   100.48944895
_cell_angle_beta   90.00000075
_cell_angle_gamma   107.49625497
_symmetry_Int_Tables_number   1
_chemical_formula_structural   Sr5U5O19
_chemical_formula_sum   'Sr5 U5 O19'
_cell_volume   431.42398870
_cell_formula_units_Z   1
loop_
 _symmetry_equiv_pos_site_id
 _symmetry_equiv_pos_as_xyz
  1  'x, y, z'
loop_
 _atom_site_type_symbol
 _atom_site_label
 _atom_site_symmetry_multiplicity
 _atom_site_fract_x
 _atom_site_fract_y
 _atom_site_fract_z
 _atom_site_occupancy
  Sr  Sr0  1  0.90044100  0.80088000  0.30066700  1
  Sr  Sr1  1  0.28618500  0.57237100  0.09879700  1
  Sr  Sr2  1  0.70805300  0.41610600  0.89981800  1
  Sr  Sr3  1  0.09867500  0.19735100  0.69898400  1
  Sr  Sr4  1  0.50057000  0.00114100  0.50066800  1
  U  U0  1  0.79910200  0.59820500  0.59903000  1
  U  U1  1  0.39660600  0.79321300  0.79329700  1
  U  U2  1  0.20311800  0.40623700  0.40376500  1
  U  U3  1  0.60318500  0.20636900  0.21087100  1
  U  U4  1  0.00159300  0.00318800  0.99142200  1
  O  O0  1  0.44827100  0.89654000  0.21584600  1
  O  O1  1  0.85723600  0.71447200  0.02739800  1
  O  O2  1  0.94807200  0.89614400  0.57761700  1
  O  O3  1  0.50431600  0.00863200  0.95117000  1
  O  O4  1  0.90197000  0.80394000  0.72527600  1
  O  O5  1  0.35070100  0.70140100  0.37873700  1
  O  O6  1  0.74674800  0.49349600  0.17968100  1
  O  O7  1  0.90370000  0.80740100  0.87126000  1
  O  O8  1  0.30343200  0.60686400  0.52762900  1
  O  O9  1  0.70455300  0.40910600  0.33008100  1
  O  O10  1  0.29593500  0.59187000  0.67094400  1
  O  O11  1  0.69766900  0.39533600  0.47405900  1
  O  O12  1  0.08300100  0.16600300  0.11504600  1
  O  O13  1  0.65062700  0.30125500  0.62246600  1
  O  O14  1  0.25119200  0.50238500  0.81847800  1
  O  O15  1  0.09790200  0.19580600  0.27113600  1
  O  O16  1  0.05284600  0.10569100  0.42206300  1
  O  O17  1  0.15434300  0.30868500  0.97031200  1
  O  O18  1  0.54863800  0.09727400  0.78224000  1
loop_
_geom_bond_atom_site_label_1
_geom_bond_atom_site_label_2
_geom_bond_distance
_geom_bond_site_symmetry_2
O0 U3 1.990437 1_565
O0 Sr1 2.593568 1_555
O0 Sr0 2.620302 1_455
O0 Sr0 2.620302 1_555
O1 U4 2.048227 1_664
O1 Sr1 2.603435 1_655
O1 Sr1 2.603438 1_555
O1 Sr2 2.613988 1_554
O2 U0 1.999911 1_555
O2 Sr3 2.550946 1_665
O2 Sr4 2.561952 1_665
O2 Sr4 2.561955 1_565
O3 U4 2.125235 1_655
O3 U4 2.125243 1_555
O3 U1 2.799024 1_545
O3 Sr2 2.895448 1_555
O4 U0 2.312141 1_555
O4 U1 2.330494 1_655
O4 U1 2.330498 1_555
O4 Sr3 2.628501 1_665
O5 U2 2.006179 1_555
O5 Sr4 2.551976 1_565
O5 Sr0 2.560510 1_455
O5 Sr0 2.560513 1_555
O6 U3 2.000796 1_555
O6 Sr1 2.545917 1_655
O6 Sr1 2.545920 1_555
O6 Sr0 2.570193 1_555
O7 U4 2.200633 1_665
O7 U1 2.405715 1_555
O7 U1 2.405715 1_655
O7 Sr2 2.629307 1_555
O8 U2 2.265505 1_555
O8 U0 2.358894 1_555
O8 U0 2.358897 1_455
O8 Sr4 2.638026 1_565
O9 U3 2.204709 1_555
O9 U2 2.375434 1_655
O9 U2 2.375437 1_555
O9 Sr0 2.637751 1_555
O10 U1 2.245682 1_555
O10 U0 2.361763 1_555
O10 U0 2.361766 1_455
O10 Sr3 2.646233 1_555
O11 U0 2.286852 1_555
O11 U2 2.350725 1_655
O11 U2 2.350736 1_555
O11 Sr4 2.635354 1_555
O12 U4 2.180705 1_554
O12 U3 2.578467 1_455
O12 U3 2.578473 1_555
O12 Sr1 2.654457 1_555
O13 U0 2.006709 1_555
O13 Sr4 2.551831 1_555
O13 Sr3 2.555267 1_555
O13 Sr3 2.555267 1_655
O14 U1 1.980249 1_555
O14 Sr3 2.544072 1_555
O14 Sr2 2.565115 1_455
O14 Sr2 2.565119 1_555
O15 U3 2.265547 1_455
O15 U3 2.265558 1_555
O15 U2 2.415213 1_555
O15 Sr0 2.658208 1_445
O16 U2 1.997363 1_555
O16 Sr0 2.565007 1_445
O16 Sr4 2.577174 1_555
O16 Sr4 2.577180 1_455
O17 U4 2.045372 1_555
O17 Sr2 2.506315 1_555
O17 Sr2 2.506319 1_455
O17 Sr1 2.507313 1_556
O18 U1 1.980736 1_545
O18 Sr2 2.577465 1_555
O18 Sr3 2.613861 1_655
O18 Sr3 2.613870 1_555
