# generated using pymatgen
data_Mg2Cu5O7
_symmetry_space_group_name_H-M   'P 1'
_cell_length_a   4.03821200
_cell_length_b   9.43620300
_cell_length_c   22.72404800
_cell_angle_alpha   90.00000000
_cell_angle_beta   90.00000000
_cell_angle_gamma   90.00000000
_symmetry_Int_Tables_number   1
_chemical_formula_structural   Mg2Cu5O7
_chemical_formula_sum   'Mg12 Cu30 O42'
_cell_volume   865.90867027
_cell_formula_units_Z   6
loop_
 _symmetry_equiv_pos_site_id
 _symmetry_equiv_pos_as_xyz
  1  'x, y, z'
loop_
 _atom_site_type_symbol
 _atom_site_label
 _atom_site_symmetry_multiplicity
 _atom_site_fract_x
 _atom_site_fract_y
 _atom_site_fract_z
 _atom_site_occupancy
  Mg  Mg0  1  0.00000000  0.50000000  0.19623600  1
  Mg  Mg1  1  0.00000000  0.50000000  0.33892900  1
  Mg  Mg2  1  0.00000000  0.50000000  0.48158600  1
  Mg  Mg3  1  0.00000000  0.50000000  0.62426800  1
  Mg  Mg4  1  0.00000000  0.50000000  0.76715000  1
  Mg  Mg5  1  0.00000000  0.50000000  0.91009000  1
  Mg  Mg6  1  0.00000000  0.50000000  0.05335100  1
  Mg  Mg7  1  0.50000000  0.00000000  0.08962800  1
  Mg  Mg8  1  0.50000000  0.00000000  0.23228000  1
  Mg  Mg9  1  0.50000000  0.00000000  0.37496900  1
  Mg  Mg10  1  0.50000000  0.00000000  0.80475000  1
  Mg  Mg11  1  0.50000000  0.00000000  0.51868900  1
  Cu  Cu0  1  0.00000000  0.83441700  0.02586300  1
  Cu  Cu1  1  0.00000000  0.83543400  0.16758500  1
  Cu  Cu2  1  0.00000000  0.16558300  0.02586300  1
  Cu  Cu3  1  0.00000000  0.83555300  0.31042700  1
  Cu  Cu4  1  0.00000000  0.16456600  0.16758500  1
  Cu  Cu5  1  0.00000000  0.83587300  0.45322000  1
  Cu  Cu6  1  0.00000000  0.16444700  0.31042700  1
  Cu  Cu7  1  0.00000000  0.83543400  0.59670000  1
  Cu  Cu8  1  0.00000000  0.16412700  0.45322000  1
  Cu  Cu9  1  0.00000000  0.83448900  0.74016900  1
  Cu  Cu10  1  0.00000000  0.16456600  0.59670000  1
  Cu  Cu11  1  0.00000000  0.16551100  0.74016900  1
  Cu  Cu12  1  0.00000000  0.83532900  0.88259000  1
  Cu  Cu13  1  0.00000000  0.16467100  0.88259000  1
  Cu  Cu14  1  0.50000000  0.33534400  0.11778000  1
  Cu  Cu15  1  0.50000000  0.66465600  0.11778000  1
  Cu  Cu16  1  0.50000000  0.00000000  0.66294600  1
  Cu  Cu17  1  0.50000000  0.33547500  0.26070500  1
  Cu  Cu18  1  0.50000000  0.33557500  0.40357100  1
  Cu  Cu19  1  0.50000000  0.66442500  0.40357100  1
  Cu  Cu20  1  0.50000000  0.66452500  0.26070500  1
  Cu  Cu21  1  0.50000000  0.00000000  0.94897300  1
  Cu  Cu22  1  0.50000000  0.33563600  0.54497000  1
  Cu  Cu23  1  0.50000000  0.33593300  0.68908100  1
  Cu  Cu24  1  0.50000000  0.66436400  0.54497000  1
  Cu  Cu25  1  0.50000000  0.66406700  0.68908100  1
  Cu  Cu26  1  0.50000000  0.33520900  0.83045500  1
  Cu  Cu27  1  0.50000000  0.33645500  0.97531300  1
  Cu  Cu28  1  0.50000000  0.66479100  0.83045500  1
  Cu  Cu29  1  0.50000000  0.66354500  0.97531300  1
  O  O0  1  0.00000000  0.00000000  0.07469400  1
  O  O1  1  0.00000000  0.00000000  0.21707200  1
  O  O2  1  0.00000000  0.00000000  0.35994400  1
  O  O3  1  0.00000000  0.00000000  0.50270600  1
  O  O4  1  0.00000000  0.34651200  0.12682800  1
  O  O5  1  0.00000000  0.34630400  0.26957100  1
  O  O6  1  0.00000000  0.00000000  0.64525600  1
  O  O7  1  0.00000000  0.34588800  0.41221300  1
  O  O8  1  0.00000000  0.00000000  0.78898000  1
  O  O9  1  0.00000000  0.34539500  0.55536700  1
  O  O10  1  0.00000000  0.00000000  0.93119700  1
  O  O11  1  0.00000000  0.34582300  0.69803900  1
  O  O12  1  0.00000000  0.34547700  0.84121500  1
  O  O13  1  0.00000000  0.34613000  0.98412700  1
  O  O14  1  0.00000000  0.65369600  0.26957100  1
  O  O15  1  0.00000000  0.65411200  0.41221300  1
  O  O16  1  0.00000000  0.65348800  0.12682800  1
  O  O17  1  0.00000000  0.65460500  0.55536700  1
  O  O18  1  0.00000000  0.65417700  0.69803900  1
  O  O19  1  0.00000000  0.65452300  0.84121500  1
  O  O20  1  0.00000000  0.65387000  0.98412700  1
  O  O21  1  0.50000000  0.84179800  0.01844100  1
  O  O22  1  0.50000000  0.84595600  0.15918100  1
  O  O23  1  0.50000000  0.84622200  0.44441900  1
  O  O24  1  0.50000000  0.84631000  0.30167700  1
  O  O25  1  0.50000000  0.15820200  0.01844100  1
  O  O26  1  0.50000000  0.15404400  0.15918100  1
  O  O27  1  0.50000000  0.50000000  0.06832700  1
  O  O28  1  0.50000000  0.84318100  0.58673800  1
  O  O29  1  0.50000000  0.84268000  0.73191100  1
  O  O30  1  0.50000000  0.15369000  0.30167700  1
  O  O31  1  0.50000000  0.15377800  0.44441900  1
  O  O32  1  0.50000000  0.50000000  0.21120300  1
  O  O33  1  0.50000000  0.50000000  0.35408600  1
  O  O34  1  0.50000000  0.84290900  0.87270000  1
  O  O35  1  0.50000000  0.15681900  0.58673800  1
  O  O36  1  0.50000000  0.15732000  0.73191100  1
  O  O37  1  0.50000000  0.50000000  0.49534400  1
  O  O38  1  0.50000000  0.50000000  0.63931300  1
  O  O39  1  0.50000000  0.50000000  0.78111600  1
  O  O40  1  0.50000000  0.15709100  0.87270000  1
  O  O41  1  0.50000000  0.50000000  0.92520400  1
loop_
_geom_bond_atom_site_label_1
_geom_bond_atom_site_label_2
_geom_bond_distance
_geom_bond_site_symmetry_2
Mg0 O32 2.047551 1_455
Mg0 O32 2.047551 1_555
Mg0 O16 2.141345 1_555
Mg0 O4 2.141345 1_555
Mg0 O14 2.209187 1_555
Mg0 O5 2.209187 1_555
Mg1 O33 2.048272 1_555
Mg1 O33 2.048272 1_455
Mg1 O14 2.141836 1_555
Mg1 O5 2.141836 1_555
Mg1 O15 2.210892 1_555
Mg1 O7 2.210892 1_555
Mg2 O37 2.043167 1_555
Mg2 O37 2.043167 1_455
Mg2 O15 2.144747 1_555
Mg2 O7 2.144747 1_555
Mg2 O9 2.222463 1_555
Mg2 O17 2.222463 1_555
Mg3 O38 2.047846 1_555
Mg3 O38 2.047846 1_455
Mg3 O9 2.140044 1_555
Mg3 O17 2.140044 1_555
Mg3 O18 2.219642 1_555
Mg3 O11 2.219642 1_555
Mg4 O39 2.043896 1_455
Mg4 O39 2.043896 1_555
Mg4 O11 2.140791 1_555
Mg4 O18 2.140791 1_555
Mg4 O12 2.226829 1_555
Mg4 O19 2.226829 1_555
Mg5 O41 2.048108 1_555
Mg5 O41 2.048108 1_455
Mg5 O19 2.139085 1_555
Mg5 O12 2.139085 1_555
Mg5 O13 2.222317 1_555
Mg5 O20 2.222317 1_555
Mg6 O27 2.047585 1_455
Mg6 O27 2.047585 1_555
Mg6 O13 2.140710 1_554
Mg6 O20 2.140710 1_554
Mg6 O16 2.210335 1_555
Mg6 O4 2.210335 1_555
Mg7 O0 2.047426 1_555
Mg7 O0 2.047426 1_655
Mg7 O26 2.147321 1_555
Mg7 O22 2.147321 1_545
Mg7 O25 2.201214 1_555
Mg7 O21 2.201214 1_545
Mg8 O1 2.048468 1_655
Mg8 O1 2.048468 1_555
Mg8 O24 2.142450 1_545
Mg8 O30 2.142450 1_555
Mg8 O26 2.207305 1_555
Mg8 O22 2.207305 1_545
Mg9 O2 2.047770 1_555
Mg9 O2 2.047770 1_655
Mg9 O31 2.143899 1_555
Mg9 O23 2.143899 1_545
Mg9 O24 2.208412 1_545
Mg9 O30 2.208412 1_555
Mg10 O8 2.050661 1_555
Mg10 O8 2.050661 1_655
Mg10 O40 2.140463 1_555
Mg10 O34 2.140463 1_545
Mg10 O29 2.223382 1_545
Mg10 O36 2.223382 1_555
Mg11 O3 2.051512 1_555
Mg11 O3 2.051512 1_655
Mg11 O28 2.140311 1_545
Mg11 O35 2.140311 1_555
Mg11 O31 2.225762 1_555
Mg11 O23 2.225762 1_545
Cu0 O0 1.916409 1_565
Cu0 O20 1.949872 1_554
Cu0 O21 2.027335 1_455
Cu0 O21 2.027335 1_555
Cu1 O1 1.917298 1_565
Cu1 O16 1.950757 1_555
Cu1 O22 2.030546 1_455
Cu1 O22 2.030546 1_555
Cu2 O0 1.916409 1_555
Cu2 O13 1.949872 1_554
Cu2 O25 2.027335 1_555
Cu2 O25 2.027335 1_455
Cu3 O2 1.916789 1_565
Cu3 O14 1.951088 1_555
Cu3 O24 2.031410 1_555
Cu3 O24 2.031410 1_455
Cu4 O1 1.917298 1_555
Cu4 O4 1.950757 1_555
Cu4 O26 2.030546 1_455
Cu4 O26 2.030546 1_555
Cu5 O3 1.913931 1_565
Cu5 O15 1.951927 1_555
Cu5 O23 2.031335 1_455
Cu5 O23 2.031335 1_555
Cu6 O2 1.916789 1_555
Cu6 O5 1.951088 1_555
Cu6 O30 2.031410 1_555
Cu6 O30 2.031410 1_455
Cu7 O6 1.904967 1_565
Cu7 O17 1.947765 1_555
Cu7 O28 2.033071 1_455
Cu7 O28 2.033071 1_555
Cu8 O3 1.913931 1_555
Cu8 O7 1.951927 1_555
Cu8 O31 2.031335 1_455
Cu8 O31 2.031335 1_555
Cu9 O8 1.915592 1_565
Cu9 O18 1.952310 1_555
Cu9 O29 2.029280 1_555
Cu9 O29 2.029280 1_455
Cu10 O6 1.904967 1_555
Cu10 O9 1.947765 1_555
Cu10 O35 2.033071 1_455
Cu10 O35 2.033071 1_555
Cu11 O8 1.915592 1_555
Cu11 O11 1.952310 1_555
Cu11 O36 2.029280 1_555
Cu11 O36 2.029280 1_455
Cu12 O10 1.906446 1_565
Cu12 O19 1.948036 1_555
Cu12 O34 2.032834 1_555
Cu12 O34 2.032834 1_455
Cu13 O10 1.906446 1_555
Cu13 O12 1.948036 1_555
Cu13 O40 2.032834 1_455
Cu13 O40 2.032834 1_555
Cu14 O27 1.917533 1_555
Cu14 O26 1.952404 1_555
Cu14 O4 2.032282 1_555
Cu14 O4 2.032282 1_655
Cu15 O27 1.917533 1_555
Cu15 O22 1.952404 1_555
Cu15 O16 2.032282 1_655
Cu15 O16 2.032282 1_555
Cu16 O6 2.058734 1_555
Cu16 O6 2.058734 1_655
Cu16 O29 2.158646 1_545
Cu16 O36 2.158646 1_555
Cu16 O35 2.277874 1_555
Cu16 O28 2.277874 1_545
Cu17 O32 1.917185 1_555
Cu17 O30 1.951746 1_555
Cu17 O5 2.031704 1_555
Cu17 O5 2.031704 1_655
Cu18 O33 1.916194 1_555
Cu18 O31 1.950503 1_555
Cu18 O7 2.030967 1_655
Cu18 O7 2.030967 1_555
Cu19 O33 1.916194 1_555
Cu19 O23 1.950503 1_555
Cu19 O15 2.030967 1_555
Cu19 O15 2.030967 1_655
Cu20 O32 1.917185 1_555
Cu20 O24 1.951746 1_555
Cu20 O14 2.031704 1_555
Cu20 O14 2.031704 1_655
Cu21 O10 2.059116 1_555
Cu21 O10 2.059116 1_655
Cu21 O25 2.172669 1_556
Cu21 O21 2.172669 1_546
Cu21 O40 2.280664 1_555
Cu21 O34 2.280664 1_545
Cu22 O37 1.917610 1_555
Cu22 O35 1.935982 1_555
Cu22 O9 2.034967 1_555
Cu22 O9 2.034967 1_655
Cu23 O38 1.917246 1_555
Cu23 O36 1.946259 1_555
Cu23 O11 2.031486 1_555
Cu23 O11 2.031486 1_655
Cu24 O37 1.917610 1_555
Cu24 O28 1.935982 1_555
Cu24 O17 2.034967 1_655
Cu24 O17 2.034967 1_555
Cu25 O38 1.917246 1_555
Cu25 O29 1.946259 1_555
Cu25 O18 2.031486 1_555
Cu25 O18 2.031486 1_655
Cu26 O39 1.917049 1_555
Cu26 O40 1.935588 1_555
Cu26 O12 2.036164 1_555
Cu26 O12 2.036164 1_655
Cu27 O41 1.917861 1_555
Cu27 O25 1.946719 1_556
Cu27 O13 2.031069 1_555
Cu27 O13 2.031069 1_655
Cu28 O39 1.917049 1_555
Cu28 O34 1.935588 1_555
Cu28 O19 2.036164 1_655
Cu28 O19 2.036164 1_555
Cu29 O41 1.917861 1_555
Cu29 O21 1.946719 1_556
Cu29 O20 2.031069 1_555
Cu29 O20 2.031069 1_655
