# generated using pymatgen
data_Li6V3P8O29
_symmetry_space_group_name_H-M   'P 1'
_cell_length_a   9.79637500
_cell_length_b   9.82543242
_cell_length_c   13.87473609
_cell_angle_alpha   89.72363353
_cell_angle_beta   89.74988753
_cell_angle_gamma   60.19705707
_symmetry_Int_Tables_number   1
_chemical_formula_structural   Li6V3P8O29
_chemical_formula_sum   'Li12 V6 P16 O58'
_cell_volume   1158.84464071
_cell_formula_units_Z   2
loop_
 _symmetry_equiv_pos_site_id
 _symmetry_equiv_pos_as_xyz
  1  'x, y, z'
loop_
 _atom_site_type_symbol
 _atom_site_label
 _atom_site_symmetry_multiplicity
 _atom_site_fract_x
 _atom_site_fract_y
 _atom_site_fract_z
 _atom_site_occupancy
  Li  Li0  1  0.67831900  0.09431200  0.44241900  1
  Li  Li1  1  0.22840600  0.67844600  0.44235600  1
  Li  Li2  1  0.33594400  0.33244600  0.11442800  1
  Li  Li3  1  0.09179000  0.68084900  0.93536000  1
  Li  Li4  1  0.22510400  0.09460500  0.93573000  1
  Li  Li5  1  0.90260600  0.77271900  0.56363900  1
  Li  Li6  1  0.09269600  0.22803800  0.44174100  1
  Li  Li7  1  0.77217500  0.90891200  0.05771600  1
  Li  Li8  1  0.90410100  0.31972500  0.05542400  1
  Li  Li9  1  0.77143400  0.32513400  0.56399700  1
  Li  Li10  1  0.32490500  0.90328900  0.56373300  1
  Li  Li11  1  0.32106900  0.77332300  0.05708100  1
  V  V0  1  0.99916400  0.56748000  0.75045300  1
  V  V1  1  0.99770000  0.43510100  0.24952700  1
  V  V2  1  0.56912500  0.99992200  0.25176600  1
  V  V3  1  0.43424500  0.99854400  0.75007700  1
  V  V4  1  0.56818500  0.43017700  0.75402300  1
  V  V5  1  0.43730600  0.56461900  0.24964800  1
  P  P0  1  0.68418600  0.22892200  0.15792200  1
  P  P1  1  0.68163600  0.08797000  0.65822000  1
  P  P2  1  0.23325400  0.67980700  0.65822200  1
  P  P3  1  0.33228900  0.33316500  0.87365600  1
  P  P4  1  0.33268900  0.33403700  0.37319800  1
  P  P5  1  0.08975500  0.68216300  0.15695300  1
  P  P6  1  0.91320500  0.76770000  0.34271900  1
  P  P7  1  0.22916200  0.09019200  0.15645500  1
  P  P8  1  0.76865900  0.91216200  0.84345700  1
  P  P9  1  0.08900500  0.23171400  0.65806600  1
  P  P10  1  0.91135100  0.31840300  0.84187700  1
  P  P11  1  0.66593700  0.66646100  0.62600400  1
  P  P12  1  0.66841100  0.66731100  0.12611700  1
  P  P13  1  0.76879100  0.31724500  0.34440700  1
  P  P14  1  0.31710900  0.91294300  0.34242700  1
  P  P15  1  0.31943600  0.76802200  0.84192300  1
  O  O0  1  0.75626300  0.24100100  0.43548300  1
  O  O1  1  0.66648300  0.25158000  0.65817900  1
  O  O2  1  0.76211100  0.99264400  0.93461800  1
  O  O3  1  0.66310100  0.08095800  0.15958900  1
  O  O4  1  0.51594100  0.37324400  0.17296700  1
  O  O5  1  0.48163800  0.32910000  0.83049500  1
  O  O6  1  0.38311700  0.52227400  0.67455000  1
  O  O7  1  0.23983800  0.75784000  0.93236500  1
  O  O8  1  0.25353300  0.66802400  0.15607300  1
  O  O9  1  0.48640500  0.18702600  0.33365800  1
  O  O10  1  0.52112300  0.09816600  0.67482000  1
  O  O11  1  0.32988300  0.48628200  0.33054100  1
  O  O12  1  0.32827700  0.33523500  0.98205100  1
  O  O13  1  0.32923700  0.33603900  0.48048200  1
  O  O14  1  0.18502400  0.48834800  0.83563900  1
  O  O15  1  0.37306500  0.11256500  0.17365400  1
  O  O16  1  0.32519900  0.18598600  0.83621600  1
  O  O17  1  0.08448700  0.66221100  0.65877800  1
  O  O18  1  0.00113000  0.78960700  0.24950800  1
  O  O19  1  0.00258900  0.75750200  0.43270400  1
  O  O20  1  0.99753700  0.75791600  0.06726000  1
  O  O21  1  0.11205300  0.51542100  0.17383000  1
  O  O22  1  0.18391300  0.33120100  0.33037100  1
  O  O23  1  0.91768200  0.74578000  0.83891700  1
  O  O24  1  0.10029500  0.37968300  0.67502600  1
  O  O25  1  0.25376700  0.08250400  0.65880200  1
  O  O26  1  0.79082800  0.99969900  0.75028900  1
  O  O27  1  0.76026600  0.99808700  0.56790600  1
  O  O28  1  0.24197600  0.00289400  0.43287700  1
  O  O29  1  0.74911000  0.91798300  0.34183500  1
  O  O30  1  0.90119300  0.61962700  0.32635500  1
  O  O31  1  0.07973100  0.25306800  0.15577900  1
  O  O32  1  0.81244800  0.67470800  0.66637500  1
  O  O33  1  0.90420500  0.47732900  0.82463700  1
  O  O34  1  0.00188300  0.24087200  0.93169700  1
  O  O35  1  0.00022700  0.24038600  0.56784200  1
  O  O36  1  0.00127300  0.20811900  0.75012500  1
  O  O37  1  0.91830500  0.33153400  0.34222400  1
  O  O38  1  0.67315400  0.81258900  0.16696700  1
  O  O39  1  0.61929100  0.90097100  0.82374400  1
  O  O40  1  0.81737900  0.51425200  0.16875300  1
  O  O41  1  0.66814300  0.66263000  0.01899300  1
  O  O42  1  0.66489300  0.66859100  0.51830400  1
  O  O43  1  0.67250000  0.51275800  0.66687400  1
  O  O44  1  0.47658200  0.90642600  0.32221400  1
  O  O45  1  0.51130600  0.81282200  0.66702500  1
  O  O46  1  0.74595300  0.33939000  0.83949900  1
  O  O47  1  0.78654800  0.20647700  0.25401600  1
  O  O48  1  0.76889700  0.23816300  0.07209800  1
  O  O49  1  0.62064400  0.47751300  0.32631300  1
  O  O50  1  0.51643900  0.66733000  0.16858300  1
  O  O51  1  0.47999500  0.62281600  0.82450500  1
  O  O52  1  0.33329300  0.91853100  0.84161400  1
  O  O53  1  0.24369500  0.99744400  0.06737200  1
  O  O54  1  0.20951200  0.00089300  0.24962800  1
  O  O55  1  0.33553800  0.74873400  0.34260600  1
  O  O56  1  0.24049100  0.76088600  0.56767300  1
  O  O57  1  0.20836500  0.79111300  0.75002500  1
loop_
_geom_bond_atom_site_label_1
_geom_bond_atom_site_label_2
_geom_bond_distance
_geom_bond_site_symmetry_2
Li0 O0 1.939477 1_555
Li0 O27 1.952338 1_545
Li0 O29 2.061725 1_545
Li0 O9 2.225019 1_555
Li1 O56 1.950399 1_555
Li1 O19 1.951552 1_555
Li1 O55 2.047547 1_555
Li1 O11 2.260314 1_555
Li2 O12 1.838074 1_554
Li2 O4 2.155908 1_555
Li2 O15 2.163209 1_555
Li2 O21 2.191098 1_555
Li3 O7 1.940929 1_555
Li3 O23 2.009173 1_455
Li3 O20 2.019587 1_456
Li3 O14 2.150111 1_555
Li4 O34 1.930482 1_555
Li4 O52 2.002124 1_545
Li4 O53 2.023332 1_546
Li4 O16 2.127313 1_555
Li5 O27 1.944850 1_555
Li5 O19 2.030662 1_655
Li5 O17 2.044443 1_655
Li5 O32 2.135545 1_555
Li6 O35 1.943047 1_555
Li6 O28 1.957705 1_555
Li6 O37 2.034547 1_455
Li6 O22 2.255411 1_555
Li7 O2 1.873753 1_554
Li7 O20 1.958948 1_555
Li7 O3 2.052202 1_565
Li7 O38 2.240613 1_555
Li8 O48 1.871017 1_555
Li8 O34 1.930177 1_654
Li8 O31 2.054255 1_655
Li8 O40 2.291414 1_555
Li9 O35 1.966020 1_655
Li9 O1 2.001182 1_555
Li9 O0 2.005872 1_555
Li9 O43 2.147671 1_555
Li10 O56 1.947699 1_555
Li10 O28 2.029671 1_565
Li10 O25 2.029971 1_565
Li10 O45 2.139063 1_555
Li11 O7 1.945656 1_554
Li11 O53 1.946023 1_555
Li11 O8 2.013303 1_555
Li11 O50 2.273771 1_555
O0 P13 1.501329 1_555
O1 P1 1.539156 1_555
O1 V4 2.026474 1_555
O2 P8 1.479107 1_555
O3 P0 1.566813 1_555
O3 V2 1.955942 1_545
O4 P0 1.564454 1_555
O4 V5 1.957890 1_555
O5 P3 1.560547 1_555
O5 V4 1.910472 1_555
O6 P2 1.530732 1_555
O6 V4 1.923201 1_555
O7 P15 1.503501 1_555
O8 P5 1.540107 1_555
O8 V5 2.036787 1_555
O9 P4 1.579012 1_555
O9 V2 1.964328 1_545
O10 P1 1.541474 1_555
O10 V3 1.892944 1_545
O11 P4 1.593553 1_555
O11 V5 1.935488 1_555
O12 P3 1.504265 1_555
O13 P4 1.488776 1_555
O14 P3 1.580081 1_555
O14 V0 1.979734 1_455
O15 P7 1.550512 1_555
O15 V2 1.995509 1_545
O16 P3 1.572665 1_555
O16 V3 2.003955 1_545
O17 P2 1.550564 1_555
O17 V0 1.983820 1_455
O18 P5 1.615430 1_555
O18 P6 1.622560 1_455
O19 P6 1.502233 1_455
O20 P5 1.500435 1_655
O21 P5 1.558083 1_555
O21 V1 1.959940 1_455
O22 P4 1.589391 1_555
O22 V1 1.945186 1_455
O23 P8 1.560628 1_555
O23 V0 1.958293 1_555
O24 P9 1.531235 1_555
O24 V0 1.916736 1_455
O25 P9 1.549979 1_555
O25 V3 1.992465 1_545
O26 P1 1.614716 1_565
O26 P8 1.621864 1_555
O27 P1 1.506496 1_565
O28 P14 1.501270 1_545
O29 P6 1.550848 1_555
O29 V2 1.979196 1_555
O30 P6 1.534822 1_555
O30 V1 1.903477 1_555
O31 P7 1.541214 1_555
O31 V1 2.030073 1_455
O32 P11 1.582215 1_555
O32 V0 1.976805 1_555
O33 P10 1.545423 1_555
O33 V0 1.873850 1_555
O34 P10 1.499622 1_455
O35 P9 1.505173 1_555
O36 P9 1.615398 1_555
O36 P10 1.620323 1_455
O37 P13 1.539462 1_555
O37 V1 2.014943 1_555
O38 P12 1.560414 1_555
O38 V2 1.989121 1_555
O39 P8 1.546533 1_555
O39 V3 1.878606 1_555
O40 P12 1.599575 1_555
O40 V1 1.903835 1_555
O41 P12 1.487305 1_555
O42 P11 1.494363 1_555
O43 P11 1.581749 1_555
O43 V4 1.992165 1_555
O44 P14 1.555735 1_555
O44 V2 1.852744 1_555
O45 P11 1.587953 1_555
O45 V3 1.967479 1_555
O46 P10 1.528811 1_555
O46 V4 1.923176 1_555
O47 P13 1.615771 1_555
O47 P0 1.618900 1_555
O48 P0 1.476520 1_555
O49 P13 1.541629 1_555
O49 V5 1.889353 1_555
O50 P12 1.598649 1_555
O50 V5 1.908818 1_555
O51 P15 1.528801 1_555
O51 V4 1.915793 1_555
O52 P15 1.550750 1_555
O52 V3 1.990322 1_555
O53 P7 1.502925 1_565
O54 P14 1.615949 1_545
O54 P7 1.622612 1_555
O55 P14 1.531717 1_555
O55 V5 2.036780 1_555
O56 P2 1.504581 1_555
O57 P2 1.619741 1_555
O57 P15 1.620225 1_555
