# generated using pymatgen
data_Co3OF5
_symmetry_space_group_name_H-M   'P 1'
_cell_length_a   4.71390200
_cell_length_b   4.71760400
_cell_length_c   9.52587200
_cell_angle_alpha   90.00000000
_cell_angle_beta   90.00000000
_cell_angle_gamma   90.00000000
_symmetry_Int_Tables_number   1
_chemical_formula_structural   Co3OF5
_chemical_formula_sum   'Co6 O2 F10'
_cell_volume   211.83941773
_cell_formula_units_Z   2
loop_
 _symmetry_equiv_pos_site_id
 _symmetry_equiv_pos_as_xyz
  1  'x, y, z'
loop_
 _atom_site_type_symbol
 _atom_site_label
 _atom_site_symmetry_multiplicity
 _atom_site_fract_x
 _atom_site_fract_y
 _atom_site_fract_z
 _atom_site_occupancy
  Co  Co0  1  0.78285000  0.02886300  0.00000000  1
  Co  Co1  1  0.75348500  0.98910600  0.33868300  1
  Co  Co2  1  0.75348500  0.98910600  0.66131700  1
  Co  Co3  1  0.24651500  0.48910600  0.16131700  1
  Co  Co4  1  0.24651500  0.48910600  0.83868300  1
  Co  Co5  1  0.21715000  0.52886300  0.50000000  1
  O  O0  1  0.94804000  0.79614800  0.50000000  1
  O  O1  1  0.05196000  0.29614800  0.00000000  1
  F  F0  1  0.94701300  0.80259500  0.16484800  1
  F  F1  1  0.94701300  0.80259500  0.83515200  1
  F  F2  1  0.05298700  0.30259500  0.33515200  1
  F  F3  1  0.05298700  0.30259500  0.66484800  1
  F  F4  1  0.44062100  0.69021100  0.66719600  1
  F  F5  1  0.46676000  0.71116400  0.00000000  1
  F  F6  1  0.44062100  0.69021100  0.33280400  1
  F  F7  1  0.55937900  0.19021100  0.16719600  1
  F  F8  1  0.55937900  0.19021100  0.83280400  1
  F  F9  1  0.53324000  0.21116400  0.50000000  1
loop_
_geom_bond_atom_site_label_1
_geom_bond_atom_site_label_2
_geom_bond_distance
_geom_bond_site_symmetry_2
Co0 O1 1.788637 1_655
Co0 F1 2.050411 1_544
Co0 F0 2.050411 1_545
Co0 F7 2.055660 1_555
Co0 F8 2.055660 1_554
Co0 F5 2.113407 1_545
Co1 O0 2.007771 1_555
Co1 F6 2.041199 1_555
Co1 F2 2.044889 1_665
Co1 F0 2.085316 1_555
Co1 F7 2.099010 1_565
Co1 F9 2.129957 1_565
Co2 O0 2.007771 1_555
Co2 F4 2.041199 1_555
Co2 F3 2.044889 1_665
Co2 F1 2.085316 1_555
Co2 F8 2.099010 1_565
Co2 F9 2.129957 1_565
Co3 O1 2.007771 1_555
Co3 F7 2.041199 1_555
Co3 F0 2.044889 1_455
Co3 F2 2.085316 1_555
Co3 F6 2.099010 1_555
Co3 F5 2.129957 1_555
Co4 O1 2.007771 1_556
Co4 F8 2.041199 1_555
Co4 F1 2.044889 1_455
Co4 F3 2.085316 1_555
Co4 F4 2.099010 1_555
Co4 F5 2.129957 1_556
Co5 O0 1.788637 1_455
Co5 F2 2.050411 1_555
Co5 F3 2.050411 1_555
Co5 F6 2.055660 1_555
Co5 F4 2.055660 1_555
Co5 F9 2.113407 1_555
