# generated using pymatgen
data_Li6MnNi7O16
_symmetry_space_group_name_H-M   'P 1'
_cell_length_a   6.44983400
_cell_length_b   7.63188686
_cell_length_c   12.60467934
_cell_angle_alpha   93.72236044
_cell_angle_beta   99.61439978
_cell_angle_gamma   114.15996198
_symmetry_Int_Tables_number   1
_chemical_formula_structural   Li6MnNi7O16
_chemical_formula_sum   'Li12 Mn2 Ni14 O32'
_cell_volume   551.99834920
_cell_formula_units_Z   2
loop_
 _symmetry_equiv_pos_site_id
 _symmetry_equiv_pos_as_xyz
  1  'x, y, z'
loop_
 _atom_site_type_symbol
 _atom_site_label
 _atom_site_symmetry_multiplicity
 _atom_site_fract_x
 _atom_site_fract_y
 _atom_site_fract_z
 _atom_site_occupancy
  Li  Li0  1  0.72171000  0.80689100  0.77647500  1
  Li  Li1  1  0.22499200  0.80600600  0.28240800  1
  Li  Li2  1  0.03698700  0.68244600  0.47061900  1
  Li  Li3  1  0.34923900  0.55594000  0.15067500  1
  Li  Li4  1  0.96301300  0.31755400  0.52938100  1
  Li  Li5  1  0.65076100  0.44406000  0.84932500  1
  Li  Li6  1  0.77500800  0.19399400  0.71759200  1
  Li  Li7  1  0.27829000  0.19310900  0.22352500  1
  Li  Li8  1  0.09467800  0.07129600  0.40620100  1
  Li  Li9  1  0.90532200  0.92870400  0.59379900  1
  Li  Li10  1  0.58726100  0.05917700  0.90867600  1
  Li  Li11  1  0.41273900  0.94082300  0.09132400  1
  Mn  Mn0  1  0.75139500  0.49699000  0.25294700  1
  Mn  Mn1  1  0.24860500  0.50301000  0.74705300  1
  Ni  Ni0  1  0.12456400  0.75113800  0.87524400  1
  Ni  Ni1  1  0.93636400  0.62226400  0.06259400  1
  Ni  Ni2  1  0.61820500  0.74684200  0.37159900  1
  Ni  Ni3  1  0.43911500  0.62263200  0.56262800  1
  Ni  Ni4  1  0.06363600  0.37773600  0.93740600  1
  Ni  Ni5  1  0.87543600  0.24886200  0.12475600  1
  Ni  Ni6  1  0.56088500  0.37736800  0.43737200  1
  Ni  Ni7  1  0.18818600  0.13156000  0.81241500  1
  Ni  Ni8  1  0.38179500  0.25315800  0.62840100  1
  Ni  Ni9  1  0.00000000  0.00000000  0.00000000  1
  Ni  Ni10  1  0.81181400  0.86844000  0.18758500  1
  Ni  Ni11  1  0.69627900  0.12528100  0.31532600  1
  Ni  Ni12  1  0.50000000  0.00000000  0.50000000  1
  Ni  Ni13  1  0.30372100  0.87471900  0.68467400  1
  O  O0  1  0.86512100  0.72848000  0.93613900  1
  O  O1  1  0.89711500  0.75658400  0.32650100  1
  O  O2  1  0.38652500  0.77788100  0.81322300  1
  O  O3  1  0.19810500  0.63163000  0.01465100  1
  O  O4  1  0.35914300  0.74786600  0.42416500  1
  O  O5  1  0.98249200  0.47963400  0.81246600  1
  O  O6  1  0.01750800  0.52036600  0.18753400  1
  O  O7  1  0.16678400  0.58882600  0.61362900  1
  O  O8  1  0.80189500  0.36837000  0.98534900  1
  O  O9  1  0.83321600  0.41117400  0.38637100  1
  O  O10  1  0.68025000  0.60449000  0.12201100  1
  O  O11  1  0.69676700  0.64835800  0.49958000  1
  O  O12  1  0.31975000  0.39551000  0.87798900  1
  O  O13  1  0.47294200  0.46673400  0.28809600  1
  O  O14  1  0.52705800  0.53326600  0.71190400  1
  O  O15  1  0.13487900  0.27152000  0.06386100  1
  O  O16  1  0.30323300  0.35164200  0.50042000  1
  O  O17  1  0.91524100  0.11918800  0.86211300  1
  O  O18  1  0.95823200  0.12409400  0.25936500  1
  O  O19  1  0.10288500  0.24341600  0.67349900  1
  O  O20  1  0.73464900  0.99290000  0.05076700  1
  O  O21  1  0.78534300  0.03913400  0.44442500  1
  O  O22  1  0.61347500  0.22211900  0.18677700  1
  O  O23  1  0.64085700  0.25213400  0.57583500  1
  O  O24  1  0.26535100  0.00710000  0.94923300  1
  O  O25  1  0.42016000  0.11458900  0.36601100  1
  O  O26  1  0.46213700  0.16101500  0.76061300  1
  O  O27  1  0.08475900  0.88081200  0.13788700  1
  O  O28  1  0.21465700  0.96086600  0.55557500  1
  O  O29  1  0.04176800  0.87590600  0.74063500  1
  O  O30  1  0.53786300  0.83898500  0.23938700  1
  O  O31  1  0.57984000  0.88541100  0.63398900  1
loop_
_geom_bond_atom_site_label_1
_geom_bond_atom_site_label_2
_geom_bond_distance
_geom_bond_site_symmetry_2
Li0 O14 1.972667 1_555
Li0 O29 2.048241 1_655
Li0 O31 2.112258 1_555
Li0 O2 2.212088 1_555
Li0 O17 2.276954 1_565
Li0 O0 2.291630 1_555
Li1 O4 2.009725 1_555
Li1 O30 2.096921 1_555
Li1 O27 2.114181 1_555
Li1 O1 2.165692 1_455
Li1 O6 2.170746 1_555
Li1 O25 2.247079 1_565
Li2 O9 2.040160 1_455
Li2 O28 2.067949 1_555
Li2 O1 2.106607 1_455
Li2 O4 2.122443 1_555
Li2 O7 2.147904 1_555
Li2 O11 2.197446 1_455
Li3 O13 2.058287 1_555
Li3 O3 2.062718 1_555
Li3 O10 2.110310 1_555
Li3 O30 2.116005 1_555
Li3 O15 2.133146 1_555
Li3 O6 2.177248 1_555
Li4 O7 2.040160 1_655
Li4 O21 2.067949 1_555
Li4 O19 2.106607 1_655
Li4 O23 2.122443 1_555
Li4 O9 2.147904 1_555
Li4 O16 2.197446 1_655
Li5 O14 2.058287 1_555
Li5 O8 2.062718 1_555
Li5 O12 2.110310 1_555
Li5 O26 2.116005 1_555
Li5 O0 2.133146 1_555
Li5 O5 2.177248 1_555
Li6 O23 2.009725 1_555
Li6 O26 2.096921 1_555
Li6 O17 2.114181 1_555
Li6 O19 2.165692 1_655
Li6 O5 2.170746 1_555
Li6 O31 2.247079 1_545
Li7 O13 1.972667 1_555
Li7 O18 2.048241 1_455
Li7 O25 2.112258 1_555
Li7 O22 2.212088 1_555
Li7 O27 2.276954 1_545
Li7 O15 2.291630 1_555
Li8 O18 2.050715 1_455
Li8 O21 2.051492 1_455
Li8 O16 2.139661 1_555
Li8 O25 2.140575 1_555
Li8 O28 2.259938 1_545
Li8 O1 2.270597 1_445
Li9 O29 2.050715 1_655
Li9 O28 2.051492 1_655
Li9 O11 2.139661 1_555
Li9 O31 2.140575 1_555
Li9 O21 2.259938 1_565
Li9 O19 2.270597 1_665
Li10 O20 2.076002 1_546
Li10 O24 2.106090 1_555
Li10 O2 2.145169 1_545
Li10 O17 2.164662 1_555
Li10 O26 2.221950 1_555
Li10 O8 2.236450 1_555
Li11 O24 2.076002 1_564
Li11 O20 2.106090 1_555
Li11 O22 2.145169 1_565
Li11 O27 2.164662 1_555
Li11 O30 2.221950 1_555
Li11 O3 2.236450 1_555
Mn0 O13 1.847900 1_555
Mn0 O1 1.901115 1_555
Mn0 O9 1.914488 1_555
Mn0 O10 1.959214 1_555
Mn0 O22 1.971067 1_555
Mn0 O6 1.974533 1_655
Mn1 O14 1.847900 1_555
Mn1 O19 1.901115 1_555
Mn1 O7 1.914488 1_555
Mn1 O12 1.959214 1_555
Mn1 O2 1.971067 1_555
Mn1 O5 1.974533 1_455
Ni0 O24 1.881201 1_565
Ni0 O0 1.904890 1_455
Ni0 O2 1.920210 1_555
Ni0 O5 1.936498 1_455
Ni0 O29 2.096201 1_555
Ni0 O3 2.104367 1_556
Ni1 O3 1.862222 1_655
Ni1 O10 1.884428 1_555
Ni1 O8 1.884714 1_554
Ni1 O6 1.890937 1_655
Ni1 O27 1.902050 1_655
Ni1 O0 1.907062 1_554
Ni2 O4 1.900218 1_555
Ni2 O11 1.902661 1_555
Ni2 O30 1.924120 1_555
Ni2 O1 1.949966 1_555
Ni2 O13 2.072329 1_555
Ni2 O21 2.101438 1_565
Ni3 O7 1.895477 1_555
Ni3 O11 1.904215 1_555
Ni3 O31 1.912577 1_555
Ni3 O16 1.932979 1_555
Ni3 O14 2.110457 1_555
Ni3 O4 2.131900 1_555
Ni4 O8 1.862222 1_455
Ni4 O12 1.884428 1_555
Ni4 O3 1.884714 1_556
Ni4 O5 1.890937 1_455
Ni4 O17 1.902050 1_455
Ni4 O15 1.907062 1_556
Ni5 O20 1.881201 1_545
Ni5 O15 1.904890 1_655
Ni5 O22 1.920210 1_555
Ni5 O6 1.936498 1_655
Ni5 O18 2.096201 1_555
Ni5 O8 2.104367 1_554
Ni6 O9 1.895477 1_555
Ni6 O16 1.904215 1_555
Ni6 O25 1.912577 1_555
Ni6 O11 1.932979 1_555
Ni6 O13 2.110457 1_555
Ni6 O23 2.131900 1_555
Ni7 O29 1.869333 1_545
Ni7 O12 1.900385 1_555
Ni7 O26 1.917875 1_555
Ni7 O17 1.934036 1_455
Ni7 O19 2.086666 1_555
Ni7 O24 2.106414 1_555
Ni8 O23 1.900218 1_555
Ni8 O16 1.902661 1_555
Ni8 O26 1.924120 1_555
Ni8 O19 1.949966 1_555
Ni8 O14 2.072329 1_555
Ni8 O28 2.101438 1_545
Ni9 O20 1.906817 1_445
Ni9 O24 1.906817 1_554
Ni9 O0 1.942334 1_444
Ni9 O15 1.942334 1_555
Ni9 O17 2.107596 1_454
Ni9 O27 2.107596 1_545
Ni10 O18 1.869333 1_565
Ni10 O10 1.900385 1_555
Ni10 O30 1.917875 1_555
Ni10 O27 1.934036 1_655
Ni10 O1 2.086666 1_555
Ni10 O20 2.106414 1_555
Ni11 O21 1.883089 1_555
Ni11 O22 1.909554 1_555
Ni11 O18 1.939589 1_555
Ni11 O25 1.963252 1_555
Ni11 O9 2.060906 1_555
Ni11 O30 2.075718 1_545
Ni12 O4 1.865989 1_545
Ni12 O23 1.865989 1_555
Ni12 O21 1.993715 1_555
Ni12 O28 1.993715 1_545
Ni12 O31 2.037703 1_545
Ni12 O25 2.037703 1_555
Ni13 O28 1.883089 1_555
Ni13 O2 1.909554 1_555
Ni13 O29 1.939589 1_555
Ni13 O31 1.963252 1_555
Ni13 O7 2.060906 1_555
Ni13 O26 2.075718 1_565
