# generated using pymatgen
data_Li2AlFeO4
_symmetry_space_group_name_H-M   'P 1'
_cell_length_a   10.91757800
_cell_length_b   5.15811700
_cell_length_c   8.25800179
_cell_angle_alpha   51.23965402
_cell_angle_beta   90.00000000
_cell_angle_gamma   90.00000000
_symmetry_Int_Tables_number   1
_chemical_formula_structural   Li2AlFeO4
_chemical_formula_sum   'Li8 Al4 Fe4 O16'
_cell_volume   362.62671281
_cell_formula_units_Z   4
loop_
 _symmetry_equiv_pos_site_id
 _symmetry_equiv_pos_as_xyz
  1  'x, y, z'
loop_
 _atom_site_type_symbol
 _atom_site_label
 _atom_site_symmetry_multiplicity
 _atom_site_fract_x
 _atom_site_fract_y
 _atom_site_fract_z
 _atom_site_occupancy
  Li  Li0  1  0.16471600  0.31817500  0.99267100  1
  Li  Li1  1  0.92105600  0.53540600  0.76009500  1
  Li  Li2  1  0.42105600  0.46459400  0.73990500  1
  Li  Li3  1  0.66471600  0.68182500  0.50732900  1
  Li  Li4  1  0.33528400  0.31817500  0.49267100  1
  Li  Li5  1  0.57894400  0.53540600  0.26009500  1
  Li  Li6  1  0.07894400  0.46459400  0.23990500  1
  Li  Li7  1  0.83528400  0.68182500  0.00732900  1
  Al  Al0  1  0.58678900  0.92968800  0.75521200  1
  Al  Al1  1  0.08678900  0.07031200  0.74478800  1
  Al  Al2  1  0.91321100  0.92968800  0.25521200  1
  Al  Al3  1  0.41321100  0.07031200  0.24478800  1
  Fe  Fe0  1  0.33448400  0.82089200  0.99676600  1
  Fe  Fe1  1  0.83448400  0.17910800  0.50323400  1
  Fe  Fe2  1  0.16551600  0.82089200  0.49676600  1
  Fe  Fe3  1  0.66551600  0.17910800  0.00323400  1
  O  O0  1  0.66307800  0.83274900  0.97855200  1
  O  O1  1  0.16812400  0.73880400  0.97003700  1
  O  O2  1  0.93157400  0.96224300  0.74851900  1
  O  O3  1  0.59095600  0.57182900  0.76636200  1
  O  O4  1  0.09095600  0.42817100  0.73363800  1
  O  O5  1  0.43157400  0.03775700  0.75148100  1
  O  O6  1  0.66812400  0.26119600  0.52996300  1
  O  O7  1  0.16307800  0.16725100  0.52144800  1
  O  O8  1  0.83692200  0.83274900  0.47855200  1
  O  O9  1  0.33187600  0.73880400  0.47003700  1
  O  O10  1  0.56842600  0.96224300  0.24851900  1
  O  O11  1  0.90904400  0.57182900  0.26636200  1
  O  O12  1  0.40904400  0.42817100  0.23363800  1
  O  O13  1  0.06842600  0.03775700  0.25148100  1
  O  O14  1  0.83187600  0.26119600  0.02996300  1
  O  O15  1  0.33692200  0.16725100  0.02144800  1
loop_
_geom_bond_atom_site_label_1
_geom_bond_atom_site_label_2
_geom_bond_distance
_geom_bond_site_symmetry_2
Li0 O13 1.973406 1_556
Li0 O15 1.991366 1_556
Li0 O4 2.006602 1_555
Li0 O1 2.058139 1_555
Li1 O4 1.986365 1_655
Li1 O14 1.992031 1_556
Li1 O8 2.033870 1_555
Li1 O2 2.146198 1_555
Li2 O3 1.986365 1_555
Li2 O9 1.992031 1_555
Li2 O15 2.033870 1_556
Li2 O5 2.146198 1_555
Li3 O10 1.973406 1_555
Li3 O8 1.991366 1_555
Li3 O3 2.006602 1_555
Li3 O6 2.058139 1_555
Li4 O5 1.973406 1_555
Li4 O7 1.991366 1_555
Li4 O12 2.006602 1_555
Li4 O9 2.058139 1_555
Li5 O12 1.986365 1_555
Li5 O6 1.992031 1_555
Li5 O0 2.033870 1_554
Li5 O10 2.146198 1_555
Li6 O11 1.986365 1_455
Li6 O1 1.992031 1_554
Li6 O7 2.033870 1_555
Li6 O13 2.146198 1_555
Li7 O2 1.973406 1_554
Li7 O0 1.991366 1_554
Li7 O11 2.006602 1_555
Li7 O14 2.058139 1_555
Al0 O5 1.778131 1_565
Al0 O6 1.786004 1_565
Al0 O0 1.786225 1_555
Al0 O3 1.790252 1_555
Al1 O2 1.778131 1_445
Al1 O1 1.786004 1_545
Al1 O7 1.786225 1_555
Al1 O4 1.790252 1_555
Al2 O13 1.778131 1_665
Al2 O14 1.786004 1_565
Al2 O8 1.786225 1_555
Al2 O11 1.790252 1_555
Al3 O10 1.778131 1_545
Al3 O9 1.786004 1_545
Al3 O15 1.786225 1_555
Al3 O12 1.790252 1_555
Fe0 O12 1.905484 1_556
Fe0 O5 1.908056 1_565
Fe0 O1 1.908871 1_555
Fe0 O15 1.920939 1_566
Fe1 O11 1.905484 1_555
Fe1 O2 1.908056 1_545
Fe1 O6 1.908871 1_555
Fe1 O8 1.920939 1_545
Fe2 O4 1.905484 1_555
Fe2 O13 1.908056 1_565
Fe2 O9 1.908871 1_555
Fe2 O7 1.920939 1_565
Fe3 O3 1.905484 1_554
Fe3 O10 1.908056 1_545
Fe3 O14 1.908871 1_555
Fe3 O0 1.920939 1_544
