# generated using pymatgen
data_BaLaCl5
_symmetry_space_group_name_H-M   'P 1'
_cell_length_a   15.77385500
_cell_length_b   10.02385400
_cell_length_c   10.53784403
_cell_angle_alpha   77.12705092
_cell_angle_beta   90.00000000
_cell_angle_gamma   90.00000000
_symmetry_Int_Tables_number   1
_chemical_formula_structural   BaLaCl5
_chemical_formula_sum   'Ba8 La8 Cl40'
_cell_volume   1624.31211807
_cell_formula_units_Z   8
loop_
 _symmetry_equiv_pos_site_id
 _symmetry_equiv_pos_as_xyz
  1  'x, y, z'
loop_
 _atom_site_type_symbol
 _atom_site_label
 _atom_site_symmetry_multiplicity
 _atom_site_fract_x
 _atom_site_fract_y
 _atom_site_fract_z
 _atom_site_occupancy
  Ba  Ba0  1  0.97032800  0.78404100  0.70126400  1
  Ba  Ba1  1  0.51718100  0.71510600  0.67470300  1
  Ba  Ba2  1  0.52967200  0.78404100  0.20126400  1
  Ba  Ba3  1  0.98281900  0.71510600  0.17470300  1
  Ba  Ba4  1  0.01718100  0.28489400  0.82529700  1
  Ba  Ba5  1  0.47032800  0.21595900  0.79873600  1
  Ba  Ba6  1  0.48281900  0.28489400  0.32529700  1
  Ba  Ba7  1  0.02967200  0.21595900  0.29873600  1
  La  La0  1  0.23473800  0.98549600  0.61092800  1
  La  La1  1  0.26526200  0.98549600  0.11092800  1
  La  La2  1  0.25736600  0.56190600  0.96214400  1
  La  La3  1  0.24263400  0.56190600  0.46214400  1
  La  La4  1  0.75736600  0.43809400  0.53785600  1
  La  La5  1  0.74263400  0.43809400  0.03785600  1
  La  La6  1  0.73473800  0.01450400  0.88907200  1
  La  La7  1  0.76526200  0.01450400  0.38907200  1
  Cl  Cl0  1  0.91588500  0.94194700  0.92939300  1
  Cl  Cl1  1  0.56168100  0.91551100  0.87702100  1
  Cl  Cl2  1  0.58411500  0.94194700  0.42939300  1
  Cl  Cl3  1  0.78929200  0.92288500  0.66605000  1
  Cl  Cl4  1  0.93831900  0.91551100  0.37702100  1
  Cl  Cl5  1  0.14700500  0.80441100  0.85470000  1
  Cl  Cl6  1  0.71070800  0.92288500  0.16605000  1
  Cl  Cl7  1  0.74293700  0.72431000  0.96681600  1
  Cl  Cl8  1  0.35299500  0.80441100  0.35470000  1
  Cl  Cl9  1  0.13433600  0.78043200  0.51804900  1
  Cl  Cl10  1  0.32106400  0.73135500  0.69604400  1
  Cl  Cl11  1  0.75706300  0.72431000  0.46681600  1
  Cl  Cl12  1  0.36566400  0.78043200  0.01804900  1
  Cl  Cl13  1  0.17893600  0.73135500  0.19604400  1
  Cl  Cl14  1  0.67236200  0.52290200  0.76052700  1
  Cl  Cl15  1  0.90815100  0.52914400  0.93507800  1
  Cl  Cl16  1  0.42345400  0.47823500  0.89584100  1
  Cl  Cl17  1  0.92345400  0.52176500  0.60415900  1
  Cl  Cl18  1  0.40815100  0.47085600  0.56492200  1
  Cl  Cl19  1  0.17236200  0.47709800  0.73947300  1
  Cl  Cl20  1  0.82763800  0.52290200  0.26052700  1
  Cl  Cl21  1  0.59184900  0.52914400  0.43507800  1
  Cl  Cl22  1  0.07654600  0.47823500  0.39584100  1
  Cl  Cl23  1  0.57654600  0.52176500  0.10415900  1
  Cl  Cl24  1  0.09184900  0.47085600  0.06492200  1
  Cl  Cl25  1  0.32763800  0.47709800  0.23947300  1
  Cl  Cl26  1  0.82106400  0.26864500  0.80395600  1
  Cl  Cl27  1  0.63433600  0.21956800  0.98195100  1
  Cl  Cl28  1  0.24293700  0.27569000  0.53318400  1
  Cl  Cl29  1  0.67893600  0.26864500  0.30395600  1
  Cl  Cl30  1  0.86566400  0.21956800  0.48195100  1
  Cl  Cl31  1  0.64700500  0.19558900  0.64530000  1
  Cl  Cl32  1  0.25706300  0.27569000  0.03318400  1
  Cl  Cl33  1  0.28929200  0.07711500  0.83395000  1
  Cl  Cl34  1  0.85299500  0.19558900  0.14530000  1
  Cl  Cl35  1  0.06168100  0.08448900  0.62297900  1
  Cl  Cl36  1  0.21070800  0.07711500  0.33395000  1
  Cl  Cl37  1  0.41588500  0.05805300  0.57060700  1
  Cl  Cl38  1  0.43831900  0.08448900  0.12297900  1
  Cl  Cl39  1  0.08411500  0.05805300  0.07060700  1
loop_
_geom_bond_atom_site_label_1
_geom_bond_atom_site_label_2
_geom_bond_distance
_geom_bond_site_symmetry_2
Ba0 Cl17 3.115159 1_555
Ba0 Cl3 3.162152 1_555
Ba0 Cl9 3.233074 1_655
Ba0 Cl5 3.251123 1_655
Ba0 Cl0 3.273754 1_555
Ba0 Cl35 3.274139 1_665
Ba0 Cl15 3.279616 1_555
Ba0 Cl4 3.414664 1_555
Ba1 Cl10 3.108585 1_555
Ba1 Cl14 3.121725 1_555
Ba1 Cl2 3.216883 1_555
Ba1 Cl16 3.284561 1_555
Ba1 Cl1 3.313888 1_555
Ba1 Cl18 3.398889 1_555
Ba1 Cl21 3.651787 1_555
Ba1 Cl37 3.727405 1_565
Ba2 Cl23 3.115159 1_555
Ba2 Cl6 3.162152 1_555
Ba2 Cl12 3.233074 1_555
Ba2 Cl8 3.251123 1_555
Ba2 Cl2 3.273754 1_555
Ba2 Cl38 3.274139 1_565
Ba2 Cl21 3.279616 1_555
Ba2 Cl1 3.414664 1_554
Ba3 Cl13 3.108585 1_655
Ba3 Cl20 3.121725 1_555
Ba3 Cl0 3.216883 1_554
Ba3 Cl22 3.284561 1_655
Ba3 Cl4 3.313888 1_555
Ba3 Cl24 3.398889 1_655
Ba3 Cl15 3.651787 1_554
Ba3 Cl39 3.727405 1_665
Ba4 Cl26 3.108585 1_455
Ba4 Cl19 3.121725 1_555
Ba4 Cl39 3.216883 1_556
Ba4 Cl17 3.284561 1_455
Ba4 Cl35 3.313888 1_555
Ba4 Cl15 3.398889 1_455
Ba4 Cl24 3.651787 1_556
Ba4 Cl0 3.727405 1_445
Ba5 Cl16 3.115159 1_555
Ba5 Cl33 3.162152 1_555
Ba5 Cl27 3.233074 1_555
Ba5 Cl31 3.251123 1_555
Ba5 Cl37 3.273754 1_555
Ba5 Cl1 3.274139 1_545
Ba5 Cl18 3.279616 1_555
Ba5 Cl38 3.414664 1_556
Ba6 Cl29 3.108585 1_555
Ba6 Cl25 3.121725 1_555
Ba6 Cl37 3.216883 1_555
Ba6 Cl23 3.284561 1_555
Ba6 Cl38 3.313888 1_555
Ba6 Cl21 3.398889 1_555
Ba6 Cl18 3.651787 1_555
Ba6 Cl2 3.727405 1_545
Ba7 Cl22 3.115159 1_555
Ba7 Cl36 3.162152 1_555
Ba7 Cl30 3.233074 1_455
Ba7 Cl34 3.251123 1_455
Ba7 Cl39 3.273754 1_555
Ba7 Cl4 3.274139 1_445
Ba7 Cl24 3.279616 1_555
Ba7 Cl35 3.414664 1_555
Cl0 La6 2.955751 1_565
Cl1 La6 2.916950 1_565
Cl2 La7 2.955751 1_565
Cl3 La6 2.840587 1_565
Cl3 La7 2.883022 1_565
Cl4 La7 2.916950 1_565
Cl5 La2 2.999166 1_555
Cl5 La0 3.119487 1_555
Cl6 La7 2.840587 1_565
Cl6 La6 2.883022 1_564
Cl7 La5 2.799024 1_556
Cl7 La6 2.843857 1_565
Cl8 La3 2.999166 1_555
Cl8 La1 3.119487 1_555
Cl9 La0 2.930491 1_555
Cl9 La3 2.939122 1_555
Cl10 La0 2.851352 1_555
Cl10 La2 3.104095 1_555
Cl10 La3 3.515142 1_555
Cl11 La4 2.799024 1_555
Cl11 La7 2.843857 1_565
Cl12 La1 2.930491 1_555
Cl12 La2 2.939122 1_554
Cl13 La1 2.851352 1_555
Cl13 La3 3.104095 1_555
Cl13 La2 3.515142 1_554
Cl14 La4 2.985846 1_555
Cl14 La5 3.063508 1_556
Cl15 La5 2.895174 1_556
Cl16 La2 2.883801 1_555
Cl17 La4 2.883801 1_555
Cl18 La3 2.895174 1_555
Cl19 La2 2.985846 1_555
Cl19 La3 3.063508 1_555
Cl20 La5 2.985846 1_555
Cl20 La4 3.063508 1_555
Cl21 La4 2.895174 1_555
Cl22 La3 2.883801 1_555
Cl23 La5 2.883801 1_555
Cl24 La2 2.895174 1_554
Cl25 La3 2.985846 1_555
Cl25 La2 3.063508 1_554
Cl26 La6 2.851352 1_555
Cl26 La4 3.104095 1_555
Cl26 La5 3.515142 1_556
Cl27 La6 2.930491 1_555
Cl27 La5 2.939122 1_556
Cl28 La3 2.799024 1_555
Cl28 La0 2.843857 1_545
Cl29 La7 2.851352 1_555
Cl29 La5 3.104095 1_555
Cl29 La4 3.515142 1_555
Cl30 La7 2.930491 1_555
Cl30 La4 2.939122 1_555
Cl31 La4 2.999166 1_555
Cl31 La6 3.119487 1_555
Cl32 La2 2.799024 1_554
Cl32 La1 2.843857 1_545
Cl33 La0 2.840587 1_545
Cl33 La1 2.883022 1_546
Cl34 La5 2.999166 1_555
Cl34 La7 3.119487 1_555
Cl35 La0 2.916950 1_545
Cl36 La1 2.840587 1_545
Cl36 La0 2.883022 1_545
Cl37 La0 2.955751 1_545
Cl38 La1 2.916950 1_545
Cl39 La1 2.955751 1_545
