# generated using pymatgen
data_Na3PH22(SO4)3
_symmetry_space_group_name_H-M   'P 1'
_cell_length_a   9.53422200
_cell_length_b   12.99038300
_cell_length_c   14.28264500
_cell_angle_alpha   90.00000000
_cell_angle_beta   90.00000000
_cell_angle_gamma   90.00000000
_symmetry_Int_Tables_number   1
_chemical_formula_structural   Na3PH22(SO4)3
_chemical_formula_sum   'Na12 P4 H88 S12 O48'
_cell_volume   1768.95122183
_cell_formula_units_Z   4
loop_
 _symmetry_equiv_pos_site_id
 _symmetry_equiv_pos_as_xyz
  1  'x, y, z'
loop_
 _atom_site_type_symbol
 _atom_site_label
 _atom_site_symmetry_multiplicity
 _atom_site_fract_x
 _atom_site_fract_y
 _atom_site_fract_z
 _atom_site_occupancy
  Na  Na0  1  0.01469600  0.99079000  0.39935200  1
  Na  Na1  1  0.99367400  0.20783700  0.76696200  1
  Na  Na2  1  0.00674500  0.23668200  0.46113700  1
  Na  Na3  1  0.50674500  0.26331800  0.96113700  1
  Na  Na4  1  0.49367400  0.29216300  0.26696200  1
  Na  Na5  1  0.51469600  0.50921000  0.89935200  1
  Na  Na6  1  0.48530400  0.49079000  0.39935200  1
  Na  Na7  1  0.50632600  0.70783700  0.76696200  1
  Na  Na8  1  0.49325500  0.73668200  0.46113700  1
  Na  Na9  1  0.99325500  0.76331800  0.96113700  1
  Na  Na10  1  0.00632600  0.79216300  0.26696200  1
  Na  Na11  1  0.98530400  0.00921000  0.89935200  1
  P  P0  1  0.47523600  0.08833500  0.59759100  1
  P  P1  1  0.97523600  0.41166500  0.09759100  1
  P  P2  1  0.02476400  0.58833500  0.59759100  1
  P  P3  1  0.52476400  0.91166500  0.09759100  1
  H  H0  1  0.85536800  0.99657100  0.20914500  1
  H  H1  1  0.00925200  0.03399100  0.18387500  1
  H  H2  1  0.37176800  0.06166000  0.96269200  1
  H  H3  1  0.74133500  0.07663200  0.76045500  1
  H  H4  1  0.09416500  0.07987700  0.58403700  1
  H  H5  1  0.45206400  0.08212100  0.29239200  1
  H  H6  1  0.22496000  0.07881700  0.51626200  1
  H  H7  1  0.76790400  0.10015700  0.44930500  1
  H  H8  1  0.38679200  0.09192300  0.85418000  1
  H  H9  1  0.66488300  0.08048500  0.01145500  1
  H  H10  1  0.12205800  0.12163500  0.30087100  1
  H  H11  1  0.73807600  0.11845400  0.86722000  1
  H  H12  1  0.19684300  0.15348000  0.91810600  1
  H  H13  1  0.78474700  0.15021200  0.34754100  1
  H  H14  1  0.40121000  0.11457200  0.39227600  1
  H  H15  1  0.67603600  0.13957400  0.21166700  1
  H  H16  1  0.34807900  0.17672900  0.10989400  1
  H  H17  1  0.76973200  0.17771000  0.02659700  1
  H  H18  1  0.17179800  0.22869900  0.27915700  1
  H  H19  1  0.06523700  0.20372400  0.97154600  1
  H  H20  1  0.79529400  0.20809700  0.60593500  1
  H  H21  1  0.78884100  0.22815700  0.20072000  1
  H  H22  1  0.28884100  0.27184300  0.70072000  1
  H  H23  1  0.29529400  0.29190300  0.10593500  1
  H  H24  1  0.56523700  0.29627600  0.47154600  1
  H  H25  1  0.67179800  0.27130100  0.77915700  1
  H  H26  1  0.26973200  0.32229000  0.52659700  1
  H  H27  1  0.84807900  0.32327100  0.60989400  1
  H  H28  1  0.17603600  0.36042600  0.71166700  1
  H  H29  1  0.90121000  0.38542800  0.89227600  1
  H  H30  1  0.28474700  0.34978800  0.84754100  1
  H  H31  1  0.69684300  0.34652000  0.41810600  1
  H  H32  1  0.23807600  0.38154600  0.36722000  1
  H  H33  1  0.62205800  0.37836500  0.80087100  1
  H  H34  1  0.16488300  0.41951500  0.51145500  1
  H  H35  1  0.88679200  0.40807700  0.35418000  1
  H  H36  1  0.26790400  0.39984300  0.94930500  1
  H  H37  1  0.72496000  0.42118300  0.01626200  1
  H  H38  1  0.95206400  0.41787900  0.79239200  1
  H  H39  1  0.59416500  0.42012300  0.08403700  1
  H  H40  1  0.24133500  0.42336800  0.26045500  1
  H  H41  1  0.87176800  0.43834000  0.46269200  1
  H  H42  1  0.50925200  0.46600900  0.68387500  1
  H  H43  1  0.35536800  0.50342900  0.70914500  1
  H  H44  1  0.64463200  0.49657100  0.20914500  1
  H  H45  1  0.49074800  0.53399100  0.18387500  1
  H  H46  1  0.12823200  0.56166000  0.96269200  1
  H  H47  1  0.75866500  0.57663200  0.76045500  1
  H  H48  1  0.40583500  0.57987700  0.58403700  1
  H  H49  1  0.04793600  0.58212100  0.29239200  1
  H  H50  1  0.27504000  0.57881700  0.51626200  1
  H  H51  1  0.73209600  0.60015700  0.44930500  1
  H  H52  1  0.11320800  0.59192300  0.85418000  1
  H  H53  1  0.83511700  0.58048500  0.01145500  1
  H  H54  1  0.37794200  0.62163500  0.30087100  1
  H  H55  1  0.76192400  0.61845400  0.86722000  1
  H  H56  1  0.30315700  0.65348000  0.91810600  1
  H  H57  1  0.71525300  0.65021200  0.34754100  1
  H  H58  1  0.09879000  0.61457200  0.39227600  1
  H  H59  1  0.82396400  0.63957400  0.21166700  1
  H  H60  1  0.15192100  0.67672900  0.10989400  1
  H  H61  1  0.73026800  0.67771000  0.02659700  1
  H  H62  1  0.32820200  0.72869900  0.27915700  1
  H  H63  1  0.43476300  0.70372400  0.97154600  1
  H  H64  1  0.70470600  0.70809700  0.60593500  1
  H  H65  1  0.71115900  0.72815700  0.20072000  1
  H  H66  1  0.21115900  0.77184300  0.70072000  1
  H  H67  1  0.20470600  0.79190300  0.10593500  1
  H  H68  1  0.93476300  0.79627600  0.47154600  1
  H  H69  1  0.82820200  0.77130100  0.77915700  1
  H  H70  1  0.23026800  0.82229000  0.52659700  1
  H  H71  1  0.65192100  0.82327100  0.60989400  1
  H  H72  1  0.32396400  0.86042600  0.71166700  1
  H  H73  1  0.59879000  0.88542800  0.89227600  1
  H  H74  1  0.21525300  0.84978800  0.84754100  1
  H  H75  1  0.80315700  0.84652000  0.41810600  1
  H  H76  1  0.26192400  0.88154600  0.36722000  1
  H  H77  1  0.87794200  0.87836500  0.80087100  1
  H  H78  1  0.33511700  0.91951500  0.51145500  1
  H  H79  1  0.61320800  0.90807700  0.35418000  1
  H  H80  1  0.23209600  0.89984300  0.94930500  1
  H  H81  1  0.77504000  0.92118300  0.01626200  1
  H  H82  1  0.54793600  0.91787900  0.79239200  1
  H  H83  1  0.90583500  0.92012300  0.08403700  1
  H  H84  1  0.25866500  0.92336800  0.26045500  1
  H  H85  1  0.62823200  0.93834000  0.46269200  1
  H  H86  1  0.99074800  0.96600900  0.68387500  1
  H  H87  1  0.14463200  0.00342900  0.70914500  1
  S  S0  1  0.38382200  0.02350400  0.71587400  1
  S  S1  1  0.68204600  0.03996800  0.59193100  1
  S  S2  1  0.96792000  0.25427600  0.10332000  1
  S  S3  1  0.46792000  0.24572400  0.60332000  1
  S  S4  1  0.18204600  0.46003200  0.09193100  1
  S  S5  1  0.88382200  0.47649600  0.21587400  1
  S  S6  1  0.11617800  0.52350400  0.71587400  1
  S  S7  1  0.81795400  0.53996800  0.59193100  1
  S  S8  1  0.53208000  0.75427600  0.10332000  1
  S  S9  1  0.03208000  0.74572400  0.60332000  1
  S  S10  1  0.31795400  0.96003200  0.09193100  1
  S  S11  1  0.61617800  0.97649600  0.21587400  1
  O  O0  1  0.04392800  0.02348500  0.71030700  1
  O  O1  1  0.39416500  0.04836800  0.51048000  1
  O  O2  1  0.11984900  0.08677100  0.51778300  1
  O  O3  1  0.79931900  0.09931700  0.81380400  1
  O  O4  1  0.36990500  0.12003400  0.91825700  1
  O  O5  1  0.83665900  0.11720200  0.39990200  1
  O  O6  1  0.40082700  0.13661900  0.32574500  1
  O  O7  1  0.09262000  0.16183600  0.91634900  1
  O  O8  1  0.69244800  0.15005600  0.98806000  1
  O  O9  1  0.09588600  0.19295500  0.31141400  1
  O  O10  1  0.70807700  0.20542100  0.23985300  1
  O  O11  1  0.37967000  0.24817100  0.11402800  1
  O  O12  1  0.87967000  0.25182900  0.61402800  1
  O  O13  1  0.20807700  0.29457900  0.73985300  1
  O  O14  1  0.59588600  0.30704500  0.81141400  1
  O  O15  1  0.19244800  0.34994400  0.48806000  1
  O  O16  1  0.59262000  0.33816400  0.41634900  1
  O  O17  1  0.90082700  0.36338100  0.82574500  1
  O  O18  1  0.33665900  0.38279800  0.89990200  1
  O  O19  1  0.86990500  0.37996600  0.41825700  1
  O  O20  1  0.29931900  0.40068300  0.31380400  1
  O  O21  1  0.61984900  0.41322900  0.01778300  1
  O  O22  1  0.89416500  0.45163200  0.01048000  1
  O  O23  1  0.54392800  0.47651500  0.21030700  1
  O  O24  1  0.45607200  0.52348500  0.71030700  1
  O  O25  1  0.10583500  0.54836800  0.51048000  1
  O  O26  1  0.38015100  0.58677100  0.51778300  1
  O  O27  1  0.70068100  0.59931700  0.81380400  1
  O  O28  1  0.13009500  0.62003400  0.91825700  1
  O  O29  1  0.66334100  0.61720200  0.39990200  1
  O  O30  1  0.09917300  0.63661900  0.32574500  1
  O  O31  1  0.40738000  0.66183600  0.91634900  1
  O  O32  1  0.80755200  0.65005600  0.98806000  1
  O  O33  1  0.40411400  0.69295500  0.31141400  1
  O  O34  1  0.79192300  0.70542100  0.23985300  1
  O  O35  1  0.12033000  0.74817100  0.11402800  1
  O  O36  1  0.62033000  0.75182900  0.61402800  1
  O  O37  1  0.29192300  0.79457900  0.73985300  1
  O  O38  1  0.90411400  0.80704500  0.81141400  1
  O  O39  1  0.30755200  0.84994400  0.48806000  1
  O  O40  1  0.90738000  0.83816400  0.41634900  1
  O  O41  1  0.59917300  0.86338100  0.82574500  1
  O  O42  1  0.16334100  0.88279800  0.89990200  1
  O  O43  1  0.63009500  0.87996600  0.41825700  1
  O  O44  1  0.20068100  0.90068300  0.31380400  1
  O  O45  1  0.88015100  0.91322900  0.01778300  1
  O  O46  1  0.60583500  0.95163200  0.01048000  1
  O  O47  1  0.95607200  0.97651500  0.21030700  1
loop_
_geom_bond_atom_site_label_1
_geom_bond_atom_site_label_2
_geom_bond_distance
_geom_bond_site_symmetry_2
Na0 O40 2.244282 1_455
Na0 O2 2.328281 1_565
Na0 O5 2.361780 1_465
Na0 O44 2.450993 1_555
Na0 O47 2.763536 1_455
Na1 O17 2.360347 1_555
Na1 O13 2.366059 1_655
Na1 O7 2.408209 1_655
Na1 O3 2.422518 1_555
Na1 O12 2.505832 1_555
Na1 O0 2.572825 1_655
Na2 O15 2.333972 1_555
Na2 O19 2.354085 1_455
Na2 O2 2.368501 1_555
Na2 O9 2.370211 1_555
Na2 O5 2.409070 1_455
Na2 O12 2.505013 1_455
Na3 O8 2.333972 1_555
Na3 O4 2.354085 1_555
Na3 O21 2.368501 1_556
Na3 O14 2.370211 1_555
Na3 O18 2.409070 1_555
Na3 O11 2.505013 1_556
Na4 O6 2.360347 1_555
Na4 O10 2.366059 1_555
Na4 O16 2.408209 1_555
Na4 O20 2.422518 1_555
Na4 O11 2.505832 1_555
Na4 O23 2.572825 1_555
Na5 O31 2.244282 1_555
Na5 O21 2.328281 1_556
Na5 O18 2.361780 1_555
Na5 O27 2.450993 1_555
Na5 O24 2.763536 1_555
Na6 O16 2.244282 1_555
Na6 O26 2.328281 1_555
Na6 O29 2.361780 1_555
Na6 O20 2.450993 1_555
Na6 O23 2.763536 1_555
Na7 O41 2.360347 1_555
Na7 O37 2.366059 1_555
Na7 O31 2.408209 1_555
Na7 O27 2.422518 1_555
Na7 O36 2.505832 1_555
Na7 O24 2.572825 1_555
Na8 O39 2.333972 1_555
Na8 O43 2.354085 1_555
Na8 O26 2.368501 1_555
Na8 O33 2.370211 1_555
Na8 O29 2.409070 1_555
Na8 O36 2.505013 1_555
Na9 O32 2.333972 1_555
Na9 O28 2.354085 1_655
Na9 O45 2.368501 1_556
Na9 O38 2.370211 1_555
Na9 O42 2.409070 1_655
Na9 O35 2.505013 1_656
Na10 O30 2.360347 1_555
Na10 O34 2.366059 1_455
Na10 O40 2.408209 1_455
Na10 O44 2.422518 1_555
Na10 O35 2.505832 1_555
Na10 O47 2.572825 1_455
Na11 O7 2.244282 1_655
Na11 O45 2.328281 1_546
Na11 O42 2.361780 1_645
Na11 O3 2.450993 1_555
Na11 O0 2.763536 1_655
P0 S3 2.047369 1_555
P0 S1 2.071036 1_555
P0 S0 2.079168 1_555
P1 S2 2.047369 1_555
P1 S4 2.071036 1_655
P1 S5 2.079168 1_555
P2 S9 2.047369 1_555
P2 S7 2.071036 1_455
P2 S6 2.079168 1_555
P3 S8 2.047369 1_555
P3 S10 2.071036 1_555
P3 S11 2.079168 1_555
H0 O47 0.994993 1_555
H1 O47 0.978297 1_445
H2 O4 0.988997 1_555
H3 O3 0.986435 1_555
H4 O2 0.981547 1_555
H5 O6 0.983238 1_555
H6 O2 1.007698 1_555
H6 O1 1.663073 1_555
H7 O5 0.988241 1_555
H8 O4 0.998421 1_555
H9 O8 0.998745 1_554
H10 O9 0.971233 1_555
H10 Na0 2.432137 1_545
H11 O3 0.992368 1_555
H12 O7 0.999911 1_555
H13 O5 0.994048 1_555
H14 O6 0.992467 1_555
H15 O10 0.993507 1_555
H16 O11 0.977496 1_555
H17 O8 0.987390 1_554
H18 O9 0.975546 1_555
H19 O7 0.992855 1_555
H20 O12 0.991589 1_555
H21 O10 0.996273 1_555
H22 O13 0.996273 1_555
H23 O11 0.991589 1_555
H24 O16 0.992855 1_555
H25 O14 0.975546 1_555
H26 O15 0.987390 1_555
H27 O12 0.977496 1_555
H28 O13 0.993507 1_555
H29 O17 0.992467 1_555
H30 O18 0.994048 1_555
H31 O16 0.999911 1_555
H32 O20 0.992368 1_555
H33 O14 0.971233 1_555
H33 Na5 2.432137 1_555
H34 O15 0.998745 1_555
H35 O19 0.998421 1_555
H36 O18 0.988241 1_555
H37 O21 1.007698 1_555
H37 O22 1.663073 1_555
H38 O17 0.983238 1_555
H39 O21 0.981547 1_555
H40 O20 0.986435 1_555
H41 O19 0.988997 1_555
H42 O24 0.978297 1_555
H43 O24 0.994993 1_555
H44 O23 0.994993 1_555
H45 O23 0.978297 1_555
H46 O28 0.988997 1_555
H47 O27 0.986435 1_555
H48 O26 0.981547 1_555
H49 O30 0.983238 1_555
H50 O26 1.007698 1_555
H50 O25 1.663073 1_555
H51 O29 0.988241 1_555
H52 O28 0.998421 1_555
H53 O32 0.998745 1_554
H54 O33 0.971233 1_555
H54 Na6 2.432137 1_555
H55 O27 0.992368 1_555
H56 O31 0.999911 1_555
H57 O29 0.994048 1_555
H58 O30 0.992467 1_555
H59 O34 0.993507 1_555
H60 O35 0.977496 1_555
H61 O32 0.987390 1_554
H62 O33 0.975546 1_555
H63 O31 0.992855 1_555
H64 O36 0.991589 1_555
H65 O34 0.996273 1_555
H66 O37 0.996273 1_555
H67 O35 0.991589 1_555
H68 O40 0.992855 1_555
H69 O38 0.975546 1_555
H70 O39 0.987390 1_555
H71 O36 0.977496 1_555
H72 O37 0.993507 1_555
H73 O41 0.992467 1_555
H74 O42 0.994048 1_555
H75 O40 0.999911 1_555
H76 O44 0.992368 1_555
H77 O38 0.971233 1_555
H77 Na11 2.432137 1_565
H78 O39 0.998745 1_555
H79 O43 0.998421 1_555
H80 O42 0.988241 1_555
H81 O45 1.007698 1_555
H81 O46 1.663073 1_555
H82 O41 0.983238 1_555
H83 O45 0.981547 1_555
H84 O44 0.986435 1_555
H85 O43 0.988997 1_555
H86 O0 0.978297 1_665
H87 O0 0.994993 1_555
O1 P0 1.554020 1_555
O22 P1 1.554020 1_555
O25 P2 1.554020 1_555
O46 P3 1.554020 1_555
