# generated using pymatgen
data_BH5(NF2)2
_symmetry_space_group_name_H-M   'P 1'
_cell_length_a   7.54063017
_cell_length_b   7.54063017
_cell_length_c   12.45861285
_cell_angle_alpha   68.88250998
_cell_angle_beta   68.88250998
_cell_angle_gamma   41.68613228
_symmetry_Int_Tables_number   1
_chemical_formula_structural   BH5(NF2)2
_chemical_formula_sum   'B4 H20 N8 F16'
_cell_volume   434.71164933
_cell_formula_units_Z   4
loop_
 _symmetry_equiv_pos_site_id
 _symmetry_equiv_pos_as_xyz
  1  'x, y, z'
loop_
 _atom_site_type_symbol
 _atom_site_label
 _atom_site_symmetry_multiplicity
 _atom_site_fract_x
 _atom_site_fract_y
 _atom_site_fract_z
 _atom_site_occupancy
  B  B0  1  0.96358400  0.81998800  0.42187400  1
  B  B1  1  0.18001200  0.03641600  0.07812600  1
  B  B2  1  0.03641600  0.18001200  0.57812600  1
  B  B3  1  0.81998800  0.96358400  0.92187400  1
  H  H0  1  0.22141100  0.61160800  0.12390100  1
  H  H1  1  0.38839200  0.77858900  0.37609900  1
  H  H2  1  0.77858900  0.38839200  0.87609900  1
  H  H3  1  0.61160800  0.22141100  0.62390100  1
  H  H4  1  0.28947100  0.37555300  0.08287200  1
  H  H5  1  0.62444700  0.71052900  0.41712800  1
  H  H6  1  0.71052900  0.62444700  0.91712800  1
  H  H7  1  0.37555300  0.28947100  0.58287200  1
  H  H8  1  0.05054200  0.52046700  0.19819200  1
  H  H9  1  0.47953300  0.94945800  0.30180800  1
  H  H10  1  0.94945800  0.47953300  0.80180800  1
  H  H11  1  0.52046700  0.05054200  0.69819200  1
  H  H12  1  0.61778500  0.17523800  0.18988600  1
  H  H13  1  0.82476200  0.38221500  0.31011400  1
  H  H14  1  0.38221500  0.82476200  0.81011400  1
  H  H15  1  0.17523800  0.61778500  0.68988600  1
  H  H16  1  0.37584100  0.32728000  0.30011700  1
  H  H17  1  0.67272000  0.62415900  0.19988300  1
  H  H18  1  0.62415900  0.67272000  0.69988300  1
  H  H19  1  0.32728000  0.37584100  0.80011700  1
  N  N0  1  0.23778800  0.45316600  0.15392000  1
  N  N1  1  0.54683400  0.76221200  0.34608000  1
  N  N2  1  0.76221200  0.54683400  0.84608000  1
  N  N3  1  0.45316600  0.23778800  0.65392000  1
  N  N4  1  0.43635500  0.23952600  0.23171300  1
  N  N5  1  0.76047400  0.56364500  0.26828700  1
  N  N6  1  0.56364500  0.76047400  0.76828700  1
  N  N7  1  0.23952600  0.43635500  0.73171300  1
  F  F0  1  0.92900900  0.77735300  0.33245500  1
  F  F1  1  0.22264700  0.07099100  0.16754500  1
  F  F2  1  0.07099100  0.22264700  0.66754500  1
  F  F3  1  0.77735300  0.92900900  0.83245500  1
  F  F4  1  0.83383700  0.78813400  0.52961900  1
  F  F5  1  0.21186600  0.16616300  0.97038100  1
  F  F6  1  0.16616300  0.21186600  0.47038100  1
  F  F7  1  0.78813400  0.83383700  0.02961900  1
  F  F8  1  0.24665700  0.62526900  0.42577800  1
  F  F9  1  0.37473100  0.75334300  0.07422200  1
  F  F10  1  0.75334300  0.37473100  0.57422200  1
  F  F11  1  0.62526900  0.24665700  0.92577800  1
  F  F12  1  0.85461900  0.08185100  0.39918700  1
  F  F13  1  0.91814900  0.14538100  0.10081300  1
  F  F14  1  0.14538100  0.91814900  0.60081300  1
  F  F15  1  0.08185100  0.85461900  0.89918700  1
loop_
_geom_bond_atom_site_label_1
_geom_bond_atom_site_label_2
_geom_bond_distance
_geom_bond_site_symmetry_2
B0 F4 1.410376 1_555
B0 F12 1.412792 1_565
B0 F0 1.415967 1_555
B0 F8 1.434136 1_655
B1 F5 1.410376 1_554
B1 F13 1.412792 1_455
B1 F1 1.415967 1_555
B1 F9 1.434136 1_545
B2 F6 1.410376 1_555
B2 F14 1.412792 1_545
B2 F2 1.415967 1_555
B2 F10 1.434136 1_455
B3 F7 1.410376 1_556
B3 F15 1.412792 1_655
B3 F3 1.415967 1_555
B3 F11 1.434136 1_565
H0 N0 1.036096 1_555
H1 N1 1.036096 1_555
H2 N2 1.036096 1_555
H3 N3 1.036096 1_555
H4 N0 1.030511 1_555
H5 N1 1.030511 1_555
H6 N2 1.030511 1_555
H7 N3 1.030511 1_555
H8 N0 1.060977 1_555
H9 N1 1.060977 1_555
H10 N2 1.060977 1_555
H11 N3 1.060977 1_555
H12 N4 1.027613 1_555
H13 N5 1.027613 1_555
H14 N6 1.027613 1_555
H15 N7 1.027613 1_555
H16 N4 1.023481 1_555
H17 N5 1.023481 1_555
H18 N6 1.023481 1_555
H19 N7 1.023481 1_555
