# generated using pymatgen
data_KB3(H3O4)2
_symmetry_space_group_name_H-M   'P 1'
_cell_length_a   9.65843851
_cell_length_b   9.65843851
_cell_length_c   17.00555057
_cell_angle_alpha   73.70461791
_cell_angle_beta   73.70461791
_cell_angle_gamma   38.03191118
_symmetry_Int_Tables_number   1
_chemical_formula_structural   KB3(H3O4)2
_chemical_formula_sum   'K4 B12 H24 O32'
_cell_volume   933.32715935
_cell_formula_units_Z   4
loop_
 _symmetry_equiv_pos_site_id
 _symmetry_equiv_pos_as_xyz
  1  'x, y, z'
loop_
 _atom_site_type_symbol
 _atom_site_label
 _atom_site_symmetry_multiplicity
 _atom_site_fract_x
 _atom_site_fract_y
 _atom_site_fract_z
 _atom_site_occupancy
  K  K0  1  0.92154400  0.07845600  0.25000000  1
  K  K1  1  0.07845600  0.92154400  0.75000000  1
  K  K2  1  0.00000000  0.50000000  0.00000000  1
  K  K3  1  0.50000000  0.00000000  0.50000000  1
  B  B0  1  0.13377300  0.15344100  0.38879000  1
  B  B1  1  0.84655900  0.86622700  0.11121000  1
  B  B2  1  0.86622700  0.84655900  0.61121000  1
  B  B3  1  0.15344100  0.13377300  0.88879000  1
  B  B4  1  0.47843300  0.42094500  0.38144600  1
  B  B5  1  0.57905500  0.52156700  0.11855400  1
  B  B6  1  0.52156700  0.57905500  0.61855400  1
  B  B7  1  0.42094500  0.47843300  0.88144600  1
  B  B8  1  0.60915600  0.59303700  0.35839200  1
  B  B9  1  0.40696300  0.39084400  0.14160800  1
  B  B10  1  0.39084400  0.40696300  0.64160800  1
  B  B11  1  0.59303700  0.60915600  0.85839200  1
  H  H0  1  0.57367800  0.93370200  0.09658700  1
  H  H1  1  0.06629800  0.42632200  0.40341300  1
  H  H2  1  0.42632200  0.06629800  0.90341300  1
  H  H3  1  0.93370200  0.57367800  0.59658700  1
  H  H4  1  0.38018700  0.93043800  0.09466900  1
  H  H5  1  0.06956200  0.61981300  0.40533100  1
  H  H6  1  0.61981300  0.06956200  0.90533100  1
  H  H7  1  0.93043800  0.38018700  0.59466900  1
  H  H8  1  0.10622700  0.32134200  0.21837700  1
  H  H9  1  0.67865800  0.89377300  0.28162300  1
  H  H10  1  0.89377300  0.67865800  0.78162300  1
  H  H11  1  0.32134200  0.10622700  0.71837700  1
  H  H12  1  0.84064500  0.15074800  0.57449400  1
  H  H13  1  0.84925200  0.15935500  0.92550600  1
  H  H14  1  0.15935500  0.84925200  0.42550600  1
  H  H15  1  0.15074800  0.84064500  0.07449400  1
  H  H16  1  0.87833800  0.71651200  0.35544200  1
  H  H17  1  0.28348800  0.12166200  0.14455800  1
  H  H18  1  0.12166200  0.28348800  0.64455800  1
  H  H19  1  0.71651200  0.87833800  0.85544200  1
  H  H20  1  0.09429800  0.25004700  0.23671600  1
  H  H21  1  0.74995300  0.90570200  0.26328400  1
  H  H22  1  0.90570200  0.74995300  0.76328400  1
  H  H23  1  0.25004700  0.09429800  0.73671600  1
  O  O0  1  0.12046100  0.05092800  0.36688400  1
  O  O1  1  0.94907200  0.87953900  0.13311600  1
  O  O2  1  0.87953900  0.94907200  0.63311600  1
  O  O3  1  0.05092800  0.12046100  0.86688400  1
  O  O4  1  0.17002200  0.24046300  0.40944100  1
  O  O5  1  0.75953700  0.82997800  0.09055900  1
  O  O6  1  0.82997800  0.75953700  0.59055900  1
  O  O7  1  0.24046300  0.17002200  0.90944100  1
  O  O8  1  0.67229300  0.66557800  0.35787100  1
  O  O9  1  0.33442200  0.32770700  0.14212900  1
  O  O10  1  0.32770700  0.33442200  0.64212900  1
  O  O11  1  0.66557800  0.67229300  0.85787100  1
  O  O12  1  0.58804600  0.22591600  0.36904000  1
  O  O13  1  0.77408400  0.41195400  0.13096000  1
  O  O14  1  0.41195400  0.77408400  0.63096000  1
  O  O15  1  0.22591600  0.58804600  0.86904000  1
  O  O16  1  0.17627900  0.74038100  0.46714200  1
  O  O17  1  0.25961900  0.82372100  0.03285800  1
  O  O18  1  0.82372100  0.25961900  0.53285800  1
  O  O19  1  0.74038100  0.17627900  0.96714200  1
  O  O20  1  0.55537300  0.50919900  0.35336300  1
  O  O21  1  0.49080100  0.44462700  0.14663700  1
  O  O22  1  0.44462700  0.49080100  0.64663700  1
  O  O23  1  0.50919900  0.55537300  0.85336300  1
  O  O24  1  0.96514000  0.61970000  0.40321600  1
  O  O25  1  0.38030000  0.03486000  0.09678400  1
  O  O26  1  0.03486000  0.38030000  0.59678400  1
  O  O27  1  0.61970000  0.96514000  0.90321600  1
  O  O28  1  0.41044100  0.75447900  0.08425800  1
  O  O29  1  0.24552100  0.58955900  0.41574200  1
  O  O30  1  0.58955900  0.24552100  0.91574200  1
  O  O31  1  0.75447900  0.41044100  0.58425800  1
loop_
_geom_bond_atom_site_label_1
_geom_bond_atom_site_label_2
_geom_bond_distance
_geom_bond_site_symmetry_2
K0 O13 2.689519 1_555
K0 O12 2.689519 1_555
K0 O0 2.958786 1_655
K0 O1 2.958786 1_545
K0 O20 3.215916 1_555
K0 O21 3.215916 1_555
K1 O14 2.689519 1_555
K1 O15 2.689519 1_555
K1 O3 2.958786 1_565
K1 O2 2.958786 1_455
K1 O22 3.215916 1_555
K1 O23 3.215916 1_555
K2 O7 2.647573 1_554
K2 O5 2.647573 1_455
K2 O15 3.094724 1_554
K2 O13 3.094724 1_455
K2 O27 3.103401 1_454
K2 O25 3.103401 1_555
K3 O6 2.647573 1_545
K3 O4 2.647573 1_555
K3 O14 3.094724 1_545
K3 O12 3.094724 1_555
K3 O26 3.103401 1_555
K3 O24 3.103401 1_545
B0 O0 1.253013 1_555
B0 O4 1.284735 1_555
B1 O1 1.253013 1_555
B1 O5 1.284735 1_555
B2 O2 1.253013 1_555
B2 O6 1.284735 1_555
B3 O3 1.253013 1_555
B3 O7 1.284735 1_555
B4 O12 1.292153 1_555
B4 O20 1.441231 1_555
B4 O29 1.441641 1_555
B5 O13 1.292153 1_555
B5 O21 1.441231 1_555
B5 O28 1.441641 1_555
B6 O14 1.292153 1_555
B6 O22 1.441231 1_555
B6 O31 1.441641 1_555
B7 O15 1.292153 1_555
B7 O23 1.441231 1_555
B7 O30 1.441641 1_555
B8 O8 1.236678 1_555
B8 O20 1.288124 1_555
B9 O9 1.236678 1_555
B9 O21 1.288124 1_555
B10 O10 1.236678 1_555
B10 O22 1.288124 1_555
B11 O11 1.236678 1_555
B11 O23 1.288124 1_555
H0 O5 1.165286 1_555
H0 O25 1.251648 1_565
H1 O4 1.165286 1_555
H1 O24 1.251648 1_455
H2 O7 1.165286 1_555
H2 O27 1.251648 1_545
H3 O6 1.165286 1_555
H3 O26 1.251648 1_655
H4 O25 1.020092 1_565
H4 O28 1.537042 1_555
H5 O24 1.020092 1_455
H5 O29 1.537042 1_555
H6 O27 1.020092 1_545
H6 O30 1.537042 1_555
H7 O26 1.020092 1_655
H7 O31 1.537042 1_555
H10 H22 0.754326 1_555
H11 H23 0.754326 1_555
H12 O18 1.005044 1_555
H13 O19 1.005044 1_555
H14 O16 1.005044 1_555
H15 O17 1.005044 1_555
H16 O24 0.978879 1_555
H17 O25 0.978879 1_555
H18 O26 0.978879 1_555
H19 O27 0.978879 1_555
H20 H8 0.754326 1_555
H20 K0 3.084847 1_455
H21 H9 0.754326 1_555
H21 K0 3.084847 1_565
H22 K1 3.084847 1_655
H23 K1 3.084847 1_545
