# generated using pymatgen
data_Rb4PbO4
_symmetry_space_group_name_H-M   'P 1'
_cell_length_a   6.89327708
_cell_length_b   6.86651394
_cell_length_c   10.26888547
_cell_angle_alpha   78.91887704
_cell_angle_beta   71.52516828
_cell_angle_gamma   66.88920991
_symmetry_Int_Tables_number   1
_chemical_formula_structural   Rb4PbO4
_chemical_formula_sum   'Rb8 Pb2 O8'
_cell_volume   422.72511014
_cell_formula_units_Z   2
loop_
 _symmetry_equiv_pos_site_id
 _symmetry_equiv_pos_as_xyz
  1  'x, y, z'
loop_
 _atom_site_type_symbol
 _atom_site_label
 _atom_site_symmetry_multiplicity
 _atom_site_fract_x
 _atom_site_fract_y
 _atom_site_fract_z
 _atom_site_occupancy
  Rb  Rb0  1  0.23849451  0.76015915  0.96998309  1
  Rb  Rb1  1  0.49225464  0.72274470  0.55949419  1
  Rb  Rb2  1  0.58575217  0.74629908  0.16734644  1
  Rb  Rb3  1  0.03653257  0.78239051  0.38193013  1
  Rb  Rb4  1  0.96346743  0.21760949  0.61806987  1
  Rb  Rb5  1  0.41424783  0.25370092  0.83265356  1
  Rb  Rb6  1  0.50774536  0.27725530  0.44050581  1
  Rb  Rb7  1  0.76150549  0.23984085  0.03001691  1
  Pb  Pb0  1  0.84544804  0.72122573  0.75369635  1
  Pb  Pb1  1  0.15455196  0.27877427  0.24630365  1
  O  O0  1  0.83659669  0.87682357  0.91184174  1
  O  O1  1  0.69814013  0.96949596  0.62132687  1
  O  O2  1  0.65451584  0.52876782  0.80986005  1
  O  O3  1  0.84097655  0.46334205  0.35590738  1
  O  O4  1  0.15902345  0.53665795  0.64409262  1
  O  O5  1  0.34548416  0.47123218  0.19013995  1
  O  O6  1  0.30185987  0.03050404  0.37867313  1
  O  O7  1  0.16340331  0.12317643  0.08815826  1
loop_
_geom_bond_atom_site_label_1
_geom_bond_atom_site_label_2
_geom_bond_distance
_geom_bond_site_symmetry_2
O0 Pb0 2.082191 1_555
O0 Rb7 2.775920 1_566
O0 Rb0 2.792046 1_655
O0 Rb2 2.848608 1_556
O0 Rb5 3.257494 1_565
O1 Pb0 2.100015 1_555
O1 Rb6 2.737698 1_565
O1 Rb1 2.856647 1_555
O1 Rb5 2.878490 1_565
O1 Rb3 2.891773 1_655
O1 Rb4 2.938403 1_565
O2 Pb0 2.098240 1_555
O2 Rb7 2.788358 1_556
O2 Rb0 2.809086 1_555
O2 Rb4 2.892496 1_555
O2 Rb5 2.899200 1_555
O2 Rb1 2.995289 1_555
O3 Pb1 2.097897 1_655
O3 Rb1 2.864766 1_555
O3 Rb6 2.876899 1_555
O3 Rb2 2.940919 1_555
O3 Rb4 3.063269 1_555
O3 Rb3 3.075647 1_655
O4 Pb0 2.097897 1_455
O4 Rb6 2.864766 1_555
O4 Rb1 2.876899 1_555
O4 Rb5 2.940919 1_555
O4 Rb3 3.063269 1_555
O4 Rb4 3.075647 1_455
O5 Pb1 2.098240 1_555
O5 Rb0 2.788358 1_554
O5 Rb7 2.809086 1_555
O5 Rb3 2.892496 1_555
O5 Rb2 2.899200 1_555
O5 Rb6 2.995289 1_555
O6 Pb1 2.100015 1_555
O6 Rb1 2.737698 1_545
O6 Rb6 2.856647 1_555
O6 Rb2 2.878490 1_545
O6 Rb4 2.891773 1_455
O6 Rb3 2.938403 1_545
O7 Pb1 2.082191 1_555
O7 Rb0 2.775920 1_544
O7 Rb7 2.792046 1_455
O7 Rb5 2.848608 1_554
O7 Rb2 3.257494 1_545
