# generated using pymatgen
data_LiFe4(BO3)4
_symmetry_space_group_name_H-M   'P 1'
_cell_length_a   5.34274119
_cell_length_b   9.01830651
_cell_length_c   11.35004809
_cell_angle_alpha   113.50131876
_cell_angle_beta   76.92799665
_cell_angle_gamma   90.40520514
_symmetry_Int_Tables_number   1
_chemical_formula_structural   LiFe4(BO3)4
_chemical_formula_sum   'Li2 Fe8 B8 O24'
_cell_volume   486.39549880
_cell_formula_units_Z   2
loop_
 _symmetry_equiv_pos_site_id
 _symmetry_equiv_pos_as_xyz
  1  'x, y, z'
loop_
 _atom_site_type_symbol
 _atom_site_label
 _atom_site_symmetry_multiplicity
 _atom_site_fract_x
 _atom_site_fract_y
 _atom_site_fract_z
 _atom_site_occupancy
  Li  Li0  1  0.16488200  0.16672500  0.35507700  1
  Li  Li1  1  0.59562300  0.05670500  0.09519700  1
  Fe  Fe0  1  0.40531900  0.26676800  0.86421500  1
  Fe  Fe1  1  0.08895300  0.22813600  0.11596200  1
  Fe  Fe2  1  0.85012500  0.14154000  0.61595200  1
  Fe  Fe3  1  0.65436600  0.36192300  0.37449900  1
  Fe  Fe4  1  0.34826100  0.64857900  0.62717100  1
  Fe  Fe5  1  0.14570500  0.83415100  0.37018200  1
  Fe  Fe6  1  0.90963500  0.77005500  0.87518100  1
  Fe  Fe7  1  0.59795800  0.72756900  0.13099000  1
  B  B0  1  0.65225600  0.02346200  0.36686300  1
  B  B1  1  0.89288100  0.10265200  0.86932400  1
  B  B2  1  0.13528300  0.50662500  0.37804100  1
  B  B3  1  0.40433700  0.61010500  0.87558800  1
  B  B4  1  0.85835800  0.48102600  0.62251100  1
  B  B5  1  0.59690000  0.39116900  0.12087000  1
  B  B6  1  0.34790900  0.98280700  0.62123200  1
  B  B7  1  0.11338300  0.89230200  0.12530400  1
  O  O0  1  0.11704700  0.15087900  0.90818600  1
  O  O1  1  0.47219200  0.12621400  0.65974800  1
  O  O2  1  0.21984400  0.03483000  0.13890000  1
  O  O3  1  0.53375000  0.15622100  0.36178800  1
  O  O4  1  0.87830300  0.03823800  0.41220400  1
  O  O5  1  0.77911000  0.18920400  0.81408100  1
  O  O6  1  0.31898700  0.46479300  0.86044200  1
  O  O7  1  0.03358200  0.35354200  0.33546500  1
  O  O8  1  0.68915800  0.29179800  0.17561800  1
  O  O9  1  0.64271600  0.48677400  0.57332700  1
  O  O10  1  0.96240600  0.33895600  0.61241200  1
  O  O11  1  0.40381600  0.33373400  0.05616400  1
  O  O12  1  0.61730900  0.66371000  0.92988600  1
  O  O13  1  0.35184300  0.51589700  0.43212500  1
  O  O14  1  0.28697800  0.71273400  0.83266300  1
  O  O15  1  0.96820800  0.62744700  0.67877700  1
  O  O16  1  0.70252700  0.53126000  0.13110200  1
  O  O17  1  0.22392200  0.77844300  0.15623600  1
  O  O18  1  0.13113600  0.98334500  0.57353800  1
  O  O19  1  0.43783300  0.84842000  0.63064800  1
  O  O20  1  0.02643700  0.63230400  0.36945200  1
  O  O21  1  0.77948100  0.97703700  0.89486700  1
  O  O22  1  0.54730500  0.87608500  0.32304300  1
  O  O23  1  0.88082300  0.86134500  0.08123800  1
loop_
_geom_bond_atom_site_label_1
_geom_bond_atom_site_label_2
_geom_bond_distance
_geom_bond_site_symmetry_2
Li0 O7 1.940764 1_555
Li0 O3 1.993739 1_555
Li0 O4 2.057288 1_455
Li0 O2 2.207422 1_555
Li1 O2 1.984374 1_555
Li1 O8 2.055683 1_555
Li1 O21 2.085150 1_544
Li1 O23 2.270916 1_545
Fe0 O6 1.866929 1_555
Fe0 O0 1.938809 1_555
Fe0 O5 1.997408 1_555
Fe0 O11 2.013462 1_556
Fe0 O1 2.098885 1_555
Fe1 O2 2.014316 1_555
Fe1 O11 2.042991 1_555
Fe1 O8 2.098491 1_455
Fe1 O0 2.144838 1_554
Fe1 O7 2.235545 1_555
Fe2 O10 1.887378 1_555
Fe2 O18 1.917498 1_645
Fe2 O1 1.984987 1_555
Fe2 O5 2.056972 1_555
Fe2 O4 2.089193 1_555
Fe3 O3 1.920709 1_555
Fe3 O13 1.948742 1_555
Fe3 O7 1.968834 1_655
Fe3 O8 2.050188 1_555
Fe3 O9 2.067683 1_555
Fe4 O19 1.848843 1_555
Fe4 O9 1.965721 1_555
Fe4 O15 2.011960 1_455
Fe4 O13 2.049754 1_555
Fe4 O14 2.112533 1_555
Fe5 O20 1.921881 1_555
Fe5 O18 2.141763 1_555
Fe5 O22 2.159552 1_555
Fe5 O4 2.164465 1_465
Fe5 O17 2.212382 1_555
Fe6 O21 1.906100 1_555
Fe6 O12 1.938984 1_555
Fe6 O14 1.985004 1_655
Fe6 O15 2.030982 1_555
Fe6 O23 2.115321 1_556
Fe7 O16 1.860770 1_555
Fe7 O17 1.983736 1_555
Fe7 O22 2.007117 1_555
Fe7 O23 2.046903 1_555
Fe7 O12 2.097154 1_554
B0 O22 1.384439 1_545
B0 O3 1.385586 1_555
B0 O4 1.401903 1_555
B1 O0 1.377209 1_655
B1 O21 1.381017 1_545
B1 O5 1.393315 1_555
B2 O20 1.324914 1_555
B2 O13 1.414740 1_555
B2 O7 1.418019 1_555
B3 O6 1.342444 1_555
B3 O12 1.407138 1_555
B3 O14 1.411795 1_555
B4 O10 1.351977 1_555
B4 O9 1.398770 1_555
B4 O15 1.407822 1_555
B5 O16 1.353014 1_555
B5 O11 1.379716 1_555
B5 O8 1.421658 1_555
B6 O19 1.358607 1_555
B6 O18 1.385704 1_555
B6 O1 1.404588 1_565
B7 O2 1.367722 1_565
B7 O17 1.384294 1_555
B7 O23 1.427151 1_455
