# generated using pymatgen
data_Li5V3P8O29
_symmetry_space_group_name_H-M   'P 1'
_cell_length_a   9.79074200
_cell_length_b   9.80038608
_cell_length_c   14.10371707
_cell_angle_alpha   89.55844878
_cell_angle_beta   89.37286967
_cell_angle_gamma   60.21795085
_symmetry_Int_Tables_number   1
_chemical_formula_structural   Li5V3P8O29
_chemical_formula_sum   'Li10 V6 P16 O58'
_cell_volume   1174.47866141
_cell_formula_units_Z   2
loop_
 _symmetry_equiv_pos_site_id
 _symmetry_equiv_pos_as_xyz
  1  'x, y, z'
loop_
 _atom_site_type_symbol
 _atom_site_label
 _atom_site_symmetry_multiplicity
 _atom_site_fract_x
 _atom_site_fract_y
 _atom_site_fract_z
 _atom_site_occupancy
  Li  Li0  1  0.09064100  0.67927300  0.56345000  1
  Li  Li1  1  0.31896600  0.32685000  0.88875800  1
  Li  Li2  1  0.23294600  0.67827600  0.05892700  1
  Li  Li3  1  0.67888500  0.08962500  0.06077300  1
  Li  Li4  1  0.31378500  0.77689200  0.44315100  1
  Li  Li5  1  0.68202200  0.22890000  0.56334200  1
  Li  Li6  1  0.33051500  0.90464700  0.93717400  1
  Li  Li7  1  0.91487600  0.31023200  0.43991300  1
  Li  Li8  1  0.77211700  0.90819800  0.44312900  1
  Li  Li9  1  0.96405300  0.06338100  0.99457800  1
  V  V0  1  0.43381300  0.56565300  0.24982500  1
  V  V1  1  0.57282800  0.43604700  0.75313500  1
  V  V2  1  0.43161600  0.00243800  0.74478100  1
  V  V3  1  0.56562400  0.99920700  0.25029800  1
  V  V4  1  0.00372400  0.43158100  0.24138300  1
  V  V5  1  0.99621300  0.56507600  0.75679800  1
  P  P0  1  0.08504500  0.21744600  0.84027900  1
  P  P1  1  0.22555500  0.08691200  0.33571600  1
  P  P2  1  0.08596100  0.67797600  0.34490600  1
  P  P3  1  0.33625600  0.33580200  0.12614800  1
  P  P4  1  0.33701500  0.33847700  0.63121600  1
  P  P5  1  0.22696900  0.68147700  0.84128100  1
  P  P6  1  0.31777900  0.76976400  0.65859200  1
  P  P7  1  0.68177600  0.09210800  0.84283400  1
  P  P8  1  0.31664500  0.91252400  0.15371100  1
  P  P9  1  0.67672400  0.23338800  0.34438800  1
  P  P10  1  0.77704700  0.30781000  0.16134900  1
  P  P11  1  0.67150800  0.66197500  0.36720300  1
  P  P12  1  0.66068000  0.67338100  0.87195500  1
  P  P13  1  0.91641100  0.31719600  0.65634100  1
  P  P14  1  0.77113200  0.91014900  0.66091200  1
  P  P15  1  0.91762900  0.77732500  0.16093600  1
  O  O0  1  0.98711700  0.24359600  0.56379800  1
  O  O1  1  0.08203300  0.25678700  0.33619700  1
  O  O2  1  0.23613600  0.97782800  0.06150900  1
  O  O3  1  0.25489600  0.07712700  0.83877400  1
  O  O4  1  0.09894900  0.36979800  0.83238700  1
  O  O5  1  0.18874900  0.33003000  0.17188600  1
  O  O6  1  0.09589000  0.51978200  0.32062900  1
  O  O7  1  0.00997300  0.78700700  0.07940800  1
  O  O8  1  0.08742100  0.65271400  0.84326500  1
  O  O9  1  0.34204300  0.18732800  0.67678600  1
  O  O10  1  0.37970500  0.09510800  0.31942800  1
  O  O11  1  0.18734500  0.48352700  0.67413100  1
  O  O12  1  0.32641500  0.34041400  0.01994700  1
  O  O13  1  0.34303200  0.33691800  0.52582000  1
  O  O14  1  0.32308800  0.49088200  0.16369600  1
  O  O15  1  0.51946100  0.10309400  0.83421800  1
  O  O16  1  0.48839900  0.18935600  0.16230100  1
  O  O17  1  0.25063600  0.66272800  0.34281100  1
  O  O18  1  0.20645700  0.78752300  0.74899800  1
  O  O19  1  0.24387600  0.75225800  0.56994300  1
  O  O20  1  0.23640300  0.76513100  0.92798200  1
  O  O21  1  0.37931000  0.51785800  0.82802700  1
  O  O22  1  0.48845600  0.33568300  0.67243500  1
  O  O23  1  0.34005600  0.74319500  0.16721900  1
  O  O24  1  0.51642200  0.37947000  0.32072700  1
  O  O25  1  0.66225400  0.08349700  0.34269400  1
  O  O26  1  0.20082700  0.01256500  0.23976800  1
  O  O27  1  0.23162700  0.99321100  0.41991500  1
  O  O28  1  0.75885100  0.00135400  0.57149700  1
  O  O29  1  0.34200300  0.91083200  0.65919000  1
  O  O30  1  0.47575000  0.61759900  0.67950500  1
  O  O31  1  0.65531300  0.26261700  0.83269300  1
  O  O32  1  0.51862500  0.66696100  0.32940100  1
  O  O33  1  0.62047800  0.46089700  0.16718900  1
  O  O34  1  0.79681200  0.19888400  0.08211800  1
  O  O35  1  0.74533600  0.25209600  0.43491600  1
  O  O36  1  0.79671800  0.21243800  0.25973100  1
  O  O37  1  0.74561300  0.33971500  0.66532000  1
  O  O38  1  0.51287000  0.82132200  0.83041200  1
  O  O39  1  0.47272700  0.90883800  0.16924000  1
  O  O40  1  0.66153800  0.52431900  0.82446400  1
  O  O41  1  0.65002500  0.66785300  0.97675200  1
  O  O42  1  0.68132600  0.65031600  0.47268100  1
  O  O43  1  0.81862800  0.51496100  0.31964200  1
  O  O44  1  0.62506400  0.89364400  0.67674200  1
  O  O45  1  0.67360300  0.81351300  0.33040000  1
  O  O46  1  0.91757800  0.34086300  0.16394600  1
  O  O47  1  0.01032000  0.20134800  0.74197600  1
  O  O48  1  0.99249700  0.20921300  0.92176500  1
  O  O49  1  0.90852000  0.47512100  0.67582100  1
  O  O50  1  0.81109100  0.66888200  0.82984100  1
  O  O51  1  0.91748700  0.61832800  0.16988000  1
  O  O52  1  0.74557600  0.91603800  0.16165200  1
  O  O53  1  0.76947300  0.02123700  0.93258000  1
  O  O54  1  0.78728900  0.00291100  0.75148400  1
  O  O55  1  0.92195100  0.74859700  0.66318500  1
  O  O56  1  0.99851900  0.74824600  0.43606300  1
  O  O57  1  0.98829900  0.79700900  0.25986900  1
loop_
_geom_bond_atom_site_label_1
_geom_bond_atom_site_label_2
_geom_bond_distance
_geom_bond_site_symmetry_2
Li0 O19 1.959829 1_555
Li0 O56 1.977221 1_455
Li0 O55 2.004287 1_455
Li0 O11 2.279309 1_555
Li1 O12 1.860860 1_556
Li1 O4 2.140362 1_555
Li1 O15 2.229468 1_555
Li1 O21 2.376931 1_555
Li2 O7 1.914352 1_555
Li2 O20 2.034562 1_554
Li2 O23 2.133093 1_555
Li2 O14 2.170651 1_555
Li3 O34 1.952184 1_555
Li3 O53 1.974272 1_554
Li3 O52 2.055312 1_545
Li3 O16 2.153188 1_555
Li4 O27 1.884112 1_555
Li4 O19 1.963486 1_555
Li4 O17 2.089867 1_555
Li4 O32 2.359327 1_555
Li5 O35 1.955955 1_555
Li5 O28 1.970702 1_555
Li5 O37 2.085928 1_555
Li5 O22 2.246087 1_555
Li6 O2 1.941353 1_556
Li6 O20 1.998070 1_555
Li6 O3 2.018563 1_565
Li6 O38 2.152552 1_555
Li7 O0 1.878883 1_555
Li7 O35 2.006894 1_555
Li7 O1 2.049475 1_655
Li7 O43 2.428032 1_555
Li8 O56 1.981536 1_555
Li8 O28 2.007658 1_565
Li8 O25 2.067631 1_565
Li8 O45 2.294474 1_555
Li9 O48 1.881834 1_555
Li9 O34 1.946766 1_556
Li9 O53 2.321251 1_555
Li9 O2 2.552344 1_646
O0 P13 1.483830 1_555
O1 P1 1.556366 1_555
O1 V4 1.998237 1_555
O2 P8 1.493455 1_555
O3 P0 1.544316 1_555
O3 V2 1.998354 1_555
O4 P0 1.568221 1_555
O4 V5 1.972469 1_455
O5 P3 1.601638 1_555
O5 V4 1.848790 1_555
O6 P2 1.545329 1_555
O6 V4 1.903282 1_555
O7 P15 1.486393 1_455
O8 P5 1.525975 1_555
O8 V5 1.955562 1_455
O9 P4 1.588514 1_555
O9 V2 1.839861 1_555
O10 P1 1.565117 1_555
O10 V3 1.850169 1_545
O11 P4 1.568105 1_555
O11 V5 1.995201 1_455
O12 P3 1.500869 1_555
O13 P4 1.486893 1_555
O14 P3 1.556678 1_555
O14 V0 2.004869 1_555
O15 P7 1.544641 1_555
O15 V2 2.046878 1_555
O16 P3 1.555731 1_555
O16 V3 2.042036 1_545
O17 P2 1.543491 1_555
O17 V0 2.028349 1_555
O18 P5 1.609963 1_555
O18 P6 1.621284 1_555
O19 P6 1.504198 1_555
O20 P5 1.506346 1_555
O21 P5 1.566363 1_555
O21 V1 1.951538 1_555
O22 P4 1.586019 1_555
O22 V1 1.946868 1_555
O23 P8 1.568744 1_555
O23 V0 1.906042 1_555
O24 P9 1.547977 1_555
O24 V0 1.872712 1_555
O25 P9 1.544645 1_555
O25 V3 2.023750 1_545
O26 P8 1.613691 1_545
O26 P1 1.618129 1_555
O27 P1 1.479029 1_565
O28 P14 1.510936 1_545
O29 P6 1.514477 1_555
O29 V2 1.963513 1_565
O30 P6 1.554017 1_555
O30 V1 1.860310 1_555
O31 P7 1.564299 1_555
O31 V1 1.851214 1_555
O32 P11 1.572122 1_555
O32 V0 1.947167 1_555
O33 P10 1.523820 1_555
O33 V0 1.964770 1_555
O34 P10 1.494715 1_555
O35 P9 1.503259 1_555
O36 P9 1.606678 1_555
O36 P10 1.625748 1_555
O37 P13 1.578069 1_555
O37 V1 1.916413 1_555
O38 P12 1.568702 1_555
O38 V2 1.956355 1_565
O39 P8 1.528695 1_555
O39 V3 1.938338 1_555
O40 P12 1.607979 1_555
O40 V1 1.814870 1_555
O41 P12 1.483033 1_555
O42 P11 1.491625 1_555
O43 P11 1.591455 1_555
O43 V4 1.915508 1_655
O44 P14 1.530847 1_555
O44 V2 1.901258 1_565
O45 P11 1.579115 1_555
O45 V3 1.946558 1_555
O46 P10 1.563147 1_555
O46 V4 1.864048 1_655
O47 P13 1.599775 1_455
O47 P0 1.619443 1_555
O48 P0 1.482142 1_655
O49 P13 1.537599 1_555
O49 V5 1.899372 1_555
O50 P12 1.562096 1_555
O50 V5 1.877463 1_555
O51 P15 1.563048 1_555
O51 V4 1.880049 1_655
O52 P15 1.552656 1_555
O52 V3 1.967870 1_555
O53 P7 1.496523 1_555
O54 P7 1.606982 1_555
O54 P14 1.627400 1_545
O55 P14 1.538175 1_555
O55 V5 2.047443 1_555
O56 P2 1.504650 1_655
O57 P2 1.615248 1_655
O57 P15 1.618877 1_555
