# generated using pymatgen
data_Fe4O7F
_symmetry_space_group_name_H-M   'P 1'
_cell_length_a   4.64710100
_cell_length_b   6.00323200
_cell_length_c   9.26615347
_cell_angle_alpha   89.60208031
_cell_angle_beta   90.00000000
_cell_angle_gamma   90.00000000
_symmetry_Int_Tables_number   1
_chemical_formula_structural   Fe4O7F
_chemical_formula_sum   'Fe8 O14 F2'
_cell_volume   258.49744440
_cell_formula_units_Z   2
loop_
 _symmetry_equiv_pos_site_id
 _symmetry_equiv_pos_as_xyz
  1  'x, y, z'
loop_
 _atom_site_type_symbol
 _atom_site_label
 _atom_site_symmetry_multiplicity
 _atom_site_fract_x
 _atom_site_fract_y
 _atom_site_fract_z
 _atom_site_occupancy
  Fe  Fe0  1  0.00327500  0.37712700  0.87132900  1
  Fe  Fe1  1  0.02553300  0.87418100  0.88223700  1
  Fe  Fe2  1  0.98234800  0.38212600  0.37928000  1
  Fe  Fe3  1  0.98762600  0.86842200  0.38177800  1
  Fe  Fe4  1  0.48234800  0.61787400  0.62072000  1
  Fe  Fe5  1  0.48762600  0.13157800  0.61822200  1
  Fe  Fe6  1  0.50327500  0.62287300  0.12867100  1
  Fe  Fe7  1  0.52553300  0.12581900  0.11776300  1
  O  O0  1  0.78457800  0.62709500  0.47713900  1
  O  O1  1  0.80206300  0.12565000  0.46947100  1
  O  O2  1  0.82307700  0.62591600  0.97024600  1
  O  O3  1  0.82599500  0.12458600  0.96727300  1
  O  O4  1  0.67954200  0.37714600  0.71961800  1
  O  O5  1  0.69595400  0.37196100  0.22169700  1
  O  O6  1  0.69460200  0.87572600  0.22133100  1
  O  O7  1  0.28457800  0.37290500  0.52286100  1
  O  O8  1  0.30206300  0.87435000  0.53052900  1
  O  O9  1  0.32307700  0.37408400  0.02975400  1
  O  O10  1  0.32599500  0.87541400  0.03272700  1
  O  O11  1  0.19595400  0.62803900  0.77830300  1
  O  O12  1  0.19460200  0.12427400  0.77866900  1
  O  O13  1  0.17954200  0.62285400  0.28038200  1
  F  F0  1  0.69540600  0.87779100  0.72448400  1
  F  F1  1  0.19540600  0.12220900  0.27551600  1
loop_
_geom_bond_atom_site_label_1
_geom_bond_atom_site_label_2
_geom_bond_distance
_geom_bond_site_symmetry_2
Fe0 O3 1.936184 1_455
Fe0 O2 1.947056 1_455
Fe0 O11 1.948236 1_555
Fe0 O12 1.962130 1_555
Fe0 O4 2.059002 1_455
Fe0 O9 2.088924 1_556
Fe1 O2 1.937680 1_455
Fe1 O3 1.938270 1_465
Fe1 O11 1.938534 1_555
Fe1 O12 1.942257 1_565
Fe1 O10 1.973402 1_556
Fe2 O7 1.935129 1_655
Fe2 O13 1.936389 1_655
Fe2 O1 1.937293 1_555
Fe2 O0 1.961661 1_555
Fe2 O5 1.976970 1_555
Fe3 O0 1.937066 1_555
Fe3 O1 1.950865 1_565
Fe3 O13 1.967401 1_655
Fe3 O8 2.009219 1_655
Fe3 O6 2.016341 1_555
Fe4 O0 1.935129 1_555
Fe4 O4 1.936389 1_555
Fe4 O8 1.937293 1_555
Fe4 O7 1.961661 1_555
Fe4 O11 1.976970 1_555
Fe5 O7 1.937066 1_555
Fe5 O8 1.950865 1_545
Fe5 O4 1.967401 1_555
Fe5 O1 2.009219 1_555
Fe5 O12 2.016341 1_555
Fe6 O10 1.936184 1_555
Fe6 O9 1.947056 1_555
Fe6 O5 1.948236 1_555
Fe6 O6 1.962130 1_555
Fe6 O13 2.059002 1_555
Fe6 O2 2.088924 1_554
Fe7 O9 1.937680 1_555
Fe7 O10 1.938270 1_545
Fe7 O5 1.938534 1_555
Fe7 O6 1.942257 1_545
Fe7 O3 1.973402 1_554
F0 Fe5 2.049925 1_565
F0 Fe4 2.088128 1_555
F0 Fe1 2.119044 1_655
F1 Fe3 2.049925 1_445
F1 Fe2 2.088128 1_455
F1 Fe7 2.119044 1_555
