# generated using pymatgen
data_LiCr(PO3)3
_symmetry_space_group_name_H-M   'P 1'
_cell_length_a   5.21590800
_cell_length_b   12.49311700
_cell_length_c   12.49905600
_cell_angle_alpha   90.00000000
_cell_angle_beta   90.00000000
_cell_angle_gamma   90.00000000
_symmetry_Int_Tables_number   1
_chemical_formula_structural   LiCr(PO3)3
_chemical_formula_sum   'Li4 Cr4 P12 O36'
_cell_volume   814.47534749
_cell_formula_units_Z   4
loop_
 _symmetry_equiv_pos_site_id
 _symmetry_equiv_pos_as_xyz
  1  'x, y, z'
loop_
 _atom_site_type_symbol
 _atom_site_label
 _atom_site_symmetry_multiplicity
 _atom_site_fract_x
 _atom_site_fract_y
 _atom_site_fract_z
 _atom_site_occupancy
  Li  Li0  1  0.05664400  0.25000000  0.08364900  1
  Li  Li1  1  0.05664400  0.75000000  0.41635100  1
  Li  Li2  1  0.94335600  0.25000000  0.58364900  1
  Li  Li3  1  0.94335600  0.75000000  0.91635100  1
  Cr  Cr0  1  0.00000000  0.00000000  0.00000000  1
  Cr  Cr1  1  0.00000000  0.00000000  0.50000000  1
  Cr  Cr2  1  0.00000000  0.50000000  0.00000000  1
  Cr  Cr3  1  0.00000000  0.50000000  0.50000000  1
  P  P0  1  0.22994600  0.00000000  0.75000000  1
  P  P1  1  0.22994600  0.50000000  0.75000000  1
  P  P2  1  0.50423500  0.63439900  0.07942500  1
  P  P3  1  0.50423500  0.13439900  0.42057500  1
  P  P4  1  0.50423500  0.86560100  0.07942500  1
  P  P5  1  0.50423500  0.36560100  0.42057500  1
  P  P6  1  0.49576500  0.63439900  0.57942500  1
  P  P7  1  0.49576500  0.36560100  0.92057500  1
  P  P8  1  0.49576500  0.13439900  0.92057500  1
  P  P9  1  0.49576500  0.86560100  0.57942500  1
  P  P10  1  0.77005400  0.00000000  0.25000000  1
  P  P11  1  0.77005400  0.50000000  0.25000000  1
  O  O0  1  0.08980900  0.07562200  0.67767800  1
  O  O1  1  0.08980900  0.42437800  0.67767800  1
  O  O2  1  0.08980900  0.57562200  0.82232200  1
  O  O3  1  0.08980900  0.92437800  0.82232200  1
  O  O4  1  0.22599000  0.12689800  0.45223800  1
  O  O5  1  0.22599000  0.62689800  0.04776200  1
  O  O6  1  0.22599000  0.37310200  0.45223800  1
  O  O7  1  0.22599000  0.87310200  0.04776200  1
  O  O8  1  0.29721900  0.11678200  0.00727000  1
  O  O9  1  0.29721900  0.38321800  0.00727000  1
  O  O10  1  0.29721900  0.61678200  0.49273000  1
  O  O11  1  0.29721900  0.88321800  0.49273000  1
  O  O12  1  0.44904200  0.25000000  0.86887900  1
  O  O13  1  0.44904200  0.75000000  0.63112100  1
  O  O14  1  0.44760800  0.56338000  0.68124000  1
  O  O15  1  0.44760800  0.06338000  0.81876000  1
  O  O16  1  0.44760800  0.93662000  0.68124000  1
  O  O17  1  0.44760800  0.43662000  0.81876000  1
  O  O18  1  0.55239200  0.56338000  0.18124000  1
  O  O19  1  0.55239200  0.43662000  0.31876000  1
  O  O20  1  0.55239200  0.06338000  0.31876000  1
  O  O21  1  0.55239200  0.93662000  0.18124000  1
  O  O22  1  0.55095800  0.75000000  0.13112100  1
  O  O23  1  0.55095800  0.25000000  0.36887900  1
  O  O24  1  0.70278100  0.38321800  0.50727000  1
  O  O25  1  0.70278100  0.61678200  0.99273000  1
  O  O26  1  0.70278100  0.11678200  0.50727000  1
  O  O27  1  0.70278100  0.88321800  0.99273000  1
  O  O28  1  0.77401000  0.87310200  0.54776200  1
  O  O29  1  0.77401000  0.62689800  0.54776200  1
  O  O30  1  0.77401000  0.12689800  0.95223800  1
  O  O31  1  0.77401000  0.37310200  0.95223800  1
  O  O32  1  0.91019100  0.42437800  0.17767800  1
  O  O33  1  0.91019100  0.57562200  0.32232200  1
  O  O34  1  0.91019100  0.07562200  0.17767800  1
  O  O35  1  0.91019100  0.92437800  0.32232200  1
loop_
_geom_bond_atom_site_label_1
_geom_bond_atom_site_label_2
_geom_bond_distance
_geom_bond_site_symmetry_2
Li0 O8 2.292569 1_555
Li0 O9 2.292569 1_555
Li0 O32 2.590513 1_455
Li0 O34 2.590513 1_455
Li0 O31 2.690040 1_454
Li0 O30 2.690040 1_454
Li1 O11 2.292569 1_555
Li1 O10 2.292569 1_555
Li1 O35 2.590513 1_455
Li1 O33 2.590513 1_455
Li1 O28 2.690040 1_455
Li1 O29 2.690040 1_455
Li2 O24 2.292569 1_555
Li2 O26 2.292569 1_555
Li2 O0 2.590513 1_655
Li2 O1 2.590513 1_655
Li2 O6 2.690040 1_655
Li2 O4 2.690040 1_655
Li3 O27 2.292569 1_555
Li3 O25 2.292569 1_555
Li3 O3 2.590513 1_655
Li3 O2 2.590513 1_655
Li3 O7 2.690040 1_656
Li3 O5 2.690040 1_656
Cr0 O30 2.063773 1_454
Cr0 O7 2.063773 1_545
Cr0 O8 2.130770 1_555
Cr0 O27 2.130770 1_444
Cr0 O34 2.458450 1_455
Cr0 O3 2.458450 1_544
Cr1 O4 2.063773 1_555
Cr1 O28 2.063773 1_445
Cr1 O26 2.130770 1_455
Cr1 O11 2.130770 1_545
Cr1 O0 2.458450 1_555
Cr1 O35 2.458450 1_445
Cr2 O5 2.063773 1_555
Cr2 O31 2.063773 1_454
Cr2 O25 2.130770 1_454
Cr2 O9 2.130770 1_555
Cr2 O2 2.458450 1_554
Cr2 O32 2.458450 1_455
Cr3 O29 2.063773 1_455
Cr3 O6 2.063773 1_555
Cr3 O10 2.130770 1_555
Cr3 O24 2.130770 1_455
Cr3 O33 2.458450 1_455
Cr3 O1 2.458450 1_555
O0 P0 1.497990 1_555
O1 P1 1.497990 1_555
O2 P1 1.497990 1_555
O3 P0 1.497990 1_565
O4 P3 1.507209 1_555
O5 P2 1.507209 1_555
O6 P5 1.507209 1_555
O7 P4 1.507209 1_555
O8 P8 1.514960 1_554
O9 P7 1.514960 1_554
O10 P6 1.514960 1_555
O11 P9 1.514960 1_555
O12 P7 1.600832 1_555
O12 P8 1.600832 1_555
O13 P9 1.600832 1_555
O13 P6 1.600832 1_555
O14 P6 1.571557 1_555
O14 P1 1.629268 1_555
O15 P8 1.571557 1_555
O15 P0 1.629268 1_555
O16 P9 1.571557 1_555
O16 P0 1.629268 1_565
O17 P7 1.571557 1_555
O17 P1 1.629268 1_555
O18 P2 1.571557 1_555
O18 P11 1.629268 1_555
O19 P5 1.571557 1_555
O19 P11 1.629268 1_555
O20 P3 1.571557 1_555
O20 P10 1.629268 1_555
O21 P4 1.571557 1_555
O21 P10 1.629268 1_565
O22 P4 1.600832 1_555
O22 P2 1.600832 1_555
O23 P3 1.600832 1_555
O23 P5 1.600832 1_555
O24 P5 1.514960 1_555
O25 P2 1.514960 1_556
O26 P3 1.514960 1_555
O27 P4 1.514960 1_556
O28 P9 1.507209 1_555
O29 P6 1.507209 1_555
O30 P8 1.507209 1_555
O31 P7 1.507209 1_555
O32 P11 1.497990 1_555
O33 P11 1.497990 1_555
O34 P10 1.497990 1_555
O35 P10 1.497990 1_565
