# generated using pymatgen
data_V3Zn7H3SO19
_symmetry_space_group_name_H-M   'P 1'
_cell_length_a   12.96714613
_cell_length_b   12.96714613
_cell_length_c   5.27397500
_cell_angle_alpha   90.00000000
_cell_angle_beta   90.00000000
_cell_angle_gamma   120.00000066
_symmetry_Int_Tables_number   1
_chemical_formula_structural   V3Zn7H3SO19
_chemical_formula_sum   'V6 Zn14 H6 S2 O38'
_cell_volume   767.99343157
_cell_formula_units_Z   2
loop_
 _symmetry_equiv_pos_site_id
 _symmetry_equiv_pos_as_xyz
  1  'x, y, z'
loop_
 _atom_site_type_symbol
 _atom_site_label
 _atom_site_symmetry_multiplicity
 _atom_site_fract_x
 _atom_site_fract_y
 _atom_site_fract_z
 _atom_site_occupancy
  V  V0  1  0.15091300  0.84908700  0.02645900  1
  V  V1  1  0.15091300  0.30182600  0.02645900  1
  V  V2  1  0.30182600  0.15091300  0.52645900  1
  V  V3  1  0.69817400  0.84908700  0.02645900  1
  V  V4  1  0.84908700  0.69817400  0.52645900  1
  V  V5  1  0.84908700  0.15091300  0.52645900  1
  Zn  Zn0  1  0.07918200  0.65459900  0.50329700  1
  Zn  Zn1  1  0.07918200  0.42458300  0.50329700  1
  Zn  Zn2  1  0.34540100  0.92081800  0.50329700  1
  Zn  Zn3  1  0.00000000  0.00000000  0.32124400  1
  Zn  Zn4  1  0.00000000  0.00000000  0.82124400  1
  Zn  Zn5  1  0.57541700  0.92081800  0.50329700  1
  Zn  Zn6  1  0.34540100  0.42458300  0.50329700  1
  Zn  Zn7  1  0.57541700  0.65459900  0.50329700  1
  Zn  Zn8  1  0.42458300  0.34540100  0.00329700  1
  Zn  Zn9  1  0.65459900  0.57541700  0.00329700  1
  Zn  Zn10  1  0.42458300  0.07918200  0.00329700  1
  Zn  Zn11  1  0.65459900  0.07918200  0.00329700  1
  Zn  Zn12  1  0.92081800  0.57541700  0.00329700  1
  Zn  Zn13  1  0.92081800  0.34540100  0.00329700  1
  H  H0  1  0.13422100  0.56711100  0.13732600  1
  H  H1  1  0.43288900  0.86577900  0.13732600  1
  H  H2  1  0.43288900  0.56711100  0.13732600  1
  H  H3  1  0.56711100  0.43288900  0.63732600  1
  H  H4  1  0.56711100  0.13422100  0.63732600  1
  H  H5  1  0.86577900  0.43288900  0.63732600  1
  S  S0  1  0.33333300  0.66666700  0.74584100  1
  S  S1  1  0.66666700  0.33333300  0.24584100  1
  O  O0  1  0.07410600  0.92589400  0.06999800  1
  O  O1  1  0.06715700  0.72029400  0.84590300  1
  O  O2  1  0.19153500  0.80846500  0.31467100  1
  O  O3  1  0.05823700  0.52911800  0.22976200  1
  O  O4  1  0.27970600  0.93284300  0.84590300  1
  O  O5  1  0.06715700  0.34686200  0.84590300  1
  O  O6  1  0.20824000  0.60412000  0.64354700  1
  O  O7  1  0.07410600  0.14821200  0.06999800  1
  O  O8  1  0.19153500  0.38307000  0.31467100  1
  O  O9  1  0.47088200  0.94176300  0.22976200  1
  O  O10  1  0.33333300  0.66666700  0.02349500  1
  O  O11  1  0.39588000  0.79176000  0.64354700  1
  O  O12  1  0.39588000  0.60412000  0.64354700  1
  O  O13  1  0.27970600  0.34686200  0.84590300  1
  O  O14  1  0.14821200  0.07410600  0.56999800  1
  O  O15  1  0.65313800  0.93284300  0.84590300  1
  O  O16  1  0.34686200  0.27970600  0.34590300  1
  O  O17  1  0.47088200  0.52911800  0.22976200  1
  O  O18  1  0.61693000  0.80846500  0.31467100  1
  O  O19  1  0.38307000  0.19153500  0.81467100  1
  O  O20  1  0.52911800  0.47088200  0.72976200  1
  O  O21  1  0.65313800  0.72029400  0.84590300  1
  O  O22  1  0.34686200  0.06715700  0.34590300  1
  O  O23  1  0.85178800  0.92589400  0.06999800  1
  O  O24  1  0.72029400  0.65313800  0.34590300  1
  O  O25  1  0.60412000  0.39588000  0.14354700  1
  O  O26  1  0.60412000  0.20824000  0.14354700  1
  O  O27  1  0.66666700  0.33333300  0.52349500  1
  O  O28  1  0.80846500  0.61693000  0.81467100  1
  O  O29  1  0.52911800  0.05823700  0.72976200  1
  O  O30  1  0.92589400  0.85178800  0.56999800  1
  O  O31  1  0.79176000  0.39588000  0.14354700  1
  O  O32  1  0.93284300  0.65313800  0.34590300  1
  O  O33  1  0.72029400  0.06715700  0.34590300  1
  O  O34  1  0.94176300  0.47088200  0.72976200  1
  O  O35  1  0.80846500  0.19153500  0.81467100  1
  O  O36  1  0.93284300  0.27970600  0.34590300  1
  O  O37  1  0.92589400  0.07410600  0.56999800  1
loop_
_geom_bond_atom_site_label_1
_geom_bond_atom_site_label_2
_geom_bond_distance
_geom_bond_site_symmetry_2
H0 O3 0.982734 1_555
H1 O9 0.982734 1_555
H2 O17 0.982754 1_555
H3 O20 0.982754 1_555
H4 O29 0.982734 1_555
H5 O34 0.982734 1_555
O0 V0 1.740282 1_555
O0 Zn4 2.119287 1_564
O0 Zn3 2.127448 1_565
O1 V0 1.749761 1_556
O1 Zn0 2.036593 1_555
O1 Zn12 2.062600 1_456
O2 V0 1.772814 1_555
O2 Zn2 2.046026 1_555
O2 Zn0 2.046026 1_555
O3 Zn1 2.088181 1_555
O3 Zn0 2.088190 1_555
O3 Zn13 2.456016 1_455
O3 Zn12 2.456024 1_455
O4 V0 1.749761 1_556
O4 Zn2 2.036593 1_555
O4 Zn10 2.062600 1_566
O5 V1 1.749753 1_556
O5 Zn1 2.036599 1_555
O5 Zn13 2.062606 1_456
O6 S0 1.504812 1_555
O6 Zn1 2.207183 1_555
O6 Zn0 2.207183 1_555
O7 V1 1.740282 1_555
O7 Zn4 2.119287 1_554
O7 Zn3 2.127448 1_555
O8 V1 1.772814 1_555
O8 Zn6 2.046026 1_555
O8 Zn1 2.046026 1_555
O9 Zn5 2.088181 1_555
O9 Zn2 2.088190 1_555
O9 Zn11 2.456016 1_565
O9 Zn10 2.456024 1_565
O10 S0 1.464340 1_554
O11 S0 1.504812 1_555
O11 Zn5 2.207183 1_555
O11 Zn2 2.207183 1_555
O12 S0 1.504823 1_555
O12 Zn6 2.207183 1_555
O12 Zn7 2.207183 1_555
O13 V1 1.749763 1_556
O13 Zn6 2.036597 1_555
O13 Zn8 2.062594 1_556
O14 V2 1.740282 1_555
O14 Zn3 2.119287 1_555
O14 Zn4 2.127448 1_555
O15 V3 1.749753 1_556
O15 Zn5 2.036599 1_555
O15 Zn11 2.062606 1_566
O16 V2 1.749763 1_555
O16 Zn8 2.036597 1_555
O16 Zn6 2.062594 1_555
O17 Zn7 2.088187 1_555
O17 Zn6 2.088187 1_555
O17 Zn9 2.456013 1_555
O17 Zn8 2.456013 1_555
O18 V3 1.772814 1_555
O18 Zn7 2.046026 1_555
O18 Zn5 2.046026 1_555
O19 V2 1.772814 1_555
O19 Zn8 2.046026 1_556
O19 Zn10 2.046026 1_556
O20 Zn9 2.088187 1_556
O20 Zn8 2.088187 1_556
O20 Zn7 2.456013 1_555
O20 Zn6 2.456013 1_555
O21 V3 1.749763 1_556
O21 Zn7 2.036597 1_555
O21 Zn9 2.062594 1_556
O22 V2 1.749753 1_555
O22 Zn10 2.036599 1_555
O22 Zn2 2.062606 1_545
O23 V3 1.740282 1_555
O23 Zn4 2.119287 1_664
O23 Zn3 2.127448 1_665
O24 V4 1.749763 1_555
O24 Zn9 2.036597 1_555
O24 Zn7 2.062594 1_555
O25 S1 1.504823 1_555
O25 Zn8 2.207183 1_555
O25 Zn9 2.207183 1_555
O26 S1 1.504812 1_555
O26 Zn10 2.207183 1_555
O26 Zn11 2.207183 1_555
O27 S1 1.464340 1_555
O28 V4 1.772814 1_555
O28 Zn9 2.046026 1_556
O28 Zn12 2.046026 1_556
O29 Zn10 2.088181 1_556
O29 Zn11 2.088190 1_556
O29 Zn2 2.456016 1_545
O29 Zn5 2.456024 1_545
O30 V4 1.740282 1_555
O30 Zn3 2.119287 1_665
O30 Zn4 2.127448 1_665
O31 S1 1.504812 1_555
O31 Zn12 2.207183 1_555
O31 Zn13 2.207183 1_555
O32 V4 1.749753 1_555
O32 Zn12 2.036599 1_555
O32 Zn0 2.062606 1_655
O33 V5 1.749761 1_555
O33 Zn11 2.036593 1_555
O33 Zn5 2.062600 1_545
O34 Zn12 2.088181 1_556
O34 Zn13 2.088190 1_556
O34 Zn0 2.456016 1_655
O34 Zn1 2.456024 1_655
O35 V5 1.772814 1_555
O35 Zn13 2.046026 1_556
O35 Zn11 2.046026 1_556
O36 V5 1.749761 1_555
O36 Zn13 2.036593 1_555
O36 Zn1 2.062600 1_655
O37 V5 1.740282 1_555
O37 Zn3 2.119287 1_655
O37 Zn4 2.127448 1_655
