# generated using pymatgen
data_Li8Mn7Fe(BO3)8
_symmetry_space_group_name_H-M   'P 1'
_cell_length_a   5.25051400
_cell_length_b   9.13094237
_cell_length_c   11.60981130
_cell_angle_alpha   111.48800269
_cell_angle_beta   102.28805155
_cell_angle_gamma   89.82138459
_symmetry_Int_Tables_number   1
_chemical_formula_structural   Li8Mn7Fe(BO3)8
_chemical_formula_sum   'Li8 Mn7 Fe1 B8 O24'
_cell_volume   504.32950133
_cell_formula_units_Z   1
loop_
 _symmetry_equiv_pos_site_id
 _symmetry_equiv_pos_as_xyz
  1  'x, y, z'
loop_
 _atom_site_type_symbol
 _atom_site_label
 _atom_site_symmetry_multiplicity
 _atom_site_fract_x
 _atom_site_fract_y
 _atom_site_fract_z
 _atom_site_occupancy
  Li  Li0  1  0.02889500  0.03988300  0.41723100  1
  Li  Li1  1  0.29468200  0.28446300  0.91760700  1
  Li  Li2  1  0.48045800  0.50832700  0.66771400  1
  Li  Li3  1  0.27255800  0.24388800  0.16801200  1
  Li  Li4  1  0.52912300  0.53953800  0.41790100  1
  Li  Li5  1  0.79372000  0.78505900  0.91694000  1
  Li  Li6  1  0.98115600  0.00849700  0.66832600  1
  Li  Li7  1  0.77149300  0.74553700  0.16817800  1
  Mn  Mn0  1  0.02073200  0.35371700  0.38133800  1
  Mn  Mn1  1  0.27518800  0.94070000  0.88531100  1
  Mn  Mn2  1  0.47539600  0.15479300  0.63291900  1
  Mn  Mn3  1  0.24463600  0.56497700  0.13327000  1
  Mn  Mn4  1  0.52318600  0.85625500  0.38354700  1
  Mn  Mn5  1  0.77211500  0.43921300  0.88276900  1
  Mn  Mn6  1  0.97595100  0.65483900  0.63290100  1
  Fe  Fe0  1  0.75164100  0.06467200  0.13235700  1
  B  B0  1  0.02441000  0.68502900  0.37546700  1
  B  B1  1  0.26610500  0.60548500  0.87614200  1
  B  B2  1  0.23811900  0.89532600  0.12718600  1
  B  B3  1  0.47000600  0.81426800  0.62592700  1
  B  B4  1  0.52418500  0.18482000  0.37461000  1
  B  B5  1  0.76761700  0.10548000  0.87654700  1
  B  B6  1  0.73369200  0.39070400  0.12489500  1
  B  B7  1  0.97017300  0.31437700  0.62587200  1
  O  O0  1  0.02144700  0.10980500  0.86145500  1
  O  O1  1  0.09711800  0.71234900  0.84621100  1
  O  O2  1  0.17611500  0.49420700  0.91779500  1
  O  O3  1  0.07075200  0.16971400  0.61118000  1
  O  O4  1  0.10069300  0.42448900  0.59582200  1
  O  O5  1  0.23806600  0.84983800  0.66709200  1
  O  O6  1  0.26927100  0.65405100  0.34520900  1
  O  O7  1  0.52045100  0.60998000  0.86152200  1
  O  O8  1  0.59736400  0.21139300  0.84560100  1
  O  O9  1  0.40315600  0.08515800  0.41757200  1
  O  O10  1  0.40446000  0.31466300  0.36087100  1
  O  O11  1  0.67834800  0.99525000  0.91920300  1
  O  O12  1  0.34356900  0.01451200  0.09816900  1
  O  O13  1  0.57129300  0.66993300  0.61150600  1
  O  O14  1  0.60072400  0.92449100  0.59577200  1
  O  O15  1  0.40143200  0.79350700  0.16631500  1
  O  O16  1  0.46623100  0.37029100  0.11081600  1
  O  O17  1  0.73788200  0.34981300  0.66704000  1
  O  O18  1  0.76778300  0.15281700  0.34347700  1
  O  O19  1  0.90327400  0.58433500  0.41719900  1
  O  O20  1  0.90438100  0.81444100  0.36079500  1
  O  O21  1  0.83637000  0.51191000  0.09657300  1
  O  O22  1  0.89972500  0.28981300  0.16439700  1
  O  O23  1  0.96805800  0.87659500  0.11304200  1
loop_
_geom_bond_atom_site_label_1
_geom_bond_atom_site_label_2
_geom_bond_distance
_geom_bond_site_symmetry_2
Li0 O18 1.953077 1_455
Li0 O20 1.982945 1_445
Li0 O9 2.008219 1_555
Li0 O3 2.087880 1_555
Li1 O8 1.954470 1_555
Li1 O0 1.970025 1_555
Li1 O2 2.011338 1_555
Li1 O16 2.076918 1_556
Li2 O13 1.916524 1_555
Li2 O17 1.976317 1_555
Li2 O4 2.022762 1_555
Li2 O7 2.058764 1_555
Li3 O16 1.913986 1_555
Li3 O22 1.995613 1_455
Li3 O12 2.015622 1_555
Li3 O10 2.047757 1_555
Li4 O6 1.953070 1_555
Li4 O10 1.977587 1_555
Li4 O19 2.010186 1_555
Li4 O13 2.085197 1_555
Li5 O1 1.950256 1_655
Li5 O7 1.973850 1_555
Li5 O11 2.003425 1_555
Li5 O23 2.107957 1_556
Li6 O3 1.918622 1_655
Li6 O5 1.974677 1_645
Li6 O14 2.026767 1_545
Li6 O0 2.051260 1_655
Li7 O23 1.938315 1_555
Li7 O15 1.987802 1_555
Li7 O21 2.043185 1_555
Li7 O20 2.047268 1_555
Mn0 O10 2.092879 1_555
Mn0 O19 2.108745 1_455
Mn0 O18 2.120876 1_455
Mn0 O4 2.274282 1_555
Mn0 O22 2.309158 1_455
Mn1 O0 2.092673 1_565
Mn1 O11 2.095760 1_555
Mn1 O1 2.136766 1_555
Mn1 O12 2.256949 1_566
Mn1 O5 2.322881 1_555
Mn2 O3 2.095539 1_555
Mn2 O14 2.118689 1_545
Mn2 O17 2.119763 1_555
Mn2 O8 2.273376 1_555
Mn2 O9 2.287375 1_555
Mn3 O16 2.087694 1_555
Mn3 O15 2.114004 1_555
Mn3 O21 2.116093 1_455
Mn3 O6 2.265323 1_555
Mn3 O2 2.288927 1_554
Mn4 O20 2.089931 1_555
Mn4 O9 2.101099 1_565
Mn4 O6 2.131919 1_555
Mn4 O14 2.252699 1_555
Mn4 O15 2.314074 1_555
Mn5 O7 2.090061 1_555
Mn5 O2 2.099266 1_655
Mn5 O8 2.130986 1_555
Mn5 O21 2.270177 1_556
Mn5 O17 2.298482 1_555
Mn6 O13 2.096068 1_555
Mn6 O4 2.118089 1_655
Mn6 O5 2.118211 1_655
Mn6 O1 2.278643 1_655
Mn6 O19 2.290207 1_555
Fe0 O23 2.026035 1_545
Fe0 O22 2.072593 1_555
Fe0 O12 2.113988 1_555
Fe0 O11 2.262934 1_544
Fe0 O18 2.264824 1_555
B0 O20 1.385502 1_455
B0 O19 1.394916 1_455
B0 O6 1.404804 1_555
B1 O7 1.384140 1_555
B1 O2 1.396328 1_555
B1 O1 1.404242 1_555
B2 O15 1.394498 1_555
B2 O23 1.395941 1_455
B2 O12 1.398618 1_565
B3 O13 1.385506 1_555
B3 O5 1.395883 1_555
B3 O14 1.404017 1_555
B4 O10 1.384717 1_555
B4 O9 1.397054 1_555
B4 O18 1.403205 1_555
B5 O0 1.383201 1_655
B5 O11 1.394597 1_545
B5 O8 1.405658 1_555
B6 O16 1.383888 1_555
B6 O22 1.397601 1_555
B6 O21 1.403345 1_555
B7 O3 1.386256 1_655
B7 O17 1.397513 1_555
B7 O4 1.401880 1_655
