# generated using pymatgen
data_Li5Co7O16
_symmetry_space_group_name_H-M   'P 1'
_cell_length_a   8.15291800
_cell_length_b   8.07553100
_cell_length_c   8.13808339
_cell_angle_alpha   89.63692854
_cell_angle_beta   90.00000000
_cell_angle_gamma   90.00000000
_symmetry_Int_Tables_number   1
_chemical_formula_structural   Li5Co7O16
_chemical_formula_sum   'Li10 Co14 O32'
_cell_volume   535.79367087
_cell_formula_units_Z   2
loop_
 _symmetry_equiv_pos_site_id
 _symmetry_equiv_pos_as_xyz
  1  'x, y, z'
loop_
 _atom_site_type_symbol
 _atom_site_label
 _atom_site_symmetry_multiplicity
 _atom_site_fract_x
 _atom_site_fract_y
 _atom_site_fract_z
 _atom_site_occupancy
  Li  Li0  1  0.50321100  0.24966100  0.50005400  1
  Li  Li1  1  0.62335700  0.12765700  0.13220300  1
  Li  Li2  1  0.25136200  0.00048600  0.25454800  1
  Li  Li3  1  0.75136200  0.99951400  0.74545200  1
  Li  Li4  1  0.12335700  0.87234300  0.86779700  1
  Li  Li5  1  0.00321100  0.75033900  0.49994600  1
  Li  Li6  1  0.37450700  0.62312100  0.37947300  1
  Li  Li7  1  0.74804400  0.49688400  0.25653600  1
  Li  Li8  1  0.24804400  0.50311600  0.74346400  1
  Li  Li9  1  0.87450700  0.37687900  0.62052700  1
  Co  Co0  1  0.87988400  0.12248700  0.37883500  1
  Co  Co1  1  0.12633200  0.12827900  0.61853700  1
  Co  Co2  1  0.37887300  0.13088000  0.87571100  1
  Co  Co3  1  0.87887300  0.86912000  0.12428900  1
  Co  Co4  1  0.62633200  0.87172100  0.38146300  1
  Co  Co5  1  0.37988400  0.87751300  0.62116500  1
  Co  Co6  1  0.49863200  0.75808200  0.00269800  1
  Co  Co7  1  0.11835900  0.62587100  0.11954000  1
  Co  Co8  1  0.87159000  0.62356900  0.87873000  1
  Co  Co9  1  0.62675700  0.62795500  0.63122600  1
  Co  Co10  1  0.12675700  0.37204500  0.36877400  1
  Co  Co11  1  0.37159000  0.37643100  0.12127000  1
  Co  Co12  1  0.61835900  0.37412900  0.88046000  1
  Co  Co13  1  0.99863200  0.24191800  0.99730200  1
  O  O0  1  0.36950100  0.14566500  0.09657900  1
  O  O1  1  0.60210900  0.14910200  0.86790200  1
  O  O2  1  0.11628700  0.13758000  0.38734500  1
  O  O3  1  0.90176300  0.11664200  0.60106500  1
  O  O4  1  0.13802200  0.13045900  0.85684700  1
  O  O5  1  0.36142800  0.11214200  0.64304700  1
  O  O6  1  0.88034700  0.10779400  0.13591600  1
  O  O7  1  0.64941100  0.10408200  0.37811900  1
  O  O8  1  0.14941100  0.89591800  0.62188100  1
  O  O9  1  0.38034700  0.89220600  0.86408400  1
  O  O10  1  0.86142800  0.88785800  0.35695300  1
  O  O11  1  0.63802200  0.86954100  0.14315300  1
  O  O12  1  0.40176300  0.88335800  0.39893500  1
  O  O13  1  0.61628700  0.86242000  0.61265500  1
  O  O14  1  0.10210900  0.85089800  0.13209800  1
  O  O15  1  0.86950100  0.85433500  0.90342100  1
  O  O16  1  0.63032800  0.64556000  0.40139200  1
  O  O17  1  0.39615300  0.65414500  0.62941100  1
  O  O18  1  0.88712800  0.63503200  0.11310400  1
  O  O19  1  0.10055500  0.62124600  0.89674100  1
  O  O20  1  0.85532700  0.63263500  0.65665000  1
  O  O21  1  0.63355300  0.61361100  0.87075400  1
  O  O22  1  0.12107300  0.59552000  0.35110100  1
  O  O23  1  0.35541200  0.61058700  0.11562000  1
  O  O24  1  0.85541200  0.38941300  0.88438000  1
  O  O25  1  0.62107300  0.40448000  0.64889900  1
  O  O26  1  0.13355300  0.38638900  0.12924600  1
  O  O27  1  0.35532700  0.36736500  0.34335000  1
  O  O28  1  0.60055500  0.37875400  0.10325900  1
  O  O29  1  0.38712800  0.36496800  0.88689600  1
  O  O30  1  0.89615300  0.34585500  0.37058900  1
  O  O31  1  0.13032800  0.35444000  0.59860800  1
loop_
_geom_bond_atom_site_label_1
_geom_bond_atom_site_label_2
_geom_bond_distance
_geom_bond_site_symmetry_2
Li0 O7 1.949959 1_555
Li0 O5 1.976689 1_555
Li0 O27 1.992015 1_555
Li0 O25 1.993227 1_555
Li1 O7 2.020316 1_555
Li1 O28 2.048347 1_555
Li1 O11 2.089188 1_545
Li1 O0 2.094799 1_555
Li1 O6 2.101552 1_555
Li1 O1 2.163716 1_554
Li2 O2 1.903038 1_555
Li2 O12 1.940328 1_545
Li2 O0 1.983886 1_555
Li2 O14 1.987026 1_545
Li3 O13 1.903038 1_555
Li3 O3 1.940328 1_565
Li3 O15 1.983886 1_555
Li3 O1 1.987026 1_565
Li4 O8 2.020316 1_555
Li4 O19 2.048347 1_555
Li4 O4 2.089188 1_565
Li4 O15 2.094799 1_455
Li4 O9 2.101552 1_555
Li4 O14 2.163716 1_556
Li5 O8 1.949959 1_555
Li5 O10 1.976689 1_455
Li5 O20 1.992015 1_455
Li5 O22 1.993227 1_555
Li6 O17 2.058541 1_555
Li6 O22 2.091157 1_555
Li6 O27 2.093872 1_555
Li6 O16 2.101228 1_555
Li6 O12 2.120190 1_555
Li6 O23 2.155911 1_555
Li7 O16 1.941710 1_555
Li7 O30 1.947507 1_555
Li7 O18 1.968863 1_555
Li7 O28 1.981668 1_555
Li8 O31 1.941710 1_555
Li8 O17 1.947507 1_555
Li8 O29 1.968863 1_555
Li8 O19 1.981668 1_555
Li9 O30 2.058541 1_555
Li9 O25 2.091157 1_555
Li9 O20 2.093872 1_555
Li9 O31 2.101228 1_655
Li9 O3 2.120190 1_555
Li9 O24 2.155911 1_555
Co0 O30 1.809506 1_555
Co0 O3 1.817617 1_555
Co0 O7 1.884909 1_555
Co0 O10 1.910163 1_545
Co0 O2 1.932493 1_655
Co0 O6 1.981207 1_555
Co1 O31 1.832823 1_555
Co1 O3 1.838855 1_455
Co1 O2 1.884263 1_555
Co1 O8 1.885874 1_545
Co1 O5 1.931385 1_555
Co1 O4 1.941918 1_555
Co2 O0 1.803777 1_556
Co2 O1 1.827037 1_555
Co2 O29 1.894347 1_555
Co2 O5 1.905746 1_555
Co2 O9 1.930377 1_545
Co2 O4 1.969635 1_555
Co3 O15 1.803777 1_554
Co3 O14 1.827037 1_655
Co3 O18 1.894347 1_555
Co3 O10 1.905746 1_555
Co3 O6 1.930377 1_565
Co3 O11 1.969635 1_555
Co4 O16 1.832823 1_555
Co4 O12 1.838855 1_555
Co4 O13 1.884263 1_555
Co4 O7 1.885874 1_565
Co4 O10 1.931385 1_555
Co4 O11 1.941918 1_555
Co5 O17 1.809506 1_555
Co5 O12 1.817617 1_555
Co5 O8 1.884909 1_555
Co5 O5 1.910163 1_565
Co5 O13 1.932493 1_555
Co5 O9 1.981207 1_555
Co6 O9 1.833079 1_554
Co6 O11 1.849653 1_555
Co6 O23 1.900732 1_555
Co6 O21 1.933909 1_554
Co7 O19 1.819577 1_554
Co7 O14 1.825544 1_555
Co7 O18 1.887372 1_455
Co7 O22 1.898923 1_555
Co7 O23 1.936886 1_555
Co7 O26 1.939018 1_555
Co8 O20 1.813179 1_555
Co8 O19 1.872563 1_655
Co8 O15 1.875703 1_555
Co8 O24 1.895796 1_555
Co8 O18 1.914382 1_556
Co8 O21 1.943463 1_555
Co9 O25 1.810086 1_555
Co9 O16 1.875131 1_555
Co9 O20 1.875371 1_555
Co9 O17 1.892001 1_555
Co9 O13 1.900415 1_555
Co9 O21 1.952791 1_555
Co10 O22 1.810086 1_555
Co10 O31 1.875131 1_555
Co10 O27 1.875371 1_555
Co10 O30 1.892001 1_455
Co10 O2 1.900415 1_555
Co10 O26 1.952791 1_555
Co11 O27 1.813179 1_555
Co11 O28 1.872563 1_555
Co11 O0 1.875703 1_555
Co11 O23 1.895796 1_555
Co11 O29 1.914382 1_554
Co11 O26 1.943463 1_555
Co12 O28 1.819577 1_556
Co12 O1 1.825544 1_555
Co12 O29 1.887372 1_555
Co12 O25 1.898923 1_555
Co12 O24 1.936886 1_555
Co12 O21 1.939018 1_555
Co13 O6 1.833079 1_556
Co13 O4 1.849653 1_655
Co13 O24 1.900732 1_555
Co13 O26 1.933909 1_656
