# generated using pymatgen
data_Li2MnPCO7
_symmetry_space_group_name_H-M   'P 1'
_cell_length_a   5.02429200
_cell_length_b   6.46020076
_cell_length_c   8.44994253
_cell_angle_alpha   90.83095846
_cell_angle_beta   93.72435080
_cell_angle_gamma   90.08288121
_symmetry_Int_Tables_number   1
_chemical_formula_structural   Li2MnPCO7
_chemical_formula_sum   'Li4 Mn2 P2 C2 O14'
_cell_volume   273.65889290
_cell_formula_units_Z   2
loop_
 _symmetry_equiv_pos_site_id
 _symmetry_equiv_pos_as_xyz
  1  'x, y, z'
loop_
 _atom_site_type_symbol
 _atom_site_label
 _atom_site_symmetry_multiplicity
 _atom_site_fract_x
 _atom_site_fract_y
 _atom_site_fract_z
 _atom_site_occupancy
  Li  Li0  1  0.74405600  0.96091400  0.26514800  1
  Li  Li1  1  0.74415000  0.53281500  0.26369300  1
  Li  Li2  1  0.25423000  0.46856300  0.73249600  1
  Li  Li3  1  0.77548200  0.23549900  0.89188500  1
  Mn  Mn0  1  0.19290800  0.24823200  0.33625500  1
  Mn  Mn1  1  0.80941200  0.75395700  0.67561800  1
  P  P0  1  0.26655600  0.74548000  0.41655100  1
  P  P1  1  0.71816100  0.25555300  0.58425900  1
  C  C0  1  0.29052200  0.25923600  0.04410100  1
  C  C1  1  0.72563600  0.74215200  0.95948700  1
  O  O0  1  0.04072700  0.24948500  0.06947300  1
  O  O1  1  0.65623000  0.74396800  0.10073500  1
  O  O2  1  0.45843200  0.24506600  0.17459300  1
  O  O3  1  0.15758400  0.93980600  0.32707600  1
  O  O4  1  0.15790400  0.55754800  0.31375000  1
  O  O5  1  0.83491200  0.24897800  0.41637400  1
  O  O6  1  0.57725200  0.74650900  0.43477300  1
  O  O7  1  0.41541100  0.28736900  0.55366600  1
  O  O8  1  0.15945900  0.73552400  0.58405700  1
  O  O9  1  0.78983400  0.06454500  0.68318700  1
  O  O10  1  0.84111000  0.43416800  0.69016400  1
  O  O11  1  0.54410100  0.73629200  0.83694000  1
  O  O12  1  0.38758800  0.28288800  0.91142000  1
  O  O13  1  0.96800400  0.74926600  0.91807600  1
loop_
_geom_bond_atom_site_label_1
_geom_bond_atom_site_label_2
_geom_bond_distance
_geom_bond_site_symmetry_2
Li0 O1 1.987750 1_555
Li0 O3 2.114438 1_655
Li0 O6 2.210329 1_555
Li0 O5 2.270949 1_565
Li0 O2 2.433172 1_565
Li1 O1 1.982213 1_555
Li1 O4 2.099710 1_655
Li1 O6 2.191280 1_555
Li1 O5 2.286762 1_555
Li1 O2 2.427846 1_555
Li2 O12 2.024078 1_555
Li2 O10 2.094157 1_455
Li2 O7 2.102342 1_555
Li2 O8 2.182165 1_555
Li2 O11 2.381783 1_555
Li3 O0 1.942141 1_656
Li3 O12 1.990278 1_555
Li3 O9 2.072447 1_555
Li3 O10 2.190118 1_555
Mn0 O5 1.962579 1_455
Mn0 O2 1.970338 1_555
Mn0 O3 2.000063 1_545
Mn0 O4 2.016870 1_555
Mn0 O7 2.099416 1_555
Mn0 O0 2.333054 1_555
Mn1 O8 1.969933 1_655
Mn1 O11 1.971867 1_555
Mn1 O9 2.009308 1_565
Mn1 O10 2.077063 1_555
Mn1 O13 2.150121 1_555
Mn1 O6 2.278868 1_555
C0 O12 1.262514 1_554
C0 O0 1.288481 1_555
C0 O2 1.348417 1_555
C1 O1 1.264891 1_556
C1 O13 1.289604 1_555
C1 O11 1.334798 1_555
O3 P0 1.556638 1_555
O4 P0 1.559633 1_555
O5 P1 1.569969 1_555
O6 P0 1.558613 1_555
O7 P1 1.540842 1_555
O8 P0 1.548729 1_555
O9 P1 1.530750 1_555
O10 P1 1.552435 1_555
