# generated using pymatgen
data_Mg3Cu9(SiO3)16
_symmetry_space_group_name_H-M   'P 1'
_cell_length_a   8.20241900
_cell_length_b   8.23215676
_cell_length_c   14.22329617
_cell_angle_alpha   78.49896848
_cell_angle_beta   74.14097290
_cell_angle_gamma   72.16400719
_symmetry_Int_Tables_number   1
_chemical_formula_structural   Mg3Cu9(SiO3)16
_chemical_formula_sum   'Mg3 Cu9 Si16 O48'
_cell_volume   872.40282108
_cell_formula_units_Z   1
loop_
 _symmetry_equiv_pos_site_id
 _symmetry_equiv_pos_as_xyz
  1  'x, y, z'
loop_
 _atom_site_type_symbol
 _atom_site_label
 _atom_site_symmetry_multiplicity
 _atom_site_fract_x
 _atom_site_fract_y
 _atom_site_fract_z
 _atom_site_occupancy
  Mg  Mg0  1  0.00004400  0.75061500  0.74779600  1
  Mg  Mg1  1  0.99995600  0.24938500  0.25220400  1
  Mg  Mg2  1  0.50000000  0.00000000  0.50000000  1
  Cu  Cu0  1  0.74217200  0.21723300  0.46820900  1
  Cu  Cu1  1  0.24170300  0.96698300  0.71801500  1
  Cu  Cu2  1  0.75829700  0.03301700  0.28198500  1
  Cu  Cu3  1  0.25782800  0.78276700  0.53179100  1
  Cu  Cu4  1  0.74115900  0.71745400  0.96870600  1
  Cu  Cu5  1  0.24178800  0.46614100  0.21982200  1
  Cu  Cu6  1  0.50000000  0.50000000  0.00000000  1
  Cu  Cu7  1  0.75821200  0.53385900  0.78017800  1
  Cu  Cu8  1  0.25884100  0.28254600  0.03129400  1
  Si  Si0  1  0.85469200  0.16688800  0.71412500  1
  Si  Si1  1  0.58442600  0.94592100  0.75157000  1
  Si  Si2  1  0.91584500  0.80328500  0.49791300  1
  Si  Si3  1  0.64520900  0.58316700  0.53475700  1
  Si  Si4  1  0.85523700  0.66594700  0.21417900  1
  Si  Si5  1  0.35479100  0.41683300  0.46524300  1
  Si  Si6  1  0.58419800  0.44634800  0.25480400  1
  Si  Si7  1  0.91534600  0.30307700  0.99819900  1
  Si  Si8  1  0.08415500  0.19671500  0.50208700  1
  Si  Si9  1  0.41557400  0.05407900  0.24843000  1
  Si  Si10  1  0.64547000  0.08505600  0.03638100  1
  Si  Si11  1  0.14530800  0.83311200  0.28587500  1
  Si  Si12  1  0.35453000  0.91494400  0.96361900  1
  Si  Si13  1  0.08465400  0.69692300  0.00180100  1
  Si  Si14  1  0.41580200  0.55365200  0.74519600  1
  Si  Si15  1  0.14476300  0.33405300  0.78582100  1
  O  O0  1  0.92998400  0.24689100  0.60075900  1
  O  O1  1  0.69108200  0.09329300  0.71002100  1
  O  O2  1  0.80838900  0.65644500  0.53995700  1
  O  O3  1  0.98481900  0.18005000  0.41928000  1
  O  O4  1  0.56903500  0.49999500  0.64668900  1
  O  O5  1  0.48424900  0.93032400  0.66897400  1
  O  O6  1  0.76133600  0.98099100  0.47525700  1
  O  O7  1  0.71039900  0.44858500  0.45403400  1
  O  O8  1  0.00043000  0.49320300  0.25121000  1
  O  O9  1  0.26033500  0.73131000  0.72333000  1
  O  O10  1  0.20883300  0.19811000  0.70596700  1
  O  O11  1  0.49922100  0.75663800  0.49817200  1
  O  O12  1  0.50077900  0.24336200  0.50182800  1
  O  O13  1  0.79116700  0.80189000  0.29403300  1
  O  O14  1  0.73966500  0.26869000  0.27667000  1
  O  O15  1  0.99957000  0.50679700  0.74879000  1
  O  O16  1  0.28960100  0.55141500  0.54596600  1
  O  O17  1  0.93106300  0.74574000  0.10076700  1
  O  O18  1  0.23866400  0.01900900  0.52474300  1
  O  O19  1  0.51575100  0.06967600  0.33102600  1
  O  O20  1  0.69111300  0.59326700  0.21007700  1
  O  O21  1  0.43096500  0.50000500  0.35331100  1
  O  O22  1  0.01518100  0.81995000  0.58072000  1
  O  O23  1  0.81003800  0.15543700  0.04061800  1
  O  O24  1  0.19161100  0.34355500  0.46004300  1
  O  O25  1  0.98377600  0.67883600  0.92026900  1
  O  O26  1  0.56901300  0.00512300  0.14909600  1
  O  O27  1  0.30891800  0.90670700  0.28997900  1
  O  O28  1  0.48305000  0.42342400  0.17535700  1
  O  O29  1  0.75729000  0.48134700  0.97605400  1
  O  O30  1  0.07001600  0.75310900  0.39924100  1
  O  O31  1  0.70414900  0.95024400  0.95630800  1
  O  O32  1  0.00026200  0.99348500  0.75156500  1
  O  O33  1  0.26042800  0.23074800  0.22544100  1
  O  O34  1  0.20958900  0.69769800  0.20589400  1
  O  O35  1  0.50058700  0.26188700  0.99746500  1
  O  O36  1  0.49941300  0.73811300  0.00253500  1
  O  O37  1  0.79041100  0.30230200  0.79410600  1
  O  O38  1  0.73957200  0.76925200  0.77455900  1
  O  O39  1  0.99973800  0.00651500  0.24843500  1
  O  O40  1  0.29585100  0.04975600  0.04369200  1
  O  O41  1  0.24271000  0.51865300  0.02394600  1
  O  O42  1  0.51695000  0.57657600  0.82464300  1
  O  O43  1  0.43098700  0.99487700  0.85090400  1
  O  O44  1  0.01622400  0.32116400  0.07973100  1
  O  O45  1  0.18996200  0.84456300  0.95938200  1
  O  O46  1  0.30888700  0.40673300  0.78992300  1
  O  O47  1  0.06893700  0.25426000  0.89923300  1
loop_
_geom_bond_atom_site_label_1
_geom_bond_atom_site_label_2
_geom_bond_distance
_geom_bond_site_symmetry_2
Mg0 O15 2.005565 1_455
Mg0 O32 2.011277 1_555
Mg0 O38 2.027578 1_455
Mg0 O9 2.028001 1_555
Mg0 O22 2.308596 1_555
Mg0 O25 2.382476 1_455
Mg1 O8 2.005565 1_655
Mg1 O39 2.011277 1_555
Mg1 O33 2.027578 1_655
Mg1 O14 2.028001 1_555
Mg1 O3 2.308596 1_555
Mg1 O44 2.382476 1_655
Mg2 O12 2.010723 1_555
Mg2 O11 2.010723 1_545
Mg2 O6 2.036536 1_545
Mg2 O18 2.036536 1_555
Mg2 O5 2.334060 1_545
Mg2 O19 2.334060 1_555
Cu0 O7 1.818606 1_555
Cu0 O12 1.859570 1_555
Cu0 O3 1.869226 1_555
Cu0 O6 1.886937 1_545
Cu1 O10 1.817473 1_565
Cu1 O32 1.859472 1_555
Cu1 O5 1.869036 1_555
Cu1 O9 1.886596 1_555
Cu2 O13 1.817473 1_545
Cu2 O39 1.859472 1_555
Cu2 O19 1.869036 1_555
Cu2 O14 1.886596 1_555
Cu3 O16 1.818606 1_555
Cu3 O11 1.859570 1_555
Cu3 O22 1.869226 1_555
Cu3 O18 1.886937 1_565
Cu4 O31 1.825877 1_555
Cu4 O25 1.867203 1_555
Cu4 O36 1.870009 1_556
Cu4 O29 1.890845 1_555
Cu5 O34 1.819959 1_555
Cu5 O28 1.848830 1_555
Cu5 O8 1.858673 1_555
Cu5 O33 1.883674 1_555
Cu6 O36 1.966202 1_555
Cu6 O35 1.966202 1_554
Cu6 O29 2.005708 1_554
Cu6 O41 2.005708 1_555
Cu6 O28 2.423780 1_555
Cu6 O42 2.423780 1_554
Cu7 O37 1.819959 1_555
Cu7 O42 1.848830 1_555
Cu7 O15 1.858673 1_555
Cu7 O38 1.883674 1_555
Cu8 O40 1.825877 1_555
Cu8 O44 1.867203 1_555
Cu8 O35 1.870009 1_554
Cu8 O41 1.890845 1_555
O0 Si8 1.637260 1_655
O0 Si0 1.642116 1_555
O1 Si1 1.633435 1_545
O1 Si0 1.651178 1_555
O2 Si2 1.634637 1_555
O2 Si3 1.651477 1_555
O3 Si8 1.651454 1_655
O4 Si3 1.636308 1_555
O4 Si14 1.637729 1_555
O5 Si1 1.650502 1_555
O6 Si2 1.658185 1_555
O7 Si3 1.624934 1_555
O8 Si4 1.650657 1_455
O9 Si14 1.659731 1_555
O10 Si15 1.624484 1_555
O11 Si3 1.655497 1_555
O12 Si5 1.655497 1_555
O13 Si4 1.624484 1_555
O14 Si6 1.659731 1_555
O15 Si15 1.650657 1_655
O16 Si5 1.624934 1_555
O17 Si13 1.635930 1_655
O17 Si4 1.643100 1_555
O18 Si8 1.658185 1_555
O19 Si9 1.650502 1_555
O20 Si6 1.635411 1_555
O20 Si4 1.650435 1_555
O21 Si5 1.636308 1_555
O21 Si6 1.637729 1_555
O22 Si2 1.651454 1_455
O23 Si7 1.628860 1_554
O23 Si10 1.642837 1_555
O24 Si8 1.634637 1_555
O24 Si5 1.651477 1_555
O25 Si13 1.649361 1_656
O26 Si10 1.636793 1_555
O26 Si9 1.639231 1_555
O27 Si9 1.633435 1_565
O27 Si11 1.651178 1_555
O28 Si6 1.641396 1_555
O29 Si7 1.675414 1_555
O30 Si2 1.637260 1_455
O30 Si11 1.642116 1_555
O31 Si10 1.624073 1_566
O32 Si0 1.657480 1_465
O33 Si9 1.656972 1_555
O34 Si11 1.622531 1_555
O35 Si10 1.678147 1_556
O36 Si12 1.678147 1_554
O37 Si0 1.622531 1_555
O38 Si1 1.656972 1_555
O39 Si11 1.657480 1_645
O40 Si12 1.624073 1_544
O41 Si13 1.675414 1_555
O42 Si14 1.641396 1_555
O43 Si12 1.636793 1_555
O43 Si1 1.639231 1_555
O44 Si7 1.649361 1_454
O45 Si13 1.628860 1_556
O45 Si12 1.642837 1_555
O46 Si14 1.635411 1_555
O46 Si15 1.650435 1_555
O47 Si7 1.635930 1_455
O47 Si15 1.643100 1_555
