# generated using pymatgen
data_Hf2N2O
_symmetry_space_group_name_H-M   'P 1'
_cell_length_a   8.70102845
_cell_length_b   8.69174024
_cell_length_c   8.64856287
_cell_angle_alpha   109.35438338
_cell_angle_beta   109.55593490
_cell_angle_gamma   109.62468952
_symmetry_Int_Tables_number   1
_chemical_formula_structural   Hf2N2O
_chemical_formula_sum   'Hf16 N16 O8'
_cell_volume   502.74218827
_cell_formula_units_Z   8
loop_
 _symmetry_equiv_pos_site_id
 _symmetry_equiv_pos_as_xyz
  1  'x, y, z'
loop_
 _atom_site_type_symbol
 _atom_site_label
 _atom_site_symmetry_multiplicity
 _atom_site_fract_x
 _atom_site_fract_y
 _atom_site_fract_z
 _atom_site_occupancy
  Hf  Hf0  1  0.48950083  0.99012682  0.98860912  1
  Hf  Hf1  1  0.75626867  0.29219734  0.54314327  1
  Hf  Hf2  1  0.72076355  0.47121791  0.24930222  1
  Hf  Hf3  1  0.21298709  0.95477257  0.24940064  1
  Hf  Hf4  1  0.25015544  0.21530976  0.95664219  1
  Hf  Hf5  1  0.97270765  0.26540598  0.22402496  1
  Hf  Hf6  1  0.99648351  0.50895375  0.99672685  1
  Hf  Hf7  1  0.50359934  0.50927873  0.51259822  1
  Hf  Hf8  1  0.00964430  0.99788266  0.50799542  1
  Hf  Hf9  1  0.02631901  0.74096523  0.77414264  1
  Hf  Hf10  1  0.46593793  0.25016256  0.72182032  1
  Hf  Hf11  1  0.53364535  0.74890775  0.28231644  1
  Hf  Hf12  1  0.74426759  0.77807269  0.03595929  1
  Hf  Hf13  1  0.78065994  0.03096531  0.74523805  1
  Hf  Hf14  1  0.28591314  0.53671903  0.75123730  1
  Hf  Hf15  1  0.25129700  0.71498297  0.46403215  1
  N  N0  1  0.51058564  0.23904165  0.97193855  1
  N  N1  1  0.76678234  0.53689979  0.52602971  1
  N  N2  1  0.72540955  0.25501670  0.76715462  1
  N  N3  1  0.23612534  0.96800517  0.50717301  1
  N  N4  1  0.77084366  0.72699405  0.26227696  1
  N  N5  1  0.49269974  0.76871086  0.03617395  1
  N  N6  1  0.95849941  0.73297231  0.99141161  1
  N  N7  1  0.96308305  0.50580199  0.23619128  1
  N  N8  1  0.27347286  0.73920273  0.22476404  1
  N  N9  1  0.22811593  0.44947408  0.46233497  1
  N  N10  1  0.54913010  0.53335997  0.77323932  1
  N  N11  1  0.54058308  0.77423940  0.54898211  1
  N  N12  1  0.99013000  0.95859232  0.73146713  1
  N  N13  1  0.22451861  0.27285727  0.74080702  1
  N  N14  1  0.03116840  0.48423464  0.75817764  1
  N  N15  1  0.26205949  0.77765373  0.72826396  1
  O  O0  1  0.73133440  0.99696577  0.95882269  1
  O  O1  1  0.28228166  0.01498877  0.05362857  1
  O  O2  1  0.76039261  0.03417029  0.48457016  1
  O  O3  1  0.74358181  0.21846415  0.27571499  1
  O  O4  1  0.46117214  0.22492360  0.44579152  1
  O  O5  1  0.04903077  0.27071473  0.01917167  1
  O  O6  1  0.44410856  0.46610105  0.22258290  1
  O  O7  1  0.00474454  0.04469396  0.27014354  1
loop_
_geom_bond_atom_site_label_1
_geom_bond_atom_site_label_2
_geom_bond_distance
_geom_bond_site_symmetry_2
Hf0 N15 2.050017 1_555
Hf0 N5 2.103975 1_556
Hf0 O1 2.115114 1_566
Hf0 N0 2.166341 1_565
Hf0 O0 2.187824 1_555
Hf0 O3 2.259060 1_566
Hf1 N14 2.061228 1_655
Hf1 O3 2.138075 1_555
Hf1 O2 2.144953 1_555
Hf1 N2 2.152883 1_555
Hf1 N1 2.154289 1_555
Hf1 O4 2.204887 1_555
Hf2 N4 2.072685 1_555
Hf2 N7 2.074996 1_555
Hf2 N1 2.124477 1_555
Hf2 N0 2.132294 1_554
Hf2 O6 2.323530 1_555
Hf2 O3 2.347996 1_555
Hf3 N8 2.075060 1_555
Hf3 N3 2.130219 1_555
Hf3 O4 2.134656 1_565
Hf3 O1 2.136123 1_565
Hf3 N6 2.138236 1_454
Hf3 O7 2.236523 1_565
Hf4 N13 2.049253 1_555
Hf4 O6 2.120616 1_556
Hf4 O5 2.147987 1_556
Hf4 N0 2.159193 1_555
Hf4 N12 2.160851 1_445
Hf4 O1 2.225140 1_556
Hf5 N9 2.026342 1_655
Hf5 N7 2.088453 1_555
Hf5 O5 2.098397 1_655
Hf5 O3 2.124156 1_555
Hf5 O7 2.169994 1_655
Hf5 O0 2.247660 1_544
Hf6 N6 2.093802 1_555
Hf6 N14 2.135470 1_655
Hf6 N8 2.159911 1_656
Hf6 N7 2.193065 1_556
Hf6 N2 2.200047 1_555
Hf6 O5 2.318952 1_656
Hf7 N10 2.077445 1_555
Hf7 N11 2.111947 1_555
Hf7 N9 2.126136 1_555
Hf7 N1 2.179268 1_555
Hf7 O4 2.208269 1_555
Hf7 O6 2.253076 1_555
Hf8 N3 2.074302 1_555
Hf8 N12 2.121093 1_455
Hf8 N13 2.133183 1_565
Hf8 N4 2.195083 1_455
Hf8 O7 2.215091 1_565
Hf8 O2 2.247591 1_465
Hf9 N1 2.095931 1_455
Hf9 N12 2.144385 1_455
Hf9 N15 2.157739 1_555
Hf9 N6 2.164540 1_455
Hf9 N14 2.205239 1_555
Hf9 O1 2.343630 1_566
Hf10 N0 2.107315 1_555
Hf10 N2 2.141271 1_555
Hf10 N10 2.154701 1_555
Hf10 N3 2.159254 1_545
Hf10 N13 2.228488 1_555
Hf10 O4 2.308532 1_555
Hf11 N5 2.112956 1_555
Hf11 N8 2.114022 1_555
Hf11 O6 2.125683 1_555
Hf11 O2 2.151486 1_565
Hf11 N4 2.192602 1_555
Hf11 N11 2.220884 1_555
Hf12 N10 2.087529 1_554
Hf12 N4 2.103240 1_555
Hf12 N6 2.155976 1_554
Hf12 N5 2.163581 1_555
Hf12 O7 2.212940 1_665
Hf12 O0 2.238814 1_554
Hf13 N11 2.051500 1_545
Hf13 O0 2.119206 1_545
Hf13 N2 2.122398 1_555
Hf13 N12 2.144192 1_545
Hf13 O2 2.212009 1_555
Hf13 O5 2.272339 1_656
Hf14 N14 2.133723 1_555
Hf14 N13 2.135636 1_555
Hf14 N5 2.162662 1_556
Hf14 N9 2.172025 1_555
Hf14 N15 2.237882 1_555
Hf14 N10 2.244814 1_555
Hf15 N15 2.127236 1_555
Hf15 N3 2.162693 1_555
Hf15 N7 2.175297 1_455
Hf15 N11 2.186579 1_555
Hf15 N8 2.211878 1_555
Hf15 N9 2.242641 1_555
