# generated using pymatgen
data_VH10(CO5)2
_symmetry_space_group_name_H-M   'P 1'
_cell_length_a   8.92901300
_cell_length_b   7.22942700
_cell_length_c   14.13084981
_cell_angle_alpha   84.84890956
_cell_angle_beta   90.00000000
_cell_angle_gamma   90.00000000
_symmetry_Int_Tables_number   1
_chemical_formula_structural   VH10(CO5)2
_chemical_formula_sum   'V4 H40 C8 O40'
_cell_volume   908.48575243
_cell_formula_units_Z   4
loop_
 _symmetry_equiv_pos_site_id
 _symmetry_equiv_pos_as_xyz
  1  'x, y, z'
loop_
 _atom_site_type_symbol
 _atom_site_label
 _atom_site_symmetry_multiplicity
 _atom_site_fract_x
 _atom_site_fract_y
 _atom_site_fract_z
 _atom_site_occupancy
  V  V0  1  0.23171000  0.68817800  0.98888600  1
  V  V1  1  0.26829000  0.68817800  0.48888600  1
  V  V2  1  0.73171000  0.31182200  0.51111400  1
  V  V3  1  0.76829000  0.31182200  0.01111400  1
  H  H0  1  0.74860500  0.96186300  0.95415300  1
  H  H1  1  0.04729600  0.01029400  0.74353600  1
  H  H2  1  0.69299900  0.94979600  0.56501000  1
  H  H3  1  0.75139500  0.96186300  0.45415300  1
  H  H4  1  0.89895800  0.89556600  0.75451500  1
  H  H5  1  0.45270400  0.01029400  0.24353600  1
  H  H6  1  0.40216400  0.83515900  0.84837300  1
  H  H7  1  0.80700100  0.94979600  0.06501000  1
  H  H8  1  0.60104200  0.89556600  0.25451500  1
  H  H9  1  0.02738500  0.79959200  0.62039100  1
  H  H10  1  0.53256400  0.76356700  0.64065500  1
  H  H11  1  0.09783600  0.83515900  0.34837300  1
  H  H12  1  0.69364500  0.73520600  0.68583600  1
  H  H13  1  0.47261500  0.79959200  0.12039100  1
  H  H14  1  0.95723100  0.68796600  0.53883100  1
  H  H15  1  0.36367100  0.61998100  0.82870300  1
  H  H16  1  0.96743600  0.76356700  0.14065500  1
  H  H17  1  0.80635500  0.73520600  0.18583600  1
  H  H18  1  0.54276900  0.68796600  0.03883100  1
  H  H19  1  0.13632900  0.61998100  0.32870300  1
  H  H20  1  0.86367100  0.38001900  0.67129700  1
  H  H21  1  0.45723100  0.31203400  0.96116900  1
  H  H22  1  0.19364500  0.26479400  0.81416400  1
  H  H23  1  0.03256400  0.23643300  0.85934500  1
  H  H24  1  0.63632900  0.38001900  0.17129700  1
  H  H25  1  0.04276900  0.31203400  0.46116900  1
  H  H26  1  0.52738500  0.20040800  0.87960900  1
  H  H27  1  0.30635500  0.26479400  0.31416400  1
  H  H28  1  0.90216400  0.16484100  0.65162700  1
  H  H29  1  0.46743600  0.23643300  0.35934500  1
  H  H30  1  0.97261500  0.20040800  0.37960900  1
  H  H31  1  0.39895800  0.10443400  0.74548500  1
  H  H32  1  0.19299900  0.05020400  0.93499000  1
  H  H33  1  0.59783600  0.16484100  0.15162700  1
  H  H34  1  0.54729600  0.98970600  0.75646400  1
  H  H35  1  0.10104200  0.10443400  0.24548500  1
  H  H36  1  0.24860500  0.03813700  0.54584700  1
  H  H37  1  0.30700100  0.05020400  0.43499000  1
  H  H38  1  0.95270400  0.98970600  0.25646400  1
  H  H39  1  0.25139500  0.03813700  0.04584700  1
  C  C0  1  0.75558700  0.65351000  0.89595100  1
  C  C1  1  0.74441300  0.65351000  0.39595100  1
  C  C2  1  0.81123200  0.50622600  0.83086300  1
  C  C3  1  0.31123200  0.49377400  0.66913700  1
  C  C4  1  0.68876800  0.50622600  0.33086300  1
  C  C5  1  0.18876800  0.49377400  0.16913700  1
  C  C6  1  0.25558700  0.34649000  0.60404900  1
  C  C7  1  0.24441300  0.34649000  0.10404900  1
  O  O0  1  0.24238800  0.96917300  0.98786000  1
  O  O1  1  0.96675900  0.95734000  0.70641400  1
  O  O2  1  0.25761200  0.96917300  0.48786000  1
  O  O3  1  0.53324100  0.95734000  0.20641400  1
  O  O4  1  0.74971700  0.81966100  0.86466700  1
  O  O5  1  0.62340500  0.83083200  0.65777500  1
  O  O6  1  0.75028300  0.81966100  0.36466700  1
  O  O7  1  0.38121400  0.70723000  0.87891400  1
  O  O8  1  0.07560700  0.67574700  0.92963000  1
  O  O9  1  0.87659500  0.83083200  0.15777500  1
  O  O10  1  0.05116500  0.71483100  0.57107800  1
  O  O11  1  0.11878600  0.70723000  0.37891400  1
  O  O12  1  0.34381400  0.65383300  0.62604300  1
  O  O13  1  0.71921600  0.58769900  0.98104500  1
  O  O14  1  0.42439300  0.67574700  0.42963000  1
  O  O15  1  0.44883500  0.71483100  0.07107800  1
  O  O16  1  0.82178000  0.54749900  0.74331800  1
  O  O17  1  0.15618600  0.65383300  0.12604300  1
  O  O18  1  0.78078400  0.58769900  0.48104500  1
  O  O19  1  0.32178000  0.45250100  0.75668200  1
  O  O20  1  0.67822000  0.54749900  0.24331800  1
  O  O21  1  0.21921600  0.41230100  0.51895500  1
  O  O22  1  0.84381400  0.34616700  0.87395700  1
  O  O23  1  0.17822000  0.45250100  0.25668200  1
  O  O24  1  0.55116500  0.28516900  0.92892200  1
  O  O25  1  0.57560700  0.32425300  0.57037000  1
  O  O26  1  0.28078400  0.41230100  0.01895500  1
  O  O27  1  0.65618600  0.34616700  0.37395700  1
  O  O28  1  0.88121400  0.29277000  0.62108600  1
  O  O29  1  0.94883500  0.28516900  0.42892200  1
  O  O30  1  0.12340500  0.16916800  0.84222500  1
  O  O31  1  0.92439300  0.32425300  0.07037000  1
  O  O32  1  0.61878600  0.29277000  0.12108600  1
  O  O33  1  0.24971700  0.18033900  0.63533300  1
  O  O34  1  0.37659500  0.16916800  0.34222500  1
  O  O35  1  0.25028300  0.18033900  0.13533300  1
  O  O36  1  0.46675900  0.04266000  0.79358600  1
  O  O37  1  0.74238800  0.03082700  0.51214000  1
  O  O38  1  0.03324100  0.04266000  0.29358600  1
  O  O39  1  0.75761200  0.03082700  0.01214000  1
loop_
_geom_bond_atom_site_label_1
_geom_bond_atom_site_label_2
_geom_bond_distance
_geom_bond_site_symmetry_2
H0 O39 0.999912 1_566
H1 O1 0.987377 1_445
H2 O37 1.008571 1_565
H2 O5 1.625331 1_555
H3 O37 0.999912 1_565
H4 O1 0.986632 1_555
H5 O3 0.987377 1_545
H6 O7 1.002461 1_555
H7 O39 1.008571 1_565
H7 O9 1.625331 1_555
H8 O3 0.986632 1_555
H9 O10 0.991377 1_555
H10 O5 0.986936 1_555
H11 O11 1.002461 1_555
H12 O5 0.989586 1_555
H13 O15 0.991377 1_555
H14 O10 0.982210 1_655
H15 O7 1.003086 1_555
H15 O19 1.692018 1_555
H16 O9 0.986936 1_555
H17 O9 0.989586 1_555
H18 O15 0.982210 1_555
H19 O11 1.003086 1_555
H19 O23 1.692018 1_555
H20 O28 1.003086 1_555
H20 O16 1.692018 1_555
H21 O24 0.982210 1_555
H22 O30 0.989586 1_555
H23 O30 0.986936 1_555
H24 O32 1.003086 1_555
H24 O20 1.692018 1_555
H25 O29 0.982210 1_455
H26 O24 0.991377 1_555
H27 O34 0.989586 1_555
H28 O28 1.002461 1_555
H29 O34 0.986936 1_555
H30 O29 0.991377 1_555
H31 O36 0.986632 1_555
H32 O0 1.008571 1_545
H32 O30 1.625331 1_555
H33 O32 1.002461 1_555
H34 O36 0.987377 1_565
H35 O38 0.986632 1_555
H36 O2 0.999912 1_545
H37 O2 1.008571 1_545
H37 O34 1.625331 1_555
H38 O38 0.987377 1_665
H39 O0 0.999912 1_544
C0 O4 1.243241 1_555
C0 O13 1.294214 1_555
C1 O6 1.243241 1_555
C1 O18 1.294214 1_555
C2 O16 1.249800 1_555
C2 O22 1.291470 1_555
C3 O19 1.249800 1_555
C3 O12 1.291470 1_555
C4 O20 1.249800 1_555
C4 O27 1.291470 1_555
C5 O23 1.249800 1_555
C5 O17 1.291470 1_555
C6 O33 1.243241 1_555
C6 O21 1.294214 1_555
C7 O35 1.243241 1_555
C7 O26 1.294214 1_555
O0 V0 2.032420 1_555
O2 V1 2.032420 1_555
O7 V0 2.043885 1_555
O8 V0 1.632645 1_555
O10 V1 2.277030 1_555
O11 V1 2.043885 1_555
O12 V1 2.046069 1_555
O13 V3 2.048935 1_556
O14 V1 1.632645 1_555
O15 V0 2.277030 1_554
O17 V0 2.046069 1_554
O18 V2 2.048935 1_555
O21 V1 2.048935 1_555
O22 V3 2.046069 1_556
O24 V3 2.277030 1_556
O25 V2 1.632645 1_555
O26 V0 2.048935 1_554
O27 V2 2.046069 1_555
O28 V2 2.043885 1_555
O29 V2 2.277030 1_555
O31 V3 1.632645 1_555
O32 V3 2.043885 1_555
O37 V2 2.032420 1_555
O39 V3 2.032420 1_555
