# generated using pymatgen
data_Ta2H15N6Cl7
_symmetry_space_group_name_H-M   'P 1'
_cell_length_a   11.58973578
_cell_length_b   11.58973578
_cell_length_c   7.93989600
_cell_angle_alpha   90.00000000
_cell_angle_beta   90.00000000
_cell_angle_gamma   127.85676906
_symmetry_Int_Tables_number   1
_chemical_formula_structural   Ta2H15N6Cl7
_chemical_formula_sum   'Ta4 H30 N12 Cl14'
_cell_volume   842.05423678
_cell_formula_units_Z   2
loop_
 _symmetry_equiv_pos_site_id
 _symmetry_equiv_pos_as_xyz
  1  'x, y, z'
loop_
 _atom_site_type_symbol
 _atom_site_label
 _atom_site_symmetry_multiplicity
 _atom_site_fract_x
 _atom_site_fract_y
 _atom_site_fract_z
 _atom_site_occupancy
  Ta  Ta0  1  0.00000000  0.00000000  0.00000000  1
  Ta  Ta1  1  0.00000000  0.00000000  0.50000000  1
  Ta  Ta2  1  0.83948200  0.16051800  0.75000000  1
  Ta  Ta3  1  0.16051800  0.83948200  0.25000000  1
  H  H0  1  0.28832000  0.05043200  0.75000000  1
  H  H1  1  0.39971700  0.02774600  0.85529700  1
  H  H2  1  0.39971700  0.02774600  0.64470300  1
  H  H3  1  0.46856500  0.18979500  0.75000000  1
  H  H4  1  0.50777000  0.32467700  0.25000000  1
  H  H5  1  0.92193400  0.07806600  0.25000000  1
  H  H6  1  0.87323600  0.12676400  0.03094700  1
  H  H7  1  0.87323600  0.12676400  0.46905300  1
  H  H8  1  0.53363100  0.46636900  0.14658200  1
  H  H9  1  0.53363100  0.46636900  0.35341800  1
  H  H10  1  0.67532300  0.49223000  0.25000000  1
  H  H11  1  0.05043200  0.28832000  0.25000000  1
  H  H12  1  0.81020500  0.53143500  0.75000000  1
  H  H13  1  0.02774600  0.39971700  0.14470300  1
  H  H14  1  0.02774600  0.39971700  0.35529700  1
  H  H15  1  0.97225400  0.60028300  0.85529700  1
  H  H16  1  0.97225400  0.60028300  0.64470300  1
  H  H17  1  0.18979500  0.46856500  0.25000000  1
  H  H18  1  0.94956800  0.71168000  0.75000000  1
  H  H19  1  0.32467700  0.50777000  0.75000000  1
  H  H20  1  0.46636900  0.53363100  0.85341800  1
  H  H21  1  0.46636900  0.53363100  0.64658200  1
  H  H22  1  0.12676400  0.87323600  0.96905300  1
  H  H23  1  0.07806600  0.92193400  0.75000000  1
  H  H24  1  0.12676400  0.87323600  0.53094700  1
  H  H25  1  0.49223000  0.67532300  0.75000000  1
  H  H26  1  0.53143500  0.81020500  0.25000000  1
  H  H27  1  0.60028300  0.97225400  0.14470300  1
  H  H28  1  0.60028300  0.97225400  0.35529700  1
  H  H29  1  0.71168000  0.94956800  0.25000000  1
  N  N0  1  0.38904500  0.07236700  0.75000000  1
  N  N1  1  0.97125800  0.02874200  0.25000000  1
  N  N2  1  0.90369900  0.09630100  0.57112600  1
  N  N3  1  0.90369900  0.09630100  0.92887400  1
  N  N4  1  0.56353800  0.43646200  0.25000000  1
  N  N5  1  0.07236700  0.38904500  0.25000000  1
  N  N6  1  0.92763300  0.61095500  0.75000000  1
  N  N7  1  0.09630100  0.90369900  0.07112600  1
  N  N8  1  0.43646200  0.56353800  0.75000000  1
  N  N9  1  0.09630100  0.90369900  0.42887400  1
  N  N10  1  0.02874200  0.97125800  0.75000000  1
  N  N11  1  0.61095500  0.92763300  0.25000000  1
  Cl  Cl0  1  0.41233700  0.06476900  0.25000000  1
  Cl  Cl1  1  0.59304400  0.40695600  0.75000000  1
  Cl  Cl2  1  0.75488100  0.24511900  0.52326700  1
  Cl  Cl3  1  0.75488100  0.24511900  0.97673300  1
  Cl  Cl4  1  0.23840100  0.23840100  0.00000000  1
  Cl  Cl5  1  0.23840100  0.23840100  0.50000000  1
  Cl  Cl6  1  0.06476900  0.41233700  0.75000000  1
  Cl  Cl7  1  0.93523100  0.58766300  0.25000000  1
  Cl  Cl8  1  0.40695600  0.59304400  0.25000000  1
  Cl  Cl9  1  0.24511900  0.75488100  0.02326700  1
  Cl  Cl10  1  0.24511900  0.75488100  0.47673300  1
  Cl  Cl11  1  0.58766300  0.93523100  0.75000000  1
  Cl  Cl12  1  0.76159900  0.76159900  0.00000000  1
  Cl  Cl13  1  0.76159900  0.76159900  0.50000000  1
loop_
_geom_bond_atom_site_label_1
_geom_bond_atom_site_label_2
_geom_bond_distance
_geom_bond_site_symmetry_2
H0 N0 1.031089 1_555
H1 N0 1.029670 1_555
H2 N0 1.029670 1_555
H3 N0 1.078011 1_555
H4 N4 1.033662 1_555
H5 N1 1.026968 1_555
H6 N3 1.029136 1_554
H7 N2 1.029136 1_555
H8 N4 1.030531 1_555
H9 N4 1.030531 1_555
H10 N4 1.033662 1_555
H11 N5 1.031089 1_555
H12 N6 1.078011 1_555
H13 N5 1.029670 1_555
H14 N5 1.029670 1_555
H15 N6 1.029670 1_555
H16 N6 1.029670 1_555
H17 N5 1.078011 1_555
H18 N6 1.031089 1_555
H19 N8 1.033662 1_555
H20 N8 1.030531 1_555
H21 N8 1.030531 1_555
H22 N7 1.029136 1_556
H23 N10 1.026968 1_555
H24 N9 1.029136 1_555
H25 N8 1.033662 1_555
H26 N11 1.078011 1_555
H27 N11 1.029670 1_555
H28 N11 1.029670 1_555
H29 N11 1.031089 1_555
N1 Ta0 2.073221 1_655
N1 Ta1 2.073221 1_655
N2 Ta2 1.950588 1_555
N2 Ta1 2.083081 1_655
N3 Ta2 1.950588 1_555
N3 Ta0 2.083081 1_656
N7 Ta3 1.950588 1_555
N7 Ta0 2.083081 1_565
N9 Ta3 1.950588 1_555
N9 Ta1 2.083081 1_565
N10 Ta1 2.073221 1_565
N10 Ta0 2.073221 1_566
Cl0 Ta3 2.445844 1_545
Cl1 H12 1.989773 1_555
Cl1 H3 1.989773 1_555
Cl2 Ta2 2.518653 1_555
Cl3 Ta2 2.518653 1_555
Cl4 Ta0 2.428649 1_555
Cl5 Ta1 2.428649 1_555
Cl6 Ta2 2.445844 1_455
Cl7 Ta3 2.445844 1_655
Cl8 H26 1.989773 1_555
Cl8 H17 1.989773 1_555
Cl9 Ta3 2.518653 1_555
Cl10 Ta3 2.518653 1_555
Cl11 Ta2 2.445844 1_565
Cl12 Ta0 2.428649 1_665
Cl13 Ta1 2.428649 1_665
