# generated using pymatgen
data_Li3(FeS2)2
_symmetry_space_group_name_H-M   'P 1'
_cell_length_a   6.45941200
_cell_length_b   9.21741300
_cell_length_c   11.06199000
_cell_angle_alpha   90.00000000
_cell_angle_beta   90.00000000
_cell_angle_gamma   90.00000000
_symmetry_Int_Tables_number   1
_chemical_formula_structural   Li3(FeS2)2
_chemical_formula_sum   'Li12 Fe8 S16'
_cell_volume   658.62057639
_cell_formula_units_Z   4
loop_
 _symmetry_equiv_pos_site_id
 _symmetry_equiv_pos_as_xyz
  1  'x, y, z'
loop_
 _atom_site_type_symbol
 _atom_site_label
 _atom_site_symmetry_multiplicity
 _atom_site_fract_x
 _atom_site_fract_y
 _atom_site_fract_z
 _atom_site_occupancy
  Li  Li0  1  0.93650700  0.43799300  0.75000000  1
  Li  Li1  1  0.10804500  0.66088800  0.54953500  1
  Li  Li2  1  0.10804500  0.66088800  0.95046500  1
  Li  Li3  1  0.39195500  0.16088800  0.45046500  1
  Li  Li4  1  0.39195500  0.16088800  0.04953500  1
  Li  Li5  1  0.56349300  0.93799300  0.25000000  1
  Li  Li6  1  0.43650700  0.06200700  0.75000000  1
  Li  Li7  1  0.60804500  0.83911200  0.54953500  1
  Li  Li8  1  0.60804500  0.83911200  0.95046500  1
  Li  Li9  1  0.89195500  0.33911200  0.04953500  1
  Li  Li10  1  0.89195500  0.33911200  0.45046500  1
  Li  Li11  1  0.06349300  0.56200700  0.25000000  1
  Fe  Fe0  1  0.03703200  0.97415000  0.12681700  1
  Fe  Fe1  1  0.03703200  0.97415000  0.37318300  1
  Fe  Fe2  1  0.46296800  0.47415000  0.62681700  1
  Fe  Fe3  1  0.46296800  0.47415000  0.87318300  1
  Fe  Fe4  1  0.53703200  0.52585000  0.12681700  1
  Fe  Fe5  1  0.53703200  0.52585000  0.37318300  1
  Fe  Fe6  1  0.96296800  0.02585000  0.62681700  1
  Fe  Fe7  1  0.96296800  0.02585000  0.87318300  1
  S  S0  1  0.10509000  0.19182200  0.75000000  1
  S  S1  1  0.24632800  0.10474300  0.25000000  1
  S  S2  1  0.23975200  0.91507100  0.53530100  1
  S  S3  1  0.23975200  0.91507100  0.96469900  1
  S  S4  1  0.26024800  0.41507100  0.03530100  1
  S  S5  1  0.26024800  0.41507100  0.46469900  1
  S  S6  1  0.25367200  0.60474300  0.75000000  1
  S  S7  1  0.39491000  0.69182200  0.25000000  1
  S  S8  1  0.60509000  0.30817800  0.75000000  1
  S  S9  1  0.74632800  0.39525700  0.25000000  1
  S  S10  1  0.73975200  0.58492900  0.53530100  1
  S  S11  1  0.73975200  0.58492900  0.96469900  1
  S  S12  1  0.76024800  0.08492900  0.03530100  1
  S  S13  1  0.76024800  0.08492900  0.46469900  1
  S  S14  1  0.75367200  0.89525700  0.75000000  1
  S  S15  1  0.89491000  0.80817800  0.25000000  1
loop_
_geom_bond_atom_site_label_1
_geom_bond_atom_site_label_2
_geom_bond_distance
_geom_bond_site_symmetry_2
Li0 S8 2.452468 1_555
Li0 S0 2.516831 1_655
Li0 S6 2.561162 1_655
Li1 S6 2.463770 1_555
Li1 S10 2.484840 1_455
Li1 S2 2.497558 1_555
Li1 S5 2.642177 1_555
Li2 S6 2.463770 1_555
Li2 S11 2.484840 1_455
Li2 S3 2.497558 1_555
Li2 S4 2.642177 1_556
Li3 S1 2.463770 1_555
Li3 S13 2.484840 1_555
Li3 S5 2.497558 1_555
Li3 S2 2.642177 1_545
Li4 S1 2.463770 1_555
Li4 S12 2.484840 1_555
Li4 S4 2.497558 1_555
Li4 S3 2.642177 1_544
Li5 S15 2.452468 1_555
Li5 S7 2.516831 1_555
Li5 S1 2.561162 1_565
Li6 S0 2.452468 1_555
Li6 S8 2.516831 1_555
Li6 S14 2.561162 1_545
Li7 S14 2.463770 1_555
Li7 S2 2.484840 1_555
Li7 S10 2.497558 1_555
Li7 S13 2.642177 1_565
Li8 S14 2.463770 1_555
Li8 S3 2.484840 1_555
Li8 S11 2.497558 1_555
Li8 S12 2.642177 1_566
Li9 S9 2.463770 1_555
Li9 S4 2.484840 1_655
Li9 S12 2.497558 1_555
Li9 S11 2.642177 1_554
Li10 S9 2.463770 1_555
Li10 S5 2.484840 1_655
Li10 S13 2.497558 1_555
Li10 S10 2.642177 1_555
Li11 S7 2.452468 1_555
Li11 S15 2.516831 1_455
Li11 S9 2.561162 1_455
Fe0 S15 2.244988 1_455
Fe0 S1 2.265721 1_565
Fe0 S3 2.286329 1_554
Fe0 S12 2.294327 1_465
Fe1 S15 2.244988 1_455
Fe1 S1 2.265721 1_565
Fe1 S2 2.286329 1_555
Fe1 S13 2.294327 1_465
Fe2 S8 2.244988 1_555
Fe2 S6 2.265721 1_555
Fe2 S5 2.286329 1_555
Fe2 S10 2.294327 1_555
Fe3 S8 2.244988 1_555
Fe3 S6 2.265721 1_555
Fe3 S4 2.286329 1_556
Fe3 S11 2.294327 1_555
Fe4 S7 2.244988 1_555
Fe4 S9 2.265721 1_555
Fe4 S11 2.286329 1_554
Fe4 S4 2.294327 1_555
Fe5 S7 2.244988 1_555
Fe5 S9 2.265721 1_555
Fe5 S10 2.286329 1_555
Fe5 S5 2.294327 1_555
Fe6 S0 2.244988 1_655
Fe6 S14 2.265721 1_545
Fe6 S13 2.286329 1_555
Fe6 S2 2.294327 1_645
Fe7 S0 2.244988 1_655
Fe7 S14 2.265721 1_545
Fe7 S12 2.286329 1_556
Fe7 S3 2.294327 1_645
