# generated using pymatgen
data_Li2CrP2O7
_symmetry_space_group_name_H-M   'P 1'
_cell_length_a   9.86951400
_cell_length_b   9.91448727
_cell_length_c   11.41667373
_cell_angle_alpha   102.24969430
_cell_angle_beta   90.03707244
_cell_angle_gamma   90.11295054
_symmetry_Int_Tables_number   1
_chemical_formula_structural   Li2CrP2O7
_chemical_formula_sum   'Li16 Cr8 P16 O56'
_cell_volume   1091.69746148
_cell_formula_units_Z   8
loop_
 _symmetry_equiv_pos_site_id
 _symmetry_equiv_pos_as_xyz
  1  'x, y, z'
loop_
 _atom_site_type_symbol
 _atom_site_label
 _atom_site_symmetry_multiplicity
 _atom_site_fract_x
 _atom_site_fract_y
 _atom_site_fract_z
 _atom_site_occupancy
  Li  Li0  1  0.27999300  0.11001600  0.44566500  1
  Li  Li1  1  0.57609300  0.17038600  0.54656800  1
  Li  Li2  1  0.89233500  0.08499200  0.02615200  1
  Li  Li3  1  0.08804100  0.34121900  0.95842300  1
  Li  Li4  1  0.58927800  0.15764800  0.04176700  1
  Li  Li5  1  0.39142000  0.41573400  0.97297500  1
  Li  Li6  1  0.07688700  0.32949400  0.45353800  1
  Li  Li7  1  0.77899600  0.38985400  0.55365700  1
  Li  Li8  1  0.22100400  0.61014600  0.44634300  1
  Li  Li9  1  0.92311300  0.67050600  0.54646200  1
  Li  Li10  1  0.60858000  0.58426600  0.02702500  1
  Li  Li11  1  0.41072200  0.84235200  0.95823300  1
  Li  Li12  1  0.91195900  0.65878100  0.04157700  1
  Li  Li13  1  0.10766500  0.91500800  0.97384800  1
  Li  Li14  1  0.42390700  0.82961400  0.45343200  1
  Li  Li15  1  0.72000700  0.88998400  0.55433500  1
  Cr  Cr0  1  0.07459000  0.20064000  0.67223600  1
  Cr  Cr1  1  0.78438500  0.26852000  0.82728900  1
  Cr  Cr2  1  0.28489100  0.23110500  0.17253300  1
  Cr  Cr3  1  0.57479600  0.29938600  0.32743000  1
  Cr  Cr4  1  0.42520400  0.70061400  0.67257000  1
  Cr  Cr5  1  0.71510900  0.76889500  0.82746700  1
  Cr  Cr6  1  0.21561500  0.73148000  0.17271100  1
  Cr  Cr7  1  0.92541000  0.79936000  0.32776400  1
  P  P0  1  0.54940500  0.02886000  0.76182300  1
  P  P1  1  0.29815000  0.11893700  0.89518100  1
  P  P2  1  0.06204600  0.05923100  0.24489300  1
  P  P3  1  0.84472200  0.12514800  0.42376000  1
  P  P4  1  0.34451900  0.37523700  0.57787900  1
  P  P5  1  0.56246000  0.44092600  0.75558500  1
  P  P6  1  0.94965600  0.52976000  0.76208300  1
  P  P7  1  0.79896700  0.38141300  0.10400000  1
  P  P8  1  0.20103300  0.61858700  0.89600000  1
  P  P9  1  0.05034400  0.47024000  0.23791700  1
  P  P10  1  0.43754000  0.55907400  0.24441500  1
  P  P11  1  0.65548100  0.62476300  0.42212100  1
  P  P12  1  0.15527800  0.87485200  0.57624000  1
  P  P13  1  0.93795400  0.94076900  0.75510700  1
  P  P14  1  0.70185000  0.88106300  0.10481900  1
  P  P15  1  0.45059500  0.97114000  0.23817700  1
  O  O0  1  0.58433600  0.02448400  0.63158300  1
  O  O1  1  0.16285700  0.02115800  0.55397200  1
  O  O2  1  0.92089600  0.08323600  0.72393600  1
  O  O3  1  0.64125500  0.12122300  0.85444500  1
  O  O4  1  0.39967000  0.09444500  0.77927200  1
  O  O5  1  0.17229400  0.18250000  0.85264400  1
  O  O6  1  0.37206800  0.22257000  0.99841700  1
  O  O7  1  0.72005300  0.01968300  0.07135400  1
  O  O8  1  0.91416600  0.11766800  0.29377300  1
  O  O9  1  0.06034600  0.05959500  0.11281400  1
  O  O10  1  0.45881200  0.11952400  0.21092000  1
  O  O11  1  0.70290600  0.18667700  0.41511700  1
  O  O12  1  0.16953000  0.16345600  0.31153500  1
  O  O13  1  0.92909100  0.22899000  0.51341200  1
  O  O14  1  0.42764800  0.27083900  0.48815800  1
  O  O15  1  0.66882800  0.33624400  0.68858500  1
  O  O16  1  0.20192100  0.31528500  0.58647600  1
  O  O17  1  0.95675400  0.38186700  0.78980600  1
  O  O18  1  0.41391100  0.38239900  0.70777300  1
  O  O19  1  0.56133600  0.44077500  0.88766500  1
  O  O20  1  0.21817000  0.47977200  0.92900700  1
  O  O21  1  0.87288400  0.27787800  0.00090400  1
  O  O22  1  0.67222000  0.31784000  0.14533800  1
  O  O23  1  0.90002100  0.40500100  0.22032400  1
  O  O24  1  0.42036500  0.41695700  0.27637000  1
  O  O25  1  0.14136200  0.37695300  0.14560900  1
  O  O26  1  0.91479400  0.52511600  0.63165500  1
  O  O27  1  0.66137300  0.47825100  0.44434500  1
  O  O28  1  0.33862700  0.52174900  0.55565500  1
  O  O29  1  0.08520600  0.47488400  0.36834500  1
  O  O30  1  0.85863800  0.62304700  0.85439100  1
  O  O31  1  0.57963500  0.58304300  0.72363000  1
  O  O32  1  0.09997900  0.59499900  0.77967600  1
  O  O33  1  0.32778000  0.68216000  0.85466200  1
  O  O34  1  0.12711600  0.72212200  0.99909600  1
  O  O35  1  0.78183000  0.52022800  0.07099300  1
  O  O36  1  0.43866400  0.55922500  0.11233500  1
  O  O37  1  0.58608900  0.61760100  0.29222700  1
  O  O38  1  0.04324600  0.61813300  0.21019400  1
  O  O39  1  0.79807900  0.68471500  0.41352400  1
  O  O40  1  0.33117200  0.66375600  0.31141500  1
  O  O41  1  0.57235200  0.72916100  0.51184200  1
  O  O42  1  0.07090900  0.77101000  0.48658800  1
  O  O43  1  0.83047000  0.83654400  0.68846500  1
  O  O44  1  0.29709400  0.81332300  0.58488300  1
  O  O45  1  0.54118800  0.88047600  0.78908000  1
  O  O46  1  0.93965400  0.94040500  0.88718600  1
  O  O47  1  0.08583400  0.88233200  0.70622700  1
  O  O48  1  0.27994700  0.98031700  0.92864600  1
  O  O49  1  0.62793200  0.77743000  0.00158300  1
  O  O50  1  0.82770600  0.81750000  0.14735600  1
  O  O51  1  0.60033000  0.90555500  0.22072800  1
  O  O52  1  0.35874500  0.87877700  0.14555500  1
  O  O53  1  0.07910400  0.91676400  0.27606400  1
  O  O54  1  0.83714300  0.97884200  0.44602800  1
  O  O55  1  0.41566400  0.97551600  0.36841700  1
loop_
_geom_bond_atom_site_label_1
_geom_bond_atom_site_label_2
_geom_bond_distance
_geom_bond_site_symmetry_2
Li0 O55 1.964295 1_545
Li0 O1 2.025259 1_555
Li0 O12 2.039272 1_555
Li0 O14 2.136133 1_555
Li0 O16 2.437073 1_555
Li1 O0 1.907168 1_555
Li1 O14 1.967068 1_555
Li1 O11 1.987269 1_555
Li1 O15 2.243058 1_555
Li2 O7 1.927517 1_555
Li2 O46 1.956688 1_544
Li2 O9 1.974113 1_655
Li2 O21 2.003091 1_555
Li3 O5 1.956061 1_555
Li3 O20 1.959235 1_555
Li3 O25 2.155443 1_556
Li3 O21 2.294372 1_456
Li3 O17 2.423879 1_455
Li4 O22 1.946129 1_555
Li4 O7 1.963020 1_555
Li4 O3 2.154432 1_554
Li4 O6 2.322539 1_554
Li4 O10 2.416882 1_555
Li5 O20 1.928009 1_555
Li5 O36 1.951569 1_556
Li5 O19 1.981312 1_555
Li5 O6 2.005797 1_555
Li6 O29 1.903977 1_555
Li6 O13 1.967864 1_455
Li6 O16 1.983708 1_555
Li6 O12 2.247130 1_555
Li7 O26 1.967816 1_555
Li7 O27 2.034565 1_555
Li7 O15 2.045724 1_555
Li7 O13 2.156025 1_555
Li7 O11 2.400814 1_555
Li8 O29 1.967816 1_555
Li8 O28 2.034565 1_555
Li8 O40 2.045724 1_555
Li8 O42 2.156025 1_555
Li8 O44 2.400814 1_555
Li9 O26 1.903977 1_555
Li9 O42 1.967864 1_655
Li9 O39 1.983708 1_555
Li9 O43 2.247130 1_555
Li10 O35 1.928009 1_555
Li10 O19 1.951569 1_554
Li10 O36 1.981312 1_555
Li10 O49 2.005797 1_555
Li11 O33 1.946129 1_555
Li11 O48 1.963020 1_555
Li11 O52 2.154432 1_556
Li11 O49 2.322539 1_556
Li11 O45 2.416882 1_555
Li12 O50 1.956061 1_555
Li12 O35 1.959235 1_555
Li12 O30 2.155443 1_554
Li12 O34 2.294372 1_654
Li12 O38 2.423879 1_655
Li13 O48 1.927517 1_555
Li13 O9 1.956688 1_566
Li13 O46 1.974113 1_455
Li13 O34 2.003091 1_555
Li14 O55 1.907168 1_555
Li14 O41 1.967068 1_555
Li14 O44 1.987269 1_555
Li14 O40 2.243058 1_555
Li15 O0 1.964295 1_565
Li15 O54 2.025259 1_555
Li15 O43 2.039272 1_555
Li15 O41 2.136133 1_555
Li15 O39 2.437073 1_555
Cr0 O2 2.071223 1_455
Cr0 O16 2.073181 1_555
Cr0 O1 2.176354 1_555
Cr0 O5 2.315103 1_555
Cr0 O17 2.317204 1_455
Cr0 O13 2.375595 1_455
Cr1 O3 2.099733 1_555
Cr1 O17 2.130152 1_555
Cr1 O21 2.149339 1_556
Cr1 O15 2.170491 1_555
Cr1 O2 2.382029 1_555
Cr2 O25 2.094802 1_555
Cr2 O10 2.138824 1_555
Cr2 O6 2.151746 1_554
Cr2 O12 2.171526 1_555
Cr2 O24 2.376901 1_555
Cr3 O24 2.077457 1_555
Cr3 O11 2.080430 1_555
Cr3 O27 2.155147 1_555
Cr3 O10 2.289771 1_555
Cr3 O22 2.333038 1_555
Cr3 O14 2.403868 1_555
Cr4 O31 2.077457 1_555
Cr4 O44 2.080430 1_555
Cr4 O28 2.155147 1_555
Cr4 O45 2.289771 1_555
Cr4 O33 2.333038 1_555
Cr4 O41 2.403868 1_555
Cr5 O30 2.094802 1_555
Cr5 O45 2.138824 1_555
Cr5 O49 2.151746 1_556
Cr5 O43 2.171526 1_555
Cr5 O31 2.376901 1_555
Cr6 O52 2.099733 1_555
Cr6 O38 2.130152 1_555
Cr6 O34 2.149339 1_554
Cr6 O40 2.170491 1_555
Cr6 O53 2.382029 1_555
Cr7 O53 2.071223 1_655
Cr7 O39 2.073181 1_555
Cr7 O54 2.176354 1_555
Cr7 O50 2.315103 1_555
Cr7 O38 2.317204 1_655
Cr7 O42 2.375595 1_655
O0 P0 1.518215 1_555
O1 P12 1.526565 1_545
O2 P13 1.537618 1_545
O3 P0 1.537233 1_555
O4 P0 1.611095 1_555
O4 P1 1.637164 1_555
O5 P1 1.519231 1_555
O6 P1 1.568150 1_555
O7 P14 1.512945 1_545
O8 P3 1.622458 1_555
O8 P2 1.626170 1_655
O9 P2 1.508755 1_555
O10 P15 1.568925 1_545
O11 P3 1.539362 1_555
O12 P2 1.559805 1_555
O13 P3 1.532735 1_555
O14 P4 1.532390 1_555
O15 P5 1.559745 1_555
O16 P4 1.537944 1_555
O17 P6 1.566007 1_555
O18 P4 1.620819 1_555
O18 P5 1.626449 1_555
O19 P5 1.508281 1_555
O20 P8 1.511841 1_555
O21 P7 1.569278 1_555
O22 P7 1.519444 1_555
O23 P9 1.612614 1_655
O23 P7 1.636659 1_555
O24 P10 1.537668 1_555
O25 P9 1.537488 1_555
O26 P6 1.519200 1_555
O27 P11 1.527903 1_555
O28 P4 1.527903 1_555
O29 P9 1.519200 1_555
O30 P6 1.537488 1_555
O31 P5 1.537668 1_555
O32 P6 1.612614 1_455
O32 P8 1.636659 1_555
O33 P8 1.519444 1_555
O34 P8 1.569278 1_555
O35 P7 1.511841 1_555
O36 P10 1.508281 1_555
O37 P11 1.620819 1_555
O37 P10 1.626449 1_555
O38 P9 1.566007 1_555
O39 P11 1.537944 1_555
O40 P10 1.559745 1_555
O41 P11 1.532390 1_555
O42 P12 1.532735 1_555
O43 P13 1.559805 1_555
O44 P12 1.539362 1_555
O45 P0 1.568925 1_565
O46 P13 1.508755 1_555
O47 P12 1.622458 1_555
O47 P13 1.626170 1_455
O48 P1 1.512945 1_565
O49 P14 1.568150 1_555
O50 P14 1.519231 1_555
O51 P15 1.611095 1_555
O51 P14 1.637164 1_555
O52 P15 1.537233 1_555
O53 P2 1.537618 1_565
O54 P3 1.526565 1_565
O55 P15 1.518215 1_555
