# generated using pymatgen
data_Ti2Mn(PO4)3
_symmetry_space_group_name_H-M   'P 1'
_cell_length_a   8.67012522
_cell_length_b   8.67012522
_cell_length_c   8.67012574
_cell_angle_alpha   60.05991985
_cell_angle_beta   60.05991985
_cell_angle_gamma   60.05991631
_symmetry_Int_Tables_number   1
_chemical_formula_structural   Ti2Mn(PO4)3
_chemical_formula_sum   'Ti4 Mn2 P6 O24'
_cell_volume   461.47747319
_cell_formula_units_Z   2
loop_
 _symmetry_equiv_pos_site_id
 _symmetry_equiv_pos_as_xyz
  1  'x, y, z'
loop_
 _atom_site_type_symbol
 _atom_site_label
 _atom_site_symmetry_multiplicity
 _atom_site_fract_x
 _atom_site_fract_y
 _atom_site_fract_z
 _atom_site_occupancy
  Ti  Ti0  1  0.14543700  0.14543700  0.14543700  1
  Ti  Ti1  1  0.35456300  0.35456300  0.35456300  1
  Ti  Ti2  1  0.64543700  0.64543700  0.64543700  1
  Ti  Ti3  1  0.85456300  0.85456300  0.85456300  1
  Mn  Mn0  1  0.00000000  0.00000000  0.00000000  1
  Mn  Mn1  1  0.50000000  0.50000000  0.50000000  1
  P  P0  1  0.75000000  0.04336400  0.45663600  1
  P  P1  1  0.04336400  0.45663600  0.75000000  1
  P  P2  1  0.45663600  0.75000000  0.04336400  1
  P  P3  1  0.54336400  0.25000000  0.95663600  1
  P  P4  1  0.95663600  0.54336400  0.25000000  1
  P  P5  1  0.25000000  0.95663600  0.54336400  1
  O  O0  1  0.30928700  0.11701700  0.50297000  1
  O  O1  1  0.50297000  0.30928700  0.11701700  1
  O  O2  1  0.91376900  0.05865900  0.26401400  1
  O  O3  1  0.11701700  0.50297000  0.30928700  1
  O  O4  1  0.80928700  0.00297000  0.61701700  1
  O  O5  1  0.58623100  0.23598600  0.44134100  1
  O  O6  1  0.05865900  0.26401400  0.91376900  1
  O  O7  1  0.23598600  0.44134100  0.58623100  1
  O  O8  1  0.38298300  0.19071300  0.99703000  1
  O  O9  1  0.44134100  0.58623100  0.23598600  1
  O  O10  1  0.73598600  0.08623100  0.94134100  1
  O  O11  1  0.99703000  0.38298300  0.19071300  1
  O  O12  1  0.00297000  0.61701700  0.80928700  1
  O  O13  1  0.26401400  0.91376900  0.05865900  1
  O  O14  1  0.55865900  0.41376900  0.76401400  1
  O  O15  1  0.61701700  0.80928700  0.00297000  1
  O  O16  1  0.76401400  0.55865900  0.41376900  1
  O  O17  1  0.94134100  0.73598600  0.08623100  1
  O  O18  1  0.41376900  0.76401400  0.55865900  1
  O  O19  1  0.19071300  0.99703000  0.38298300  1
  O  O20  1  0.88298300  0.49703000  0.69071300  1
  O  O21  1  0.08623100  0.94134100  0.73598600  1
  O  O22  1  0.49703000  0.69071300  0.88298300  1
  O  O23  1  0.69071300  0.88298300  0.49703000  1
loop_
_geom_bond_atom_site_label_1
_geom_bond_atom_site_label_2
_geom_bond_distance
_geom_bond_site_symmetry_2
Mn0 O13 2.265290 1_545
Mn0 O10 2.265290 1_454
Mn0 O6 2.265290 1_554
Mn0 O17 2.265290 1_445
Mn0 O2 2.265290 1_455
Mn0 O21 2.265290 1_544
Mn1 O5 2.265290 1_555
Mn1 O18 2.265290 1_555
Mn1 O16 2.265290 1_555
Mn1 O7 2.265290 1_555
Mn1 O14 2.265290 1_555
Mn1 O9 2.265290 1_555
O0 P5 1.538862 1_545
O0 Ti1 1.925892 1_555
O1 P3 1.538862 1_554
O1 Ti1 1.925892 1_555
O2 P0 1.556489 1_555
O2 Ti0 2.081486 1_655
O3 P4 1.538862 1_455
O3 Ti1 1.925892 1_555
O4 P0 1.538862 1_555
O4 Ti3 1.925892 1_545
O5 P0 1.556489 1_555
O5 Ti1 2.081486 1_555
O6 P1 1.556489 1_555
O6 Ti0 2.081486 1_556
O7 P1 1.556489 1_555
O7 Ti1 2.081486 1_555
O8 P3 1.538862 1_555
O8 Ti0 1.925892 1_556
O9 P2 1.556489 1_555
O9 Ti1 2.081486 1_555
O10 P3 1.556489 1_555
O10 Ti3 2.081486 1_545
O11 P4 1.538862 1_555
O11 Ti0 1.925892 1_655
O12 P1 1.538862 1_555
O12 Ti3 1.925892 1_455
O13 P2 1.556489 1_555
O13 Ti0 2.081486 1_565
O14 P3 1.556489 1_555
O14 Ti2 2.081486 1_555
O15 P2 1.538862 1_555
O15 Ti3 1.925892 1_554
O16 P4 1.556489 1_555
O16 Ti2 2.081486 1_555
O17 P4 1.556489 1_555
O17 Ti3 2.081486 1_554
O18 P5 1.556489 1_555
O18 Ti2 2.081486 1_555
O19 P5 1.538862 1_555
O19 Ti0 1.925892 1_565
O20 P1 1.538862 1_655
O20 Ti2 1.925892 1_555
O21 P5 1.556489 1_555
O21 Ti3 2.081486 1_455
O22 P2 1.538862 1_556
O22 Ti2 1.925892 1_555
O23 P0 1.538862 1_565
O23 Ti2 1.925892 1_555
