# generated using pymatgen
data_Sr8Cu8O17
_symmetry_space_group_name_H-M   'P 1'
_cell_length_a   8.80261519
_cell_length_b   8.80261519
_cell_length_c   8.11856566
_cell_angle_alpha   64.26079198
_cell_angle_beta   64.26079198
_cell_angle_gamma   52.80553177
_symmetry_Int_Tables_number   1
_chemical_formula_structural   Sr8Cu8O17
_chemical_formula_sum   'Sr8 Cu8 O17'
_cell_volume   438.27303694
_cell_formula_units_Z   1
loop_
 _symmetry_equiv_pos_site_id
 _symmetry_equiv_pos_as_xyz
  1  'x, y, z'
loop_
 _atom_site_type_symbol
 _atom_site_label
 _atom_site_symmetry_multiplicity
 _atom_site_fract_x
 _atom_site_fract_y
 _atom_site_fract_z
 _atom_site_occupancy
  Sr  Sr0  1  0.25128100  0.74871900  0.00000000  1
  Sr  Sr1  1  0.35885400  0.88132700  0.49994800  1
  Sr  Sr2  1  0.00000000  0.50000000  0.00000000  1
  Sr  Sr3  1  0.74871900  0.25128100  0.00000000  1
  Sr  Sr4  1  0.11867300  0.64114600  0.50005200  1
  Sr  Sr5  1  0.88132700  0.35885400  0.49994800  1
  Sr  Sr6  1  0.64114600  0.11867300  0.50005200  1
  Sr  Sr7  1  0.50000000  0.00000000  0.00000000  1
  Cu  Cu0  1  0.43500800  0.43500800  0.75946400  1
  Cu  Cu1  1  0.18874100  0.18874100  0.75479800  1
  Cu  Cu2  1  0.31570500  0.31570500  0.24648100  1
  Cu  Cu3  1  0.06509900  0.06509900  0.23841400  1
  Cu  Cu4  1  0.93490100  0.93490100  0.76158600  1
  Cu  Cu5  1  0.81125900  0.81125900  0.24520200  1
  Cu  Cu6  1  0.68429500  0.68429500  0.75351900  1
  Cu  Cu7  1  0.56499200  0.56499200  0.24053600  1
  O  O0  1  0.43840800  0.43840800  0.25344400  1
  O  O1  1  0.43857000  0.93888800  0.74522900  1
  O  O2  1  0.32180700  0.81309600  0.23028800  1
  O  O3  1  0.18690400  0.67819300  0.76971200  1
  O  O4  1  0.06496300  0.06496300  0.76603000  1
  O  O5  1  0.00000000  0.00000000  0.50000000  1
  O  O6  1  0.93503700  0.93503700  0.23397000  1
  O  O7  1  0.31516200  0.31516200  0.74539200  1
  O  O8  1  0.19757700  0.19757700  0.23373400  1
  O  O9  1  0.06111200  0.56143000  0.25477100  1
  O  O10  1  0.81309600  0.32180700  0.23028800  1
  O  O11  1  0.67819300  0.18690400  0.76971200  1
  O  O12  1  0.93888800  0.43857000  0.74522900  1
  O  O13  1  0.68483800  0.68483800  0.25460800  1
  O  O14  1  0.56159200  0.56159200  0.74655600  1
  O  O15  1  0.80242300  0.80242300  0.76626600  1
  O  O16  1  0.56143000  0.06111200  0.25477100  1
loop_
_geom_bond_atom_site_label_1
_geom_bond_atom_site_label_2
_geom_bond_distance
_geom_bond_site_symmetry_2
Cu0 O11 1.924446 1_555
Cu0 O3 1.924446 1_555
Cu0 O14 1.947430 1_555
Cu0 O7 1.947788 1_555
Cu1 O4 1.909289 1_555
Cu1 O1 1.957468 1_545
Cu1 O12 1.957468 1_455
Cu1 O7 1.957627 1_555
Cu2 O8 1.915057 1_555
Cu2 O16 1.959650 1_555
Cu2 O9 1.959650 1_555
Cu2 O0 1.962914 1_555
Cu3 O5 1.857388 1_555
Cu3 O2 1.992107 1_545
Cu3 O10 1.992107 1_455
Cu3 O6 2.068660 1_445
Cu3 O8 2.070868 1_555
Cu4 O5 1.857388 1_665
Cu4 O11 1.992107 1_565
Cu4 O3 1.992107 1_655
Cu4 O4 2.068660 1_665
Cu4 O15 2.070868 1_555
Cu5 O6 1.909289 1_555
Cu5 O16 1.957468 1_565
Cu5 O9 1.957468 1_655
Cu5 O13 1.957627 1_555
Cu6 O15 1.915057 1_555
Cu6 O1 1.959650 1_555
Cu6 O12 1.959650 1_555
Cu6 O14 1.962914 1_555
Cu7 O2 1.924446 1_555
Cu7 O10 1.924446 1_555
Cu7 O0 1.947430 1_555
Cu7 O13 1.947788 1_555
O0 Sr3 2.651510 1_555
O0 Sr0 2.651510 1_555
O0 Sr6 2.692772 1_555
O0 Sr4 2.692772 1_555
O1 Sr7 2.673859 1_566
O1 Sr0 2.676947 1_556
O1 Sr1 2.689685 1_555
O1 Sr6 2.690629 1_565
O2 Sr0 2.560400 1_555
O2 Sr7 2.562042 1_565
O2 Sr1 2.694227 1_555
O2 Sr4 2.697515 1_555
O3 Sr0 2.560400 1_556
O3 Sr2 2.562042 1_556
O3 Sr4 2.694227 1_555
O3 Sr1 2.697515 1_555
O4 Sr0 2.576910 1_546
O4 Sr3 2.576910 1_456
O4 Sr5 2.663664 1_455
O4 Sr1 2.663664 1_545
O5 Sr5 2.660674 1_455
O5 Sr1 2.660674 1_545
O5 Sr6 2.660674 1_455
O5 Sr4 2.660674 1_545
O6 Sr3 2.576910 1_565
O6 Sr0 2.576910 1_655
O6 Sr4 2.663664 1_655
O6 Sr6 2.663664 1_565
O7 Sr7 2.664473 1_556
O7 Sr2 2.664473 1_556
O7 Sr6 2.687061 1_555
O7 Sr4 2.687061 1_555
O8 Sr7 2.567795 1_555
O8 Sr2 2.567795 1_555
O8 Sr5 2.664058 1_455
O8 Sr1 2.664058 1_545
O9 Sr2 2.673859 1_555
O9 Sr0 2.676947 1_555
O9 Sr4 2.689685 1_555
O9 Sr5 2.690629 1_455
O10 Sr3 2.560400 1_555
O10 Sr2 2.562042 1_655
O10 Sr5 2.694227 1_555
O10 Sr6 2.697515 1_555
O11 Sr3 2.560400 1_556
O11 Sr7 2.562042 1_556
O11 Sr6 2.694227 1_555
O11 Sr5 2.697515 1_555
O12 Sr2 2.673859 1_656
O12 Sr3 2.676947 1_556
O12 Sr5 2.689685 1_555
O12 Sr4 2.690629 1_655
O13 Sr7 2.664473 1_565
O13 Sr2 2.664473 1_655
O13 Sr5 2.687061 1_555
O13 Sr1 2.687061 1_555
O14 Sr0 2.651510 1_556
O14 Sr3 2.651510 1_556
O14 Sr1 2.692772 1_555
O14 Sr5 2.692772 1_555
O15 Sr7 2.567795 1_566
O15 Sr2 2.567795 1_656
O15 Sr4 2.664058 1_655
O15 Sr6 2.664058 1_565
O16 Sr7 2.673859 1_555
O16 Sr3 2.676947 1_555
O16 Sr6 2.689685 1_555
O16 Sr1 2.690629 1_545
