# generated using pymatgen
data_Li2MnOF3
_symmetry_space_group_name_H-M   'P 1'
_cell_length_a   6.07552600
_cell_length_b   6.07551800
_cell_length_c   8.26603100
_cell_angle_alpha   89.99984831
_cell_angle_beta   90.00022407
_cell_angle_gamma   90.00008488
_symmetry_Int_Tables_number   1
_chemical_formula_structural   Li2MnOF3
_chemical_formula_sum   'Li8 Mn4 O4 F12'
_cell_volume   305.11546822
_cell_formula_units_Z   4
loop_
 _symmetry_equiv_pos_site_id
 _symmetry_equiv_pos_as_xyz
  1  'x, y, z'
loop_
 _atom_site_type_symbol
 _atom_site_label
 _atom_site_symmetry_multiplicity
 _atom_site_fract_x
 _atom_site_fract_y
 _atom_site_fract_z
 _atom_site_occupancy
  Li  Li0  1  0.23588000  0.25710800  0.36892900  1
  Li  Li1  1  0.25710900  0.76411900  0.11893100  1
  Li  Li2  1  0.26724500  0.51617100  0.75459900  1
  Li  Li3  1  0.48383200  0.26724500  0.00459900  1
  Li  Li4  1  0.51616700  0.73275800  0.50459800  1
  Li  Li5  1  0.73275600  0.48383000  0.25459900  1
  Li  Li6  1  0.74289100  0.23588000  0.61892900  1
  Li  Li7  1  0.76412000  0.74289000  0.86892900  1
  Mn  Mn0  1  0.00421300  0.25500100  0.00619500  1
  Mn  Mn1  1  0.99577800  0.74499500  0.50620100  1
  Mn  Mn2  1  0.25499700  0.99579800  0.75620200  1
  Mn  Mn3  1  0.74501100  0.00420300  0.25618900  1
  O  O0  1  0.03298100  0.77926400  0.73235700  1
  O  O1  1  0.22073600  0.03297900  0.98235900  1
  O  O2  1  0.77926400  0.96702400  0.48235000  1
  O  O3  1  0.96702100  0.22073700  0.23235000  1
  F  F0  1  0.00269800  0.27647000  0.76403800  1
  F  F1  1  0.27647200  0.99730100  0.51404100  1
  F  F2  1  0.25508100  0.49987700  0.99365700  1
  F  F3  1  0.23782100  0.52685600  0.50522700  1
  F  F4  1  0.47314700  0.23782700  0.75522900  1
  F  F5  1  0.49987700  0.74492000  0.74365800  1
  F  F6  1  0.50012300  0.25508200  0.24365700  1
  F  F7  1  0.52685500  0.76217500  0.25522700  1
  F  F8  1  0.74491600  0.50012300  0.49365600  1
  F  F9  1  0.76217900  0.47314200  0.00522700  1
  F  F10  1  0.72353000  0.00269900  0.01403300  1
  F  F11  1  0.99730100  0.72352600  0.26403800  1
loop_
_geom_bond_atom_site_label_1
_geom_bond_atom_site_label_2
_geom_bond_distance
_geom_bond_site_symmetry_2
Li0 O3 1.997892 1_455
Li1 O1 1.997864 1_564
Li2 O0 2.148136 1_555
Li3 O1 2.148154 1_554
Li4 O2 2.148165 1_555
Li5 O3 2.148147 1_555
Li6 O2 1.997883 1_545
Li7 O0 1.997877 1_655
Mn0 O1 1.894432 1_554
Mn0 O3 1.894483 1_455
Mn1 O2 1.894436 1_555
Mn1 O0 1.894502 1_655
Mn2 O0 1.894457 1_555
Mn2 O1 1.894491 1_565
Mn3 O3 1.894426 1_555
Mn3 O2 1.894514 1_545
F0 Li6 1.997771 1_455
F0 Mn0 2.005943 1_556
F0 Li2 2.170301 1_555
F0 Mn2 2.293825 1_545
F1 Li0 1.997787 1_565
F1 Mn2 2.005979 1_555
F1 Li4 2.170263 1_555
F1 Mn1 2.293950 1_455
F2 Li1 1.910443 1_556
F2 Li2 1.979919 1_555
F2 Li3 1.984255 1_556
F2 Mn0 2.132412 1_556
F3 Mn1 1.979645 1_455
F3 Li0 1.988802 1_555
F3 Li2 2.070071 1_555
F3 Li4 2.103506 1_555
F4 Mn2 1.979623 1_545
F4 Li6 1.988794 1_555
F4 Li3 2.070053 1_556
F4 Li2 2.103499 1_555
F5 Li7 1.910431 1_555
F5 Li4 1.979934 1_555
F5 Li2 1.984243 1_555
F5 Mn2 2.132478 1_555
F6 Li0 1.910442 1_555
F6 Li3 1.979917 1_555
F6 Li5 1.984244 1_555
F6 Mn3 2.132510 1_555
F7 Mn3 1.979643 1_565
F7 Li1 1.988778 1_555
F7 Li4 2.070060 1_555
F7 Li5 2.103500 1_555
F8 Li6 1.910439 1_555
F8 Li5 1.979909 1_555
F8 Li4 1.984260 1_555
F8 Mn1 2.132371 1_555
F9 Mn0 1.979612 1_655
F9 Li7 1.988797 1_554
F9 Li5 2.070073 1_555
F9 Li3 2.103493 1_555
F10 Li7 1.997762 1_544
F10 Mn3 2.005939 1_555
F10 Li3 2.170285 1_555
F10 Mn0 2.293884 1_655
F11 Li1 1.997775 1_655
F11 Mn1 2.005994 1_555
F11 Li5 2.170271 1_555
F11 Mn3 2.293813 1_565
