# generated using pymatgen
data_Li2TiV2O6
_symmetry_space_group_name_H-M   'P 1'
_cell_length_a   5.97431656
_cell_length_b   6.06755046
_cell_length_c   6.67778376
_cell_angle_alpha   103.36476948
_cell_angle_beta   102.96286143
_cell_angle_gamma   89.72580286
_symmetry_Int_Tables_number   1
_chemical_formula_structural   Li2TiV2O6
_chemical_formula_sum   'Li4 Ti2 V4 O12'
_cell_volume   229.22573413
_cell_formula_units_Z   2
loop_
 _symmetry_equiv_pos_site_id
 _symmetry_equiv_pos_as_xyz
  1  'x, y, z'
loop_
 _atom_site_type_symbol
 _atom_site_label
 _atom_site_symmetry_multiplicity
 _atom_site_fract_x
 _atom_site_fract_y
 _atom_site_fract_z
 _atom_site_occupancy
  Li  Li0  1  0.33536600  0.84746500  0.34185500  1
  Li  Li1  1  0.83532900  0.84753300  0.34188000  1
  Li  Li2  1  0.49799600  0.48589300  0.99143000  1
  Li  Li3  1  0.99803300  0.48582300  0.99140200  1
  Ti  Ti0  1  0.66671500  0.66663500  0.66660400  1
  Ti  Ti1  1  0.16669500  0.66669800  0.66670900  1
  V  V0  1  0.49640700  0.01325900  0.99104000  1
  V  V1  1  0.33690600  0.32007500  0.34230700  1
  V  V2  1  0.99648000  0.01331900  0.99097700  1
  V  V3  1  0.83682500  0.32001800  0.34236100  1
  O  O0  1  0.74298600  0.76549000  0.97840000  1
  O  O1  1  0.24299300  0.76548900  0.97837700  1
  O  O2  1  0.59034400  0.56783700  0.35495400  1
  O  O3  1  0.09035300  0.56783700  0.35493000  1
  O  O4  1  0.41648600  0.45094700  0.66380500  1
  O  O5  1  0.91648100  0.45094800  0.66379000  1
  O  O6  1  0.41685400  0.88237100  0.66954500  1
  O  O7  1  0.91685800  0.88236900  0.66955700  1
  O  O8  1  0.57642800  0.08318400  0.30948400  1
  O  O9  1  0.07640600  0.08315100  0.30951800  1
  O  O10  1  0.25685200  0.25014500  0.02388900  1
  O  O11  1  0.75687300  0.25017900  0.02385200  1
loop_
_geom_bond_atom_site_label_1
_geom_bond_atom_site_label_2
_geom_bond_distance
_geom_bond_site_symmetry_2
Li0 O6 2.092621 1_555
Li0 O9 2.111133 1_565
Li0 O8 2.113939 1_565
Li0 O3 2.275638 1_555
Li0 O2 2.278353 1_555
Li0 O1 2.299334 1_554
Li1 O7 2.092596 1_555
Li1 O8 2.110773 1_565
Li1 O9 2.113547 1_665
Li1 O2 2.275839 1_555
Li1 O3 2.278823 1_655
Li1 O0 2.299335 1_554
Li2 O4 2.092166 1_555
Li2 O11 2.110955 1_556
Li2 O10 2.114652 1_556
Li2 O0 2.275299 1_555
Li2 O1 2.278286 1_555
Li2 O2 2.299631 1_556
Li3 O5 2.092141 1_555
Li3 O10 2.110599 1_656
Li3 O11 2.114251 1_556
Li3 O1 2.275487 1_655
Li3 O0 2.278762 1_555
Li3 O3 2.299644 1_656
O0 Ti0 1.975396 1_555
O0 V0 2.100776 1_565
O0 V2 2.113795 1_565
O1 Ti1 1.974575 1_555
O1 V2 2.100749 1_465
O1 V0 2.113039 1_565
O2 Ti0 1.974464 1_555
O2 V3 2.100565 1_555
O2 V1 2.113137 1_555
O3 Ti1 1.975291 1_555
O3 V1 2.100632 1_555
O3 V3 2.113912 1_455
O4 Ti1 1.980825 1_555
O4 Ti0 1.985645 1_555
O4 V1 2.055068 1_555
O5 Ti0 1.980442 1_555
O5 Ti1 1.985577 1_655
O5 V3 2.054703 1_555
O6 Ti0 1.981086 1_555
O6 Ti1 1.985193 1_555
O6 V0 2.055064 1_565
O7 Ti1 1.980704 1_655
O7 Ti0 1.985122 1_555
O7 V2 2.054666 1_565
O8 V0 2.014774 1_554
O8 V1 2.033986 1_555
O8 V3 2.062929 1_555
O9 V2 2.015409 1_454
O9 V3 2.034156 1_455
O9 V1 2.063881 1_555
O10 V1 2.014608 1_555
O10 V0 2.034126 1_554
O10 V2 2.062734 1_454
O11 V3 2.015204 1_555
O11 V2 2.034262 1_554
O11 V0 2.063681 1_554
