# generated using pymatgen
data_LiSb(PO3)4
_symmetry_space_group_name_H-M   'P 1'
_cell_length_a   13.42274800
_cell_length_b   7.46445700
_cell_length_c   12.03689810
_cell_angle_alpha   55.17605042
_cell_angle_beta   90.00000000
_cell_angle_gamma   90.00000000
_symmetry_Int_Tables_number   1
_chemical_formula_structural   LiSb(PO3)4
_chemical_formula_sum   'Li4 Sb4 P16 O48'
_cell_volume   990.03396517
_cell_formula_units_Z   4
loop_
 _symmetry_equiv_pos_site_id
 _symmetry_equiv_pos_as_xyz
  1  'x, y, z'
loop_
 _atom_site_type_symbol
 _atom_site_label
 _atom_site_symmetry_multiplicity
 _atom_site_fract_x
 _atom_site_fract_y
 _atom_site_fract_z
 _atom_site_occupancy
  Li  Li0  1  0.21618900  0.84235500  0.04347700  1
  Li  Li1  1  0.71618900  0.15764500  0.45652300  1
  Li  Li2  1  0.28381100  0.84235500  0.54347700  1
  Li  Li3  1  0.78381100  0.15764500  0.95652300  1
  Sb  Sb0  1  0.78703800  0.47780900  0.07158000  1
  Sb  Sb1  1  0.28703800  0.52219100  0.42842000  1
  Sb  Sb2  1  0.71296200  0.47780900  0.57158000  1
  Sb  Sb3  1  0.21296200  0.52219100  0.92842000  1
  P  P0  1  0.37590600  0.41921900  0.20426200  1
  P  P1  1  0.59082900  0.50648100  0.20127200  1
  P  P2  1  0.12524300  0.15465100  0.24306100  1
  P  P3  1  0.91296300  0.04812800  0.22573100  1
  P  P4  1  0.41296300  0.95187200  0.27426900  1
  P  P5  1  0.62524300  0.84534900  0.25693900  1
  P  P6  1  0.09082900  0.49351900  0.29872800  1
  P  P7  1  0.87590600  0.58078100  0.29573800  1
  P  P8  1  0.12409400  0.41921900  0.70426200  1
  P  P9  1  0.90917100  0.50648100  0.70127200  1
  P  P10  1  0.37475700  0.15465100  0.74306100  1
  P  P11  1  0.58703700  0.04812800  0.72573100  1
  P  P12  1  0.08703700  0.95187200  0.77426900  1
  P  P13  1  0.87475700  0.84534900  0.75693900  1
  P  P14  1  0.40917100  0.49351900  0.79872800  1
  P  P15  1  0.62409400  0.58078100  0.79573800  1
  O  O0  1  0.65592900  0.64075100  0.07430700  1
  O  O1  1  0.90326200  0.18700900  0.07359200  1
  O  O2  1  0.15813900  0.23657300  0.09870000  1
  O  O3  1  0.29515300  0.55573800  0.10364500  1
  O  O4  1  0.48059000  0.53807300  0.13991100  1
  O  O5  1  0.69820500  0.96336900  0.14598200  1
  O  O6  1  0.86522900  0.62845800  0.15545900  1
  O  O7  1  0.38717900  0.20304900  0.21178200  1
  O  O8  1  0.35500100  0.87694400  0.20126300  1
  O  O9  1  0.52853100  0.99045100  0.22551800  1
  O  O10  1  0.08005900  0.37086400  0.22529400  1
  O  O11  1  0.12204800  0.72361000  0.19974400  1
  O  O12  1  0.62204800  0.27639000  0.30025600  1
  O  O13  1  0.58005900  0.62913600  0.27470600  1
  O  O14  1  0.02853100  0.00954900  0.27448200  1
  O  O15  1  0.85500100  0.12305600  0.29873700  1
  O  O16  1  0.88717900  0.79695100  0.28821800  1
  O  O17  1  0.36522900  0.37154200  0.34454100  1
  O  O18  1  0.19820500  0.03663100  0.35401800  1
  O  O19  1  0.98059000  0.46192700  0.36008900  1
  O  O20  1  0.79515300  0.44426200  0.39635500  1
  O  O21  1  0.65813900  0.76342700  0.40130000  1
  O  O22  1  0.40326200  0.81299100  0.42640800  1
  O  O23  1  0.15592900  0.35924900  0.42569300  1
  O  O24  1  0.84407100  0.64075100  0.57430700  1
  O  O25  1  0.59673800  0.18700900  0.57359200  1
  O  O26  1  0.34186100  0.23657300  0.59870000  1
  O  O27  1  0.20484700  0.55573800  0.60364500  1
  O  O28  1  0.01941000  0.53807300  0.63991100  1
  O  O29  1  0.80179500  0.96336900  0.64598200  1
  O  O30  1  0.63477100  0.62845800  0.65545900  1
  O  O31  1  0.11282100  0.20304900  0.71178200  1
  O  O32  1  0.14499900  0.87694400  0.70126300  1
  O  O33  1  0.97146900  0.99045100  0.72551800  1
  O  O34  1  0.41994100  0.37086400  0.72529400  1
  O  O35  1  0.37795200  0.72361000  0.69974400  1
  O  O36  1  0.87795200  0.27639000  0.80025600  1
  O  O37  1  0.91994100  0.62913600  0.77470600  1
  O  O38  1  0.47146900  0.00954900  0.77448200  1
  O  O39  1  0.64499900  0.12305600  0.79873700  1
  O  O40  1  0.61282100  0.79695100  0.78821800  1
  O  O41  1  0.13477100  0.37154200  0.84454100  1
  O  O42  1  0.30179500  0.03663100  0.85401800  1
  O  O43  1  0.51941000  0.46192700  0.86008900  1
  O  O44  1  0.70484700  0.44426200  0.89635500  1
  O  O45  1  0.84186100  0.76342700  0.90130000  1
  O  O46  1  0.09673800  0.81299100  0.92640800  1
  O  O47  1  0.34407100  0.35924900  0.92569300  1
loop_
_geom_bond_atom_site_label_1
_geom_bond_atom_site_label_2
_geom_bond_distance
_geom_bond_site_symmetry_2
Li0 O11 2.004069 1_555
Li0 O3 2.110801 1_555
Li0 O42 2.201574 1_564
Li0 O46 2.226492 1_554
Li1 O12 2.004069 1_555
Li1 O20 2.110801 1_555
Li1 O29 2.201574 1_545
Li1 O25 2.226492 1_555
Li2 O35 2.004069 1_555
Li2 O27 2.110801 1_555
Li2 O18 2.201574 1_565
Li2 O22 2.226492 1_555
Li3 O36 2.004069 1_555
Li3 O44 2.110801 1_555
Li3 O5 2.201574 1_546
Li3 O1 2.226492 1_556
O0 P1 1.534367 1_555
O0 Sb0 2.150126 1_555
O1 P3 1.508975 1_555
O1 Sb0 2.661967 1_555
O2 P2 1.541030 1_555
O2 Sb3 2.072942 1_554
O3 P0 1.506843 1_555
O3 Sb3 2.516270 1_554
O4 P0 1.605196 1_555
O4 P1 1.609891 1_555
O5 P5 1.474851 1_555
O6 P7 1.520523 1_555
O6 Sb0 2.163826 1_555
O7 P0 1.570972 1_555
O7 P4 1.609392 1_545
O8 P4 1.500560 1_555
O8 Sb1 2.655393 1_555
O9 P5 1.591690 1_555
O9 P4 1.624999 1_555
O10 P6 1.601477 1_555
O10 P2 1.619902 1_555
O11 P6 1.485883 1_555
O12 P1 1.485883 1_555
O13 P1 1.601477 1_555
O13 P5 1.619902 1_555
O14 P2 1.591690 1_555
O14 P3 1.624999 1_455
O15 P3 1.500560 1_555
O15 Sb0 2.655393 1_555
O16 P7 1.570972 1_555
O16 P3 1.609392 1_565
O17 P0 1.520523 1_555
O17 Sb1 2.163826 1_555
O18 P2 1.474851 1_555
O19 P7 1.605196 1_555
O19 P6 1.609891 1_655
O20 P7 1.506843 1_555
O20 Sb2 2.516270 1_555
O21 P5 1.541030 1_555
O21 Sb2 2.072942 1_555
O22 P4 1.508975 1_555
O22 Sb1 2.661967 1_555
O23 P6 1.534367 1_555
O23 Sb1 2.150126 1_555
O24 P9 1.534367 1_555
O24 Sb2 2.150126 1_555
O25 P11 1.508975 1_555
O25 Sb2 2.661967 1_555
O26 P10 1.541030 1_555
O26 Sb1 2.072942 1_555
O27 P8 1.506843 1_555
O27 Sb1 2.516270 1_555
O28 P8 1.605196 1_555
O28 P9 1.609891 1_455
O29 P13 1.474851 1_555
O30 P15 1.520523 1_555
O30 Sb2 2.163826 1_555
O31 P8 1.570972 1_555
O31 P12 1.609392 1_545
O32 P12 1.500560 1_555
O32 Sb3 2.655393 1_555
O33 P13 1.591690 1_555
O33 P12 1.624999 1_655
O34 P14 1.601477 1_555
O34 P10 1.619902 1_555
O35 P14 1.485883 1_555
O36 P9 1.485883 1_555
O37 P9 1.601477 1_555
O37 P13 1.619902 1_555
O38 P10 1.591690 1_555
O38 P11 1.624999 1_555
O39 P11 1.500560 1_555
O39 Sb2 2.655393 1_555
O40 P15 1.570972 1_555
O40 P11 1.609392 1_565
O41 P8 1.520523 1_555
O41 Sb3 2.163826 1_555
O42 P10 1.474851 1_555
O43 P15 1.605196 1_555
O43 P14 1.609891 1_555
O44 P15 1.506843 1_555
O44 Sb0 2.516270 1_556
O45 P13 1.541030 1_555
O45 Sb0 2.072942 1_556
O46 P12 1.508975 1_555
O46 Sb3 2.661967 1_555
O47 P14 1.534367 1_555
O47 Sb3 2.150126 1_555
