# generated using pymatgen
data_Mn2O3F
_symmetry_space_group_name_H-M   'P 1'
_cell_length_a   4.59186500
_cell_length_b   5.52356700
_cell_length_c   10.18173066
_cell_angle_alpha   83.12713333
_cell_angle_beta   90.00000000
_cell_angle_gamma   90.00000000
_symmetry_Int_Tables_number   1
_chemical_formula_structural   Mn2O3F
_chemical_formula_sum   'Mn8 O12 F4'
_cell_volume   256.38835074
_cell_formula_units_Z   4
loop_
 _symmetry_equiv_pos_site_id
 _symmetry_equiv_pos_as_xyz
  1  'x, y, z'
loop_
 _atom_site_type_symbol
 _atom_site_label
 _atom_site_symmetry_multiplicity
 _atom_site_fract_x
 _atom_site_fract_y
 _atom_site_fract_z
 _atom_site_occupancy
  Mn  Mn0  1  0.52212000  0.74511700  0.76075400  1
  Mn  Mn1  1  0.47788000  0.25488300  0.23924600  1
  Mn  Mn2  1  0.50000000  0.00000000  0.00000000  1
  Mn  Mn3  1  0.50000000  0.50000000  0.50000000  1
  Mn  Mn4  1  0.00000000  0.50000000  0.00000000  1
  Mn  Mn5  1  0.97788000  0.74511700  0.26075400  1
  Mn  Mn6  1  0.00000000  0.00000000  0.50000000  1
  Mn  Mn7  1  0.02212000  0.25488300  0.73924600  1
  O  O0  1  0.79663200  0.48291300  0.17557500  1
  O  O1  1  0.80580300  0.72330700  0.42776600  1
  O  O2  1  0.80133300  0.99100500  0.67124900  1
  O  O3  1  0.69419700  0.72330700  0.92776600  1
  O  O4  1  0.70336800  0.48291300  0.67557500  1
  O  O5  1  0.69866700  0.99100500  0.17124900  1
  O  O6  1  0.29663200  0.51708700  0.32442500  1
  O  O7  1  0.30133300  0.00899500  0.82875100  1
  O  O8  1  0.30580300  0.27669300  0.07223400  1
  O  O9  1  0.19419700  0.27669300  0.57223400  1
  O  O10  1  0.19866700  0.00899500  0.32875100  1
  O  O11  1  0.20336800  0.51708700  0.82442500  1
  F  F0  1  0.81656400  0.21938400  0.90987000  1
  F  F1  1  0.68343600  0.21938400  0.40987000  1
  F  F2  1  0.31656400  0.78061600  0.59013000  1
  F  F3  1  0.18343600  0.78061600  0.09013000  1
loop_
_geom_bond_atom_site_label_1
_geom_bond_atom_site_label_2
_geom_bond_distance
_geom_bond_site_symmetry_2
Mn0 O3 1.865859 1_555
Mn0 O4 1.960362 1_555
Mn0 O7 1.968023 1_565
Mn0 O11 1.988366 1_555
Mn0 O2 2.005671 1_555
Mn1 O8 1.865859 1_555
Mn1 O6 1.960362 1_555
Mn1 O5 1.968023 1_545
Mn1 O0 1.988366 1_555
Mn1 O10 2.005671 1_555
Mn2 O5 1.963191 1_545
Mn2 O7 1.963191 1_554
Mn2 O8 1.985172 1_555
Mn2 O3 1.985172 1_544
Mn3 O1 1.953713 1_555
Mn3 O9 1.953713 1_555
Mn3 O4 2.009055 1_555
Mn3 O6 2.009055 1_555
Mn4 O3 1.953713 1_454
Mn4 O8 1.953713 1_555
Mn4 O0 2.009055 1_455
Mn4 O11 2.009055 1_554
Mn5 O1 1.865859 1_555
Mn5 O0 1.960362 1_555
Mn5 O10 1.968023 1_665
Mn5 O6 1.988366 1_655
Mn5 O5 2.005671 1_555
Mn6 O2 1.963191 1_445
Mn6 O10 1.963191 1_555
Mn6 O9 1.985172 1_555
Mn6 O1 1.985172 1_445
Mn7 O9 1.865859 1_555
Mn7 O11 1.960362 1_555
Mn7 O2 1.968023 1_445
Mn7 O4 1.988366 1_455
Mn7 O7 2.005671 1_555
F0 Mn7 1.966182 1_655
F0 Mn2 2.038974 1_556
F0 Mn4 2.072332 1_656
F1 Mn1 1.966182 1_555
F1 Mn6 2.038974 1_655
F1 Mn3 2.072332 1_555
F2 Mn0 1.966182 1_555
F2 Mn6 2.038974 1_565
F2 Mn3 2.072332 1_555
F3 Mn5 1.966182 1_455
F3 Mn2 2.038974 1_565
F3 Mn4 2.072332 1_555
