# generated using pymatgen
data_SrLiLa15(CoO8)4
_symmetry_space_group_name_H-M   'P 1'
_cell_length_a   8.76855500
_cell_length_b   8.77426075
_cell_length_c   10.64053965
_cell_angle_alpha   107.90056261
_cell_angle_beta   107.81415595
_cell_angle_gamma   93.90115263
_symmetry_Int_Tables_number   1
_chemical_formula_structural   SrLiLa15(CoO8)4
_chemical_formula_sum   'Sr1 Li1 La15 Co4 O32'
_cell_volume   729.71213690
_cell_formula_units_Z   1
loop_
 _symmetry_equiv_pos_site_id
 _symmetry_equiv_pos_as_xyz
  1  'x, y, z'
loop_
 _atom_site_type_symbol
 _atom_site_label
 _atom_site_symmetry_multiplicity
 _atom_site_fract_x
 _atom_site_fract_y
 _atom_site_fract_z
 _atom_site_occupancy
  Sr  Sr0  1  0.88700100  0.60725800  0.12211400  1
  Li  Li0  1  0.00084300  0.99780500  0.24926100  1
  La  La0  1  0.38686900  0.11836100  0.87694700  1
  La  La1  1  0.12052800  0.38978000  0.37724500  1
  La  La2  1  0.11779200  0.38448700  0.87624800  1
  La  La3  1  0.38997800  0.11951500  0.37685300  1
  La  La4  1  0.13444400  0.86401900  0.99469900  1
  La  La5  1  0.63879700  0.36132700  0.24944300  1
  La  La6  1  0.63461200  0.36782700  0.75386000  1
  La  La7  1  0.13649800  0.86301600  0.50270000  1
  La  La8  1  0.86255800  0.13767800  0.50436900  1
  La  La9  1  0.36111700  0.63977200  0.25195300  1
  La  La10  1  0.36532000  0.63404700  0.75014000  1
  La  La11  1  0.86370500  0.13487500  0.99354800  1
  La  La12  1  0.88201100  0.61035100  0.62388700  1
  La  La13  1  0.61146700  0.88175600  0.62386700  1
  La  La14  1  0.61376400  0.87918200  0.12168900  1
  Co  Co0  1  0.25078100  0.25098100  0.12499100  1
  Co  Co1  1  0.24911600  0.24953800  0.62535300  1
  Co  Co2  1  0.75051100  0.74915700  0.37469700  1
  Co  Co3  1  0.74922300  0.75060500  0.87416500  1
  O  O0  1  0.13150500  0.13056800  0.94077200  1
  O  O1  1  0.12967300  0.12930500  0.18770900  1
  O  O2  1  0.12835800  0.12949600  0.44092200  1
  O  O3  1  0.12997900  0.13034700  0.68884400  1
  O  O4  1  0.41069800  0.08880600  0.62667200  1
  O  O5  1  0.09457400  0.40742700  0.12418300  1
  O  O6  1  0.08942400  0.41043200  0.62689600  1
  O  O7  1  0.41410900  0.08764600  0.12364100  1
  O  O8  1  0.37218400  0.37130600  0.30772100  1
  O  O9  1  0.36981600  0.36986000  0.06214000  1
  O  O10  1  0.37043200  0.37042500  0.56389800  1
  O  O11  1  0.36793500  0.36913400  0.80851600  1
  O  O12  1  0.31603600  0.68982700  0.49983200  1
  O  O13  1  0.81144900  0.18858900  0.74972600  1
  O  O14  1  0.31208400  0.68735900  0.00118900  1
  O  O15  1  0.81693900  0.18031700  0.24962400  1
  O  O16  1  0.67622100  0.30015900  0.99505900  1
  O  O17  1  0.18831500  0.82541900  0.25468600  1
  O  O18  1  0.18671800  0.81043500  0.74850200  1
  O  O19  1  0.69047100  0.31724300  0.50070600  1
  O  O20  1  0.63043700  0.63048200  0.43929300  1
  O  O21  1  0.62999000  0.63077400  0.69148700  1
  O  O22  1  0.62861300  0.63419400  0.19815300  1
  O  O23  1  0.62678700  0.63283500  0.93662400  1
  O  O24  1  0.92750200  0.57277800  0.38203800  1
  O  O25  1  0.91131100  0.58808600  0.86984100  1
  O  O26  1  0.58723200  0.91042000  0.87265000  1
  O  O27  1  0.57326900  0.92826300  0.37768900  1
  O  O28  1  0.86534800  0.86673500  0.55401100  1
  O  O29  1  0.86875600  0.87548400  0.31311600  1
  O  O30  1  0.86765600  0.86862800  0.80832900  1
  O  O31  1  0.86924600  0.87588700  0.05750300  1
loop_
_geom_bond_atom_site_label_1
_geom_bond_atom_site_label_2
_geom_bond_distance
_geom_bond_site_symmetry_2
Li0 O31 1.920621 1_455
Li0 O29 1.927609 1_455
Li0 O2 1.929974 1_565
Li0 O1 1.943256 1_565
Li0 O17 2.308113 1_555
Li0 O15 2.348682 1_465
La0 O9 2.515372 1_556
La0 O11 2.521890 1_555
La0 O0 2.530803 1_555
La0 O3 2.548367 1_555
La0 O16 2.612897 1_555
La0 O26 2.617578 1_545
La0 O7 2.660845 1_556
La0 O4 2.669477 1_555
La0 O18 2.804476 1_545
La1 O24 2.412015 1_455
La1 O10 2.523938 1_555
La1 O8 2.533113 1_555
La1 O1 2.566631 1_555
La1 O2 2.573646 1_555
La1 O5 2.685635 1_555
La1 O6 2.705164 1_555
La1 O12 2.734600 1_555
La1 O15 2.810073 1_455
La2 O11 2.509239 1_555
La2 O9 2.516473 1_556
La2 O0 2.525048 1_555
La2 O3 2.527754 1_555
La2 O25 2.629351 1_455
La2 O5 2.655115 1_556
La2 O6 2.669938 1_555
La2 O14 2.749249 1_556
La2 O13 2.778316 1_455
La3 O27 2.401370 1_545
La3 O10 2.530581 1_555
La3 O8 2.534183 1_555
La3 O1 2.567087 1_555
La3 O2 2.585058 1_555
La3 O7 2.697409 1_555
La3 O4 2.706132 1_555
La3 O17 2.717737 1_545
La3 O19 2.745390 1_555
La4 O14 2.272057 1_556
La4 O0 2.573695 1_565
La4 O30 2.574967 1_455
La4 O1 2.600927 1_566
La4 O31 2.608817 1_456
La4 O25 2.691200 1_455
La4 O18 2.701981 1_555
La4 O7 2.716207 1_566
La4 O17 2.790878 1_556
La5 O15 2.302191 1_555
La5 O8 2.595968 1_555
La5 O9 2.603874 1_555
La5 O22 2.615445 1_555
La5 O20 2.616287 1_555
La5 O7 2.684497 1_555
La5 O16 2.719708 1_554
La5 O24 2.721732 1_555
La5 O19 2.724202 1_555
La6 O13 2.282688 1_555
La6 O23 2.552833 1_555
La6 O10 2.573486 1_555
La6 O11 2.576426 1_555
La6 O21 2.588955 1_555
La6 O25 2.684851 1_555
La6 O4 2.713585 1_555
La6 O16 2.732357 1_555
La6 O19 2.791917 1_555
La7 O12 2.261620 1_555
La7 O3 2.580666 1_565
La7 O28 2.597302 1_455
La7 O2 2.615925 1_565
La7 O29 2.620298 1_455
La7 O4 2.692691 1_565
La7 O18 2.704098 1_555
La7 O24 2.721671 1_455
La7 O17 2.738337 1_555
La8 O19 2.255235 1_555
La8 O3 2.576345 1_655
La8 O29 2.577513 1_545
La8 O28 2.589061 1_545
La8 O2 2.617007 1_655
La8 O6 2.689193 1_655
La8 O13 2.691190 1_555
La8 O27 2.716412 1_545
La8 O15 2.761848 1_555
La9 O17 2.298652 1_555
La9 O22 2.579088 1_555
La9 O8 2.601057 1_555
La9 O20 2.608242 1_555
La9 O9 2.621494 1_555
La9 O5 2.677799 1_555
La9 O12 2.693577 1_555
La9 O27 2.722607 1_555
La9 O14 2.736092 1_555
La10 O18 2.275499 1_555
La10 O23 2.535084 1_555
La10 O10 2.555422 1_555
La10 O21 2.580810 1_555
La10 O11 2.583672 1_555
La10 O26 2.688637 1_555
La10 O6 2.693184 1_555
La10 O14 2.756280 1_556
La10 O12 2.765126 1_555
La11 O16 2.265466 1_555
La11 O30 2.562291 1_545
La11 O31 2.564141 1_546
La11 O0 2.576197 1_655
La11 O1 2.615171 1_656
La11 O13 2.686383 1_555
La11 O26 2.700989 1_545
La11 O5 2.706538 1_656
La11 O15 2.790995 1_556
La12 O20 2.523997 1_555
La12 O21 2.525910 1_555
La12 O30 2.541462 1_555
La12 O28 2.577060 1_555
La12 O6 2.611274 1_655
La12 O25 2.619737 1_555
La12 O24 2.648518 1_555
La12 O19 2.673217 1_555
La12 O18 2.782456 1_655
La13 O20 2.516685 1_555
La13 O21 2.518907 1_555
La13 O30 2.527545 1_555
La13 O28 2.553011 1_555
La13 O4 2.614293 1_565
La13 O26 2.656727 1_555
La13 O12 2.690117 1_555
La13 O27 2.697994 1_555
La13 O13 2.796585 1_565
La14 O23 2.473358 1_554
La14 O22 2.519535 1_555
La14 O29 2.532422 1_555
La14 O31 2.533504 1_555
La14 O7 2.616414 1_565
La14 O26 2.688722 1_554
La14 O14 2.732527 1_555
La14 O27 2.760995 1_555
La14 O15 2.770007 1_565
Co0 O9 1.825509 1_555
Co0 O8 1.829500 1_555
Co0 O0 1.837011 1_554
Co0 O1 1.852086 1_555
Co0 O5 2.004088 1_555
Co0 O7 2.093890 1_555
Co1 O11 1.826655 1_555
Co1 O3 1.832739 1_555
Co1 O10 1.839222 1_555
Co1 O2 1.840640 1_555
Co1 O6 2.054943 1_555
Co1 O4 2.066032 1_555
Co2 O22 1.774464 1_555
Co2 O28 1.786558 1_555
Co2 O20 1.843593 1_555
Co2 O29 1.854399 1_555
Co2 O24 2.266423 1_555
Co2 O27 2.284284 1_555
Co3 O21 1.824148 1_555
Co3 O23 1.835718 1_555
Co3 O30 1.840200 1_555
Co3 O31 1.841131 1_556
Co3 O26 2.062793 1_555
Co3 O25 2.081114 1_555
O5 Sr0 2.611717 1_455
O16 Sr0 2.838748 1_556
O17 Sr0 2.829518 1_455
O22 Sr0 2.630740 1_555
O23 Sr0 2.595874 1_556
O24 Sr0 2.791941 1_555
O25 Sr0 2.712326 1_556
O29 Sr0 2.646661 1_555
O31 Sr0 2.651983 1_555
