# generated using pymatgen
data_Li3Cr4(PO4)6
_symmetry_space_group_name_H-M   'P 1'
_cell_length_a   8.35682800
_cell_length_b   8.63555992
_cell_length_c   11.91805816
_cell_angle_alpha   90.11854925
_cell_angle_beta   90.16177659
_cell_angle_gamma   90.11342310
_symmetry_Int_Tables_number   1
_chemical_formula_structural   Li3Cr4(PO4)6
_chemical_formula_sum   'Li6 Cr8 P12 O48'
_cell_volume   860.07029667
_cell_formula_units_Z   2
loop_
 _symmetry_equiv_pos_site_id
 _symmetry_equiv_pos_as_xyz
  1  'x, y, z'
loop_
 _atom_site_type_symbol
 _atom_site_label
 _atom_site_symmetry_multiplicity
 _atom_site_fract_x
 _atom_site_fract_y
 _atom_site_fract_z
 _atom_site_occupancy
  Li  Li0  1  0.80748100  0.21368600  0.82186700  1
  Li  Li1  1  0.68075100  0.71502900  0.68074500  1
  Li  Li2  1  0.57266300  0.40534600  0.19476100  1
  Li  Li3  1  0.18124900  0.78881300  0.17874800  1
  Li  Li4  1  0.08152900  0.09017000  0.69080600  1
  Li  Li5  1  0.08076700  0.49983800  0.34224600  1
  Cr  Cr0  1  0.74660200  0.97395500  0.11463100  1
  Cr  Cr1  1  0.75093200  0.53501500  0.88671900  1
  Cr  Cr2  1  0.74827800  0.47313800  0.39107400  1
  Cr  Cr3  1  0.74347800  0.03317100  0.61275100  1
  Cr  Cr4  1  0.25255600  0.96944800  0.38529000  1
  Cr  Cr5  1  0.24472400  0.52739600  0.61321400  1
  Cr  Cr6  1  0.24653600  0.46565700  0.11286400  1
  Cr  Cr7  1  0.25742900  0.02397300  0.89015600  1
  P  P0  1  0.96715500  0.75121500  0.50794200  1
  P  P1  1  0.88698500  0.61846900  0.14710700  1
  P  P2  1  0.88751800  0.89173100  0.85795000  1
  P  P3  1  0.60747200  0.11554600  0.35086000  1
  P  P4  1  0.61108100  0.39101900  0.64509000  1
  P  P5  1  0.53442700  0.24892600  0.99163800  1
  P  P6  1  0.46519500  0.75011200  0.00820700  1
  P  P7  1  0.38805100  0.61145000  0.35683700  1
  P  P8  1  0.39009000  0.88135200  0.64568700  1
  P  P9  1  0.11337900  0.11146500  0.14486200  1
  P  P10  1  0.10995700  0.38286900  0.85020800  1
  P  P11  1  0.03799700  0.24821900  0.49140000  1
  O  O0  1  0.94240800  0.12785100  0.55977100  1
  O  O1  1  0.93512600  0.10685200  0.10696100  1
  O  O2  1  0.94266100  0.33124900  0.39840000  1
  O  O3  1  0.92932600  0.41705200  0.82444500  1
  O  O4  1  0.91405000  0.63409700  0.41762700  1
  O  O5  1  0.88071400  0.79589600  0.15866600  1
  O  O6  1  0.87106000  0.00728000  0.75734500  1
  O  O7  1  0.86419500  0.57163400  0.02367400  1
  O  O8  1  0.82987800  0.73031100  0.81807800  1
  O  O9  1  0.81928200  0.82206000  0.56534600  1
  O  O10  1  0.77018700  0.52613400  0.22245900  1
  O  O11  1  0.77734600  0.95223300  0.95123200  1
  O  O12  1  0.72306500  0.44530000  0.55066100  1
  O  O13  1  0.71926700  0.02234000  0.27263100  1
  O  O14  1  0.67914000  0.32390700  0.93189900  1
  O  O15  1  0.66539700  0.22843500  0.68394400  1
  O  O16  1  0.64183400  0.08000300  0.47315400  1
  O  O17  1  0.63778300  0.50795400  0.74270600  1
  O  O18  1  0.62373300  0.29238600  0.33098400  1
  O  O19  1  0.59790600  0.13882400  0.08260900  1
  O  O20  1  0.56598100  0.91823100  0.67865200  1
  O  O21  1  0.56889900  0.82780000  0.10028800  1
  O  O22  1  0.56105000  0.61669900  0.39684000  1
  O  O23  1  0.56175400  0.62544800  0.94515500  1
  O  O24  1  0.44602800  0.37427300  0.05900500  1
  O  O25  1  0.43437400  0.39368600  0.60725300  1
  O  O26  1  0.42777000  0.17449400  0.89905200  1
  O  O27  1  0.43213700  0.07117300  0.32274300  1
  O  O28  1  0.40443700  0.86235500  0.91652400  1
  O  O29  1  0.38020500  0.70367400  0.65863000  1
  O  O30  1  0.37198100  0.50161400  0.25432400  1
  O  O31  1  0.36240500  0.92641400  0.52337100  1
  O  O32  1  0.32289200  0.77236300  0.31825800  1
  O  O33  1  0.31788300  0.67763200  0.06557500  1
  O  O34  1  0.27488200  0.97412800  0.72298200  1
  O  O35  1  0.26782000  0.55125200  0.44672300  1
  O  O36  1  0.22380300  0.05315100  0.04991500  1
  O  O37  1  0.21846200  0.47759500  0.77204500  1
  O  O38  1  0.18297200  0.16859800  0.43844300  1
  O  O39  1  0.15905300  0.27637200  0.18053400  1
  O  O40  1  0.14411200  0.42236000  0.97154400  1
  O  O41  1  0.13722000  0.99588600  0.24241900  1
  O  O42  1  0.12232300  0.20347000  0.83183300  1
  O  O43  1  0.10114700  0.35889100  0.58410500  1
  O  O44  1  0.06268000  0.57878600  0.18471800  1
  O  O45  1  0.07134200  0.67594500  0.60211300  1
  O  O46  1  0.06573600  0.89092700  0.89356700  1
  O  O47  1  0.06321900  0.87676700  0.44521000  1
loop_
_geom_bond_atom_site_label_1
_geom_bond_atom_site_label_2
_geom_bond_distance
_geom_bond_site_symmetry_2
Li0 O14 1.944935 1_555
Li0 O6 2.012727 1_555
Li0 O3 2.028408 1_555
Li0 O15 2.029411 1_555
Li1 O17 1.968848 1_555
Li1 O20 2.001605 1_555
Li1 O9 2.023871 1_555
Li1 O8 2.058243 1_555
Li1 O29 2.526352 1_555
Li2 O18 1.942621 1_555
Li2 O24 1.948614 1_555
Li2 O10 1.977467 1_555
Li2 O30 2.004340 1_555
Li3 O41 1.976716 1_555
Li3 O33 2.013089 1_555
Li3 O32 2.043613 1_555
Li3 O44 2.066445 1_555
Li3 O5 2.523099 1_455
Li4 O34 1.940774 1_545
Li4 O42 1.971579 1_555
Li4 O0 1.972244 1_455
Li4 O6 2.059138 1_455
Li5 O2 1.975139 1_455
Li5 O44 2.004116 1_555
Li5 O4 2.025230 1_455
Li5 O35 2.043289 1_555
Cr0 O19 1.929604 1_565
Cr0 O13 1.942217 1_565
Cr0 O1 1.949771 1_565
Cr0 O21 1.953912 1_555
Cr0 O11 1.973591 1_554
Cr0 O5 1.975521 1_555
Cr1 O23 1.898180 1_555
Cr1 O7 1.909987 1_556
Cr1 O3 1.954528 1_555
Cr1 O17 1.970503 1_555
Cr1 O8 1.988238 1_555
Cr1 O14 1.993714 1_555
Cr2 O12 1.929668 1_555
Cr2 O4 1.984787 1_555
Cr2 O22 1.999415 1_555
Cr2 O18 2.004313 1_555
Cr2 O2 2.038441 1_555
Cr2 O10 2.070474 1_555
Cr3 O16 1.910293 1_555
Cr3 O20 1.950964 1_545
Cr3 O0 1.957937 1_555
Cr3 O15 1.997641 1_555
Cr3 O9 2.011562 1_545
Cr3 O6 2.036808 1_555
Cr4 O27 1.892973 1_565
Cr4 O47 1.912541 1_555
Cr4 O31 1.919465 1_555
Cr4 O38 1.923171 1_565
Cr4 O41 1.968164 1_555
Cr4 O32 1.970102 1_555
Cr5 O43 1.914695 1_555
Cr5 O45 1.941507 1_555
Cr5 O37 1.954928 1_555
Cr5 O25 1.964090 1_555
Cr5 O29 1.969368 1_555
Cr5 O35 2.005152 1_555
Cr6 O40 1.922797 1_554
Cr6 O24 1.955310 1_555
Cr6 O39 1.964898 1_555
Cr6 O30 2.006069 1_555
Cr6 O33 2.006438 1_555
Cr6 O44 2.014534 1_555
Cr7 O28 1.887410 1_545
Cr7 O26 1.928326 1_555
Cr7 O36 1.941404 1_556
Cr7 O46 1.970073 1_545
Cr7 O42 2.041461 1_555
Cr7 O34 2.043161 1_545
O0 P11 1.544809 1_655
O1 P9 1.555800 1_655
O2 P11 1.542049 1_655
O3 P10 1.568290 1_655
O4 P0 1.539302 1_555
O5 P1 1.539087 1_555
O6 P2 1.567413 1_545
O7 P1 1.536093 1_555
O8 P2 1.547335 1_555
O9 P0 1.541249 1_555
O10 P1 1.549132 1_555
O11 P2 1.536844 1_555
O12 P4 1.538975 1_555
O13 P3 1.547486 1_555
O14 P5 1.546720 1_555
O15 P4 1.547810 1_555
O16 P3 1.516849 1_555
O17 P4 1.554269 1_555
O18 P3 1.551615 1_555
O19 P5 1.537504 1_554
O20 P8 1.552651 1_555
O21 P6 1.547503 1_555
O22 P7 1.521587 1_555
O23 P6 1.542168 1_556
O24 P5 1.537840 1_554
O25 P4 1.543039 1_555
O26 P5 1.553840 1_555
O27 P3 1.549367 1_555
O28 P6 1.547406 1_556
O29 P8 1.544472 1_555
O30 P7 1.550529 1_555
O31 P8 1.526710 1_555
O32 P7 1.563026 1_555
O33 P6 1.542144 1_555
O34 P8 1.556419 1_555
O35 P7 1.560028 1_555
O36 P9 1.546285 1_555
O37 P10 1.537572 1_555
O38 P11 1.531250 1_555
O39 P9 1.532585 1_555
O40 P10 1.511352 1_555
O41 P9 1.546611 1_565
O42 P10 1.567817 1_555
O43 P11 1.550148 1_555
O44 P1 1.572590 1_455
O45 P0 1.562033 1_455
O46 P2 1.547528 1_455
O47 P0 1.543456 1_455
