# generated using pymatgen
data_Tb2WO6
_symmetry_space_group_name_H-M   'P 1'
_cell_length_a   5.24260248
_cell_length_b   9.08664390
_cell_length_c   9.92804807
_cell_angle_alpha   90.00007469
_cell_angle_beta   89.99999259
_cell_angle_gamma   89.99999848
_symmetry_Int_Tables_number   1
_chemical_formula_structural   Tb2WO6
_chemical_formula_sum   'Tb8 W4 O24'
_cell_volume   472.94899674
_cell_formula_units_Z   4
loop_
 _symmetry_equiv_pos_site_id
 _symmetry_equiv_pos_as_xyz
  1  'x, y, z'
loop_
 _atom_site_type_symbol
 _atom_site_label
 _atom_site_symmetry_multiplicity
 _atom_site_fract_x
 _atom_site_fract_y
 _atom_site_fract_z
 _atom_site_occupancy
  Tb  Tb0  1  0.02023680  0.39652044  0.03433922  1
  Tb  Tb1  1  0.03700141  0.28074160  0.62830017  1
  Tb  Tb2  1  0.46299607  0.71926028  0.12830136  1
  Tb  Tb3  1  0.47976157  0.60348111  0.53433889  1
  Tb  Tb4  1  0.52023689  0.10347965  0.96566073  1
  Tb  Tb5  1  0.53700131  0.21925837  0.37169984  1
  Tb  Tb6  1  0.96299622  0.78073966  0.87169873  1
  Tb  Tb7  1  0.97976151  0.89651889  0.46566109  1
  W  W0  1  0.03983160  0.00457024  0.15239768  1
  W  W1  1  0.46016752  0.99542837  0.65239310  1
  W  W2  1  0.53983149  0.49542970  0.84760235  1
  W  W3  1  0.96016758  0.50457189  0.34760689  1
  O  O0  1  0.08061770  0.65534964  0.47032554  1
  O  O1  1  0.17489360  0.54738498  0.20400936  1
  O  O2  1  0.18254523  0.86298340  0.68073166  1
  O  O3  1  0.19212724  0.86029582  0.26392264  1
  O  O4  1  0.22965523  0.38671957  0.43261495  1
  O  O5  1  0.25121554  0.09002261  0.50679261  1
  O  O6  1  0.24878467  0.90997629  0.00679260  1
  O  O7  1  0.27034424  0.61328134  0.93261409  1
  O  O8  1  0.30787343  0.13970481  0.76392384  1
  O  O9  1  0.31745515  0.13701636  0.18073170  1
  O  O10  1  0.32510966  0.45261505  0.70400990  1
  O  O11  1  0.41938293  0.34465107  0.97032605  1
  O  O12  1  0.58061776  0.84465033  0.52967449  1
  O  O13  1  0.67489372  0.95261504  0.79599069  1
  O  O14  1  0.68254528  0.63701657  0.31926841  1
  O  O15  1  0.69212710  0.63970434  0.73607737  1
  O  O16  1  0.72965529  0.11328052  0.56738508  1
  O  O17  1  0.75121550  0.40997741  0.49320742  1
  O  O18  1  0.74878458  0.59002359  0.99320739  1
  O  O19  1  0.77034428  0.88671871  0.06738584  1
  O  O20  1  0.80787342  0.36029507  0.23607604  1
  O  O21  1  0.81745510  0.36298357  0.81926826  1
  O  O22  1  0.82510951  0.04738486  0.29599008  1
  O  O23  1  0.91938287  0.15534888  0.02967394  1
loop_
_geom_bond_atom_site_label_1
_geom_bond_atom_site_label_2
_geom_bond_distance
_geom_bond_site_symmetry_2
O0 W3 1.939129 1_455
O0 Tb3 2.237143 1_555
O0 Tb7 2.254781 1_455
O1 W3 1.857701 1_455
O1 Tb2 2.299001 1_555
O1 Tb0 2.318222 1_555
O2 W1 1.909423 1_555
O2 Tb6 2.340483 1_455
O2 Tb7 2.404638 1_455
O3 W0 1.892638 1_565
O3 Tb7 2.315030 1_455
O3 Tb2 2.339197 1_555
O4 W3 1.963445 1_455
O4 Tb5 2.297272 1_555
O4 Tb1 2.392033 1_555
O4 Tb3 2.572676 1_555
O5 W1 2.007085 1_545
O5 Tb7 2.298620 1_445
O5 Tb5 2.328659 1_555
O5 Tb1 2.391595 1_555
O6 W0 2.007118 1_565
O6 Tb4 2.298613 1_564
O6 Tb6 2.328677 1_454
O6 Tb2 2.391577 1_555
O7 W2 1.963455 1_555
O7 Tb6 2.297263 1_455
O7 Tb2 2.392047 1_556
O7 Tb0 2.572681 1_556
O8 W1 1.892679 1_545
O8 Tb4 2.315015 1_555
O8 Tb1 2.339229 1_555
O9 W0 1.909427 1_555
O9 Tb5 2.340478 1_555
O9 Tb4 2.404637 1_554
O10 W2 1.857652 1_555
O10 Tb1 2.299014 1_555
O10 Tb3 2.318230 1_555
O11 W2 1.939165 1_555
O11 Tb0 2.237154 1_556
O11 Tb4 2.254798 1_555
O12 W1 1.939130 1_555
O12 Tb7 2.237142 1_555
O12 Tb3 2.254781 1_555
O13 W1 1.857703 1_555
O13 Tb6 2.299002 1_555
O13 Tb4 2.318221 1_565
O14 W3 1.909421 1_555
O14 Tb2 2.340484 1_555
O14 Tb3 2.404637 1_555
O15 W2 1.892639 1_555
O15 Tb3 2.315031 1_555
O15 Tb6 2.339198 1_555
O16 W1 1.963445 1_545
O16 Tb1 2.297271 1_655
O16 Tb5 2.392033 1_555
O16 Tb7 2.572676 1_545
O17 W3 2.007086 1_555
O17 Tb3 2.298620 1_555
O17 Tb1 2.328660 1_655
O17 Tb5 2.391595 1_555
O18 W2 2.007117 1_555
O18 Tb0 2.298612 1_656
O18 Tb2 2.328678 1_556
O18 Tb6 2.391577 1_555
O19 W0 1.963455 1_665
O19 Tb2 2.297265 1_555
O19 Tb6 2.392046 1_554
O19 Tb4 2.572681 1_564
O20 W3 1.892682 1_555
O20 Tb0 2.315014 1_655
O20 Tb5 2.339230 1_555
O21 W2 1.909428 1_555
O21 Tb1 2.340478 1_655
O21 Tb0 2.404637 1_656
O22 W0 1.857652 1_655
O22 Tb5 2.299014 1_555
O22 Tb7 2.318229 1_545
O23 W0 1.939166 1_655
O23 Tb4 2.237154 1_554
O23 Tb0 2.254799 1_655
