# generated using pymatgen
data_AgPdO3
_symmetry_space_group_name_H-M   'P 1'
_cell_length_a   6.47763478
_cell_length_b   6.47763478
_cell_length_c   6.83819500
_cell_angle_alpha   90.00000000
_cell_angle_beta   90.00000000
_cell_angle_gamma   111.15267358
_symmetry_Int_Tables_number   1
_chemical_formula_structural   AgPdO3
_chemical_formula_sum   'Ag4 Pd4 O12'
_cell_volume   267.59632198
_cell_formula_units_Z   4
loop_
 _symmetry_equiv_pos_site_id
 _symmetry_equiv_pos_as_xyz
  1  'x, y, z'
loop_
 _atom_site_type_symbol
 _atom_site_label
 _atom_site_symmetry_multiplicity
 _atom_site_fract_x
 _atom_site_fract_y
 _atom_site_fract_z
 _atom_site_occupancy
  Ag  Ag0  1  0.99286600  0.00713400  0.25000000  1
  Ag  Ag1  1  0.38023500  0.61976500  0.75000000  1
  Ag  Ag2  1  0.61976500  0.38023500  0.25000000  1
  Ag  Ag3  1  0.00713400  0.99286600  0.75000000  1
  Pd  Pd0  1  0.50000000  0.00000000  0.00000000  1
  Pd  Pd1  1  0.50000000  0.00000000  0.50000000  1
  Pd  Pd2  1  0.00000000  0.50000000  0.00000000  1
  Pd  Pd3  1  0.00000000  0.50000000  0.50000000  1
  O  O0  1  0.47702400  0.16497400  0.75000000  1
  O  O1  1  0.16497400  0.47702400  0.25000000  1
  O  O2  1  0.25275300  0.31019700  0.25000000  1
  O  O3  1  0.31019700  0.25275300  0.75000000  1
  O  O4  1  0.16107200  0.83892800  0.49834900  1
  O  O5  1  0.83892800  0.16107200  0.99834900  1
  O  O6  1  0.83892800  0.16107200  0.50165100  1
  O  O7  1  0.16107200  0.83892800  0.00165100  1
  O  O8  1  0.74724700  0.68980300  0.75000000  1
  O  O9  1  0.68980300  0.74724700  0.25000000  1
  O  O10  1  0.52297600  0.83502600  0.25000000  1
  O  O11  1  0.83502600  0.52297600  0.75000000  1
loop_
_geom_bond_atom_site_label_1
_geom_bond_atom_site_label_2
_geom_bond_distance
_geom_bond_site_symmetry_2
Ag0 O9 2.074311 1_545
Ag0 O2 2.074311 1_655
Ag0 O6 2.380656 1_555
Ag0 O5 2.380656 1_554
Ag0 O4 2.472900 1_645
Ag0 O7 2.472900 1_645
Ag1 O3 2.253731 1_555
Ag1 O8 2.253731 1_555
Ag2 O2 2.253731 1_555
Ag2 O9 2.253731 1_555
Ag3 O8 2.074311 1_455
Ag3 O3 2.074311 1_565
Ag3 O4 2.380656 1_555
Ag3 O7 2.380656 1_556
Ag3 O5 2.472900 1_465
Ag3 O6 2.472900 1_465
O0 O3 1.390883 1_555
O0 Pd0 2.049753 1_556
O0 Pd1 2.049753 1_555
O1 O2 1.390883 1_555
O1 Pd2 2.049753 1_555
O1 Pd3 2.049753 1_555
O4 Pd1 2.062901 1_565
O4 Pd3 2.062901 1_555
O5 Pd0 2.062901 1_556
O5 Pd2 2.062901 1_656
O6 Pd1 2.062901 1_555
O6 Pd3 2.062901 1_655
O7 Pd2 2.062901 1_555
O7 Pd0 2.062901 1_565
O10 O9 1.390883 1_555
O10 Pd1 2.049753 1_565
O10 Pd0 2.049753 1_565
O11 O8 1.390883 1_555
O11 Pd3 2.049753 1_655
O11 Pd2 2.049753 1_656
