# generated using pymatgen
data_Na5Fe2P2(CO7)2
_symmetry_space_group_name_H-M   'P 1'
_cell_length_a   10.39229917
_cell_length_b   8.45050776
_cell_length_c   8.52318033
_cell_angle_alpha   76.19269965
_cell_angle_beta   71.06943124
_cell_angle_gamma   107.28264036
_symmetry_Int_Tables_number   1
_chemical_formula_structural   Na5Fe2P2(CO7)2
_chemical_formula_sum   'Na10 Fe4 P4 C4 O28'
_cell_volume   627.82289342
_cell_formula_units_Z   2
loop_
 _symmetry_equiv_pos_site_id
 _symmetry_equiv_pos_as_xyz
  1  'x, y, z'
loop_
 _atom_site_type_symbol
 _atom_site_label
 _atom_site_symmetry_multiplicity
 _atom_site_fract_x
 _atom_site_fract_y
 _atom_site_fract_z
 _atom_site_occupancy
  Na  Na0  1  0.91346400  0.69275200  0.56444200  1
  Na  Na1  1  0.92400100  0.22997300  0.04580900  1
  Na  Na2  1  0.73682200  0.99463200  0.50033100  1
  Na  Na3  1  0.74066000  0.74008500  0.25833300  1
  Na  Na4  1  0.73239400  0.25288800  0.76249000  1
  Na  Na5  1  0.26760600  0.74711200  0.23751000  1
  Na  Na6  1  0.25933900  0.25991500  0.74166700  1
  Na  Na7  1  0.26317800  0.00536800  0.49966900  1
  Na  Na8  1  0.08653600  0.30724800  0.43555800  1
  Na  Na9  1  0.07599900  0.77002700  0.95419100  1
  Fe  Fe0  1  0.65207400  0.31107800  0.43155400  1
  Fe  Fe1  1  0.64636700  0.79736200  0.94555300  1
  Fe  Fe2  1  0.35363300  0.20263800  0.05444700  1
  Fe  Fe3  1  0.34792600  0.68892200  0.56844600  1
  P  P0  1  0.58433700  0.56445400  0.68888800  1
  P  P1  1  0.57735500  0.05549000  0.18610200  1
  P  P2  1  0.41566300  0.43554600  0.31111200  1
  P  P3  1  0.42264500  0.94451000  0.81389800  1
  C  C0  1  0.93968900  0.48114900  0.27687400  1
  C  C1  1  0.93351300  0.97998400  0.77261100  1
  C  C2  1  0.06648700  0.02001600  0.22738900  1
  C  C3  1  0.06031100  0.51885100  0.72312600  1
  O  O0  1  0.92435300  0.93709400  0.31128800  1
  O  O1  1  0.91884000  0.43372200  0.79489600  1
  O  O2  1  0.87522700  0.32614800  0.41052000  1
  O  O3  1  0.86980800  0.83898400  0.91906800  1
  O  O4  1  0.85528200  0.54127000  0.21854900  1
  O  O5  1  0.84340600  0.02924900  0.71565100  1
  O  O6  1  0.67347300  0.97595900  0.07263800  1
  O  O7  1  0.67460400  0.67966700  0.76734500  1
  O  O8  1  0.68660300  0.48781900  0.58603700  1
  O  O9  1  0.67717500  0.15888700  0.25996000  1
  O  O10  1  0.56593700  0.58666400  0.16423200  1
  O  O11  1  0.57079500  0.09191600  0.66397900  1
  O  O12  1  0.53865700  0.18158800  0.05807400  1
  O  O13  1  0.55218300  0.69007600  0.55604000  1
  O  O14  1  0.46134300  0.81841200  0.94192600  1
  O  O15  1  0.44781700  0.30992400  0.44396000  1
  O  O16  1  0.42920500  0.90808400  0.33602100  1
  O  O17  1  0.43406300  0.41333600  0.83576800  1
  O  O18  1  0.32282500  0.84111300  0.74004000  1
  O  O19  1  0.31339700  0.51218100  0.41396300  1
  O  O20  1  0.32539600  0.32033300  0.23265500  1
  O  O21  1  0.32652700  0.02404100  0.92736200  1
  O  O22  1  0.15659400  0.97075100  0.28434900  1
  O  O23  1  0.14471800  0.45873000  0.78145100  1
  O  O24  1  0.13019200  0.16101600  0.08093200  1
  O  O25  1  0.12477300  0.67385200  0.58948000  1
  O  O26  1  0.08115900  0.56627800  0.20510400  1
  O  O27  1  0.07564700  0.06290600  0.68871200  1
loop_
_geom_bond_atom_site_label_1
_geom_bond_atom_site_label_2
_geom_bond_distance
_geom_bond_site_symmetry_2
Na0 O25 2.321551 1_655
Na0 O8 2.394087 1_555
Na0 O7 2.474886 1_555
Na0 O0 2.551086 1_555
Na0 O1 2.596978 1_555
Na0 O22 2.735798 1_655
Na1 O9 2.407349 1_555
Na1 O1 2.431597 1_554
Na1 O23 2.451130 1_654
Na1 O24 2.468933 1_655
Na1 O6 2.738117 1_545
Na1 O0 2.929701 1_545
Na2 O11 2.329581 1_565
Na2 O0 2.351634 1_555
Na2 O5 2.462346 1_565
Na2 O2 2.524062 1_565
Na2 O13 2.534233 1_555
Na2 O9 2.546771 1_565
Na2 O7 2.795173 1_555
Na3 O4 2.357023 1_555
Na3 O0 2.376755 1_555
Na3 O10 2.379848 1_555
Na3 O13 2.495023 1_555
Na3 O3 2.554045 1_554
Na3 O6 2.646455 1_555
Na3 O8 2.844233 1_555
Na4 O1 2.226030 1_555
Na4 O11 2.340602 1_555
Na4 O12 2.455032 1_556
Na4 O8 2.455651 1_555
Na4 O5 2.533506 1_555
Na4 O2 2.695232 1_555
Na4 O6 2.825744 1_546
Na5 O26 2.226037 1_555
Na5 O16 2.340602 1_555
Na5 O14 2.455032 1_554
Na5 O19 2.455651 1_555
Na5 O22 2.533506 1_555
Na5 O25 2.695232 1_555
Na5 O21 2.825744 1_564
Na6 O23 2.357016 1_555
Na6 O27 2.376748 1_555
Na6 O17 2.379856 1_555
Na6 O15 2.495027 1_555
Na6 O24 2.554044 1_556
Na6 O21 2.646462 1_555
Na6 O19 2.844229 1_555
Na7 O16 2.329581 1_545
Na7 O27 2.351634 1_555
Na7 O22 2.462346 1_545
Na7 O25 2.524062 1_545
Na7 O15 2.534233 1_555
Na7 O18 2.546771 1_545
Na7 O20 2.795173 1_555
Na8 O2 2.321551 1_455
Na8 O19 2.394087 1_555
Na8 O20 2.474886 1_555
Na8 O27 2.551086 1_555
Na8 O26 2.596983 1_555
Na8 O5 2.735798 1_455
Na9 O18 2.407349 1_555
Na9 O26 2.431592 1_556
Na9 O4 2.451130 1_456
Na9 O3 2.468933 1_455
Na9 O21 2.738117 1_565
Na9 O27 2.929701 1_565
Fe0 O11 2.073990 1_555
Fe0 O15 2.087751 1_555
Fe0 O9 2.170405 1_555
Fe0 O4 2.219349 1_555
Fe0 O2 2.229422 1_555
Fe0 O8 2.240514 1_555
Fe1 O10 1.965615 1_556
Fe1 O14 1.992241 1_555
Fe1 O7 1.996907 1_555
Fe1 O6 2.063022 1_556
Fe1 O3 2.168726 1_555
Fe1 O5 2.247702 1_565
Fe2 O17 1.965615 1_554
Fe2 O12 1.992241 1_555
Fe2 O20 1.996907 1_555
Fe2 O21 2.063022 1_554
Fe2 O24 2.168726 1_555
Fe2 O22 2.247702 1_545
Fe3 O16 2.073990 1_555
Fe3 O13 2.087751 1_555
Fe3 O18 2.170405 1_555
Fe3 O23 2.219349 1_555
Fe3 O25 2.229422 1_555
Fe3 O19 2.240514 1_555
C0 O26 1.277183 1_655
C0 O4 1.304558 1_555
C0 O2 1.316556 1_555
C1 O27 1.282451 1_665
C1 O3 1.304367 1_555
C1 O5 1.309972 1_565
C2 O0 1.282451 1_445
C2 O24 1.304367 1_555
C2 O22 1.309972 1_545
C3 O1 1.277191 1_455
C3 O23 1.304558 1_555
C3 O25 1.316556 1_555
O6 P1 1.570677 1_565
O7 P0 1.565305 1_555
O8 P0 1.546858 1_555
O9 P1 1.543870 1_555
O10 P2 1.555737 1_555
O11 P3 1.542431 1_545
O12 P1 1.572356 1_555
O13 P0 1.550224 1_555
O14 P3 1.572356 1_555
O15 P2 1.550224 1_555
O16 P1 1.542431 1_565
O17 P0 1.555737 1_555
O18 P3 1.543870 1_555
O19 P2 1.546858 1_555
O20 P2 1.565305 1_555
O21 P3 1.570677 1_545
