# generated using pymatgen
data_Li3MnNb4O12
_symmetry_space_group_name_H-M   'P 1'
_cell_length_a   5.62465695
_cell_length_b   11.24856548
_cell_length_c   9.92734344
_cell_angle_alpha   28.01369928
_cell_angle_beta   50.71502610
_cell_angle_gamma   55.95681905
_symmetry_Int_Tables_number   1
_chemical_formula_structural   Li3MnNb4O12
_chemical_formula_sum   'Li3 Mn1 Nb4 O12'
_cell_volume   228.33586081
_cell_formula_units_Z   1
loop_
 _symmetry_equiv_pos_site_id
 _symmetry_equiv_pos_as_xyz
  1  'x, y, z'
loop_
 _atom_site_type_symbol
 _atom_site_label
 _atom_site_symmetry_multiplicity
 _atom_site_fract_x
 _atom_site_fract_y
 _atom_site_fract_z
 _atom_site_occupancy
  Li  Li0  1  0.27815800  0.50043600  0.28385900  1
  Li  Li1  1  0.78485700  0.00005900  0.78514400  1
  Li  Li2  1  0.78191100  0.50078700  0.78010500  1
  Mn  Mn0  1  0.28351600  0.99756500  0.28221400  1
  Nb  Nb0  1  0.01483700  0.00612700  0.98690400  1
  Nb  Nb1  1  0.98113700  0.49800000  0.00488500  1
  Nb  Nb2  1  0.48640700  0.99972900  0.50074200  1
  Nb  Nb3  1  0.51077900  0.50222800  0.48914700  1
  O  O0  1  0.35514500  0.30223500  0.12004000  1
  O  O1  1  0.22618200  0.12341600  0.61646800  1
  O  O2  1  0.11522400  0.31874600  0.72441900  1
  O  O3  1  0.85956200  0.19529500  0.22533900  1
  O  O4  1  0.36220000  0.80391600  0.11785000  1
  O  O5  1  0.72384400  0.37577700  0.36473100  1
  O  O6  1  0.22658700  0.61756200  0.61957500  1
  O  O7  1  0.61625400  0.17946300  0.86080300  1
  O  O8  1  0.11800100  0.81484900  0.72822500  1
  O  O9  1  0.85882700  0.69591400  0.22641700  1
  O  O10  1  0.72758900  0.88222800  0.35438000  1
  O  O11  1  0.61858000  0.68566800  0.85835300  1
loop_
_geom_bond_atom_site_label_1
_geom_bond_atom_site_label_2
_geom_bond_distance
_geom_bond_site_symmetry_2
Li0 O9 2.098978 1_455
Li0 O1 2.101025 1_555
Li0 O11 2.129553 1_554
Li0 O2 2.320320 1_555
Li0 O4 2.340859 1_555
Li0 O5 2.349517 1_555
Li1 O5 2.108014 1_555
Li1 O4 2.119163 1_546
Li1 O8 2.130187 1_645
Li1 O7 2.273214 1_555
Li1 O9 2.306508 1_546
Li1 O1 2.319770 1_655
Li2 O2 2.097972 1_655
Li2 O10 2.124667 1_555
Li2 O0 2.138893 1_556
Li2 O6 2.335715 1_655
Li2 O3 2.341305 1_556
Li2 O11 2.362600 1_555
Mn0 O7 2.109359 1_564
Mn0 O6 2.118463 1_555
Mn0 O3 2.121658 1_465
Mn0 O10 2.330657 1_555
Mn0 O0 2.341316 1_565
Mn0 O8 2.355808 1_555
Nb0 O2 1.911902 1_555
Nb0 O4 1.923721 1_546
Nb0 O10 1.985227 1_446
Nb0 O1 2.081051 1_555
Nb0 O9 2.176301 1_446
Nb0 O7 2.178311 1_455
Nb1 O5 1.937783 1_555
Nb1 O8 1.987301 1_654
Nb1 O0 1.998839 1_655
Nb1 O11 2.060491 1_554
Nb1 O3 2.098906 1_555
Nb1 O6 2.157387 1_654
Nb2 O1 1.952100 1_565
Nb2 O11 1.973215 1_555
Nb2 O3 2.000676 1_565
Nb2 O8 2.079703 1_555
Nb2 O0 2.102656 1_565
Nb2 O10 2.141414 1_555
Nb3 O9 1.912553 1_555
Nb3 O7 1.963330 1_555
Nb3 O6 1.984404 1_555
Nb3 O5 2.074585 1_555
Nb3 O4 2.107285 1_555
Nb3 O2 2.171208 1_555
