# generated using pymatgen
data_Fe10O9F11
_symmetry_space_group_name_H-M   'P 1'
_cell_length_a   4.77972400
_cell_length_b   4.78247672
_cell_length_c   15.44881179
_cell_angle_alpha   90.02599506
_cell_angle_beta   90.12402811
_cell_angle_gamma   93.30841679
_symmetry_Int_Tables_number   1
_chemical_formula_structural   Fe10O9F11
_chemical_formula_sum   'Fe10 O9 F11'
_cell_volume   352.55368201
_cell_formula_units_Z   1
loop_
 _symmetry_equiv_pos_site_id
 _symmetry_equiv_pos_as_xyz
  1  'x, y, z'
loop_
 _atom_site_type_symbol
 _atom_site_label
 _atom_site_symmetry_multiplicity
 _atom_site_fract_x
 _atom_site_fract_y
 _atom_site_fract_z
 _atom_site_occupancy
  Fe  Fe0  1  0.01257300  0.99099300  0.99447900  1
  Fe  Fe1  1  0.04502700  0.02207500  0.80353500  1
  Fe  Fe2  1  0.00187500  0.00082400  0.60061200  1
  Fe  Fe3  1  0.98335500  0.96326400  0.39670400  1
  Fe  Fe4  1  0.98368800  0.96245200  0.20344000  1
  Fe  Fe5  1  0.46291100  0.52333600  0.90411900  1
  Fe  Fe6  1  0.51270300  0.50181600  0.50830500  1
  Fe  Fe7  1  0.50213900  0.48966800  0.69517300  1
  Fe  Fe8  1  0.48014400  0.54899500  0.30044200  1
  Fe  Fe9  1  0.52232000  0.49697600  0.09230200  1
  O  O0  1  0.19532900  0.81892600  0.89944800  1
  O  O1  1  0.17885600  0.80597100  0.29931000  1
  O  O2  1  0.69955100  0.70247000  0.99991600  1
  O  O3  1  0.70094900  0.69178700  0.60119000  1
  O  O4  1  0.68144900  0.68505200  0.40046800  1
  O  O5  1  0.68020000  0.68364700  0.19784900  1
  O  O6  1  0.29809800  0.30638800  0.00425000  1
  O  O7  1  0.32214300  0.32348600  0.80061800  1
  O  O8  1  0.31094700  0.30131600  0.59830200  1
  F  F0  1  0.21263600  0.80598400  0.70764400  1
  F  F1  1  0.19934200  0.79477800  0.49121300  1
  F  F2  1  0.19025200  0.80378600  0.10270900  1
  F  F3  1  0.71108000  0.71817600  0.80000600  1
  F  F4  1  0.28938300  0.29485900  0.39776400  1
  F  F5  1  0.28821100  0.29277300  0.20053200  1
  F  F6  1  0.81316800  0.20192600  0.89989500  1
  F  F7  1  0.80243700  0.19421800  0.48820500  1
  F  F8  1  0.81311000  0.20421900  0.70984600  1
  F  F9  1  0.80958300  0.18483600  0.10354400  1
  F  F10  1  0.79653900  0.18500300  0.29818000  1
loop_
_geom_bond_atom_site_label_1
_geom_bond_atom_site_label_2
_geom_bond_distance
_geom_bond_site_symmetry_2
Fe0 O0 1.919116 1_555
Fe0 O2 1.977855 1_455
Fe0 O6 1.980343 1_566
Fe1 O7 1.901123 1_555
Fe1 O0 1.932055 1_545
Fe2 O8 2.001027 1_555
Fe2 O3 2.001996 1_445
Fe3 O4 1.906535 1_555
Fe3 O1 1.946571 1_655
Fe4 O5 1.914595 1_555
Fe4 O1 1.923396 1_655
Fe5 O7 1.960266 1_555
Fe5 O0 1.961570 1_555
Fe5 O6 2.000596 1_556
Fe5 O2 2.020713 1_555
Fe6 O3 1.895521 1_555
Fe6 O8 1.919052 1_555
Fe6 O4 2.029641 1_555
Fe7 O8 1.945254 1_555
Fe7 O3 1.961294 1_555
Fe7 O7 1.988411 1_555
Fe8 O4 1.912453 1_555
Fe8 O5 1.943576 1_555
Fe8 O1 1.946458 1_555
Fe9 O2 1.905495 1_554
Fe9 O6 1.926035 1_555
Fe9 O5 1.985152 1_555
F0 Fe1 2.000920 1_565
F0 Fe7 2.117275 1_555
F0 Fe2 2.172498 1_565
F1 Fe3 1.984276 1_455
F1 Fe6 2.125309 1_555
F1 Fe2 2.197952 1_565
F2 Fe4 2.016019 1_455
F2 Fe0 2.097966 1_554
F2 Fe9 2.228841 1_555
F3 Fe1 2.096396 1_665
F3 Fe7 2.163330 1_555
F3 Fe5 2.178158 1_555
F4 Fe3 2.094489 1_445
F4 Fe8 2.109211 1_555
F4 Fe6 2.214490 1_555
F5 Fe4 2.085946 1_445
F5 Fe8 2.141941 1_555
F5 Fe9 2.210196 1_555
F6 Fe0 2.041436 1_645
F6 Fe1 2.073658 1_655
F6 Fe5 2.338197 1_555
F7 Fe3 2.019924 1_545
F7 Fe6 2.101165 1_555
F7 Fe2 2.208126 1_655
F8 Fe1 2.046498 1_655
F8 Fe7 2.087416 1_555
F8 Fe2 2.171274 1_655
F9 Fe4 2.074470 1_545
F9 Fe9 2.092757 1_555
F9 Fe0 2.179272 1_644
F10 Fe4 2.046785 1_545
F10 Fe3 2.084106 1_545
F10 Fe8 2.371195 1_555
