# generated using pymatgen
data_Co6OF11
_symmetry_space_group_name_H-M   'P 1'
_cell_length_a   5.70792483
_cell_length_b   5.70792483
_cell_length_c   7.40956522
_cell_angle_alpha   73.32992239
_cell_angle_beta   73.32992239
_cell_angle_gamma   72.99603528
_symmetry_Int_Tables_number   1
_chemical_formula_structural   Co6OF11
_chemical_formula_sum   'Co6 O1 F11'
_cell_volume   215.65481017
_cell_formula_units_Z   1
loop_
 _symmetry_equiv_pos_site_id
 _symmetry_equiv_pos_as_xyz
  1  'x, y, z'
loop_
 _atom_site_type_symbol
 _atom_site_label
 _atom_site_symmetry_multiplicity
 _atom_site_fract_x
 _atom_site_fract_y
 _atom_site_fract_z
 _atom_site_occupancy
  Co  Co0  1  0.33291700  0.33291700  0.16562200  1
  Co  Co1  1  0.34841000  0.34841000  0.66928700  1
  Co  Co2  1  0.66429100  0.66429100  0.34281000  1
  Co  Co3  1  0.65934300  0.65934300  0.82145600  1
  Co  Co4  1  0.00202300  0.00202300  0.50150100  1
  Co  Co5  1  0.99738600  0.99738600  0.99698600  1
  O  O0  1  0.55857100  0.55857100  0.63797000  1
  F  F0  1  0.64012800  0.02672400  0.66996100  1
  F  F1  1  0.96862600  0.36251200  0.33088000  1
  F  F2  1  0.42869400  0.42869400  0.37207900  1
  F  F3  1  0.11450400  0.11450400  0.69713400  1
  F  F4  1  0.76206600  0.76206600  0.03430700  1
  F  F5  1  0.23448300  0.23448300  0.96014700  1
  F  F6  1  0.89809000  0.89809000  0.29712400  1
  F  F7  1  0.02672400  0.64012800  0.66996100  1
  F  F8  1  0.36251200  0.96862600  0.33088000  1
  F  F9  1  0.69939700  0.30183400  0.00094800  1
  F  F10  1  0.30183400  0.69939700  0.00094800  1
loop_
_geom_bond_atom_site_label_1
_geom_bond_atom_site_label_2
_geom_bond_distance
_geom_bond_site_symmetry_2
Co0 F2 2.017993 1_555
Co0 F5 2.028663 1_554
Co0 F8 2.074621 1_545
Co0 F1 2.074621 1_455
Co0 F9 2.082990 1_555
Co0 F10 2.082990 1_555
Co1 O0 1.858516 1_555
Co1 F5 2.032150 1_555
Co1 F2 2.057783 1_555
Co1 F3 2.081855 1_555
Co1 F0 2.086958 1_555
Co1 F7 2.086958 1_555
Co2 F6 2.049309 1_555
Co2 O0 2.051816 1_555
Co2 F8 2.059536 1_555
Co2 F1 2.059536 1_555
Co2 F2 2.094492 1_555
Co2 F4 2.136936 1_555
Co3 O0 1.897606 1_555
Co3 F7 2.062776 1_655
Co3 F0 2.062776 1_565
Co3 F10 2.080810 1_556
Co3 F9 2.080810 1_556
Co3 F4 2.106436 1_556
Co4 F6 2.057615 1_445
Co4 F3 2.057813 1_555
Co4 F8 2.070006 1_545
Co4 F1 2.070006 1_455
Co4 F7 2.072741 1_545
Co4 F0 2.072741 1_455
Co5 F10 2.045878 1_656
Co5 F9 2.045878 1_566
Co5 F4 2.076967 1_556
Co5 F6 2.080807 1_556
Co5 F5 2.094004 1_665
Co5 F3 2.094563 1_665
