# generated using pymatgen
data_CaPO4
_symmetry_space_group_name_H-M   'P 1'
_cell_length_a   6.76722400
_cell_length_b   6.97588609
_cell_length_c   7.02598423
_cell_angle_alpha   99.69630229
_cell_angle_beta   99.94890120
_cell_angle_gamma   90.15057653
_symmetry_Int_Tables_number   1
_chemical_formula_structural   CaPO4
_chemical_formula_sum   'Ca4 P4 O16'
_cell_volume   321.85165556
_cell_formula_units_Z   4
loop_
 _symmetry_equiv_pos_site_id
 _symmetry_equiv_pos_as_xyz
  1  'x, y, z'
loop_
 _atom_site_type_symbol
 _atom_site_label
 _atom_site_symmetry_multiplicity
 _atom_site_fract_x
 _atom_site_fract_y
 _atom_site_fract_z
 _atom_site_occupancy
  Ca  Ca0  1  0.42534400  0.31253400  0.25981700  1
  Ca  Ca1  1  0.57465600  0.68746600  0.74018300  1
  Ca  Ca2  1  0.84791200  0.17758700  0.66165300  1
  Ca  Ca3  1  0.15208800  0.82241300  0.33834700  1
  P  P0  1  0.38769200  0.19683100  0.71653800  1
  P  P1  1  0.61230800  0.80316900  0.28346200  1
  P  P2  1  0.94491100  0.29865600  0.20945600  1
  P  P3  1  0.05508900  0.70134400  0.79054400  1
  O  O0  1  0.35064600  0.28761600  0.92219500  1
  O  O1  1  0.64935400  0.71238400  0.07780500  1
  O  O2  1  0.49167400  0.34389400  0.62007100  1
  O  O3  1  0.50832600  0.65610600  0.37992900  1
  O  O4  1  0.18157800  0.12631200  0.58713500  1
  O  O5  1  0.81842200  0.87368800  0.41286500  1
  O  O6  1  0.52899200  0.02297300  0.72794500  1
  O  O7  1  0.47100800  0.97702700  0.27205500  1
  O  O8  1  0.83611900  0.29245600  0.99770300  1
  O  O9  1  0.16388100  0.70754400  0.00229700  1
  O  O10  1  0.09119500  0.47663400  0.27434000  1
  O  O11  1  0.90880500  0.52336600  0.72566000  1
  O  O12  1  0.07991700  0.11748700  0.20693200  1
  O  O13  1  0.92008300  0.88251300  0.79306800  1
  O  O14  1  0.79047100  0.29525900  0.34568100  1
  O  O15  1  0.20952900  0.70474100  0.65431900  1
loop_
_geom_bond_atom_site_label_1
_geom_bond_atom_site_label_2
_geom_bond_distance
_geom_bond_site_symmetry_2
Ca0 O0 2.314959 1_554
Ca0 O7 2.375509 1_545
Ca0 O3 2.433032 1_555
Ca0 O14 2.448423 1_555
Ca0 O2 2.465032 1_555
Ca0 O10 2.547182 1_555
Ca0 O12 2.639415 1_555
Ca1 O1 2.314959 1_556
Ca1 O6 2.375509 1_565
Ca1 O2 2.433032 1_555
Ca1 O15 2.448423 1_555
Ca1 O3 2.465032 1_555
Ca1 O11 2.547182 1_555
Ca1 O13 2.639415 1_555
Ca2 O8 2.377249 1_555
Ca2 O11 2.399101 1_555
Ca2 O13 2.412000 1_545
Ca2 O4 2.418729 1_655
Ca2 O14 2.463886 1_555
Ca2 O5 2.493691 1_545
Ca2 O6 2.557816 1_555
Ca2 O2 2.669918 1_555
Ca3 O9 2.377249 1_555
Ca3 O10 2.399101 1_555
Ca3 O12 2.412000 1_565
Ca3 O5 2.418729 1_455
Ca3 O15 2.463886 1_555
Ca3 O4 2.493691 1_565
Ca3 O7 2.557816 1_555
Ca3 O3 2.669918 1_555
O0 P0 1.539331 1_555
O1 P1 1.539331 1_555
O2 P0 1.549908 1_555
O3 P1 1.549908 1_555
O4 P0 1.556173 1_555
O5 P1 1.556173 1_555
O6 P0 1.550494 1_555
O7 P1 1.550494 1_555
O8 P2 1.535265 1_556
O9 P3 1.535265 1_554
O10 P2 1.541493 1_455
O11 P3 1.541493 1_655
O12 P2 1.560882 1_455
O13 P3 1.560882 1_655
O14 P2 1.536907 1_555
O15 P3 1.536907 1_555
