# generated using pymatgen
data_As4S11(N6Cl7)2
_symmetry_space_group_name_H-M   'P 1'
_cell_length_a   16.72524900
_cell_length_b   16.72524900
_cell_length_c   16.37425700
_cell_angle_alpha   90.00000000
_cell_angle_beta   90.00000000
_cell_angle_gamma   90.00000000
_symmetry_Int_Tables_number   1
_chemical_formula_structural   As4S11(N6Cl7)2
_chemical_formula_sum   'As16 S44 N48 Cl56'
_cell_volume   4580.43565626
_cell_formula_units_Z   4
loop_
 _symmetry_equiv_pos_site_id
 _symmetry_equiv_pos_as_xyz
  1  'x, y, z'
loop_
 _atom_site_type_symbol
 _atom_site_label
 _atom_site_symmetry_multiplicity
 _atom_site_fract_x
 _atom_site_fract_y
 _atom_site_fract_z
 _atom_site_occupancy
  As  As0  1  0.51964400  0.62043900  0.10045100  1
  As  As1  1  0.01964400  0.87956100  0.39954900  1
  As  As2  1  0.48035600  0.37956100  0.10045100  1
  As  As3  1  0.98035600  0.12043900  0.39954900  1
  As  As4  1  0.62043900  0.48035600  0.89954900  1
  As  As5  1  0.87956100  0.98035600  0.60045100  1
  As  As6  1  0.37956100  0.51964400  0.89954900  1
  As  As7  1  0.12043900  0.01964400  0.60045100  1
  As  As8  1  0.39506600  0.78099100  0.91642400  1
  As  As9  1  0.89506600  0.71900900  0.58357600  1
  As  As10  1  0.60493400  0.21900900  0.91642400  1
  As  As11  1  0.10493400  0.28099100  0.58357600  1
  As  As12  1  0.78099100  0.60493400  0.08357600  1
  As  As13  1  0.71900900  0.10493400  0.41642400  1
  As  As14  1  0.21900900  0.39506600  0.08357600  1
  As  As15  1  0.28099100  0.89506600  0.41642400  1
  S  S0  1  0.50000000  0.50000000  0.59088200  1
  S  S1  1  0.00000000  0.00000000  0.90911800  1
  S  S2  1  0.50000000  0.50000000  0.40911800  1
  S  S3  1  0.00000000  0.00000000  0.09088200  1
  S  S4  1  0.19648700  0.55187900  0.65133200  1
  S  S5  1  0.69648700  0.94812100  0.84866800  1
  S  S6  1  0.80351300  0.44812100  0.65133200  1
  S  S7  1  0.30351300  0.05187900  0.84866800  1
  S  S8  1  0.55187900  0.80351300  0.34866800  1
  S  S9  1  0.94812100  0.30351300  0.15133200  1
  S  S10  1  0.44812100  0.19648700  0.34866800  1
  S  S11  1  0.05187900  0.69648700  0.15133200  1
  S  S12  1  0.19264500  0.72585000  0.62786100  1
  S  S13  1  0.69264500  0.77415000  0.87213900  1
  S  S14  1  0.80735500  0.27415000  0.62786100  1
  S  S15  1  0.30735500  0.22585000  0.87213900  1
  S  S16  1  0.72585000  0.80735500  0.37213900  1
  S  S17  1  0.77415000  0.30735500  0.12786100  1
  S  S18  1  0.27415000  0.19264500  0.37213900  1
  S  S19  1  0.22585000  0.69264500  0.12786100  1
  S  S20  1  0.11411900  0.80293000  0.76449100  1
  S  S21  1  0.61411900  0.69707000  0.73550900  1
  S  S22  1  0.88588100  0.19707000  0.76449100  1
  S  S23  1  0.38588100  0.30293000  0.73550900  1
  S  S24  1  0.80293000  0.88588100  0.23550900  1
  S  S25  1  0.69707000  0.38588100  0.26449100  1
  S  S26  1  0.19707000  0.11411900  0.23550900  1
  S  S27  1  0.30293000  0.61411900  0.26449100  1
  S  S28  1  0.04563700  0.69314300  0.89184300  1
  S  S29  1  0.54563700  0.80685700  0.60815700  1
  S  S30  1  0.95436300  0.30685700  0.89184300  1
  S  S31  1  0.45436300  0.19314300  0.60815700  1
  S  S32  1  0.69314300  0.95436300  0.10815700  1
  S  S33  1  0.80685700  0.45436300  0.39184300  1
  S  S34  1  0.30685700  0.04563700  0.10815700  1
  S  S35  1  0.19314300  0.54563700  0.39184300  1
  S  S36  1  0.10507700  0.53572200  0.81279200  1
  S  S37  1  0.60507700  0.96427800  0.68720800  1
  S  S38  1  0.89492300  0.46427800  0.81279200  1
  S  S39  1  0.39492300  0.03572200  0.68720800  1
  S  S40  1  0.53572200  0.89492300  0.18720800  1
  S  S41  1  0.96427800  0.39492300  0.31279200  1
  S  S42  1  0.46427800  0.10507700  0.18720800  1
  S  S43  1  0.03572200  0.60507700  0.31279200  1
  N  N0  1  0.21108400  0.63526000  0.60810100  1
  N  N1  1  0.71108400  0.86474000  0.89189900  1
  N  N2  1  0.78891600  0.36474000  0.60810100  1
  N  N3  1  0.28891600  0.13526000  0.89189900  1
  N  N4  1  0.63526000  0.78891600  0.39189900  1
  N  N5  1  0.86474000  0.28891600  0.10810100  1
  N  N6  1  0.36474000  0.21108400  0.39189900  1
  N  N7  1  0.13526000  0.71108400  0.10810100  1
  N  N8  1  0.14790200  0.73007200  0.71334100  1
  N  N9  1  0.64790200  0.76992800  0.78665900  1
  N  N10  1  0.85209800  0.26992800  0.71334100  1
  N  N11  1  0.35209800  0.23007200  0.78665900  1
  N  N12  1  0.73007200  0.85209800  0.28665900  1
  N  N13  1  0.76992800  0.35209800  0.21334100  1
  N  N14  1  0.26992800  0.14790200  0.28665900  1
  N  N15  1  0.23007200  0.64790200  0.21334100  1
  N  N16  1  0.07173100  0.77009600  0.84336600  1
  N  N17  1  0.57173100  0.72990400  0.65663400  1
  N  N18  1  0.92826900  0.22990400  0.84336600  1
  N  N19  1  0.42826900  0.27009600  0.65663400  1
  N  N20  1  0.77009600  0.92826900  0.15663400  1
  N  N21  1  0.72990400  0.42826900  0.34336600  1
  N  N22  1  0.22990400  0.07173100  0.15663400  1
  N  N23  1  0.27009600  0.57173100  0.34336600  1
  N  N24  1  0.06722800  0.60704800  0.86141100  1
  N  N25  1  0.56722800  0.89295200  0.63858900  1
  N  N26  1  0.93277200  0.39295200  0.86141100  1
  N  N27  1  0.43277200  0.10704800  0.63858900  1
  N  N28  1  0.60704800  0.93277200  0.13858900  1
  N  N29  1  0.89295200  0.43277200  0.36141100  1
  N  N30  1  0.39295200  0.06722800  0.13858900  1
  N  N31  1  0.10704800  0.56722800  0.36141100  1
  N  N32  1  0.14919500  0.55571700  0.73278500  1
  N  N33  1  0.64919500  0.94428300  0.76721500  1
  N  N34  1  0.85080500  0.44428300  0.73278500  1
  N  N35  1  0.35080500  0.05571700  0.76721500  1
  N  N36  1  0.55571700  0.85080500  0.26721500  1
  N  N37  1  0.94428300  0.35080500  0.23278500  1
  N  N38  1  0.44428300  0.14919500  0.26721500  1
  N  N39  1  0.05571700  0.64919500  0.23278500  1
  N  N40  1  0.44552900  0.56905000  0.58886200  1
  N  N41  1  0.94552900  0.93095000  0.91113800  1
  N  N42  1  0.55447100  0.43095000  0.58886200  1
  N  N43  1  0.05447100  0.06905000  0.91113800  1
  N  N44  1  0.56905000  0.55447100  0.41113800  1
  N  N45  1  0.93095000  0.05447100  0.08886200  1
  N  N46  1  0.43095000  0.44552900  0.41113800  1
  N  N47  1  0.06905000  0.94552900  0.08886200  1
  Cl  Cl0  1  0.42416600  0.72740500  0.10548300  1
  Cl  Cl1  1  0.92416600  0.77259500  0.39451700  1
  Cl  Cl2  1  0.57583400  0.27259500  0.10548300  1
  Cl  Cl3  1  0.07583400  0.22740500  0.39451700  1
  Cl  Cl4  1  0.72740500  0.57583400  0.89451700  1
  Cl  Cl5  1  0.77259500  0.07583400  0.60548300  1
  Cl  Cl6  1  0.27259500  0.42416600  0.89451700  1
  Cl  Cl7  1  0.22740500  0.92416600  0.60548300  1
  Cl  Cl8  1  0.62691500  0.70750200  0.08582900  1
  Cl  Cl9  1  0.12691500  0.79249800  0.41417100  1
  Cl  Cl10  1  0.37308500  0.29249800  0.08582900  1
  Cl  Cl11  1  0.87308500  0.20750200  0.41417100  1
  Cl  Cl12  1  0.70750200  0.37308500  0.91417100  1
  Cl  Cl13  1  0.79249800  0.87308500  0.58582900  1
  Cl  Cl14  1  0.29249800  0.62691500  0.91417100  1
  Cl  Cl15  1  0.20750200  0.12691500  0.58582900  1
  Cl  Cl16  1  0.52981500  0.61274700  0.23791900  1
  Cl  Cl17  1  0.02981500  0.88725300  0.26208100  1
  Cl  Cl18  1  0.47018500  0.38725300  0.23791900  1
  Cl  Cl19  1  0.97018500  0.11274700  0.26208100  1
  Cl  Cl20  1  0.61274700  0.47018500  0.76208100  1
  Cl  Cl21  1  0.88725300  0.97018500  0.73791900  1
  Cl  Cl22  1  0.38725300  0.52981500  0.76208100  1
  Cl  Cl23  1  0.11274700  0.02981500  0.73791900  1
  Cl  Cl24  1  0.38056200  0.79957800  0.78035800  1
  Cl  Cl25  1  0.88056200  0.70042200  0.71964200  1
  Cl  Cl26  1  0.61943800  0.20042200  0.78035800  1
  Cl  Cl27  1  0.11943800  0.29957800  0.71964200  1
  Cl  Cl28  1  0.79957800  0.61943800  0.21964200  1
  Cl  Cl29  1  0.70042200  0.11943800  0.28035800  1
  Cl  Cl30  1  0.20042200  0.38056200  0.21964200  1
  Cl  Cl31  1  0.29957800  0.88056200  0.28035800  1
  Cl  Cl32  1  0.47680900  0.88609200  0.93695100  1
  Cl  Cl33  1  0.97680900  0.61390800  0.56304900  1
  Cl  Cl34  1  0.52319100  0.11390800  0.93695100  1
  Cl  Cl35  1  0.02319100  0.38609200  0.56304900  1
  Cl  Cl36  1  0.88609200  0.52319100  0.06304900  1
  Cl  Cl37  1  0.61390800  0.02319100  0.43695100  1
  Cl  Cl38  1  0.11390800  0.47680900  0.06304900  1
  Cl  Cl39  1  0.38609200  0.97680900  0.43695100  1
  Cl  Cl40  1  0.28236800  0.84252700  0.95549000  1
  Cl  Cl41  1  0.78236800  0.65747300  0.54451000  1
  Cl  Cl42  1  0.71763200  0.15747300  0.95549000  1
  Cl  Cl43  1  0.21763200  0.34252700  0.54451000  1
  Cl  Cl44  1  0.84252700  0.71763200  0.04451000  1
  Cl  Cl45  1  0.65747300  0.21763200  0.45549000  1
  Cl  Cl46  1  0.15747300  0.28236800  0.04451000  1
  Cl  Cl47  1  0.34252700  0.78236800  0.45549000  1
  Cl  Cl48  1  0.61468000  0.49181100  0.08649300  1
  Cl  Cl49  1  0.11468000  0.00818900  0.41350700  1
  Cl  Cl50  1  0.38532000  0.50818900  0.08649300  1
  Cl  Cl51  1  0.88532000  0.99181100  0.41350700  1
  Cl  Cl52  1  0.49181100  0.38532000  0.91350700  1
  Cl  Cl53  1  0.00818900  0.88532000  0.58649300  1
  Cl  Cl54  1  0.50818900  0.61468000  0.91350700  1
  Cl  Cl55  1  0.99181100  0.11468000  0.58649300  1
loop_
_geom_bond_atom_site_label_1
_geom_bond_atom_site_label_2
_geom_bond_distance
_geom_bond_site_symmetry_2
As0 Cl16 2.261018 1_555
As0 Cl8 2.323062 1_555
As0 Cl0 2.399478 1_555
As0 Cl48 2.684584 1_555
As1 Cl17 2.261018 1_555
As1 Cl9 2.323062 1_555
As1 Cl1 2.399478 1_455
As1 Cl49 2.684584 1_565
As2 Cl18 2.261018 1_555
As2 Cl10 2.323062 1_555
As2 Cl2 2.399478 1_555
As2 Cl50 2.684584 1_555
As3 Cl19 2.261018 1_555
As3 Cl11 2.323062 1_555
As3 Cl3 2.399478 1_655
As3 Cl51 2.684584 1_545
As4 Cl20 2.261018 1_555
As4 Cl12 2.323062 1_555
As4 Cl4 2.399478 1_555
As4 Cl52 2.684584 1_555
As5 Cl21 2.261018 1_555
As5 Cl13 2.323062 1_555
As5 Cl5 2.399478 1_565
As5 Cl53 2.684584 1_655
As6 Cl22 2.261018 1_555
As6 Cl14 2.323062 1_555
As6 Cl6 2.399478 1_555
As6 Cl54 2.684584 1_555
As7 Cl23 2.261018 1_555
As7 Cl15 2.323062 1_555
As7 Cl7 2.399478 1_545
As7 Cl55 2.684584 1_455
As8 Cl40 2.240827 1_555
As8 Cl32 2.252140 1_555
As8 Cl24 2.262605 1_555
As9 Cl41 2.240827 1_555
As9 Cl33 2.252140 1_555
As9 Cl25 2.262605 1_555
As10 Cl42 2.240827 1_555
As10 Cl34 2.252140 1_555
As10 Cl26 2.262605 1_555
As11 Cl43 2.240827 1_555
As11 Cl35 2.252140 1_555
As11 Cl27 2.262605 1_555
As12 Cl44 2.240827 1_555
As12 Cl36 2.252140 1_555
As12 Cl28 2.262605 1_555
As13 Cl45 2.240827 1_555
As13 Cl37 2.252140 1_555
As13 Cl29 2.262605 1_555
As14 Cl46 2.240827 1_555
As14 Cl38 2.252140 1_555
As14 Cl30 2.262605 1_555
As15 Cl47 2.240827 1_555
As15 Cl39 2.252140 1_555
As15 Cl31 2.262605 1_555
N0 S12 1.579698 1_555
N0 S4 1.582881 1_555
N1 S13 1.579698 1_555
N1 S5 1.582881 1_555
N2 S14 1.579698 1_555
N2 S6 1.582881 1_555
N3 S15 1.579698 1_555
N3 S7 1.582881 1_555
N4 S16 1.579698 1_555
N4 S8 1.582881 1_555
N5 S17 1.579698 1_555
N5 S9 1.582881 1_555
N6 S18 1.579698 1_555
N6 S10 1.582881 1_555
N7 S19 1.579698 1_555
N7 S11 1.582881 1_555
N8 S20 1.582923 1_555
N8 S12 1.588734 1_555
N9 S21 1.582923 1_555
N9 S13 1.588734 1_555
N10 S22 1.582923 1_555
N10 S14 1.588734 1_555
N11 S23 1.582923 1_555
N11 S15 1.588734 1_555
N12 S24 1.582923 1_555
N12 S16 1.588734 1_555
N13 S25 1.582923 1_555
N13 S17 1.588734 1_555
N14 S26 1.582923 1_555
N14 S18 1.588734 1_555
N15 S27 1.582923 1_555
N15 S19 1.588734 1_555
N16 S20 1.572325 1_555
N16 S28 1.573870 1_555
N17 S21 1.572325 1_555
N17 S29 1.573870 1_555
N18 S22 1.572325 1_555
N18 S30 1.573870 1_555
N19 S23 1.572325 1_555
N19 S31 1.573870 1_555
N20 S24 1.572325 1_555
N20 S32 1.573870 1_555
N21 S25 1.572325 1_555
N21 S33 1.573870 1_555
N22 S26 1.572325 1_555
N22 S34 1.573870 1_555
N23 S27 1.572325 1_555
N23 S35 1.573870 1_555
N24 S28 1.565948 1_555
N24 S36 1.567681 1_555
N25 S29 1.565948 1_555
N25 S37 1.567681 1_555
N26 S30 1.565948 1_555
N26 S38 1.567681 1_555
N27 S31 1.565948 1_555
N27 S39 1.567681 1_555
N28 S32 1.565948 1_555
N28 S40 1.567681 1_555
N29 S33 1.565948 1_555
N29 S41 1.567681 1_555
N30 S34 1.565948 1_555
N30 S42 1.567681 1_555
N31 S35 1.565948 1_555
N31 S43 1.567681 1_555
N32 S36 1.540310 1_555
N32 S4 1.551965 1_555
N33 S37 1.540310 1_555
N33 S5 1.551965 1_555
N34 S38 1.540310 1_555
N34 S6 1.551965 1_555
N35 S39 1.540310 1_555
N35 S7 1.551965 1_555
N36 S40 1.540310 1_555
N36 S8 1.551965 1_555
N37 S41 1.540310 1_555
N37 S9 1.551965 1_555
N38 S42 1.540310 1_555
N38 S10 1.551965 1_555
N39 S43 1.540310 1_555
N39 S11 1.551965 1_555
N40 S0 1.471337 1_555
N41 S1 1.471337 1_665
N42 S0 1.471337 1_555
N43 S1 1.471337 1_555
N44 S2 1.471337 1_555
N45 S3 1.471337 1_655
N46 S2 1.471337 1_555
N47 S3 1.471337 1_565
