# generated using pymatgen
data_LiMn5O10
_symmetry_space_group_name_H-M   'P 1'
_cell_length_a   5.02582500
_cell_length_b   7.67437827
_cell_length_c   10.16950756
_cell_angle_alpha   74.40899649
_cell_angle_beta   81.97946003
_cell_angle_gamma   71.88313113
_symmetry_Int_Tables_number   1
_chemical_formula_structural   LiMn5O10
_chemical_formula_sum   'Li2 Mn10 O20'
_cell_volume   358.40486614
_cell_formula_units_Z   2
loop_
 _symmetry_equiv_pos_site_id
 _symmetry_equiv_pos_as_xyz
  1  'x, y, z'
loop_
 _atom_site_type_symbol
 _atom_site_label
 _atom_site_symmetry_multiplicity
 _atom_site_fract_x
 _atom_site_fract_y
 _atom_site_fract_z
 _atom_site_occupancy
  Li  Li0  1  0.69185600  0.45952500  0.75210400  1
  Li  Li1  1  0.30814400  0.54047500  0.24789600  1
  Mn  Mn0  1  0.89573800  0.68898600  0.50077500  1
  Mn  Mn1  1  0.99890400  0.99684900  0.75048600  1
  Mn  Mn2  1  0.88607300  0.68674600  0.00277700  1
  Mn  Mn3  1  0.30864400  0.89315600  0.99514900  1
  Mn  Mn4  1  0.00109600  0.00315100  0.24951400  1
  Mn  Mn5  1  0.31263000  0.89143500  0.49597200  1
  Mn  Mn6  1  0.68737000  0.10856500  0.50402800  1
  Mn  Mn7  1  0.69135600  0.10684400  0.00485100  1
  Mn  Mn8  1  0.11392700  0.31325400  0.99722300  1
  Mn  Mn9  1  0.10426200  0.31101400  0.49922500  1
  O  O0  1  0.96632700  0.87041400  0.60774500  1
  O  O1  1  0.88641500  0.53075600  0.89275000  1
  O  O2  1  0.64980500  0.93612400  0.89653600  1
  O  O3  1  0.96915300  0.86769300  0.11042500  1
  O  O4  1  0.91102900  0.53590600  0.38631400  1
  O  O5  1  0.65120600  0.94017900  0.39530400  1
  O  O6  1  0.79429300  0.22447800  0.62303500  1
  O  O7  1  0.55528400  0.67971900  0.59645300  1
  O  O8  1  0.80143200  0.22520600  0.11950300  1
  O  O9  1  0.54266400  0.68263300  0.09989500  1
  O  O10  1  0.45733600  0.31736700  0.90010500  1
  O  O11  1  0.19856800  0.77479400  0.88049700  1
  O  O12  1  0.44471600  0.32028100  0.40354700  1
  O  O13  1  0.20570700  0.77552200  0.37696500  1
  O  O14  1  0.34879400  0.05982100  0.60469600  1
  O  O15  1  0.08897100  0.46409400  0.61368600  1
  O  O16  1  0.03084700  0.13230700  0.88957500  1
  O  O17  1  0.35019500  0.06387600  0.10346400  1
  O  O18  1  0.11358500  0.46924400  0.10725000  1
  O  O19  1  0.03367300  0.12958600  0.39225500  1
loop_
_geom_bond_atom_site_label_1
_geom_bond_atom_site_label_2
_geom_bond_distance
_geom_bond_site_symmetry_2
Li0 O7 1.994062 1_555
Li0 O10 2.065621 1_555
Li0 O1 2.108014 1_555
Li0 O15 2.280139 1_655
Li0 O6 2.397562 1_555
Li1 O12 1.994062 1_555
Li1 O9 2.065621 1_555
Li1 O18 2.108014 1_555
Li1 O4 2.280139 1_455
Li1 O13 2.397562 1_555
Mn0 O4 1.842533 1_555
Mn0 O15 1.855769 1_655
Mn0 O7 1.858335 1_555
Mn0 O13 2.024802 1_655
Mn0 O5 2.039615 1_555
Mn0 O0 2.115878 1_555
Mn1 O11 1.937707 1_655
Mn1 O6 1.956202 1_565
Mn1 O0 1.999429 1_555
Mn1 O16 2.016117 1_665
Mn1 O2 2.216015 1_555
Mn1 O14 2.222564 1_665
Mn2 O1 1.844805 1_554
Mn2 O18 1.849639 1_655
Mn2 O9 1.869936 1_555
Mn2 O2 2.018226 1_554
Mn2 O11 2.032949 1_654
Mn2 O3 2.146266 1_555
Mn3 O9 1.836032 1_556
Mn3 O11 1.884793 1_555
Mn3 O2 1.936073 1_555
Mn3 O3 1.962069 1_456
Mn3 O17 1.995891 1_566
Mn3 O16 2.058129 1_565
Mn4 O8 1.937707 1_455
Mn4 O13 1.956202 1_545
Mn4 O19 1.999429 1_555
Mn4 O3 2.016117 1_445
Mn4 O17 2.216015 1_555
Mn4 O5 2.222564 1_445
Mn5 O7 1.842376 1_555
Mn5 O13 1.897962 1_555
Mn5 O5 1.946126 1_555
Mn5 O0 1.967545 1_455
Mn5 O14 1.973742 1_565
Mn5 O19 2.049703 1_565
Mn6 O12 1.842376 1_555
Mn6 O6 1.897962 1_555
Mn6 O14 1.946126 1_555
Mn6 O19 1.967545 1_655
Mn6 O5 1.973742 1_545
Mn6 O0 2.049703 1_545
Mn7 O10 1.836032 1_554
Mn7 O8 1.884793 1_555
Mn7 O17 1.936073 1_555
Mn7 O16 1.962069 1_654
Mn7 O2 1.995891 1_544
Mn7 O3 2.058129 1_545
Mn8 O18 1.844805 1_556
Mn8 O1 1.849639 1_455
Mn8 O10 1.869936 1_555
Mn8 O17 2.018226 1_556
Mn8 O8 2.032949 1_456
Mn8 O16 2.146266 1_555
Mn9 O15 1.842533 1_555
Mn9 O4 1.855769 1_455
Mn9 O12 1.858335 1_555
Mn9 O6 2.024802 1_455
Mn9 O14 2.039615 1_555
Mn9 O19 2.115878 1_555
