# generated using pymatgen
data_AlVP2C2N2O9
_symmetry_space_group_name_H-M   'P 1'
_cell_length_a   8.45612600
_cell_length_b   14.19563800
_cell_length_c   9.86899857
_cell_angle_alpha   90.00000000
_cell_angle_beta   122.22997187
_cell_angle_gamma   90.00000000
_symmetry_Int_Tables_number   1
_chemical_formula_structural   AlVP2C2N2O9
_chemical_formula_sum   'Al4 V4 P8 C8 N8 O36'
_cell_volume   1002.13403779
_cell_formula_units_Z   4
loop_
 _symmetry_equiv_pos_site_id
 _symmetry_equiv_pos_as_xyz
  1  'x, y, z'
loop_
 _atom_site_type_symbol
 _atom_site_label
 _atom_site_symmetry_multiplicity
 _atom_site_fract_x
 _atom_site_fract_y
 _atom_site_fract_z
 _atom_site_occupancy
  Al  Al0  1  0.71096100  0.01393800  0.92648000  1
  Al  Al1  1  0.71096100  0.48606200  0.42648000  1
  Al  Al2  1  0.28903900  0.98606200  0.07352000  1
  Al  Al3  1  0.28903900  0.51393800  0.57352000  1
  V  V0  1  0.93958200  0.36888800  0.10087500  1
  V  V1  1  0.93958200  0.13111200  0.60087500  1
  V  V2  1  0.06041800  0.63111200  0.89912500  1
  V  V3  1  0.06041800  0.86888800  0.39912500  1
  P  P0  1  0.00265800  0.15855200  0.95136400  1
  P  P1  1  0.00265800  0.34144800  0.45136400  1
  P  P2  1  0.99734200  0.84144800  0.04863600  1
  P  P3  1  0.99734200  0.65855200  0.54863600  1
  P  P4  1  0.27751600  0.52234000  0.24069900  1
  P  P5  1  0.27751600  0.97766000  0.74069900  1
  P  P6  1  0.72248400  0.47766000  0.75930100  1
  P  P7  1  0.72248400  0.02234000  0.25930100  1
  C  C0  1  0.51931200  0.29593400  0.98201900  1
  C  C1  1  0.51931200  0.20406600  0.48201900  1
  C  C2  1  0.48068800  0.70406600  0.01798100  1
  C  C3  1  0.48068800  0.79593400  0.51798100  1
  C  C4  1  0.34529800  0.32626600  0.93791500  1
  C  C5  1  0.34529800  0.17373400  0.43791500  1
  C  C6  1  0.65470200  0.67373400  0.06208500  1
  C  C7  1  0.65470200  0.82626600  0.56208500  1
  N  N0  1  0.67257800  0.28000900  0.01956200  1
  N  N1  1  0.67257800  0.21999100  0.51956200  1
  N  N2  1  0.32742200  0.71999100  0.98043800  1
  N  N3  1  0.32742200  0.78000900  0.48043800  1
  N  N4  1  0.19901100  0.35830400  0.89706800  1
  N  N5  1  0.19901100  0.14169600  0.39706800  1
  N  N6  1  0.80098900  0.64169600  0.10293200  1
  N  N7  1  0.80098900  0.85830400  0.60293200  1
  O  O0  1  0.02649200  0.24635000  0.04794200  1
  O  O1  1  0.02649200  0.25365000  0.54794200  1
  O  O2  1  0.97350800  0.75365000  0.95205800  1
  O  O3  1  0.97350800  0.74635000  0.45205800  1
  O  O4  1  0.16061300  0.43080200  0.15946500  1
  O  O5  1  0.16061300  0.06919800  0.65946500  1
  O  O6  1  0.83938700  0.56919800  0.84053500  1
  O  O7  1  0.83938700  0.93080200  0.34053500  1
  O  O8  1  0.81328200  0.39106000  0.86688400  1
  O  O9  1  0.81328200  0.10894000  0.36688400  1
  O  O10  1  0.18671800  0.60894000  0.13311600  1
  O  O11  1  0.18671800  0.89106000  0.63311600  1
  O  O12  1  0.81914800  0.45163200  0.11667600  1
  O  O13  1  0.81914800  0.04836800  0.61667600  1
  O  O14  1  0.18085200  0.54836800  0.88332400  1
  O  O15  1  0.18085200  0.95163200  0.38332400  1
  O  O16  1  0.01859800  0.31599500  0.30387200  1
  O  O17  1  0.01859800  0.18400500  0.80387200  1
  O  O18  1  0.98140200  0.68400500  0.69612800  1
  O  O19  1  0.98140200  0.81599500  0.19612800  1
  O  O20  1  0.81079900  0.11081200  0.88898500  1
  O  O21  1  0.81079900  0.38918800  0.38898500  1
  O  O22  1  0.18920100  0.88918800  0.11101500  1
  O  O23  1  0.18920100  0.61081200  0.61101500  1
  O  O24  1  0.16323900  0.08832200  0.05562500  1
  O  O25  1  0.16323900  0.41167800  0.55562500  1
  O  O26  1  0.83676100  0.91167800  0.94437500  1
  O  O27  1  0.83676100  0.58832200  0.44437500  1
  O  O28  1  0.28836800  0.53839300  0.39893700  1
  O  O29  1  0.28836800  0.96160700  0.89893700  1
  O  O30  1  0.71163200  0.46160700  0.60106300  1
  O  O31  1  0.71163200  0.03839300  0.10106300  1
  O  O32  1  0.47441500  0.50320700  0.27229000  1
  O  O33  1  0.47441500  0.99679300  0.77229000  1
  O  O34  1  0.52558500  0.49679300  0.72771000  1
  O  O35  1  0.52558500  0.00320700  0.22771000  1
loop_
_geom_bond_atom_site_label_1
_geom_bond_atom_site_label_2
_geom_bond_distance
_geom_bond_site_symmetry_2
Al0 O26 1.752058 1_545
Al0 O20 1.753293 1_555
Al0 O31 1.754625 1_556
Al0 O33 1.768962 1_545
Al1 O27 1.752058 1_555
Al1 O21 1.753293 1_555
Al1 O30 1.754625 1_555
Al1 O32 1.768962 1_555
Al2 O24 1.752058 1_565
Al2 O22 1.753293 1_555
Al2 O29 1.754625 1_554
Al2 O35 1.768962 1_565
Al3 O25 1.752058 1_555
Al3 O23 1.753293 1_555
Al3 O28 1.754625 1_555
Al3 O34 1.768962 1_555
C0 N0 1.164431 1_556
C1 N1 1.164431 1_555
C2 N2 1.164431 1_554
C3 N3 1.164431 1_555
C4 N4 1.169475 1_555
C5 N5 1.169475 1_555
C6 N6 1.169475 1_555
C7 N7 1.169475 1_555
N0 V0 2.324006 1_555
N1 V1 2.324006 1_555
N2 V2 2.324006 1_555
N3 V3 2.324006 1_555
O0 P0 1.515771 1_554
O0 V0 2.061162 1_455
O1 P1 1.515771 1_555
O1 V1 2.061162 1_455
O2 P2 1.515771 1_556
O2 V2 2.061162 1_655
O3 P3 1.515771 1_555
O3 V3 2.061162 1_655
O4 P4 1.569446 1_555
O4 V0 1.856737 1_455
O5 P5 1.569446 1_545
O5 V1 1.856737 1_455
O6 P6 1.569446 1_555
O6 V2 1.856737 1_655
O7 P7 1.569446 1_565
O7 V3 1.856737 1_655
O8 P6 1.535760 1_555
O8 V0 1.985376 1_556
O9 P7 1.535760 1_555
O9 V1 1.985376 1_555
O10 P4 1.535760 1_555
O10 V2 1.985376 1_554
O11 P5 1.535760 1_555
O11 V3 1.985376 1_555
O12 V0 1.615721 1_555
O13 V1 1.615721 1_555
O14 V2 1.615721 1_555
O15 V3 1.615721 1_555
O16 P1 1.573774 1_555
O16 V0 1.896299 1_455
O17 P0 1.573774 1_555
O17 V1 1.896299 1_455
O18 P3 1.573774 1_555
O18 V2 1.896299 1_655
O19 P2 1.573774 1_555
O19 V3 1.896299 1_655
O20 P0 1.550828 1_655
O21 P1 1.550828 1_655
O22 P2 1.550828 1_455
O23 P3 1.550828 1_455
O24 P0 1.551203 1_554
O25 P1 1.551203 1_555
O26 P2 1.551203 1_556
O27 P3 1.551203 1_555
O28 P4 1.531747 1_555
O29 P5 1.531747 1_555
O30 P6 1.531747 1_555
O31 P7 1.531747 1_555
O32 P4 1.545805 1_555
O33 P5 1.545805 1_555
O34 P6 1.545805 1_555
O35 P7 1.545805 1_555
