# generated using pymatgen
data_KLi2AlSi4(O5F)2
_symmetry_space_group_name_H-M   'P 1'
_cell_length_a   7.13637372
_cell_length_b   6.34963127
_cell_length_c   33.83214606
_cell_angle_alpha   97.56914647
_cell_angle_beta   94.05832166
_cell_angle_gamma   117.09693564
_symmetry_Int_Tables_number   1
_chemical_formula_structural   KLi2AlSi4(O5F)2
_chemical_formula_sum   'K5 Li10 Al5 Si20 O50 F10'
_cell_volume   1337.94763875
_cell_formula_units_Z   5
loop_
 _symmetry_equiv_pos_site_id
 _symmetry_equiv_pos_as_xyz
  1  'x, y, z'
loop_
 _atom_site_type_symbol
 _atom_site_label
 _atom_site_symmetry_multiplicity
 _atom_site_fract_x
 _atom_site_fract_y
 _atom_site_fract_z
 _atom_site_occupancy
  K  K0  1  0.45901777  0.31180336  0.78412264  1
  K  K1  1  0.50000000  0.50000000  0.60000000  1
  K  K2  1  0.54098223  0.68819664  0.41587736  1
  K  K3  1  0.65128415  0.66408995  0.19782494  1
  K  K4  1  0.34871585  0.33591005  0.00217506  1
  Li  Li0  1  0.41679651  0.68500416  0.85282066  1
  Li  Li1  1  0.04493526  0.12305307  0.90881932  1
  Li  Li2  1  0.96684387  0.12948079  0.62721037  1
  Li  Li3  1  0.20781436  0.30566245  0.47924638  1
  Li  Li4  1  0.03315613  0.87051921  0.57278963  1
  Li  Li5  1  0.95506474  0.87694693  0.29118068  1
  Li  Li6  1  0.18661302  0.72166810  0.17317635  1
  Li  Li7  1  0.79218564  0.69433755  0.72075362  1
  Li  Li8  1  0.58320349  0.31499584  0.34717934  1
  Li  Li9  1  0.81338698  0.27833190  0.02682365  1
  Al  Al0  1  0.26374561  0.53490647  0.71608272  1
  Al  Al1  1  0.36400793  0.86865762  0.26330785  1
  Al  Al2  1  0.00000000  0.00000000  0.10000000  1
  Al  Al3  1  0.63599207  0.13134238  0.93669215  1
  Al  Al4  1  0.73625439  0.46509353  0.48391728  1
  Si  Si0  1  0.98952741  0.56316430  0.43227781  1
  Si  Si1  1  0.05708424  0.58631865  0.32557157  1
  Si  Si2  1  0.21957635  0.91338048  0.38728228  1
  Si  Si3  1  0.09883958  0.71068992  0.02211815  1
  Si  Si4  1  0.51713917  0.17480972  0.11431344  1
  Si  Si5  1  0.75559819  0.68283736  0.92904203  1
  Si  Si6  1  0.23865795  0.80048286  0.93816498  1
  Si  Si7  1  0.96884516  0.58251144  0.63524485  1
  Si  Si8  1  0.27229376  0.00946103  0.67368065  1
  Si  Si9  1  0.43738701  0.89494671  0.56367672  1
  Si  Si10  1  0.72770624  0.99053897  0.52631935  1
  Si  Si11  1  0.76134205  0.19951714  0.26183502  1
  Si  Si12  1  0.24440181  0.31716264  0.27095797  1
  Si  Si13  1  0.48286083  0.82519028  0.08568656  1
  Si  Si14  1  0.90116042  0.28931008  0.17788185  1
  Si  Si15  1  0.78042365  0.08661952  0.81271772  1
  Si  Si16  1  0.94291576  0.41368135  0.87442843  1
  Si  Si17  1  0.56261299  0.10505329  0.63632328  1
  Si  Si18  1  0.01047259  0.43683570  0.76772219  1
  Si  Si19  1  0.03115484  0.41748856  0.56475515  1
  O  O0  1  0.47542901  0.08618794  0.41593597  1
  O  O1  1  0.36264098  0.73924180  0.13099031  1
  O  O2  1  0.13115132  0.66148983  0.85642666  1
  O  O3  1  0.24842704  0.67613850  0.36720753  1
  O  O4  1  0.77041709  0.96285849  0.94525955  1
  O  O5  1  0.09372281  0.89771720  0.63215874  1
  O  O6  1  0.16152423  0.38898128  0.21806449  1
  O  O7  1  0.14283672  0.50860954  0.91866126  1
  O  O8  1  0.61110190  0.79552096  0.81281911  1
  O  O9  1  0.17462500  0.51029184  0.44861322  1
  O  O10  1  0.28271667  0.64876621  0.04976207  1
  O  O11  1  0.17829420  0.73078732  0.68717029  1
  O  O12  1  0.95808307  0.15801269  0.85756521  1
  O  O13  1  0.57833269  0.88517068  0.60681056  1
  O  O14  1  0.30034024  0.64880738  0.21650902  1
  O  O15  1  0.17670938  0.60753274  0.81186674  1
  O  O16  1  0.18437496  0.70026577  0.54983256  1
  O  O17  1  0.24880925  0.23025876  0.69918717  1
  O  O18  1  0.25463833  0.84781679  0.98947904  1
  O  O19  1  0.14656760  0.48927843  0.61562089  1
  O  O20  1  0.24646907  0.62471227  0.29210197  1
  O  O21  1  0.06771498  0.84748506  0.42367594  1
  O  O22  1  0.30522368  0.94259817  0.14031607  1
  O  O23  1  0.97379256  0.16430746  0.27642858  1
  O  O24  1  0.06148343  0.90539639  0.05526373  1
  O  O25  1  0.02620744  0.83569254  0.92357142  1
  O  O26  1  0.93228502  0.15251494  0.77632406  1
  O  O27  1  0.75353093  0.37528773  0.90789803  1
  O  O28  1  0.75119075  0.76974124  0.50081283  1
  O  O29  1  0.81562504  0.29973423  0.65016744  1
  O  O30  1  0.82329062  0.39246726  0.38813326  1
  O  O31  1  0.69965976  0.35119262  0.98349098  1
  O  O32  1  0.04191693  0.84198731  0.34243479  1
  O  O33  1  0.82170580  0.26921268  0.51282971  1
  O  O34  1  0.71728333  0.35123379  0.15023793  1
  O  O35  1  0.82537500  0.48970816  0.75138678  1
  O  O36  1  0.38889810  0.20447904  0.38718089  1
  O  O37  1  0.93851657  0.09460361  0.14473627  1
  O  O38  1  0.85716328  0.49139046  0.28133874  1
  O  O39  1  0.83847577  0.61101872  0.98193551  1
  O  O40  1  0.90627719  0.10228280  0.56784126  1
  O  O41  1  0.22958291  0.03714151  0.25474045  1
  O  O42  1  0.69477632  0.05740183  0.05968393  1
  O  O43  1  0.75157296  0.32386150  0.83279247  1
  O  O44  1  0.86884868  0.33851017  0.34357334  1
  O  O45  1  0.63735902  0.26075820  0.06900969  1
  O  O46  1  0.85343240  0.51072157  0.58437911  1
  O  O47  1  0.74536167  0.15218321  0.21052096  1
  O  O48  1  0.52457099  0.91381206  0.78406403  1
  O  O49  1  0.42166731  0.11482932  0.59318944  1
  F  F0  1  0.50807265  0.51386841  0.93940293  1
  F  F1  1  0.52772346  0.68913543  0.71070512  1
  F  F2  1  0.65375579  0.66551697  0.88092138  1
  F  F3  1  0.20758670  0.34203694  0.53958729  1
  F  F4  1  0.79241330  0.65796306  0.66041271  1
  F  F5  1  0.34624421  0.33448303  0.31907862  1
  F  F6  1  0.47227654  0.31086457  0.48929488  1
  F  F7  1  0.33949638  0.28775554  0.11182039  1
  F  F8  1  0.49192735  0.48613159  0.26059707  1
  F  F9  1  0.66050362  0.71224446  0.08817961  1
loop_
_geom_bond_atom_site_label_1
_geom_bond_atom_site_label_2
_geom_bond_distance
_geom_bond_site_symmetry_2
K0 O43 2.531912 1_555
K0 O35 2.717908 1_555
K0 O8 2.753662 1_555
K0 O48 2.771439 1_545
K0 O17 3.010986 1_555
K1 O49 2.221445 1_555
K1 O13 2.221445 1_555
K1 O19 2.585978 1_555
K1 O46 2.585978 1_555
K2 O3 2.531912 1_555
K2 O9 2.717908 1_555
K2 O36 2.753662 1_555
K2 O0 2.771439 1_565
K2 O28 3.010986 1_555
K3 O14 2.588473 1_555
K3 O34 2.622450 1_555
K3 O47 2.820161 1_565
K4 O31 2.588473 1_554
K4 O10 2.622450 1_555
K4 O18 2.820161 1_544
Li0 O15 1.952932 1_555
Li0 O8 1.968777 1_555
Li0 O2 1.988786 1_555
Li1 O12 1.874818 1_455
Li1 O25 1.903534 1_545
Li1 O7 2.187814 1_555
Li1 O4 2.291153 1_445
Li2 O29 1.974006 1_555
Li2 O40 1.992182 1_555
Li2 O5 2.066604 1_645
Li2 O19 2.157748 1_655
Li2 O13 2.469572 1_545
Li3 O9 1.848998 1_555
Li4 O16 1.974006 1_555
Li4 O5 1.992182 1_555
Li4 O40 2.066604 1_465
Li4 O46 2.157748 1_455
Li4 O49 2.469572 1_565
Li5 O32 1.874818 1_655
Li5 O23 1.903534 1_565
Li5 O38 2.187814 1_555
Li5 O41 2.291153 1_665
Li6 O14 1.836932 1_555
Li6 O22 1.839203 1_555
Li6 O1 1.948218 1_555
Li7 O35 1.848998 1_555
Li8 O30 1.952932 1_555
Li8 O36 1.968777 1_555
Li8 O44 1.988786 1_555
Li9 O31 1.836932 1_554
Li9 O42 1.839203 1_555
Li9 O45 1.948218 1_555
Al0 F1 1.719245 1_555
Al0 O17 1.895322 1_555
Al0 O11 1.950050 1_555
Al1 O41 1.768063 1_565
Al1 O20 1.838867 1_555
Al1 O14 1.843937 1_555
Al2 O37 1.714264 1_455
Al2 O24 1.714264 1_545
Al2 F9 2.237369 1_445
Al2 F7 2.237369 1_555
Al3 O4 1.768063 1_545
Al3 O27 1.838867 1_555
Al3 O31 1.843937 1_555
Al4 F6 1.719245 1_555
Al4 O28 1.895322 1_555
Al4 O33 1.950050 1_555
O0 O36 1.556253 1_555
O0 Si2 1.766812 1_545
O1 Si13 1.833870 1_555
O2 Si16 1.758979 1_455
O3 Si2 1.675025 1_555
O3 Si1 1.726479 1_555
O4 Si5 1.742729 1_555
O5 Si8 1.661658 1_565
O5 Si7 1.803940 1_455
O6 Si14 2.011365 1_455
O6 Si12 2.017661 1_555
O7 Si6 1.672466 1_555
O7 Si16 1.820728 1_455
O8 Si15 1.686462 1_565
O9 Si0 1.585096 1_455
O10 Si13 1.646253 1_555
O10 Si3 1.773248 1_555
O11 Si8 1.721645 1_565
O11 Si7 2.029119 1_455
O12 Si16 1.702193 1_555
O12 Si15 1.771444 1_555
O13 Si17 1.658351 1_565
O13 Si9 1.737279 1_555
O14 O6 1.499113 1_555
O15 Si18 1.721650 1_555
O16 Si9 1.643789 1_555
O16 Si19 1.789641 1_555
O17 Si8 1.629145 1_555
O18 Si3 1.660976 1_556
O18 Si6 1.708962 1_555
O19 Si19 1.760208 1_555
O19 Si7 1.760527 1_455
O20 Si1 1.776918 1_555
O20 Si12 1.982350 1_555
O21 Si2 1.666465 1_555
O21 Si0 1.702637 1_455
O22 Si4 1.932274 1_565
O23 Si11 1.680568 1_555
O23 Si12 1.759569 1_655
O24 Si3 1.683561 1_555
O25 Si6 1.680568 1_555
O25 Si5 1.759569 1_455
O26 Si15 1.666465 1_555
O26 Si18 1.702637 1_655
O27 Si16 1.776918 1_555
O27 Si5 1.982350 1_555
O28 Si10 1.629145 1_555
O29 Si17 1.643789 1_555
O29 Si7 1.789641 1_555
O30 Si0 1.721650 1_555
O31 O39 1.499113 1_555
O32 Si1 1.702193 1_555
O32 Si2 1.771444 1_555
O33 Si10 1.721645 1_545
O33 Si19 2.029119 1_655
O34 Si4 1.646253 1_555
O34 Si14 1.773248 1_555
O35 Si18 1.585096 1_655
O36 Si2 1.686462 1_545
O37 Si14 1.683561 1_555
O38 Si11 1.672466 1_555
O38 Si1 1.820728 1_655
O39 Si3 2.011365 1_656
O39 Si5 2.017661 1_555
O40 Si10 1.661658 1_545
O40 Si19 1.803940 1_655
O41 Si12 1.742729 1_555
O42 Si13 1.932274 1_545
O43 Si15 1.675025 1_555
O43 Si16 1.726479 1_555
O44 Si1 1.758979 1_655
O45 Si4 1.833870 1_555
O46 Si7 1.760208 1_555
O46 Si19 1.760527 1_655
O47 Si14 1.660976 1_555
O47 Si11 1.708962 1_555
O48 O8 1.556253 1_555
O48 Si15 1.766812 1_565
O49 Si9 1.658351 1_545
O49 Si17 1.737279 1_555
F0 Si5 1.689517 1_555
F0 K4 2.623677 1_556
F1 Li7 1.878298 1_555
F2 Si5 1.703911 1_555
F2 Li0 1.942367 1_555
F3 Si19 1.770210 1_555
F3 Li3 2.024231 1_555
F3 K1 2.547077 1_555
F4 Si7 1.770210 1_555
F4 Li7 2.024231 1_555
F4 K1 2.547077 1_555
F5 Si12 1.703911 1_555
F5 Li8 1.942367 1_555
F6 Li3 1.878298 1_555
F7 Si4 1.719771 1_555
F8 Si12 1.689517 1_555
F8 K3 2.623677 1_555
F9 Si13 1.719771 1_555
