# generated using pymatgen
data_Cr4OF11
_symmetry_space_group_name_H-M   'P 1'
_cell_length_a   5.05681736
_cell_length_b   5.36117972
_cell_length_c   8.80062834
_cell_angle_alpha   74.05356005
_cell_angle_beta   90.47428214
_cell_angle_gamma   61.41682168
_symmetry_Int_Tables_number   1
_chemical_formula_structural   Cr4OF11
_chemical_formula_sum   'Cr4 O1 F11'
_cell_volume   198.67140756
_cell_formula_units_Z   1
loop_
 _symmetry_equiv_pos_site_id
 _symmetry_equiv_pos_as_xyz
  1  'x, y, z'
loop_
 _atom_site_type_symbol
 _atom_site_label
 _atom_site_symmetry_multiplicity
 _atom_site_fract_x
 _atom_site_fract_y
 _atom_site_fract_z
 _atom_site_occupancy
  Cr  Cr0  1  0.77204200  0.48622100  0.25587200  1
  Cr  Cr1  1  0.47987200  0.01387600  0.49190600  1
  Cr  Cr2  1  0.24525100  0.50291000  0.74959900  1
  Cr  Cr3  1  0.00290500  0.99747400  0.00181400  1
  O  O0  1  0.18690300  0.25002200  0.31308100  1
  F  F0  1  0.80767100  0.75611800  0.68040200  1
  F  F1  1  0.81471300  0.74972600  0.06707600  1
  F  F2  1  0.74497600  0.74955200  0.37618100  1
  F  F3  1  0.75542300  0.25075600  0.12623100  1
  F  F4  1  0.68584100  0.24998100  0.81392700  1
  F  F5  1  0.68487500  0.24852500  0.43703500  1
  F  F6  1  0.31304700  0.75098400  0.56353500  1
  F  F7  1  0.32419800  0.74424700  0.18730600  1
  F  F8  1  0.24652400  0.74914200  0.87553800  1
  F  F9  1  0.24992000  0.25060000  0.62484800  1
  F  F10  1  0.18583700  0.24986800  0.93564900  1
loop_
_geom_bond_atom_site_label_1
_geom_bond_atom_site_label_2
_geom_bond_distance
_geom_bond_site_symmetry_2
Cr0 O0 1.829843 1_655
Cr0 F2 1.942089 1_555
Cr0 F5 1.947534 1_555
Cr0 F3 1.947733 1_555
Cr0 F1 1.952128 1_555
Cr0 F7 1.981787 1_555
Cr1 O0 1.829287 1_555
Cr1 F6 1.937473 1_545
Cr1 F9 1.938546 1_555
Cr1 F5 1.952632 1_555
Cr1 F2 1.959692 1_545
Cr1 F0 1.977935 1_545
Cr2 F0 1.938854 1_455
Cr2 F8 1.945013 1_555
Cr2 F10 1.946588 1_555
Cr2 F4 1.946692 1_555
Cr2 F6 1.953619 1_555
Cr2 F9 1.954878 1_555
Cr3 F7 1.943045 1_555
Cr3 F4 1.945942 1_464
Cr3 F8 1.947155 1_554
Cr3 F1 1.949115 1_455
Cr3 F10 1.949218 1_564
Cr3 F3 1.955135 1_465
