# generated using pymatgen
data_Na5VO4
_symmetry_space_group_name_H-M   'P 1'
_cell_length_a   6.02926700
_cell_length_b   10.76935100
_cell_length_c   18.21928500
_cell_angle_alpha   90.00000000
_cell_angle_beta   90.00000000
_cell_angle_gamma   90.00000000
_symmetry_Int_Tables_number   1
_chemical_formula_structural   Na5VO4
_chemical_formula_sum   'Na40 V8 O32'
_cell_volume   1183.00172522
_cell_formula_units_Z   8
loop_
 _symmetry_equiv_pos_site_id
 _symmetry_equiv_pos_as_xyz
  1  'x, y, z'
loop_
 _atom_site_type_symbol
 _atom_site_label
 _atom_site_symmetry_multiplicity
 _atom_site_fract_x
 _atom_site_fract_y
 _atom_site_fract_z
 _atom_site_occupancy
  Na  Na0  1  0.91130400  0.93722600  0.43610000  1
  Na  Na1  1  0.58869600  0.93722600  0.93610000  1
  Na  Na2  1  0.40047500  0.92483500  0.75250900  1
  Na  Na3  1  0.09952500  0.92483500  0.25250900  1
  Na  Na4  1  0.09171600  0.83217100  0.00314300  1
  Na  Na5  1  0.40828400  0.83217100  0.50314300  1
  Na  Na6  1  0.89209200  0.82286500  0.82726100  1
  Na  Na7  1  0.60790800  0.82286500  0.32726100  1
  Na  Na8  1  0.41959900  0.80430100  0.14134000  1
  Na  Na9  1  0.08040100  0.80430100  0.64134000  1
  Na  Na10  1  0.91959900  0.69569900  0.14134000  1
  Na  Na11  1  0.58040100  0.69569900  0.64134000  1
  Na  Na12  1  0.39209200  0.67713500  0.82726100  1
  Na  Na13  1  0.10790800  0.67713500  0.32726100  1
  Na  Na14  1  0.59171600  0.66782900  0.00314300  1
  Na  Na15  1  0.90828400  0.66782900  0.50314300  1
  Na  Na16  1  0.59952500  0.57516500  0.25250900  1
  Na  Na17  1  0.90047500  0.57516500  0.75250900  1
  Na  Na18  1  0.08869600  0.56277400  0.93610000  1
  Na  Na19  1  0.41130400  0.56277400  0.43610000  1
  Na  Na20  1  0.91130400  0.43722600  0.06390000  1
  Na  Na21  1  0.58869600  0.43722600  0.56390000  1
  Na  Na22  1  0.09952500  0.42483500  0.24749100  1
  Na  Na23  1  0.40047500  0.42483500  0.74749100  1
  Na  Na24  1  0.40828400  0.33217100  0.99685700  1
  Na  Na25  1  0.09171600  0.33217100  0.49685700  1
  Na  Na26  1  0.60790800  0.32286500  0.17273900  1
  Na  Na27  1  0.89209200  0.32286500  0.67273900  1
  Na  Na28  1  0.41959900  0.30430100  0.35866000  1
  Na  Na29  1  0.08040100  0.30430100  0.85866000  1
  Na  Na30  1  0.91959900  0.19569900  0.35866000  1
  Na  Na31  1  0.58040100  0.19569900  0.85866000  1
  Na  Na32  1  0.39209200  0.17713500  0.67273900  1
  Na  Na33  1  0.10790800  0.17713500  0.17273900  1
  Na  Na34  1  0.59171600  0.16782900  0.49685700  1
  Na  Na35  1  0.90828400  0.16782900  0.99685700  1
  Na  Na36  1  0.90047500  0.07516500  0.74749100  1
  Na  Na37  1  0.59952500  0.07516500  0.24749100  1
  Na  Na38  1  0.08869600  0.06277400  0.56390000  1
  Na  Na39  1  0.41130400  0.06277400  0.06390000  1
  V  V0  1  0.82729900  0.96008300  0.12231100  1
  V  V1  1  0.67270100  0.96008300  0.62231100  1
  V  V2  1  0.32729900  0.53991700  0.12231100  1
  V  V3  1  0.17270100  0.53991700  0.62231100  1
  V  V4  1  0.82729900  0.46008300  0.37768900  1
  V  V5  1  0.67270100  0.46008300  0.87768900  1
  V  V6  1  0.32729900  0.03991700  0.37768900  1
  V  V7  1  0.17270100  0.03991700  0.87768900  1
  O  O0  1  0.14465400  0.95207900  0.12026300  1
  O  O1  1  0.35534600  0.95207900  0.62026300  1
  O  O2  1  0.73405300  0.87576600  0.21236900  1
  O  O3  1  0.76594700  0.87576600  0.71236900  1
  O  O4  1  0.69244200  0.86361000  0.04537500  1
  O  O5  1  0.80755800  0.86361000  0.54537500  1
  O  O6  1  0.23765900  0.86531300  0.37465400  1
  O  O7  1  0.26234100  0.86531300  0.87465400  1
  O  O8  1  0.73765900  0.63468700  0.37465400  1
  O  O9  1  0.76234100  0.63468700  0.87465400  1
  O  O10  1  0.19244200  0.63639000  0.04537500  1
  O  O11  1  0.30755800  0.63639000  0.54537500  1
  O  O12  1  0.26594700  0.62423400  0.71236900  1
  O  O13  1  0.23405300  0.62423400  0.21236900  1
  O  O14  1  0.64465400  0.54792100  0.12026300  1
  O  O15  1  0.85534600  0.54792100  0.62026300  1
  O  O16  1  0.14465400  0.45207900  0.37973700  1
  O  O17  1  0.35534600  0.45207900  0.87973700  1
  O  O18  1  0.76594700  0.37576600  0.78763100  1
  O  O19  1  0.73405300  0.37576600  0.28763100  1
  O  O20  1  0.80755800  0.36361000  0.95462500  1
  O  O21  1  0.69244200  0.36361000  0.45462500  1
  O  O22  1  0.23765900  0.36531300  0.12534600  1
  O  O23  1  0.26234100  0.36531300  0.62534600  1
  O  O24  1  0.76234100  0.13468700  0.62534600  1
  O  O25  1  0.73765900  0.13468700  0.12534600  1
  O  O26  1  0.19244200  0.13639000  0.45462500  1
  O  O27  1  0.30755800  0.13639000  0.95462500  1
  O  O28  1  0.26594700  0.12423400  0.78763100  1
  O  O29  1  0.23405300  0.12423400  0.28763100  1
  O  O30  1  0.64465400  0.04792100  0.37973700  1
  O  O31  1  0.85534600  0.04792100  0.87973700  1
loop_
_geom_bond_atom_site_label_1
_geom_bond_atom_site_label_2
_geom_bond_distance
_geom_bond_site_symmetry_2
Na0 O5 2.232381 1_555
Na0 O30 2.249524 1_565
Na0 O6 2.392663 1_655
Na0 O26 2.754557 1_665
Na1 O4 2.232381 1_556
Na1 O31 2.249524 1_565
Na1 O7 2.392663 1_555
Na1 O27 2.754557 1_565
Na2 O3 2.381096 1_555
Na2 O28 2.382998 1_565
Na2 O1 2.442429 1_555
Na2 O7 2.461080 1_555
Na3 O2 2.381096 1_455
Na3 O29 2.382998 1_565
Na3 O0 2.442429 1_555
Na3 O6 2.461080 1_555
Na4 O10 2.325155 1_555
Na4 O0 2.514497 1_555
Na4 O4 2.549883 1_455
Na4 O7 2.581837 1_554
Na5 O11 2.325155 1_555
Na5 O1 2.514497 1_555
Na5 O5 2.549883 1_555
Na5 O6 2.581837 1_555
Na6 O3 2.298852 1_555
Na6 O9 2.337627 1_555
Na6 O7 2.436770 1_655
Na6 O31 2.614865 1_565
Na7 O2 2.298852 1_555
Na7 O8 2.337627 1_555
Na7 O6 2.436770 1_555
Na7 O30 2.614865 1_565
Na8 O0 2.329866 1_555
Na8 O2 2.421066 1_555
Na8 O4 2.484166 1_555
Na8 O13 2.585867 1_555
Na8 O10 2.864027 1_555
Na9 O1 2.329866 1_555
Na9 O3 2.421066 1_455
Na9 O5 2.484166 1_455
Na9 O12 2.585867 1_555
Na9 O11 2.864027 1_555
Na10 O14 2.329866 1_555
Na10 O13 2.421066 1_655
Na10 O10 2.484166 1_655
Na10 O2 2.585867 1_555
Na10 O4 2.864027 1_555
Na11 O15 2.329866 1_555
Na11 O12 2.421066 1_555
Na11 O11 2.484166 1_555
Na11 O3 2.585867 1_555
Na11 O5 2.864027 1_555
Na12 O12 2.298852 1_555
Na12 O7 2.337627 1_555
Na12 O9 2.436770 1_555
Na12 O17 2.614865 1_555
Na13 O13 2.298852 1_555
Na13 O6 2.337627 1_555
Na13 O8 2.436770 1_455
Na13 O16 2.614865 1_555
Na14 O4 2.325155 1_555
Na14 O14 2.514497 1_555
Na14 O10 2.549883 1_555
Na14 O9 2.581837 1_554
Na15 O5 2.325155 1_555
Na15 O15 2.514497 1_555
Na15 O11 2.549883 1_655
Na15 O8 2.581837 1_555
Na16 O13 2.381096 1_555
Na16 O19 2.382998 1_555
Na16 O14 2.442429 1_555
Na16 O8 2.461080 1_555
Na17 O12 2.381096 1_655
Na17 O18 2.382998 1_555
Na17 O15 2.442429 1_555
Na17 O9 2.461080 1_555
Na18 O10 2.232381 1_556
Na18 O17 2.249524 1_555
Na18 O9 2.392663 1_455
Na18 O20 2.754557 1_455
Na19 O11 2.232381 1_555
Na19 O16 2.249524 1_555
Na19 O8 2.392663 1_555
Na19 O21 2.754557 1_555
Na20 O20 2.232381 1_554
Na20 O14 2.249524 1_555
Na20 O22 2.392663 1_655
Na20 O10 2.754557 1_655
Na21 O21 2.232381 1_555
Na21 O15 2.249524 1_555
Na21 O23 2.392663 1_555
Na21 O11 2.754557 1_555
Na22 O19 2.381096 1_455
Na22 O13 2.382998 1_555
Na22 O16 2.442429 1_555
Na22 O22 2.461080 1_555
Na23 O18 2.381096 1_555
Na23 O12 2.382998 1_555
Na23 O17 2.442429 1_555
Na23 O23 2.461080 1_555
Na24 O27 2.325155 1_555
Na24 O17 2.514497 1_555
Na24 O20 2.549883 1_555
Na24 O22 2.581837 1_556
Na25 O26 2.325155 1_555
Na25 O16 2.514497 1_555
Na25 O21 2.549883 1_455
Na25 O23 2.581837 1_555
Na26 O19 2.298852 1_555
Na26 O25 2.337627 1_555
Na26 O22 2.436770 1_555
Na26 O14 2.614865 1_555
Na27 O18 2.298852 1_555
Na27 O24 2.337627 1_555
Na27 O23 2.436770 1_655
Na27 O15 2.614865 1_555
Na28 O16 2.329866 1_555
Na28 O19 2.421066 1_555
Na28 O21 2.484166 1_555
Na28 O29 2.585867 1_555
Na28 O26 2.864027 1_555
Na29 O17 2.329866 1_555
Na29 O18 2.421066 1_455
Na29 O20 2.484166 1_455
Na29 O28 2.585867 1_555
Na29 O27 2.864027 1_555
Na30 O30 2.329866 1_555
Na30 O29 2.421066 1_655
Na30 O26 2.484166 1_655
Na30 O19 2.585867 1_555
Na30 O21 2.864027 1_555
Na31 O31 2.329866 1_555
Na31 O28 2.421066 1_555
Na31 O27 2.484166 1_555
Na31 O18 2.585867 1_555
Na31 O20 2.864027 1_555
Na32 O28 2.298852 1_555
Na32 O23 2.337627 1_555
Na32 O24 2.436770 1_555
Na32 O1 2.614865 1_545
Na33 O29 2.298852 1_555
Na33 O22 2.337627 1_555
Na33 O25 2.436770 1_455
Na33 O0 2.614865 1_545
Na34 O21 2.325155 1_555
Na34 O30 2.514497 1_555
Na34 O26 2.549883 1_555
Na34 O24 2.581837 1_555
Na35 O20 2.325155 1_555
Na35 O31 2.514497 1_555
Na35 O27 2.549883 1_655
Na35 O25 2.581837 1_556
Na36 O28 2.381096 1_655
Na36 O3 2.382998 1_545
Na36 O31 2.442429 1_555
Na36 O24 2.461080 1_555
Na37 O29 2.381096 1_555
Na37 O2 2.382998 1_545
Na37 O30 2.442429 1_555
Na37 O25 2.461080 1_555
Na38 O26 2.232381 1_555
Na38 O1 2.249524 1_545
Na38 O24 2.392663 1_455
Na38 O5 2.754557 1_445
Na39 O27 2.232381 1_554
Na39 O0 2.249524 1_545
Na39 O25 2.392663 1_555
Na39 O4 2.754557 1_545
O0 V0 1.915722 1_455
O1 V1 1.915722 1_555
O2 V0 1.957756 1_555
O3 V1 1.957756 1_555
O4 V0 1.924929 1_555
O5 V1 1.924929 1_555
O6 V6 1.957283 1_565
O7 V7 1.957283 1_565
O8 V4 1.957283 1_555
O9 V5 1.957283 1_555
O10 V2 1.924929 1_555
O11 V3 1.924929 1_555
O12 V3 1.957756 1_555
O13 V2 1.957756 1_555
O14 V2 1.915722 1_555
O15 V3 1.915722 1_655
O16 V4 1.915722 1_455
O17 V5 1.915722 1_555
O18 V5 1.957756 1_555
O19 V4 1.957756 1_555
O20 V5 1.924929 1_555
O21 V4 1.924929 1_555
O22 V2 1.957283 1_555
O23 V3 1.957283 1_555
O24 V1 1.957283 1_545
O25 V0 1.957283 1_545
O26 V6 1.924929 1_555
O27 V7 1.924929 1_555
O28 V7 1.957756 1_555
O29 V6 1.957756 1_555
O30 V6 1.915722 1_555
O31 V7 1.915722 1_655
