# generated using pymatgen
data_LiVPO4
_symmetry_space_group_name_H-M   'P 1'
_cell_length_a   6.00315300
_cell_length_b   7.64705900
_cell_length_c   14.00893600
_cell_angle_alpha   90.00000000
_cell_angle_beta   90.00000000
_cell_angle_gamma   90.00000000
_symmetry_Int_Tables_number   1
_chemical_formula_structural   LiVPO4
_chemical_formula_sum   'Li8 V8 P8 O32'
_cell_volume   643.10073265
_cell_formula_units_Z   8
loop_
 _symmetry_equiv_pos_site_id
 _symmetry_equiv_pos_as_xyz
  1  'x, y, z'
loop_
 _atom_site_type_symbol
 _atom_site_label
 _atom_site_symmetry_multiplicity
 _atom_site_fract_x
 _atom_site_fract_y
 _atom_site_fract_z
 _atom_site_occupancy
  Li  Li0  1  0.15821200  0.19011500  0.22477000  1
  Li  Li1  1  0.65821200  0.19011500  0.27523000  1
  Li  Li2  1  0.65821200  0.30988500  0.77523000  1
  Li  Li3  1  0.15821200  0.30988500  0.72477000  1
  Li  Li4  1  0.34178800  0.69011500  0.22477000  1
  Li  Li5  1  0.84178800  0.69011500  0.27523000  1
  Li  Li6  1  0.34178800  0.80988500  0.72477000  1
  Li  Li7  1  0.84178800  0.80988500  0.77523000  1
  V  V0  1  0.39294300  0.18571900  0.53205300  1
  V  V1  1  0.89294300  0.18571900  0.96794700  1
  V  V2  1  0.39294300  0.31428100  0.03205300  1
  V  V3  1  0.89294300  0.31428100  0.46794700  1
  V  V4  1  0.10705700  0.68571900  0.53205300  1
  V  V5  1  0.60705700  0.68571900  0.96794700  1
  V  V6  1  0.10705700  0.81428100  0.03205300  1
  V  V7  1  0.60705700  0.81428100  0.46794700  1
  P  P0  1  0.89705300  0.05168200  0.63038100  1
  P  P1  1  0.39705300  0.05168200  0.86961900  1
  P  P2  1  0.89705300  0.44831800  0.13038100  1
  P  P3  1  0.39705300  0.44831800  0.36961900  1
  P  P4  1  0.60294700  0.55168200  0.63038100  1
  P  P5  1  0.10294700  0.55168200  0.86961900  1
  P  P6  1  0.60294700  0.94831800  0.13038100  1
  P  P7  1  0.10294700  0.94831800  0.36961900  1
  O  O0  1  0.79918000  0.95828600  0.05496900  1
  O  O1  1  0.29918000  0.95828600  0.44503100  1
  O  O2  1  0.32123900  0.10312000  0.77001100  1
  O  O3  1  0.82123900  0.10312000  0.72998900  1
  O  O4  1  0.48372300  0.12669500  0.13571500  1
  O  O5  1  0.98372300  0.12669500  0.36428500  1
  O  O6  1  0.06037600  0.19854900  0.59099100  1
  O  O7  1  0.56037600  0.19854900  0.90900900  1
  O  O8  1  0.06037600  0.30145100  0.09099100  1
  O  O9  1  0.56037600  0.30145100  0.40900900  1
  O  O10  1  0.48372300  0.37330500  0.63571500  1
  O  O11  1  0.98372300  0.37330500  0.86428500  1
  O  O12  1  0.82123900  0.39688000  0.22998900  1
  O  O13  1  0.32123900  0.39688000  0.27001100  1
  O  O14  1  0.79918000  0.54171400  0.55496900  1
  O  O15  1  0.29918000  0.54171400  0.94503100  1
  O  O16  1  0.20082000  0.45828600  0.44503100  1
  O  O17  1  0.70082000  0.45828600  0.05496900  1
  O  O18  1  0.67876100  0.60312000  0.72998900  1
  O  O19  1  0.17876100  0.60312000  0.77001100  1
  O  O20  1  0.01627700  0.62669500  0.13571500  1
  O  O21  1  0.51627700  0.62669500  0.36428500  1
  O  O22  1  0.43962400  0.69854900  0.59099100  1
  O  O23  1  0.93962400  0.69854900  0.90900900  1
  O  O24  1  0.43962400  0.80145100  0.09099100  1
  O  O25  1  0.93962400  0.80145100  0.40900900  1
  O  O26  1  0.01627700  0.87330500  0.63571500  1
  O  O27  1  0.51627700  0.87330500  0.86428500  1
  O  O28  1  0.67876100  0.89688000  0.22998900  1
  O  O29  1  0.17876100  0.89688000  0.27001100  1
  O  O30  1  0.70082000  0.04171400  0.55496900  1
  O  O31  1  0.20082000  0.04171400  0.94503100  1
loop_
_geom_bond_atom_site_label_1
_geom_bond_atom_site_label_2
_geom_bond_distance
_geom_bond_site_symmetry_2
Li0 O13 1.964561 1_555
Li0 O8 2.140578 1_555
Li0 O5 2.269874 1_455
Li0 O29 2.333492 1_545
Li0 O4 2.368565 1_555
Li0 O12 2.568558 1_455
Li1 O12 1.964561 1_555
Li1 O9 2.140578 1_555
Li1 O4 2.269874 1_555
Li1 O28 2.333492 1_545
Li1 O5 2.368565 1_555
Li1 O13 2.568558 1_555
Li2 O3 1.964561 1_555
Li2 O7 2.140578 1_555
Li2 O10 2.269874 1_555
Li2 O18 2.333492 1_555
Li2 O11 2.368565 1_555
Li2 O2 2.568558 1_555
Li3 O2 1.964561 1_555
Li3 O6 2.140578 1_555
Li3 O11 2.269874 1_455
Li3 O19 2.333492 1_555
Li3 O10 2.368565 1_555
Li3 O3 2.568558 1_455
Li4 O29 1.964561 1_555
Li4 O24 2.140578 1_555
Li4 O21 2.269874 1_555
Li4 O13 2.333492 1_555
Li4 O20 2.368565 1_555
Li4 O28 2.568558 1_555
Li5 O28 1.964561 1_555
Li5 O25 2.140578 1_555
Li5 O20 2.269874 1_655
Li5 O12 2.333492 1_555
Li5 O21 2.368565 1_555
Li5 O29 2.568558 1_655
Li6 O19 1.964561 1_555
Li6 O22 2.140578 1_555
Li6 O27 2.269874 1_555
Li6 O2 2.333492 1_565
Li6 O26 2.368565 1_555
Li6 O18 2.568558 1_555
Li7 O18 1.964561 1_555
Li7 O23 2.140578 1_555
Li7 O26 2.269874 1_655
Li7 O3 2.333492 1_565
Li7 O27 2.368565 1_555
Li7 O19 2.568558 1_655
O0 P6 1.584173 1_555
O0 V6 2.175247 1_655
O0 V1 2.197223 1_564
O0 V5 2.675972 1_554
O1 P7 1.584173 1_555
O1 V7 2.175247 1_555
O1 V0 2.197223 1_565
O1 V4 2.675972 1_555
O2 P1 1.519542 1_555
O3 P0 1.519542 1_555
O4 P6 1.542238 1_545
O4 V2 2.112722 1_555
O5 P7 1.542238 1_645
O5 V3 2.112722 1_555
O6 P0 1.589698 1_455
O6 V0 2.162673 1_555
O6 V3 2.182823 1_455
O7 P1 1.589698 1_555
O7 V1 2.162673 1_555
O7 V2 2.182823 1_556
O8 P2 1.589698 1_455
O8 V2 2.162673 1_555
O8 V1 2.182823 1_454
O9 P3 1.589698 1_555
O9 V3 2.162673 1_555
O9 V0 2.182823 1_555
O10 P4 1.542238 1_555
O10 V0 2.112722 1_555
O11 P5 1.542238 1_655
O11 V1 2.112722 1_555
O12 P2 1.519542 1_555
O13 P3 1.519542 1_555
O14 P4 1.584173 1_555
O14 V4 2.175247 1_655
O14 V3 2.197223 1_555
O14 V7 2.675972 1_555
O15 P5 1.584173 1_555
O15 V5 2.175247 1_555
O15 V2 2.197223 1_556
O15 V6 2.675972 1_556
O16 P3 1.584173 1_555
O16 V3 2.175247 1_455
O16 V4 2.197223 1_555
O16 V0 2.675972 1_555
O17 P2 1.584173 1_555
O17 V2 2.175247 1_555
O17 V5 2.197223 1_554
O17 V1 2.675972 1_554
O18 P4 1.519542 1_555
O19 P5 1.519542 1_555
O20 P2 1.542238 1_455
O20 V6 2.112722 1_555
O21 P3 1.542238 1_555
O21 V7 2.112722 1_555
O22 P4 1.589698 1_555
O22 V4 2.162673 1_555
O22 V7 2.182823 1_555
O23 P5 1.589698 1_655
O23 V5 2.162673 1_555
O23 V6 2.182823 1_656
O24 P6 1.589698 1_555
O24 V6 2.162673 1_555
O24 V5 2.182823 1_554
O25 P7 1.589698 1_655
O25 V7 2.162673 1_555
O25 V4 2.182823 1_655
O26 P0 1.542238 1_465
O26 V4 2.112722 1_555
O27 P1 1.542238 1_565
O27 V5 2.112722 1_555
O28 P6 1.519542 1_555
O29 P7 1.519542 1_555
O30 P0 1.584173 1_555
O30 V0 2.175247 1_555
O30 V7 2.197223 1_545
O30 V3 2.675972 1_555
O31 P1 1.584173 1_555
O31 V1 2.175247 1_455
O31 V6 2.197223 1_546
O31 V2 2.675972 1_556
