# generated using pymatgen
data_LiCoPO4
_symmetry_space_group_name_H-M   'P 1'
_cell_length_a   4.80570100
_cell_length_b   9.26354294
_cell_length_c   7.57396849
_cell_angle_alpha   74.60986536
_cell_angle_beta   89.99986813
_cell_angle_gamma   89.99991986
_symmetry_Int_Tables_number   1
_chemical_formula_structural   LiCoPO4
_chemical_formula_sum   'Li4 Co4 P4 O16'
_cell_volume   325.08577237
_cell_formula_units_Z   4
loop_
 _symmetry_equiv_pos_site_id
 _symmetry_equiv_pos_as_xyz
  1  'x, y, z'
loop_
 _atom_site_type_symbol
 _atom_site_label
 _atom_site_symmetry_multiplicity
 _atom_site_fract_x
 _atom_site_fract_y
 _atom_site_fract_z
 _atom_site_occupancy
  Li  Li0  1  0.90665800  0.00000200  0.50000300  1
  Li  Li1  1  0.40668100  0.50000000  0.49999600  1
  Li  Li2  1  0.96776900  0.00000300  0.99999200  1
  Li  Li3  1  0.46789000  0.49999700  0.00000200  1
  Co  Co0  1  0.46580900  0.83519700  0.80443100  1
  Co  Co1  1  0.46581200  0.16479700  0.19557800  1
  Co  Co2  1  0.96647700  0.33505400  0.80468100  1
  Co  Co3  1  0.96649000  0.66495200  0.19531300  1
  P  P0  1  0.01806100  0.33218300  0.23492900  1
  P  P1  1  0.51868300  0.83222500  0.23453500  1
  P  P2  1  0.51866100  0.16777700  0.76546800  1
  P  P3  1  0.01807100  0.66781300  0.76507200  1
  O  O0  1  0.61288100  0.32467800  0.64917000  1
  O  O1  1  0.11304500  0.82445100  0.64859100  1
  O  O2  1  0.11304400  0.17554900  0.35141100  1
  O  O3  1  0.61287600  0.67531800  0.35082400  1
  O  O4  1  0.11936400  0.45950900  0.31695500  1
  O  O5  1  0.61969700  0.95942900  0.31682400  1
  O  O6  1  0.61968300  0.04056700  0.68318700  1
  O  O7  1  0.11936200  0.54049000  0.68303200  1
  O  O8  1  0.17080600  0.34347200  0.04600200  1
  O  O9  1  0.67116300  0.84366900  0.04551600  1
  O  O10  1  0.67113000  0.15633300  0.95449000  1
  O  O11  1  0.17081900  0.65653100  0.95400200  1
  O  O12  1  0.70042000  0.34771500  0.20034500  1
  O  O13  1  0.20095600  0.84805700  0.19984400  1
  O  O14  1  0.20092700  0.15195100  0.80014700  1
  O  O15  1  0.70042200  0.65228100  0.79965900  1
loop_
_geom_bond_atom_site_label_1
_geom_bond_atom_site_label_2
_geom_bond_distance
_geom_bond_site_symmetry_2
Li0 O2 1.980755 1_655
Li0 O1 1.980772 1_645
Li0 O5 2.060262 1_545
Li0 O6 2.060303 1_555
Li1 O3 1.980420 1_555
Li1 O0 1.980463 1_555
Li1 O7 2.060351 1_555
Li1 O4 2.060380 1_555
Li2 O9 1.995725 1_546
Li2 O10 1.995814 1_555
Li2 O14 2.096893 1_655
Li2 O13 2.096989 1_646
Li3 O8 1.998499 1_555
Li3 O11 1.998510 1_554
Li3 O12 2.098822 1_555
Li3 O15 2.098835 1_554
Co0 O6 2.020430 1_565
Co0 O15 2.043570 1_555
Co0 O1 2.083129 1_555
Co0 O9 2.095307 1_556
Co0 O11 2.244355 1_555
Co1 O5 2.020437 1_545
Co1 O12 2.043566 1_555
Co1 O2 2.083120 1_555
Co1 O10 2.095221 1_554
Co1 O8 2.244466 1_555
Co2 O7 2.019828 1_655
Co2 O14 2.044155 1_655
Co2 O0 2.084269 1_555
Co2 O8 2.094434 1_656
Co2 O10 2.246303 1_555
Co3 O4 2.019851 1_655
Co3 O13 2.044210 1_655
Co3 O3 2.084317 1_555
Co3 O11 2.094371 1_654
Co3 O9 2.246193 1_555
O0 P2 1.553674 1_555
O1 P3 1.553266 1_555
O2 P0 1.553252 1_555
O3 P1 1.553658 1_555
O4 P0 1.550198 1_555
O5 P1 1.549984 1_555
O6 P2 1.550006 1_555
O7 P3 1.550217 1_555
O8 P0 1.586784 1_555
O9 P1 1.586563 1_555
O10 P2 1.586561 1_555
O11 P3 1.586825 1_555
O12 P0 1.549024 1_655
O13 P1 1.549684 1_555
O14 P2 1.549700 1_555
O15 P3 1.549064 1_655
