# generated using pymatgen
data_LiMnPO4
_symmetry_space_group_name_H-M   'P 1'
_cell_length_a   4.99642900
_cell_length_b   6.46249104
_cell_length_c   9.45310006
_cell_angle_alpha   89.98687882
_cell_angle_beta   90.00055405
_cell_angle_gamma   90.00043069
_symmetry_Int_Tables_number   1
_chemical_formula_structural   LiMnPO4
_chemical_formula_sum   'Li4 Mn4 P4 O16'
_cell_volume   305.23470991
_cell_formula_units_Z   4
loop_
 _symmetry_equiv_pos_site_id
 _symmetry_equiv_pos_as_xyz
  1  'x, y, z'
loop_
 _atom_site_type_symbol
 _atom_site_label
 _atom_site_symmetry_multiplicity
 _atom_site_fract_x
 _atom_site_fract_y
 _atom_site_fract_z
 _atom_site_occupancy
  Li  Li0  1  0.02313800  0.25005800  0.67024500  1
  Li  Li1  1  0.47659900  0.24998000  0.17019300  1
  Li  Li2  1  0.97676800  0.75003300  0.32980700  1
  Li  Li3  1  0.52324500  0.74995100  0.82979800  1
  Mn  Mn0  1  0.99988400  0.50011100  0.00004900  1
  Mn  Mn1  1  0.50003200  0.49977200  0.49975200  1
  Mn  Mn2  1  0.00011200  0.00007600  0.99988500  1
  Mn  Mn3  1  0.50020900  0.99998000  0.50012100  1
  P  P0  1  0.97942000  0.25000300  0.32072000  1
  P  P1  1  0.52056200  0.25005600  0.82073300  1
  P  P2  1  0.02064900  0.74993700  0.67926500  1
  P  P3  1  0.47935200  0.74998700  0.17928200  1
  O  O0  1  0.92686500  0.25005900  0.15537200  1
  O  O1  1  0.57319300  0.25010500  0.65538100  1
  O  O2  1  0.42684100  0.74993100  0.34464300  1
  O  O3  1  0.07317900  0.74988600  0.84463700  1
  O  O4  1  0.28485400  0.25003700  0.35890900  1
  O  O5  1  0.21512700  0.25007100  0.85890600  1
  O  O6  1  0.71520400  0.74991500  0.64110100  1
  O  O7  1  0.78479200  0.74993900  0.14110800  1
  O  O8  1  0.84886600  0.05145100  0.37942600  1
  O  O9  1  0.65108400  0.05146700  0.87941200  1
  O  O10  1  0.84889400  0.44846600  0.37942100  1
  O  O11  1  0.65113400  0.44848800  0.87945500  1
  O  O12  1  0.34872700  0.55156100  0.12058300  1
  O  O13  1  0.15130700  0.55154300  0.62055200  1
  O  O14  1  0.34880500  0.94856900  0.12061300  1
  O  O15  1  0.15115700  0.94856600  0.62063000  1
loop_
_geom_bond_atom_site_label_1
_geom_bond_atom_site_label_2
_geom_bond_distance
_geom_bond_site_symmetry_2
Li0 O5 2.025037 1_555
Li0 O15 2.103753 1_545
Li0 O13 2.103896 1_555
Li0 O1 2.252504 1_455
Li1 O4 2.024934 1_555
Li1 O14 2.102841 1_545
Li1 O12 2.103850 1_555
Li1 O0 2.254082 1_555
Li2 O7 2.025322 1_555
Li2 O8 2.103141 1_565
Li2 O10 2.103772 1_555
Li2 O2 2.253126 1_655
Li3 O6 2.025282 1_555
Li3 O11 2.103269 1_555
Li3 O9 2.103610 1_565
Li3 O3 2.253095 1_555
Mn0 O12 2.108767 1_655
Mn0 O11 2.108866 1_554
Mn0 O3 2.212893 1_654
Mn0 O0 2.213413 1_555
Mn0 O7 2.353874 1_555
Mn0 O5 2.355609 1_654
Mn1 O10 2.107685 1_555
Mn1 O13 2.109991 1_555
Mn1 O2 2.212719 1_555
Mn1 O1 2.213635 1_555
Mn1 O4 2.352479 1_555
Mn1 O6 2.356984 1_555
Mn2 O9 2.109082 1_455
Mn2 O14 2.109119 1_546
Mn2 O3 2.214129 1_545
Mn2 O0 2.214800 1_456
Mn2 O5 2.353581 1_555
Mn2 O7 2.356212 1_446
Mn3 O8 2.108779 1_565
Mn3 O15 2.109402 1_555
Mn3 O1 2.213820 1_565
Mn3 O2 2.215146 1_555
Mn3 O6 2.353850 1_555
Mn3 O4 2.355878 1_565
O0 P0 1.584952 1_555
O1 P1 1.585057 1_555
O2 P3 1.585042 1_555
O3 P2 1.585155 1_555
O4 P0 1.568194 1_455
O5 P1 1.568171 1_555
O6 P2 1.568193 1_655
O7 P3 1.568197 1_555
O8 P0 1.542593 1_555
O9 P1 1.542636 1_555
O10 P0 1.542258 1_555
O11 P1 1.542247 1_555
O12 P3 1.542248 1_555
O13 P2 1.542207 1_555
O14 P3 1.542617 1_555
O15 P2 1.542668 1_555
