# generated using pymatgen
data_Li3Fe8(BO3)8
_symmetry_space_group_name_H-M   'P 1'
_cell_length_a   5.23345600
_cell_length_b   9.16713887
_cell_length_c   11.33130209
_cell_angle_alpha   113.01604852
_cell_angle_beta   103.29840974
_cell_angle_gamma   89.41619681
_symmetry_Int_Tables_number   1
_chemical_formula_structural   Li3Fe8(BO3)8
_chemical_formula_sum   'Li3 Fe8 B8 O24'
_cell_volume   485.00256912
_cell_formula_units_Z   1
loop_
 _symmetry_equiv_pos_site_id
 _symmetry_equiv_pos_as_xyz
  1  'x, y, z'
loop_
 _atom_site_type_symbol
 _atom_site_label
 _atom_site_symmetry_multiplicity
 _atom_site_fract_x
 _atom_site_fract_y
 _atom_site_fract_z
 _atom_site_occupancy
  Li  Li0  1  0.29026400  0.27578100  0.91413400  1
  Li  Li1  1  0.48565100  0.50446000  0.65527200  1
  Li  Li2  1  0.97635200  0.00017900  0.64952700  1
  Fe  Fe0  1  0.02153100  0.34910200  0.37039100  1
  Fe  Fe1  1  0.25820300  0.93102700  0.88235200  1
  Fe  Fe2  1  0.46502400  0.15607000  0.62373500  1
  Fe  Fe3  1  0.24372100  0.56652700  0.13975400  1
  Fe  Fe4  1  0.77107400  0.44279000  0.88632400  1
  Fe  Fe5  1  0.52007000  0.85381300  0.37432800  1
  Fe  Fe6  1  0.97535400  0.64913800  0.62725800  1
  Fe  Fe7  1  0.73719100  0.06419700  0.12476500  1
  B  B0  1  0.03176900  0.69316400  0.38767300  1
  B  B1  1  0.25610500  0.59076300  0.86509200  1
  B  B2  1  0.47767500  0.81344200  0.62578600  1
  B  B3  1  0.23804500  0.89962400  0.13345900  1
  B  B4  1  0.52750800  0.18739800  0.37705400  1
  B  B5  1  0.76887900  0.11408400  0.87786800  1
  B  B6  1  0.97028900  0.31941800  0.63172400  1
  B  B7  1  0.72777400  0.38705200  0.12077000  1
  O  O0  1  0.01832000  0.09650600  0.85749600  1
  O  O1  1  0.11073000  0.69532200  0.82022300  1
  O  O2  1  0.14477700  0.49651200  0.91433500  1
  O  O3  1  0.09822700  0.19222100  0.63655000  1
  O  O4  1  0.07167300  0.42417400  0.58425500  1
  O  O5  1  0.23038700  0.83037800  0.65919000  1
  O  O6  1  0.26638100  0.68018600  0.34935000  1
  O  O7  1  0.50987600  0.57405200  0.85258200  1
  O  O8  1  0.61694600  0.22629400  0.84161500  1
  O  O9  1  0.46280000  0.07493300  0.42177100  1
  O  O10  1  0.37607700  0.31046200  0.38357500  1
  O  O11  1  0.65166400  0.02685700  0.92995800  1
  O  O12  1  0.36944400  0.98664100  0.08470500  1
  O  O13  1  0.61596800  0.68603700  0.63052400  1
  O  O14  1  0.57924700  0.92601300  0.59099200  1
  O  O15  1  0.38156100  0.79521200  0.18031200  1
  O  O16  1  0.46464300  0.38009500  0.10329500  1
  O  O17  1  0.73854300  0.35385900  0.67423300  1
  O  O18  1  0.75968200  0.17526300  0.33247100  1
  O  O19  1  0.96032800  0.57580000  0.43018100  1
  O  O20  1  0.87472000  0.81170500  0.38982700  1
  O  O21  1  0.85891200  0.48401000  0.07856400  1
  O  O22  1  0.88409100  0.29098000  0.17568300  1
  O  O23  1  0.97949500  0.91680100  0.13244400  1
loop_
_geom_bond_atom_site_label_1
_geom_bond_atom_site_label_2
_geom_bond_distance
_geom_bond_site_symmetry_2
Li0 O16 1.963846 1_556
Li0 O0 1.985191 1_555
Li0 O8 2.035447 1_555
Li0 O2 2.154059 1_555
Li1 O17 1.941060 1_555
Li1 O13 1.946948 1_555
Li1 O7 2.043932 1_555
Li1 O4 2.156484 1_555
Li2 O3 1.948380 1_655
Li2 O5 2.055874 1_645
Li2 O14 2.064762 1_545
Li2 O0 2.126021 1_655
Fe0 O10 1.868458 1_555
Fe0 O18 1.959667 1_455
Fe0 O19 1.966131 1_455
Fe0 O22 2.006861 1_455
Fe0 O4 2.195933 1_555
Fe1 O0 2.022183 1_565
Fe1 O12 2.081866 1_556
Fe1 O1 2.086764 1_555
Fe1 O11 2.111434 1_565
Fe1 O5 2.296915 1_555
Fe2 O3 1.973190 1_555
Fe2 O14 2.099333 1_545
Fe2 O9 2.108914 1_555
Fe2 O17 2.128094 1_555
Fe2 O8 2.237503 1_555
Fe3 O16 2.013862 1_555
Fe3 O21 2.021682 1_455
Fe3 O15 2.061878 1_555
Fe3 O6 2.162907 1_555
Fe3 O2 2.306681 1_554
Fe4 O7 1.883750 1_555
Fe4 O2 1.944244 1_655
Fe4 O8 1.975985 1_555
Fe4 O21 1.999606 1_556
Fe4 O17 2.179865 1_555
Fe5 O20 1.874354 1_555
Fe5 O9 1.922844 1_565
Fe5 O6 1.973353 1_555
Fe5 O15 1.999627 1_555
Fe5 O14 2.223768 1_555
Fe6 O13 1.913787 1_555
Fe6 O5 2.006414 1_655
Fe6 O1 2.007913 1_655
Fe6 O4 2.012592 1_655
Fe6 O19 2.047280 1_555
Fe7 O23 1.856776 1_545
Fe7 O12 1.946579 1_545
Fe7 O22 2.033841 1_555
Fe7 O11 2.036645 1_554
Fe7 O18 2.142654 1_555
B0 O20 1.351775 1_455
B0 O6 1.382827 1_555
B0 O19 1.423245 1_455
B1 O7 1.368537 1_555
B1 O2 1.390734 1_555
B1 O1 1.394394 1_555
B2 O13 1.380113 1_555
B2 O14 1.388773 1_555
B2 O5 1.420409 1_555
B3 O23 1.358583 1_455
B3 O12 1.394620 1_555
B3 O15 1.400506 1_555
B4 O10 1.360064 1_555
B4 O9 1.388853 1_555
B4 O18 1.407010 1_555
B5 O0 1.374294 1_655
B5 O11 1.381933 1_555
B5 O8 1.422181 1_555
B6 O3 1.352050 1_655
B6 O17 1.394523 1_555
B6 O4 1.427812 1_655
B7 O16 1.343915 1_555
B7 O21 1.409107 1_555
B7 O22 1.418357 1_555
