# generated using pymatgen
data_Ga2WO6
_symmetry_space_group_name_H-M   'P 1'
_cell_length_a   4.80289500
_cell_length_b   7.22948900
_cell_length_c   11.51840630
_cell_angle_alpha   86.09423513
_cell_angle_beta   90.00000000
_cell_angle_gamma   90.00000000
_symmetry_Int_Tables_number   1
_chemical_formula_structural   Ga2WO6
_chemical_formula_sum   'Ga8 W4 O24'
_cell_volume   399.01868677
_cell_formula_units_Z   4
loop_
 _symmetry_equiv_pos_site_id
 _symmetry_equiv_pos_as_xyz
  1  'x, y, z'
loop_
 _atom_site_type_symbol
 _atom_site_label
 _atom_site_symmetry_multiplicity
 _atom_site_fract_x
 _atom_site_fract_y
 _atom_site_fract_z
 _atom_site_occupancy
  Ga  Ga0  1  0.78970600  0.00000000  0.75000000  1
  Ga  Ga1  1  0.21029400  0.00000000  0.25000000  1
  Ga  Ga2  1  0.24193800  0.75710700  0.61832100  1
  Ga  Ga3  1  0.75806200  0.75710700  0.11832100  1
  Ga  Ga4  1  0.71216600  0.50000000  0.75000000  1
  Ga  Ga5  1  0.28783400  0.50000000  0.25000000  1
  Ga  Ga6  1  0.24193800  0.24289300  0.88167900  1
  Ga  Ga7  1  0.75806200  0.24289300  0.38167900  1
  W  W0  1  0.26644900  0.74374100  0.89586100  1
  W  W1  1  0.73355100  0.74374100  0.39586100  1
  W  W2  1  0.26644900  0.25625900  0.60413900  1
  W  W3  1  0.73355100  0.25625900  0.10413900  1
  O  O0  1  0.07184700  0.98711800  0.87065700  1
  O  O1  1  0.56377900  0.83254500  0.97275600  1
  O  O2  1  0.92815300  0.98711800  0.37065700  1
  O  O3  1  0.50793100  0.81235700  0.74049200  1
  O  O4  1  0.43622100  0.83254500  0.47275600  1
  O  O5  1  0.00372700  0.68340600  0.76219700  1
  O  O6  1  0.49206900  0.81235700  0.24049200  1
  O  O7  1  0.94387700  0.66977900  0.52107400  1
  O  O8  1  0.43670500  0.49717500  0.87339400  1
  O  O9  1  0.99627300  0.68340600  0.26219700  1
  O  O10  1  0.43670500  0.50282500  0.62660600  1
  O  O11  1  0.94387700  0.33022100  0.97892600  1
  O  O12  1  0.05612300  0.66977900  0.02107400  1
  O  O13  1  0.56329500  0.49717500  0.37339400  1
  O  O14  1  0.00372700  0.31659400  0.73780300  1
  O  O15  1  0.56329500  0.50282500  0.12660600  1
  O  O16  1  0.05612300  0.33022100  0.47892600  1
  O  O17  1  0.50793100  0.18764300  0.75950800  1
  O  O18  1  0.99627300  0.31659400  0.23780300  1
  O  O19  1  0.56377900  0.16745500  0.52724400  1
  O  O20  1  0.49206900  0.18764300  0.25950800  1
  O  O21  1  0.07184700  0.01288200  0.62934300  1
  O  O22  1  0.43622100  0.16745500  0.02724400  1
  O  O23  1  0.92815300  0.01288200  0.12934300  1
loop_
_geom_bond_atom_site_label_1
_geom_bond_atom_site_label_2
_geom_bond_distance
_geom_bond_site_symmetry_2
Ga0 O3 1.924582 1_545
Ga0 O17 1.924582 1_555
Ga0 O21 1.938762 1_655
Ga0 O0 1.938762 1_645
Ga1 O20 1.924582 1_555
Ga1 O6 1.924582 1_545
Ga1 O23 1.938762 1_455
Ga1 O2 1.938762 1_445
Ga2 O7 1.949095 1_455
Ga2 O3 1.961752 1_555
Ga2 O4 1.963371 1_555
Ga2 O21 2.033403 1_565
Ga2 O5 2.054011 1_555
Ga2 O10 2.059058 1_555
Ga3 O12 1.949095 1_655
Ga3 O6 1.961752 1_555
Ga3 O1 1.963371 1_554
Ga3 O23 2.033403 1_565
Ga3 O9 2.054011 1_555
Ga3 O15 2.059058 1_555
Ga4 O5 1.940142 1_655
Ga4 O14 1.940142 1_655
Ga4 O10 1.940855 1_555
Ga4 O8 1.940855 1_555
Ga4 O3 2.457619 1_555
Ga4 O17 2.457619 1_555
Ga5 O9 1.940142 1_455
Ga5 O18 1.940142 1_455
Ga5 O13 1.940855 1_555
Ga5 O15 1.940855 1_555
Ga5 O20 2.457619 1_555
Ga5 O6 2.457619 1_555
Ga6 O11 1.949095 1_455
Ga6 O17 1.961752 1_555
Ga6 O22 1.963371 1_556
Ga6 O0 2.033403 1_545
Ga6 O14 2.054011 1_555
Ga6 O8 2.059058 1_555
Ga7 O16 1.949095 1_655
Ga7 O20 1.961752 1_555
Ga7 O19 1.963371 1_555
Ga7 O2 2.033403 1_545
Ga7 O18 2.054011 1_555
Ga7 O13 2.059058 1_555
O0 W0 1.996016 1_555
O1 W0 1.820283 1_555
O2 W1 1.996016 1_555
O3 W0 2.161708 1_555
O4 W1 1.820283 1_555
O5 W0 2.060173 1_555
O6 W1 2.161708 1_555
O7 W1 1.811464 1_555
O8 W0 1.993979 1_555
O9 W1 2.060173 1_555
O10 W2 1.993979 1_555
O11 W3 1.811464 1_556
O12 W0 1.811464 1_554
O13 W1 1.993979 1_555
O14 W2 2.060173 1_555
O15 W3 1.993979 1_555
O16 W2 1.811464 1_555
O17 W2 2.161708 1_555
O18 W3 2.060173 1_555
O19 W2 1.820283 1_555
O20 W3 2.161708 1_555
O21 W2 1.996016 1_555
O22 W3 1.820283 1_555
O23 W3 1.996016 1_555
