# generated using pymatgen
data_RbLi2(H2N)3
_symmetry_space_group_name_H-M   'P 1'
_cell_length_a   5.37618500
_cell_length_b   6.98176256
_cell_length_c   7.00897345
_cell_angle_alpha   101.61352576
_cell_angle_beta   90.13073701
_cell_angle_gamma   90.17497910
_symmetry_Int_Tables_number   1
_chemical_formula_structural   RbLi2(H2N)3
_chemical_formula_sum   'Rb2 Li4 H12 N6'
_cell_volume   257.69531089
_cell_formula_units_Z   2
loop_
 _symmetry_equiv_pos_site_id
 _symmetry_equiv_pos_as_xyz
  1  'x, y, z'
loop_
 _atom_site_type_symbol
 _atom_site_label
 _atom_site_symmetry_multiplicity
 _atom_site_fract_x
 _atom_site_fract_y
 _atom_site_fract_z
 _atom_site_occupancy
  Rb  Rb0  1  0.24702200  0.20743500  0.77335000  1
  Rb  Rb1  1  0.74806600  0.78640400  0.21395100  1
  Li  Li0  1  0.50342800  0.64467700  0.64674300  1
  Li  Li1  1  0.00261600  0.64095500  0.64690700  1
  Li  Li2  1  0.50037100  0.35760700  0.36123200  1
  Li  Li3  1  0.99377300  0.35715900  0.35860000  1
  H  H0  1  0.25195300  0.56201000  0.25312300  1
  H  H1  1  0.74966400  0.24363100  0.57773900  1
  H  H2  1  0.74978200  0.43143800  0.74768800  1
  H  H3  1  0.24905700  0.75183100  0.42078000  1
  H  H4  1  0.24377400  0.81295700  0.95302000  1
  H  H5  1  0.74525100  0.94445100  0.81170000  1
  H  H6  1  0.75141500  0.18152300  0.04867300  1
  H  H7  1  0.26042500  0.08281600  0.18782700  1
  H  H8  1  0.25624300  0.59310500  0.98559300  1
  H  H9  1  0.76024000  0.98269100  0.59475200  1
  H  H10  1  0.73689000  0.40060600  0.01791500  1
  H  H11  1  0.24611000  0.00398200  0.38719000  1
  N  N0  1  0.24876800  0.60148700  0.40253600  1
  N  N1  1  0.74870300  0.39410400  0.59762500  1
  N  N2  1  0.25501900  0.67087100  0.87589800  1
  N  N3  1  0.75669100  0.87002300  0.66924100  1
  N  N4  1  0.74020800  0.32276500  0.12722000  1
  N  N5  1  0.24114000  0.13165500  0.33578600  1
loop_
_geom_bond_atom_site_label_1
_geom_bond_atom_site_label_2
_geom_bond_distance
_geom_bond_site_symmetry_2
Li0 N3 2.059162 1_555
Li0 N2 2.071158 1_555
Li0 N0 2.161956 1_555
Li0 N1 2.166001 1_555
Li1 N3 2.059945 1_455
Li1 N2 2.077099 1_555
Li1 N0 2.140889 1_555
Li1 N1 2.167224 1_455
Li2 N4 2.064674 1_555
Li2 N5 2.082051 1_555
Li2 N1 2.100104 1_555
Li2 N0 2.151774 1_555
Li3 N5 2.045815 1_655
Li3 N4 2.092166 1_555
Li3 N1 2.108865 1_555
Li3 N0 2.157865 1_655
H0 N0 1.028034 1_555
H0 Li2 2.199277 1_555
H1 N1 1.031613 1_555
H2 N1 1.031414 1_555
H2 Li1 2.212384 1_655
H2 Li0 2.214290 1_555
H3 N0 1.031553 1_555
H4 N2 1.031771 1_555
H5 N3 1.030712 1_555
H6 N4 1.030089 1_555
H7 N5 1.029955 1_555
H8 N2 1.026659 1_555
H8 Rb0 2.802132 1_555
H9 N3 1.028115 1_555
H9 Rb1 2.744457 1_555
H10 N4 1.024812 1_555
H10 Rb1 2.766819 1_555
H11 N5 1.026884 1_555
H11 Rb0 2.792011 1_555
