# generated using pymatgen
data_Ba2Ga6O11
_symmetry_space_group_name_H-M   'P 1'
_cell_length_a   5.16121100
_cell_length_b   8.93236300
_cell_length_c   23.22310100
_cell_angle_alpha   90.00000000
_cell_angle_beta   90.00000000
_cell_angle_gamma   90.00000000
_symmetry_Int_Tables_number   1
_chemical_formula_structural   Ba2Ga6O11
_chemical_formula_sum   'Ba8 Ga24 O44'
_cell_volume   1070.62699390
_cell_formula_units_Z   4
loop_
 _symmetry_equiv_pos_site_id
 _symmetry_equiv_pos_as_xyz
  1  'x, y, z'
loop_
 _atom_site_type_symbol
 _atom_site_label
 _atom_site_symmetry_multiplicity
 _atom_site_fract_x
 _atom_site_fract_y
 _atom_site_fract_z
 _atom_site_occupancy
  Ba  Ba0  1  0.39771100  0.00000000  0.14065100  1
  Ba  Ba1  1  0.47360600  0.50000000  0.15516900  1
  Ba  Ba2  1  0.97360600  0.00000000  0.34483100  1
  Ba  Ba3  1  0.89771100  0.50000000  0.35934900  1
  Ba  Ba4  1  0.10228900  0.50000000  0.64065100  1
  Ba  Ba5  1  0.02639400  0.00000000  0.65516900  1
  Ba  Ba6  1  0.52639400  0.50000000  0.84483100  1
  Ba  Ba7  1  0.60228900  0.00000000  0.85934900  1
  Ga  Ga0  1  0.00000000  0.00000000  0.00000000  1
  Ga  Ga1  1  0.50000000  0.83297300  0.00000000  1
  Ga  Ga2  1  0.50000000  0.50000000  0.00000000  1
  Ga  Ga3  1  0.50000000  0.16702700  0.00000000  1
  Ga  Ga4  1  0.99449600  0.67941300  0.07318400  1
  Ga  Ga5  1  0.99449600  0.32058700  0.07318400  1
  Ga  Ga6  1  0.88893300  0.20613300  0.21351400  1
  Ga  Ga7  1  0.88893300  0.79386700  0.21351400  1
  Ga  Ga8  1  0.38893300  0.70613300  0.28648600  1
  Ga  Ga9  1  0.38893300  0.29386700  0.28648600  1
  Ga  Ga10  1  0.49449600  0.82058700  0.42681600  1
  Ga  Ga11  1  0.49449600  0.17941300  0.42681600  1
  Ga  Ga12  1  0.00000000  0.00000000  0.50000000  1
  Ga  Ga13  1  0.00000000  0.66702700  0.50000000  1
  Ga  Ga14  1  0.00000000  0.33297300  0.50000000  1
  Ga  Ga15  1  0.50000000  0.50000000  0.50000000  1
  Ga  Ga16  1  0.50550400  0.17941300  0.57318400  1
  Ga  Ga17  1  0.50550400  0.82058700  0.57318400  1
  Ga  Ga18  1  0.61106700  0.70613300  0.71351400  1
  Ga  Ga19  1  0.61106700  0.29386700  0.71351400  1
  Ga  Ga20  1  0.11106700  0.79386700  0.78648600  1
  Ga  Ga21  1  0.11106700  0.20613300  0.78648600  1
  Ga  Ga22  1  0.00550400  0.67941300  0.92681600  1
  Ga  Ga23  1  0.00550400  0.32058700  0.92681600  1
  O  O0  1  0.67373000  0.00000000  0.04395900  1
  O  O1  1  0.17966000  0.84353400  0.04922100  1
  O  O2  1  0.17966000  0.15646600  0.04922100  1
  O  O3  1  0.65023400  0.66345100  0.04837100  1
  O  O4  1  0.65023400  0.33654900  0.04837100  1
  O  O5  1  0.17951800  0.50000000  0.05620700  1
  O  O6  1  0.00754500  0.32349600  0.15366600  1
  O  O7  1  0.00754500  0.67650400  0.15366600  1
  O  O8  1  0.95034100  0.00000000  0.20234200  1
  O  O9  1  0.52919500  0.23582500  0.21574700  1
  O  O10  1  0.52919500  0.76417500  0.21574700  1
  O  O11  1  0.02919500  0.73582500  0.28425300  1
  O  O12  1  0.02919500  0.26417500  0.28425300  1
  O  O13  1  0.45034100  0.50000000  0.29765800  1
  O  O14  1  0.50754500  0.82349600  0.34633400  1
  O  O15  1  0.50754500  0.17650400  0.34633400  1
  O  O16  1  0.67951800  0.00000000  0.44379300  1
  O  O17  1  0.15023400  0.83654900  0.45162900  1
  O  O18  1  0.15023400  0.16345100  0.45162900  1
  O  O19  1  0.67966000  0.34353400  0.45077900  1
  O  O20  1  0.67966000  0.65646600  0.45077900  1
  O  O21  1  0.17373000  0.50000000  0.45604100  1
  O  O22  1  0.82627000  0.50000000  0.54395900  1
  O  O23  1  0.32034000  0.65646600  0.54922100  1
  O  O24  1  0.32034000  0.34353400  0.54922100  1
  O  O25  1  0.84976600  0.83654900  0.54837100  1
  O  O26  1  0.84976600  0.16345100  0.54837100  1
  O  O27  1  0.32048200  0.00000000  0.55620700  1
  O  O28  1  0.49245500  0.17650400  0.65366600  1
  O  O29  1  0.49245500  0.82349600  0.65366600  1
  O  O30  1  0.54965900  0.50000000  0.70234200  1
  O  O31  1  0.97080500  0.26417500  0.71574700  1
  O  O32  1  0.97080500  0.73582500  0.71574700  1
  O  O33  1  0.47080500  0.76417500  0.78425300  1
  O  O34  1  0.47080500  0.23582500  0.78425300  1
  O  O35  1  0.04965900  0.00000000  0.79765800  1
  O  O36  1  0.99245500  0.32349600  0.84633400  1
  O  O37  1  0.99245500  0.67650400  0.84633400  1
  O  O38  1  0.82048200  0.50000000  0.94379300  1
  O  O39  1  0.34976600  0.66345100  0.95162900  1
  O  O40  1  0.34976600  0.33654900  0.95162900  1
  O  O41  1  0.82034000  0.84353400  0.95077900  1
  O  O42  1  0.82034000  0.15646600  0.95077900  1
  O  O43  1  0.32627000  0.00000000  0.95604100  1
loop_
_geom_bond_atom_site_label_1
_geom_bond_atom_site_label_2
_geom_bond_distance
_geom_bond_site_symmetry_2
Ba0 O0 2.659263 1_555
Ba0 O8 2.717324 1_455
Ba0 O2 2.779966 1_555
Ba0 O1 2.779966 1_545
Ba0 O9 2.817651 1_555
Ba0 O10 2.817651 1_545
Ba0 O8 3.191830 1_555
Ba1 O5 2.754199 1_555
Ba1 O10 2.762181 1_555
Ba1 O9 2.762181 1_555
Ba1 O6 2.876285 1_555
Ba1 O7 2.876285 1_555
Ba1 O3 3.018932 1_555
Ba1 O4 3.018932 1_555
Ba1 O6 3.175084 1_655
Ba1 O7 3.175084 1_655
Ba1 O13 3.311214 1_555
Ba2 O16 2.754199 1_555
Ba2 O12 2.762181 1_655
Ba2 O11 2.762181 1_645
Ba2 O14 2.876285 1_545
Ba2 O15 2.876285 1_555
Ba2 O18 3.018932 1_655
Ba2 O17 3.018932 1_645
Ba2 O15 3.175084 1_655
Ba2 O14 3.175084 1_645
Ba2 O8 3.311214 1_555
Ba3 O21 2.659263 1_655
Ba3 O13 2.717324 1_555
Ba3 O20 2.779966 1_555
Ba3 O19 2.779966 1_555
Ba3 O11 2.817651 1_655
Ba3 O12 2.817651 1_655
Ba3 O13 3.191830 1_655
Ba4 O22 2.659263 1_455
Ba4 O30 2.717324 1_555
Ba4 O24 2.779966 1_555
Ba4 O23 2.779966 1_555
Ba4 O32 2.817651 1_455
Ba4 O31 2.817651 1_455
Ba4 O30 3.191830 1_455
Ba5 O27 2.754199 1_555
Ba5 O31 2.762181 1_455
Ba5 O32 2.762181 1_445
Ba5 O28 2.876285 1_555
Ba5 O29 2.876285 1_545
Ba5 O26 3.018932 1_455
Ba5 O25 3.018932 1_445
Ba5 O29 3.175084 1_445
Ba5 O28 3.175084 1_455
Ba5 O35 3.311214 1_555
Ba6 O38 2.754199 1_555
Ba6 O33 2.762181 1_555
Ba6 O34 2.762181 1_555
Ba6 O36 2.876285 1_555
Ba6 O37 2.876285 1_555
Ba6 O39 3.018932 1_555
Ba6 O40 3.018932 1_555
Ba6 O36 3.175084 1_455
Ba6 O37 3.175084 1_455
Ba6 O30 3.311214 1_555
Ba7 O43 2.659263 1_555
Ba7 O35 2.717324 1_655
Ba7 O42 2.779966 1_555
Ba7 O41 2.779966 1_545
Ba7 O34 2.817651 1_555
Ba7 O33 2.817651 1_545
Ba7 O35 3.191830 1_555
Ga0 O0 1.969225 1_455
Ga0 O43 1.969225 1_554
Ga0 O1 2.029712 1_545
Ga0 O2 2.029712 1_555
Ga0 O42 2.029712 1_454
Ga0 O41 2.029712 1_444
Ga1 O1 2.012222 1_555
Ga1 O41 2.012222 1_554
Ga1 O0 2.017935 1_565
Ga1 O43 2.017935 1_564
Ga1 O3 2.038623 1_555
Ga1 O39 2.038623 1_554
Ga2 O3 1.998674 1_555
Ga2 O4 1.998674 1_555
Ga2 O39 1.998674 1_554
Ga2 O40 1.998674 1_554
Ga2 O38 2.107077 1_554
Ga2 O5 2.107077 1_555
Ga3 O2 2.012222 1_555
Ga3 O42 2.012222 1_554
Ga3 O0 2.017935 1_555
Ga3 O43 2.017935 1_554
Ga3 O4 2.038623 1_555
Ga3 O40 2.038623 1_554
Ga4 O1 1.836332 1_655
Ga4 O7 1.870435 1_655
Ga4 O3 1.873346 1_555
Ga4 O5 1.906729 1_655
Ga5 O2 1.836332 1_655
Ga5 O6 1.870435 1_655
Ga5 O4 1.873346 1_555
Ga5 O5 1.906729 1_655
Ga6 O6 1.845389 1_655
Ga6 O12 1.868576 1_655
Ga6 O9 1.876248 1_555
Ga6 O8 1.886262 1_555
Ga7 O7 1.845389 1_655
Ga7 O11 1.868576 1_655
Ga7 O10 1.876248 1_555
Ga7 O8 1.886262 1_565
Ga8 O14 1.845389 1_555
Ga8 O10 1.868576 1_555
Ga8 O11 1.876248 1_555
Ga8 O13 1.886262 1_555
Ga9 O15 1.845389 1_555
Ga9 O9 1.868576 1_555
Ga9 O12 1.876248 1_555
Ga9 O13 1.886262 1_555
Ga10 O20 1.836332 1_555
Ga10 O14 1.870435 1_555
Ga10 O17 1.873346 1_555
Ga10 O16 1.906729 1_565
Ga11 O19 1.836332 1_555
Ga11 O15 1.870435 1_555
Ga11 O18 1.873346 1_555
Ga11 O16 1.906729 1_555
Ga12 O26 1.998674 1_455
Ga12 O25 1.998674 1_445
Ga12 O18 1.998674 1_555
Ga12 O17 1.998674 1_545
Ga12 O27 2.107077 1_555
Ga12 O16 2.107077 1_455
Ga13 O23 2.012222 1_555
Ga13 O20 2.012222 1_455
Ga13 O22 2.017935 1_455
Ga13 O21 2.017935 1_555
Ga13 O25 2.038623 1_455
Ga13 O17 2.038623 1_555
Ga14 O24 2.012222 1_555
Ga14 O19 2.012222 1_455
Ga14 O22 2.017935 1_455
Ga14 O21 2.017935 1_555
Ga14 O26 2.038623 1_455
Ga14 O18 2.038623 1_555
Ga15 O22 1.969225 1_555
Ga15 O21 1.969225 1_555
Ga15 O24 2.029712 1_555
Ga15 O23 2.029712 1_555
Ga15 O20 2.029712 1_555
Ga15 O19 2.029712 1_555
Ga16 O24 1.836332 1_555
Ga16 O28 1.870435 1_555
Ga16 O26 1.873346 1_555
Ga16 O27 1.906729 1_555
Ga17 O23 1.836332 1_555
Ga17 O29 1.870435 1_555
Ga17 O25 1.873346 1_555
Ga17 O27 1.906729 1_565
Ga18 O29 1.845389 1_555
Ga18 O33 1.868576 1_555
Ga18 O32 1.876248 1_555
Ga18 O30 1.886262 1_555
Ga19 O28 1.845389 1_555
Ga19 O34 1.868576 1_555
Ga19 O31 1.876248 1_555
Ga19 O30 1.886262 1_555
Ga20 O37 1.845389 1_455
Ga20 O32 1.868576 1_455
Ga20 O33 1.876248 1_555
Ga20 O35 1.886262 1_565
Ga21 O36 1.845389 1_455
Ga21 O31 1.868576 1_455
Ga21 O34 1.876248 1_555
Ga21 O35 1.886262 1_555
Ga22 O41 1.836332 1_455
Ga22 O37 1.870435 1_455
Ga22 O39 1.873346 1_555
Ga22 O38 1.906729 1_455
Ga23 O42 1.836332 1_455
Ga23 O36 1.870435 1_455
Ga23 O40 1.873346 1_555
Ga23 O38 1.906729 1_455
