# generated using pymatgen
data_Li8TiMn3(PO4)6
_symmetry_space_group_name_H-M   'P 1'
_cell_length_a   8.92072086
_cell_length_b   8.92072086
_cell_length_c   8.92072060
_cell_angle_alpha   60.85266430
_cell_angle_beta   60.85266430
_cell_angle_gamma   60.85266998
_symmetry_Int_Tables_number   1
_chemical_formula_structural   Li8TiMn3(PO4)6
_chemical_formula_sum   'Li8 Ti1 Mn3 P6 O24'
_cell_volume   511.62884145
_cell_formula_units_Z   1
loop_
 _symmetry_equiv_pos_site_id
 _symmetry_equiv_pos_as_xyz
  1  'x, y, z'
loop_
 _atom_site_type_symbol
 _atom_site_label
 _atom_site_symmetry_multiplicity
 _atom_site_fract_x
 _atom_site_fract_y
 _atom_site_fract_z
 _atom_site_occupancy
  Li  Li0  1  0.03458600  0.03458600  0.03458600  1
  Li  Li1  1  0.76348000  0.35744200  0.19803000  1
  Li  Li2  1  0.19803000  0.76348000  0.35744200  1
  Li  Li3  1  0.35744200  0.19803000  0.76348000  1
  Li  Li4  1  0.52632500  0.52632500  0.52632500  1
  Li  Li5  1  0.68064300  0.86569900  0.27631500  1
  Li  Li6  1  0.86569900  0.27631500  0.68064300  1
  Li  Li7  1  0.27631500  0.68064300  0.86569900  1
  Ti  Ti0  1  0.85094700  0.85094700  0.85094700  1
  Mn  Mn0  1  0.16142000  0.16142000  0.16142000  1
  Mn  Mn1  1  0.65723500  0.65723500  0.65723500  1
  Mn  Mn2  1  0.35181300  0.35181300  0.35181300  1
  P  P0  1  0.45098000  0.75285800  0.04635700  1
  P  P1  1  0.75285800  0.04635700  0.45098000  1
  P  P2  1  0.04635700  0.45098000  0.75285800  1
  P  P3  1  0.94070500  0.55618900  0.24514500  1
  P  P4  1  0.24514500  0.94070500  0.55618900  1
  P  P5  1  0.55618900  0.24514500  0.94070500  1
  O  O0  1  0.26858700  0.91049500  0.07787800  1
  O  O1  1  0.61700000  0.81513000  0.97616600  1
  O  O2  1  0.45018000  0.59698900  0.23088900  1
  O  O3  1  0.69531300  0.90217700  0.46507900  1
  O  O4  1  0.91049500  0.07787800  0.26858700  1
  O  O5  1  0.59698900  0.23088900  0.45018000  1
  O  O6  1  0.90217700  0.46507900  0.69531300  1
  O  O7  1  0.23088900  0.45018000  0.59698900  1
  O  O8  1  0.95675200  0.39923500  0.20304500  1
  O  O9  1  0.90449000  0.74249300  0.08530300  1
  O  O10  1  0.46507900  0.69531300  0.90217700  1
  O  O11  1  0.20304500  0.95675200  0.39923500  1
  O  O12  1  0.81513000  0.97616600  0.61700000  1
  O  O13  1  0.52430200  0.26990800  0.11311900  1
  O  O14  1  0.07787800  0.26858700  0.91049500  1
  O  O15  1  0.97616600  0.61700000  0.81513000  1
  O  O16  1  0.76227900  0.58613400  0.40689800  1
  O  O17  1  0.11311900  0.52430200  0.26990800  1
  O  O18  1  0.40689800  0.76227900  0.58613400  1
  O  O19  1  0.08530300  0.90449000  0.74249300  1
  O  O20  1  0.26990800  0.11311900  0.52430200  1
  O  O21  1  0.39923500  0.20304500  0.95675200  1
  O  O22  1  0.58613400  0.40689800  0.76227900  1
  O  O23  1  0.74249300  0.08530300  0.90449000  1
loop_
_geom_bond_atom_site_label_1
_geom_bond_atom_site_label_2
_geom_bond_distance
_geom_bond_site_symmetry_2
Li0 O14 1.962123 1_554
Li0 O4 1.962123 1_455
Li0 O0 1.962123 1_545
Li1 O8 1.957332 1_555
Li1 O4 2.103501 1_555
Li1 O5 2.108401 1_555
Li1 O2 2.541252 1_555
Li2 O11 1.957332 1_555
Li2 O0 2.103501 1_555
Li2 O2 2.108402 1_555
Li2 O7 2.541252 1_555
Li3 O21 1.957332 1_555
Li3 O14 2.103501 1_555
Li3 O7 2.108402 1_555
Li3 O5 2.541252 1_555
Li4 O16 2.050861 1_555
Li4 O22 2.050861 1_555
Li4 O18 2.050861 1_555
Li5 O3 1.936104 1_555
Li5 O16 2.081876 1_555
Li5 O9 2.114444 1_555
Li6 O6 1.936104 1_555
Li6 O22 2.081876 1_555
Li6 O23 2.114444 1_555
Li7 O10 1.936104 1_555
Li7 O18 2.081876 1_555
Li7 O19 2.114444 1_555
Mn0 O21 2.075069 1_554
Mn0 O11 2.075069 1_545
Mn0 O8 2.075069 1_455
Mn0 O4 2.307891 1_455
Mn0 O14 2.307891 1_554
Mn0 O0 2.307892 1_545
Mn1 O3 2.082175 1_555
Mn1 O10 2.082175 1_555
Mn1 O6 2.082175 1_555
Mn1 O22 2.242733 1_555
Mn1 O16 2.242733 1_555
Mn1 O18 2.242733 1_555
Mn2 O20 2.159691 1_555
Mn2 O13 2.159691 1_555
Mn2 O17 2.159691 1_555
Mn2 O2 2.316566 1_555
Mn2 O7 2.316566 1_555
Mn2 O5 2.316566 1_555
O0 P0 1.553908 1_555
O1 P0 1.566311 1_556
O1 Ti0 1.932959 1_555
O2 P0 1.553006 1_555
O3 P1 1.535029 1_565
O4 P1 1.553908 1_555
O5 P1 1.553006 1_555
O6 P2 1.535029 1_655
O7 P2 1.553006 1_555
O8 P3 1.544848 1_555
O9 P3 1.586492 1_555
O9 Ti0 2.021673 1_554
O10 P0 1.535029 1_556
O11 P4 1.544848 1_555
O12 P1 1.566311 1_565
O12 Ti0 1.932959 1_555
O13 P5 1.529349 1_554
O14 P2 1.553908 1_555
O15 P2 1.566311 1_655
O15 Ti0 1.932959 1_555
O16 P3 1.552728 1_555
O17 P3 1.529349 1_455
O18 P4 1.552728 1_555
O19 P4 1.586492 1_555
O19 Ti0 2.021673 1_455
O20 P4 1.529349 1_545
O21 P5 1.544848 1_555
O22 P5 1.552728 1_555
O23 P5 1.586492 1_555
O23 Ti0 2.021673 1_545
