# generated using pymatgen
data_Ba5Nb2O10
_symmetry_space_group_name_H-M   'P 1'
_cell_length_a   6.17834553
_cell_length_b   6.17834553
_cell_length_c   18.33528400
_cell_angle_alpha   90.00000000
_cell_angle_beta   90.00000000
_cell_angle_gamma   120.22516966
_symmetry_Int_Tables_number   1
_chemical_formula_structural   Ba5Nb2O10
_chemical_formula_sum   'Ba10 Nb4 O20'
_cell_volume   604.74569353
_cell_formula_units_Z   2
loop_
 _symmetry_equiv_pos_site_id
 _symmetry_equiv_pos_as_xyz
  1  'x, y, z'
loop_
 _atom_site_type_symbol
 _atom_site_label
 _atom_site_symmetry_multiplicity
 _atom_site_fract_x
 _atom_site_fract_y
 _atom_site_fract_z
 _atom_site_occupancy
  Ba  Ba0  1  0.83187500  0.16812500  0.75050100  1
  Ba  Ba1  1  0.80770200  0.19229800  0.98157500  1
  Ba  Ba2  1  0.49623900  0.50376100  0.86492200  1
  Ba  Ba3  1  0.50043900  0.49956100  0.63504600  1
  Ba  Ba4  1  0.50376100  0.49623900  0.36492200  1
  Ba  Ba5  1  0.49956100  0.50043900  0.13504600  1
  Ba  Ba6  1  0.85070600  0.14929400  0.51965800  1
  Ba  Ba7  1  0.19229800  0.80770200  0.48157500  1
  Ba  Ba8  1  0.16812500  0.83187500  0.25050100  1
  Ba  Ba9  1  0.14929400  0.85070600  0.01965800  1
  Nb  Nb0  1  0.83667100  0.16332900  0.33072500  1
  Nb  Nb1  1  0.83091100  0.16908900  0.16980600  1
  Nb  Nb2  1  0.16332900  0.83667100  0.83072500  1
  Nb  Nb3  1  0.16908900  0.83091100  0.66980600  1
  O  O0  1  0.56287600  0.43712400  0.99973300  1
  O  O1  1  0.97546400  0.48384600  0.38012400  1
  O  O2  1  0.00396900  0.47598400  0.11467200  1
  O  O3  1  0.68725000  0.31275000  0.24513500  1
  O  O4  1  0.12693600  0.31283600  0.25244400  1
  O  O5  1  0.51615400  0.02453600  0.38012400  1
  O  O6  1  0.52401600  0.99603100  0.11467200  1
  O  O7  1  0.68716400  0.87306400  0.25244400  1
  O  O8  1  0.98485000  0.01515000  0.38945600  1
  O  O9  1  0.99350600  0.00649400  0.12124800  1
  O  O10  1  0.00649400  0.99350600  0.62124800  1
  O  O11  1  0.01515000  0.98485000  0.88945600  1
  O  O12  1  0.31283600  0.12693600  0.75244400  1
  O  O13  1  0.48384600  0.97546400  0.88012400  1
  O  O14  1  0.87306400  0.68716400  0.75244400  1
  O  O15  1  0.47598400  0.00396900  0.61467200  1
  O  O16  1  0.31275000  0.68725000  0.74513500  1
  O  O17  1  0.02453600  0.51615400  0.88012400  1
  O  O18  1  0.99603100  0.52401600  0.61467200  1
  O  O19  1  0.43712400  0.56287600  0.49973300  1
loop_
_geom_bond_atom_site_label_1
_geom_bond_atom_site_label_2
_geom_bond_distance
_geom_bond_site_symmetry_2
Ba0 O13 3.018627 1_545
Ba0 O17 3.018627 1_655
Ba0 O10 3.019286 1_645
Ba0 O12 3.086745 1_555
Ba0 O14 3.086745 1_555
Ba0 O16 3.087032 1_655
Ba0 O16 3.087032 1_545
Ba0 O12 3.107642 1_655
Ba0 O14 3.107642 1_545
Ba0 O15 3.133784 1_555
Ba0 O18 3.133784 1_555
Ba0 O11 3.216590 1_645
Ba1 O17 2.561177 1_655
Ba1 O13 2.561177 1_545
Ba1 O0 2.643947 1_555
Ba1 O11 2.791440 1_645
Ba1 O2 2.891024 1_656
Ba1 O6 2.891024 1_546
Ba1 O9 3.243584 1_556
Ba2 O0 2.572828 1_555
Ba2 O14 2.881215 1_555
Ba2 O12 2.881215 1_555
Ba2 O16 2.947565 1_555
Ba2 O13 2.966752 1_555
Ba2 O17 2.966752 1_555
Ba2 O11 3.117933 1_545
Ba2 O11 3.117933 1_655
Ba2 O17 3.238154 1_655
Ba2 O13 3.238154 1_545
Ba3 O19 2.572058 1_555
Ba3 O16 2.849141 1_555
Ba3 O14 2.930939 1_555
Ba3 O12 2.930939 1_555
Ba3 O18 3.011987 1_555
Ba3 O15 3.011987 1_555
Ba3 O10 3.089711 1_545
Ba3 O10 3.089711 1_655
Ba3 O18 3.216898 1_455
Ba3 O15 3.216898 1_565
Ba4 O19 2.572828 1_555
Ba4 O7 2.881215 1_555
Ba4 O4 2.881215 1_555
Ba4 O3 2.947565 1_555
Ba4 O5 2.966752 1_555
Ba4 O1 2.966752 1_555
Ba4 O8 3.117933 1_455
Ba4 O8 3.117933 1_565
Ba4 O5 3.238154 1_565
Ba4 O1 3.238154 1_455
Ba5 O0 2.572058 1_554
Ba5 O3 2.849141 1_555
Ba5 O7 2.930939 1_555
Ba5 O4 2.930939 1_555
Ba5 O6 3.011987 1_555
Ba5 O2 3.011987 1_555
Ba5 O9 3.089711 1_455
Ba5 O9 3.089711 1_565
Ba5 O6 3.216898 1_545
Ba5 O2 3.216898 1_655
Ba6 O10 2.501034 1_645
Ba6 O15 2.666129 1_555
Ba6 O18 2.666129 1_555
Ba6 O8 2.786484 1_555
Ba6 O5 3.131750 1_555
Ba6 O1 3.131750 1_555
Ba6 O19 3.235540 1_545
Ba6 O19 3.235540 1_655
Ba7 O5 2.561177 1_565
Ba7 O1 2.561177 1_455
Ba7 O19 2.643947 1_555
Ba7 O8 2.791440 1_465
Ba7 O15 2.891024 1_565
Ba7 O18 2.891024 1_455
Ba7 O10 3.243584 1_555
Ba8 O1 3.018627 1_455
Ba8 O5 3.018627 1_565
Ba8 O9 3.019286 1_465
Ba8 O7 3.086745 1_555
Ba8 O4 3.086745 1_555
Ba8 O3 3.087032 1_565
Ba8 O3 3.087032 1_455
Ba8 O4 3.107642 1_565
Ba8 O7 3.107642 1_455
Ba8 O6 3.133784 1_555
Ba8 O2 3.133784 1_555
Ba8 O8 3.216590 1_465
Ba9 O9 2.501034 1_465
Ba9 O2 2.666129 1_555
Ba9 O6 2.666129 1_555
Ba9 O11 2.786484 1_554
Ba9 O17 3.131750 1_554
Ba9 O13 3.131750 1_554
Ba9 O0 3.235540 1_454
Ba9 O0 3.235540 1_564
Nb0 O8 1.918262 1_555
Nb0 O1 1.941006 1_555
Nb0 O5 1.941006 1_555
Nb0 O4 2.112265 1_655
Nb0 O7 2.112265 1_545
Nb0 O3 2.241719 1_555
Nb1 O6 1.928527 1_545
Nb1 O2 1.928527 1_655
Nb1 O9 1.956275 1_555
Nb1 O3 2.067957 1_555
Nb1 O4 2.189574 1_655
Nb1 O7 2.189574 1_545
Nb2 O11 1.918262 1_555
Nb2 O13 1.941006 1_555
Nb2 O17 1.941006 1_555
Nb2 O12 2.112265 1_565
Nb2 O14 2.112265 1_455
Nb2 O16 2.241719 1_555
Nb3 O18 1.928527 1_455
Nb3 O15 1.928527 1_565
Nb3 O10 1.956275 1_555
Nb3 O16 2.067957 1_555
Nb3 O12 2.189574 1_565
Nb3 O14 2.189574 1_455
