# generated using pymatgen
data_Na3CuAsCO7
_symmetry_space_group_name_H-M   'P 1'
_cell_length_a   6.73838400
_cell_length_b   5.30529700
_cell_length_c   9.20655983
_cell_angle_alpha   87.00576520
_cell_angle_beta   90.00000000
_cell_angle_gamma   90.00000000
_symmetry_Int_Tables_number   1
_chemical_formula_structural   Na3CuAsCO7
_chemical_formula_sum   'Na6 Cu2 As2 C2 O14'
_cell_volume   328.67716495
_cell_formula_units_Z   2
loop_
 _symmetry_equiv_pos_site_id
 _symmetry_equiv_pos_as_xyz
  1  'x, y, z'
loop_
 _atom_site_type_symbol
 _atom_site_label
 _atom_site_symmetry_multiplicity
 _atom_site_fract_x
 _atom_site_fract_y
 _atom_site_fract_z
 _atom_site_occupancy
  Na  Na0  1  0.75000000  0.23118900  0.92073900  1
  Na  Na1  1  0.99711700  0.75446100  0.74226300  1
  Na  Na2  1  0.50288300  0.75446100  0.74226300  1
  Na  Na3  1  0.49711700  0.24553900  0.25773700  1
  Na  Na4  1  0.00288300  0.24553900  0.25773700  1
  Na  Na5  1  0.25000000  0.76881100  0.07926100  1
  Cu  Cu0  1  0.25000000  0.22015400  0.65252900  1
  Cu  Cu1  1  0.75000000  0.77984600  0.34747100  1
  As  As0  1  0.75000000  0.30761100  0.57911800  1
  As  As1  1  0.25000000  0.69238900  0.42088200  1
  C  C0  1  0.25000000  0.28351800  0.94219700  1
  C  C1  1  0.75000000  0.71648200  0.05780300  1
  O  O0  1  0.75000000  0.74144000  0.91725400  1
  O  O1  1  0.25000000  0.07862600  0.86762800  1
  O  O2  1  0.25000000  0.50276900  0.87520200  1
  O  O3  1  0.94872700  0.22499600  0.69211100  1
  O  O4  1  0.55127300  0.22499600  0.69211100  1
  O  O5  1  0.75000000  0.63617100  0.55202500  1
  O  O6  1  0.25000000  0.82542500  0.58403800  1
  O  O7  1  0.75000000  0.17457500  0.41596200  1
  O  O8  1  0.25000000  0.36382900  0.44797500  1
  O  O9  1  0.44872700  0.77500400  0.30788900  1
  O  O10  1  0.05127300  0.77500400  0.30788900  1
  O  O11  1  0.75000000  0.49723100  0.12479800  1
  O  O12  1  0.75000000  0.92137400  0.13237200  1
  O  O13  1  0.25000000  0.25856000  0.08274600  1
loop_
_geom_bond_atom_site_label_1
_geom_bond_atom_site_label_2
_geom_bond_distance
_geom_bond_site_symmetry_2
Na0 O11 2.408029 1_556
Na0 O12 2.482611 1_546
Na0 O3 2.496397 1_555
Na0 O4 2.496397 1_555
Na0 O0 2.600137 1_545
Na0 O0 2.705547 1_555
Na1 O6 2.260561 1_655
Na1 O0 2.315484 1_555
Na1 O2 2.452334 1_655
Na1 O5 2.519719 1_555
Na1 O3 2.535893 1_565
Na1 O1 2.720456 1_665
Na1 O3 2.888826 1_555
Na2 O6 2.260561 1_555
Na2 O0 2.315484 1_555
Na2 O2 2.452334 1_555
Na2 O5 2.519719 1_555
Na2 O4 2.535893 1_565
Na2 O1 2.720456 1_565
Na2 O4 2.888826 1_555
Na3 O7 2.260561 1_555
Na3 O13 2.315484 1_555
Na3 O11 2.452334 1_555
Na3 O8 2.519719 1_555
Na3 O9 2.535893 1_545
Na3 O12 2.720456 1_545
Na3 O9 2.888826 1_555
Na4 O7 2.260561 1_455
Na4 O13 2.315484 1_555
Na4 O11 2.452334 1_455
Na4 O8 2.519719 1_555
Na4 O10 2.535893 1_545
Na4 O12 2.720456 1_445
Na4 O10 2.888826 1_555
Na5 O2 2.408029 1_554
Na5 O1 2.482611 1_564
Na5 O9 2.496397 1_555
Na5 O10 2.496397 1_555
Na5 O13 2.600137 1_565
Na5 O13 2.705547 1_555
Cu0 O8 1.994400 1_555
Cu0 O4 2.062938 1_555
Cu0 O3 2.062938 1_455
Cu0 O1 2.080891 1_555
Cu0 O6 2.218344 1_545
Cu1 O5 1.994400 1_555
Cu1 O10 2.062938 1_655
Cu1 O9 2.062938 1_555
Cu1 O12 2.080891 1_555
Cu1 O7 2.218344 1_565
As0 O7 1.692698 1_555
As0 O4 1.737766 1_555
As0 O3 1.737766 1_555
As0 O5 1.747919 1_555
As1 O6 1.692698 1_555
As1 O9 1.737766 1_555
As1 O10 1.737766 1_555
As1 O8 1.747919 1_555
C0 O2 1.287826 1_555
C0 O13 1.293831 1_556
C0 O1 1.315627 1_555
C1 O11 1.287826 1_555
C1 O0 1.293831 1_554
C1 O12 1.315627 1_555
