# generated using pymatgen
data_Li4Nb(FeO4)3
_symmetry_space_group_name_H-M   'P 1'
_cell_length_a   8.25158400
_cell_length_b   4.94401200
_cell_length_c   5.02317307
_cell_angle_alpha   89.00064407
_cell_angle_beta   90.00000000
_cell_angle_gamma   90.00000000
_symmetry_Int_Tables_number   1
_chemical_formula_structural   Li4Nb(FeO4)3
_chemical_formula_sum   'Li4 Nb1 Fe3 O12'
_cell_volume   204.89384758
_cell_formula_units_Z   1
loop_
 _symmetry_equiv_pos_site_id
 _symmetry_equiv_pos_as_xyz
  1  'x, y, z'
loop_
 _atom_site_type_symbol
 _atom_site_label
 _atom_site_symmetry_multiplicity
 _atom_site_fract_x
 _atom_site_fract_y
 _atom_site_fract_z
 _atom_site_occupancy
  Li  Li0  1  0.70365900  0.00000000  0.00000000  1
  Li  Li1  1  0.80513100  0.50000000  0.00000000  1
  Li  Li2  1  0.32664800  0.00000000  0.50000000  1
  Li  Li3  1  0.20533400  0.50000000  0.50000000  1
  Nb  Nb0  1  0.10823900  0.00000000  0.00000000  1
  Fe  Fe0  1  0.42099800  0.50000000  0.00000000  1
  Fe  Fe1  1  0.90708800  0.00000000  0.50000000  1
  Fe  Fe2  1  0.60560400  0.50000000  0.50000000  1
  O  O0  1  0.26213400  0.25967600  0.14618600  1
  O  O1  1  0.58880100  0.30577000  0.18195800  1
  O  O2  1  0.91501600  0.19275000  0.18187800  1
  O  O3  1  0.43255900  0.69556700  0.31663800  1
  O  O4  1  0.07957700  0.79354700  0.33922900  1
  O  O5  1  0.75110300  0.75375500  0.34623600  1
  O  O6  1  0.75110300  0.24624500  0.65376400  1
  O  O7  1  0.07957700  0.20645300  0.66077100  1
  O  O8  1  0.43255900  0.30443300  0.68336200  1
  O  O9  1  0.91501600  0.80725000  0.81812200  1
  O  O10  1  0.58880100  0.69423000  0.81804200  1
  O  O11  1  0.26213400  0.74032400  0.85381400  1
loop_
_geom_bond_atom_site_label_1
_geom_bond_atom_site_label_2
_geom_bond_distance
_geom_bond_site_symmetry_2
Li0 O1 2.016726 1_555
Li0 O10 2.016726 1_544
Li0 O5 2.141585 1_545
Li0 O6 2.141585 1_554
Li0 O2 2.194268 1_555
Li0 O9 2.194268 1_544
Li1 O2 1.978868 1_555
Li1 O9 1.978868 1_554
Li1 O5 2.207631 1_555
Li1 O6 2.207631 1_554
Li1 O1 2.216614 1_555
Li1 O10 2.216614 1_554
Li2 O8 1.981377 1_555
Li2 O3 1.981377 1_545
Li2 O11 2.238466 1_545
Li2 O0 2.238466 1_555
Li2 O7 2.424704 1_555
Li2 O4 2.424704 1_545
Li3 O7 1.947918 1_555
Li3 O4 1.947918 1_555
Li3 O11 2.205391 1_555
Li3 O0 2.205391 1_555
Li3 O8 2.295136 1_555
Li3 O3 2.295136 1_555
Nb0 O0 1.957791 1_555
Nb0 O11 1.957791 1_544
Nb0 O7 1.985130 1_554
Nb0 O4 1.985130 1_545
Nb0 O2 2.077323 1_455
Nb0 O9 2.077323 1_444
Fe0 O3 1.878135 1_555
Fe0 O8 1.878135 1_554
Fe0 O11 1.907598 1_554
Fe0 O0 1.907598 1_555
Fe0 O1 1.908966 1_555
Fe0 O10 1.908966 1_554
Fe1 O9 1.847386 1_545
Fe1 O2 1.847386 1_555
Fe1 O7 1.936126 1_655
Fe1 O4 1.936126 1_645
Fe1 O6 1.941190 1_555
Fe1 O5 1.941190 1_545
Fe2 O10 1.883382 1_555
Fe2 O1 1.883382 1_555
Fe2 O5 1.891599 1_555
Fe2 O6 1.891599 1_555
Fe2 O8 1.947059 1_555
Fe2 O3 1.947059 1_555
