# generated using pymatgen
data_Li3CoPCO7
_symmetry_space_group_name_H-M   'P 1'
_cell_length_a   4.97759100
_cell_length_b   8.44071889
_cell_length_c   12.92155014
_cell_angle_alpha   90.30907299
_cell_angle_beta   90.05161767
_cell_angle_gamma   94.94332316
_symmetry_Int_Tables_number   1
_chemical_formula_structural   Li3CoPCO7
_chemical_formula_sum   'Li12 Co4 P4 C4 O28'
_cell_volume   540.86407114
_cell_formula_units_Z   4
loop_
 _symmetry_equiv_pos_site_id
 _symmetry_equiv_pos_as_xyz
  1  'x, y, z'
loop_
 _atom_site_type_symbol
 _atom_site_label
 _atom_site_symmetry_multiplicity
 _atom_site_fract_x
 _atom_site_fract_y
 _atom_site_fract_z
 _atom_site_occupancy
  Li  Li0  1  0.23509100  0.09790800  0.12481700  1
  Li  Li1  1  0.23159300  0.10148000  0.62946400  1
  Li  Li2  1  0.75232700  0.27891600  0.51499100  1
  Li  Li3  1  0.74818200  0.27306800  0.24770100  1
  Li  Li4  1  0.76463400  0.28055700  0.74008600  1
  Li  Li5  1  0.22124700  0.34782200  0.86880000  1
  Li  Li6  1  0.24522100  0.71898300  0.98161800  1
  Li  Li7  1  0.24734000  0.72096200  0.26401300  1
  Li  Li8  1  0.25002800  0.72465200  0.49325300  1
  Li  Li9  1  0.24931900  0.71999500  0.76292500  1
  Li  Li10  1  0.76630900  0.90213400  0.37828000  1
  Li  Li11  1  0.76560000  0.90082500  0.87098000  1
  Co  Co0  1  0.75380300  0.26123200  0.99658800  1
  Co  Co1  1  0.20886900  0.33235600  0.37632800  1
  Co  Co2  1  0.79345100  0.66637300  0.12449600  1
  Co  Co3  1  0.79162000  0.66679300  0.62561700  1
  P  P0  1  0.27310000  0.41272300  0.12374100  1
  P  P1  1  0.27736500  0.41152100  0.62584000  1
  P  P2  1  0.71983800  0.58690100  0.37414400  1
  P  P3  1  0.71523600  0.58622700  0.87679000  1
  C  C0  1  0.29840500  0.03715000  0.37304600  1
  C  C1  1  0.29530900  0.04027500  0.88145200  1
  C  C2  1  0.70281600  0.96165300  0.62471400  1
  C  C3  1  0.70477500  0.96257600  0.12278000  1
  O  O0  1  0.04682100  0.07074900  0.88188500  1
  O  O1  1  0.05123700  0.07281000  0.37381800  1
  O  O2  1  0.64440400  0.11199900  0.11757900  1
  O  O3  1  0.63803800  0.10677200  0.62507100  1
  O  O4  1  0.48899500  0.15398300  0.37058000  1
  O  O5  1  0.48742900  0.15657500  0.88533600  1
  O  O6  1  0.17326800  0.30816000  0.53042100  1
  O  O7  1  0.15677100  0.30992200  0.03140100  1
  O  O8  1  0.17939500  0.31025700  0.21933700  1
  O  O9  1  0.17608500  0.30952300  0.71838500  1
  O  O10  1  0.82563300  0.42035400  0.37409800  1
  O  O11  1  0.82203100  0.41917700  0.87635200  1
  O  O12  1  0.59282700  0.43340600  0.62362700  1
  O  O13  1  0.58945400  0.42789000  0.11679300  1
  O  O14  1  0.40608200  0.56710800  0.37353300  1
  O  O15  1  0.40521300  0.57169800  0.87700200  1
  O  O16  1  0.17714000  0.58127300  0.12677400  1
  O  O17  1  0.17199800  0.57920500  0.62430200  1
  O  O18  1  0.82546700  0.69193200  0.46752200  1
  O  O19  1  0.82390900  0.68992600  0.28001100  1
  O  O20  1  0.82755300  0.68765800  0.78298200  1
  O  O21  1  0.82754100  0.69087000  0.97040200  1
  O  O22  1  0.51234600  0.85057100  0.12564900  1
  O  O23  1  0.51418800  0.84307600  0.62476500  1
  O  O24  1  0.36062600  0.89128700  0.37472300  1
  O  O25  1  0.36219000  0.89443900  0.87457700  1
  O  O26  1  0.95124700  0.92923200  0.12600800  1
  O  O27  1  0.95063900  0.92706800  0.62460400  1
loop_
_geom_bond_atom_site_label_1
_geom_bond_atom_site_label_2
_geom_bond_distance
_geom_bond_site_symmetry_2
Li0 O26 1.917568 1_445
Li0 O2 2.032871 1_555
Li0 O8 2.200861 1_555
Li0 O7 2.225803 1_555
Li1 O27 1.941898 1_445
Li1 O3 2.020614 1_555
Li1 O9 2.131339 1_555
Li1 O6 2.208217 1_555
Li2 O3 2.083129 1_555
Li2 O6 2.097720 1_655
Li2 O12 2.112329 1_555
Li2 O10 2.195994 1_555
Li2 O4 2.459323 1_555
Li3 O10 2.063013 1_555
Li3 O8 2.174039 1_655
Li3 O2 2.189739 1_555
Li3 O4 2.234562 1_555
Li3 O13 2.322208 1_555
Li4 O9 2.061148 1_655
Li4 O11 2.114286 1_555
Li4 O3 2.138455 1_555
Li4 O12 2.206611 1_555
Li4 O5 2.509707 1_555
Li5 O9 1.978007 1_555
Li5 O15 2.029796 1_555
Li5 O11 2.127663 1_455
Li5 O7 2.147219 1_556
Li5 O5 2.186045 1_555
Li5 O0 2.430326 1_555
Li6 O15 2.039985 1_555
Li6 O21 2.076965 1_455
Li6 O25 2.078529 1_555
Li6 O16 2.222781 1_556
Li6 O22 2.486769 1_556
Li7 O24 2.065904 1_555
Li7 O19 2.111831 1_455
Li7 O14 2.123243 1_555
Li7 O16 2.135972 1_555
Li7 O22 2.431045 1_555
Li8 O17 2.113513 1_555
Li8 O24 2.125664 1_555
Li8 O18 2.133068 1_455
Li8 O14 2.218739 1_555
Li8 O23 2.316671 1_555
Li9 O25 2.097186 1_555
Li9 O20 2.109988 1_455
Li9 O15 2.127686 1_555
Li9 O17 2.160046 1_555
Li9 O23 2.406821 1_555
Li10 O1 1.933676 1_665
Li10 O24 2.013974 1_555
Li10 O18 2.162392 1_555
Li10 O19 2.228798 1_555
Li11 O0 1.920396 1_665
Li11 O25 2.004672 1_555
Li11 O20 2.167862 1_555
Li11 O21 2.236981 1_555
Co0 O2 2.057174 1_556
Co0 O7 2.061272 1_656
Co0 O11 2.061972 1_555
Co0 O5 2.094260 1_555
Co0 O13 2.288591 1_556
Co1 O6 2.009094 1_555
Co1 O8 2.040115 1_555
Co1 O10 2.106124 1_455
Co1 O14 2.134665 1_555
Co1 O4 2.139471 1_555
Co1 O1 2.262531 1_555
Co2 O21 2.008772 1_554
Co2 O19 2.022504 1_555
Co2 O16 2.097831 1_655
Co2 O13 2.176788 1_555
Co2 O22 2.179462 1_555
Co2 O26 2.288927 1_555
Co3 O20 2.046405 1_555
Co3 O18 2.060512 1_555
Co3 O17 2.091138 1_655
Co3 O23 2.115516 1_555
Co3 O12 2.126964 1_555
Co3 O27 2.270185 1_555
C0 O1 1.291569 1_555
C0 O24 1.295456 1_545
C0 O4 1.308690 1_555
C1 O0 1.284863 1_555
C1 O25 1.305174 1_545
C1 O5 1.310825 1_555
C2 O27 1.291880 1_555
C2 O3 1.293212 1_565
C2 O23 1.312007 1_555
C3 O26 1.282818 1_555
C3 O22 1.287240 1_555
C3 O2 1.323531 1_565
O6 P1 1.568173 1_555
O7 P0 1.553344 1_555
O8 P0 1.560276 1_555
O9 P1 1.537124 1_555
O10 P2 1.543079 1_555
O11 P3 1.549151 1_555
O12 P1 1.565486 1_555
O13 P0 1.571530 1_555
O14 P2 1.556288 1_555
O15 P3 1.537469 1_555
O16 P0 1.539564 1_555
O17 P1 1.551440 1_555
O18 P2 1.557315 1_555
O19 P2 1.561719 1_555
O20 P3 1.563577 1_555
O21 P3 1.567790 1_555
