# generated using pymatgen
data_Li2Mn3O6
_symmetry_space_group_name_H-M   'P 1'
_cell_length_a   5.75243600
_cell_length_b   7.28573915
_cell_length_c   10.46817862
_cell_angle_alpha   95.60028467
_cell_angle_beta   92.99554333
_cell_angle_gamma   91.52133157
_symmetry_Int_Tables_number   1
_chemical_formula_structural   Li2Mn3O6
_chemical_formula_sum   'Li8 Mn12 O24'
_cell_volume   435.81735024
_cell_formula_units_Z   4
loop_
 _symmetry_equiv_pos_site_id
 _symmetry_equiv_pos_as_xyz
  1  'x, y, z'
loop_
 _atom_site_type_symbol
 _atom_site_label
 _atom_site_symmetry_multiplicity
 _atom_site_fract_x
 _atom_site_fract_y
 _atom_site_fract_z
 _atom_site_occupancy
  Li  Li0  1  0.87764100  0.64299200  0.21729500  1
  Li  Li1  1  0.88051300  0.64456700  0.71881500  1
  Li  Li2  1  0.88084300  0.35063300  0.02696400  1
  Li  Li3  1  0.12657100  0.30813600  0.30048500  1
  Li  Li4  1  0.87562300  0.35248300  0.53717400  1
  Li  Li5  1  0.12448000  0.01509400  0.12426800  1
  Li  Li6  1  0.11729100  0.02905700  0.61919500  1
  Li  Li7  1  0.35936500  0.02576500  0.85385500  1
  Mn  Mn0  1  0.61783500  0.99109000  0.11781700  1
  Mn  Mn1  1  0.61774300  0.99116600  0.61242200  1
  Mn  Mn2  1  0.38334200  0.67111800  0.22278300  1
  Mn  Mn3  1  0.11802300  0.66731200  0.46042100  1
  Mn  Mn4  1  0.38195600  0.66571300  0.72124600  1
  Mn  Mn5  1  0.11309100  0.66586300  0.96004800  1
  Mn  Mn6  1  0.36508800  0.33563200  0.03198900  1
  Mn  Mn7  1  0.63031600  0.33721000  0.29763100  1
  Mn  Mn8  1  0.36373900  0.32656900  0.53732300  1
  Mn  Mn9  1  0.63384000  0.34167400  0.79581400  1
  Mn  Mn10  1  0.87990500  0.99620700  0.37530500  1
  Mn  Mn11  1  0.87762600  0.00356900  0.87415000  1
  O  O0  1  0.85846500  0.86856100  0.02439400  1
  O  O1  1  0.35100500  0.81857100  0.07150400  1
  O  O2  1  0.64830700  0.83435600  0.26995300  1
  O  O3  1  0.86285200  0.86486600  0.52481300  1
  O  O4  1  0.13991400  0.80105700  0.30912500  1
  O  O5  1  0.35044900  0.81777000  0.57180600  1
  O  O6  1  0.63487600  0.84314800  0.77300800  1
  O  O7  1  0.14391400  0.80629100  0.81026100  1
  O  O8  1  0.14262400  0.51379500  0.10785100  1
  O  O9  1  0.60534300  0.48309100  0.14584600  1
  O  O10  1  0.38706400  0.49657400  0.36151100  1
  O  O11  1  0.89254000  0.48656900  0.36838700  1
  O  O12  1  0.14383000  0.51662400  0.60700400  1
  O  O13  1  0.60586900  0.48317800  0.64660500  1
  O  O14  1  0.39700000  0.50165500  0.86360600  1
  O  O15  1  0.88736300  0.49077200  0.87114800  1
  O  O16  1  0.40428800  0.17470800  0.19367000  1
  O  O17  1  0.85721800  0.14936800  0.22608400  1
  O  O18  1  0.10685500  0.17553500  0.46550300  1
  O  O19  1  0.61130400  0.19337500  0.45285900  1
  O  O20  1  0.40832100  0.16500400  0.69685100  1
  O  O21  1  0.85179800  0.14894900  0.72288200  1
  O  O22  1  0.12473900  0.15939100  0.96722000  1
  O  O23  1  0.61016600  0.19246900  0.94811400  1
loop_
_geom_bond_atom_site_label_1
_geom_bond_atom_site_label_2
_geom_bond_distance
_geom_bond_site_symmetry_2
Li0 O9 1.995185 1_555
Li0 O2 2.002939 1_555
Li0 O4 2.016584 1_655
Li0 O11 2.037311 1_555
Li0 O8 2.137833 1_655
Li1 O13 2.013220 1_555
Li1 O7 2.033223 1_655
Li1 O15 2.035810 1_555
Li1 O6 2.108038 1_555
Li1 O12 2.140228 1_655
Li2 O8 1.993239 1_655
Li2 O23 2.004588 1_554
Li2 O15 2.008433 1_554
Li2 O22 2.079990 1_654
Li2 O9 2.246012 1_555
Li3 O17 1.987025 1_455
Li3 O11 2.005060 1_455
Li3 O10 2.039100 1_555
Li3 O18 2.066550 1_555
Li3 O16 2.191910 1_555
Li4 O12 1.989573 1_655
Li4 O18 2.000198 1_655
Li4 O19 2.000281 1_555
Li4 O11 2.106077 1_555
Li4 O13 2.162921 1_555
Li4 O21 2.564508 1_555
Li5 O1 2.018194 1_545
Li5 O16 2.020991 1_555
Li5 O0 2.025500 1_445
Li5 O22 2.036055 1_554
Li5 O17 2.122327 1_455
Li5 O4 2.600521 1_545
Li6 O20 2.014238 1_555
Li6 O18 2.014801 1_555
Li6 O3 2.018575 1_445
Li6 O21 2.081492 1_455
Li6 O5 2.108270 1_545
Li7 O7 1.998605 1_545
Li7 O23 2.013573 1_555
Li7 O20 2.041642 1_555
Li7 O22 2.046810 1_555
Li7 O6 2.242911 1_545
Mn0 O0 1.925123 1_555
Mn0 O1 1.967675 1_555
Mn0 O16 1.977644 1_565
Mn0 O17 2.002002 1_565
Mn0 O2 2.051206 1_555
Mn0 O23 2.411318 1_564
Mn1 O3 1.927483 1_555
Mn1 O20 1.952010 1_565
Mn1 O5 1.965866 1_555
Mn1 O21 1.991729 1_565
Mn1 O6 2.083450 1_555
Mn1 O19 2.332070 1_565
Mn2 O2 1.921435 1_555
Mn2 O4 1.926057 1_555
Mn2 O1 2.002109 1_555
Mn2 O10 2.021199 1_555
Mn2 O9 2.034999 1_555
Mn2 O8 2.037451 1_555
Mn3 O4 1.946617 1_555
Mn3 O5 1.964328 1_555
Mn3 O11 1.968697 1_455
Mn3 O12 1.973720 1_555
Mn3 O3 2.169530 1_455
Mn3 O10 2.243435 1_555
Mn4 O6 1.939734 1_555
Mn4 O7 1.952923 1_555
Mn4 O12 1.995665 1_555
Mn4 O14 1.999178 1_555
Mn4 O5 2.006663 1_555
Mn4 O13 2.007872 1_555
Mn5 O15 1.932225 1_455
Mn5 O7 1.967071 1_555
Mn5 O8 1.991827 1_556
Mn5 O1 1.992754 1_556
Mn5 O0 2.191779 1_456
Mn5 O14 2.271151 1_555
Mn6 O22 1.912557 1_554
Mn6 O23 1.968527 1_554
Mn6 O8 1.986572 1_555
Mn6 O9 1.995979 1_555
Mn6 O16 2.156737 1_555
Mn6 O14 2.245435 1_554
Mn7 O11 1.909681 1_555
Mn7 O10 1.945721 1_555
Mn7 O16 1.948213 1_555
Mn7 O9 1.997196 1_555
Mn7 O19 2.023727 1_555
Mn7 O17 2.033358 1_555
Mn8 O18 1.896261 1_555
Mn8 O19 1.946555 1_555
Mn8 O12 2.010476 1_555
Mn8 O13 2.011199 1_555
Mn8 O20 2.143620 1_555
Mn8 O10 2.324060 1_555
Mn9 O15 1.886071 1_555
Mn9 O14 1.934496 1_555
Mn9 O13 1.955833 1_555
Mn9 O20 1.980804 1_555
Mn9 O23 2.023651 1_555
Mn9 O21 2.027506 1_555
Mn10 O3 1.917848 1_555
Mn10 O18 1.960295 1_665
Mn10 O2 1.972532 1_555
Mn10 O17 2.007225 1_565
Mn10 O4 2.183470 1_655
Mn10 O19 2.265255 1_565
Mn11 O0 1.941038 1_546
Mn11 O22 1.952541 1_655
Mn11 O6 1.988540 1_545
Mn11 O21 1.990623 1_555
Mn11 O23 2.211269 1_555
Mn11 O7 2.212682 1_645
