# generated using pymatgen
data_Li4Mn3Cr2Sb3O16
_symmetry_space_group_name_H-M   'P 1'
_cell_length_a   6.24800276
_cell_length_b   6.24800276
_cell_length_c   9.74434751
_cell_angle_alpha   87.38431060
_cell_angle_beta   87.38431060
_cell_angle_gamma   58.71892491
_symmetry_Int_Tables_number   1
_chemical_formula_structural   Li4Mn3Cr2Sb3O16
_chemical_formula_sum   'Li4 Mn3 Cr2 Sb3 O16'
_cell_volume   324.65144002
_cell_formula_units_Z   1
loop_
 _symmetry_equiv_pos_site_id
 _symmetry_equiv_pos_as_xyz
  1  'x, y, z'
loop_
 _atom_site_type_symbol
 _atom_site_label
 _atom_site_symmetry_multiplicity
 _atom_site_fract_x
 _atom_site_fract_y
 _atom_site_fract_z
 _atom_site_occupancy
  Li  Li0  1  0.66037800  0.66037800  0.11707300  1
  Li  Li1  1  0.98726100  0.98726100  0.01628100  1
  Li  Li2  1  0.99440600  0.99440600  0.49593500  1
  Li  Li3  1  0.32233100  0.32233100  0.59674000  1
  Mn  Mn0  1  0.83183300  0.83183300  0.78731800  1
  Mn  Mn1  1  0.17348200  0.66133400  0.29008000  1
  Mn  Mn2  1  0.66133400  0.17348200  0.29008000  1
  Cr  Cr0  1  0.67658700  0.67658700  0.50553600  1
  Cr  Cr1  1  0.34696100  0.34696100  0.02465200  1
  Sb  Sb0  1  0.33709600  0.83135200  0.78499100  1
  Sb  Sb1  1  0.83135200  0.33709600  0.78499100  1
  Sb  Sb2  1  0.17227300  0.17227300  0.28457000  1
  O  O0  1  0.33850300  0.85139300  0.40187800  1
  O  O1  1  0.51753600  0.51753600  0.66357800  1
  O  O2  1  0.65434400  0.65434400  0.89883000  1
  O  O3  1  0.00999500  0.00999500  0.68259200  1
  O  O4  1  0.00806800  0.00806800  0.19845100  1
  O  O5  1  0.85139300  0.33850300  0.40187800  1
  O  O6  1  0.50394000  0.95820200  0.65685800  1
  O  O7  1  0.95820200  0.50394000  0.65685800  1
  O  O8  1  0.15588000  0.15588000  0.89374500  1
  O  O9  1  0.83836900  0.83836900  0.40447500  1
  O  O10  1  0.03962900  0.46851400  0.14888100  1
  O  O11  1  0.46851400  0.03962900  0.14888100  1
  O  O12  1  0.32511900  0.32511900  0.39511300  1
  O  O13  1  0.17835600  0.68091600  0.90318200  1
  O  O14  1  0.47644100  0.47644100  0.15552300  1
  O  O15  1  0.68091600  0.17835600  0.90318200  1
loop_
_geom_bond_atom_site_label_1
_geom_bond_atom_site_label_2
_geom_bond_distance
_geom_bond_site_symmetry_2
Li0 O14 2.018623 1_555
Li0 O10 2.056992 1_655
Li0 O11 2.056992 1_565
Li0 O2 2.131087 1_554
Li1 O4 1.801265 1_665
Li1 O15 2.000724 1_564
Li1 O13 2.000724 1_654
Li1 O8 2.137422 1_664
Li2 O3 1.835588 1_665
Li2 O9 1.959809 1_555
Li2 O0 2.039738 1_655
Li2 O5 2.039738 1_565
Li3 O12 1.963368 1_555
Li3 O6 2.016154 1_545
Li3 O7 2.016154 1_455
Li3 O1 2.255880 1_555
Mn0 O3 2.144541 1_665
Mn0 O2 2.167347 1_555
Mn0 O15 2.203914 1_565
Mn0 O13 2.203914 1_655
Mn0 O7 2.214241 1_555
Mn0 O6 2.214241 1_555
Mn1 O4 2.034984 1_565
Mn1 O12 2.045339 1_555
Mn1 O14 2.068239 1_555
Mn1 O9 2.084332 1_455
Mn1 O0 2.269813 1_555
Mn1 O10 2.312255 1_555
Mn2 O4 2.034984 1_655
Mn2 O12 2.045339 1_555
Mn2 O14 2.068239 1_555
Mn2 O9 2.084332 1_545
Mn2 O5 2.269813 1_555
Mn2 O11 2.312255 1_555
Cr0 O9 1.972971 1_555
Cr0 O0 2.091259 1_555
Cr0 O5 2.091259 1_555
Cr0 O7 2.134103 1_555
Cr0 O6 2.134103 1_555
Cr0 O1 2.256746 1_555
Cr1 O14 1.950174 1_555
Cr1 O11 2.021557 1_555
Cr1 O10 2.021557 1_555
Cr1 O15 2.114288 1_554
Cr1 O13 2.114288 1_554
Cr1 O8 2.497201 1_554
O0 Sb2 2.035100 1_565
O1 Sb1 2.075955 1_555
O1 Sb0 2.075955 1_555
O2 Sb0 2.048127 1_555
O2 Sb1 2.048127 1_555
O3 Sb1 2.033187 1_455
O3 Sb0 2.033187 1_545
O4 Sb2 2.014848 1_555
O5 Sb2 2.035100 1_655
O6 Sb0 1.980564 1_555
O7 Sb1 1.980564 1_555
O8 Sb0 2.053990 1_545
O8 Sb1 2.053990 1_455
O10 Sb2 2.035831 1_555
O11 Sb2 2.035831 1_555
O12 Sb2 2.029565 1_555
O13 Sb0 1.989616 1_555
O15 Sb1 1.989616 1_555
