# generated using pymatgen
data_Li4V2Fe3Cu3O16
_symmetry_space_group_name_H-M   'P 1'
_cell_length_a   5.90484611
_cell_length_b   5.90773228
_cell_length_c   9.53870024
_cell_angle_alpha   90.24909573
_cell_angle_beta   89.92662203
_cell_angle_gamma   119.78978046
_symmetry_Int_Tables_number   1
_chemical_formula_structural   Li4V2Fe3Cu3O16
_chemical_formula_sum   'Li4 V2 Fe3 Cu3 O16'
_cell_volume   288.77591878
_cell_formula_units_Z   1
loop_
 _symmetry_equiv_pos_site_id
 _symmetry_equiv_pos_as_xyz
  1  'x, y, z'
loop_
 _atom_site_type_symbol
 _atom_site_label
 _atom_site_symmetry_multiplicity
 _atom_site_fract_x
 _atom_site_fract_y
 _atom_site_fract_z
 _atom_site_occupancy
  Li  Li0  1  0.32250200  0.66219500  0.90315600  1
  Li  Li1  1  0.00421800  0.00248200  0.99218800  1
  Li  Li2  1  0.01226600  0.00556100  0.48819400  1
  Li  Li3  1  0.65761900  0.32714500  0.40281200  1
  V  V0  1  0.33206000  0.66531400  0.49827900  1
  V  V1  1  0.66599200  0.33184300  0.99728500  1
  Fe  Fe0  1  0.65545300  0.82807600  0.22090900  1
  Fe  Fe1  1  0.82510000  0.65477900  0.71941700  1
  Fe  Fe2  1  0.82526800  0.17042200  0.71878800  1
  Cu  Cu0  1  0.17279800  0.82962300  0.21153100  1
  Cu  Cu1  1  0.17632200  0.34509300  0.21500900  1
  Cu  Cu2  1  0.34692800  0.17472300  0.71491300  1
  O  O0  1  0.17044300  0.81965600  0.58663100  1
  O  O1  1  0.04665300  0.51867000  0.34976200  1
  O  O2  1  0.32611200  0.66695000  0.11093900  1
  O  O3  1  0.01221500  0.00198400  0.29543100  1
  O  O4  1  0.00575500  0.00310300  0.79996700  1
  O  O5  1  0.17093300  0.34954100  0.58725100  1
  O  O6  1  0.48391500  0.95947800  0.34975800  1
  O  O7  1  0.48246000  0.52221300  0.34944700  1
  O  O8  1  0.35075300  0.17982200  0.08396800  1
  O  O9  1  0.65507200  0.82687500  0.58698300  1
  O  O10  1  0.51896600  0.48094600  0.84804700  1
  O  O11  1  0.51870700  0.04006600  0.84795700  1
  O  O12  1  0.66903700  0.33457900  0.60586500  1
  O  O13  1  0.81768400  0.65253500  0.08686400  1
  O  O14  1  0.95766600  0.47889700  0.84916800  1
  O  O15  1  0.81710400  0.16772500  0.08731500  1
loop_
_geom_bond_atom_site_label_1
_geom_bond_atom_site_label_2
_geom_bond_distance
_geom_bond_site_symmetry_2
Li0 O14 1.938769 1_455
Li0 O2 1.982049 1_556
Li0 O10 1.999129 1_555
Li0 O11 2.010401 1_565
Li1 O4 1.833560 1_555
Li1 O8 1.979293 1_556
Li1 O13 2.013433 1_446
Li1 O15 2.014588 1_456
Li2 O3 1.838737 1_555
Li2 O0 1.997680 1_545
Li2 O5 1.998484 1_555
Li2 O9 2.059649 1_445
Li3 O12 1.937669 1_555
Li3 O6 1.950418 1_545
Li3 O7 1.961556 1_555
Li3 O1 2.057350 1_655
Fe0 O3 1.961026 1_665
Fe0 O6 1.977116 1_555
Fe0 O2 1.986327 1_555
Fe0 O7 1.998457 1_555
Fe0 O13 2.144865 1_555
Fe0 O15 2.162695 1_565
Fe1 O4 1.941654 1_665
Fe1 O12 1.963003 1_555
Fe1 O10 1.997110 1_555
Fe1 O14 2.011478 1_555
Fe1 O9 2.160125 1_555
Fe1 O0 2.177581 1_655
Fe2 O4 1.941145 1_655
Fe2 O12 1.962745 1_555
Fe2 O11 2.001328 1_555
Fe2 O14 2.011491 1_555
Fe2 O9 2.159676 1_545
Fe2 O5 2.172316 1_655
Cu0 O2 1.875645 1_555
Cu0 O3 1.877981 1_565
Cu0 O6 2.073391 1_555
Cu0 O1 2.080135 1_555
Cu0 O13 2.172868 1_455
Cu0 O8 2.173357 1_565
Cu1 O3 1.922524 1_555
Cu1 O2 1.930365 1_555
Cu1 O1 2.013990 1_555
Cu1 O7 2.030247 1_555
Cu1 O8 2.135870 1_555
Cu1 O15 2.206313 1_455
Cu2 O4 1.928238 1_555
Cu2 O12 1.951954 1_555
Cu2 O10 2.018591 1_555
Cu2 O11 2.021410 1_555
Cu2 O5 2.170280 1_555
Cu2 O0 2.189127 1_545
O0 V0 1.818865 1_555
O1 V0 2.035277 1_555
O5 V0 1.831302 1_555
O6 V0 2.073871 1_555
O7 V0 2.061845 1_555
O8 V1 1.815653 1_554
O9 V0 1.858242 1_555
O10 V1 2.080870 1_555
O11 V1 2.061258 1_555
O13 V1 1.850264 1_554
O14 V1 2.057877 1_555
O15 V1 1.828268 1_554
