# generated using pymatgen
data_LiVCrP2(O4F)2
_symmetry_space_group_name_H-M   'P 1'
_cell_length_a   5.16329500
_cell_length_b   7.32732322
_cell_length_c   24.55040826
_cell_angle_alpha   97.15341254
_cell_angle_beta   91.39611785
_cell_angle_gamma   106.07198787
_symmetry_Int_Tables_number   1
_chemical_formula_structural   LiVCrP2(O4F)2
_chemical_formula_sum   'Li5 V5 Cr5 P10 O40 F10'
_cell_volume   883.88056504
_cell_formula_units_Z   5
loop_
 _symmetry_equiv_pos_site_id
 _symmetry_equiv_pos_as_xyz
  1  'x, y, z'
loop_
 _atom_site_type_symbol
 _atom_site_label
 _atom_site_symmetry_multiplicity
 _atom_site_fract_x
 _atom_site_fract_y
 _atom_site_fract_z
 _atom_site_occupancy
  Li  Li0  1  0.98844400  0.73062600  0.08716100  1
  Li  Li1  1  0.78834300  0.53130300  0.28666400  1
  Li  Li2  1  0.58836900  0.33133200  0.48665200  1
  Li  Li3  1  0.38971000  0.13263600  0.68647800  1
  Li  Li4  1  0.00886400  0.26727100  0.91177300  1
  V  V0  1  0.00002700  0.99970300  0.99965300  1
  V  V1  1  0.80039600  0.80587700  0.20085400  1
  V  V2  1  0.60077800  0.60607000  0.40082700  1
  V  V3  1  0.40058200  0.40588600  0.60078800  1
  V  V4  1  0.20051900  0.19974000  0.79955300  1
  Cr  Cr0  1  0.99686100  0.99777900  0.50014400  1
  Cr  Cr1  1  0.79527800  0.79690200  0.70012900  1
  Cr  Cr2  1  0.60584100  0.60383400  0.89905500  1
  Cr  Cr3  1  0.39497500  0.39674000  0.10005700  1
  Cr  Cr4  1  0.19686000  0.19786600  0.30015600  1
  P  P0  1  0.81634200  0.13427100  0.62272000  1
  P  P1  1  0.98779200  0.66676200  0.57662300  1
  P  P2  1  0.78869300  0.46410300  0.77585900  1
  P  P3  1  0.58441000  0.26853900  0.97756100  1
  P  P4  1  0.38810300  0.06683500  0.17658600  1
  P  P5  1  0.61225700  0.93656500  0.82384400  1
  P  P6  1  0.41624900  0.73177400  0.02210900  1
  P  P7  1  0.21605700  0.53444400  0.22279600  1
  P  P8  1  0.01644800  0.33463500  0.42276800  1
  P  P9  1  0.18840900  0.86707300  0.37658100  1
  O  O0  1  0.98224000  0.24313100  0.36309500  1
  O  O1  1  0.90646800  0.05913300  0.84389100  1
  O  O2  1  0.88405500  0.19901200  0.46403500  1
  O  O3  1  0.96521900  0.31766700  0.77220800  1
  O  O4  1  0.78196500  0.04289700  0.56299300  1
  O  O5  1  0.84537100  0.48452100  0.42942100  1
  O  O6  1  0.74969800  0.11430900  0.97222900  1
  O  O7  1  0.90683500  0.60325400  0.73596700  1
  O  O8  1  0.89388000  0.74244100  0.35736100  1
  O  O9  1  0.81138200  0.55383900  0.83578800  1
  O  O10  1  0.62008300  0.36835100  0.03660100  1
  O  O11  1  0.64574300  0.28448100  0.62930900  1
  O  O12  1  0.71777700  0.40010100  0.93565600  1
  O  O13  1  0.50706000  0.20175800  0.13559900  1
  O  O14  1  0.69348000  0.54207500  0.55726800  1
  O  O15  1  0.71791700  0.83489400  0.04093100  1
  O  O16  1  0.41280600  0.16451300  0.23573500  1
  O  O17  1  0.43548100  0.08272400  0.82783000  1
  O  O18  1  0.30743300  0.00204500  0.33566900  1
  O  O19  1  0.49427900  0.34112100  0.75607100  1
  O  O20  1  0.51784300  0.63553900  0.24164900  1
  O  O21  1  0.68373400  0.99870000  0.66391700  1
  O  O22  1  0.55937400  0.91619700  0.17360400  1
  O  O23  1  0.59070700  0.84680600  0.76405600  1
  O  O24  1  0.28259000  0.16514600  0.95911900  1
  O  O25  1  0.31815300  0.43575000  0.44167600  1
  O  O26  1  0.49380600  0.79724000  0.86393700  1
  O  O27  1  0.28287100  0.59982900  0.06422000  1
  O  O28  1  0.35950400  0.71630700  0.37362200  1
  O  O29  1  0.38170400  0.63250500  0.96323000  1
  O  O30  1  0.18106900  0.44256400  0.16310800  1
  O  O31  1  0.11817200  0.23519900  0.64153300  1
  O  O32  1  0.08393200  0.39909500  0.26410200  1
  O  O33  1  0.25005800  0.88533800  0.02793600  1
  O  O34  1  0.15940900  0.51631000  0.57365200  1
  O  O35  1  0.21316800  0.96466900  0.43579400  1
  O  O36  1  0.04532500  0.68455200  0.22944000  1
  O  O37  1  0.10717400  0.80207600  0.53577800  1
  O  O38  1  0.09365200  0.94204400  0.15729400  1
  O  O39  1  0.01142500  0.76386300  0.63580900  1
  F  F0  1  0.92221200  0.80400500  0.93639900  1
  F  F1  1  0.72032400  0.60351700  0.13506600  1
  F  F2  1  0.87976100  0.99872900  0.26429300  1
  F  F3  1  0.52190800  0.40360300  0.33492800  1
  F  F4  1  0.67976600  0.79872000  0.46429500  1
  F  F5  1  0.32190200  0.20347100  0.53492700  1
  F  F6  1  0.47832000  0.59849500  0.66437300  1
  F  F7  1  0.12202600  0.00112600  0.73428500  1
  F  F8  1  0.28057100  0.39891800  0.86536200  1
  F  F9  1  0.07962700  0.19609800  0.06345900  1
loop_
_geom_bond_atom_site_label_1
_geom_bond_atom_site_label_2
_geom_bond_distance
_geom_bond_site_symmetry_2
Li0 O27 2.064162 1_655
Li0 O38 2.117463 1_655
Li0 O15 2.133663 1_555
Li0 O33 2.209572 1_655
Li1 O32 2.073827 1_655
Li1 O20 2.116840 1_555
Li1 O8 2.126315 1_555
Li1 O36 2.157297 1_655
Li2 O2 2.075094 1_555
Li2 O25 2.116029 1_555
Li2 O14 2.123202 1_555
Li2 O5 2.157283 1_555
Li3 O21 2.074891 1_545
Li3 O19 2.095857 1_555
Li3 O31 2.112468 1_555
Li3 O11 2.149498 1_555
Li4 O1 2.064069 1_455
Li4 O12 2.064160 1_455
Li4 O24 2.151906 1_555
Li4 O6 2.220453 1_455
Cr0 F4 1.967347 1_555
Cr0 O4 1.969944 1_565
Cr0 O37 1.971403 1_655
Cr0 O35 1.985599 1_655
Cr0 F5 2.006613 1_665
Cr0 O2 2.018705 1_565
Cr1 F6 1.963975 1_555
Cr1 O7 1.964176 1_555
Cr1 O23 1.965763 1_555
Cr1 O39 1.984413 1_655
Cr1 F7 2.002352 1_665
Cr1 O21 2.020493 1_555
Cr2 O26 1.954521 1_555
Cr2 O9 1.956244 1_555
Cr2 F0 1.981340 1_555
Cr2 F8 1.996505 1_555
Cr2 O29 2.001686 1_555
Cr2 O12 2.038739 1_555
Cr3 O13 1.970065 1_555
Cr3 O30 1.971762 1_555
Cr3 F9 1.973361 1_555
Cr3 O10 1.990619 1_555
Cr3 F1 2.013044 1_555
Cr3 O27 2.025272 1_555
Cr4 F2 1.967735 1_445
Cr4 O0 1.971008 1_455
Cr4 O18 1.971229 1_555
Cr4 O16 1.986156 1_555
Cr4 F3 2.006705 1_555
Cr4 O32 2.018276 1_555
O0 P8 1.517940 1_655
O1 P5 1.566699 1_545
O1 V4 2.011272 1_655
O2 P8 1.545837 1_655
O3 P2 1.584804 1_555
O3 V4 1.832858 1_655
O4 P0 1.518843 1_555
O5 P8 1.585123 1_655
O5 V2 1.901641 1_555
O6 P3 1.589088 1_555
O6 V0 1.878424 1_645
O7 P2 1.517987 1_555
O8 P9 1.567813 1_655
O8 V2 1.983543 1_555
O9 P2 1.522744 1_555
O10 P3 1.522537 1_554
O11 P0 1.585205 1_555
O11 V3 1.902471 1_555
O12 P3 1.541378 1_555
O13 P4 1.519483 1_555
O14 P1 1.567709 1_555
O14 V3 1.983215 1_555
O15 P6 1.561055 1_555
O15 V0 2.002443 1_654
O16 P4 1.522758 1_555
O17 P5 1.584018 1_545
O17 V4 1.836311 1_555
O18 P9 1.518403 1_545
O19 P2 1.566971 1_555
O19 V4 1.999410 1_555
O20 P7 1.559274 1_555
O20 V1 2.015836 1_555
O21 P0 1.544637 1_565
O22 P4 1.590341 1_565
O22 V1 1.816810 1_555
O23 P5 1.520042 1_555
O24 P3 1.560127 1_555
O24 V0 1.995072 1_545
O25 P8 1.559226 1_555
O25 V2 2.016767 1_555
O26 P5 1.522820 1_555
O27 P6 1.546862 1_555
O28 P9 1.590465 1_555
O28 V2 1.816987 1_555
O29 P6 1.517930 1_556
O30 P7 1.518958 1_555
O31 P0 1.559063 1_455
O31 V3 2.015925 1_555
O32 P7 1.544956 1_555
O33 P6 1.588519 1_555
O33 V0 1.884472 1_554
O34 P1 1.590540 1_455
O34 V3 1.816815 1_555
O35 P9 1.523945 1_555
O36 P7 1.585136 1_555
O36 V1 1.901777 1_455
O37 P1 1.519170 1_455
O38 P4 1.568176 1_565
O38 V1 1.984943 1_455
O39 P1 1.522579 1_455
F0 V0 1.930068 1_655
F1 Li0 1.950737 1_555
F1 V1 2.002427 1_555
F2 V1 1.921084 1_555
F3 Li1 1.953167 1_555
F3 V2 2.004940 1_555
F4 V2 1.920761 1_555
F5 Li2 1.953873 1_555
F5 V3 2.004077 1_555
F6 V3 1.922723 1_555
F7 Li3 1.959506 1_555
F7 V4 1.977557 1_555
F8 Li4 1.949158 1_555
F8 V4 1.989297 1_555
F9 V0 1.942504 1_544
