# generated using pymatgen
data_La16Mn15O48
_symmetry_space_group_name_H-M   'P 1'
_cell_length_a   5.53402500
_cell_length_b   12.42825845
_cell_length_c   14.82429293
_cell_angle_alpha   85.67551725
_cell_angle_beta   79.60414443
_cell_angle_gamma   78.36302234
_symmetry_Int_Tables_number   1
_chemical_formula_structural   La16Mn15O48
_chemical_formula_sum   'La16 Mn15 O48'
_cell_volume   981.43367003
_cell_formula_units_Z   1
loop_
 _symmetry_equiv_pos_site_id
 _symmetry_equiv_pos_as_xyz
  1  'x, y, z'
loop_
 _atom_site_type_symbol
 _atom_site_label
 _atom_site_symmetry_multiplicity
 _atom_site_fract_x
 _atom_site_fract_y
 _atom_site_fract_z
 _atom_site_occupancy
  La  La0  1  0.84712100  0.09034000  0.20534200  1
  La  La1  1  0.40428800  0.14359000  0.02725400  1
  La  La2  1  0.28062000  0.03231500  0.40537100  1
  La  La3  1  0.65623100  0.40477200  0.28045500  1
  La  La4  1  0.21855100  0.46783700  0.09373300  1
  La  La5  1  0.96414000  0.20761900  0.85319900  1
  La  La6  1  0.53008000  0.28115500  0.65699400  1
  La  La7  1  0.90660500  0.65663900  0.53160400  1
  La  La8  1  0.09339500  0.34336100  0.46839600  1
  La  La9  1  0.46992000  0.71884500  0.34300600  1
  La  La10  1  0.03586000  0.79238100  0.14680100  1
  La  La11  1  0.78144900  0.53216300  0.90626700  1
  La  La12  1  0.71938000  0.96768500  0.59462900  1
  La  La13  1  0.34376900  0.59522800  0.71954500  1
  La  La14  1  0.59571200  0.85641000  0.97274600  1
  La  La15  1  0.15287900  0.90966000  0.79465800  1
  Mn  Mn0  1  0.81131600  0.31306600  0.06241400  1
  Mn  Mn1  1  0.68859500  0.18662200  0.43622200  1
  Mn  Mn2  1  0.25103800  0.24960800  0.24994500  1
  Mn  Mn3  1  0.62581800  0.62515500  0.12511300  1
  Mn  Mn4  1  0.87663600  0.87413600  0.37443900  1
  Mn  Mn5  1  0.56280700  0.06347900  0.81019000  1
  Mn  Mn6  1  0.93771900  0.43615700  0.68862400  1
  Mn  Mn7  1  0.12336400  0.12586400  0.62556100  1
  Mn  Mn8  1  0.50000000  0.50000000  0.50000000  1
  Mn  Mn9  1  0.06228100  0.56384300  0.31137600  1
  Mn  Mn10  1  0.43719300  0.93652100  0.18981000  1
  Mn  Mn11  1  0.37418200  0.37484500  0.87488700  1
  Mn  Mn12  1  0.31140500  0.81337800  0.56377800  1
  Mn  Mn13  1  0.74896200  0.75039200  0.75005500  1
  Mn  Mn14  1  0.18868400  0.68693400  0.93758600  1
  O  O0  1  0.88539700  0.16005600  0.05364500  1
  O  O1  1  0.98144900  0.30011500  0.17283500  1
  O  O2  1  0.73149900  0.47531000  0.06723200  1
  O  O3  1  0.35160600  0.10233400  0.19398600  1
  O  O4  1  0.77399900  0.02173700  0.43280500  1
  O  O5  1  0.48976000  0.31002900  0.15054700  1
  O  O6  1  0.86189800  0.68316700  0.02248600  1
  O  O7  1  0.52458300  0.19982300  0.32515000  1
  O  O8  1  0.89294800  0.57402800  0.20250100  1
  O  O9  1  0.85552000  0.17400900  0.54774400  1
  O  O10  1  0.35714400  0.67065400  0.04778200  1
  O  O11  1  0.88524600  0.06726600  0.72847300  1
  O  O12  1  0.60169200  0.35175100  0.44311600  1
  O  O13  1  0.97844200  0.72848700  0.31618700  1
  O  O14  1  0.01409300  0.19524300  0.35395600  1
  O  O15  1  0.38755800  0.56736800  0.22774800  1
  O  O16  1  0.73895600  0.94725600  0.11026600  1
  O  O17  1  0.74031300  0.55743700  0.39761500  1
  O  O18  1  0.36556600  0.18190700  0.52218100  1
  O  O19  1  0.14868700  0.39733900  0.30705500  1
  O  O20  1  0.52219000  0.77319300  0.18209700  1
  O  O21  1  0.40343100  0.07827900  0.70003800  1
  O  O22  1  0.77027600  0.45136900  0.57676600  1
  O  O23  1  0.27508100  0.94956600  0.08681900  1
  O  O24  1  0.72491900  0.05043400  0.91318100  1
  O  O25  1  0.22972400  0.54863100  0.42323400  1
  O  O26  1  0.59656900  0.92172100  0.29996200  1
  O  O27  1  0.47781000  0.22680700  0.81790300  1
  O  O28  1  0.85131300  0.60266100  0.69294500  1
  O  O29  1  0.25968700  0.44256300  0.60238500  1
  O  O30  1  0.63443400  0.81809300  0.47781900  1
  O  O31  1  0.26104400  0.05274400  0.88973400  1
  O  O32  1  0.61244200  0.43263200  0.77225200  1
  O  O33  1  0.98590700  0.80475700  0.64604400  1
  O  O34  1  0.02155800  0.27151300  0.68381300  1
  O  O35  1  0.39830800  0.64824900  0.55688400  1
  O  O36  1  0.11475400  0.93273400  0.27152700  1
  O  O37  1  0.64285600  0.32934600  0.95221800  1
  O  O38  1  0.14448000  0.82599100  0.45225600  1
  O  O39  1  0.47541700  0.80017700  0.67485000  1
  O  O40  1  0.10705200  0.42597200  0.79749900  1
  O  O41  1  0.22600100  0.97826300  0.56719500  1
  O  O42  1  0.13810200  0.31683300  0.97751400  1
  O  O43  1  0.51024000  0.68997100  0.84945300  1
  O  O44  1  0.26850100  0.52469000  0.93276800  1
  O  O45  1  0.64839400  0.89766600  0.80601400  1
  O  O46  1  0.01855100  0.69988500  0.82716500  1
  O  O47  1  0.11460300  0.83994400  0.94635500  1
loop_
_geom_bond_atom_site_label_1
_geom_bond_atom_site_label_2
_geom_bond_distance
_geom_bond_site_symmetry_2
La0 O0 2.336876 1_555
La0 O36 2.461155 1_645
La0 O7 2.536223 1_555
La0 O16 2.572741 1_545
La0 O3 2.751017 1_555
La0 O3 2.799889 1_655
La0 O1 2.836389 1_555
La1 O24 2.394184 1_554
La1 O3 2.462974 1_555
La1 O42 2.494512 1_554
La1 O23 2.693017 1_545
La1 O31 2.711205 1_554
La2 O26 2.399268 1_545
La2 O14 2.413464 1_555
La2 O41 2.423774 1_545
La2 O7 2.784261 1_555
La2 O4 2.787882 1_455
La2 O36 2.792307 1_545
La2 O18 2.794261 1_555
La2 O4 2.808110 1_555
La2 O38 2.819161 1_545
La3 O1 2.410096 1_555
La3 O15 2.423594 1_555
La3 O12 2.432653 1_555
La3 O5 2.713624 1_555
La3 O8 2.770421 1_555
La3 O19 2.784355 1_555
La3 O7 2.788853 1_555
La3 O19 2.805685 1_655
La3 O17 2.824502 1_555
La4 O5 2.414158 1_555
La4 O44 2.419930 1_554
La4 O8 2.429298 1_455
La4 O1 2.760677 1_455
La4 O2 2.775532 1_455
La4 O10 2.781805 1_555
La4 O42 2.791064 1_554
La4 O15 2.803526 1_555
La4 O2 2.814140 1_555
La5 O31 2.363484 1_655
La5 O37 2.431573 1_555
La5 O34 2.559284 1_655
La5 O24 2.591540 1_555
La5 O42 2.776703 1_655
La5 O11 2.781553 1_555
La5 O27 2.793664 1_555
La5 O27 2.851183 1_655
La5 O0 2.956461 1_556
La5 O40 2.993985 1_655
La6 O27 2.411779 1_555
La6 O29 2.428967 1_555
La6 O9 2.438209 1_555
La6 O21 2.750403 1_555
La6 O32 2.789912 1_555
La6 O34 2.795903 1_555
La6 O34 2.796712 1_655
La6 O18 2.797468 1_555
La6 O22 2.800182 1_555
La7 O28 2.416801 1_555
La7 O25 2.429073 1_655
La7 O30 2.429741 1_555
La7 O33 2.743172 1_555
La7 O38 2.780663 1_655
La7 O35 2.792109 1_555
La7 O17 2.792675 1_555
La7 O35 2.793448 1_655
La7 O22 2.803992 1_555
La8 O19 2.416801 1_555
La8 O22 2.429073 1_455
La8 O18 2.429741 1_555
La8 O14 2.743172 1_555
La8 O9 2.780663 1_455
La8 O12 2.792109 1_555
La8 O29 2.792675 1_555
La8 O12 2.793448 1_455
La8 O25 2.803992 1_555
La9 O20 2.411779 1_555
La9 O17 2.428967 1_555
La9 O38 2.438209 1_555
La9 O26 2.750403 1_555
La9 O15 2.789912 1_555
La9 O13 2.795903 1_555
La9 O13 2.796712 1_455
La9 O30 2.797468 1_555
La9 O25 2.800182 1_555
La10 O16 2.363484 1_455
La10 O10 2.431573 1_555
La10 O13 2.559284 1_455
La10 O23 2.591540 1_555
La10 O6 2.776703 1_455
La10 O36 2.781553 1_555
La10 O20 2.793664 1_555
La10 O20 2.851183 1_455
La10 O47 2.956461 1_554
La10 O8 2.993985 1_455
La11 O43 2.414158 1_555
La11 O2 2.419930 1_556
La11 O40 2.429298 1_655
La11 O46 2.760677 1_655
La11 O44 2.775532 1_655
La11 O37 2.781805 1_555
La11 O6 2.791064 1_556
La11 O32 2.803526 1_555
La11 O44 2.814140 1_555
La12 O21 2.399268 1_565
La12 O33 2.413464 1_555
La12 O4 2.423774 1_565
La12 O39 2.784261 1_555
La12 O41 2.787882 1_655
La12 O11 2.792307 1_565
La12 O30 2.794261 1_555
La12 O41 2.808110 1_555
La12 O9 2.819161 1_565
La13 O46 2.410096 1_555
La13 O32 2.423594 1_555
La13 O35 2.432653 1_555
La13 O43 2.713624 1_555
La13 O40 2.770421 1_555
La13 O28 2.784355 1_555
La13 O39 2.788853 1_555
La13 O28 2.805685 1_455
La13 O29 2.824502 1_555
La14 O23 2.394184 1_556
La14 O45 2.462974 1_555
La14 O6 2.494512 1_556
La14 O24 2.693017 1_565
La14 O16 2.711205 1_556
La15 O47 2.336876 1_555
La15 O11 2.461155 1_465
La15 O39 2.536223 1_555
La15 O31 2.572741 1_565
La15 O45 2.751017 1_555
La15 O45 2.799889 1_455
La15 O46 2.836389 1_555
Mn0 O0 1.872104 1_555
Mn0 O2 1.979177 1_555
Mn0 O37 2.000575 1_554
Mn0 O1 2.011763 1_555
Mn0 O5 2.013854 1_555
Mn0 O42 2.015075 1_654
Mn1 O7 2.000114 1_555
Mn1 O14 2.002206 1_655
Mn1 O18 2.007937 1_555
Mn1 O4 2.010371 1_555
Mn1 O9 2.016126 1_555
Mn1 O12 2.017238 1_555
Mn2 O3 1.999882 1_555
Mn2 O5 2.002799 1_555
Mn2 O14 2.005987 1_555
Mn2 O7 2.011105 1_555
Mn2 O19 2.012571 1_555
Mn2 O1 2.013944 1_455
Mn3 O10 2.005706 1_555
Mn3 O8 2.007096 1_555
Mn3 O6 2.009607 1_555
Mn3 O20 2.015302 1_555
Mn3 O15 2.015564 1_555
Mn3 O2 2.041318 1_555
Mn4 O13 1.997135 1_555
Mn4 O38 2.010240 1_655
Mn4 O4 2.019411 1_565
Mn4 O36 2.021970 1_655
Mn4 O30 2.025996 1_555
Mn4 O26 2.029832 1_555
Mn5 O31 1.884817 1_555
Mn5 O24 1.886921 1_555
Mn5 O21 1.971602 1_555
Mn5 O11 1.974563 1_555
Mn5 O27 1.996285 1_555
Mn5 O45 2.022331 1_545
Mn6 O40 1.991563 1_655
Mn6 O32 1.999352 1_555
Mn6 O34 2.008608 1_655
Mn6 O29 2.008796 1_655
Mn6 O22 2.020064 1_555
Mn6 O28 2.030943 1_555
Mn7 O34 1.997135 1_555
Mn7 O9 2.010240 1_455
Mn7 O41 2.019411 1_545
Mn7 O11 2.021970 1_455
Mn7 O18 2.025996 1_555
Mn7 O21 2.029832 1_555
Mn8 O22 2.010814 1_555
Mn8 O25 2.010814 1_555
Mn8 O35 2.016747 1_555
Mn8 O12 2.016747 1_555
Mn8 O29 2.018165 1_555
Mn8 O17 2.018165 1_555
Mn9 O8 1.991563 1_455
Mn9 O15 1.999352 1_555
Mn9 O13 2.008608 1_455
Mn9 O17 2.008796 1_455
Mn9 O25 2.020064 1_555
Mn9 O19 2.030943 1_555
Mn10 O16 1.884817 1_555
Mn10 O23 1.886921 1_555
Mn10 O26 1.971602 1_555
Mn10 O36 1.974563 1_555
Mn10 O20 1.996285 1_555
Mn10 O3 2.022331 1_565
Mn11 O37 2.005706 1_555
Mn11 O40 2.007096 1_555
Mn11 O42 2.009607 1_555
Mn11 O27 2.015302 1_555
Mn11 O32 2.015564 1_555
Mn11 O44 2.041318 1_555
Mn12 O39 2.000114 1_555
Mn12 O33 2.002206 1_455
Mn12 O30 2.007937 1_555
Mn12 O41 2.010371 1_555
Mn12 O38 2.016126 1_555
Mn12 O35 2.017238 1_555
Mn13 O45 1.999882 1_555
Mn13 O43 2.002799 1_555
Mn13 O33 2.005987 1_555
Mn13 O39 2.011105 1_555
Mn13 O28 2.012571 1_555
Mn13 O46 2.013944 1_655
Mn14 O47 1.872104 1_555
Mn14 O44 1.979177 1_555
Mn14 O10 2.000575 1_556
Mn14 O46 2.011763 1_555
Mn14 O43 2.013854 1_555
Mn14 O6 2.015075 1_456
