# generated using pymatgen
data_Li3MgNi3O8
_symmetry_space_group_name_H-M   'P 1'
_cell_length_a   5.78692900
_cell_length_b   4.91879900
_cell_length_c   5.09564012
_cell_angle_alpha   71.81791133
_cell_angle_beta   90.00000000
_cell_angle_gamma   90.00000000
_symmetry_Int_Tables_number   1
_chemical_formula_structural   Li3MgNi3O8
_chemical_formula_sum   'Li3 Mg1 Ni3 O8'
_cell_volume   137.80387213
_cell_formula_units_Z   1
loop_
 _symmetry_equiv_pos_site_id
 _symmetry_equiv_pos_as_xyz
  1  'x, y, z'
loop_
 _atom_site_type_symbol
 _atom_site_label
 _atom_site_symmetry_multiplicity
 _atom_site_fract_x
 _atom_site_fract_y
 _atom_site_fract_z
 _atom_site_occupancy
  Li  Li0  1  0.50000000  0.00000000  0.50000000  1
  Li  Li1  1  0.75921000  0.50000000  0.50000000  1
  Li  Li2  1  0.24079000  0.50000000  0.50000000  1
  Mg  Mg0  1  0.50000000  0.50000000  0.00000000  1
  Ni  Ni0  1  0.75268700  0.00000000  0.00000000  1
  Ni  Ni1  1  0.00000000  0.50000000  0.00000000  1
  Ni  Ni2  1  0.24731300  0.00000000  0.00000000  1
  O  O0  1  0.50000000  0.21760700  0.77398000  1
  O  O1  1  0.50000000  0.78239300  0.22602000  1
  O  O2  1  0.76255800  0.25575200  0.20944500  1
  O  O3  1  0.76255800  0.74424800  0.79055500  1
  O  O4  1  0.00000000  0.75041900  0.20832800  1
  O  O5  1  0.00000000  0.24958100  0.79167200  1
  O  O6  1  0.23744200  0.25575200  0.20944500  1
  O  O7  1  0.23744200  0.74424800  0.79055500  1
loop_
_geom_bond_atom_site_label_1
_geom_bond_atom_site_label_2
_geom_bond_distance
_geom_bond_site_symmetry_2
Li0 O1 2.006830 1_545
Li0 O0 2.006830 1_555
Li0 O6 2.218296 1_555
Li0 O3 2.218296 1_545
Li0 O2 2.218296 1_555
Li0 O7 2.218296 1_545
Li1 O5 2.127286 1_655
Li1 O4 2.127286 1_655
Li1 O3 2.178509 1_555
Li1 O2 2.178509 1_555
Li1 O1 2.217742 1_555
Li1 O0 2.217742 1_555
Li2 O5 2.127286 1_555
Li2 O4 2.127286 1_555
Li2 O7 2.178509 1_555
Li2 O6 2.178509 1_555
Li2 O1 2.217742 1_555
Li2 O0 2.217742 1_555
Mg0 O3 2.022575 1_554
Mg0 O2 2.022575 1_555
Mg0 O6 2.022575 1_555
Mg0 O7 2.022575 1_554
Mg0 O0 2.062583 1_554
Mg0 O1 2.062583 1_555
Ni0 O3 1.887519 1_544
Ni0 O2 1.887519 1_555
Ni0 O0 1.959864 1_554
Ni0 O1 1.959864 1_545
Ni0 O4 1.966976 1_645
Ni0 O5 1.966976 1_654
Ni1 O4 1.860159 1_555
Ni1 O5 1.860159 1_554
Ni1 O6 1.915792 1_555
Ni1 O7 1.915792 1_554
Ni1 O3 1.915792 1_454
Ni1 O2 1.915792 1_455
Ni2 O7 1.887519 1_544
Ni2 O6 1.887519 1_555
Ni2 O0 1.959864 1_554
Ni2 O1 1.959864 1_545
Ni2 O4 1.966976 1_545
Ni2 O5 1.966976 1_554
