# generated using pymatgen
data_Fe5O3F7
_symmetry_space_group_name_H-M   'P 1'
_cell_length_a   4.76672549
_cell_length_b   4.77642816
_cell_length_c   15.63644961
_cell_angle_alpha   90.15364183
_cell_angle_beta   90.28295398
_cell_angle_gamma   91.33084221
_symmetry_Int_Tables_number   1
_chemical_formula_structural   Fe5O3F7
_chemical_formula_sum   'Fe10 O6 F14'
_cell_volume   355.90769743
_cell_formula_units_Z   2
loop_
 _symmetry_equiv_pos_site_id
 _symmetry_equiv_pos_as_xyz
  1  'x, y, z'
loop_
 _atom_site_type_symbol
 _atom_site_label
 _atom_site_symmetry_multiplicity
 _atom_site_fract_x
 _atom_site_fract_y
 _atom_site_fract_z
 _atom_site_occupancy
  Fe  Fe0  1  0.96393100  0.96484000  0.99966500  1
  Fe  Fe1  1  0.02111900  0.02049500  0.20005000  1
  Fe  Fe2  1  0.03534500  0.00959800  0.40506000  1
  Fe  Fe3  1  0.01958700  0.96910900  0.59986500  1
  Fe  Fe4  1  0.04141400  0.02087800  0.79443800  1
  Fe  Fe5  1  0.49871200  0.49920800  0.09894300  1
  Fe  Fe6  1  0.47512600  0.50875500  0.49401600  1
  Fe  Fe7  1  0.48102400  0.47050000  0.29736600  1
  Fe  Fe8  1  0.46499500  0.51720600  0.70755200  1
  Fe  Fe9  1  0.50210000  0.49332600  0.90230700  1
  O  O0  1  0.18037800  0.81665100  0.50252100  1
  O  O1  1  0.19404900  0.81228100  0.69972200  1
  O  O2  1  0.31776300  0.31716400  0.19882800  1
  O  O3  1  0.30679300  0.30172700  0.39469600  1
  O  O4  1  0.31191600  0.31281500  0.79782700  1
  O  O5  1  0.67378600  0.67242600  0.00443700  1
  F  F0  1  0.19793200  0.79208800  0.10327300  1
  F  F1  1  0.20631900  0.80347000  0.30504400  1
  F  F2  1  0.19431200  0.80498700  0.89175800  1
  F  F3  1  0.28022100  0.27918900  0.00471700  1
  F  F4  1  0.29594100  0.30590100  0.60594300  1
  F  F5  1  0.70689600  0.70343600  0.20370200  1
  F  F6  1  0.71077300  0.71277600  0.39163000  1
  F  F7  1  0.68622400  0.69272700  0.60418700  1
  F  F8  1  0.71081700  0.71485000  0.79331200  1
  F  F9  1  0.79166800  0.19831700  0.10284300  1
  F  F10  1  0.80516200  0.19346600  0.50453000  1
  F  F11  1  0.81131500  0.20030600  0.30644600  1
  F  F12  1  0.81116200  0.18772900  0.88908600  1
  F  F13  1  0.80322100  0.20378100  0.69623900  1
loop_
_geom_bond_atom_site_label_1
_geom_bond_atom_site_label_2
_geom_bond_distance
_geom_bond_site_symmetry_2
Fe0 O5 1.944473 1_556
Fe1 O2 1.978661 1_555
Fe2 O3 1.888613 1_555
Fe2 O0 1.917397 1_545
Fe3 O0 1.861735 1_555
Fe3 O1 1.926935 1_555
Fe4 O4 1.877549 1_555
Fe4 O1 1.936981 1_545
Fe5 O5 1.884501 1_555
Fe5 O2 1.981198 1_555
Fe6 O3 1.994021 1_555
Fe6 O0 2.061851 1_555
Fe7 O2 1.863245 1_555
Fe7 O3 1.908855 1_555
Fe8 O4 1.860794 1_555
Fe8 O1 1.937361 1_555
Fe9 O5 1.974602 1_556
Fe9 O4 2.043453 1_555
F0 Fe5 2.027505 1_555
F0 Fe1 2.058382 1_565
F0 Fe0 2.140486 1_454
F1 Fe2 2.030006 1_565
F1 Fe7 2.087035 1_555
F1 Fe1 2.141609 1_565
F2 Fe4 1.985596 1_565
F2 Fe9 2.120400 1_555
F2 Fe0 2.164762 1_455
F3 Fe5 2.070165 1_555
F3 Fe0 2.103981 1_444
F3 Fe9 2.168929 1_554
F4 Fe8 2.033050 1_555
F4 Fe3 2.057092 1_545
F4 Fe6 2.171806 1_555
F5 Fe1 2.106203 1_665
F5 Fe7 2.123851 1_555
F5 Fe5 2.133068 1_555
F6 Fe2 2.083525 1_665
F6 Fe7 2.151065 1_555
F6 Fe6 2.179379 1_555
F7 Fe3 2.043638 1_655
F7 Fe8 2.100057 1_555
F7 Fe6 2.164722 1_555
F8 Fe8 1.997191 1_555
F8 Fe4 2.124354 1_665
F8 Fe9 2.234171 1_555
F9 Fe5 2.027836 1_555
F9 Fe1 2.064369 1_655
F9 Fe0 2.136990 1_544
F10 Fe2 2.109173 1_655
F10 Fe3 2.111792 1_645
F10 Fe6 2.208774 1_555
F11 Fe7 2.063401 1_555
F11 Fe2 2.093864 1_655
F11 Fe1 2.134058 1_655
F12 Fe4 2.019993 1_655
F12 Fe9 2.108314 1_555
F12 Fe0 2.164901 1_545
F13 Fe4 2.108581 1_655
F13 Fe3 2.156614 1_645
F13 Fe8 2.232768 1_555
