# generated using pymatgen
data_Mn6O7F5
_symmetry_space_group_name_H-M   'P 1'
_cell_length_a   4.57170200
_cell_length_b   5.63998412
_cell_length_c   15.33077363
_cell_angle_alpha   90.11778246
_cell_angle_beta   90.31047067
_cell_angle_gamma   90.38620195
_symmetry_Int_Tables_number   1
_chemical_formula_structural   Mn6O7F5
_chemical_formula_sum   'Mn12 O14 F10'
_cell_volume   395.27802747
_cell_formula_units_Z   2
loop_
 _symmetry_equiv_pos_site_id
 _symmetry_equiv_pos_as_xyz
  1  'x, y, z'
loop_
 _atom_site_type_symbol
 _atom_site_label
 _atom_site_symmetry_multiplicity
 _atom_site_fract_x
 _atom_site_fract_y
 _atom_site_fract_z
 _atom_site_occupancy
  Mn  Mn0  1  0.97747300  0.84005800  0.40964100  1
  Mn  Mn1  1  0.98966900  0.15471400  0.24352300  1
  Mn  Mn2  1  0.98248700  0.83974900  0.08057700  1
  Mn  Mn3  1  0.98010300  0.83429500  0.74311300  1
  Mn  Mn4  1  0.99720400  0.15006000  0.57471500  1
  Mn  Mn5  1  0.96917300  0.13976000  0.91252300  1
  Mn  Mn6  1  0.50240600  0.65344200  0.58560200  1
  Mn  Mn7  1  0.50164100  0.65806700  0.92189800  1
  Mn  Mn8  1  0.50004200  0.65135600  0.25456600  1
  Mn  Mn9  1  0.49470300  0.36648000  0.09410700  1
  Mn  Mn10  1  0.49772900  0.36520700  0.42595300  1
  Mn  Mn11  1  0.51111200  0.36152100  0.75313500  1
  O  O0  1  0.78084500  0.88673400  0.30022000  1
  O  O1  1  0.78204200  0.89146900  0.63350400  1
  O  O2  1  0.77796100  0.88433700  0.97088500  1
  O  O3  1  0.76790900  0.11501400  0.13574300  1
  O  O4  1  0.76682400  0.11374100  0.46717400  1
  O  O5  1  0.76932400  0.10742600  0.80221200  1
  O  O6  1  0.72144800  0.60314700  0.14742500  1
  O  O7  1  0.71827900  0.60864700  0.47782700  1
  O  O8  1  0.71867000  0.60060800  0.81693400  1
  O  O9  1  0.27335900  0.61741900  0.03029400  1
  O  O10  1  0.27570700  0.38394700  0.19720300  1
  O  O11  1  0.27231400  0.61383300  0.36198000  1
  O  O12  1  0.27873600  0.38189400  0.52899600  1
  O  O13  1  0.28049500  0.61756700  0.69437600  1
  F  F0  1  0.74061300  0.38122100  0.31938100  1
  F  F1  1  0.76387100  0.39061300  0.64214300  1
  F  F2  1  0.72899500  0.38069500  0.98518500  1
  F  F3  1  0.24636300  0.38135900  0.86935400  1
  F  F4  1  0.23402600  0.88313600  0.18431400  1
  F  F5  1  0.22860900  0.87931300  0.51568600  1
  F  F6  1  0.24587000  0.12821600  0.35662200  1
  F  F7  1  0.24108100  0.12976600  0.02298100  1
  F  F8  1  0.23080900  0.87737000  0.85175900  1
  F  F9  1  0.25210500  0.12781900  0.68844900  1
loop_
_geom_bond_atom_site_label_1
_geom_bond_atom_site_label_2
_geom_bond_distance
_geom_bond_site_symmetry_2
Mn0 O0 1.918350 1_555
Mn0 O11 2.002188 1_655
Mn0 O4 2.027716 1_565
Mn0 O7 2.049020 1_555
Mn1 O3 1.945635 1_555
Mn1 O10 1.968975 1_655
Mn1 O0 1.986510 1_545
Mn2 O2 1.937365 1_554
Mn2 O9 1.991115 1_655
Mn2 O3 2.027796 1_565
Mn2 O6 2.062179 1_555
Mn3 O1 1.933198 1_555
Mn3 O13 1.992071 1_655
Mn3 O5 2.036220 1_565
Mn3 O8 2.108545 1_555
Mn4 O4 1.961199 1_555
Mn4 O12 1.961725 1_655
Mn4 O1 1.975508 1_545
Mn5 O2 1.907036 1_545
Mn5 O5 1.925552 1_555
Mn6 O7 1.946058 1_555
Mn6 O13 1.966718 1_555
Mn6 O1 1.984566 1_555
Mn6 O12 2.026843 1_555
Mn7 O8 1.923127 1_555
Mn7 O2 1.937124 1_555
Mn7 O9 1.980008 1_556
Mn8 O6 1.953550 1_555
Mn8 O11 1.964047 1_555
Mn8 O0 1.965625 1_555
Mn8 O10 2.015875 1_555
Mn9 O6 1.868710 1_555
Mn9 O10 1.878304 1_555
Mn9 O3 1.999480 1_555
Mn9 O9 1.999594 1_555
Mn10 O7 1.871464 1_555
Mn10 O12 1.877377 1_555
Mn10 O4 1.985714 1_555
Mn10 O11 2.001088 1_555
Mn11 O8 1.908569 1_555
Mn11 O13 2.006002 1_555
Mn11 O5 2.007725 1_555
F0 Mn10 1.982284 1_555
F0 Mn1 2.075755 1_555
F0 Mn8 2.129593 1_555
F1 Mn4 2.018134 1_555
F1 Mn11 2.068215 1_555
F1 Mn6 2.096549 1_555
F2 Mn9 1.990205 1_556
F2 Mn5 2.078520 1_555
F2 Mn7 2.118065 1_555
F3 Mn5 1.972335 1_455
F3 Mn7 2.099182 1_555
F3 Mn11 2.162499 1_555
F4 Mn2 1.971382 1_455
F4 Mn8 2.088269 1_555
F4 Mn1 2.108640 1_465
F5 Mn0 1.996279 1_455
F5 Mn4 2.072767 1_465
F5 Mn6 2.085931 1_555
F6 Mn10 2.049938 1_555
F6 Mn1 2.093329 1_455
F6 Mn0 2.190191 1_445
F7 Mn9 2.067668 1_555
F7 Mn5 2.096325 1_454
F7 Mn2 2.200903 1_445
F8 Mn3 2.029999 1_455
F8 Mn7 2.056893 1_555
F8 Mn5 2.125750 1_465
F9 Mn11 2.020823 1_555
F9 Mn4 2.096384 1_455
F9 Mn3 2.231247 1_445
