# generated using pymatgen
data_Cr(PO3)2
_symmetry_space_group_name_H-M   'P 1'
_cell_length_a   7.67996011
_cell_length_b   7.67996011
_cell_length_c   9.84656814
_cell_angle_alpha   65.20411164
_cell_angle_beta   65.20411164
_cell_angle_gamma   64.57327619
_symmetry_Int_Tables_number   1
_chemical_formula_structural   Cr(PO3)2
_chemical_formula_sum   'Cr4 P8 O24'
_cell_volume   455.41903551
_cell_formula_units_Z   4
loop_
 _symmetry_equiv_pos_site_id
 _symmetry_equiv_pos_as_xyz
  1  'x, y, z'
loop_
 _atom_site_type_symbol
 _atom_site_label
 _atom_site_symmetry_multiplicity
 _atom_site_fract_x
 _atom_site_fract_y
 _atom_site_fract_z
 _atom_site_occupancy
  Cr  Cr0  1  0.05336454  0.94663546  0.25000000  1
  Cr  Cr1  1  -0.00000000  0.50000000  0.50000000  1
  Cr  Cr2  1  0.50000000  -0.00000000  0.00000000  1
  Cr  Cr3  1  0.94663546  0.05336454  0.75000000  1
  P  P0  1  0.68373439  0.68722353  0.80627704  1
  P  P1  1  0.24984681  0.72759693  0.97843672  1
  P  P2  1  0.68722353  0.68373439  0.30627704  1
  P  P3  1  0.27240307  0.75015319  0.52156328  1
  P  P4  1  0.72759693  0.24984681  0.47843672  1
  P  P5  1  0.31277647  0.31626561  0.69372296  1
  P  P6  1  0.75015319  0.27240307  0.02156328  1
  P  P7  1  0.31626561  0.31277647  0.19372296  1
  O  O0  1  0.79569818  0.65417779  0.65166732  1
  O  O1  1  0.26993057  0.79833039  0.09025512  1
  O  O2  1  0.45640568  0.70105977  0.84080555  1
  O  O3  1  0.86541766  0.68841570  0.32915916  1
  O  O4  1  0.08162983  0.84406640  0.90984998  1
  O  O5  1  0.79833039  0.26993057  0.59025512  1
  O  O6  1  0.24190782  0.50234707  0.05734429  1
  O  O7  1  0.15593360  0.91837017  0.59015002  1
  O  O8  1  0.49765293  0.75809218  0.44265571  1
  O  O9  1  0.65417779  0.79569818  0.15166732  1
  O  O10  1  0.29894023  0.54359432  0.65919445  1
  O  O11  1  0.31158430  0.13458234  0.17084084  1
  O  O12  1  0.68841570  0.86541766  0.82915916  1
  O  O13  1  0.70105977  0.45640568  0.34080555  1
  O  O14  1  0.34582221  0.20430182  0.84833268  1
  O  O15  1  0.50234707  0.24190782  0.55734429  1
  O  O16  1  0.84406640  0.08162983  0.40984998  1
  O  O17  1  0.75809218  0.49765293  0.94265571  1
  O  O18  1  0.20166961  0.73006943  0.40974488  1
  O  O19  1  0.91837017  0.15593360  0.09015002  1
  O  O20  1  0.13458234  0.31158430  0.67084084  1
  O  O21  1  0.54359432  0.29894023  0.15919445  1
  O  O22  1  0.73006943  0.20166961  0.90974488  1
  O  O23  1  0.20430182  0.34582221  0.34833268  1
loop_
_geom_bond_atom_site_label_1
_geom_bond_atom_site_label_2
_geom_bond_distance
_geom_bond_site_symmetry_2
Cr0 O19 1.987859 1_465
Cr0 O16 1.987859 1_465
Cr0 O18 2.054101 1_555
Cr0 O1 2.054101 1_555
Cr0 O11 2.615648 1_565
Cr0 O3 2.615648 1_455
Cr1 O23 2.004142 1_555
Cr1 O0 2.004142 1_455
Cr1 O20 2.030837 1_555
Cr1 O3 2.030837 1_455
Cr1 O18 2.487771 1_555
Cr1 O5 2.487771 1_455
Cr2 O9 2.004142 1_545
Cr2 O14 2.004142 1_554
Cr2 O11 2.030837 1_555
Cr2 O12 2.030837 1_544
Cr2 O22 2.487771 1_554
Cr2 O1 2.487771 1_545
Cr3 O7 1.987859 1_645
Cr3 O4 1.987859 1_645
Cr3 O5 2.054101 1_555
Cr3 O22 2.054101 1_555
Cr3 O20 2.615648 1_655
Cr3 O12 2.615648 1_545
O0 P0 1.469727 1_555
O1 P1 1.499075 1_554
O2 P1 1.595447 1_555
O2 P0 1.596272 1_555
O3 P2 1.494185 1_555
O4 P1 1.469014 1_555
O5 P4 1.499075 1_555
O6 P1 1.588534 1_554
O6 P7 1.593250 1_555
O7 P3 1.469014 1_555
O8 P3 1.588534 1_555
O8 P2 1.593250 1_555
O9 P2 1.469727 1_555
O10 P3 1.595447 1_555
O10 P5 1.596272 1_555
O11 P7 1.494185 1_555
O12 P0 1.494185 1_555
O13 P4 1.595447 1_555
O13 P2 1.596272 1_555
O14 P5 1.469727 1_555
O15 P4 1.588534 1_555
O15 P5 1.593250 1_555
O16 P4 1.469014 1_555
O17 P6 1.588534 1_556
O17 P0 1.593250 1_555
O18 P3 1.499075 1_555
O19 P6 1.469014 1_555
O20 P5 1.494185 1_555
O21 P6 1.595447 1_555
O21 P7 1.596272 1_555
O22 P6 1.499075 1_556
O23 P7 1.469727 1_555
