# generated using pymatgen
data_Na6Bi2B4PO16
_symmetry_space_group_name_H-M   'P 1'
_cell_length_a   10.25301297
_cell_length_b   10.25301297
_cell_length_c   10.25301297
_cell_angle_alpha   60.00000000
_cell_angle_beta   60.00000000
_cell_angle_gamma   60.00000000
_symmetry_Int_Tables_number   1
_chemical_formula_structural   Na6Bi2B4PO16
_chemical_formula_sum   'Na12 Bi4 B8 P2 O32'
_cell_volume   762.14836565
_cell_formula_units_Z   2
loop_
 _symmetry_equiv_pos_site_id
 _symmetry_equiv_pos_as_xyz
  1  'x, y, z'
loop_
 _atom_site_type_symbol
 _atom_site_label
 _atom_site_symmetry_multiplicity
 _atom_site_fract_x
 _atom_site_fract_y
 _atom_site_fract_z
 _atom_site_occupancy
  Na  Na0  1  0.70320400  0.70320400  0.29679600  1
  Na  Na1  1  0.95320400  0.95320400  0.54679600  1
  Na  Na2  1  0.29679600  0.70320400  0.70320400  1
  Na  Na3  1  0.70320400  0.29679600  0.29679600  1
  Na  Na4  1  0.95320400  0.54679600  0.95320400  1
  Na  Na5  1  0.54679600  0.95320400  0.54679600  1
  Na  Na6  1  0.29679600  0.70320400  0.29679600  1
  Na  Na7  1  0.70320400  0.29679600  0.70320400  1
  Na  Na8  1  0.54679600  0.95320400  0.95320400  1
  Na  Na9  1  0.54679600  0.54679600  0.95320400  1
  Na  Na10  1  0.95320400  0.54679600  0.54679600  1
  Na  Na11  1  0.29679600  0.29679600  0.70320400  1
  Bi  Bi0  1  0.62500000  0.12500000  0.12500000  1
  Bi  Bi1  1  0.12500000  0.62500000  0.12500000  1
  Bi  Bi2  1  0.12500000  0.12500000  0.12500000  1
  Bi  Bi3  1  0.12500000  0.12500000  0.62500000  1
  B  B0  1  0.34525600  0.96423200  0.34525600  1
  B  B1  1  0.90474400  0.90474400  0.90474400  1
  B  B2  1  0.28576800  0.90474400  0.90474400  1
  B  B3  1  0.34525600  0.34525600  0.96423200  1
  B  B4  1  0.96423200  0.34525600  0.34525600  1
  B  B5  1  0.90474400  0.90474400  0.28576800  1
  B  B6  1  0.90474400  0.28576800  0.90474400  1
  B  B7  1  0.34525600  0.34525600  0.34525600  1
  P  P0  1  0.75000000  0.75000000  0.75000000  1
  P  P1  1  0.50000000  0.50000000  0.50000000  1
  O  O0  1  0.68795000  0.68795000  0.68795000  1
  O  O1  1  0.93615100  0.68795000  0.68795000  1
  O  O2  1  0.68795000  0.68795000  0.93615100  1
  O  O3  1  0.68795000  0.93615100  0.68795000  1
  O  O4  1  0.91715100  0.03224000  0.28827600  1
  O  O5  1  0.76233300  0.28827600  0.03224000  1
  O  O6  1  0.91715100  0.76233300  0.03224000  1
  O  O7  1  0.21776000  0.96172400  0.33284900  1
  O  O8  1  0.03224000  0.91715100  0.76233300  1
  O  O9  1  0.28827600  0.76233300  0.91715100  1
  O  O10  1  0.76233300  0.03224000  0.91715100  1
  O  O11  1  0.33284900  0.96172400  0.48766700  1
  O  O12  1  0.96172400  0.33284900  0.21776000  1
  O  O13  1  0.03224000  0.76233300  0.28827600  1
  O  O14  1  0.96172400  0.21776000  0.48766700  1
  O  O15  1  0.76233300  0.91715100  0.28827600  1
  O  O16  1  0.28827600  0.03224000  0.76233300  1
  O  O17  1  0.48766700  0.33284900  0.96172400  1
  O  O18  1  0.28827600  0.91715100  0.03223900  1
  O  O19  1  0.21776100  0.48766700  0.96172400  1
  O  O20  1  0.91715100  0.28827600  0.76233300  1
  O  O21  1  0.48766700  0.21776100  0.33284900  1
  O  O22  1  0.96172400  0.48766700  0.33284900  1
  O  O23  1  0.21776100  0.33284900  0.48766700  1
  O  O24  1  0.33284900  0.48766700  0.21776000  1
  O  O25  1  0.03223900  0.28827600  0.91715100  1
  O  O26  1  0.48766700  0.96172400  0.21776000  1
  O  O27  1  0.33284900  0.21776000  0.96172400  1
  O  O28  1  0.56205000  0.31384900  0.56205000  1
  O  O29  1  0.31384900  0.56205000  0.56205000  1
  O  O30  1  0.56205000  0.56205000  0.31384900  1
  O  O31  1  0.56205000  0.56205000  0.56205000  1
loop_
_geom_bond_atom_site_label_1
_geom_bond_atom_site_label_2
_geom_bond_distance
_geom_bond_site_symmetry_2
Na0 O31 2.409997 1_555
Na0 O30 2.410003 1_555
Na0 O15 2.504465 1_555
Na0 O6 2.504465 1_555
Na0 O26 2.520191 1_555
Na0 O22 2.520191 1_555
Na1 O1 2.409994 1_555
Na1 O3 2.409994 1_555
Na1 O14 2.504465 1_565
Na1 O7 2.504465 1_655
Na1 O4 2.520191 1_565
Na1 O8 2.520191 1_655
Na2 O31 2.409997 1_555
Na2 O29 2.410003 1_555
Na2 O9 2.504465 1_555
Na2 O8 2.504465 1_555
Na2 O19 2.520188 1_555
Na2 O11 2.520191 1_555
Na3 O28 2.409994 1_555
Na3 O30 2.409994 1_555
Na3 O4 2.504465 1_555
Na3 O5 2.504465 1_555
Na3 O21 2.520184 1_555
Na3 O12 2.520191 1_555
Na4 O1 2.409994 1_555
Na4 O2 2.409994 1_555
Na4 O12 2.504465 1_556
Na4 O19 2.504475 1_655
Na4 O6 2.520191 1_556
Na4 O25 2.520194 1_655
Na5 O0 2.409997 1_555
Na5 O3 2.410003 1_555
Na5 O11 2.504465 1_555
Na5 O21 2.504471 1_565
Na5 O15 2.520191 1_555
Na5 O16 2.520191 1_565
Na6 O30 2.409994 1_555
Na6 O29 2.409994 1_555
Na6 O13 2.504465 1_555
Na6 O18 2.504472 1_555
Na6 O7 2.520191 1_555
Na6 O24 2.520191 1_555
Na7 O31 2.409997 1_555
Na7 O28 2.410003 1_555
Na7 O10 2.504465 1_555
Na7 O20 2.504465 1_555
Na7 O17 2.520191 1_555
Na7 O14 2.520191 1_555
Na8 O2 2.409994 1_555
Na8 O3 2.409994 1_555
Na8 O26 2.504465 1_556
Na8 O27 2.504465 1_565
Na8 O10 2.520191 1_565
Na8 O18 2.520194 1_556
Na9 O0 2.409997 1_555
Na9 O2 2.410003 1_555
Na9 O24 2.504465 1_556
Na9 O17 2.504465 1_555
Na9 O9 2.520191 1_555
Na9 O5 2.520191 1_556
Na10 O0 2.409997 1_555
Na10 O1 2.410003 1_555
Na10 O22 2.504465 1_555
Na10 O23 2.504471 1_655
Na10 O20 2.520191 1_555
Na10 O13 2.520191 1_655
Na11 O29 2.409994 1_555
Na11 O28 2.409994 1_555
Na11 O16 2.504465 1_555
Na11 O25 2.504472 1_555
Na11 O23 2.520184 1_555
Na11 O27 2.520191 1_555
Bi0 O5 2.261772 1_555
Bi0 O15 2.261772 1_545
Bi0 O10 2.261772 1_554
Bi0 O17 2.261772 1_554
Bi0 O26 2.261772 1_545
Bi0 O21 2.261778 1_555
Bi1 O19 2.261769 1_554
Bi1 O13 2.261772 1_555
Bi1 O9 2.261772 1_554
Bi1 O24 2.261772 1_555
Bi1 O6 2.261772 1_455
Bi1 O22 2.261772 1_455
Bi2 O12 2.261772 1_455
Bi2 O7 2.261772 1_545
Bi2 O27 2.261772 1_554
Bi2 O4 2.261772 1_455
Bi2 O18 2.261777 1_545
Bi2 O25 2.261777 1_554
Bi3 O16 2.261772 1_555
Bi3 O20 2.261772 1_455
Bi3 O8 2.261772 1_545
Bi3 O11 2.261772 1_545
Bi3 O14 2.261772 1_455
Bi3 O23 2.261778 1_555
B0 O11 1.388826 1_555
B0 O26 1.388826 1_555
B0 O7 1.388826 1_555
B1 O6 1.388826 1_556
B1 O8 1.388826 1_655
B1 O10 1.388826 1_565
B2 O18 1.388816 1_556
B2 O16 1.388826 1_565
B2 O9 1.388826 1_555
B3 O19 1.388822 1_555
B3 O17 1.388826 1_555
B3 O27 1.388826 1_555
B4 O22 1.388826 1_555
B4 O14 1.388826 1_555
B4 O12 1.388826 1_555
B5 O4 1.388826 1_565
B5 O13 1.388826 1_655
B5 O15 1.388826 1_555
B6 O25 1.388816 1_655
B6 O5 1.388826 1_556
B6 O20 1.388826 1_555
B7 O23 1.388822 1_555
B7 O21 1.388822 1_555
B7 O24 1.388826 1_555
O0 P0 1.558364 1_555
O1 P0 1.558372 1_555
O2 P0 1.558372 1_555
O3 P0 1.558372 1_555
O28 P1 1.558372 1_555
O29 P1 1.558372 1_555
O30 P1 1.558372 1_555
O31 P1 1.558364 1_555
