# generated using pymatgen
data_Li5NiO3F2
_symmetry_space_group_name_H-M   'P 1'
_cell_length_a   5.07913065
_cell_length_b   5.07913065
_cell_length_c   5.86265591
_cell_angle_alpha   72.65121374
_cell_angle_beta   72.65121374
_cell_angle_gamma   45.51716244
_symmetry_Int_Tables_number   1
_chemical_formula_structural   Li5NiO3F2
_chemical_formula_sum   'Li5 Ni1 O3 F2'
_cell_volume   102.10811532
_cell_formula_units_Z   1
loop_
 _symmetry_equiv_pos_site_id
 _symmetry_equiv_pos_as_xyz
  1  'x, y, z'
loop_
 _atom_site_type_symbol
 _atom_site_label
 _atom_site_symmetry_multiplicity
 _atom_site_fract_x
 _atom_site_fract_y
 _atom_site_fract_z
 _atom_site_occupancy
  Li  Li0  1  0.32579700  0.32579700  0.37489800  1
  Li  Li1  1  0.30625700  0.30625700  0.80232000  1
  Li  Li2  1  0.69374300  0.69374300  0.19768000  1
  Li  Li3  1  0.67420300  0.67420300  0.62510200  1
  Li  Li4  1  0.00000000  0.00000000  0.00000000  1
  Ni  Ni0  1  0.00000000  0.00000000  0.50000000  1
  O  O0  1  0.86209800  0.86209800  0.32330500  1
  O  O1  1  0.13790200  0.13790200  0.67669500  1
  O  O2  1  0.50000000  0.50000000  0.50000000  1
  F  F0  1  0.82274400  0.82274400  0.84556300  1
  F  F1  1  0.17725600  0.17725600  0.15443700  1
loop_
_geom_bond_atom_site_label_1
_geom_bond_atom_site_label_2
_geom_bond_distance
_geom_bond_site_symmetry_2
Li0 O2 1.993688 1_555
Li0 O0 2.000316 1_455
Li0 O0 2.000316 1_545
Li0 O1 2.052902 1_555
Li1 O1 1.944392 1_555
Li1 O2 2.086820 1_555
Li2 O0 1.944392 1_555
Li2 O2 2.086820 1_555
Li3 O2 1.993688 1_555
Li3 O1 2.000316 1_565
Li3 O1 2.000316 1_655
Li3 O0 2.052902 1_555
Li4 O0 1.917769 1_445
Li4 O1 1.917769 1_554
Ni0 O0 1.899265 1_445
Ni0 O1 1.899265 1_555
Ni0 O2 1.964857 1_455
Ni0 O2 1.964857 1_545
F0 Li1 1.993517 1_655
F0 Li1 1.993517 1_565
F0 Li2 2.026929 1_556
F0 Li4 2.132848 1_666
F0 Ni0 2.164678 1_665
F0 Li3 2.183966 1_555
F1 Li2 1.993517 1_545
F1 Li2 1.993517 1_455
F1 Li1 2.026929 1_554
F1 Li4 2.132848 1_555
F1 Ni0 2.164678 1_555
F1 Li0 2.183966 1_555
