# generated using pymatgen
data_Li2Fe(PO3)4
_symmetry_space_group_name_H-M   'P 1'
_cell_length_a   9.44819400
_cell_length_b   7.58654300
_cell_length_c   8.65143524
_cell_angle_alpha   57.46325688
_cell_angle_beta   90.00000000
_cell_angle_gamma   90.00000000
_symmetry_Int_Tables_number   1
_chemical_formula_structural   Li2Fe(PO3)4
_chemical_formula_sum   'Li4 Fe2 P8 O24'
_cell_volume   522.79632251
_cell_formula_units_Z   2
loop_
 _symmetry_equiv_pos_site_id
 _symmetry_equiv_pos_as_xyz
  1  'x, y, z'
loop_
 _atom_site_type_symbol
 _atom_site_label
 _atom_site_symmetry_multiplicity
 _atom_site_fract_x
 _atom_site_fract_y
 _atom_site_fract_z
 _atom_site_occupancy
  Li  Li0  1  0.65972200  0.77145100  0.35427400  1
  Li  Li1  1  0.84027800  0.77145100  0.85427400  1
  Li  Li2  1  0.15972200  0.22854900  0.14572600  1
  Li  Li3  1  0.34027800  0.22854900  0.64572600  1
  Fe  Fe0  1  0.00000000  0.00000000  0.00000000  1
  Fe  Fe1  1  0.50000000  0.00000000  0.50000000  1
  P  P0  1  0.59423500  0.45372300  0.73228100  1
  P  P1  1  0.09423500  0.54627700  0.76771900  1
  P  P2  1  0.21722700  0.78803700  0.38219800  1
  P  P3  1  0.71722700  0.21196300  0.11780200  1
  P  P4  1  0.28277300  0.78803700  0.88219800  1
  P  P5  1  0.78277300  0.21196300  0.61780200  1
  P  P6  1  0.90576500  0.45372300  0.23228100  1
  P  P7  1  0.40576500  0.54627700  0.26771900  1
  O  O0  1  0.72729800  0.35888800  0.68387100  1
  O  O1  1  0.11254500  0.31214300  0.88768100  1
  O  O2  1  0.45800400  0.35595300  0.73186300  1
  O  O3  1  0.63433200  0.38765600  0.93823200  1
  O  O4  1  0.13433200  0.61234400  0.56176800  1
  O  O5  1  0.11243500  0.93853900  0.24176100  1
  O  O6  1  0.95800400  0.64404700  0.76813700  1
  O  O7  1  0.61254500  0.68785700  0.61231900  1
  O  O8  1  0.83270100  0.11036800  0.07521500  1
  O  O9  1  0.22729800  0.64111200  0.81612900  1
  O  O10  1  0.33270100  0.88963200  0.42478500  1
  O  O11  1  0.61243500  0.06146100  0.25823900  1
  O  O12  1  0.38756500  0.93853900  0.74176100  1
  O  O13  1  0.66729900  0.11036800  0.57521500  1
  O  O14  1  0.77270200  0.35888800  0.18387100  1
  O  O15  1  0.16729900  0.88963200  0.92478500  1
  O  O16  1  0.38745500  0.31214300  0.38768100  1
  O  O17  1  0.04199600  0.35595300  0.23186300  1
  O  O18  1  0.88756500  0.06146100  0.75823900  1
  O  O19  1  0.86566800  0.38765600  0.43823200  1
  O  O20  1  0.36566800  0.61234400  0.06176800  1
  O  O21  1  0.54199600  0.64404700  0.26813700  1
  O  O22  1  0.88745500  0.68785700  0.11231900  1
  O  O23  1  0.27270200  0.64111200  0.31612900  1
loop_
_geom_bond_atom_site_label_1
_geom_bond_atom_site_label_2
_geom_bond_distance
_geom_bond_site_symmetry_2
Li0 O21 1.871249 1_555
Li0 O11 1.940188 1_565
Li0 O7 2.015391 1_555
Li1 O6 1.871249 1_555
Li1 O18 1.940188 1_565
Li1 O22 2.015391 1_556
Li2 O17 1.871249 1_555
Li2 O5 1.940188 1_545
Li2 O1 2.015391 1_554
Li3 O2 1.871249 1_555
Li3 O12 1.940188 1_545
Li3 O16 2.015391 1_555
Fe0 O8 2.051619 1_455
Fe0 O15 2.051619 1_544
Fe0 O18 2.161378 1_454
Fe0 O5 2.161378 1_545
Fe0 O22 2.281997 1_445
Fe0 O1 2.281997 1_554
Fe1 O10 2.051619 1_545
Fe1 O13 2.051619 1_555
Fe1 O11 2.161378 1_555
Fe1 O12 2.161378 1_545
Fe1 O7 2.281997 1_545
Fe1 O16 2.281997 1_555
O0 P5 1.590356 1_555
O0 P0 1.611750 1_555
O1 P1 1.509692 1_555
O2 P0 1.486537 1_555
O3 P3 1.605022 1_556
O3 P0 1.615180 1_555
O4 P2 1.605022 1_555
O4 P1 1.615180 1_555
O5 P2 1.505958 1_555
O6 P1 1.486537 1_655
O7 P0 1.509692 1_555
O8 P3 1.491846 1_555
O9 P4 1.590356 1_555
O9 P1 1.611750 1_555
O10 P2 1.491846 1_555
O11 P3 1.505958 1_555
O12 P4 1.505958 1_555
O13 P5 1.491846 1_555
O14 P3 1.590356 1_555
O14 P6 1.611750 1_555
O15 P4 1.491846 1_555
O16 P7 1.509692 1_555
O17 P6 1.486537 1_455
O18 P5 1.505958 1_555
O19 P5 1.605022 1_555
O19 P6 1.615180 1_555
O20 P4 1.605022 1_554
O20 P7 1.615180 1_555
O21 P7 1.486537 1_555
O22 P6 1.509692 1_555
O23 P2 1.590356 1_555
O23 P7 1.611750 1_555
