# generated using pymatgen
data_Li2Mn3FeO8
_symmetry_space_group_name_H-M   'P 1'
_cell_length_a   8.30662229
_cell_length_b   8.29919718
_cell_length_c   8.30861136
_cell_angle_alpha   89.97981997
_cell_angle_beta   89.91594094
_cell_angle_gamma   89.98695027
_symmetry_Int_Tables_number   1
_chemical_formula_structural   Li2Mn3FeO8
_chemical_formula_sum   'Li8 Mn12 Fe4 O32'
_cell_volume   572.78084526
_cell_formula_units_Z   4
loop_
 _symmetry_equiv_pos_site_id
 _symmetry_equiv_pos_as_xyz
  1  'x, y, z'
loop_
 _atom_site_type_symbol
 _atom_site_label
 _atom_site_symmetry_multiplicity
 _atom_site_fract_x
 _atom_site_fract_y
 _atom_site_fract_z
 _atom_site_occupancy
  Li  Li0  1  0.00427700  0.00403200  0.00429700  1
  Li  Li1  1  0.24529400  0.24519400  0.24524400  1
  Li  Li2  1  0.25457400  0.75456500  0.74559100  1
  Li  Li3  1  0.49550300  0.99574800  0.50454900  1
  Li  Li4  1  0.50499400  0.49538900  0.99565000  1
  Li  Li5  1  0.74595200  0.25442500  0.75480800  1
  Li  Li6  1  0.75428400  0.74596700  0.25452300  1
  Li  Li7  1  0.99521500  0.50476700  0.49548200  1
  Mn  Mn0  1  0.11829300  0.13145400  0.62496800  1
  Mn  Mn1  1  0.12484400  0.38163800  0.86827100  1
  Mn  Mn2  1  0.13170200  0.62528100  0.11833400  1
  Mn  Mn3  1  0.36833300  0.37487700  0.61819500  1
  Mn  Mn4  1  0.37510900  0.61835200  0.36824400  1
  Mn  Mn5  1  0.38151200  0.86851200  0.12482300  1
  Mn  Mn6  1  0.61835400  0.36854200  0.37503300  1
  Mn  Mn7  1  0.62506600  0.11829000  0.13167300  1
  Mn  Mn8  1  0.63164100  0.87487100  0.88150400  1
  Mn  Mn9  1  0.86846700  0.12492800  0.38170700  1
  Mn  Mn10  1  0.87490700  0.88145800  0.63169100  1
  Mn  Mn11  1  0.88142300  0.63168000  0.87500100  1
  Fe  Fe0  1  0.12510800  0.87502600  0.37505200  1
  Fe  Fe1  1  0.37504000  0.12532900  0.87511700  1
  Fe  Fe2  1  0.62483700  0.62473500  0.62515400  1
  Fe  Fe3  1  0.87533800  0.37506100  0.12537400  1
  O  O0  1  0.09930300  0.12367400  0.39247800  1
  O  O1  1  0.10738100  0.90048900  0.62351100  1
  O  O2  1  0.11586700  0.61619600  0.88418100  1
  O  O3  1  0.12626200  0.15051400  0.85742200  1
  O  O4  1  0.12353200  0.39222500  0.09915600  1
  O  O5  1  0.13398700  0.36615600  0.63418500  1
  O  O6  1  0.14230200  0.62625000  0.34919100  1
  O  O7  1  0.15091700  0.85778000  0.12650900  1
  O  O8  1  0.34900800  0.14216800  0.62661500  1
  O  O9  1  0.35750100  0.37400600  0.84910200  1
  O  O10  1  0.36593600  0.63384500  0.13405400  1
  O  O11  1  0.37639900  0.60778400  0.59902500  1
  O  O12  1  0.37361400  0.84955500  0.35727400  1
  O  O13  1  0.38407700  0.38379600  0.38407200  1
  O  O14  1  0.39272200  0.09944300  0.12335600  1
  O  O15  1  0.40087000  0.87625600  0.89243400  1
  O  O16  1  0.59919500  0.37591000  0.60739300  1
  O  O17  1  0.60738300  0.59939100  0.37640500  1
  O  O18  1  0.61596700  0.88387900  0.11575400  1
  O  O19  1  0.62676800  0.34942700  0.14247500  1
  O  O20  1  0.62371700  0.10797600  0.90094200  1
  O  O21  1  0.63418000  0.13376600  0.36578600  1
  O  O22  1  0.64230700  0.87396300  0.65091400  1
  O  O23  1  0.65088000  0.64228800  0.87355700  1
  O  O24  1  0.84918100  0.35766400  0.37352800  1
  O  O25  1  0.85784200  0.12589300  0.15083700  1
  O  O26  1  0.86581000  0.86616800  0.86583400  1
  O  O27  1  0.87645100  0.89212100  0.40097600  1
  O  O28  1  0.87329600  0.65057400  0.64268700  1
  O  O29  1  0.88400600  0.11612500  0.61584800  1
  O  O30  1  0.89252900  0.40065400  0.87665500  1
  O  O31  1  0.90074500  0.62408200  0.10769900  1
loop_
_geom_bond_atom_site_label_1
_geom_bond_atom_site_label_2
_geom_bond_distance
_geom_bond_site_symmetry_2
Li0 O26 1.990216 1_444
Li0 O25 1.995190 1_455
Li0 O3 1.997427 1_554
Li0 O7 1.997529 1_545
Li1 O0 1.994882 1_555
Li1 O14 1.996256 1_555
Li1 O4 1.996811 1_555
Li1 O13 1.997016 1_555
Li2 O2 1.991972 1_555
Li2 O11 1.996943 1_555
Li2 O15 1.997767 1_555
Li2 O1 1.998129 1_555
Li3 O21 1.990981 1_565
Li3 O8 1.995645 1_565
Li3 O22 1.997598 1_555
Li3 O12 1.999937 1_555
Li4 O10 1.993347 1_556
Li4 O23 1.995011 1_555
Li4 O19 1.995197 1_556
Li4 O9 2.001058 1_555
Li5 O29 1.990460 1_555
Li5 O20 1.994565 1_555
Li5 O30 1.996323 1_555
Li5 O16 2.001434 1_555
Li6 O18 1.990430 1_555
Li6 O27 1.996737 1_555
Li6 O31 1.996861 1_555
Li6 O17 1.997618 1_555
Li7 O6 1.995494 1_655
Li7 O5 1.995635 1_655
Li7 O28 1.995664 1_555
Li7 O24 1.998449 1_555
Mn0 O8 1.918613 1_555
Mn0 O1 1.919030 1_545
Mn0 O3 1.939121 1_555
Mn0 O0 1.939429 1_555
Mn0 O29 1.951900 1_455
Mn0 O5 1.953761 1_555
Mn1 O3 1.920325 1_555
Mn1 O4 1.920391 1_556
Mn1 O30 1.937313 1_455
Mn1 O9 1.939934 1_555
Mn1 O5 1.950581 1_555
Mn1 O2 1.952573 1_555
Mn2 O6 1.920270 1_555
Mn2 O31 1.920664 1_455
Mn2 O7 1.937405 1_555
Mn2 O4 1.941996 1_555
Mn2 O10 1.951576 1_555
Mn2 O2 1.951605 1_554
Mn3 O16 1.919672 1_555
Mn3 O9 1.920505 1_555
Mn3 O8 1.939223 1_555
Mn3 O11 1.940600 1_555
Mn3 O13 1.950817 1_555
Mn3 O5 1.952314 1_555
Mn4 O11 1.919489 1_555
Mn4 O12 1.920969 1_555
Mn4 O17 1.937067 1_555
Mn4 O6 1.941630 1_555
Mn4 O10 1.951591 1_555
Mn4 O13 1.952429 1_555
Mn5 O7 1.917586 1_555
Mn5 O14 1.918857 1_565
Mn5 O15 1.938323 1_554
Mn5 O12 1.938703 1_555
Mn5 O18 1.953071 1_555
Mn5 O10 1.953342 1_555
Mn6 O17 1.918044 1_555
Mn6 O24 1.919519 1_555
Mn6 O16 1.937890 1_555
Mn6 O19 1.939947 1_555
Mn6 O13 1.951473 1_555
Mn6 O21 1.954382 1_555
Mn7 O20 1.919044 1_554
Mn7 O19 1.920438 1_555
Mn7 O14 1.937693 1_555
Mn7 O25 1.941402 1_555
Mn7 O21 1.951016 1_555
Mn7 O18 1.951450 1_545
Mn8 O22 1.917818 1_555
Mn8 O15 1.918976 1_555
Mn8 O23 1.937961 1_555
Mn8 O20 1.942463 1_565
Mn8 O26 1.950638 1_555
Mn8 O18 1.951909 1_556
Mn9 O0 1.919712 1_655
Mn9 O25 1.920382 1_555
Mn9 O24 1.939293 1_555
Mn9 O27 1.939804 1_545
Mn9 O29 1.951194 1_555
Mn9 O21 1.952178 1_555
Mn10 O28 1.918345 1_555
Mn10 O27 1.918956 1_555
Mn10 O1 1.938648 1_655
Mn10 O22 1.939487 1_555
Mn10 O26 1.950847 1_555
Mn10 O29 1.953417 1_565
Mn11 O23 1.917091 1_555
Mn11 O30 1.919573 1_555
Mn11 O28 1.937784 1_555
Mn11 O31 1.941283 1_556
Mn11 O26 1.951817 1_555
Mn11 O2 1.953243 1_655
Fe0 O0 2.079708 1_565
Fe0 O12 2.080034 1_555
Fe0 O1 2.080211 1_555
Fe0 O6 2.080721 1_555
Fe0 O7 2.080808 1_555
Fe0 O27 2.081200 1_455
Fe1 O14 2.079010 1_556
Fe1 O9 2.080129 1_555
Fe1 O8 2.080960 1_555
Fe1 O20 2.082042 1_555
Fe1 O3 2.082407 1_555
Fe1 O15 2.083109 1_545
Fe2 O11 2.080184 1_555
Fe2 O28 2.080339 1_555
Fe2 O23 2.080667 1_555
Fe2 O16 2.081364 1_555
Fe2 O17 2.082775 1_555
Fe2 O22 2.084623 1_555
Fe3 O4 2.077728 1_655
Fe3 O24 2.077890 1_555
Fe3 O19 2.080401 1_555
Fe3 O30 2.082020 1_554
Fe3 O31 2.082581 1_555
Fe3 O25 2.083700 1_555
