# generated using pymatgen
data_LiNiPO4
_symmetry_space_group_name_H-M   'P 1'
_cell_length_a   9.93612100
_cell_length_b   9.95946341
_cell_length_c   17.22362729
_cell_angle_alpha   73.40256503
_cell_angle_beta   73.33251031
_cell_angle_gamma   60.10791270
_symmetry_Int_Tables_number   1
_chemical_formula_structural   LiNiPO4
_chemical_formula_sum   'Li16 Ni16 P16 O64'
_cell_volume   1394.53959231
_cell_formula_units_Z   16
loop_
 _symmetry_equiv_pos_site_id
 _symmetry_equiv_pos_as_xyz
  1  'x, y, z'
loop_
 _atom_site_type_symbol
 _atom_site_label
 _atom_site_symmetry_multiplicity
 _atom_site_fract_x
 _atom_site_fract_y
 _atom_site_fract_z
 _atom_site_occupancy
  Li  Li0  1  0.37867500  0.32126300  0.06263600  1
  Li  Li1  1  0.87667900  0.81905900  0.06252400  1
  Li  Li2  1  0.13295300  0.55280900  0.31363900  1
  Li  Li3  1  0.05998700  0.48836200  0.81373300  1
  Li  Li4  1  0.23967800  0.82214000  0.56236300  1
  Li  Li5  1  0.23864400  0.32016600  0.56190700  1
  Li  Li6  1  0.74097900  0.87805300  0.56193500  1
  Li  Li7  1  0.55838300  0.99615400  0.81420100  1
  Li  Li8  1  0.63509000  0.98980700  0.31361400  1
  Li  Li9  1  0.12524100  0.06087400  0.31438800  1
  Li  Li10  1  0.49992200  0.56198800  0.81313300  1
  Li  Li11  1  0.74093800  0.37814200  0.56404300  1
  Li  Li12  1  0.00346400  0.05098200  0.81405600  1
  Li  Li13  1  0.31662900  0.87714100  0.06466500  1
  Li  Li14  1  0.63072500  0.49684900  0.31532900  1
  Li  Li15  1  0.82036600  0.37810100  0.06327800  1
  Ni  Ni0  1  0.75898000  0.67681400  0.43956300  1
  Ni  Ni1  1  0.26164500  0.12194300  0.43837100  1
  Ni  Ni2  1  0.62419300  0.67293300  0.93938900  1
  Ni  Ni3  1  0.87180400  0.94629400  0.68523900  1
  Ni  Ni4  1  0.26004100  0.62149900  0.43973500  1
  Ni  Ni5  1  0.17875300  0.62139300  0.93850100  1
  Ni  Ni6  1  0.86674300  0.45325400  0.68437300  1
  Ni  Ni7  1  0.12582600  0.17636500  0.94063700  1
  Ni  Ni8  1  0.37013900  0.49707800  0.68414700  1
  Ni  Ni9  1  0.99587400  0.95321500  0.18525800  1
  Ni  Ni10  1  0.76460700  0.17381600  0.43935800  1
  Ni  Ni11  1  0.94675200  0.50073300  0.18620800  1
  Ni  Ni12  1  0.36676100  0.00089800  0.68527300  1
  Ni  Ni13  1  0.49527600  0.44919700  0.18416300  1
  Ni  Ni14  1  0.44828700  0.99828800  0.18440100  1
  Ni  Ni15  1  0.67961800  0.12081000  0.93895300  1
  P  P0  1  0.37070900  0.31604800  0.87382200  1
  P  P1  1  0.81657800  0.36685900  0.87459900  1
  P  P2  1  0.31421300  0.87127400  0.87637100  1
  P  P3  1  0.12699700  0.18433000  0.12974900  1
  P  P4  1  0.06144500  0.12794200  0.62732800  1
  P  P5  1  0.68371100  0.12721100  0.12721500  1
  P  P6  1  0.43857000  0.81694200  0.37352700  1
  P  P7  1  0.56308700  0.18112600  0.62770500  1
  P  P8  1  0.94282500  0.86788200  0.37471500  1
  P  P9  1  0.62801900  0.68090700  0.12891300  1
  P  P10  1  0.06391200  0.62548700  0.62699200  1
  P  P11  1  0.56092900  0.68454000  0.62861900  1
  P  P12  1  0.94065100  0.37171600  0.37611100  1
  P  P13  1  0.18076400  0.62921400  0.12724500  1
  P  P14  1  0.44256800  0.31405400  0.37387700  1
  P  P15  1  0.86999300  0.81249400  0.87395800  1
  O  O0  1  0.37409000  0.42001400  0.29512300  1
  O  O1  1  0.86367500  0.42286500  0.29901500  1
  O  O2  1  0.55058700  0.34702300  0.61629300  1
  O  O3  1  0.32532800  0.39251200  0.95106200  1
  O  O4  1  0.60809500  0.79690000  0.36202700  1
  O  O5  1  0.60833300  0.30095900  0.36558800  1
  O  O6  1  0.39709100  0.82658300  0.95089900  1
  O  O7  1  0.04421700  0.49166200  0.61055600  1
  O  O8  1  0.72774700  0.79787700  0.86360100  1
  O  O9  1  0.13974600  0.57200900  0.70466000  1
  O  O10  1  0.01112500  0.64631400  0.88650800  1
  O  O11  1  0.33085300  0.89302200  0.45087300  1
  O  O12  1  0.44888200  0.65194400  0.38415100  1
  O  O13  1  0.58788200  0.56896100  0.20411600  1
  O  O14  1  0.16859100  0.10482400  0.05464600  1
  O  O15  1  0.63433800  0.58057000  0.70625500  1
  O  O16  1  0.10727700  0.72360300  0.36431900  1
  O  O17  1  0.91176000  0.91924900  0.79598500  1
  O  O18  1  0.60413900  0.16898700  0.05206600  1
  O  O19  1  0.83043200  0.32469000  0.45099500  1
  O  O20  1  0.87352100  0.91527700  0.29523900  1
  O  O21  1  0.85285400  0.99125800  0.11227500  1
  O  O22  1  0.89983300  0.77022400  0.63927800  1
  O  O23  1  0.39606300  0.19470900  0.63957400  1
  O  O24  1  0.27071800  0.19538600  0.14092000  1
  O  O25  1  0.63974000  0.07060600  0.70352100  1
  O  O26  1  0.10720200  0.23073900  0.36231100  1
  O  O27  1  0.08097600  0.07942000  0.20721200  1
  O  O28  1  0.48537200  0.84630500  0.11782700  1
  O  O29  1  0.07991600  0.57900400  0.20564500  1
  O  O30  1  0.14570100  0.00815700  0.89216900  1
  O  O31  1  0.18799900  0.77355900  0.14010000  1
  O  O32  1  0.91692400  0.41403500  0.79486900  1
  O  O33  1  0.36191200  0.93013000  0.29847400  1
  O  O34  1  0.45583900  0.14763000  0.38638700  1
  O  O35  1  0.82828300  0.89298400  0.94917200  1
  O  O36  1  0.54521600  0.85252900  0.61472600  1
  O  O37  1  0.17392000  0.16888900  0.55224500  1
  O  O38  1  0.98766600  0.35146200  0.11609800  1
  O  O39  1  0.17781900  0.66782300  0.55302000  1
  O  O40  1  0.39578400  0.69363700  0.63986000  1
  O  O41  1  0.64735900  0.50310000  0.89011000  1
  O  O42  1  0.04336100  0.99223100  0.61154400  1
  O  O43  1  0.23181900  0.29722200  0.86215200  1
  O  O44  1  0.69096200  0.27185800  0.13955500  1
  O  O45  1  0.32595400  0.39489100  0.44844000  1
  O  O46  1  0.58102700  0.07646100  0.20432400  1
  O  O47  1  0.67186500  0.60639200  0.05152200  1
  O  O48  1  0.67161900  0.10598100  0.55072700  1
  O  O49  1  0.10159100  0.66924000  0.05232400  1
  O  O50  1  0.96015400  0.00362400  0.39070300  1
  O  O51  1  0.80743900  0.22174500  0.86486100  1
  O  O52  1  0.41068500  0.42802800  0.79856100  1
  O  O53  1  0.89945200  0.32965100  0.94803400  1
  O  O54  1  0.41588500  0.92091000  0.79841300  1
  O  O55  1  0.82521300  0.82881000  0.44819600  1
  O  O56  1  0.30242600  0.72888200  0.86424800  1
  O  O57  1  0.67434800  0.60494500  0.55369300  1
  O  O58  1  0.95632800  0.50836800  0.39204900  1
  O  O59  1  0.51327100  0.15046400  0.88548200  1
  O  O60  1  0.76919800  0.69497700  0.14110100  1
  O  O61  1  0.34983200  0.49349100  0.11151100  1
  O  O62  1  0.89719900  0.27237800  0.64083500  1
  O  O63  1  0.13616600  0.07599600  0.70539800  1
loop_
_geom_bond_atom_site_label_1
_geom_bond_atom_site_label_2
_geom_bond_distance
_geom_bond_site_symmetry_2
Li0 O18 1.972105 1_555
Li0 O3 1.976825 1_554
Li0 O61 1.982312 1_555
Li0 O24 2.021226 1_555
Li1 O49 1.962731 1_655
Li1 O35 1.987304 1_554
Li1 O60 2.007535 1_555
Li1 O21 2.012484 1_555
Li2 O29 1.988360 1_555
Li2 O16 2.002112 1_555
Li2 O58 2.042756 1_455
Li2 O0 2.058083 1_555
Li3 O9 1.939396 1_555
Li3 O43 1.976010 1_555
Li3 O32 2.031097 1_455
Li3 O10 2.073087 1_555
Li4 O11 1.967631 1_555
Li4 O39 1.976202 1_555
Li4 O42 1.992615 1_555
Li4 O40 2.014577 1_555
Li5 O37 1.970185 1_555
Li5 O7 1.987874 1_555
Li5 O45 1.991449 1_555
Li5 O23 2.023504 1_555
Li6 O48 1.982911 1_565
Li6 O55 1.994469 1_555
Li6 O36 2.005277 1_555
Li6 O22 2.029409 1_555
Li7 O25 1.934749 1_565
Li7 O8 2.001146 1_555
Li7 O54 2.008754 1_555
Li7 O59 2.036103 1_565
Li8 O46 1.940764 1_565
Li8 O4 1.982063 1_555
Li8 O20 2.053049 1_555
Li8 O34 2.066020 1_565
Li9 O27 1.955785 1_555
Li9 O26 1.996531 1_555
Li9 O50 2.002684 1_455
Li9 O33 2.020577 1_545
Li10 O15 1.961651 1_555
Li10 O56 1.995637 1_555
Li10 O41 2.015294 1_555
Li10 O52 2.031562 1_555
Li11 O57 1.979858 1_555
Li11 O2 1.982850 1_555
Li11 O19 1.998110 1_555
Li11 O62 2.005372 1_555
Li12 O63 1.987111 1_555
Li12 O51 2.005635 1_455
Li12 O30 2.037507 1_555
Li12 O17 2.058150 1_445
Li13 O14 1.983149 1_565
Li13 O28 1.987622 1_555
Li13 O31 1.995428 1_555
Li13 O6 1.998999 1_554
Li14 O13 1.934740 1_555
Li14 O5 1.990587 1_555
Li14 O1 2.006144 1_555
Li14 O12 2.022695 1_555
Li15 O38 1.987799 1_555
Li15 O47 1.988007 1_555
Li15 O53 2.016121 1_554
Li15 O44 2.022804 1_555
Ni0 O4 1.977447 1_555
Ni0 O58 1.978414 1_555
Ni0 O55 1.981033 1_555
Ni0 O57 1.982795 1_555
Ni1 O26 1.982435 1_555
Ni1 O11 1.989748 1_545
Ni1 O34 1.990064 1_555
Ni1 O37 1.990520 1_555
Ni2 O47 1.968324 1_556
Ni2 O8 1.972017 1_555
Ni2 O6 1.986901 1_555
Ni2 O41 1.988567 1_555
Ni3 O17 1.975555 1_555
Ni3 O25 1.977255 1_565
Ni3 O42 1.982561 1_655
Ni3 O22 1.989723 1_555
Ni4 O16 1.965496 1_555
Ni4 O12 1.974831 1_555
Ni4 O39 1.977771 1_555
Ni4 O45 1.983614 1_555
Ni5 O56 1.979700 1_555
Ni5 O3 1.988489 1_555
Ni5 O10 1.988527 1_555
Ni5 O49 1.991378 1_556
Ni6 O15 1.984327 1_555
Ni6 O32 1.987122 1_555
Ni6 O7 1.995190 1_655
Ni6 O62 1.999311 1_555
Ni7 O43 1.975506 1_555
Ni7 O30 1.979145 1_555
Ni7 O14 1.980329 1_556
Ni7 O53 1.982479 1_455
Ni8 O9 1.976390 1_555
Ni8 O52 1.980819 1_555
Ni8 O2 1.984690 1_555
Ni8 O40 2.002918 1_555
Ni9 O20 1.984170 1_555
Ni9 O27 1.988011 1_665
Ni9 O21 1.989735 1_555
Ni9 O31 1.997360 1_655
Ni10 O48 1.963338 1_555
Ni10 O5 1.970196 1_555
Ni10 O50 1.986295 1_555
Ni10 O19 1.988129 1_555
Ni11 O29 1.975268 1_655
Ni11 O1 1.978663 1_555
Ni11 O38 1.993788 1_555
Ni11 O60 1.996071 1_555
Ni12 O63 1.978304 1_555
Ni12 O54 1.985298 1_545
Ni12 O36 1.995558 1_545
Ni12 O23 1.997726 1_555
Ni13 O13 1.974091 1_555
Ni13 O0 1.974397 1_555
Ni13 O61 1.983792 1_555
Ni13 O44 1.996418 1_555
Ni14 O46 1.974642 1_565
Ni14 O33 1.977139 1_555
Ni14 O28 1.983688 1_555
Ni14 O24 1.998279 1_565
Ni15 O51 1.965207 1_555
Ni15 O59 1.974473 1_555
Ni15 O18 1.981275 1_556
Ni15 O35 1.985362 1_545
O0 P14 1.553215 1_555
O1 P12 1.554198 1_555
O2 P7 1.551742 1_555
O3 P0 1.563815 1_555
O4 P6 1.553198 1_555
O5 P14 1.553011 1_555
O6 P2 1.561603 1_555
O7 P10 1.549890 1_555
O8 P15 1.554087 1_555
O9 P10 1.553092 1_555
O10 P15 1.551962 1_455
O11 P6 1.563584 1_555
O12 P6 1.554199 1_555
O13 P9 1.549733 1_555
O14 P3 1.556721 1_555
O15 P11 1.551751 1_555
O16 P8 1.551033 1_455
O17 P15 1.552615 1_555
O18 P5 1.557247 1_555
O19 P12 1.561446 1_555
O20 P8 1.555117 1_555
O21 P5 1.551414 1_565
O22 P10 1.553885 1_655
O23 P7 1.552958 1_555
O24 P3 1.553981 1_555
O25 P7 1.552615 1_555
O26 P12 1.554200 1_455
O27 P3 1.552653 1_555
O28 P9 1.551539 1_555
O29 P13 1.554043 1_555
O30 P2 1.552884 1_545
O31 P13 1.553982 1_555
O32 P1 1.553566 1_555
O33 P6 1.548693 1_555
O34 P14 1.550974 1_555
O35 P15 1.564209 1_555
O36 P11 1.553444 1_555
O37 P4 1.552924 1_555
O38 P3 1.552039 1_655
O39 P10 1.556783 1_555
O40 P11 1.554943 1_555
O41 P1 1.554021 1_555
O42 P4 1.553399 1_565
O43 P0 1.555181 1_555
O44 P5 1.553341 1_555
O45 P14 1.564386 1_555
O46 P5 1.553547 1_555
O47 P9 1.557908 1_555
O48 P7 1.556648 1_555
O49 P13 1.555246 1_555
O50 P8 1.550823 1_545
O51 P1 1.550218 1_555
O52 P0 1.549895 1_555
O53 P1 1.562267 1_555
O54 P2 1.551867 1_555
O55 P8 1.562798 1_555
O56 P2 1.554735 1_555
O57 P11 1.556775 1_555
O58 P12 1.549567 1_555
O59 P0 1.553079 1_555
O60 P9 1.553423 1_555
O61 P13 1.551582 1_555
O62 P4 1.555701 1_655
O63 P4 1.555424 1_555
