# generated using pymatgen
data_Li4V3P8O29
_symmetry_space_group_name_H-M   'P 1'
_cell_length_a   9.77752800
_cell_length_b   9.78691702
_cell_length_c   14.29042363
_cell_angle_alpha   90.46222136
_cell_angle_beta   89.79290691
_cell_angle_gamma   119.93613517
_symmetry_Int_Tables_number   1
_chemical_formula_structural   Li4V3P8O29
_chemical_formula_sum   'Li8 V6 P16 O58'
_cell_volume   1184.99264923
_cell_formula_units_Z   2
loop_
 _symmetry_equiv_pos_site_id
 _symmetry_equiv_pos_as_xyz
  1  'x, y, z'
loop_
 _atom_site_type_symbol
 _atom_site_label
 _atom_site_symmetry_multiplicity
 _atom_site_fract_x
 _atom_site_fract_y
 _atom_site_fract_z
 _atom_site_occupancy
  Li  Li0  1  0.30398400  0.08066500  0.55892700  1
  Li  Li1  1  0.76848700  0.67427500  0.56309200  1
  Li  Li2  1  0.89681600  0.66091800  0.05383000  1
  Li  Li3  1  0.77061300  0.09217000  0.05545800  1
  Li  Li4  1  0.91171700  0.23048900  0.56396200  1
  Li  Li5  1  0.33021400  0.66461000  0.10146700  1
  Li  Li6  1  0.69071300  0.91662900  0.44405100  1
  Li  Li7  1  0.05962900  0.03588300  0.00652500  1
  V  V0  1  0.99564100  0.56828800  0.25532900  1
  V  V1  1  0.00307900  0.43736200  0.75148100  1
  V  V2  1  0.43142100  0.00051900  0.75490500  1
  V  V3  1  0.56763900  0.00202400  0.24637900  1
  V  V4  1  0.43028700  0.42457700  0.24585200  1
  V  V5  1  0.56340200  0.56498500  0.75134300  1
  P  P0  1  0.30570900  0.22695700  0.84372200  1
  P  P1  1  0.31791300  0.08605000  0.34021300  1
  P  P2  1  0.76470500  0.68227200  0.34285700  1
  P  P3  1  0.67346900  0.33938500  0.12757800  1
  P  P4  1  0.66696900  0.32889900  0.63054000  1
  P  P5  1  0.91234700  0.68649200  0.84316600  1
  P  P6  1  0.08615500  0.77494600  0.66297000  1
  P  P7  1  0.77529000  0.08914000  0.84036500  1
  P  P8  1  0.21863700  0.90789500  0.16000000  1
  P  P9  1  0.91320900  0.23124700  0.34559500  1
  P  P10  1  0.08583300  0.30812000  0.16417200  1
  P  P11  1  0.33646400  0.66495800  0.36527000  1
  P  P12  1  0.33390400  0.67054000  0.86727400  1
  P  P13  1  0.22751600  0.31323500  0.66028300  1
  P  P14  1  0.68007300  0.91008100  0.66070800  1
  P  P15  1  0.69014900  0.77477400  0.16083300  1
  O  O0  1  0.22980100  0.22454700  0.57646200  1
  O  O1  1  0.33774300  0.25295700  0.32588400  1
  O  O2  1  0.20222400  0.99555500  0.08149100  1
  O  O3  1  0.34115300  0.08734700  0.82838800  1
  O  O4  1  0.46154900  0.38139600  0.83278600  1
  O  O5  1  0.52248700  0.33533300  0.17185600  1
  O  O6  1  0.61766100  0.52252100  0.31933600  1
  O  O7  1  0.79623600  0.78229200  0.08414800  1
  O  O8  1  0.74402700  0.65709800  0.82839500  1
  O  O9  1  0.51847600  0.18115200  0.67530300  1
  O  O10  1  0.47984500  0.09971200  0.31391200  1
  O  O11  1  0.66781100  0.48096800  0.66592200  1
  O  O12  1  0.69225500  0.36933800  0.02529100  1
  O  O13  1  0.66658500  0.31518400  0.52645400  1
  O  O14  1  0.81646700  0.48719900  0.17852400  1
  O  O15  1  0.61753500  0.08999400  0.82631800  1
  O  O16  1  0.67435800  0.18770500  0.15890500  1
  O  O17  1  0.91447100  0.66506800  0.33459900  1
  O  O18  1  0.01577800  0.80208800  0.76006700  1
  O  O19  1  0.99063500  0.77140300  0.58171400  1
  O  O20  1  0.98265300  0.75879900  0.93517000  1
  O  O21  1  0.90988800  0.52762200  0.82385400  1
  O  O22  1  0.81876500  0.33131600  0.67269700  1
  O  O23  1  0.07639000  0.73324200  0.16283600  1
  O  O24  1  0.90213300  0.38076000  0.32024600  1
  O  O25  1  0.74850100  0.08134000  0.33383200  1
  O  O26  1  0.19902000  0.97973300  0.25904200  1
  O  O27  1  0.25833000  0.01676000  0.43281000  1
  O  O28  1  0.75912900  0.00099700  0.57338600  1
  O  O29  1  0.25718600  0.91744400  0.66126800  1
  O  O30  1  0.09142700  0.62003800  0.67720000  1
  O  O31  1  0.91568700  0.25911400  0.82905900  1
  O  O32  1  0.18378500  0.65917300  0.32045700  1
  O  O33  1  0.09222200  0.46975700  0.16978000  1
  O  O34  1  0.99231000  0.19912800  0.08649500  1
  O  O35  1  0.98325100  0.24117500  0.43857600  1
  O  O36  1  0.02023200  0.22026700  0.26341900  1
  O  O37  1  0.08376800  0.34182000  0.66135200  1
  O  O38  1  0.32762000  0.81708900  0.82523700  1
  O  O39  1  0.37035200  0.89548700  0.16684800  1
  O  O40  1  0.18483500  0.52054700  0.82324800  1
  O  O41  1  0.32293500  0.67005500  0.97154200  1
  O  O42  1  0.33263600  0.65841700  0.46850100  1
  O  O43  1  0.33991400  0.52115400  0.31610800  1
  O  O44  1  0.52184200  0.90312700  0.67996100  1
  O  O45  1  0.48498900  0.81698700  0.32692100  1
  O  O46  1  0.26019600  0.34354800  0.16204900  1
  O  O47  1  0.19905300  0.20916900  0.75304600  1
  O  O48  1  0.21026200  0.20181500  0.92886000  1
  O  O49  1  0.38006100  0.47349000  0.67715600  1
  O  O50  1  0.48246600  0.67671500  0.82693600  1
  O  O51  1  0.52674000  0.62276900  0.16797800  1
  O  O52  1  0.65869500  0.91658800  0.15805400  1
  O  O53  1  0.78169300  0.01803100  0.93064000  1
  O  O54  1  0.79156300  0.99609500  0.75112000  1
  O  O55  1  0.66146000  0.74419400  0.65874900  1
  O  O56  1  0.75471800  0.75167000  0.43459200  1
  O  O57  1  0.78018600  0.80020400  0.26081700  1
loop_
_geom_bond_atom_site_label_1
_geom_bond_atom_site_label_2
_geom_bond_distance
_geom_bond_site_symmetry_2
Li0 O27 1.883499 1_555
Li0 O0 1.893200 1_555
Li0 O29 2.050215 1_545
Li0 O9 2.464045 1_555
Li1 O19 1.905682 1_555
Li1 O56 2.022361 1_555
Li1 O55 2.030082 1_555
Li1 O11 2.209810 1_555
Li2 O20 1.926382 1_554
Li2 O7 1.928842 1_555
Li2 O23 2.184482 1_655
Li2 O14 2.321360 1_555
Li2 O12 2.569178 1_555
Li3 O34 1.930274 1_555
Li3 O53 1.943191 1_554
Li3 O52 2.110024 1_545
Li3 O16 2.188886 1_555
Li4 O35 1.905704 1_555
Li4 O28 1.986855 1_555
Li4 O37 2.029069 1_655
Li4 O22 2.252642 1_555
Li5 O41 1.860515 1_554
Li5 O39 2.283896 1_555
Li5 O51 2.359706 1_555
Li5 O33 2.364133 1_555
Li6 O28 1.994577 1_565
Li6 O56 2.005138 1_555
Li6 O25 2.127009 1_565
Li6 O45 2.416396 1_555
Li7 O48 1.915289 1_554
Li7 O2 1.952987 1_545
Li7 O34 2.303576 1_455
O0 P13 1.480234 1_555
O1 P1 1.561046 1_555
O1 V4 1.858649 1_555
O2 P8 1.474702 1_555
O3 P0 1.581852 1_555
O3 V2 1.825181 1_555
O4 P0 1.527809 1_555
O4 V5 1.952989 1_555
O5 P3 1.586325 1_555
O5 V4 1.859512 1_555
O6 P2 1.541424 1_555
O6 V4 1.903400 1_555
O7 P15 1.482957 1_555
O8 P5 1.537797 1_555
O8 V5 1.884976 1_555
O9 P4 1.587739 1_555
O9 V2 1.915041 1_555
O10 P1 1.565625 1_555
O10 V3 1.838621 1_555
O11 P4 1.564091 1_555
O11 V5 2.005242 1_555
O12 P3 1.485781 1_555
O13 P4 1.492248 1_555
O14 P3 1.596657 1_555
O14 V0 1.875044 1_555
O15 P7 1.560340 1_555
O15 V2 1.878375 1_555
O16 P3 1.558139 1_555
O16 V3 2.021991 1_555
O17 P2 1.559193 1_555
O17 V0 1.880615 1_555
O18 P5 1.607460 1_455
O18 P6 1.624489 1_555
O19 P6 1.482119 1_655
O20 P5 1.485923 1_555
O21 P5 1.565281 1_555
O21 V1 1.860654 1_655
O22 P4 1.592955 1_555
O22 V1 1.929109 1_655
O23 P8 1.576622 1_555
O23 V0 1.931686 1_455
O24 P9 1.565602 1_555
O24 V0 1.847026 1_555
O25 P9 1.553722 1_555
O25 V3 1.980369 1_555
O26 P1 1.600809 1_565
O26 P8 1.628158 1_555
O27 P1 1.471345 1_555
O28 P14 1.506941 1_545
O29 P6 1.553897 1_555
O29 V2 1.992562 1_565
O30 P6 1.557412 1_555
O30 V1 1.884660 1_555
O31 P7 1.549638 1_555
O31 V1 1.881236 1_655
O32 P11 1.601188 1_555
O32 V0 1.845904 1_455
O33 P10 1.553120 1_555
O33 V0 2.048837 1_455
O34 P10 1.490268 1_655
O35 P9 1.477183 1_555
O36 P9 1.608386 1_455
O36 P10 1.620148 1_555
O37 P13 1.564016 1_555
O37 V1 1.966003 1_555
O38 P12 1.588672 1_555
O38 V2 1.861797 1_565
O39 P8 1.551072 1_555
O39 V3 2.022165 1_565
O40 P12 1.591038 1_555
O40 V1 1.851616 1_555
O41 P12 1.493378 1_555
O42 P11 1.476648 1_555
O43 P11 1.583268 1_555
O43 V4 1.869232 1_555
O44 P14 1.538184 1_555
O44 V2 1.911779 1_565
O45 P11 1.572867 1_555
O45 V3 1.955402 1_565
O46 P10 1.561229 1_555
O46 V4 1.873941 1_555
O47 P13 1.615011 1_555
O47 P0 1.619207 1_555
O48 P0 1.476199 1_555
O49 P13 1.550600 1_555
O49 V5 1.880316 1_555
O50 P12 1.533882 1_555
O50 V5 1.956361 1_555
O51 P15 1.550901 1_555
O51 V4 2.022801 1_555
O52 P15 1.565083 1_555
O52 V3 1.950074 1_565
O53 P7 1.486970 1_555
O54 P7 1.614147 1_565
O54 P14 1.625742 1_555
O55 P14 1.540824 1_555
O55 V5 2.023913 1_555
O56 P2 1.496758 1_555
O57 P2 1.604911 1_555
O57 P15 1.631909 1_555
