# generated using pymatgen
data_Ho9B4O19
_symmetry_space_group_name_H-M   'P 1'
_cell_length_a   7.29119000
_cell_length_b   9.32427519
_cell_length_c   12.60071813
_cell_angle_alpha   79.06107621
_cell_angle_beta   81.66600264
_cell_angle_gamma   78.76169591
_symmetry_Int_Tables_number   1
_chemical_formula_structural   Ho9B4O19
_chemical_formula_sum   'Ho18 B8 O38'
_cell_volume   819.76659450
_cell_formula_units_Z   2
loop_
 _symmetry_equiv_pos_site_id
 _symmetry_equiv_pos_as_xyz
  1  'x, y, z'
loop_
 _atom_site_type_symbol
 _atom_site_label
 _atom_site_symmetry_multiplicity
 _atom_site_fract_x
 _atom_site_fract_y
 _atom_site_fract_z
 _atom_site_occupancy
  Ho  Ho0  1  0.75076800  0.00551300  0.99276200  1
  Ho  Ho1  1  0.24923200  0.99448700  0.00723800  1
  Ho  Ho2  1  0.37608900  0.89357500  0.59727400  1
  Ho  Ho3  1  0.87996900  0.88793200  0.59446600  1
  Ho  Ho4  1  0.46395200  0.84088600  0.26587800  1
  Ho  Ho5  1  0.98279600  0.84000300  0.26540800  1
  Ho  Ho6  1  0.68615700  0.51864900  0.73588700  1
  Ho  Ho7  1  0.18380400  0.53446800  0.73280200  1
  Ho  Ho8  1  0.57583200  0.64617600  0.04450400  1
  Ho  Ho9  1  0.07934500  0.64463900  0.04394000  1
  Ho  Ho10  1  0.92065500  0.35536100  0.95606000  1
  Ho  Ho11  1  0.42416800  0.35382400  0.95549600  1
  Ho  Ho12  1  0.31384300  0.48135100  0.26411300  1
  Ho  Ho13  1  0.81619600  0.46553200  0.26719800  1
  Ho  Ho14  1  0.53604800  0.15911400  0.73412200  1
  Ho  Ho15  1  0.01720400  0.15999700  0.73459200  1
  Ho  Ho16  1  0.62391100  0.10642500  0.40272600  1
  Ho  Ho17  1  0.12003100  0.11206800  0.40553400  1
  B  B0  1  0.34149800  0.81618500  0.82050000  1
  B  B1  1  0.84052100  0.81395400  0.82031000  1
  B  B2  1  0.71763200  0.65763300  0.46924000  1
  B  B3  1  0.21733800  0.64837600  0.48534400  1
  B  B4  1  0.28236800  0.34236700  0.53076000  1
  B  B5  1  0.78266200  0.35162400  0.51465600  1
  B  B6  1  0.65850200  0.18381500  0.17950000  1
  B  B7  1  0.15947900  0.18604600  0.17969000  1
  O  O0  1  0.31585400  0.96568700  0.77069000  1
  O  O1  1  0.81523700  0.96548100  0.77148700  1
  O  O2  1  0.39905400  0.97167800  0.41551700  1
  O  O3  1  0.90946300  0.96725500  0.41372200  1
  O  O4  1  0.82280100  0.77770900  0.93122700  1
  O  O5  1  0.32256500  0.77796400  0.93226300  1
  O  O6  1  0.52509300  0.88107700  0.08726200  1
  O  O7  1  0.99107800  0.88049100  0.08675700  1
  O  O8  1  0.88359800  0.71040600  0.75028400  1
  O  O9  1  0.38542900  0.71109500  0.75084800  1
  O  O10  1  0.68047600  0.70769600  0.56766400  1
  O  O11  1  0.17667900  0.73285400  0.56746400  1
  O  O12  1  0.72163600  0.74124500  0.36802900  1
  O  O13  1  0.23151600  0.69851600  0.37688100  1
  O  O14  1  0.14856500  0.49574800  0.91164400  1
  O  O15  1  0.64692100  0.49996400  0.91090400  1
  O  O16  1  0.54905100  0.60565400  0.23449000  1
  O  O17  1  0.03096600  0.60506400  0.23433300  1
  O  O18  1  0.24219300  0.49681700  0.53223700  1
  O  O19  1  0.75780700  0.50318300  0.46776300  1
  O  O20  1  0.45094900  0.39434600  0.76551000  1
  O  O21  1  0.96903400  0.39493600  0.76566700  1
  O  O22  1  0.35307900  0.50003600  0.08909600  1
  O  O23  1  0.85143500  0.50425200  0.08835600  1
  O  O24  1  0.27836400  0.25875500  0.63197100  1
  O  O25  1  0.76848400  0.30148400  0.62311900  1
  O  O26  1  0.31952400  0.29230400  0.43233600  1
  O  O27  1  0.82332100  0.26714600  0.43253600  1
  O  O28  1  0.61457100  0.28890500  0.24915200  1
  O  O29  1  0.11640200  0.28959400  0.24971600  1
  O  O30  1  0.47490700  0.11892300  0.91273800  1
  O  O31  1  0.00892200  0.11950900  0.91324300  1
  O  O32  1  0.67743500  0.22203600  0.06773700  1
  O  O33  1  0.17719900  0.22229100  0.06877300  1
  O  O34  1  0.60094600  0.02832200  0.58448300  1
  O  O35  1  0.09053700  0.03274500  0.58627800  1
  O  O36  1  0.68414600  0.03431300  0.22931000  1
  O  O37  1  0.18476300  0.03451900  0.22851300  1
loop_
_geom_bond_atom_site_label_1
_geom_bond_atom_site_label_2
_geom_bond_distance
_geom_bond_site_symmetry_2
Ho0 O7 2.261240 1_546
Ho0 O6 2.263503 1_546
Ho0 O32 2.326188 1_556
Ho0 O4 2.336896 1_545
Ho0 O31 2.346396 1_655
Ho0 O30 2.352612 1_555
Ho1 O31 2.261240 1_564
Ho1 O30 2.263503 1_564
Ho1 O5 2.326188 1_554
Ho1 O33 2.336896 1_565
Ho1 O7 2.346396 1_455
Ho1 O6 2.352612 1_555
Ho2 O34 2.223034 1_565
Ho2 O35 2.236113 1_565
Ho2 O2 2.259884 1_555
Ho2 O9 2.321184 1_555
Ho2 O0 2.363106 1_555
Ho2 O11 2.392090 1_555
Ho2 O10 2.564120 1_555
Ho3 O34 2.200427 1_565
Ho3 O35 2.213653 1_665
Ho3 O3 2.249673 1_555
Ho3 O8 2.315221 1_555
Ho3 O11 2.375047 1_655
Ho3 O1 2.427980 1_555
Ho3 O10 2.522831 1_555
Ho4 O6 2.204297 1_555
Ho4 O16 2.253867 1_555
Ho4 O12 2.369975 1_555
Ho4 O2 2.378165 1_555
Ho4 O13 2.464921 1_555
Ho4 O37 2.479489 1_565
Ho4 O36 2.577113 1_565
Ho5 O7 2.204699 1_555
Ho5 O17 2.249745 1_655
Ho5 O3 2.343294 1_555
Ho5 O12 2.379848 1_555
Ho5 O13 2.470774 1_655
Ho5 O37 2.489333 1_665
Ho5 O36 2.582182 1_565
Ho6 O15 2.160193 1_555
Ho6 O20 2.201983 1_555
Ho6 O21 2.204115 1_555
Ho6 O10 2.486176 1_555
Ho6 O8 2.550356 1_555
Ho6 O9 2.556992 1_555
Ho6 O25 2.617377 1_555
Ho7 O20 2.169619 1_555
Ho7 O21 2.172087 1_455
Ho7 O14 2.198708 1_555
Ho7 O9 2.471425 1_555
Ho7 O8 2.475601 1_455
Ho7 O11 2.509229 1_555
Ho7 O18 2.580335 1_555
Ho8 O23 2.258847 1_555
Ho8 O22 2.262266 1_555
Ho8 O6 2.301898 1_555
Ho8 O15 2.303039 1_554
Ho8 O16 2.337069 1_555
Ho8 O5 2.476556 1_554
Ho8 O4 2.497082 1_554
Ho9 O23 2.255728 1_455
Ho9 O22 2.261470 1_555
Ho9 O14 2.307036 1_554
Ho9 O7 2.310740 1_455
Ho9 O17 2.342146 1_555
Ho9 O5 2.478398 1_554
Ho9 O4 2.500434 1_454
Ho10 O14 2.255728 1_655
Ho10 O15 2.261470 1_555
Ho10 O23 2.307036 1_556
Ho10 O31 2.310740 1_655
Ho10 O21 2.342146 1_555
Ho10 O32 2.478398 1_556
Ho10 O33 2.500434 1_656
Ho11 O14 2.258847 1_555
Ho11 O15 2.262266 1_555
Ho11 O30 2.301898 1_555
Ho11 O22 2.303039 1_556
Ho11 O20 2.337069 1_555
Ho11 O32 2.476556 1_556
Ho11 O33 2.497082 1_556
Ho12 O22 2.160193 1_555
Ho12 O16 2.201983 1_555
Ho12 O17 2.204115 1_555
Ho12 O26 2.486176 1_555
Ho12 O29 2.550356 1_555
Ho12 O28 2.556992 1_555
Ho12 O13 2.617377 1_555
Ho13 O16 2.169619 1_555
Ho13 O17 2.172087 1_655
Ho13 O23 2.198708 1_555
Ho13 O28 2.471425 1_555
Ho13 O29 2.475601 1_655
Ho13 O27 2.509229 1_555
Ho13 O19 2.580335 1_555
Ho14 O30 2.204297 1_555
Ho14 O20 2.253867 1_555
Ho14 O24 2.369975 1_555
Ho14 O34 2.378165 1_555
Ho14 O25 2.464921 1_555
Ho14 O1 2.479489 1_545
Ho14 O0 2.577113 1_545
Ho15 O31 2.204699 1_555
Ho15 O21 2.249745 1_455
Ho15 O35 2.343294 1_555
Ho15 O24 2.379848 1_555
Ho15 O25 2.470774 1_455
Ho15 O1 2.489333 1_445
Ho15 O0 2.582182 1_545
Ho16 O2 2.223034 1_545
Ho16 O3 2.236113 1_545
Ho16 O34 2.259884 1_555
Ho16 O28 2.321184 1_555
Ho16 O36 2.363106 1_555
Ho16 O27 2.392090 1_555
Ho16 O26 2.564120 1_555
Ho17 O2 2.200427 1_545
Ho17 O3 2.213653 1_445
Ho17 O35 2.249673 1_555
Ho17 O29 2.315221 1_555
Ho17 O27 2.375047 1_455
Ho17 O37 2.427980 1_555
Ho17 O26 2.522831 1_555
B0 O5 1.379020 1_555
B0 O9 1.398441 1_555
B0 O0 1.404454 1_555
B1 O4 1.367369 1_555
B1 O8 1.390771 1_555
B1 O1 1.417800 1_555
B2 O12 1.362299 1_555
B2 O10 1.379295 1_555
B2 O19 1.415733 1_555
B3 O13 1.353714 1_555
B3 O11 1.381485 1_555
B3 O18 1.411866 1_555
B4 O24 1.362299 1_555
B4 O26 1.379295 1_555
B4 O18 1.415733 1_555
B5 O25 1.353714 1_555
B5 O27 1.381485 1_555
B5 O19 1.411866 1_555
B6 O32 1.379020 1_555
B6 O28 1.398441 1_555
B6 O36 1.404454 1_555
B7 O33 1.367369 1_555
B7 O29 1.390771 1_555
B7 O37 1.417800 1_555
