# generated using pymatgen
data_Mg3Hg
_symmetry_space_group_name_H-M   'P 1'
_cell_length_a   4.82885601
_cell_length_b   4.82885601
_cell_length_c   8.57788458
_cell_angle_alpha   90.00000000
_cell_angle_beta   90.00000000
_cell_angle_gamma   120.00000694
_symmetry_Int_Tables_number   1
_chemical_formula_structural   Mg3Hg
_chemical_formula_sum   'Mg6 Hg2'
_cell_volume   173.22050894
_cell_formula_units_Z   2
loop_
 _symmetry_equiv_pos_site_id
 _symmetry_equiv_pos_as_xyz
  1  'x, y, z'
loop_
 _atom_site_type_symbol
 _atom_site_label
 _atom_site_symmetry_multiplicity
 _atom_site_fract_x
 _atom_site_fract_y
 _atom_site_fract_z
 _atom_site_occupancy
  Mg  Mg0  1  0.33333300  0.66666700  0.92126674  1
  Mg  Mg1  1  0.66666700  0.33333300  0.42126674  1
  Mg  Mg2  1  0.00000000  0.00000000  0.25000000  1
  Mg  Mg3  1  0.00000000  0.00000000  0.75000000  1
  Mg  Mg4  1  0.33333300  0.66666700  0.57873326  1
  Mg  Mg5  1  0.66666700  0.33333300  0.07873326  1
  Hg  Hg0  1  0.66666700  0.33333300  0.75000000  1
  Hg  Hg1  1  0.33333300  0.66666700  0.25000000  1
loop_
_geom_bond_atom_site_label_1
_geom_bond_atom_site_label_2
_geom_bond_distance
_geom_bond_site_symmetry_2
Mg0 Mg4 2.938213 1_555
Mg0 Mg5 3.097914 1_566
Mg0 Mg5 3.097914 1_456
Mg0 Mg5 3.097922 1_556
Mg0 Mg3 3.151329 1_565
Mg0 Mg3 3.151333 1_555
Mg0 Mg3 3.151333 1_665
Mg1 Mg5 2.938213 1_555
Mg1 Mg4 3.097914 1_545
Mg1 Mg4 3.097914 1_655
Mg1 Mg4 3.097922 1_555
Mg1 Mg2 3.151329 1_655
Mg1 Mg2 3.151333 1_665
Mg1 Mg2 3.151333 1_555
Mg2 Mg5 3.151329 1_455
Mg2 Mg5 3.151333 1_445
Mg2 Mg5 3.151333 1_555
Mg3 Mg4 3.151329 1_545
Mg3 Mg4 3.151333 1_555
Mg3 Mg4 3.151333 1_445
Hg0 Mg3 2.787939 1_655
Hg0 Mg3 2.787943 1_665
Hg0 Mg3 2.787943 1_555
Hg0 Mg5 2.819836 1_556
Hg0 Mg1 2.819836 1_555
Hg0 Mg0 3.151329 1_545
Hg0 Mg4 3.151329 1_545
Hg0 Mg0 3.151329 1_655
Hg0 Mg4 3.151329 1_655
Hg0 Mg0 3.151337 1_555
Hg0 Mg4 3.151337 1_555
Hg1 Mg2 2.787939 1_565
Hg1 Mg2 2.787943 1_555
Hg1 Mg2 2.787943 1_665
Hg1 Mg4 2.819836 1_555
Hg1 Mg0 2.819836 1_554
Hg1 Mg5 3.151329 1_565
Hg1 Mg1 3.151329 1_565
Hg1 Mg5 3.151329 1_455
Hg1 Mg1 3.151329 1_455
Hg1 Mg5 3.151337 1_555
Hg1 Mg1 3.151337 1_555
