# generated using pymatgen
data_FeOF
_symmetry_space_group_name_H-M   'P 1'
_cell_length_a   3.11601600
_cell_length_b   9.46673000
_cell_length_c   14.25577989
_cell_angle_alpha   89.79880213
_cell_angle_beta   90.00000000
_cell_angle_gamma   90.00000000
_symmetry_Int_Tables_number   1
_chemical_formula_structural   FeOF
_chemical_formula_sum   'Fe12 O12 F12'
_cell_volume   420.52127596
_cell_formula_units_Z   12
loop_
 _symmetry_equiv_pos_site_id
 _symmetry_equiv_pos_as_xyz
  1  'x, y, z'
loop_
 _atom_site_type_symbol
 _atom_site_label
 _atom_site_symmetry_multiplicity
 _atom_site_fract_x
 _atom_site_fract_y
 _atom_site_fract_z
 _atom_site_occupancy
  Fe  Fe0  1  0.00000000  0.98493600  0.99992700  1
  Fe  Fe1  1  0.00000000  0.97825300  0.32486700  1
  Fe  Fe2  1  0.00000000  0.99725100  0.67335700  1
  Fe  Fe3  1  0.50000000  0.76705000  0.16246700  1
  Fe  Fe4  1  0.50000000  0.78510000  0.50114600  1
  Fe  Fe5  1  0.50000000  0.77966300  0.83382000  1
  Fe  Fe6  1  0.00000000  0.48697500  0.33030200  1
  Fe  Fe7  1  0.00000000  0.47673900  0.98926300  1
  Fe  Fe8  1  0.00000000  0.49608300  0.67363700  1
  Fe  Fe9  1  0.50000000  0.23845400  0.18675800  1
  Fe  Fe10  1  0.50000000  0.25774000  0.48786700  1
  Fe  Fe11  1  0.50000000  0.25012200  0.82239400  1
  O  O0  1  0.50000000  0.89390800  0.26783200  1
  O  O1  1  0.50000000  0.91095900  0.60370900  1
  O  O2  1  0.50000000  0.90670500  0.93839200  1
  O  O3  1  0.00000000  0.84606200  0.10088400  1
  O  O4  1  0.00000000  0.84322600  0.76990500  1
  O  O5  1  0.00000000  0.85109700  0.43466700  1
  O  O6  1  0.50000000  0.40563500  0.26793300  1
  O  O7  1  0.50000000  0.39476900  0.93136200  1
  O  O8  1  0.00000000  0.35024000  0.43635900  1
  O  O9  1  0.00000000  0.35308900  0.76282300  1
  O  O10  1  0.00000000  0.14473200  0.23635300  1
  O  O11  1  0.50000000  0.10186500  0.73337500  1
  F  F0  1  0.00000000  0.64965700  0.23066200  1
  F  F1  1  0.00000000  0.64736600  0.57018000  1
  F  F2  1  0.00000000  0.64927600  0.90017000  1
  F  F3  1  0.50000000  0.58808700  0.06335800  1
  F  F4  1  0.50000000  0.60067600  0.39902500  1
  F  F5  1  0.50000000  0.59955600  0.73288700  1
  F  F6  1  0.50000000  0.40650800  0.60058200  1
  F  F7  1  0.00000000  0.34304700  0.10303400  1
  F  F8  1  0.00000000  0.15168500  0.90113300  1
  F  F9  1  0.00000000  0.16288500  0.56255600  1
  F  F10  1  0.50000000  0.10467700  0.06603700  1
  F  F11  1  0.50000000  0.09591900  0.40097700  1
loop_
_geom_bond_atom_site_label_1
_geom_bond_atom_site_label_2
_geom_bond_distance
_geom_bond_site_symmetry_2
Fe0 O2 1.936481 1_555
Fe0 O2 1.936481 1_455
Fe0 O3 1.945882 1_556
Fe1 O0 1.931476 1_455
Fe1 O0 1.931476 1_555
Fe1 O5 1.971269 1_555
Fe1 O10 2.015459 1_565
Fe2 O4 2.001596 1_555
Fe2 O1 2.021445 1_455
Fe2 O1 2.021445 1_555
Fe2 O11 2.036221 1_565
Fe2 O11 2.036221 1_465
Fe3 O0 1.926418 1_555
Fe3 O3 1.937264 1_555
Fe3 O3 1.937264 1_655
Fe4 O1 1.889345 1_555
Fe4 O5 1.926585 1_655
Fe4 O5 1.926585 1_555
Fe5 O4 1.901534 1_655
Fe5 O4 1.901534 1_555
Fe5 O2 1.918688 1_555
Fe6 O6 1.953373 1_555
Fe6 O6 1.953373 1_455
Fe6 O8 1.986890 1_555
Fe7 O7 1.927529 1_455
Fe7 O7 1.927529 1_555
Fe8 O9 1.853881 1_555
Fe9 O10 1.926149 1_655
Fe9 O10 1.926149 1_555
Fe9 O6 1.963876 1_555
Fe10 O8 1.931024 1_555
Fe10 O8 1.931024 1_655
Fe11 O11 1.895467 1_555
Fe11 O9 2.023098 1_555
Fe11 O9 2.023098 1_655
Fe11 O7 2.074401 1_555
F0 Fe6 2.091437 1_555
F0 Fe3 2.144754 1_555
F0 Fe3 2.144754 1_455
F1 Fe8 2.052181 1_555
F1 Fe4 2.255444 1_455
F1 Fe4 2.255444 1_555
F2 Fe7 2.065533 1_555
F2 Fe5 2.199421 1_555
F2 Fe5 2.199421 1_455
F3 Fe7 2.159183 1_654
F3 Fe7 2.159183 1_554
F3 Fe3 2.209825 1_555
F4 Fe6 2.133821 1_555
F4 Fe6 2.133821 1_655
F4 Fe4 2.277144 1_555
F5 Fe8 2.026367 1_555
F5 Fe8 2.026367 1_655
F5 Fe5 2.234885 1_555
F6 Fe8 2.058469 1_655
F6 Fe8 2.058469 1_555
F6 Fe10 2.140390 1_555
F7 Fe7 2.053761 1_554
F7 Fe9 2.196374 1_555
F7 Fe9 2.196374 1_455
F8 Fe0 2.111827 1_545
F8 Fe11 2.132700 1_455
F8 Fe11 2.132700 1_555
F9 Fe10 2.088231 1_555
F9 Fe10 2.088231 1_455
F9 Fe2 2.221770 1_545
F10 Fe9 2.140303 1_555
F10 Fe0 2.146637 1_644
F10 Fe0 2.146637 1_544
F11 Fe10 1.973432 1_555
F11 Fe1 2.203161 1_645
F11 Fe1 2.203161 1_545
