# generated using pymatgen
data_Li2VSiO5
_symmetry_space_group_name_H-M   'P 1'
_cell_length_a   4.50846000
_cell_length_b   9.10819800
_cell_length_c   9.25644000
_cell_angle_alpha   90.00000000
_cell_angle_beta   90.00000000
_cell_angle_gamma   90.00000000
_symmetry_Int_Tables_number   1
_chemical_formula_structural   Li2VSiO5
_chemical_formula_sum   'Li8 V4 Si4 O20'
_cell_volume   380.10595560
_cell_formula_units_Z   4
loop_
 _symmetry_equiv_pos_site_id
 _symmetry_equiv_pos_as_xyz
  1  'x, y, z'
loop_
 _atom_site_type_symbol
 _atom_site_label
 _atom_site_symmetry_multiplicity
 _atom_site_fract_x
 _atom_site_fract_y
 _atom_site_fract_z
 _atom_site_occupancy
  Li  Li0  1  0.61694900  0.50000000  0.00443600  1
  Li  Li1  1  0.38305100  0.50000000  0.50443600  1
  Li  Li2  1  0.00303300  0.75024500  0.00171200  1
  Li  Li3  1  0.99696700  0.75024500  0.50171200  1
  Li  Li4  1  0.00780900  0.00000000  0.25415000  1
  Li  Li5  1  0.99219100  0.00000000  0.75415000  1
  Li  Li6  1  0.00303300  0.24975500  0.00171200  1
  Li  Li7  1  0.99696700  0.24975500  0.50171200  1
  V  V0  1  0.95817600  0.50000000  0.28979500  1
  V  V1  1  0.04182400  0.50000000  0.78979500  1
  V  V2  1  0.43257400  0.00000000  0.99708600  1
  V  V3  1  0.56742600  0.00000000  0.49708600  1
  Si  Si0  1  0.50076300  0.74954500  0.24857100  1
  Si  Si1  1  0.49923700  0.74954500  0.74857100  1
  Si  Si2  1  0.50076300  0.25045500  0.24857100  1
  Si  Si3  1  0.49923700  0.25045500  0.74857100  1
  O  O0  1  0.80487000  0.50000000  0.45538500  1
  O  O1  1  0.19513000  0.50000000  0.95538500  1
  O  O2  1  0.74216100  0.64439300  0.16252600  1
  O  O3  1  0.25783900  0.64439300  0.66252600  1
  O  O4  1  0.26196000  0.64919200  0.33913300  1
  O  O5  1  0.73804000  0.64919200  0.83913300  1
  O  O6  1  0.30155900  0.85217300  0.13961200  1
  O  O7  1  0.69844100  0.85217300  0.63961200  1
  O  O8  1  0.70323500  0.85335700  0.35529700  1
  O  O9  1  0.29676500  0.85335700  0.85529700  1
  O  O10  1  0.19353000  0.00000000  0.49451600  1
  O  O11  1  0.80647000  0.00000000  0.99451600  1
  O  O12  1  0.70323500  0.14664300  0.35529700  1
  O  O13  1  0.29676500  0.14664300  0.85529700  1
  O  O14  1  0.30155900  0.14782700  0.13961200  1
  O  O15  1  0.69844100  0.14782700  0.63961200  1
  O  O16  1  0.26196000  0.35080800  0.33913300  1
  O  O17  1  0.73804000  0.35080800  0.83913300  1
  O  O18  1  0.25783900  0.35560700  0.66252600  1
  O  O19  1  0.74216100  0.35560700  0.16252600  1
loop_
_geom_bond_atom_site_label_1
_geom_bond_atom_site_label_2
_geom_bond_distance
_geom_bond_site_symmetry_2
Li0 O1 1.955203 1_554
Li0 O19 2.046880 1_555
Li0 O2 2.046880 1_555
Li0 O17 2.117978 1_554
Li0 O5 2.117978 1_554
Li1 O0 1.955203 1_555
Li1 O3 2.046880 1_555
Li1 O18 2.046880 1_555
Li1 O4 2.117978 1_555
Li1 O16 2.117978 1_555
Li2 O6 2.074289 1_555
Li2 O9 2.114836 1_554
Li2 O2 2.128060 1_455
Li2 O5 2.130545 1_454
Li2 O11 2.442249 1_464
Li2 O1 2.475697 1_554
Li3 O7 2.074289 1_555
Li3 O8 2.114836 1_555
Li3 O3 2.128060 1_655
Li3 O4 2.130545 1_655
Li3 O10 2.442249 1_665
Li3 O0 2.475697 1_555
Li4 O12 2.132164 1_455
Li4 O8 2.132164 1_445
Li4 O14 2.165843 1_555
Li4 O6 2.165843 1_545
Li4 O10 2.377273 1_555
Li4 O11 2.568999 1_454
Li5 O13 2.132164 1_655
Li5 O9 2.132164 1_645
Li5 O15 2.165843 1_555
Li5 O7 2.165843 1_545
Li5 O11 2.377273 1_555
Li5 O10 2.568999 1_655
Li6 O14 2.074289 1_555
Li6 O13 2.114836 1_554
Li6 O19 2.128060 1_455
Li6 O17 2.130545 1_454
Li6 O11 2.442249 1_454
Li6 O1 2.475697 1_554
Li7 O15 2.074289 1_555
Li7 O12 2.114836 1_555
Li7 O18 2.128060 1_655
Li7 O16 2.130545 1_655
Li7 O10 2.442249 1_655
Li7 O0 2.475697 1_555
O0 V0 1.681403 1_555
O1 V1 1.681403 1_555
O2 Si0 1.654119 1_555
O2 V0 2.016417 1_555
O3 Si1 1.654119 1_555
O3 V1 2.016417 1_555
O4 Si0 1.642351 1_555
O4 V0 1.982649 1_455
O5 Si1 1.642351 1_555
O5 V1 1.982649 1_655
O6 Si0 1.642430 1_555
O6 V2 1.975424 1_564
O7 Si1 1.642430 1_555
O7 V3 1.975424 1_565
O8 Si0 1.644162 1_555
O8 V3 1.970133 1_565
O9 Si1 1.644162 1_555
O9 V2 1.970133 1_565
O10 V3 1.685863 1_555
O11 V2 1.685863 1_555
O12 Si2 1.644162 1_555
O12 V3 1.970133 1_555
O13 Si3 1.644162 1_555
O13 V2 1.970133 1_555
O14 Si2 1.642430 1_555
O14 V2 1.975424 1_554
O15 Si3 1.642430 1_555
O15 V3 1.975424 1_555
O16 Si2 1.642351 1_555
O16 V0 1.982649 1_455
O17 Si3 1.642351 1_555
O17 V1 1.982649 1_655
O18 Si3 1.654119 1_555
O18 V1 2.016417 1_555
O19 Si2 1.654119 1_555
O19 V0 2.016417 1_555
