# generated using pymatgen
data_Ce5Gd2O13
_symmetry_space_group_name_H-M   'P 1'
_cell_length_a   3.84417329
_cell_length_b   3.84417329
_cell_length_c   22.41177955
_cell_angle_alpha   94.91986378
_cell_angle_beta   94.91986378
_cell_angle_gamma   60.00000000
_symmetry_Int_Tables_number   1
_chemical_formula_structural   Ce5Gd2O13
_chemical_formula_sum   'Ce5 Gd2 O13'
_cell_volume   285.41239740
_cell_formula_units_Z   1
loop_
 _symmetry_equiv_pos_site_id
 _symmetry_equiv_pos_as_xyz
  1  'x, y, z'
loop_
 _atom_site_type_symbol
 _atom_site_label
 _atom_site_symmetry_multiplicity
 _atom_site_fract_x
 _atom_site_fract_y
 _atom_site_fract_z
 _atom_site_occupancy
  Ce  Ce0  1  0.42822800  0.42822800  0.28468400  1
  Ce  Ce1  1  0.85652500  0.85652500  0.56957500  1
  Ce  Ce2  1  0.14228600  0.14228600  0.42685800  1
  Ce  Ce3  1  0.57078400  0.57078400  0.71235200  1
  Ce  Ce4  1  0.28476000  0.28476000  0.85427900  1
  Gd  Gd0  1  0.71639100  0.71639100  0.14917200  1
  Gd  Gd1  1  0.99888800  0.99888800  0.99666300  1
  O  O0  1  0.75070100  0.75070100  0.25210400  1
  O  O1  1  0.39345900  0.39345900  0.18037500  1
  O  O2  1  0.03102100  0.03102100  0.09306300  1
  O  O3  1  0.82170000  0.82170000  0.46509800  1
  O  O4  1  0.10757700  0.10757700  0.32273200  1
  O  O5  1  0.46456300  0.46456300  0.39368900  1
  O  O6  1  0.53597200  0.53597200  0.60791600  1
  O  O7  1  0.89307100  0.89307100  0.67921300  1
  O  O8  1  0.17880200  0.17880200  0.53640500  1
  O  O9  1  0.96364900  0.96364900  0.89094800  1
  O  O10  1  0.60707900  0.60707900  0.82123700  1
  O  O11  1  0.25025500  0.25025500  0.75076500  1
  O  O12  1  0.32572000  0.32572000  0.97716000  1
loop_
_geom_bond_atom_site_label_1
_geom_bond_atom_site_label_2
_geom_bond_distance
_geom_bond_site_symmetry_2
Ce0 O1 2.326259 1_555
Ce0 O0 2.335339 1_555
Ce0 O0 2.335342 1_455
Ce0 O0 2.335342 1_545
Ce0 O4 2.376108 1_565
Ce0 O4 2.376108 1_655
Ce0 O4 2.376111 1_555
Ce0 O5 2.430987 1_555
Ce1 O3 2.330006 1_555
Ce1 O8 2.339467 1_655
Ce1 O8 2.339467 1_565
Ce1 O8 2.339470 1_665
Ce1 O6 2.378451 1_555
Ce1 O6 2.378451 1_565
Ce1 O6 2.378451 1_655
Ce1 O7 2.445104 1_555
Ce2 O4 2.322178 1_555
Ce2 O5 2.339461 1_455
Ce2 O5 2.339461 1_545
Ce2 O5 2.339461 1_555
Ce2 O3 2.377638 1_445
Ce2 O3 2.377644 1_545
Ce2 O3 2.377644 1_455
Ce2 O8 2.443075 1_555
Ce3 O6 2.329091 1_555
Ce3 O7 2.339250 1_545
Ce3 O7 2.339250 1_455
Ce3 O7 2.339250 1_555
Ce3 O11 2.379028 1_555
Ce3 O11 2.379028 1_565
Ce3 O11 2.379028 1_655
Ce3 O10 2.428311 1_555
Ce4 O11 2.308529 1_555
Ce4 O10 2.338565 1_555
Ce4 O10 2.338568 1_545
Ce4 O10 2.338568 1_455
Ce4 O9 2.365299 1_455
Ce4 O9 2.365299 1_545
Ce4 O9 2.365305 1_445
Ce4 O12 2.740445 1_555
Gd0 O0 2.295550 1_555
Gd0 O1 2.325967 1_555
Gd0 O1 2.325971 1_655
Gd0 O1 2.325971 1_565
Gd0 O2 2.547878 1_665
Gd0 O2 2.547881 1_565
Gd0 O2 2.547881 1_655
Gd1 O2 2.149876 1_666
Gd1 O12 2.261650 1_665
Gd1 O12 2.261653 1_655
Gd1 O12 2.261653 1_565
Gd1 O9 2.357615 1_555
