# generated using pymatgen
data_PrBiO4
_symmetry_space_group_name_H-M   'P 1'
_cell_length_a   5.66094931
_cell_length_b   7.89540910
_cell_length_c   7.95705937
_cell_angle_alpha   82.10459254
_cell_angle_beta   90.00000000
_cell_angle_gamma   90.00000000
_symmetry_Int_Tables_number   1
_chemical_formula_structural   PrBiO4
_chemical_formula_sum   'Pr4 Bi4 O16'
_cell_volume   352.27348879
_cell_formula_units_Z   4
loop_
 _symmetry_equiv_pos_site_id
 _symmetry_equiv_pos_as_xyz
  1  'x, y, z'
loop_
 _atom_site_type_symbol
 _atom_site_label
 _atom_site_symmetry_multiplicity
 _atom_site_fract_x
 _atom_site_fract_y
 _atom_site_fract_z
 _atom_site_occupancy
  Pr  Pr0  1  0.26897031  0.86020800  0.89329305  1
  Pr  Pr1  1  0.23102969  0.86020800  0.39329305  1
  Pr  Pr2  1  0.76897031  0.13979200  0.60670695  1
  Pr  Pr3  1  0.73102969  0.13979200  0.10670695  1
  Bi  Bi0  1  0.77251424  0.66168373  0.68679660  1
  Bi  Bi1  1  0.72748576  0.66168373  0.18679660  1
  Bi  Bi2  1  0.27251424  0.33831627  0.81320340  1
  Bi  Bi3  1  0.22748576  0.33831627  0.31320340  1
  O  O0  1  0.09838735  0.57421712  0.81298044  1
  O  O1  1  0.61489778  0.66935778  0.93164867  1
  O  O2  1  0.40161265  0.57421712  0.31298044  1
  O  O3  1  0.50617888  0.83942009  0.62155046  1
  O  O4  1  0.88510222  0.66935778  0.43164867  1
  O  O5  1  0.99382112  0.83942009  0.12155046  1
  O  O6  1  0.99086332  0.88461149  0.66583068  1
  O  O7  1  0.49086332  0.11538851  0.83416932  1
  O  O8  1  0.50913668  0.88461149  0.16583068  1
  O  O9  1  0.00913668  0.11538851  0.33416932  1
  O  O10  1  0.00617888  0.16057991  0.87844954  1
  O  O11  1  0.11489778  0.33064222  0.56835133  1
  O  O12  1  0.49382112  0.16057991  0.37844954  1
  O  O13  1  0.59838735  0.42578288  0.68701956  1
  O  O14  1  0.38510222  0.33064222  0.06835133  1
  O  O15  1  0.90161265  0.42578288  0.18701956  1
loop_
_geom_bond_atom_site_label_1
_geom_bond_atom_site_label_2
_geom_bond_distance
_geom_bond_site_symmetry_2
Bi0 O3 2.076494 1_555
Bi0 O13 2.107078 1_555
Bi0 O4 2.120830 1_555
Bi0 O6 2.138454 1_555
Bi0 O1 2.151304 1_555
Bi0 O0 2.167404 1_655
Bi1 O5 2.076494 1_555
Bi1 O15 2.107078 1_555
Bi1 O1 2.120830 1_554
Bi1 O8 2.138454 1_555
Bi1 O4 2.151304 1_555
Bi1 O2 2.167404 1_555
Bi2 O10 2.076494 1_555
Bi2 O0 2.107078 1_555
Bi2 O14 2.120830 1_556
Bi2 O7 2.138454 1_555
Bi2 O11 2.151304 1_555
Bi2 O13 2.167404 1_555
Bi3 O12 2.076494 1_555
Bi3 O2 2.107078 1_555
Bi3 O11 2.120830 1_555
Bi3 O9 2.138454 1_555
Bi3 O14 2.151304 1_555
Bi3 O15 2.167404 1_455
O0 Pr0 2.614566 1_555
O1 Pr0 2.464188 1_555
O2 Pr1 2.614566 1_555
O3 Pr1 2.381170 1_555
O3 Pr0 2.569638 1_555
O3 Pr2 2.788259 1_565
O4 Pr1 2.464188 1_655
O5 Pr0 2.381170 1_654
O5 Pr1 2.569638 1_655
O5 Pr3 2.788259 1_565
O6 Pr2 2.366011 1_565
O6 Pr0 2.386576 1_655
O6 Pr1 2.589047 1_655
O7 Pr0 2.366011 1_545
O7 Pr2 2.386576 1_555
O7 Pr3 2.589047 1_556
O8 Pr3 2.366011 1_565
O8 Pr1 2.386576 1_555
O8 Pr0 2.589047 1_554
O9 Pr1 2.366011 1_545
O9 Pr3 2.386576 1_455
O9 Pr2 2.589047 1_455
O10 Pr3 2.381170 1_456
O10 Pr2 2.569638 1_455
O10 Pr0 2.788259 1_545
O11 Pr2 2.464188 1_455
O12 Pr2 2.381170 1_555
O12 Pr3 2.569638 1_555
O12 Pr1 2.788259 1_545
O13 Pr2 2.614566 1_555
O14 Pr3 2.464188 1_555
O15 Pr3 2.614566 1_555
