# generated using pymatgen
data_Li2Mn2CrO6
_symmetry_space_group_name_H-M   'P 1'
_cell_length_a   5.11252666
_cell_length_b   5.11252666
_cell_length_c   10.20918100
_cell_angle_alpha   90.00000000
_cell_angle_beta   90.00000000
_cell_angle_gamma   118.55016045
_symmetry_Int_Tables_number   1
_chemical_formula_structural   Li2Mn2CrO6
_chemical_formula_sum   'Li4 Mn4 Cr2 O12'
_cell_volume   234.39801368
_cell_formula_units_Z   2
loop_
 _symmetry_equiv_pos_site_id
 _symmetry_equiv_pos_as_xyz
  1  'x, y, z'
loop_
 _atom_site_type_symbol
 _atom_site_label
 _atom_site_symmetry_multiplicity
 _atom_site_fract_x
 _atom_site_fract_y
 _atom_site_fract_z
 _atom_site_occupancy
  Li  Li0  1  0.64739400  0.14739400  0.75000000  1
  Li  Li1  1  0.85260600  0.35260600  0.25000000  1
  Li  Li2  1  0.14739400  0.64739400  0.75000000  1
  Li  Li3  1  0.35260600  0.85260600  0.25000000  1
  Mn  Mn0  1  0.83717700  0.16282300  0.50000000  1
  Mn  Mn1  1  0.66282300  0.33717700  0.00000000  1
  Mn  Mn2  1  0.33717700  0.66282300  0.00000000  1
  Mn  Mn3  1  0.16282300  0.83717700  0.50000000  1
  Cr  Cr0  1  0.00000000  0.00000000  0.00000000  1
  Cr  Cr1  1  0.50000000  0.50000000  0.50000000  1
  O  O0  1  0.67072700  0.02091300  0.10610700  1
  O  O1  1  0.32927300  0.97908700  0.89389300  1
  O  O2  1  0.52091300  0.17072700  0.39389300  1
  O  O3  1  0.82927300  0.47908700  0.60610700  1
  O  O4  1  0.16540400  0.16540400  0.59605700  1
  O  O5  1  0.33459600  0.33459600  0.09605700  1
  O  O6  1  0.66540400  0.66540400  0.90394300  1
  O  O7  1  0.97908700  0.32927300  0.89389300  1
  O  O8  1  0.83459600  0.83459600  0.40394300  1
  O  O9  1  0.17072700  0.52091300  0.39389300  1
  O  O10  1  0.47908700  0.82927300  0.60610700  1
  O  O11  1  0.02091300  0.67072700  0.10610700  1
loop_
_geom_bond_atom_site_label_1
_geom_bond_atom_site_label_2
_geom_bond_distance
_geom_bond_site_symmetry_2
Li0 O1 2.050841 1_545
Li0 O10 2.050841 1_545
Li0 O7 2.095507 1_555
Li0 O3 2.095507 1_555
Li1 O9 2.050841 1_655
Li1 O11 2.050841 1_655
Li1 O2 2.095507 1_555
Li1 O0 2.095507 1_555
Li2 O7 2.050841 1_455
Li2 O3 2.050841 1_455
Li2 O1 2.095507 1_555
Li2 O10 2.095507 1_555
Li3 O2 2.050841 1_565
Li3 O0 2.050841 1_565
Li3 O9 2.095507 1_555
Li3 O11 2.095507 1_555
Mn0 O8 1.938202 1_545
Mn0 O4 1.938202 1_655
Mn0 O2 1.962637 1_555
Mn0 O3 1.962637 1_555
Mn0 O9 2.109255 1_655
Mn0 O10 2.109255 1_545
Mn1 O5 1.938202 1_555
Mn1 O6 1.938202 1_554
Mn1 O0 1.962637 1_555
Mn1 O7 1.962637 1_554
Mn1 O11 2.109255 1_655
Mn1 O1 2.109255 1_544
Mn2 O5 1.938202 1_555
Mn2 O6 1.938202 1_554
Mn2 O11 1.962637 1_555
Mn2 O1 1.962637 1_554
Mn2 O0 2.109255 1_565
Mn2 O7 2.109255 1_454
Mn3 O8 1.938202 1_455
Mn3 O4 1.938202 1_565
Mn3 O9 1.962637 1_555
Mn3 O10 1.962637 1_555
Mn3 O2 2.109255 1_565
Mn3 O3 2.109255 1_455
Cr0 O5 2.004279 1_555
Cr0 O6 2.004279 1_444
Cr0 O0 2.047152 1_455
Cr0 O11 2.047152 1_545
Cr0 O1 2.047152 1_544
Cr0 O7 2.047152 1_454
Cr1 O4 2.004279 1_555
Cr1 O8 2.004279 1_555
Cr1 O3 2.047152 1_555
Cr1 O10 2.047152 1_555
Cr1 O2 2.047152 1_555
Cr1 O9 2.047152 1_555
