# generated using pymatgen
data_K3Ta8O21
_symmetry_space_group_name_H-M   'P 1'
_cell_length_a   9.17286550
_cell_length_b   9.17286545
_cell_length_c   12.10500708
_cell_angle_alpha   89.99999109
_cell_angle_beta   90.00000486
_cell_angle_gamma   120.00001866
_symmetry_Int_Tables_number   1
_chemical_formula_structural   K3Ta8O21
_chemical_formula_sum   'K6 Ta16 O42'
_cell_volume   882.07527098
_cell_formula_units_Z   2
loop_
 _symmetry_equiv_pos_site_id
 _symmetry_equiv_pos_as_xyz
  1  'x, y, z'
loop_
 _atom_site_type_symbol
 _atom_site_label
 _atom_site_symmetry_multiplicity
 _atom_site_fract_x
 _atom_site_fract_y
 _atom_site_fract_z
 _atom_site_occupancy
  K  K0  1  -0.00000015  0.59223230  0.25000233  1
  K  K1  1  0.00000001  0.40776703  0.74999766  1
  K  K2  1  0.40776736  0.40776768  0.25000231  1
  K  K3  1  0.59223287  0.59223276  0.74999764  1
  K  K4  1  0.40776780  0.00000023  0.74999764  1
  K  K5  1  0.59223247  -0.00000014  0.25000214  1
  Ta  Ta0  1  -0.00000008  0.75214930  0.59475935  1
  Ta  Ta1  1  -0.00000003  0.75216113  0.90518991  1
  Ta  Ta2  1  0.00000006  0.24785025  0.40524079  1
  Ta  Ta3  1  0.00000001  0.24783850  0.09480977  1
  Ta  Ta4  1  0.33333303  0.66666681  0.49999981  1
  Ta  Ta5  1  0.33333313  0.66666677  0.00000022  1
  Ta  Ta6  1  0.24783924  0.24783926  0.90518995  1
  Ta  Ta7  1  0.24785119  0.24785116  0.59475949  1
  Ta  Ta8  1  0.24783849  0.00000009  0.09480981  1
  Ta  Ta9  1  0.24785035  0.00000010  0.40524068  1
  Ta  Ta10  1  0.75216128  0.75216130  0.09480974  1
  Ta  Ta11  1  0.75214930  0.75214939  0.40524062  1
  Ta  Ta12  1  0.66666693  0.33333331  0.49999972  1
  Ta  Ta13  1  0.66666680  0.33333336  0.00000024  1
  Ta  Ta14  1  0.75214916  -0.00000013  0.59475941  1
  Ta  Ta15  1  0.75216100  -0.00000002  0.90518999  1
  O  O0  1  -0.00000021  0.80162871  0.07419021  1
  O  O1  1  -0.00000007  0.80163435  0.42582869  1
  O  O2  1  -0.00000017  0.79239813  0.74998165  1
  O  O3  1  0.16781622  0.68654818  0.90505151  1
  O  O4  1  0.16782211  0.68655471  0.59492309  1
  O  O5  1  0.00000021  0.20760181  0.25001824  1
  O  O6  1  0.31345202  0.83218402  0.09494831  1
  O  O7  1  0.31344547  0.83217808  0.40507701  1
  O  O8  1  0.00000010  0.19836582  0.57417130  1
  O  O9  1  0.00000010  0.19837133  0.92580980  1
  O  O10  1  0.16781591  0.48126820  0.09494828  1
  O  O11  1  0.16782177  0.48126767  0.40507709  1
  O  O12  1  0.31345211  0.48126842  0.90505149  1
  O  O13  1  0.31344558  0.48126779  0.59492309  1
  O  O14  1  0.19837142  0.19837136  0.07419031  1
  O  O15  1  0.19836612  0.19836601  0.42582871  1
  O  O16  1  0.51873227  0.83217787  0.59492304  1
  O  O17  1  0.51873175  0.83218386  0.90505165  1
  O  O18  1  0.20760186  0.20760186  0.74998174  1
  O  O19  1  0.51873230  0.68655426  0.40507709  1
  O  O20  1  0.51873161  0.68654754  0.09494833  1
  O  O21  1  0.19837137  0.00000016  0.92580977  1
  O  O22  1  0.19836603  0.00000016  0.57417124  1
  O  O23  1  0.20760181  0.00000022  0.25001822  1
  O  O24  1  0.48126836  0.31345222  0.90505161  1
  O  O25  1  0.48126782  0.31344559  0.59492306  1
  O  O26  1  0.79239812  0.79239812  0.25001818  1
  O  O27  1  0.48126816  0.16781588  0.09494830  1
  O  O28  1  0.48126766  0.16782195  0.40507709  1
  O  O29  1  0.80163377  0.80163392  0.57417127  1
  O  O30  1  0.80162851  0.80162850  0.92580970  1
  O  O31  1  0.68654760  0.51873165  0.09494838  1
  O  O32  1  0.68655416  0.51873227  0.40507699  1
  O  O33  1  0.83217793  0.51873241  0.59492305  1
  O  O34  1  0.83218381  0.51873179  0.90505156  1
  O  O35  1  0.68655477  0.16782224  0.59492302  1
  O  O36  1  0.68654821  0.16781632  0.90505155  1
  O  O37  1  0.83217821  0.31344565  0.40507707  1
  O  O38  1  0.83218400  0.31345207  0.09494831  1
  O  O39  1  0.79239809  -0.00000022  0.74998174  1
  O  O40  1  0.80163424  -0.00000010  0.42582871  1
  O  O41  1  0.80162867  -0.00000022  0.07419029  1
loop_
_geom_bond_atom_site_label_1
_geom_bond_atom_site_label_2
_geom_bond_distance
_geom_bond_site_symmetry_2
K0 O0 2.866811 1_555
K0 O1 2.866973 1_555
K0 O38 2.914680 1_455
K0 O10 2.914680 1_555
K0 O37 2.914882 1_455
K0 O11 2.914882 1_555
K0 O6 3.210294 1_555
K0 O31 3.210294 1_455
K0 O7 3.210394 1_555
K0 O32 3.210394 1_455
K0 O26 3.239459 1_455
K0 O23 3.239461 1_565
K1 O9 2.866807 1_555
K1 O8 2.866969 1_555
K1 O34 2.914684 1_455
K1 O3 2.914684 1_555
K1 O33 2.914886 1_455
K1 O4 2.914887 1_555
K1 O36 3.210289 1_455
K1 O12 3.210290 1_555
K1 O35 3.210389 1_455
K1 O13 3.210391 1_555
K1 O18 3.239454 1_555
K1 O39 3.239455 1_455
K2 O14 2.866808 1_555
K2 O15 2.866970 1_555
K2 O20 2.914677 1_555
K2 O31 2.914680 1_555
K2 O19 2.914882 1_555
K2 O32 2.914883 1_555
K2 O10 3.210293 1_555
K2 O27 3.210297 1_555
K2 O11 3.210395 1_555
K2 O28 3.210397 1_555
K2 O5 3.239454 1_555
K2 O23 3.239457 1_555
K3 O30 2.866805 1_555
K3 O29 2.866967 1_555
K3 O24 2.914681 1_555
K3 O12 2.914682 1_555
K3 O25 2.914885 1_555
K3 O13 2.914885 1_555
K3 O34 3.210291 1_555
K3 O17 3.210293 1_555
K3 O33 3.210391 1_555
K3 O16 3.210393 1_555
K3 O2 3.239453 1_655
K3 O39 3.239453 1_565
K4 O21 2.866811 1_555
K4 O22 2.866972 1_555
K4 O36 2.914680 1_555
K4 O17 2.914681 1_545
K4 O35 2.914883 1_555
K4 O16 2.914883 1_545
K4 O3 3.210292 1_545
K4 O24 3.210292 1_555
K4 O25 3.210391 1_555
K4 O4 3.210392 1_545
K4 O18 3.239459 1_555
K4 O2 3.239461 1_545
K5 O41 2.866807 1_555
K5 O40 2.866973 1_555
K5 O27 2.914679 1_555
K5 O6 2.914680 1_545
K5 O7 2.914885 1_545
K5 O28 2.914886 1_555
K5 O38 3.210292 1_555
K5 O20 3.210293 1_545
K5 O19 3.210395 1_545
K5 O37 3.210396 1_555
K5 O26 3.239457 1_545
K5 O5 3.239459 1_655
O0 Ta1 2.095469 1_554
O0 Ta10 2.098792 1_455
O0 Ta8 2.098793 1_565
O1 Ta0 2.094681 1_555
O1 Ta9 2.098801 1_565
O1 Ta11 2.098802 1_455
O2 Ta1 1.914708 1_555
O2 Ta0 1.914895 1_555
O3 Ta1 1.912676 1_555
O3 Ta5 1.984008 1_556
O4 Ta0 1.912608 1_555
O4 Ta4 1.983813 1_555
O5 Ta3 1.914710 1_555
O5 Ta2 1.914898 1_555
O6 Ta8 1.912678 1_565
O6 Ta5 1.984005 1_555
O7 Ta9 1.912610 1_565
O7 Ta4 1.983811 1_555
O8 Ta2 2.094678 1_555
O8 Ta14 2.098805 1_455
O8 Ta7 2.098806 1_555
O9 Ta3 2.095464 1_556
O9 Ta15 2.098796 1_455
O9 Ta6 2.098796 1_555
O10 Ta3 1.912678 1_555
O10 Ta5 1.984005 1_555
O11 Ta2 1.912610 1_555
O11 Ta4 1.983811 1_555
O12 Ta6 1.912675 1_555
O12 Ta5 1.984009 1_556
O13 Ta7 1.912607 1_555
O13 Ta4 1.983816 1_555
O14 Ta6 2.095470 1_554
O14 Ta8 2.098791 1_555
O14 Ta3 2.098793 1_555
O15 Ta7 2.094682 1_555
O15 Ta9 2.098800 1_555
O15 Ta2 2.098802 1_555
O16 Ta14 1.912607 1_565
O16 Ta4 1.983815 1_555
O17 Ta15 1.912675 1_565
O17 Ta5 1.984008 1_556
O18 Ta6 1.914708 1_555
O18 Ta7 1.914895 1_555
O19 Ta11 1.912608 1_555
O19 Ta4 1.983814 1_555
O20 Ta10 1.912678 1_555
O20 Ta5 1.984007 1_555
O21 Ta8 2.095465 1_556
O21 Ta1 2.098796 1_545
O21 Ta6 2.098796 1_555
O22 Ta9 2.094678 1_555
O22 Ta0 2.098805 1_545
O22 Ta7 2.098805 1_555
O23 Ta8 1.914709 1_555
O23 Ta9 1.914897 1_555
O24 Ta6 1.912675 1_555
O24 Ta13 1.984009 1_556
O25 Ta7 1.912606 1_555
O25 Ta12 1.983816 1_555
O26 Ta10 1.914709 1_555
O26 Ta11 1.914897 1_555
O27 Ta8 1.912677 1_555
O27 Ta13 1.984006 1_555
O28 Ta9 1.912610 1_555
O28 Ta12 1.983812 1_555
O29 Ta11 2.094679 1_555
O29 Ta14 2.098803 1_565
O29 Ta0 2.098805 1_655
O30 Ta10 2.095465 1_556
O30 Ta1 2.098795 1_655
O30 Ta15 2.098796 1_565
O31 Ta10 1.912678 1_555
O31 Ta13 1.984006 1_555
O32 Ta11 1.912609 1_555
O32 Ta12 1.983812 1_555
O33 Ta0 1.912607 1_655
O33 Ta12 1.983815 1_555
O34 Ta1 1.912676 1_655
O34 Ta13 1.984008 1_556
O35 Ta14 1.912608 1_555
O35 Ta12 1.983814 1_555
O36 Ta15 1.912676 1_555
O36 Ta13 1.984009 1_556
O37 Ta2 1.912610 1_655
O37 Ta12 1.983810 1_555
O38 Ta3 1.912678 1_655
O38 Ta13 1.984005 1_555
O39 Ta15 1.914708 1_555
O39 Ta14 1.914896 1_555
O40 Ta14 2.094681 1_555
O40 Ta2 2.098800 1_655
O40 Ta11 2.098801 1_545
O41 Ta15 2.095469 1_554
O41 Ta10 2.098791 1_545
O41 Ta3 2.098793 1_655
