# generated using pymatgen
data_Li4Fe2Ni3Sn3O16
_symmetry_space_group_name_H-M   'P 1'
_cell_length_a   6.02123200
_cell_length_b   6.02289276
_cell_length_c   9.61598913
_cell_angle_alpha   88.51425186
_cell_angle_beta   88.85640246
_cell_angle_gamma   60.63545588
_symmetry_Int_Tables_number   1
_chemical_formula_structural   Li4Fe2Ni3Sn3O16
_chemical_formula_sum   'Li4 Fe2 Ni3 Sn3 O16'
_cell_volume   303.80819625
_cell_formula_units_Z   1
loop_
 _symmetry_equiv_pos_site_id
 _symmetry_equiv_pos_as_xyz
  1  'x, y, z'
loop_
 _atom_site_type_symbol
 _atom_site_label
 _atom_site_symmetry_multiplicity
 _atom_site_fract_x
 _atom_site_fract_y
 _atom_site_fract_z
 _atom_site_occupancy
  Li  Li0  1  0.32728400  0.31999800  0.11561600  1
  Li  Li1  1  0.02127800  0.02318500  0.00723100  1
  Li  Li2  1  0.01453000  0.01546100  0.49716500  1
  Li  Li3  1  0.66420800  0.66022200  0.60178800  1
  Fe  Fe0  1  0.32721700  0.33733800  0.50325400  1
  Fe  Fe1  1  0.66046000  0.65576100  0.01150200  1
  Ni  Ni0  1  0.16809100  0.16917700  0.78142800  1
  Ni  Ni1  1  0.33977700  0.82611900  0.28437400  1
  Ni  Ni2  1  0.82990500  0.34117100  0.28591300  1
  Sn  Sn0  1  0.16783700  0.65933100  0.78833600  1
  Sn  Sn1  1  0.65918300  0.16681900  0.78731100  1
  Sn  Sn2  1  0.82819500  0.83382700  0.28592500  1
  O  O0  1  0.16966900  0.68294300  0.40048200  1
  O  O1  1  0.48050200  0.48255400  0.65223700  1
  O  O2  1  0.33240900  0.32966400  0.90734900  1
  O  O3  1  0.99715300  0.99782000  0.68173300  1
  O  O4  1  0.99630200  0.02708000  0.19210200  1
  O  O5  1  0.67895400  0.17176600  0.40208900  1
  O  O6  1  0.03488200  0.47272300  0.65890900  1
  O  O7  1  0.46860700  0.03669300  0.65740700  1
  O  O8  1  0.83808500  0.83664900  0.91604200  1
  O  O9  1  0.15561900  0.18414900  0.39163000  1
  O  O10  1  0.50517700  0.95341400  0.16132200  1
  O  O11  1  0.95763400  0.50576600  0.16223400  1
  O  O12  1  0.66972000  0.64165900  0.39276900  1
  O  O13  1  0.33050500  0.83944600  0.90061700  1
  O  O14  1  0.53241200  0.50053700  0.16773400  1
  O  O15  1  0.84410400  0.32903100  0.89765900  1
loop_
_geom_bond_atom_site_label_1
_geom_bond_atom_site_label_2
_geom_bond_distance
_geom_bond_site_symmetry_2
Li0 O10 1.965806 1_545
Li0 O11 1.987619 1_455
Li0 O2 2.002092 1_554
Li0 O14 2.080669 1_555
Li1 O4 1.780864 1_455
Li1 O15 1.912705 1_454
Li1 O13 1.924661 1_544
Li1 O8 2.133756 1_444
Li2 O3 1.779291 1_445
Li2 O9 1.882127 1_555
Li2 O5 1.992090 1_455
Li2 O0 1.993733 1_545
Li3 O1 1.927807 1_555
Li3 O12 2.014634 1_555
Li3 O6 2.025661 1_655
Li3 O7 2.057467 1_565
Fe0 O9 2.025222 1_555
Fe0 O0 2.050256 1_555
Fe0 O5 2.079186 1_555
Fe0 O6 2.134030 1_555
Fe0 O1 2.139781 1_555
Fe0 O7 2.144817 1_555
Fe1 O13 2.043470 1_554
Fe1 O15 2.054975 1_554
Fe1 O8 2.055515 1_554
Fe1 O14 2.076853 1_555
Fe1 O11 2.137536 1_555
Fe1 O10 2.144737 1_555
Ni0 O6 1.965110 1_555
Ni0 O7 1.969861 1_555
Ni0 O15 2.026954 1_455
Ni0 O3 2.043539 1_445
Ni0 O13 2.058131 1_545
Ni0 O2 2.103762 1_555
Ni1 O10 1.906441 1_555
Ni1 O0 1.951907 1_555
Ni1 O4 2.022885 1_465
Ni1 O12 2.031144 1_555
Ni1 O14 2.068849 1_555
Ni1 O9 2.160532 1_565
Ni2 O4 1.894688 1_555
Ni2 O12 1.899060 1_555
Ni2 O11 1.907551 1_555
Ni2 O14 1.939038 1_555
Ni2 O5 1.981168 1_555
Ni2 O9 1.996205 1_655
O0 Sn2 2.114912 1_455
O1 Sn1 2.093322 1_555
O1 Sn0 2.097319 1_555
O2 Sn0 2.057151 1_555
O2 Sn1 2.059407 1_555
O3 Sn0 2.035219 1_655
O3 Sn1 2.036578 1_565
O4 Sn2 2.063454 1_545
O5 Sn2 2.117089 1_545
O6 Sn0 2.108971 1_555
O7 Sn1 2.116928 1_555
O8 Sn1 2.114687 1_565
O8 Sn0 2.117057 1_655
O10 Sn2 2.100403 1_555
O11 Sn2 2.121510 1_555
O12 Sn2 2.070755 1_555
O13 Sn0 2.108770 1_555
O15 Sn1 2.118491 1_555
