# generated using pymatgen
data_LiCrCO4
_symmetry_space_group_name_H-M   'P 1'
_cell_length_a   3.10487482
_cell_length_b   9.33751003
_cell_length_c   9.38454520
_cell_angle_alpha   90.00952198
_cell_angle_beta   89.99866672
_cell_angle_gamma   90.00191377
_symmetry_Int_Tables_number   1
_chemical_formula_structural   LiCrCO4
_chemical_formula_sum   'Li4 Cr4 C4 O16'
_cell_volume   272.07485142
_cell_formula_units_Z   4
loop_
 _symmetry_equiv_pos_site_id
 _symmetry_equiv_pos_as_xyz
  1  'x, y, z'
loop_
 _atom_site_type_symbol
 _atom_site_label
 _atom_site_symmetry_multiplicity
 _atom_site_fract_x
 _atom_site_fract_y
 _atom_site_fract_z
 _atom_site_occupancy
  Li  Li0  1  0.24938900  0.30677700  0.90785400  1
  Li  Li1  1  0.24933000  0.19315200  0.40785800  1
  Li  Li2  1  0.75057400  0.80690800  0.59213100  1
  Li  Li3  1  0.75063100  0.69324300  0.09212400  1
  Cr  Cr0  1  0.25039600  0.93993300  0.87972100  1
  Cr  Cr1  1  0.24962200  0.56007400  0.37958200  1
  Cr  Cr2  1  0.74972100  0.43982000  0.62032400  1
  Cr  Cr3  1  0.75044600  0.06002600  0.12041500  1
  C  C0  1  0.24996000  0.63168500  0.83304800  1
  C  C1  1  0.25006000  0.86834600  0.33313100  1
  C  C2  1  0.74993900  0.13165800  0.66686200  1
  C  C3  1  0.74997900  0.36830400  0.16694300  1
  O  O0  1  0.24952000  0.50728500  0.75871200  1
  O  O1  1  0.25044700  0.11323800  0.99965400  1
  O  O2  1  0.24977300  0.75082400  0.75990600  1
  O  O3  1  0.25031500  0.99272100  0.25881500  1
  O  O4  1  0.24962900  0.38676300  0.49952700  1
  O  O5  1  0.24942800  0.74918900  0.25994300  1
  O  O6  1  0.25057000  0.62711000  0.96598900  1
  O  O7  1  0.25041500  0.87303000  0.46605600  1
  O  O8  1  0.74940900  0.12701700  0.53395600  1
  O  O9  1  0.74955400  0.37289100  0.03400200  1
  O  O10  1  0.75000700  0.25083100  0.74006500  1
  O  O11  1  0.74964600  0.61319900  0.50043200  1
  O  O12  1  0.75043300  0.00729300  0.74118900  1
  O  O13  1  0.75065100  0.24918200  0.24011000  1
  O  O14  1  0.75039200  0.88678700  0.00037900  1
  O  O15  1  0.74976400  0.49271500  0.24127200  1
loop_
_geom_bond_atom_site_label_1
_geom_bond_atom_site_label_2
_geom_bond_distance
_geom_bond_site_symmetry_2
Li0 O1 2.002145 1_555
Li0 O9 2.047144 1_456
Li0 O9 2.047931 1_556
Li0 O10 2.270734 1_455
Li0 O10 2.273330 1_555
Li0 O0 2.337763 1_555
Li1 O4 2.001962 1_555
Li1 O8 2.047221 1_455
Li1 O8 2.047666 1_555
Li1 O13 2.269302 1_455
Li1 O13 2.274833 1_555
Li1 O3 2.336261 1_545
Li2 O11 2.002912 1_555
Li2 O7 2.046872 1_655
Li2 O7 2.047693 1_555
Li2 O2 2.270696 1_655
Li2 O2 2.274020 1_555
Li2 O12 2.335999 1_565
Li3 O14 2.001963 1_555
Li3 O6 2.047371 1_654
Li3 O6 2.047669 1_554
Li3 O5 2.269689 1_655
Li3 O5 2.274767 1_555
Li3 O15 2.337948 1_555
Cr0 O1 1.971008 1_565
Cr0 O14 1.984583 1_456
Cr0 O14 1.984631 1_556
Cr0 O2 2.093255 1_555
Cr0 O12 2.120354 1_465
Cr0 O12 2.120447 1_565
Cr1 O4 1.971426 1_555
Cr1 O11 1.985426 1_455
Cr1 O11 1.985558 1_555
Cr1 O5 2.092730 1_555
Cr1 O15 2.118677 1_455
Cr1 O15 2.119309 1_555
Cr2 O11 1.971663 1_555
Cr2 O4 1.984819 1_655
Cr2 O4 1.985281 1_555
Cr2 O10 2.092251 1_555
Cr2 O0 2.119285 1_655
Cr2 O0 2.120186 1_555
Cr3 O14 1.971055 1_545
Cr3 O1 1.985281 1_654
Cr3 O1 1.985344 1_554
Cr3 O13 2.093020 1_555
Cr3 O3 2.119228 1_645
Cr3 O3 2.119749 1_545
C0 O6 1.248331 1_555
C0 O2 1.307278 1_555
C0 O0 1.354871 1_555
C1 O7 1.248200 1_555
C1 O5 1.307455 1_555
C1 O3 1.354772 1_555
C2 O8 1.248009 1_555
C2 O10 1.307655 1_555
C2 O12 1.354746 1_555
C3 O9 1.248334 1_555
C3 O13 1.307268 1_555
C3 O15 1.354924 1_555
