# generated using pymatgen
data_Fe6O7F5
_symmetry_space_group_name_H-M   'P 1'
_cell_length_a   4.71066052
_cell_length_b   7.76846582
_cell_length_c   5.59639641
_cell_angle_alpha   94.10241690
_cell_angle_beta   89.22231204
_cell_angle_gamma   90.56448925
_symmetry_Int_Tables_number   1
_chemical_formula_structural   Fe6O7F5
_chemical_formula_sum   'Fe6 O7 F5'
_cell_volume   204.24626274
_cell_formula_units_Z   1
loop_
 _symmetry_equiv_pos_site_id
 _symmetry_equiv_pos_as_xyz
  1  'x, y, z'
loop_
 _atom_site_type_symbol
 _atom_site_label
 _atom_site_symmetry_multiplicity
 _atom_site_fract_x
 _atom_site_fract_y
 _atom_site_fract_z
 _atom_site_occupancy
  Fe  Fe0  1  0.55745700  0.65142000  0.17972400  1
  Fe  Fe1  1  0.48437100  0.00203300  0.49946500  1
  Fe  Fe2  1  0.51156000  0.34538000  0.81499500  1
  Fe  Fe3  1  0.97525100  0.68494300  0.66028500  1
  Fe  Fe4  1  0.98028800  0.31615600  0.35226200  1
  Fe  Fe5  1  0.99123700  0.98797800  0.00111300  1
  O  O0  1  0.80353000  0.44446100  0.62497600  1
  O  O1  1  0.80192200  0.76668600  0.96566300  1
  O  O2  1  0.80523200  0.09315200  0.29506400  1
  O  O3  1  0.68561500  0.77728500  0.46215800  1
  O  O4  1  0.70294300  0.42228900  0.12453500  1
  O  O5  1  0.30727300  0.23633200  0.54095200  1
  O  O6  1  0.18689900  0.90513400  0.70403400  1
  F  F0  1  0.69654000  0.10621300  0.80120300  1
  F  F1  1  0.30183100  0.56816700  0.87597800  1
  F  F2  1  0.30337400  0.89461600  0.19609600  1
  F  F3  1  0.20282400  0.22876500  0.03678900  1
  F  F4  1  0.20185200  0.56898900  0.36470600  1
loop_
_geom_bond_atom_site_label_1
_geom_bond_atom_site_label_2
_geom_bond_distance
_geom_bond_site_symmetry_2
Fe0 O3 1.900525 1_555
Fe0 O1 1.912805 1_554
Fe0 O4 1.916532 1_555
Fe1 O6 1.974818 1_545
Fe1 O3 1.991405 1_545
Fe1 O5 2.006738 1_555
Fe1 O2 2.035180 1_555
Fe2 O0 1.916119 1_555
Fe2 O5 1.958038 1_555
Fe2 O4 2.013536 1_556
Fe3 O3 1.944148 1_555
Fe3 O1 1.951335 1_555
Fe3 O6 1.973075 1_655
Fe3 O0 2.026135 1_555
Fe4 O2 1.919208 1_555
Fe4 O0 1.944302 1_555
Fe4 O5 2.007206 1_655
Fe4 O4 2.056128 1_555
Fe5 O1 1.927632 1_554
Fe5 O6 1.960830 1_654
Fe5 O2 1.980960 1_565
F0 Fe2 2.055926 1_555
F0 Fe5 2.058342 1_546
F0 Fe1 2.083211 1_555
F1 Fe2 2.006973 1_555
F1 Fe0 2.154257 1_556
F1 Fe3 2.209376 1_455
F2 Fe5 2.014088 1_455
F2 Fe1 2.031819 1_565
F2 Fe0 2.242114 1_555
F3 Fe5 2.108903 1_445
F3 Fe4 2.114033 1_455
F3 Fe2 2.135988 1_554
F4 Fe0 2.077134 1_555
F4 Fe3 2.108308 1_455
F4 Fe4 2.212234 1_455
