# generated using pymatgen
data_Fe25Si11O48
_symmetry_space_group_name_H-M   'P 1'
_cell_length_a   10.24135298
_cell_length_b   10.24135298
_cell_length_c   10.23562843
_cell_angle_alpha   80.40827886
_cell_angle_beta   80.40827886
_cell_angle_gamma   119.99848173
_symmetry_Int_Tables_number   1
_chemical_formula_structural   Fe25Si11O48
_chemical_formula_sum   'Fe25 Si11 O48'
_cell_volume   876.60631587
_cell_formula_units_Z   1
loop_
 _symmetry_equiv_pos_site_id
 _symmetry_equiv_pos_as_xyz
  1  'x, y, z'
loop_
 _atom_site_type_symbol
 _atom_site_label
 _atom_site_symmetry_multiplicity
 _atom_site_fract_x
 _atom_site_fract_y
 _atom_site_fract_z
 _atom_site_occupancy
  Fe  Fe0  1  0.10307200  0.93494400  0.18561400  1
  Fe  Fe1  1  0.10365700  0.43995900  0.18599900  1
  Fe  Fe2  1  0.20802600  0.20802600  0.37529500  1
  Fe  Fe3  1  0.26998700  0.77261900  0.18970800  1
  Fe  Fe4  1  0.43860700  0.60798100  0.18595400  1
  Fe  Fe5  1  0.60798100  0.43860700  0.18595400  1
  Fe  Fe6  1  0.10357500  0.93468900  0.68991700  1
  Fe  Fe7  1  0.27203100  0.27203100  0.69015900  1
  Fe  Fe8  1  0.18700200  0.85099800  0.43852100  1
  Fe  Fe9  1  0.43995900  0.10365700  0.18599900  1
  Fe  Fe10  1  0.52342500  0.52342500  0.43934600  1
  Fe  Fe11  1  0.02292900  0.02292900  0.93389900  1
  Fe  Fe12  1  0.76695600  0.76695600  0.18978500  1
  Fe  Fe13  1  0.77261900  0.26998700  0.18970800  1
  Fe  Fe14  1  0.27222400  0.77194500  0.68713800  1
  Fe  Fe15  1  0.60415700  0.43645100  0.68705700  1
  Fe  Fe16  1  0.93494400  0.10307200  0.18561400  1
  Fe  Fe17  1  0.43645100  0.60415700  0.68705700  1
  Fe  Fe18  1  0.35423100  0.68714800  0.93649200  1
  Fe  Fe19  1  0.60410400  0.93653100  0.68707600  1
  Fe  Fe20  1  0.85099800  0.18700200  0.43852100  1
  Fe  Fe21  1  0.93468900  0.10357500  0.68991700  1
  Fe  Fe22  1  0.77194500  0.27222400  0.68713800  1
  Fe  Fe23  1  0.93653100  0.60410400  0.68707600  1
  Fe  Fe24  1  0.68714800  0.35423100  0.93649200  1
  Si  Si0  1  0.16668200  0.50048500  0.50014700  1
  Si  Si1  1  0.04106400  0.37547000  0.87513800  1
  Si  Si2  1  0.54163500  0.87516200  0.37508000  1
  Si  Si3  1  0.00001700  0.66686800  0.00015700  1
  Si  Si4  1  0.50048500  0.16668200  0.50014700  1
  Si  Si5  1  0.83294900  0.83294900  0.49994600  1
  Si  Si6  1  0.33325400  0.33325400  0.99956700  1
  Si  Si7  1  0.37547000  0.04106400  0.87513800  1
  Si  Si8  1  0.87516200  0.54163500  0.37508000  1
  Si  Si9  1  0.70845700  0.70845700  0.87471600  1
  Si  Si10  1  0.66686800  0.00001700  0.00015700  1
  O  O0  1  0.16015800  0.16015800  0.05607600  1
  O  O1  1  0.13455900  0.64694400  0.05784000  1
  O  O2  1  0.31457100  0.46862200  0.05678200  1
  O  O3  1  0.46862200  0.31457100  0.05678200  1
  O  O4  1  0.05463100  0.23116700  0.30856200  1
  O  O5  1  0.23116700  0.05463100  0.30856200  1
  O  O6  1  0.04865000  0.71263200  0.31667400  1
  O  O7  1  0.31901900  0.98219400  0.04723900  1
  O  O8  1  0.40873900  0.40873900  0.30732400  1
  O  O9  1  0.14170500  0.14170500  0.57389000  1
  O  O10  1  0.65230300  0.65230300  0.04800800  1
  O  O11  1  0.49332100  0.82564600  0.05809500  1
  O  O12  1  0.22456100  0.55837200  0.32685900  1
  O  O13  1  0.64694400  0.13455900  0.05784000  1
  O  O14  1  0.14709500  0.63587200  0.55846100  1
  O  O15  1  0.97981200  0.80151500  0.05799400  1
  O  O16  1  0.80151500  0.97981200  0.05799400  1
  O  O17  1  0.48188800  0.30102400  0.55800800  1
  O  O18  1  0.30102400  0.48188800  0.55800800  1
  O  O19  1  0.05923700  0.23960800  0.82015600  1
  O  O20  1  0.56411600  0.74309900  0.31574400  1
  O  O21  1  0.74309900  0.56411600  0.31574400  1
  O  O22  1  0.23960800  0.05923700  0.82015600  1
  O  O23  1  0.40724500  0.89213600  0.31651300  1
  O  O24  1  0.21523500  0.54896800  0.81716400  1
  O  O25  1  0.48374700  0.81670400  0.54860300  1
  O  O26  1  0.98219400  0.31901900  0.04723900  1
  O  O27  1  0.71263200  0.04865000  0.31667400  1
  O  O28  1  0.88923000  0.88923000  0.32679200  1
  O  O29  1  0.05763700  0.72468400  0.82696600  1
  O  O30  1  0.32773700  0.99329600  0.55822100  1
  O  O31  1  0.39174600  0.39174600  0.82553100  1
  O  O32  1  0.65852500  0.65852500  0.55832800  1
  O  O33  1  0.82564600  0.49332100  0.05809500  1
  O  O34  1  0.55837200  0.22456100  0.32685900  1
  O  O35  1  0.96666600  0.81287300  0.55826200  1
  O  O36  1  0.63587200  0.14709500  0.55846100  1
  O  O37  1  0.81287300  0.96666600  0.55826200  1
  O  O38  1  0.72795000  0.57348700  0.81735100  1
  O  O39  1  0.89213600  0.40724500  0.31651300  1
  O  O40  1  0.57348700  0.72795000  0.81735100  1
  O  O41  1  0.39456100  0.90629900  0.81644700  1
  O  O42  1  0.81670400  0.48374700  0.54860300  1
  O  O43  1  0.54896800  0.21523500  0.81716400  1
  O  O44  1  0.88089400  0.88089400  0.81946100  1
  O  O45  1  0.72468400  0.05763700  0.82696600  1
  O  O46  1  0.99329600  0.32773700  0.55822100  1
  O  O47  1  0.90629900  0.39456100  0.81644700  1
loop_
_geom_bond_atom_site_label_1
_geom_bond_atom_site_label_2
_geom_bond_distance
_geom_bond_site_symmetry_2
Fe0 O5 2.064812 1_565
Fe0 O15 2.141645 1_455
Fe0 O6 2.181286 1_555
Fe0 O7 2.188360 1_555
Fe0 O0 2.189489 1_565
Fe0 O28 2.190483 1_455
Fe1 O4 2.054463 1_555
Fe1 O1 2.139777 1_555
Fe1 O26 2.175570 1_455
Fe1 O39 2.179508 1_455
Fe1 O12 2.181446 1_555
Fe1 O2 2.187641 1_555
Fe2 O5 1.914845 1_555
Fe2 O4 1.914845 1_555
Fe2 O9 1.916554 1_555
Fe2 O8 1.938151 1_555
Fe3 O6 2.136432 1_555
Fe3 O23 2.139106 1_555
Fe3 O7 2.149558 1_555
Fe3 O12 2.176397 1_555
Fe3 O1 2.195413 1_555
Fe3 O11 2.197381 1_555
Fe4 O8 2.050609 1_555
Fe4 O11 2.128456 1_555
Fe4 O12 2.175345 1_555
Fe4 O20 2.176012 1_555
Fe4 O10 2.180051 1_555
Fe4 O2 2.185032 1_555
Fe5 O8 2.050609 1_555
Fe5 O33 2.128456 1_555
Fe5 O34 2.175345 1_555
Fe5 O21 2.176012 1_555
Fe5 O10 2.180051 1_555
Fe5 O3 2.185032 1_555
Fe6 O9 2.058232 1_565
Fe6 O29 2.139541 1_555
Fe6 O22 2.180280 1_565
Fe6 O44 2.180615 1_455
Fe6 O30 2.183781 1_555
Fe6 O35 2.186115 1_455
Fe7 O9 2.063139 1_555
Fe7 O31 2.134353 1_555
Fe7 O22 2.189266 1_555
Fe7 O19 2.189266 1_555
Fe7 O18 2.190018 1_555
Fe7 O17 2.190018 1_555
Fe8 O5 2.062773 1_565
Fe8 O14 2.135232 1_555
Fe8 O6 2.177444 1_555
Fe8 O23 2.181841 1_555
Fe8 O35 2.187328 1_455
Fe8 O30 2.187571 1_555
Fe9 O5 2.054463 1_555
Fe9 O13 2.139777 1_555
Fe9 O7 2.175570 1_545
Fe9 O23 2.179508 1_545
Fe9 O34 2.181446 1_555
Fe9 O3 2.187641 1_555
Fe10 O8 2.064840 1_555
Fe10 O32 2.126196 1_555
Fe10 O20 2.184936 1_555
Fe10 O21 2.184936 1_555
Fe10 O18 2.186561 1_555
Fe10 O17 2.186561 1_555
Fe11 O19 2.141890 1_555
Fe11 O22 2.141890 1_555
Fe11 O44 2.150288 1_445
Fe11 O0 2.170387 1_556
Fe11 O15 2.191405 1_446
Fe11 O16 2.191405 1_446
Fe12 O21 2.128913 1_555
Fe12 O20 2.128913 1_555
Fe12 O10 2.149520 1_555
Fe12 O28 2.169158 1_555
Fe12 O15 2.187803 1_555
Fe12 O16 2.187803 1_555
Fe13 O27 2.136432 1_555
Fe13 O39 2.139106 1_555
Fe13 O26 2.149558 1_555
Fe13 O34 2.176397 1_555
Fe13 O13 2.195413 1_555
Fe13 O33 2.197381 1_555
Fe14 O41 2.156505 1_555
Fe14 O30 2.160506 1_555
Fe14 O25 2.163412 1_555
Fe14 O14 2.169647 1_555
Fe14 O24 2.173077 1_555
Fe14 O29 2.183962 1_555
Fe15 O17 2.159049 1_555
Fe15 O42 2.161061 1_555
Fe15 O43 2.165394 1_555
Fe15 O32 2.170096 1_555
Fe15 O31 2.170508 1_555
Fe15 O38 2.182559 1_555
Fe16 O4 2.064812 1_655
Fe16 O16 2.141645 1_545
Fe16 O27 2.181286 1_555
Fe16 O26 2.188360 1_555
Fe16 O0 2.189489 1_655
Fe16 O28 2.190483 1_545
Fe17 O18 2.159049 1_555
Fe17 O25 2.161061 1_555
Fe17 O24 2.165394 1_555
Fe17 O32 2.170096 1_555
Fe17 O31 2.170508 1_555
Fe17 O40 2.182559 1_555
Fe18 O24 2.159138 1_555
Fe18 O40 2.164089 1_555
Fe18 O2 2.166950 1_556
Fe18 O41 2.168547 1_555
Fe18 O1 2.178458 1_556
Fe18 O11 2.179232 1_556
Fe19 O37 2.161054 1_555
Fe19 O40 2.163602 1_555
Fe19 O25 2.164145 1_555
Fe19 O36 2.167686 1_565
Fe19 O41 2.169477 1_555
Fe19 O45 2.182443 1_565
Fe20 O4 2.062773 1_655
Fe20 O36 2.135232 1_555
Fe20 O27 2.177444 1_555
Fe20 O39 2.181841 1_555
Fe20 O37 2.187328 1_545
Fe20 O46 2.187571 1_555
Fe21 O9 2.058232 1_655
Fe21 O45 2.139541 1_555
Fe21 O19 2.180280 1_655
Fe21 O44 2.180615 1_545
Fe21 O46 2.183781 1_555
Fe21 O37 2.186115 1_545
Fe22 O47 2.156505 1_555
Fe22 O46 2.160506 1_555
Fe22 O42 2.163412 1_555
Fe22 O36 2.169647 1_555
Fe22 O43 2.173077 1_555
Fe22 O45 2.183962 1_555
Fe23 O35 2.161054 1_555
Fe23 O38 2.163602 1_555
Fe23 O42 2.164145 1_555
Fe23 O14 2.167686 1_655
Fe23 O47 2.169477 1_555
Fe23 O29 2.182443 1_655
Fe24 O43 2.159138 1_555
Fe24 O38 2.164089 1_555
Fe24 O3 2.166950 1_556
Fe24 O47 2.168547 1_555
Fe24 O13 2.178458 1_556
Fe24 O33 2.179232 1_556
O0 Si6 1.671492 1_554
O1 Si3 1.673598 1_555
O2 Si6 1.673326 1_554
O3 Si6 1.673326 1_554
O6 Si8 1.663382 1_455
O7 Si7 1.661014 1_564
O10 Si9 1.672442 1_554
O11 Si10 1.679796 1_565
O12 Si0 1.672328 1_555
O13 Si10 1.673598 1_555
O14 Si0 1.683164 1_555
O15 Si3 1.676720 1_655
O16 Si10 1.676720 1_565
O17 Si4 1.666121 1_555
O18 Si0 1.666121 1_555
O19 Si1 1.665046 1_555
O20 Si2 1.670229 1_555
O21 Si8 1.670229 1_555
O22 Si7 1.665046 1_555
O23 Si2 1.662335 1_555
O24 Si1 1.678588 1_555
O25 Si2 1.674607 1_555
O26 Si1 1.661014 1_654
O27 Si2 1.663382 1_545
O28 Si5 1.671094 1_555
O29 Si3 1.671392 1_556
O30 Si4 1.671180 1_565
O31 Si6 1.679554 1_555
O32 Si5 1.684271 1_555
O33 Si3 1.679796 1_655
O34 Si4 1.672328 1_555
O35 Si5 1.669431 1_555
O36 Si4 1.683164 1_555
O37 Si5 1.669431 1_555
O38 Si9 1.674113 1_555
O39 Si8 1.662335 1_555
O40 Si9 1.674113 1_555
O41 Si7 1.676605 1_565
O42 Si8 1.674607 1_555
O43 Si7 1.678588 1_555
O44 Si9 1.665241 1_555
O45 Si10 1.671392 1_556
O46 Si0 1.671180 1_655
O47 Si1 1.676605 1_655
