# generated using pymatgen
data_LaH9(SO6)2
_symmetry_space_group_name_H-M   'P 1'
_cell_length_a   6.96125900
_cell_length_b   11.29125300
_cell_length_c   13.63898376
_cell_angle_alpha   69.22404911
_cell_angle_beta   90.00000000
_cell_angle_gamma   90.00000000
_symmetry_Int_Tables_number   1
_chemical_formula_structural   LaH9(SO6)2
_chemical_formula_sum   'La4 H36 S8 O48'
_cell_volume   1002.33241845
_cell_formula_units_Z   4
loop_
 _symmetry_equiv_pos_site_id
 _symmetry_equiv_pos_as_xyz
  1  'x, y, z'
loop_
 _atom_site_type_symbol
 _atom_site_label
 _atom_site_symmetry_multiplicity
 _atom_site_fract_x
 _atom_site_fract_y
 _atom_site_fract_z
 _atom_site_occupancy
  La  La0  1  0.26770200  0.85557800  0.90351200  1
  La  La1  1  0.23229800  0.85557800  0.40351200  1
  La  La2  1  0.76770200  0.14442200  0.59648800  1
  La  La3  1  0.73229800  0.14442200  0.09648800  1
  H  H0  1  0.89782900  0.85296400  0.70864100  1
  H  H1  1  0.83764200  0.87227100  0.59256400  1
  H  H2  1  0.57970800  0.80681600  0.74458300  1
  H  H3  1  0.57924600  0.68650900  0.84774100  1
  H  H4  1  0.97689600  0.65294600  0.86132200  1
  H  H5  1  0.13448100  0.68069800  0.77243600  1
  H  H6  1  0.60217100  0.85296400  0.20864100  1
  H  H7  1  0.66235800  0.87227100  0.09256400  1
  H  H8  1  0.92029200  0.80681600  0.24458300  1
  H  H9  1  0.62338500  0.63592900  0.59112200  1
  H  H10  1  0.87206400  0.62605100  0.58846400  1
  H  H11  1  0.74299400  0.54628700  0.70168300  1
  H  H12  1  0.92075400  0.68650900  0.34774100  1
  H  H13  1  0.52310400  0.65294600  0.36132200  1
  H  H14  1  0.36551900  0.68069800  0.27243600  1
  H  H15  1  0.24299400  0.45371300  0.79831700  1
  H  H16  1  0.37206400  0.37394900  0.91153600  1
  H  H17  1  0.12338500  0.36407100  0.90887800  1
  H  H18  1  0.87661500  0.63592900  0.09112200  1
  H  H19  1  0.62793600  0.62605100  0.08846400  1
  H  H20  1  0.75700600  0.54628700  0.20168300  1
  H  H21  1  0.63448100  0.31930200  0.72756400  1
  H  H22  1  0.47689600  0.34705400  0.63867800  1
  H  H23  1  0.07924600  0.31349100  0.65225900  1
  H  H24  1  0.25700600  0.45371300  0.29831700  1
  H  H25  1  0.12793600  0.37394900  0.41153600  1
  H  H26  1  0.37661500  0.36407100  0.40887800  1
  H  H27  1  0.07970800  0.19318400  0.75541700  1
  H  H28  1  0.33764200  0.12772900  0.90743600  1
  H  H29  1  0.39782900  0.14703600  0.79135900  1
  H  H30  1  0.86551900  0.31930200  0.22756400  1
  H  H31  1  0.02310400  0.34705400  0.13867800  1
  H  H32  1  0.42075400  0.31349100  0.15225900  1
  H  H33  1  0.42029200  0.19318400  0.25541700  1
  H  H34  1  0.16235800  0.12772900  0.40743600  1
  H  H35  1  0.10217100  0.14703600  0.29135900  1
  S  S0  1  0.75228600  0.98438200  0.89509000  1
  S  S1  1  0.74771400  0.98438200  0.39509000  1
  S  S2  1  0.24382500  0.57212300  0.59661700  1
  S  S3  1  0.74382500  0.42787700  0.90338300  1
  S  S4  1  0.25617500  0.57212300  0.09661700  1
  S  S5  1  0.75617500  0.42787700  0.40338300  1
  S  S6  1  0.25228600  0.01561800  0.60491000  1
  S  S7  1  0.24771400  0.01561800  0.10491000  1
  O  O0  1  0.93995100  0.91929100  0.90840100  1
  O  O1  1  0.60548400  0.89042000  0.95810600  1
  O  O2  1  0.19429000  0.97108400  0.71683800  1
  O  O3  1  0.79964300  0.89297800  0.65482900  1
  O  O4  1  0.26049600  0.90753700  0.56765500  1
  O  O5  1  0.49872500  0.75769300  0.80477400  1
  O  O6  1  0.56004900  0.91929100  0.40840100  1
  O  O7  1  0.89451600  0.89042000  0.45810600  1
  O  O8  1  0.06799900  0.71810600  0.81826400  1
  O  O9  1  0.30571000  0.97108400  0.21683800  1
  O  O10  1  0.70035700  0.89297800  0.15482900  1
  O  O11  1  0.76712600  0.55560100  0.90748600  1
  O  O12  1  0.23950400  0.90753700  0.06765500  1
  O  O13  1  0.75056400  0.62468000  0.63108800  1
  O  O14  1  0.41196400  0.65552300  0.54825200  1
  O  O15  1  0.00127500  0.75769300  0.30477400  1
  O  O16  1  0.07399600  0.63992800  0.53297100  1
  O  O17  1  0.21565100  0.56504000  0.70752300  1
  O  O18  1  0.43200100  0.71810600  0.31826400  1
  O  O19  1  0.71565100  0.43496000  0.79247700  1
  O  O20  1  0.57399600  0.36007200  0.96702900  1
  O  O21  1  0.91196400  0.34447700  0.95174800  1
  O  O22  1  0.25056400  0.37532000  0.86891200  1
  O  O23  1  0.73287400  0.55560100  0.40748600  1
  O  O24  1  0.26712600  0.44439900  0.59251400  1
  O  O25  1  0.74943600  0.62468000  0.13108800  1
  O  O26  1  0.08803600  0.65552300  0.04825200  1
  O  O27  1  0.42600400  0.63992800  0.03297100  1
  O  O28  1  0.28434900  0.56504000  0.20752300  1
  O  O29  1  0.56799900  0.28189400  0.68173600  1
  O  O30  1  0.78434900  0.43496000  0.29247700  1
  O  O31  1  0.92600400  0.36007200  0.46702900  1
  O  O32  1  0.99872500  0.24230700  0.69522600  1
  O  O33  1  0.58803600  0.34447700  0.45174800  1
  O  O34  1  0.24943600  0.37532000  0.36891200  1
  O  O35  1  0.76049600  0.09246300  0.93234500  1
  O  O36  1  0.23287400  0.44439900  0.09251400  1
  O  O37  1  0.29964300  0.10702200  0.84517100  1
  O  O38  1  0.69429000  0.02891600  0.78316200  1
  O  O39  1  0.93200100  0.28189400  0.18173600  1
  O  O40  1  0.10548400  0.10958000  0.54189400  1
  O  O41  1  0.43995100  0.08070900  0.59159900  1
  O  O42  1  0.50127500  0.24230700  0.19522600  1
  O  O43  1  0.73950400  0.09246300  0.43234500  1
  O  O44  1  0.20035700  0.10702200  0.34517100  1
  O  O45  1  0.80571000  0.02891600  0.28316200  1
  O  O46  1  0.39451600  0.10958000  0.04189400  1
  O  O47  1  0.06004900  0.08070900  0.09159900  1
loop_
_geom_bond_atom_site_label_1
_geom_bond_atom_site_label_2
_geom_bond_distance
_geom_bond_site_symmetry_2
La0 O0 2.400318 1_455
La0 O2 2.467539 1_555
La0 O12 2.515251 1_556
La0 O1 2.538908 1_555
La0 O5 2.584066 1_555
La0 O8 2.640881 1_555
La0 O37 2.672172 1_565
La0 O27 2.685319 1_556
La0 O26 2.720354 1_556
La1 O6 2.400318 1_555
La1 O9 2.467539 1_555
La1 O4 2.515251 1_555
La1 O7 2.538908 1_455
La1 O15 2.584066 1_555
La1 O18 2.640881 1_555
La1 O44 2.672172 1_565
La1 O16 2.685319 1_555
La1 O14 2.720354 1_555
La2 O41 2.400318 1_555
La2 O38 2.467539 1_555
La2 O43 2.515251 1_555
La2 O40 2.538908 1_655
La2 O32 2.584066 1_555
La2 O29 2.640881 1_555
La2 O3 2.672172 1_545
La2 O31 2.685319 1_555
La2 O33 2.720354 1_555
La3 O47 2.400318 1_655
La3 O45 2.467539 1_555
La3 O35 2.515251 1_554
La3 O46 2.538908 1_555
La3 O42 2.584066 1_555
La3 O39 2.640881 1_555
La3 O10 2.672172 1_545
La3 O20 2.685319 1_554
La3 O21 2.720354 1_554
H0 O3 0.987280 1_555
H1 O3 0.993324 1_555
H2 O5 0.988114 1_555
H3 O5 0.984625 1_555
H4 O8 0.990891 1_655
H5 O8 0.985175 1_555
H6 O10 0.987280 1_555
H7 O10 0.993324 1_555
H8 O15 0.988114 1_655
H9 O13 1.023693 1_555
H9 O14 1.570070 1_555
H10 O13 1.023321 1_555
H10 O16 1.577740 1_655
H11 O13 1.052959 1_555
H11 O19 1.430211 1_555
H12 O15 0.984625 1_655
H13 O18 0.990891 1_555
H14 O18 0.985175 1_555
H15 O22 1.052959 1_555
H15 O17 1.430211 1_555
H16 O22 1.023321 1_555
H16 O20 1.577740 1_555
H17 O22 1.023693 1_555
H17 O21 1.570070 1_455
H18 O25 1.023693 1_555
H18 O26 1.570070 1_655
H19 O25 1.023321 1_555
H19 O27 1.577740 1_555
H20 O25 1.052959 1_555
H20 O30 1.430211 1_555
H21 O29 0.985175 1_555
H22 O29 0.990891 1_555
H23 O32 0.984625 1_455
H24 O34 1.052959 1_555
H24 O28 1.430211 1_555
H25 O34 1.023321 1_555
H25 O31 1.577740 1_455
H26 O34 1.023693 1_555
H26 O33 1.570070 1_555
H27 O32 0.988114 1_455
H28 O37 0.993324 1_555
H29 O37 0.987280 1_555
H30 O39 0.985175 1_555
H31 O39 0.990891 1_455
H32 O42 0.984625 1_555
H33 O42 0.988114 1_555
H34 O44 0.993324 1_555
H35 O44 0.987280 1_555
O0 S0 1.478210 1_555
O1 S0 1.503909 1_555
O2 S6 1.483821 1_565
O4 S6 1.480091 1_565
O6 S1 1.478210 1_555
O7 S1 1.503909 1_555
O9 S7 1.483821 1_565
O11 S3 1.471915 1_555
O12 S7 1.480091 1_565
O14 S2 1.500402 1_555
O16 S2 1.505277 1_555
O17 S2 1.499044 1_555
O19 S3 1.499044 1_555
O20 S3 1.505277 1_555
O21 S3 1.500402 1_555
O23 S5 1.471915 1_555
O24 S2 1.471915 1_555
O26 S4 1.500402 1_555
O27 S4 1.505277 1_555
O28 S4 1.499044 1_555
O30 S5 1.499044 1_555
O31 S5 1.505277 1_555
O33 S5 1.500402 1_555
O35 S0 1.480091 1_545
O36 S4 1.471915 1_555
O38 S0 1.483821 1_545
O40 S6 1.503909 1_555
O41 S6 1.478210 1_555
O43 S1 1.480091 1_545
O45 S1 1.483821 1_545
O46 S7 1.503909 1_555
O47 S7 1.478210 1_555
