# generated using pymatgen
data_Na6Bi2B4AsO16
_symmetry_space_group_name_H-M   'P 1'
_cell_length_a   10.28802324
_cell_length_b   10.28802324
_cell_length_c   10.28802324
_cell_angle_alpha   60.00000000
_cell_angle_beta   60.00000000
_cell_angle_gamma   60.00000000
_symmetry_Int_Tables_number   1
_chemical_formula_structural   Na6Bi2B4AsO16
_chemical_formula_sum   'Na12 Bi4 B8 As2 O32'
_cell_volume   769.98242495
_cell_formula_units_Z   2
loop_
 _symmetry_equiv_pos_site_id
 _symmetry_equiv_pos_as_xyz
  1  'x, y, z'
loop_
 _atom_site_type_symbol
 _atom_site_label
 _atom_site_symmetry_multiplicity
 _atom_site_fract_x
 _atom_site_fract_y
 _atom_site_fract_z
 _atom_site_occupancy
  Na  Na0  1  0.20464300  0.20464300  0.79535700  1
  Na  Na1  1  0.79535700  0.20464300  0.20464300  1
  Na  Na2  1  0.79535700  0.20464300  0.79535700  1
  Na  Na3  1  0.20464300  0.79535700  0.20464300  1
  Na  Na4  1  0.45464300  0.45464300  0.04535700  1
  Na  Na5  1  0.04535700  0.45464300  0.45464300  1
  Na  Na6  1  0.20464300  0.79535700  0.79535700  1
  Na  Na7  1  0.79535700  0.79535700  0.20464300  1
  Na  Na8  1  0.45464300  0.04535700  0.45464300  1
  Na  Na9  1  0.04535700  0.45464300  0.04535700  1
  Na  Na10  1  0.04535700  0.04535700  0.45464300  1
  Na  Na11  1  0.45464300  0.04535700  0.04535700  1
  Bi  Bi0  1  0.62500000  0.12500000  0.62500000  1
  Bi  Bi1  1  0.12500000  0.62500000  0.62500000  1
  Bi  Bi2  1  0.62500000  0.62500000  0.12500000  1
  Bi  Bi3  1  0.62500000  0.62500000  0.62500000  1
  B  B0  1  0.40603900  0.40603900  0.40603900  1
  B  B1  1  0.40603900  0.40603900  0.78188300  1
  B  B2  1  0.78188300  0.40603900  0.40603900  1
  B  B3  1  0.40603900  0.78188300  0.40603900  1
  B  B4  1  0.84396100  0.46811700  0.84396100  1
  B  B5  1  0.46811700  0.84396100  0.84396100  1
  B  B6  1  0.84396100  0.84396100  0.46811700  1
  B  B7  1  0.84396100  0.84396100  0.84396100  1
  As  As0  1  0.25000000  0.25000000  0.25000000  1
  As  As1  1  0.00000000  0.00000000  0.00000000  1
  O  O0  1  0.18151100  0.18151100  0.18151100  1
  O  O1  1  0.45546800  0.18151100  0.18151100  1
  O  O2  1  0.18151100  0.18151100  0.45546800  1
  O  O3  1  0.18151100  0.45546800  0.18151100  1
  O  O4  1  0.41921300  0.26344500  0.53252000  1
  O  O5  1  0.53252000  0.41921300  0.26344500  1
  O  O6  1  0.78482200  0.26344500  0.41921300  1
  O  O7  1  0.26344500  0.53252000  0.41921300  1
  O  O8  1  0.53252000  0.26344500  0.78482200  1
  O  O9  1  0.26344500  0.41921300  0.78482200  1
  O  O10  1  0.78482200  0.53252000  0.26344500  1
  O  O11  1  0.78482200  0.41921300  0.53252000  1
  O  O12  1  0.41921300  0.78482200  0.26344500  1
  O  O13  1  0.41921300  0.53252000  0.78482200  1
  O  O14  1  0.26344500  0.78482200  0.53252000  1
  O  O15  1  0.71748000  0.46517800  0.83078700  1
  O  O16  1  0.53252000  0.78482200  0.41921300  1
  O  O17  1  0.98655500  0.46517800  0.71748000  1
  O  O18  1  0.83078700  0.71748000  0.46517800  1
  O  O19  1  0.83078700  0.46517800  0.98655500  1
  O  O20  1  0.46517800  0.83078700  0.71748000  1
  O  O21  1  0.46517800  0.71748000  0.98655500  1
  O  O22  1  0.98655500  0.83078700  0.46517800  1
  O  O23  1  0.71748000  0.98655500  0.46517800  1
  O  O24  1  0.98655500  0.71748000  0.83078700  1
  O  O25  1  0.46517800  0.98655500  0.83078700  1
  O  O26  1  0.71748000  0.83078700  0.98655500  1
  O  O27  1  0.83078700  0.98655500  0.71748000  1
  O  O28  1  0.06848900  0.79453200  0.06848900  1
  O  O29  1  0.06848900  0.06848900  0.79453200  1
  O  O30  1  0.79453200  0.06848900  0.06848900  1
  O  O31  1  0.06848900  0.06848900  0.06848900  1
loop_
_geom_bond_atom_site_label_1
_geom_bond_atom_site_label_2
_geom_bond_distance
_geom_bond_site_symmetry_2
Na0 O31 2.431084 1_556
Na0 O29 2.431090 1_555
Na0 O4 2.506271 1_555
Na0 O9 2.506271 1_555
Na0 O25 2.548867 1_545
Na0 O17 2.548867 1_455
Na1 O31 2.431084 1_655
Na1 O30 2.431090 1_555
Na1 O5 2.506271 1_555
Na1 O6 2.506271 1_555
Na1 O19 2.548867 1_554
Na1 O23 2.548867 1_545
Na2 O29 2.431081 1_655
Na2 O30 2.431081 1_556
Na2 O11 2.506271 1_555
Na2 O8 2.506271 1_555
Na2 O15 2.548867 1_555
Na2 O27 2.548867 1_545
Na3 O31 2.431084 1_565
Na3 O28 2.431090 1_555
Na3 O7 2.506271 1_555
Na3 O12 2.506271 1_555
Na3 O22 2.548867 1_455
Na3 O21 2.548867 1_554
Na4 O3 2.431081 1_555
Na4 O1 2.431081 1_555
Na4 O15 2.506271 1_554
Na4 O21 2.506271 1_554
Na4 O13 2.548867 1_554
Na4 O5 2.548867 1_555
Na5 O2 2.431081 1_555
Na5 O3 2.431081 1_555
Na5 O18 2.506271 1_455
Na5 O17 2.506271 1_455
Na5 O11 2.548867 1_455
Na5 O7 2.548867 1_555
Na6 O29 2.431081 1_565
Na6 O28 2.431081 1_556
Na6 O14 2.506271 1_555
Na6 O13 2.506271 1_555
Na6 O20 2.548867 1_555
Na6 O24 2.548867 1_455
Na7 O28 2.431081 1_655
Na7 O30 2.431081 1_565
Na7 O10 2.506271 1_555
Na7 O16 2.506271 1_555
Na7 O18 2.548867 1_555
Na7 O26 2.548867 1_554
Na8 O2 2.431081 1_555
Na8 O1 2.431081 1_555
Na8 O20 2.506271 1_545
Na8 O23 2.506271 1_545
Na8 O16 2.548867 1_545
Na8 O4 2.548867 1_555
Na9 O0 2.431084 1_555
Na9 O3 2.431090 1_555
Na9 O19 2.506271 1_454
Na9 O24 2.506271 1_454
Na9 O9 2.548867 1_554
Na9 O10 2.548867 1_455
Na10 O0 2.431084 1_555
Na10 O2 2.431090 1_555
Na10 O22 2.506271 1_445
Na10 O27 2.506271 1_445
Na10 O6 2.548867 1_455
Na10 O14 2.548867 1_545
Na11 O0 2.431084 1_555
Na11 O1 2.431090 1_555
Na11 O25 2.506271 1_544
Na11 O26 2.506271 1_544
Na11 O12 2.548867 1_545
Na11 O8 2.548867 1_554
Bi0 O27 2.249421 1_545
Bi0 O25 2.249421 1_545
Bi0 O4 2.249421 1_555
Bi0 O8 2.249421 1_555
Bi0 O6 2.249421 1_555
Bi0 O23 2.249421 1_545
Bi1 O24 2.249421 1_455
Bi1 O22 2.249421 1_455
Bi1 O7 2.249421 1_555
Bi1 O14 2.249421 1_555
Bi1 O9 2.249421 1_555
Bi1 O17 2.249421 1_455
Bi2 O26 2.249421 1_554
Bi2 O19 2.249421 1_554
Bi2 O10 2.249421 1_555
Bi2 O5 2.249421 1_555
Bi2 O12 2.249421 1_555
Bi2 O21 2.249421 1_554
Bi3 O20 2.249421 1_555
Bi3 O15 2.249421 1_555
Bi3 O18 2.249421 1_555
Bi3 O16 2.249421 1_555
Bi3 O13 2.249421 1_555
Bi3 O11 2.249421 1_555
B0 O7 1.390077 1_555
B0 O4 1.390077 1_555
B0 O5 1.390077 1_555
B1 O9 1.390077 1_555
B1 O8 1.390077 1_555
B1 O13 1.390077 1_555
B2 O6 1.390077 1_555
B2 O10 1.390077 1_555
B2 O11 1.390077 1_555
B3 O12 1.390077 1_555
B3 O14 1.390077 1_555
B3 O16 1.390077 1_555
B4 O19 1.390077 1_555
B4 O17 1.390077 1_555
B4 O15 1.390077 1_555
B5 O25 1.390077 1_555
B5 O21 1.390077 1_555
B5 O20 1.390077 1_555
B6 O22 1.390077 1_555
B6 O23 1.390077 1_555
B6 O18 1.390077 1_555
B7 O24 1.390077 1_555
B7 O26 1.390077 1_555
B7 O27 1.390077 1_555
As0 O0 1.725951 1_555
As0 O1 1.725959 1_555
As0 O2 1.725959 1_555
As0 O3 1.725959 1_555
As1 O31 1.725951 1_555
As1 O28 1.725959 1_545
As1 O29 1.725959 1_554
As1 O30 1.725959 1_455
