# generated using pymatgen
data_Na2SnCSO7
_symmetry_space_group_name_H-M   'P 1'
_cell_length_a   7.10661200
_cell_length_b   5.47659500
_cell_length_c   9.37947035
_cell_angle_alpha   87.33012763
_cell_angle_beta   90.00000000
_cell_angle_gamma   90.00000000
_symmetry_Int_Tables_number   1
_chemical_formula_structural   Na2SnCSO7
_chemical_formula_sum   'Na4 Sn2 C2 S2 O14'
_cell_volume   364.65306280
_cell_formula_units_Z   2
loop_
 _symmetry_equiv_pos_site_id
 _symmetry_equiv_pos_as_xyz
  1  'x, y, z'
loop_
 _atom_site_type_symbol
 _atom_site_label
 _atom_site_symmetry_multiplicity
 _atom_site_fract_x
 _atom_site_fract_y
 _atom_site_fract_z
 _atom_site_occupancy
  Na  Na0  1  0.49593700  0.23495500  0.78995500  1
  Na  Na1  1  0.00406300  0.23495500  0.78995500  1
  Na  Na2  1  0.50406300  0.76504500  0.21004500  1
  Na  Na3  1  0.99593700  0.76504500  0.21004500  1
  Sn  Sn0  1  0.75000000  0.76655300  0.62596900  1
  Sn  Sn1  1  0.25000000  0.23344700  0.37403100  1
  C  C0  1  0.75000000  0.73683100  0.91733600  1
  C  C1  1  0.25000000  0.26316900  0.08266400  1
  S  S0  1  0.25000000  0.73193400  0.60647900  1
  S  S1  1  0.75000000  0.26806600  0.39352100  1
  O  O0  1  0.25000000  0.26614400  0.94811800  1
  O  O1  1  0.75000000  0.94570500  0.83851000  1
  O  O2  1  0.75000000  0.53660200  0.84369400  1
  O  O3  1  0.08121700  0.85939900  0.66306000  1
  O  O4  1  0.41878300  0.85939900  0.66306000  1
  O  O5  1  0.75000000  0.24516800  0.55480000  1
  O  O6  1  0.25000000  0.47033100  0.65338600  1
  O  O7  1  0.75000000  0.52966900  0.34661400  1
  O  O8  1  0.25000000  0.75483200  0.44520000  1
  O  O9  1  0.58121700  0.14060100  0.33694000  1
  O  O10  1  0.91878300  0.14060100  0.33694000  1
  O  O11  1  0.25000000  0.46339800  0.15630600  1
  O  O12  1  0.25000000  0.05429500  0.16149000  1
  O  O13  1  0.75000000  0.73385600  0.05188200  1
loop_
_geom_bond_atom_site_label_1
_geom_bond_atom_site_label_2
_geom_bond_distance
_geom_bond_site_symmetry_2
Na0 O0 2.303962 1_555
Na0 O1 2.430949 1_545
Na0 O4 2.485073 1_545
Na0 O6 2.490661 1_555
Na0 O2 2.514093 1_555
Na0 O5 2.848923 1_555
Na1 O0 2.303962 1_555
Na1 O1 2.430949 1_445
Na1 O3 2.485073 1_545
Na1 O6 2.490661 1_555
Na1 O2 2.514093 1_455
Na1 O5 2.848923 1_455
Na2 O13 2.303962 1_555
Na2 O12 2.430949 1_565
Na2 O9 2.485073 1_565
Na2 O7 2.490661 1_555
Na2 O11 2.514093 1_555
Na2 O8 2.848923 1_555
Na3 O13 2.303962 1_555
Na3 O12 2.430949 1_665
Na3 O10 2.485073 1_565
Na3 O7 2.490661 1_555
Na3 O11 2.514093 1_655
Na3 O8 2.848923 1_655
C0 O13 1.261316 1_556
C0 O2 1.322927 1_555
C0 O1 1.332813 1_555
C1 O0 1.261316 1_554
C1 O11 1.322927 1_555
C1 O12 1.332813 1_555
O1 Sn0 2.262519 1_555
O2 Sn0 2.348771 1_555
O3 S0 1.497399 1_555
O3 Sn0 2.436510 1_455
O4 S0 1.497399 1_555
O4 Sn0 2.436510 1_555
O5 S1 1.512068 1_555
O5 Sn0 2.674542 1_545
O6 S0 1.479005 1_555
O7 S1 1.479005 1_555
O8 S0 1.512068 1_555
O8 Sn1 2.674542 1_565
O9 S1 1.497399 1_555
O9 Sn1 2.436510 1_555
O10 S1 1.497399 1_555
O10 Sn1 2.436510 1_655
O11 Sn1 2.348771 1_555
O12 Sn1 2.262519 1_555
