# generated using pymatgen
data_Co5BiO12
_symmetry_space_group_name_H-M   'P 1'
_cell_length_a   5.08605974
_cell_length_b   5.08605974
_cell_length_c   9.44287912
_cell_angle_alpha   89.84537293
_cell_angle_beta   89.84537293
_cell_angle_gamma   120.13609176
_symmetry_Int_Tables_number   1
_chemical_formula_structural   Co5BiO12
_chemical_formula_sum   'Co5 Bi1 O12'
_cell_volume   211.24888186
_cell_formula_units_Z   1
loop_
 _symmetry_equiv_pos_site_id
 _symmetry_equiv_pos_as_xyz
  1  'x, y, z'
loop_
 _atom_site_type_symbol
 _atom_site_label
 _atom_site_symmetry_multiplicity
 _atom_site_fract_x
 _atom_site_fract_y
 _atom_site_fract_z
 _atom_site_occupancy
  Co  Co0  1  0.16654200  0.83345800  0.50000000  1
  Co  Co1  1  0.66677200  0.33322800  0.00000000  1
  Co  Co2  1  0.33322800  0.66677200  0.00000000  1
  Co  Co3  1  0.83345800  0.16654200  0.50000000  1
  Co  Co4  1  0.50000000  0.50000000  0.50000000  1
  Bi  Bi0  1  0.00000000  0.00000000  0.00000000  1
  O  O0  1  0.36788600  0.99889000  0.10692900  1
  O  O1  1  0.00111000  0.63211400  0.89307100  1
  O  O2  1  0.50158100  0.83424900  0.40565400  1
  O  O3  1  0.83424900  0.50158100  0.40565400  1
  O  O4  1  0.16575100  0.49841900  0.59434600  1
  O  O5  1  0.83331000  0.83331000  0.59519600  1
  O  O6  1  0.49841900  0.16575100  0.59434600  1
  O  O7  1  0.99889000  0.36788600  0.10692900  1
  O  O8  1  0.62952800  0.62952800  0.10732900  1
  O  O9  1  0.63211400  0.00111000  0.89307100  1
  O  O10  1  0.37047200  0.37047200  0.89267100  1
  O  O11  1  0.16669000  0.16669000  0.40480400  1
loop_
_geom_bond_atom_site_label_1
_geom_bond_atom_site_label_2
_geom_bond_distance
_geom_bond_site_symmetry_2
Co0 O3 1.910747 1_455
Co0 O6 1.910747 1_565
Co0 O5 1.915994 1_455
Co0 O11 1.915994 1_565
Co0 O4 1.918940 1_555
Co0 O2 1.918940 1_555
Co1 O1 1.899691 1_654
Co1 O0 1.899691 1_545
Co1 O7 1.901339 1_555
Co1 O9 1.901339 1_554
Co1 O8 1.904717 1_555
Co1 O10 1.904717 1_554
Co2 O9 1.899691 1_564
Co2 O7 1.899691 1_455
Co2 O0 1.901339 1_555
Co2 O1 1.901339 1_554
Co2 O8 1.904717 1_555
Co2 O10 1.904717 1_554
Co3 O2 1.910747 1_545
Co3 O4 1.910747 1_655
Co3 O5 1.915994 1_545
Co3 O11 1.915994 1_655
Co3 O6 1.918940 1_555
Co3 O3 1.918940 1_555
Co4 O3 1.913599 1_555
Co4 O4 1.913599 1_555
Co4 O2 1.913599 1_555
Co4 O6 1.913599 1_555
Co4 O5 1.920031 1_555
Co4 O11 1.920031 1_555
Bi0 O1 2.131036 1_544
Bi0 O7 2.131036 1_455
Bi0 O9 2.131036 1_454
Bi0 O0 2.131036 1_545
Bi0 O8 2.131275 1_445
Bi0 O10 2.131275 1_554
