# generated using pymatgen
data_BaY2F8
_symmetry_space_group_name_H-M   'P 1'
_cell_length_a   7.79273215
_cell_length_b   7.79273215
_cell_length_c   7.79273215
_cell_angle_alpha   139.25132352
_cell_angle_beta   139.25132352
_cell_angle_gamma   58.99184140
_symmetry_Int_Tables_number   1
_chemical_formula_structural   BaY2F8
_chemical_formula_sum   'Ba1 Y2 F8'
_cell_volume   199.70173816
_cell_formula_units_Z   1
loop_
 _symmetry_equiv_pos_site_id
 _symmetry_equiv_pos_as_xyz
  1  'x, y, z'
loop_
 _atom_site_type_symbol
 _atom_site_label
 _atom_site_symmetry_multiplicity
 _atom_site_fract_x
 _atom_site_fract_y
 _atom_site_fract_z
 _atom_site_occupancy
  Ba  Ba0  1  0.00000000  0.00000000  0.00000000  1
  Y  Y0  1  0.31393000  0.31393000  0.00000000  1
  Y  Y1  1  0.68607000  0.68607000  0.00000000  1
  F  F0  1  0.80809300  0.40233000  0.04675000  1
  F  F1  1  0.40812100  0.38970100  0.41169800  1
  F  F2  1  0.23865800  0.19190700  0.59423700  1
  F  F3  1  0.59767000  0.64442100  0.40576300  1
  F  F4  1  0.00357600  0.59187900  0.98158000  1
  F  F5  1  0.61029900  0.02199700  0.01842000  1
  F  F6  1  0.35557900  0.76134200  0.95325000  1
  F  F7  1  0.97800300  0.99642400  0.58830200  1
loop_
_geom_bond_atom_site_label_1
_geom_bond_atom_site_label_2
_geom_bond_distance
_geom_bond_site_symmetry_2
Ba0 F6 2.542232 1_544
Ba0 F3 2.542235 1_444
Ba0 F2 2.542235 1_555
Ba0 F0 2.542238 1_455
Ba0 F1 3.059282 1_555
Ba0 F5 3.059282 1_455
Ba0 F4 3.059286 1_544
Ba0 F7 3.059288 1_444
F0 Y1 2.110752 1_555
F1 Y1 2.260319 1_556
F1 Y0 2.277844 1_555
F2 Y0 2.110757 1_556
F3 Y0 2.110757 1_555
F4 Y0 2.260323 1_556
F4 Y1 2.277837 1_456
F5 Y0 2.260319 1_555
F5 Y1 2.277844 1_545
F6 Y1 2.110761 1_556
F7 Y1 2.260319 1_555
F7 Y0 2.277840 1_666
