# generated using pymatgen
data_EuSeO4
_symmetry_space_group_name_H-M   'P 1'
_cell_length_a   5.39576231
_cell_length_b   5.39576231
_cell_length_c   7.99607200
_cell_angle_alpha   90.00000000
_cell_angle_beta   90.00000000
_cell_angle_gamma   113.63187483
_symmetry_Int_Tables_number   1
_chemical_formula_structural   EuSeO4
_chemical_formula_sum   'Eu2 Se2 O8'
_cell_volume   213.27703668
_cell_formula_units_Z   2
loop_
 _symmetry_equiv_pos_site_id
 _symmetry_equiv_pos_as_xyz
  1  'x, y, z'
loop_
 _atom_site_type_symbol
 _atom_site_label
 _atom_site_symmetry_multiplicity
 _atom_site_fract_x
 _atom_site_fract_y
 _atom_site_fract_z
 _atom_site_occupancy
  Eu  Eu0  1  0.00000000  0.00000000  0.00000000  1
  Eu  Eu1  1  0.00000000  0.00000000  0.50000000  1
  Se  Se0  1  0.63705400  0.36294600  0.25000000  1
  Se  Se1  1  0.36294600  0.63705400  0.75000000  1
  O  O0  1  0.23030100  0.28915700  0.75000000  1
  O  O1  1  0.28915700  0.23030100  0.25000000  1
  O  O2  1  0.73742000  0.26258000  0.07292000  1
  O  O3  1  0.73742000  0.26258000  0.42708000  1
  O  O4  1  0.26258000  0.73742000  0.57292000  1
  O  O5  1  0.26258000  0.73742000  0.92708000  1
  O  O6  1  0.76969900  0.71084300  0.25000000  1
  O  O7  1  0.71084300  0.76969900  0.75000000  1
loop_
_geom_bond_atom_site_label_1
_geom_bond_atom_site_label_2
_geom_bond_distance
_geom_bond_site_symmetry_2
Eu0 O5 2.442146 1_544
Eu0 O2 2.442146 1_455
Eu0 O1 2.533805 1_555
Eu0 O0 2.533805 1_554
Eu0 O6 2.533805 1_445
Eu0 O7 2.533805 1_444
Eu1 O4 2.442146 1_545
Eu1 O3 2.442146 1_455
Eu1 O1 2.533805 1_555
Eu1 O0 2.533805 1_555
Eu1 O7 2.533805 1_445
Eu1 O6 2.533805 1_445
O0 Se1 1.720143 1_555
O1 Se0 1.720143 1_555
O2 Se0 1.681243 1_555
O3 Se0 1.681243 1_555
O4 Se1 1.681243 1_555
O5 Se1 1.681243 1_555
O6 Se0 1.720143 1_555
O7 Se1 1.720143 1_555
