# generated using pymatgen
data_Li3Mn(BO3)2
_symmetry_space_group_name_H-M   'P 1'
_cell_length_a   8.99817300
_cell_length_b   5.26012300
_cell_length_c   10.75983901
_cell_angle_alpha   62.56874448
_cell_angle_beta   90.00000000
_cell_angle_gamma   90.00000000
_symmetry_Int_Tables_number   1
_chemical_formula_structural   Li3Mn(BO3)2
_chemical_formula_sum   'Li12 Mn4 B8 O24'
_cell_volume   452.01806592
_cell_formula_units_Z   4
loop_
 _symmetry_equiv_pos_site_id
 _symmetry_equiv_pos_as_xyz
  1  'x, y, z'
loop_
 _atom_site_type_symbol
 _atom_site_label
 _atom_site_symmetry_multiplicity
 _atom_site_fract_x
 _atom_site_fract_y
 _atom_site_fract_z
 _atom_site_occupancy
  Li  Li0  1  0.97906200  0.50635200  0.33976900  1
  Li  Li1  1  0.65613000  0.45082000  0.37694600  1
  Li  Li2  1  0.99076800  0.93081500  0.89322500  1
  Li  Li3  1  0.15613000  0.54918000  0.12305400  1
  Li  Li4  1  0.49076800  0.06918500  0.60677500  1
  Li  Li5  1  0.47906200  0.49364800  0.16023100  1
  Li  Li6  1  0.52093800  0.50635200  0.83976900  1
  Li  Li7  1  0.50923200  0.93081500  0.39322500  1
  Li  Li8  1  0.84387000  0.45082000  0.87694600  1
  Li  Li9  1  0.00923200  0.06918500  0.10677500  1
  Li  Li10  1  0.34387000  0.54918000  0.62305400  1
  Li  Li11  1  0.02093800  0.49364800  0.66023100  1
  Mn  Mn0  1  0.31639900  0.97916700  0.87575000  1
  Mn  Mn1  1  0.81639900  0.02083300  0.62425000  1
  Mn  Mn2  1  0.18360100  0.97916700  0.37575000  1
  Mn  Mn3  1  0.68360100  0.02083300  0.12425000  1
  B  B0  1  0.32284900  0.45150200  0.37911300  1
  B  B1  1  0.66230500  0.96327800  0.86982100  1
  B  B2  1  0.82284900  0.54849800  0.12088700  1
  B  B3  1  0.16230500  0.03672200  0.63017900  1
  B  B4  1  0.83769500  0.96327800  0.36982100  1
  B  B5  1  0.17715100  0.45150200  0.87911300  1
  B  B6  1  0.33769500  0.03672200  0.13017900  1
  B  B7  1  0.67715100  0.54849800  0.62088700  1
  O  O0  1  0.32477100  0.83383000  0.07911400  1
  O  O1  1  0.66682200  0.31787300  0.59156000  1
  O  O2  1  0.94820000  0.69838200  0.11855600  1
  O  O3  1  0.02976000  0.14828700  0.64004700  1
  O  O4  1  0.29374500  0.11937200  0.67389700  1
  O  O5  1  0.68315800  0.62120600  0.15276000  1
  O  O6  1  0.18315800  0.37879400  0.34724000  1
  O  O7  1  0.79374500  0.88062800  0.82610300  1
  O  O8  1  0.52976000  0.85171300  0.85995300  1
  O  O9  1  0.44820000  0.30161800  0.38144400  1
  O  O10  1  0.82477100  0.16617000  0.42088600  1
  O  O11  1  0.16682200  0.68212700  0.90844000  1
  O  O12  1  0.83317800  0.31787300  0.09156000  1
  O  O13  1  0.17522900  0.83383000  0.57911400  1
  O  O14  1  0.55180000  0.69838200  0.61855600  1
  O  O15  1  0.47024000  0.14828700  0.14004700  1
  O  O16  1  0.20625500  0.11937200  0.17389700  1
  O  O17  1  0.81684200  0.62120600  0.65276000  1
  O  O18  1  0.31684200  0.37879400  0.84724000  1
  O  O19  1  0.70625500  0.88062800  0.32610300  1
  O  O20  1  0.97024000  0.85171300  0.35995300  1
  O  O21  1  0.05180000  0.30161800  0.88144400  1
  O  O22  1  0.33317800  0.68212700  0.40844000  1
  O  O23  1  0.67522900  0.16617000  0.92088600  1
loop_
_geom_bond_atom_site_label_1
_geom_bond_atom_site_label_2
_geom_bond_distance
_geom_bond_site_symmetry_2
Li0 O20 1.927994 1_555
Li0 O6 1.944137 1_655
Li0 O10 2.110030 1_555
Li0 O2 2.132521 1_555
Li1 O9 2.020864 1_555
Li1 O10 2.028760 1_555
Li1 O1 2.083955 1_555
Li1 O19 2.115313 1_555
Li1 O5 2.165457 1_555
Li2 O21 1.973370 1_665
Li2 O7 1.977359 1_555
Li2 O11 2.012527 1_655
Li2 O2 2.188299 1_556
Li2 O3 2.445708 1_665
Li3 O2 2.020864 1_455
Li3 O0 2.028760 1_555
Li3 O11 2.083955 1_554
Li3 O16 2.115313 1_555
Li3 O6 2.165457 1_555
Li4 O14 1.973370 1_545
Li4 O4 1.977359 1_555
Li4 O1 2.012527 1_555
Li4 O9 2.188299 1_555
Li4 O8 2.445708 1_545
Li5 O15 1.927994 1_555
Li5 O5 1.944137 1_555
Li5 O0 2.110030 1_555
Li5 O9 2.132521 1_555
Li6 O8 1.927994 1_555
Li6 O18 1.944137 1_555
Li6 O23 2.110030 1_555
Li6 O14 2.132521 1_555
Li7 O9 1.973370 1_565
Li7 O19 1.977359 1_555
Li7 O22 2.012527 1_555
Li7 O14 2.188299 1_555
Li7 O15 2.445708 1_565
Li8 O21 2.020864 1_655
Li8 O23 2.028760 1_555
Li8 O12 2.083955 1_556
Li8 O7 2.115313 1_555
Li8 O17 2.165457 1_555
Li9 O2 1.973370 1_445
Li9 O16 1.977359 1_555
Li9 O12 2.012527 1_455
Li9 O21 2.188299 1_554
Li9 O20 2.445708 1_445
Li10 O14 2.020864 1_555
Li10 O13 2.028760 1_555
Li10 O22 2.083955 1_555
Li10 O4 2.115313 1_555
Li10 O18 2.165457 1_555
Li11 O3 1.927994 1_555
Li11 O17 1.944137 1_455
Li11 O13 2.110030 1_555
Li11 O21 2.132521 1_555
Mn0 O4 1.956223 1_565
Mn0 O0 1.958798 1_556
Mn0 O11 1.967271 1_555
Mn0 O18 1.979584 1_565
Mn0 O8 2.066207 1_555
Mn1 O7 1.956223 1_545
Mn1 O10 1.958798 1_555
Mn1 O1 1.967271 1_555
Mn1 O17 1.979584 1_545
Mn1 O3 2.066207 1_655
Mn2 O16 1.956223 1_565
Mn2 O13 1.958798 1_555
Mn2 O22 1.967271 1_555
Mn2 O6 1.979584 1_565
Mn2 O20 2.066207 1_455
Mn3 O19 1.956223 1_545
Mn3 O23 1.958798 1_554
Mn3 O12 1.967271 1_555
Mn3 O5 1.979584 1_545
Mn3 O15 2.066207 1_555
B0 O9 1.369753 1_555
B0 O22 1.390167 1_555
B0 O6 1.401674 1_555
B1 O8 1.354812 1_555
B1 O23 1.412339 1_565
B1 O7 1.413341 1_555
B2 O2 1.369753 1_555
B2 O12 1.390167 1_555
B2 O5 1.401674 1_555
B3 O3 1.354812 1_555
B3 O13 1.412339 1_545
B3 O4 1.413341 1_555
B4 O20 1.354812 1_555
B4 O10 1.412339 1_565
B4 O19 1.413341 1_555
B5 O21 1.369753 1_555
B5 O11 1.390167 1_555
B5 O18 1.401674 1_555
B6 O15 1.354812 1_555
B6 O0 1.412339 1_545
B6 O16 1.413341 1_555
B7 O14 1.369753 1_555
B7 O1 1.390167 1_555
B7 O17 1.401674 1_555
