# generated using pymatgen
data_LiFeS2
_symmetry_space_group_name_H-M   'P 1'
_cell_length_a   6.15951200
_cell_length_b   6.29498300
_cell_length_c   7.36041296
_cell_angle_alpha   68.43161623
_cell_angle_beta   90.00000000
_cell_angle_gamma   90.00000000
_symmetry_Int_Tables_number   1
_chemical_formula_structural   LiFeS2
_chemical_formula_sum   'Li4 Fe4 S8'
_cell_volume   265.40946922
_cell_formula_units_Z   4
loop_
 _symmetry_equiv_pos_site_id
 _symmetry_equiv_pos_as_xyz
  1  'x, y, z'
loop_
 _atom_site_type_symbol
 _atom_site_label
 _atom_site_symmetry_multiplicity
 _atom_site_fract_x
 _atom_site_fract_y
 _atom_site_fract_z
 _atom_site_occupancy
  Li  Li0  1  0.89775600  0.66182500  0.61799600  1
  Li  Li1  1  0.60224400  0.16182500  0.61799600  1
  Li  Li2  1  0.39775600  0.83817500  0.38200400  1
  Li  Li3  1  0.10224400  0.33817500  0.38200400  1
  Fe  Fe0  1  0.33629300  0.65718300  0.88916700  1
  Fe  Fe1  1  0.16370700  0.15718300  0.88916700  1
  Fe  Fe2  1  0.83629300  0.84281700  0.11083300  1
  Fe  Fe3  1  0.66370700  0.34281700  0.11083300  1
  S  S0  1  0.69342200  0.70008400  0.89365000  1
  S  S1  1  0.80657800  0.20008400  0.89365000  1
  S  S2  1  0.23684100  0.00208900  0.66208200  1
  S  S3  1  0.26315900  0.50208900  0.66208200  1
  S  S4  1  0.73684100  0.49791100  0.33791800  1
  S  S5  1  0.76315900  0.99791100  0.33791800  1
  S  S6  1  0.19342200  0.79991600  0.10635000  1
  S  S7  1  0.30657800  0.29991600  0.10635000  1
loop_
_geom_bond_atom_site_label_1
_geom_bond_atom_site_label_2
_geom_bond_distance
_geom_bond_site_symmetry_2
Li0 S3 2.437657 1_655
Li0 S0 2.473435 1_555
Li0 S5 2.491277 1_555
Li0 S4 2.803699 1_555
Li0 S1 2.923129 1_555
Li1 S2 2.437657 1_555
Li1 S1 2.473435 1_555
Li1 S4 2.491277 1_555
Li1 S5 2.803699 1_545
Li1 S0 2.923129 1_545
Li2 S5 2.437657 1_555
Li2 S6 2.473435 1_555
Li2 S3 2.491277 1_555
Li2 S2 2.803699 1_565
Li2 S7 2.923129 1_565
Li3 S4 2.437657 1_455
Li3 S7 2.473435 1_555
Li3 S2 2.491277 1_555
Li3 S3 2.803699 1_555
Li3 S6 2.923129 1_555
Fe0 S0 2.217979 1_555
Fe0 S7 2.236875 1_556
Fe0 S3 2.269272 1_555
Fe0 S6 2.278842 1_556
Fe0 S2 2.283605 1_565
Fe1 S1 2.217979 1_455
Fe1 S6 2.236875 1_546
Fe1 S2 2.269272 1_555
Fe1 S7 2.278842 1_556
Fe1 S3 2.283605 1_555
Fe2 S6 2.217979 1_655
Fe2 S1 2.236875 1_564
Fe2 S5 2.269272 1_555
Fe2 S0 2.278842 1_554
Fe2 S4 2.283605 1_555
Fe3 S7 2.217979 1_555
Fe3 S0 2.236875 1_554
Fe3 S4 2.269272 1_555
Fe3 S1 2.278842 1_554
Fe3 S5 2.283605 1_545
