# generated using pymatgen
data_Li4Fe2Si3O10
_symmetry_space_group_name_H-M   'P 1'
_cell_length_a   5.36603382
_cell_length_b   5.36603382
_cell_length_c   17.21453131
_cell_angle_alpha   81.84827261
_cell_angle_beta   81.84827261
_cell_angle_gamma   60.77917154
_symmetry_Int_Tables_number   1
_chemical_formula_structural   Li4Fe2Si3O10
_chemical_formula_sum   'Li8 Fe4 Si6 O20'
_cell_volume   426.71804853
_cell_formula_units_Z   2
loop_
 _symmetry_equiv_pos_site_id
 _symmetry_equiv_pos_as_xyz
  1  'x, y, z'
loop_
 _atom_site_type_symbol
 _atom_site_label
 _atom_site_symmetry_multiplicity
 _atom_site_fract_x
 _atom_site_fract_y
 _atom_site_fract_z
 _atom_site_occupancy
  Li  Li0  1  0.82699500  0.68265000  0.94819700  1
  Li  Li1  1  0.57716200  0.79411900  0.77170800  1
  Li  Li2  1  0.68265000  0.82699500  0.44819700  1
  Li  Li3  1  0.79411900  0.57716200  0.27170800  1
  Li  Li4  1  0.20588100  0.42283800  0.72829200  1
  Li  Li5  1  0.31735000  0.17300500  0.55180300  1
  Li  Li6  1  0.42283800  0.20588100  0.22829200  1
  Li  Li7  1  0.17300500  0.31735000  0.05180300  1
  Fe  Fe0  1  0.19670000  0.01196700  0.91587100  1
  Fe  Fe1  1  0.01196700  0.19670000  0.41587100  1
  Fe  Fe2  1  0.98803300  0.80330000  0.58412900  1
  Fe  Fe3  1  0.80330000  0.98803300  0.08412900  1
  Si  Si0  1  0.66071100  0.46713500  0.59876400  1
  Si  Si1  1  0.88567700  0.11432300  0.75000000  1
  Si  Si2  1  0.53286500  0.33928900  0.90123600  1
  Si  Si3  1  0.46713500  0.66071100  0.09876400  1
  Si  Si4  1  0.11432300  0.88567700  0.25000000  1
  Si  Si5  1  0.33928900  0.53286500  0.40123600  1
  O  O0  1  0.91832100  0.83715100  0.71313400  1
  O  O1  1  0.83715100  0.91832100  0.21313400  1
  O  O2  1  0.61902500  0.78401200  0.56535400  1
  O  O3  1  0.55651100  0.63646800  0.89034100  1
  O  O4  1  0.78096000  0.40917300  0.68777500  1
  O  O5  1  0.78359300  0.07984900  0.95271700  1
  O  O6  1  0.92015100  0.21640700  0.54728300  1
  O  O7  1  0.78401200  0.61902500  0.06535400  1
  O  O8  1  0.63646800  0.55651100  0.39034100  1
  O  O9  1  0.59082700  0.21904000  0.81222500  1
  O  O10  1  0.40917300  0.78096000  0.18777500  1
  O  O11  1  0.36353200  0.44348900  0.60965900  1
  O  O12  1  0.21598800  0.38097500  0.93464600  1
  O  O13  1  0.07984900  0.78359300  0.45271700  1
  O  O14  1  0.21640700  0.92015100  0.04728300  1
  O  O15  1  0.21904000  0.59082700  0.31222500  1
  O  O16  1  0.44348900  0.36353200  0.10965900  1
  O  O17  1  0.38097500  0.21598800  0.43464600  1
  O  O18  1  0.16284900  0.08167900  0.78686600  1
  O  O19  1  0.08167900  0.16284900  0.28686600  1
loop_
_geom_bond_atom_site_label_1
_geom_bond_atom_site_label_2
_geom_bond_distance
_geom_bond_site_symmetry_2
Li0 O12 1.924021 1_655
Li0 O7 1.996735 1_556
Li0 O3 1.997778 1_555
Li0 O5 2.039688 1_565
Li1 O18 1.998010 1_565
Li1 O0 2.060245 1_555
Li1 O3 2.106174 1_555
Li1 O4 2.396492 1_555
Li1 O9 2.513892 1_565
Li2 O17 1.924021 1_565
Li2 O2 1.996735 1_555
Li2 O8 1.997778 1_555
Li2 O13 2.039688 1_655
Li3 O19 1.998010 1_655
Li3 O1 2.060245 1_555
Li3 O8 2.106174 1_555
Li3 O10 2.396492 1_555
Li3 O15 2.513892 1_655
Li4 O0 1.998010 1_455
Li4 O18 2.060245 1_555
Li4 O11 2.106174 1_555
Li4 O9 2.396492 1_555
Li4 O4 2.513892 1_455
Li5 O2 1.924021 1_545
Li5 O17 1.996735 1_555
Li5 O11 1.997778 1_555
Li5 O6 2.039688 1_455
Li6 O1 1.998010 1_545
Li6 O19 2.060245 1_555
Li6 O16 2.106174 1_555
Li6 O15 2.396492 1_555
Li6 O10 2.513892 1_545
Li7 O7 1.924021 1_455
Li7 O12 1.996735 1_554
Li7 O16 1.997778 1_555
Li7 O14 2.039688 1_545
Fe0 O3 2.047702 1_545
Fe0 O5 2.080234 1_455
Fe0 O12 2.104062 1_555
Fe0 O18 2.217470 1_555
Fe0 O14 2.252188 1_546
Fe1 O8 2.047702 1_455
Fe1 O13 2.080234 1_545
Fe1 O17 2.104062 1_555
Fe1 O19 2.217470 1_555
Fe1 O6 2.252188 1_455
Fe2 O11 2.047702 1_655
Fe2 O6 2.080234 1_565
Fe2 O2 2.104062 1_555
Fe2 O0 2.217470 1_555
Fe2 O13 2.252188 1_655
Fe3 O16 2.047702 1_565
Fe3 O14 2.080234 1_655
Fe3 O7 2.104062 1_555
Fe3 O1 2.217470 1_555
Fe3 O5 2.252188 1_564
O0 Si1 1.620903 1_565
O1 Si4 1.620903 1_655
O2 Si0 1.630912 1_555
O3 Si2 1.643243 1_555
O4 Si1 1.669876 1_555
O4 Si0 1.676389 1_555
O5 Si2 1.641083 1_555
O6 Si0 1.641083 1_555
O7 Si3 1.630912 1_555
O8 Si5 1.643243 1_555
O9 Si1 1.669876 1_555
O9 Si2 1.676389 1_555
O10 Si4 1.669876 1_555
O10 Si3 1.676389 1_555
O11 Si0 1.643243 1_555
O12 Si2 1.630912 1_555
O13 Si5 1.641083 1_555
O14 Si3 1.641083 1_555
O15 Si4 1.669876 1_555
O15 Si5 1.676389 1_555
O16 Si3 1.643243 1_555
O17 Si5 1.630912 1_555
O18 Si1 1.620903 1_455
O19 Si4 1.620903 1_545
