# generated using pymatgen
data_Ti7O8
_symmetry_space_group_name_H-M   'P 1'
_cell_length_a   5.19881459
_cell_length_b   5.19881459
_cell_length_c   8.94130852
_cell_angle_alpha   72.45962788
_cell_angle_beta   72.45962788
_cell_angle_gamma   46.48766651
_symmetry_Int_Tables_number   1
_chemical_formula_structural   Ti7O8
_chemical_formula_sum   'Ti7 O8'
_cell_volume   165.56435272
_cell_formula_units_Z   1
loop_
 _symmetry_equiv_pos_site_id
 _symmetry_equiv_pos_as_xyz
  1  'x, y, z'
loop_
 _atom_site_type_symbol
 _atom_site_label
 _atom_site_symmetry_multiplicity
 _atom_site_fract_x
 _atom_site_fract_y
 _atom_site_fract_z
 _atom_site_occupancy
  Ti  Ti0  1  0.67434100  0.67434100  0.11405200  1
  Ti  Ti1  1  0.64824800  0.64824800  0.45512900  1
  Ti  Ti2  1  0.01719400  0.01719400  0.33490000  1
  Ti  Ti3  1  0.66148600  0.66148600  0.77523700  1
  Ti  Ti4  1  0.33165400  0.33165400  0.19736400  1
  Ti  Ti5  1  0.34043500  0.34043500  0.89979900  1
  Ti  Ti6  1  0.34815500  0.34815500  0.56946200  1
  O  O0  1  0.83211200  0.83211200  0.23651600  1
  O  O1  1  0.81287800  0.81287800  0.88740500  1
  O  O2  1  0.82854800  0.82854800  0.55129000  1
  O  O3  1  0.18385900  0.18385900  0.44028500  1
  O  O4  1  0.15602500  0.15602500  0.10125800  1
  O  O5  1  0.50034100  0.50034100  0.67683900  1
  O  O6  1  0.50723200  0.50723200  0.99206900  1
  O  O7  1  0.49083300  0.49083300  0.32395200  1
loop_
_geom_bond_atom_site_label_1
_geom_bond_atom_site_label_2
_geom_bond_distance
_geom_bond_site_symmetry_2
O0 Ti4 2.081583 1_655
O0 Ti4 2.081583 1_565
O0 Ti0 2.133928 1_555
O0 Ti1 2.157302 1_555
O0 Ti2 2.218291 1_665
O1 Ti3 2.012309 1_555
O1 Ti0 2.024607 1_556
O1 Ti5 2.076089 1_565
O1 Ti5 2.076089 1_655
O2 Ti6 2.071442 1_565
O2 Ti6 2.071442 1_655
O2 Ti3 2.111967 1_555
O2 Ti1 2.162855 1_555
O2 Ti2 2.168905 1_665
O3 Ti1 2.076814 1_455
O3 Ti1 2.076814 1_545
O3 Ti2 2.099390 1_555
O3 Ti4 2.167846 1_555
O3 Ti6 2.233180 1_555
O4 Ti0 2.065491 1_545
O4 Ti0 2.065491 1_455
O4 Ti5 2.065621 1_554
O4 Ti2 2.075025 1_555
O4 Ti4 2.121235 1_555
O5 Ti6 1.987821 1_555
O5 Ti3 2.008173 1_555
O5 Ti1 2.022116 1_555
O5 Ti5 2.076109 1_555
O6 Ti3 2.014023 1_555
O6 Ti5 2.020498 1_555
O6 Ti4 2.040417 1_556
O6 Ti0 2.209236 1_556
O7 Ti2 2.073306 1_565
O7 Ti2 2.073306 1_655
O7 Ti0 2.106533 1_555
O7 Ti6 2.171162 1_555
O7 Ti4 2.173233 1_555
O7 Ti1 2.189636 1_555
