# generated using pymatgen
data_Li2V3CoO8
_symmetry_space_group_name_H-M   'P 1'
_cell_length_a   8.43632003
_cell_length_b   8.39220009
_cell_length_c   8.40377311
_cell_angle_alpha   90.05831250
_cell_angle_beta   90.01007050
_cell_angle_gamma   90.00069843
_symmetry_Int_Tables_number   1
_chemical_formula_structural   Li2V3CoO8
_chemical_formula_sum   'Li8 V12 Co4 O32'
_cell_volume   594.98081683
_cell_formula_units_Z   4
loop_
 _symmetry_equiv_pos_site_id
 _symmetry_equiv_pos_as_xyz
  1  'x, y, z'
loop_
 _atom_site_type_symbol
 _atom_site_label
 _atom_site_symmetry_multiplicity
 _atom_site_fract_x
 _atom_site_fract_y
 _atom_site_fract_z
 _atom_site_occupancy
  Li  Li0  1  0.12509500  0.87459200  0.37498500  1
  Li  Li1  1  0.25260700  0.75246500  0.74734400  1
  Li  Li2  1  0.25061200  0.24915600  0.25177900  1
  Li  Li3  1  0.37434100  0.12606800  0.87528500  1
  Li  Li4  1  0.62681300  0.62501500  0.62561700  1
  Li  Li5  1  0.74971700  0.74886600  0.24961200  1
  Li  Li6  1  0.74902000  0.24849200  0.74933800  1
  Li  Li7  1  0.87183000  0.37492600  0.12810900  1
  V  V0  1  0.12065200  0.62883400  0.12464500  1
  V  V1  1  0.12665500  0.37875600  0.88111700  1
  V  V2  1  0.12314200  0.12289200  0.62492000  1
  V  V3  1  0.37774100  0.87805100  0.12107700  1
  V  V4  1  0.37771100  0.62391500  0.37683300  1
  V  V5  1  0.37840500  0.37822700  0.62484900  1
  V  V6  1  0.62320800  0.87281900  0.87509000  1
  V  V7  1  0.62278800  0.12319700  0.12087300  1
  V  V8  1  0.62314700  0.37729600  0.37752600  1
  V  V9  1  0.87743900  0.61718900  0.87655000  1
  V  V10  1  0.87863300  0.87446700  0.62111000  1
  V  V11  1  0.87795900  0.12275100  0.37656000  1
  Co  Co0  1  0.99763700  0.50026400  0.49911400  1
  Co  Co1  1  0.50101800  0.49821300  0.00092500  1
  Co  Co2  1  0.49903500  0.99989700  0.50035300  1
  Co  Co3  1  0.99834600  0.00101600  0.00050400  1
  O  O0  1  0.10460300  0.13421500  0.39935600  1
  O  O1  1  0.10200000  0.89388100  0.63123500  1
  O  O2  1  0.11375700  0.61634500  0.88360700  1
  O  O3  1  0.13383200  0.39435000  0.09881500  1
  O  O4  1  0.12106000  0.14305100  0.85689400  1
  O  O5  1  0.13439300  0.36788400  0.64199700  1
  O  O6  1  0.14386500  0.61768800  0.35564700  1
  O  O7  1  0.14290600  0.85822000  0.12004900  1
  O  O8  1  0.35454400  0.14356000  0.61809600  1
  O  O9  1  0.36262100  0.37702500  0.85622600  1
  O  O10  1  0.36366400  0.63549800  0.13514600  1
  O  O11  1  0.37939400  0.85590100  0.35748400  1
  O  O12  1  0.36852500  0.60233200  0.60553500  1
  O  O13  1  0.38560200  0.38491600  0.38519400  1
  O  O14  1  0.39738600  0.10455600  0.13476300  1
  O  O15  1  0.39453800  0.86896400  0.89718400  1
  O  O16  1  0.60500700  0.36606100  0.60193500  1
  O  O17  1  0.60121500  0.60510200  0.36662700  1
  O  O18  1  0.61375900  0.88432800  0.11484200  1
  O  O19  1  0.63437100  0.10146000  0.89681400  1
  O  O20  1  0.62151700  0.35603300  0.14156200  1
  O  O21  1  0.63613900  0.13534700  0.36308300  1
  O  O22  1  0.64312500  0.88332300  0.64498400  1
  O  O23  1  0.64188100  0.64368300  0.87893900  1
  O  O24  1  0.85515300  0.35813800  0.37957900  1
  O  O25  1  0.85944000  0.12128400  0.14420900  1
  O  O26  1  0.86627400  0.85863900  0.86458400  1
  O  O27  1  0.87548400  0.64467200  0.63567100  1
  O  O28  1  0.86628200  0.89810500  0.39409100  1
  O  O29  1  0.88611900  0.11507100  0.61534800  1
  O  O30  1  0.88971900  0.40041700  0.86821400  1
  O  O31  1  0.89827200  0.63266200  0.10825500  1
loop_
_geom_bond_atom_site_label_1
_geom_bond_atom_site_label_2
_geom_bond_distance
_geom_bond_site_symmetry_2
Li0 O7 2.151965 1_555
Li0 O11 2.156113 1_555
Li0 O6 2.167736 1_555
Li0 O1 2.168184 1_555
Li0 O0 2.195029 1_565
Li0 O28 2.198215 1_455
Li1 O12 1.990327 1_555
Li1 O15 1.993024 1_555
Li1 O1 1.994210 1_555
Li1 O2 1.997874 1_555
Li2 O13 1.961875 1_555
Li2 O14 1.992710 1_555
Li2 O0 1.997197 1_555
Li2 O3 2.027451 1_555
Li3 O9 2.114638 1_555
Li3 O4 2.147063 1_555
Li3 O15 2.172381 1_545
Li3 O8 2.172885 1_555
Li3 O14 2.196824 1_556
Li3 O19 2.210799 1_555
Li4 O27 2.106016 1_555
Li4 O23 2.138218 1_555
Li4 O22 2.178057 1_555
Li4 O16 2.189822 1_555
Li4 O17 2.193349 1_555
Li4 O12 2.193754 1_555
Li5 O18 1.973036 1_555
Li5 O31 1.982690 1_555
Li5 O17 1.998747 1_555
Li5 O28 2.001577 1_555
Li6 O29 1.964005 1_555
Li6 O16 1.996509 1_555
Li6 O19 1.999394 1_555
Li6 O30 2.007357 1_555
Li7 O20 2.120707 1_555
Li7 O24 2.122823 1_555
Li7 O25 2.135607 1_555
Li7 O31 2.181005 1_555
Li7 O30 2.199976 1_554
Li7 O3 2.230025 1_655
Co0 O27 1.960935 1_555
Co0 O24 1.968189 1_555
Co0 O6 1.987328 1_655
Co0 O5 2.002341 1_655
Co1 O20 1.963789 1_555
Co1 O9 1.968047 1_554
Co1 O10 1.985010 1_555
Co1 O23 1.989084 1_554
Co2 O22 1.978381 1_555
Co2 O8 1.979039 1_565
Co2 O11 1.979193 1_555
Co2 O21 1.990943 1_565
Co3 O25 1.961748 1_555
Co3 O7 1.983619 1_645
Co3 O4 1.988076 1_654
Co3 O26 1.992632 1_544
O0 V2 1.904471 1_555
O0 V11 1.923977 1_455
O1 V10 1.893314 1_455
O1 V2 1.930947 1_565
O2 V9 1.994539 1_455
O2 V1 1.996951 1_555
O2 V0 2.029056 1_556
O3 V1 1.835015 1_554
O3 V0 1.982677 1_555
O4 V2 1.956694 1_555
O4 V1 1.988883 1_555
O5 V1 2.012558 1_555
O5 V2 2.063061 1_555
O5 V5 2.065456 1_555
O6 V0 1.953442 1_555
O6 V4 1.981470 1_555
O7 V0 1.934609 1_555
O7 V3 1.988136 1_555
O8 V2 1.960724 1_555
O8 V5 1.980386 1_555
O9 V5 1.949054 1_555
O9 V1 2.001733 1_555
O10 V4 2.036936 1_555
O10 V3 2.042559 1_555
O10 V0 2.052769 1_555
O11 V4 1.953868 1_555
O11 V3 1.995623 1_555
O12 V5 1.889728 1_555
O12 V4 1.932227 1_555
O13 V8 2.006071 1_555
O13 V4 2.008133 1_555
O13 V5 2.015771 1_555
O14 V3 1.911429 1_545
O14 V7 1.911583 1_555
O15 V3 1.888363 1_556
O15 V6 1.938353 1_555
O16 V8 1.894551 1_555
O16 V5 1.924096 1_555
O17 V4 1.894102 1_555
O17 V8 1.923002 1_555
O18 V3 1.992519 1_555
O18 V7 2.006670 1_565
O18 V6 2.018626 1_554
O19 V7 1.894112 1_556
O19 V6 1.929578 1_545
O20 V7 1.961580 1_555
O20 V8 1.990865 1_555
O21 V8 2.036939 1_555
O21 V7 2.041017 1_555
O21 V11 2.045932 1_555
O22 V6 1.943164 1_555
O22 V10 1.998336 1_555
O23 V6 1.929702 1_555
O23 V9 1.999747 1_555
O24 V8 1.963945 1_555
O24 V11 1.984901 1_555
O25 V11 1.958864 1_555
O25 V7 2.006112 1_555
O26 V9 2.031078 1_555
O26 V10 2.053210 1_555
O26 V6 2.055941 1_555
O27 V10 1.932671 1_555
O27 V9 2.037687 1_555
O28 V11 1.893736 1_565
O28 V10 1.921112 1_555
O29 V2 2.002278 1_655
O29 V11 2.008988 1_555
O29 V10 2.020813 1_545
O30 V9 1.823418 1_555
O30 V1 2.010037 1_655
O31 V0 1.881371 1_655
O31 V9 1.959257 1_554
