# generated using pymatgen
data_LaBi5O9
_symmetry_space_group_name_H-M   'P 1'
_cell_length_a   9.59942206
_cell_length_b   9.59942206
_cell_length_c   6.99842065
_cell_angle_alpha   81.56807226
_cell_angle_beta   81.56807226
_cell_angle_gamma   23.84301714
_symmetry_Int_Tables_number   1
_chemical_formula_structural   LaBi5O9
_chemical_formula_sum   'La1 Bi5 O9'
_cell_volume   257.74384699
_cell_formula_units_Z   1
loop_
 _symmetry_equiv_pos_site_id
 _symmetry_equiv_pos_as_xyz
  1  'x, y, z'
loop_
 _atom_site_type_symbol
 _atom_site_label
 _atom_site_symmetry_multiplicity
 _atom_site_fract_x
 _atom_site_fract_y
 _atom_site_fract_z
 _atom_site_occupancy
  La  La0  1  0.50762900  0.50762900  0.48952900  1
  Bi  Bi0  1  0.66447200  0.66447200  0.08747200  1
  Bi  Bi1  1  0.83723000  0.83723000  0.40230600  1
  Bi  Bi2  1  0.33064000  0.33064000  0.87446600  1
  Bi  Bi3  1  0.17381000  0.17381000  0.61483900  1
  Bi  Bi4  1  0.99675500  0.99675500  0.98178700  1
  O  O0  1  0.63972000  0.63972000  0.41043200  1
  O  O1  1  0.95482900  0.95482900  0.36050100  1
  O  O2  1  0.84550100  0.84550100  0.04068400  1
  O  O3  1  0.54934300  0.54934300  0.10969100  1
  O  O4  1  0.74486000  0.74486000  0.69072300  1
  O  O5  1  0.35734300  0.35734300  0.53920300  1
  O  O6  1  0.44601100  0.44601100  0.83619000  1
  O  O7  1  0.05334800  0.05334800  0.66822500  1
  O  O8  1  0.15014800  0.15014800  0.94065100  1
loop_
_geom_bond_atom_site_label_1
_geom_bond_atom_site_label_2
_geom_bond_distance
_geom_bond_site_symmetry_2
La0 O1 2.449436 1_545
La0 O1 2.449436 1_455
La0 O0 2.459993 1_555
La0 O6 2.526643 1_555
La0 O7 2.560396 1_655
La0 O7 2.560396 1_565
La0 O3 2.656322 1_555
La0 O5 2.792222 1_555
Bi0 O3 2.144883 1_555
Bi0 O0 2.238246 1_555
Bi0 O8 2.267866 1_654
Bi0 O8 2.267866 1_564
Bi1 O1 2.184459 1_555
Bi1 O5 2.258602 1_655
Bi1 O5 2.258602 1_565
Bi1 O4 2.456658 1_555
Bi1 O2 2.512199 1_555
Bi2 O6 2.143496 1_555
Bi2 O5 2.324656 1_555
Bi2 O2 2.336794 1_456
Bi2 O2 2.336794 1_546
Bi3 O7 2.237559 1_555
Bi3 O8 2.256759 1_555
Bi3 O4 2.491576 1_455
Bi3 O4 2.491576 1_545
Bi3 O0 2.581321 1_545
Bi3 O0 2.581321 1_455
Bi4 O7 2.290518 1_665
Bi4 O3 2.444238 1_566
Bi4 O3 2.444238 1_656
Bi4 O6 2.483980 1_655
Bi4 O6 2.483980 1_565
Bi4 O1 2.649383 1_556
Bi4 O2 2.809214 1_556
Bi4 O8 2.852542 1_665
