# generated using pymatgen
data_Li7Cr2P7O24
_symmetry_space_group_name_H-M   'P 1'
_cell_length_a   5.05855500
_cell_length_b   12.13068100
_cell_length_c   15.07091415
_cell_angle_alpha   83.68058619
_cell_angle_beta   90.00000000
_cell_angle_gamma   90.00000000
_symmetry_Int_Tables_number   1
_chemical_formula_structural   Li7Cr2P7O24
_chemical_formula_sum   'Li14 Cr4 P14 O48'
_cell_volume   919.18791963
_cell_formula_units_Z   2
loop_
 _symmetry_equiv_pos_site_id
 _symmetry_equiv_pos_as_xyz
  1  'x, y, z'
loop_
 _atom_site_type_symbol
 _atom_site_label
 _atom_site_symmetry_multiplicity
 _atom_site_fract_x
 _atom_site_fract_y
 _atom_site_fract_z
 _atom_site_occupancy
  Li  Li0  1  0.26516300  0.48220500  0.05493000  1
  Li  Li1  1  0.17902200  0.10964700  0.13297200  1
  Li  Li2  1  0.73483700  0.98220500  0.05493000  1
  Li  Li3  1  0.82097800  0.60964700  0.13297200  1
  Li  Li4  1  0.83382500  0.43422700  0.40423100  1
  Li  Li5  1  0.16617500  0.93422700  0.40423100  1
  Li  Li6  1  0.28979800  0.25000000  0.50000000  1
  Li  Li7  1  0.71020200  0.75000000  0.50000000  1
  Li  Li8  1  0.83382500  0.06577300  0.59576900  1
  Li  Li9  1  0.16617500  0.56577300  0.59576900  1
  Li  Li10  1  0.17902200  0.39035300  0.86702800  1
  Li  Li11  1  0.26516300  0.01779500  0.94507000  1
  Li  Li12  1  0.82097800  0.89035300  0.86702800  1
  Li  Li13  1  0.73483700  0.51779500  0.94507000  1
  Cr  Cr0  1  0.37333200  0.29323600  0.28557400  1
  Cr  Cr1  1  0.62666800  0.79323600  0.28557400  1
  Cr  Cr2  1  0.37333200  0.20676400  0.71442600  1
  Cr  Cr3  1  0.62666800  0.70676400  0.71442600  1
  P  P0  1  0.56444300  0.25000000  0.00000000  1
  P  P1  1  0.43555700  0.75000000  0.00000000  1
  P  P2  1  0.87472900  0.34365100  0.14081700  1
  P  P3  1  0.12527100  0.84365100  0.14081700  1
  P  P4  1  0.62203600  0.05029200  0.26756600  1
  P  P5  1  0.37796400  0.55029200  0.26756600  1
  P  P6  1  0.86013400  0.19041500  0.39438700  1
  P  P7  1  0.13986600  0.69041500  0.39438700  1
  P  P8  1  0.86013400  0.30958500  0.60561300  1
  P  P9  1  0.13986600  0.80958500  0.60561300  1
  P  P10  1  0.62203600  0.44970800  0.73243400  1
  P  P11  1  0.37796400  0.94970800  0.73243400  1
  P  P12  1  0.87472900  0.15634900  0.85918300  1
  P  P13  1  0.12527100  0.65634900  0.85918300  1
  O  O0  1  0.41377700  0.14210300  0.01544200  1
  O  O1  1  0.58622300  0.64210300  0.01544200  1
  O  O2  1  0.77078000  0.24762300  0.08152800  1
  O  O3  1  0.87334400  0.45264000  0.08034200  1
  O  O4  1  0.22922000  0.74762300  0.08152800  1
  O  O5  1  0.12665600  0.95264000  0.08034200  1
  O  O6  1  0.14891400  0.29977700  0.17081800  1
  O  O7  1  0.73590500  0.02570900  0.18063500  1
  O  O8  1  0.68786100  0.34236400  0.21924200  1
  O  O9  1  0.85108600  0.79977700  0.17081800  1
  O  O10  1  0.26409500  0.52570900  0.18063500  1
  O  O11  1  0.38867900  0.13284500  0.25818500  1
  O  O12  1  0.31213900  0.84236400  0.21924200  1
  O  O13  1  0.61132100  0.63284500  0.25818500  1
  O  O14  1  0.86247800  0.10854900  0.31778700  1
  O  O15  1  0.13752200  0.60854900  0.31778700  1
  O  O16  1  0.05189400  0.28580300  0.36301400  1
  O  O17  1  0.44739900  0.44705700  0.33379900  1
  O  O18  1  0.57691600  0.23709300  0.40076600  1
  O  O19  1  0.94810600  0.78580300  0.36301400  1
  O  O20  1  0.55260100  0.94705700  0.33379900  1
  O  O21  1  0.42308400  0.73709300  0.40076600  1
  O  O22  1  0.96064300  0.12445600  0.47870300  1
  O  O23  1  0.03935700  0.62445600  0.47870300  1
  O  O24  1  0.96064300  0.37554400  0.52129700  1
  O  O25  1  0.03935700  0.87554400  0.52129700  1
  O  O26  1  0.57691600  0.26290700  0.59923400  1
  O  O27  1  0.44739900  0.05294300  0.66620100  1
  O  O28  1  0.05189400  0.21419700  0.63698600  1
  O  O29  1  0.42308400  0.76290700  0.59923400  1
  O  O30  1  0.55260100  0.55294300  0.66620100  1
  O  O31  1  0.94810600  0.71419700  0.63698600  1
  O  O32  1  0.86247800  0.39145100  0.68221300  1
  O  O33  1  0.13752200  0.89145100  0.68221300  1
  O  O34  1  0.38867900  0.36715500  0.74181500  1
  O  O35  1  0.68786100  0.15763600  0.78075800  1
  O  O36  1  0.61132100  0.86715500  0.74181500  1
  O  O37  1  0.73590500  0.47429100  0.81936500  1
  O  O38  1  0.14891400  0.20022300  0.82918200  1
  O  O39  1  0.31213900  0.65763600  0.78075800  1
  O  O40  1  0.26409500  0.97429100  0.81936500  1
  O  O41  1  0.85108600  0.70022300  0.82918200  1
  O  O42  1  0.87334400  0.04736000  0.91965800  1
  O  O43  1  0.77078000  0.25237700  0.91847200  1
  O  O44  1  0.12665600  0.54736000  0.91965800  1
  O  O45  1  0.22922000  0.75237700  0.91847200  1
  O  O46  1  0.41377700  0.35789700  0.98455800  1
  O  O47  1  0.58622300  0.85789700  0.98455800  1
loop_
_geom_bond_atom_site_label_1
_geom_bond_atom_site_label_2
_geom_bond_distance
_geom_bond_site_symmetry_2
Li0 O10 2.021810 1_555
Li0 O3 2.042924 1_455
Li0 O46 2.077480 1_554
Li0 O44 2.217445 1_554
Li0 O1 2.549525 1_555
Li1 O0 2.132872 1_555
Li1 O5 2.158561 1_545
Li1 O11 2.209510 1_555
Li1 O6 2.440826 1_555
Li1 O7 2.533026 1_455
Li2 O7 2.021810 1_565
Li2 O5 2.042924 1_655
Li2 O47 2.077480 1_554
Li2 O42 2.217445 1_564
Li2 O0 2.549525 1_565
Li3 O1 2.132872 1_555
Li3 O3 2.158561 1_555
Li3 O13 2.209510 1_555
Li3 O9 2.440826 1_555
Li3 O10 2.533026 1_655
Li4 O24 1.937662 1_555
Li4 O17 2.221634 1_555
Li4 O16 2.256253 1_655
Li5 O25 1.937662 1_555
Li5 O20 2.221634 1_555
Li5 O19 2.256253 1_455
Li6 O26 2.102902 1_555
Li6 O18 2.102902 1_555
Li6 O24 2.302681 1_455
Li6 O22 2.302681 1_455
Li6 O28 2.387826 1_555
Li6 O16 2.387826 1_555
Li7 O29 2.102902 1_555
Li7 O21 2.102902 1_555
Li7 O25 2.302681 1_655
Li7 O23 2.302681 1_655
Li7 O31 2.387826 1_555
Li7 O19 2.387826 1_555
Li8 O22 1.937662 1_555
Li8 O27 2.221634 1_555
Li8 O28 2.256253 1_655
Li9 O23 1.937662 1_555
Li9 O30 2.221634 1_555
Li9 O31 2.256253 1_455
Li10 O46 2.132872 1_555
Li10 O44 2.158561 1_555
Li10 O34 2.209510 1_555
Li10 O38 2.440826 1_555
Li10 O37 2.533026 1_455
Li11 O40 2.021810 1_545
Li11 O42 2.042924 1_455
Li11 O0 2.077480 1_556
Li11 O5 2.217445 1_546
Li11 O47 2.549525 1_545
Li12 O47 2.132872 1_555
Li12 O42 2.158561 1_565
Li12 O36 2.209510 1_555
Li12 O41 2.440826 1_555
Li12 O40 2.533026 1_655
Li13 O37 2.021810 1_555
Li13 O44 2.042924 1_655
Li13 O1 2.077480 1_556
Li13 O3 2.217445 1_556
Li13 O46 2.549525 1_555
Cr0 O8 1.937745 1_555
Cr0 O16 1.997744 1_555
Cr0 O11 2.034398 1_555
Cr0 O6 2.062990 1_555
Cr0 O18 2.068330 1_555
Cr0 O17 2.109251 1_555
Cr1 O12 1.937745 1_555
Cr1 O19 1.997744 1_555
Cr1 O13 2.034398 1_555
Cr1 O9 2.062990 1_555
Cr1 O21 2.068330 1_555
Cr1 O20 2.109251 1_555
Cr2 O35 1.937745 1_555
Cr2 O28 1.997744 1_555
Cr2 O34 2.034398 1_555
Cr2 O38 2.062990 1_555
Cr2 O26 2.068330 1_555
Cr2 O27 2.109251 1_555
Cr3 O39 1.937745 1_555
Cr3 O31 1.997744 1_555
Cr3 O36 2.034398 1_555
Cr3 O41 2.062990 1_555
Cr3 O29 2.068330 1_555
Cr3 O30 2.109251 1_555
O0 P0 1.510333 1_555
O1 P1 1.510333 1_555
O2 P0 1.610028 1_555
O2 P2 1.631260 1_555
O3 P2 1.520997 1_555
O4 P1 1.610028 1_555
O4 P3 1.631260 1_555
O5 P3 1.520997 1_555
O6 P2 1.535718 1_455
O7 P4 1.491029 1_555
O8 P2 1.512188 1_555
O9 P3 1.535718 1_655
O10 P5 1.491029 1_555
O11 P4 1.544387 1_555
O12 P3 1.512188 1_555
O13 P5 1.544387 1_555
O14 P6 1.603579 1_555
O14 P4 1.633827 1_555
O15 P7 1.603579 1_555
O15 P5 1.633827 1_555
O16 P6 1.543697 1_455
O17 P5 1.553336 1_555
O18 P6 1.547386 1_555
O19 P7 1.543697 1_655
O20 P4 1.553336 1_565
O21 P7 1.547386 1_555
O22 P6 1.513144 1_555
O23 P7 1.513144 1_555
O24 P8 1.513144 1_555
O25 P9 1.513144 1_555
O26 P8 1.547386 1_555
O27 P11 1.553336 1_545
O28 P8 1.543697 1_455
O29 P9 1.547386 1_555
O30 P10 1.553336 1_555
O31 P9 1.543697 1_655
O32 P8 1.603579 1_555
O32 P10 1.633827 1_555
O33 P9 1.603579 1_555
O33 P11 1.633827 1_555
O34 P10 1.544387 1_555
O35 P12 1.512188 1_555
O36 P11 1.544387 1_555
O37 P10 1.491029 1_555
O38 P12 1.535718 1_455
O39 P13 1.512188 1_555
O40 P11 1.491029 1_555
O41 P13 1.535718 1_655
O42 P12 1.520997 1_555
O43 P0 1.610028 1_556
O43 P12 1.631260 1_555
O44 P13 1.520997 1_555
O45 P1 1.610028 1_556
O45 P13 1.631260 1_555
O46 P0 1.510333 1_556
O47 P1 1.510333 1_556
