# generated using pymatgen
data_RbAuO2
_symmetry_space_group_name_H-M   'P 1'
_cell_length_a   4.66173971
_cell_length_b   6.04778681
_cell_length_c   6.57306143
_cell_angle_alpha   90.00000000
_cell_angle_beta   110.76951328
_cell_angle_gamma   90.00000000
_symmetry_Int_Tables_number   1
_chemical_formula_structural   RbAuO2
_chemical_formula_sum   'Rb2 Au2 O4'
_cell_volume   173.27285401
_cell_formula_units_Z   2
loop_
 _symmetry_equiv_pos_site_id
 _symmetry_equiv_pos_as_xyz
  1  'x, y, z'
loop_
 _atom_site_type_symbol
 _atom_site_label
 _atom_site_symmetry_multiplicity
 _atom_site_fract_x
 _atom_site_fract_y
 _atom_site_fract_z
 _atom_site_occupancy
  Rb  Rb0  1  0.30000582  0.75000000  0.60001163  1
  Rb  Rb1  1  0.69999418  0.25000000  0.39998837  1
  Au  Au0  1  0.99743682  0.25000000  0.99487265  1
  Au  Au1  1  0.00256318  0.75000000  0.00512735  1
  O  O0  1  0.89192236  0.50492612  0.78384272  1
  O  O1  1  0.10807764  0.49507388  0.21615728  1
  O  O2  1  0.89192236  0.99507388  0.78384272  1
  O  O3  1  0.10807764  0.00492612  0.21615728  1
loop_
_geom_bond_atom_site_label_1
_geom_bond_atom_site_label_2
_geom_bond_distance
_geom_bond_site_symmetry_2
Au0 O3 2.011559 1_656
Au0 O1 2.011559 1_656
Au0 O0 2.014719 1_555
Au0 O2 2.014719 1_545
Au1 O2 2.011559 1_454
Au1 O0 2.011559 1_454
Au1 O3 2.014719 1_565
Au1 O1 2.014719 1_555
O0 Rb1 2.818239 1_555
O0 Rb0 2.984323 1_655
O0 Rb0 2.984330 1_555
O1 Rb0 2.818239 1_555
O1 Rb1 2.984323 1_455
O1 Rb1 2.984330 1_555
O2 Rb1 2.818239 1_565
O2 Rb0 2.984323 1_655
O2 Rb0 2.984330 1_555
O3 Rb0 2.818239 1_545
O3 Rb1 2.984323 1_455
O3 Rb1 2.984330 1_555
