# generated using pymatgen
data_Li4Mn3Fe3(TeO8)2
_symmetry_space_group_name_H-M   'P 1'
_cell_length_a   6.06153813
_cell_length_b   6.06153813
_cell_length_c   9.89094971
_cell_angle_alpha   88.92268885
_cell_angle_beta   88.92268885
_cell_angle_gamma   59.85021894
_symmetry_Int_Tables_number   1
_chemical_formula_structural   Li4Mn3Fe3(TeO8)2
_chemical_formula_sum   'Li4 Mn3 Fe3 Te2 O16'
_cell_volume   314.17717658
_cell_formula_units_Z   1
loop_
 _symmetry_equiv_pos_site_id
 _symmetry_equiv_pos_as_xyz
  1  'x, y, z'
loop_
 _atom_site_type_symbol
 _atom_site_label
 _atom_site_symmetry_multiplicity
 _atom_site_fract_x
 _atom_site_fract_y
 _atom_site_fract_z
 _atom_site_occupancy
  Li  Li0  1  0.66449400  0.66449400  0.09072500  1
  Li  Li1  1  0.99939000  0.99939000  0.01602200  1
  Li  Li2  1  0.00120700  0.00120700  0.51173000  1
  Li  Li3  1  0.33371000  0.33371000  0.58910800  1
  Mn  Mn0  1  0.83224700  0.83224700  0.78887400  1
  Mn  Mn1  1  0.17486300  0.65928600  0.29035400  1
  Mn  Mn2  1  0.65928600  0.17486300  0.29035400  1
  Fe  Fe0  1  0.33374500  0.83389500  0.78790700  1
  Fe  Fe1  1  0.83389500  0.33374500  0.78790700  1
  Fe  Fe2  1  0.17328800  0.17328800  0.28454300  1
  Te  Te0  1  0.66879900  0.66879900  0.51837600  1
  Te  Te1  1  0.33271700  0.33271700  0.01660400  1
  O  O0  1  0.34985900  0.83143600  0.41318100  1
  O  O1  1  0.52052500  0.52052500  0.65007600  1
  O  O2  1  0.66937500  0.66937500  0.88604700  1
  O  O3  1  0.99551700  0.99551700  0.69632500  1
  O  O4  1  0.00119200  0.00119200  0.20729700  1
  O  O5  1  0.83143600  0.34985900  0.41318100  1
  O  O6  1  0.51619900  0.95867900  0.64835500  1
  O  O7  1  0.95867900  0.51619900  0.64835500  1
  O  O8  1  0.16103400  0.16103400  0.89561200  1
  O  O9  1  0.83014800  0.83014800  0.41447700  1
  O  O10  1  0.03252200  0.47230100  0.15158400  1
  O  O11  1  0.47230100  0.03252200  0.15158400  1
  O  O12  1  0.33081600  0.33081600  0.38956000  1
  O  O13  1  0.16772900  0.67507800  0.90427500  1
  O  O14  1  0.47919600  0.47919600  0.14555100  1
  O  O15  1  0.67507800  0.16772900  0.90427500  1
loop_
_geom_bond_atom_site_label_1
_geom_bond_atom_site_label_2
_geom_bond_distance
_geom_bond_site_symmetry_2
Li0 O14 2.009638 1_555
Li0 O2 2.023997 1_554
Li0 O10 2.027209 1_655
Li0 O11 2.027209 1_565
Li1 O4 1.892397 1_665
Li1 O15 2.037557 1_564
Li1 O13 2.037557 1_654
Li1 O8 2.053066 1_664
Li2 O3 1.825502 1_445
Li2 O9 2.056827 1_445
Li2 O5 2.061806 1_455
Li2 O0 2.061806 1_545
Li3 O12 1.974613 1_555
Li3 O6 2.045248 1_545
Li3 O7 2.045248 1_455
Li3 O1 2.065841 1_555
Mn0 O3 1.926805 1_555
Mn0 O2 1.944439 1_555
Mn0 O15 2.108563 1_565
Mn0 O13 2.108563 1_655
Mn0 O7 2.185031 1_555
Mn0 O6 2.185031 1_555
Mn1 O4 1.963454 1_565
Mn1 O12 1.972667 1_555
Mn1 O14 2.140689 1_555
Mn1 O9 2.173337 1_455
Mn1 O0 2.213142 1_555
Mn1 O10 2.235706 1_555
Mn2 O4 1.963454 1_655
Mn2 O12 1.972667 1_555
Mn2 O14 2.140689 1_555
Mn2 O9 2.173337 1_545
Mn2 O5 2.213142 1_555
Mn2 O11 2.235706 1_555
Fe0 O3 2.000601 1_455
Fe0 O2 2.018793 1_555
Fe0 O8 2.028587 1_565
Fe0 O13 2.037671 1_555
Fe0 O6 2.108109 1_555
Fe0 O1 2.151163 1_555
Fe1 O3 2.000601 1_545
Fe1 O2 2.018793 1_555
Fe1 O8 2.028587 1_655
Fe1 O15 2.037671 1_555
Fe1 O7 2.108109 1_555
Fe1 O1 2.151163 1_555
Fe2 O12 1.973052 1_555
Fe2 O4 1.978182 1_555
Fe2 O11 2.035104 1_555
Fe2 O10 2.035104 1_555
Fe2 O5 2.186878 1_455
Fe2 O0 2.186878 1_545
O0 Te0 1.978522 1_555
O1 Te0 2.008937 1_555
O5 Te0 1.978522 1_555
O6 Te0 2.000859 1_555
O7 Te0 2.000859 1_555
O8 Te1 2.186242 1_556
O9 Te0 1.963266 1_555
O10 Te1 2.052800 1_555
O11 Te1 2.052800 1_555
O13 Te1 2.100347 1_556
O14 Te1 2.020008 1_555
O15 Te1 2.100347 1_556
