# generated using pymatgen
data_LiFeSiO4
_symmetry_space_group_name_H-M   'P 1'
_cell_length_a   10.17259800
_cell_length_b   5.20489400
_cell_length_c   8.48180264
_cell_angle_alpha   53.67972128
_cell_angle_beta   90.00000000
_cell_angle_gamma   90.00000000
_symmetry_Int_Tables_number   1
_chemical_formula_structural   LiFeSiO4
_chemical_formula_sum   'Li4 Fe4 Si4 O16'
_cell_volume   361.83900300
_cell_formula_units_Z   4
loop_
 _symmetry_equiv_pos_site_id
 _symmetry_equiv_pos_as_xyz
  1  'x, y, z'
loop_
 _atom_site_type_symbol
 _atom_site_label
 _atom_site_symmetry_multiplicity
 _atom_site_fract_x
 _atom_site_fract_y
 _atom_site_fract_z
 _atom_site_occupancy
  Li  Li0  1  0.35986900  0.28641000  0.01868200  1
  Li  Li1  1  0.85986900  0.71359000  0.48131800  1
  Li  Li2  1  0.14013100  0.28641000  0.51868200  1
  Li  Li3  1  0.64013100  0.71359000  0.98131800  1
  Fe  Fe0  1  0.08961100  0.50382700  0.79764700  1
  Fe  Fe1  1  0.58961100  0.49617300  0.70235300  1
  Fe  Fe2  1  0.41038900  0.50382700  0.29764700  1
  Fe  Fe3  1  0.91038900  0.49617300  0.20235300  1
  Si  Si0  1  0.31372900  0.79797200  0.50979500  1
  Si  Si1  1  0.81372900  0.20202800  0.99020500  1
  Si  Si2  1  0.18627100  0.79797200  0.00979500  1
  Si  Si3  1  0.68627100  0.20202800  0.49020500  1
  O  O0  1  0.87728000  0.15394700  0.18408900  1
  O  O1  1  0.69440700  0.85477200  0.52684600  1
  O  O2  1  0.66365600  0.35780500  0.94867700  1
  O  O3  1  0.40781900  0.55983800  0.70364500  1
  O  O4  1  0.90781900  0.44016200  0.79635500  1
  O  O5  1  0.16365600  0.64219500  0.55132300  1
  O  O6  1  0.19440700  0.14522800  0.97315400  1
  O  O7  1  0.37728000  0.84605300  0.31591100  1
  O  O8  1  0.62272000  0.15394700  0.68408900  1
  O  O9  1  0.80559300  0.85477200  0.02684600  1
  O  O10  1  0.83634400  0.35780500  0.44867700  1
  O  O11  1  0.09218100  0.55983800  0.20364500  1
  O  O12  1  0.59218100  0.44016200  0.29635500  1
  O  O13  1  0.33634400  0.64219500  0.05132300  1
  O  O14  1  0.30559300  0.14522800  0.47315400  1
  O  O15  1  0.12272000  0.84605300  0.81591100  1
loop_
_geom_bond_atom_site_label_1
_geom_bond_atom_site_label_2
_geom_bond_distance
_geom_bond_site_symmetry_2
Li0 O6 1.964266 1_554
Li0 O13 2.042178 1_555
Li0 O7 2.189846 1_545
Li0 O3 2.213266 1_554
Li1 O1 1.964266 1_555
Li1 O10 2.042178 1_555
Li1 O0 2.189846 1_565
Li1 O4 2.213266 1_555
Li2 O14 1.964266 1_555
Li2 O5 2.042178 1_555
Li2 O15 2.189846 1_545
Li2 O11 2.213266 1_555
Li3 O9 1.964266 1_556
Li3 O2 2.042178 1_555
Li3 O8 2.189846 1_565
Li3 O12 2.213266 1_556
Fe0 O4 1.879927 1_455
Fe0 O6 1.882762 1_555
Fe0 O15 1.907134 1_555
Fe0 O5 1.915373 1_555
Fe1 O3 1.879927 1_555
Fe1 O1 1.882762 1_555
Fe1 O8 1.907134 1_555
Fe1 O2 1.915373 1_555
Fe2 O12 1.879927 1_555
Fe2 O14 1.882762 1_555
Fe2 O7 1.907134 1_555
Fe2 O13 1.915373 1_555
Fe3 O11 1.879927 1_655
Fe3 O9 1.882762 1_555
Fe3 O0 1.907134 1_555
Fe3 O10 1.915373 1_555
O0 Si1 1.642371 1_554
O1 Si3 1.644638 1_565
O2 Si1 1.665462 1_555
O3 Si0 1.655794 1_555
O4 Si1 1.655794 1_555
O5 Si0 1.665462 1_555
O6 Si2 1.644638 1_546
O7 Si0 1.642371 1_555
O8 Si3 1.642371 1_555
O9 Si1 1.644638 1_564
O10 Si3 1.665462 1_555
O11 Si2 1.655794 1_555
O12 Si3 1.655794 1_555
O13 Si2 1.665462 1_555
O14 Si0 1.644638 1_545
O15 Si2 1.642371 1_556
