# generated using pymatgen
data_Li2MnV(PO4)3
_symmetry_space_group_name_H-M   'P 1'
_cell_length_a   8.98271097
_cell_length_b   8.59002718
_cell_length_c   8.27672061
_cell_angle_alpha   59.38712107
_cell_angle_beta   63.77067416
_cell_angle_gamma   92.28125909
_symmetry_Int_Tables_number   1
_chemical_formula_structural   Li2MnV(PO4)3
_chemical_formula_sum   'Li4 Mn2 V2 P6 O24'
_cell_volume   463.11529361
_cell_formula_units_Z   2
loop_
 _symmetry_equiv_pos_site_id
 _symmetry_equiv_pos_as_xyz
  1  'x, y, z'
loop_
 _atom_site_type_symbol
 _atom_site_label
 _atom_site_symmetry_multiplicity
 _atom_site_fract_x
 _atom_site_fract_y
 _atom_site_fract_z
 _atom_site_occupancy
  Li  Li0  1  0.14127600  0.73950800  0.17858200  1
  Li  Li1  1  0.37198200  0.20676900  0.36383500  1
  Li  Li2  1  0.86162300  0.92763600  0.40318000  1
  Li  Li3  1  0.86471100  0.26199300  0.81527300  1
  Mn  Mn0  1  0.05039300  0.35245600  0.29878400  1
  Mn  Mn1  1  0.95349000  0.64619100  0.70265700  1
  V  V0  1  0.56460500  0.84935400  0.29893200  1
  V  V1  1  0.43931800  0.14555400  0.70637400  1
  P  P0  1  0.25484300  0.03500000  0.21104900  1
  P  P1  1  0.24876600  0.45444500  0.50620200  1
  P  P2  1  0.24960700  0.74722200  0.78604100  1
  P  P3  1  0.75493000  0.24916800  0.21037700  1
  P  P4  1  0.75746700  0.54394700  0.49268600  1
  P  P5  1  0.74866100  0.97116000  0.78162100  1
  O  O0  1  0.08967700  0.84186200  0.37067200  1
  O  O1  1  0.28119300  0.11042600  0.98309100  1
  O  O2  1  0.21593100  0.17216000  0.27649100  1
  O  O3  1  0.21466400  0.49481200  0.32086000  1
  O  O4  1  0.08908400  0.43299500  0.70055400  1
  O  O5  1  0.11376500  0.78638400  0.71760000  1
  O  O6  1  0.42222300  0.99786900  0.20761200  1
  O  O7  1  0.29730500  0.26620200  0.58504200  1
  O  O8  1  0.41266600  0.61956900  0.39563400  1
  O  O9  1  0.20017100  0.53866500  0.97521900  1
  O  O10  1  0.27238400  0.88559300  0.84864600  1
  O  O11  1  0.43157100  0.80410000  0.57844300  1
  O  O12  1  0.57067500  0.19237200  0.40878600  1
  O  O13  1  0.73782800  0.11193200  0.14461300  1
  O  O14  1  0.80635500  0.45892800  0.02316800  1
  O  O15  1  0.58966300  0.38176600  0.60332600  1
  O  O16  1  0.72562700  0.74115500  0.39672900  1
  O  O17  1  0.57641400  0.00809600  0.79065500  1
  O  O18  1  0.89100500  0.20639700  0.28068700  1
  O  O19  1  0.91737300  0.55898300  0.30238300  1
  O  O20  1  0.79304900  0.50388800  0.67709400  1
  O  O21  1  0.79363100  0.84225300  0.70681600  1
  O  O22  1  0.71033400  0.88769600  0.01788900  1
  O  O23  1  0.89781800  0.17144400  0.62808900  1
loop_
_geom_bond_atom_site_label_1
_geom_bond_atom_site_label_2
_geom_bond_distance
_geom_bond_site_symmetry_2
Li0 O19 1.952316 1_455
Li0 O10 1.992081 1_554
Li0 O0 2.078536 1_555
Li0 O3 2.124859 1_555
Li1 O2 1.912430 1_555
Li1 O12 1.974056 1_555
Li1 O7 1.989055 1_555
Li2 O21 1.989226 1_555
Li2 O16 2.012505 1_555
Li2 O18 2.017941 1_565
Li2 O0 2.155611 1_655
Li3 O4 1.942589 1_655
Li3 O23 1.982963 1_555
Li3 O13 1.987249 1_556
Li3 O20 2.092101 1_555
Mn0 O9 1.954909 1_554
Mn0 O18 1.970889 1_455
Mn0 O23 1.984181 1_455
Mn0 O3 2.007076 1_555
Mn0 O19 2.183364 1_455
Mn0 O2 2.208083 1_555
Mn1 O5 1.925967 1_655
Mn1 O14 1.938341 1_556
Mn1 O20 2.002181 1_555
Mn1 O0 2.008258 1_655
Mn1 O4 2.242546 1_655
Mn1 O21 2.259983 1_555
O0 P0 1.593171 1_565
O1 P0 1.543905 1_556
O1 V1 1.934050 1_555
O2 P0 1.522867 1_555
O3 P1 1.565050 1_555
O4 P1 1.522019 1_555
O5 P2 1.540325 1_555
O6 P0 1.540372 1_565
O6 V0 1.958805 1_555
O7 P1 1.569589 1_555
O7 V1 1.971673 1_555
O8 P1 1.528968 1_555
O8 V0 1.900108 1_555
O9 P2 1.524304 1_555
O10 P2 1.557168 1_555
O10 V1 2.028865 1_565
O11 P2 1.568955 1_555
O11 V0 1.880039 1_555
O12 P3 1.546410 1_555
O12 V1 2.001266 1_555
O13 P3 1.556470 1_555
O13 V0 2.042008 1_545
O14 P3 1.522656 1_555
O15 P4 1.537815 1_555
O15 V1 1.915610 1_555
O16 P4 1.565689 1_555
O16 V0 1.996710 1_555
O17 P5 1.568823 1_545
O17 V1 1.853002 1_555
O18 P3 1.553852 1_555
O19 P4 1.529376 1_555
O20 P4 1.566908 1_555
O21 P5 1.511767 1_555
O22 P5 1.553690 1_554
O22 V0 1.930473 1_555
O23 P5 1.566773 1_545
