# generated using pymatgen
data_BaMnO3
_symmetry_space_group_name_H-M   'P 1'
_cell_length_a   5.69121041
_cell_length_b   5.69121050
_cell_length_c   14.05376615
_cell_angle_alpha   90.00000120
_cell_angle_beta   89.99999920
_cell_angle_gamma   120.00005113
_symmetry_Int_Tables_number   1
_chemical_formula_structural   BaMnO3
_chemical_formula_sum   'Ba6 Mn6 O18'
_cell_volume   394.21434393
_cell_formula_units_Z   6
loop_
 _symmetry_equiv_pos_site_id
 _symmetry_equiv_pos_as_xyz
  1  'x, y, z'
loop_
 _atom_site_type_symbol
 _atom_site_label
 _atom_site_symmetry_multiplicity
 _atom_site_fract_x
 _atom_site_fract_y
 _atom_site_fract_z
 _atom_site_occupancy
  Ba  Ba0  1  0.33333363  0.66666634  0.16738211  1
  Ba  Ba1  1  0.33333226  0.66666766  0.49999996  1
  Ba  Ba2  1  0.33333360  0.66666641  0.83261791  1
  Ba  Ba3  1  0.00000001  -0.00000038  0.00000002  1
  Ba  Ba4  1  0.66666662  0.33333347  0.66325532  1
  Ba  Ba5  1  0.66666659  0.33333332  0.33674471  1
  Mn  Mn0  1  -0.00000008  0.00000005  0.23497197  1
  Mn  Mn1  1  -0.00000026  0.00000022  0.41204368  1
  Mn  Mn2  1  -0.00000022  0.00000022  0.58795630  1
  Mn  Mn3  1  -0.00000013  0.00000004  0.76502804  1
  Mn  Mn4  1  0.66666725  0.33333266  0.90970431  1
  Mn  Mn5  1  0.66666729  0.33333258  0.09029569  1
  O  O0  1  0.95491699  0.47745593  0.00000002  1
  O  O1  1  0.14665252  0.85334840  0.32609068  1
  O  O2  1  0.14665251  0.85334840  0.67390929  1
  O  O3  1  0.14665152  0.29330540  0.32609066  1
  O  O4  1  0.14665151  0.29330540  0.67390933  1
  O  O5  1  0.70669456  0.85334752  0.32609065  1
  O  O6  1  0.70669455  0.85334754  0.67390933  1
  O  O7  1  0.52254404  0.47745787  0.00000003  1
  O  O8  1  0.29639564  0.14819800  0.49999998  1
  O  O9  1  0.33428244  0.16714170  0.16465757  1
  O  O10  1  0.33428242  0.16714169  0.83534244  1
  O  O11  1  0.52254176  0.04508281  0.00000002  1
  O  O12  1  0.83285926  0.66571751  0.16465756  1
  O  O13  1  0.85180204  0.70360431  0.49999997  1
  O  O14  1  0.83285921  0.66571753  0.83534246  1
  O  O15  1  0.85180168  0.14819820  0.49999998  1
  O  O16  1  0.83285840  0.16714061  0.16465765  1
  O  O17  1  0.83285838  0.16714060  0.83534236  1
loop_
_geom_bond_atom_site_label_1
_geom_bond_atom_site_label_2
_geom_bond_distance
_geom_bond_site_symmetry_2
Ba0 O9 2.845861 1_555
Ba0 O16 2.845862 1_565
Ba0 O12 2.845866 1_455
Ba0 O12 2.845867 1_555
Ba0 O16 2.845867 1_455
Ba0 O9 2.845872 1_565
Ba0 O5 2.891581 1_555
Ba0 O3 2.891581 1_555
Ba0 O1 2.891589 1_555
Ba0 O11 3.002031 1_565
Ba0 O0 3.002032 1_455
Ba0 O7 3.002039 1_555
Ba1 O13 2.851415 1_455
Ba1 O8 2.851415 1_565
Ba1 O15 2.851421 1_565
Ba1 O15 2.851421 1_455
Ba1 O8 2.851430 1_555
Ba1 O13 2.851431 1_555
Ba1 O1 3.059386 1_555
Ba1 O2 3.059387 1_555
Ba1 O3 3.059391 1_555
Ba1 O5 3.059391 1_555
Ba1 O4 3.059392 1_555
Ba1 O6 3.059392 1_555
Ba2 O17 2.845862 1_565
Ba2 O10 2.845862 1_555
Ba2 O14 2.845866 1_455
Ba2 O14 2.845867 1_555
Ba2 O17 2.845867 1_455
Ba2 O10 2.845872 1_565
Ba2 O6 2.891581 1_555
Ba2 O4 2.891581 1_555
Ba2 O2 2.891589 1_555
Ba2 O11 3.002031 1_566
Ba2 O0 3.002032 1_456
Ba2 O7 3.002040 1_556
Ba3 O12 2.840670 1_445
Ba3 O14 2.840670 1_444
Ba3 O9 2.840671 1_555
Ba3 O10 2.840672 1_554
Ba3 O16 2.840673 1_455
Ba3 O17 2.840674 1_454
Ba3 O0 2.854255 1_455
Ba3 O7 2.854260 1_445
Ba3 O11 2.854267 1_455
Ba3 O11 2.854268 1_555
Ba3 O7 2.854273 1_555
Ba3 O0 2.854280 1_445
Ba4 O4 2.856357 1_655
Ba4 O2 2.856359 1_545
Ba4 O6 2.856363 1_545
Ba4 O6 2.856364 1_555
Ba4 O2 2.856364 1_655
Ba4 O4 2.856369 1_555
Ba4 O14 2.921098 1_555
Ba4 O10 2.921098 1_555
Ba4 O17 2.921099 1_555
Ba4 O15 2.931646 1_555
Ba4 O13 2.931647 1_555
Ba4 O8 2.931647 1_555
Ba5 O3 2.856357 1_655
Ba5 O1 2.856358 1_545
Ba5 O5 2.856362 1_545
Ba5 O1 2.856364 1_655
Ba5 O5 2.856364 1_555
Ba5 O3 2.856369 1_555
Ba5 O9 2.921098 1_555
Ba5 O12 2.921098 1_555
Ba5 O16 2.921099 1_555
Ba5 O15 2.931645 1_555
Ba5 O8 2.931646 1_555
Ba5 O13 2.931646 1_555
Mn0 O16 1.921210 1_455
Mn0 O9 1.921211 1_555
Mn0 O12 1.921211 1_445
Mn0 O1 1.931230 1_545
Mn0 O5 1.931233 1_445
Mn0 O3 1.931233 1_555
Mn1 O1 1.883877 1_545
Mn1 O3 1.883879 1_555
Mn1 O5 1.883879 1_445
Mn1 O13 1.913657 1_445
Mn1 O8 1.913657 1_555
Mn1 O15 1.913659 1_455
Mn2 O2 1.883877 1_545
Mn2 O4 1.883879 1_555
Mn2 O6 1.883879 1_445
Mn2 O8 1.913657 1_555
Mn2 O13 1.913658 1_445
Mn2 O15 1.913659 1_455
Mn3 O17 1.921209 1_455
Mn3 O10 1.921211 1_555
Mn3 O14 1.921211 1_445
Mn3 O2 1.931231 1_545
Mn3 O6 1.931233 1_445
Mn3 O4 1.931233 1_555
Mn4 O7 1.904924 1_556
Mn4 O0 1.904928 1_556
Mn4 O11 1.904929 1_556
Mn4 O17 1.943181 1_555
Mn4 O10 1.943187 1_555
Mn4 O14 1.943187 1_555
Mn5 O7 1.904924 1_555
Mn5 O0 1.904928 1_555
Mn5 O11 1.904928 1_555
Mn5 O16 1.943181 1_555
Mn5 O9 1.943187 1_555
Mn5 O12 1.943187 1_555
