# generated using pymatgen
data_Mn2V3Ni(PO4)6
_symmetry_space_group_name_H-M   'P 1'
_cell_length_a   8.59442848
_cell_length_b   8.59442848
_cell_length_c   8.59442878
_cell_angle_alpha   60.21837130
_cell_angle_beta   60.21837130
_cell_angle_gamma   60.21836878
_symmetry_Int_Tables_number   1
_chemical_formula_structural   Mn2V3Ni(PO4)6
_chemical_formula_sum   'Mn2 V3 Ni1 P6 O24'
_cell_volume   451.10531779
_cell_formula_units_Z   1
loop_
 _symmetry_equiv_pos_site_id
 _symmetry_equiv_pos_as_xyz
  1  'x, y, z'
loop_
 _atom_site_type_symbol
 _atom_site_label
 _atom_site_symmetry_multiplicity
 _atom_site_fract_x
 _atom_site_fract_y
 _atom_site_fract_z
 _atom_site_occupancy
  Mn  Mn0  1  0.99632000  0.99632000  0.99632000  1
  Mn  Mn1  1  0.49931400  0.49931400  0.49931400  1
  V  V0  1  0.35520400  0.35520400  0.35520400  1
  V  V1  1  0.14286700  0.14286700  0.14286700  1
  V  V2  1  0.64547200  0.64547200  0.64547200  1
  Ni  Ni0  1  0.85669900  0.85669900  0.85669900  1
  P  P0  1  0.45924200  0.75184500  0.04300700  1
  P  P1  1  0.75184500  0.04300700  0.45924200  1
  P  P2  1  0.04300700  0.45924200  0.75184500  1
  P  P3  1  0.95845000  0.54076300  0.25137500  1
  P  P4  1  0.25137500  0.95845000  0.54076300  1
  P  P5  1  0.54076300  0.25137500  0.95845000  1
  O  O0  1  0.69450400  0.87845700  0.49547900  1
  O  O1  1  0.87845700  0.49547900  0.69450400  1
  O  O2  1  0.49547900  0.69450400  0.87845700  1
  O  O3  1  0.26099900  0.91489800  0.05932800  1
  O  O4  1  0.61398800  0.80422600  0.01652400  1
  O  O5  1  0.43126700  0.58477300  0.23753200  1
  O  O6  1  0.91489800  0.05932800  0.26099900  1
  O  O7  1  0.58477300  0.23753200  0.43126700  1
  O  O8  1  0.99668700  0.37755100  0.19323600  1
  O  O9  1  0.23753200  0.43126700  0.58477300  1
  O  O10  1  0.94788800  0.73186700  0.09242100  1
  O  O11  1  0.19323600  0.99668700  0.37755100  1
  O  O12  1  0.80422600  0.01652400  0.61398800  1
  O  O13  1  0.05932800  0.26099900  0.91489800  1
  O  O14  1  0.76527700  0.55270400  0.41969900  1
  O  O15  1  0.01652400  0.61398800  0.80422600  1
  O  O16  1  0.41969900  0.76527700  0.55270400  1
  O  O17  1  0.09242100  0.94788800  0.73186700  1
  O  O18  1  0.55270400  0.41969900  0.76527700  1
  O  O19  1  0.37755100  0.19323600  0.99668700  1
  O  O20  1  0.73186700  0.09242100  0.94788800  1
  O  O21  1  0.49276500  0.32028400  0.11711300  1
  O  O22  1  0.11711300  0.49276500  0.32028400  1
  O  O23  1  0.32028400  0.11711300  0.49276500  1
loop_
_geom_bond_atom_site_label_1
_geom_bond_atom_site_label_2
_geom_bond_distance
_geom_bond_site_symmetry_2
Mn0 O20 2.180512 1_565
Mn0 O10 2.180512 1_556
Mn0 O17 2.180513 1_655
Mn0 O3 2.285481 1_656
Mn0 O13 2.285481 1_665
Mn0 O6 2.285481 1_566
Mn1 O16 2.253872 1_555
Mn1 O14 2.253872 1_555
Mn1 O18 2.253872 1_555
Mn1 O7 2.276447 1_555
Mn1 O9 2.276447 1_555
Mn1 O5 2.276447 1_555
Ni0 O15 1.978431 1_655
Ni0 O4 1.978431 1_556
Ni0 O12 1.978431 1_565
Ni0 O20 2.110055 1_565
Ni0 O17 2.110055 1_655
Ni0 O10 2.110055 1_556
O0 P1 1.562754 1_565
O0 V2 1.892946 1_555
O1 P2 1.562754 1_655
O1 V2 1.892946 1_555
O2 P0 1.562754 1_556
O2 V2 1.892946 1_555
O3 P0 1.572379 1_555
O3 V1 2.020447 1_565
O4 P0 1.488463 1_555
O5 P0 1.572752 1_555
O5 V0 1.996311 1_555
O6 P1 1.572379 1_555
O6 V1 2.020447 1_655
O7 P1 1.572752 1_555
O7 V0 1.996311 1_555
O8 P3 1.549353 1_555
O8 V1 1.908877 1_655
O9 P2 1.572752 1_555
O9 V0 1.996311 1_555
O10 P3 1.522581 1_555
O11 P4 1.549354 1_555
O11 V1 1.908877 1_565
O12 P1 1.488463 1_555
O13 P2 1.572379 1_555
O13 V1 2.020447 1_556
O14 P3 1.565881 1_555
O14 V2 2.048795 1_555
O15 P2 1.488463 1_555
O16 P4 1.565881 1_555
O16 V2 2.048795 1_555
O17 P4 1.522581 1_555
O18 P5 1.565881 1_555
O18 V2 2.048795 1_555
O19 P5 1.549354 1_555
O19 V1 1.908877 1_556
O20 P5 1.522581 1_555
O21 P5 1.543088 1_554
O21 V0 1.878654 1_555
O22 P3 1.543088 1_455
O22 V0 1.878654 1_555
O23 P4 1.543088 1_545
O23 V0 1.878654 1_555
