# generated using pymatgen
data_LiVCr(P2O7)2
_symmetry_space_group_name_H-M   'P 1'
_cell_length_a   7.16449800
_cell_length_b   9.68514565
_cell_length_c   16.85099222
_cell_angle_alpha   102.09368360
_cell_angle_beta   96.13944530
_cell_angle_gamma   111.37101126
_symmetry_Int_Tables_number   1
_chemical_formula_structural   LiVCr(P2O7)2
_chemical_formula_sum   'Li4 V4 Cr4 P16 O56'
_cell_volume   1042.91729945
_cell_formula_units_Z   4
loop_
 _symmetry_equiv_pos_site_id
 _symmetry_equiv_pos_as_xyz
  1  'x, y, z'
loop_
 _atom_site_type_symbol
 _atom_site_label
 _atom_site_symmetry_multiplicity
 _atom_site_fract_x
 _atom_site_fract_y
 _atom_site_fract_z
 _atom_site_occupancy
  Li  Li0  1  0.29055300  0.96599300  0.43195600  1
  Li  Li1  1  0.26304900  0.59098400  0.68126500  1
  Li  Li2  1  0.01478700  0.34285800  0.18171300  1
  Li  Li3  1  0.53946200  0.21573900  0.93182800  1
  V  V0  1  0.15709000  0.87854000  0.24741900  1
  V  V1  1  0.90531500  0.63351600  0.75336700  1
  V  V2  1  0.65522700  0.38486400  0.25385200  1
  V  V3  1  0.40720900  0.12989700  0.74799400  1
  Cr  Cr0  1  0.72385100  0.99563600  0.50309800  1
  Cr  Cr1  1  0.46917800  0.74470400  0.00221400  1
  Cr  Cr2  1  0.21693700  0.49255600  0.49878800  1
  Cr  Cr3  1  0.97125800  0.24308000  0.99959900  1
  P  P0  1  0.33184700  0.85473400  0.59018600  1
  P  P1  1  0.08325400  0.60479300  0.08885700  1
  P  P2  1  0.79490300  0.88009800  0.89183500  1
  P  P3  1  0.54574500  0.63174100  0.39197700  1
  P  P4  1  0.97081400  0.88609900  0.64126000  1
  P  P5  1  0.72205400  0.63642800  0.14079100  1
  P  P6  1  0.38352200  0.85876000  0.84200700  1
  P  P7  1  0.13406800  0.60934000  0.34152800  1
  P  P8  1  0.83583100  0.35450500  0.58833700  1
  P  P9  1  0.58452200  0.10413000  0.08968300  1
  P  P10  1  0.29307600  0.38216500  0.89096700  1
  P  P11  1  0.04232600  0.13076100  0.39090100  1
  P  P12  1  0.47619300  0.38733200  0.64085300  1
  P  P13  1  0.22456400  0.13681700  0.14120300  1
  P  P14  1  0.87865600  0.35673200  0.83829100  1
  P  P15  1  0.62791400  0.10616100  0.33867600  1
  O  O0  1  0.55234500  0.94263600  0.09049900  1
  O  O1  1  0.45506300  0.98587300  0.26901000  1
  O  O2  1  0.13344800  0.98525900  0.16518600  1
  O  O3  1  0.80314400  0.91406800  0.59538900  1
  O  O4  1  0.55371400  0.66377000  0.09526900  1
  O  O5  1  0.66130000  0.80460900  0.41224300  1
  O  O6  1  0.42774700  0.91127000  0.52051500  1
  O  O7  1  0.18241700  0.65749500  0.02061700  1
  O  O8  1  0.44611300  0.96486000  0.67620100  1
  O  O9  1  0.19418700  0.71378100  0.17627300  1
  O  O10  1  0.16638800  0.77470000  0.33773000  1
  O  O11  1  0.86295700  0.76747200  0.21748000  1
  O  O12  1  0.10935400  0.86174600  0.57390000  1
  O  O13  1  0.85911300  0.61009600  0.07381300  1
  O  O14  1  0.58502300  0.83315700  0.82311000  1
  O  O15  1  0.33523400  0.58316200  0.32296800  1
  O  O16  1  0.73859600  0.82441500  0.96698700  1
  O  O17  1  0.48758100  0.57377300  0.46650100  1
  O  O18  1  0.30200900  0.69136500  0.59124300  1
  O  O19  1  0.04869800  0.43981100  0.09102500  1
  O  O20  1  0.35283300  0.84062300  0.92668600  1
  O  O21  1  0.10284900  0.59124200  0.42635500  1
  O  O22  1  0.21401500  0.73535200  0.77031100  1
  O  O23  1  0.96400000  0.48549200  0.27038200  1
  O  O24  1  0.88689900  0.73657100  0.66894700  1
  O  O25  1  0.63748200  0.48671200  0.16923200  1
  O  O26  1  0.90939900  0.79849800  0.84124900  1
  O  O27  1  0.66029500  0.54958200  0.34157500  1
  O  O28  1  0.30770600  0.42287400  0.59868100  1
  O  O29  1  0.05690300  0.17281200  0.09836100  1
  O  O30  1  0.40969100  0.55386800  0.91022100  1
  O  O31  1  0.16011000  0.30281400  0.40936200  1
  O  O32  1  0.93353300  0.40935600  0.51961200  1
  O  O33  1  0.67857100  0.16245600  0.01932000  1
  O  O34  1  0.95334000  0.47078500  0.67411800  1
  O  O35  1  0.70535900  0.22143900  0.17391600  1
  O  O36  1  0.91323700  0.52118700  0.83372800  1
  O  O37  1  0.66252700  0.27048800  0.33302500  1
  O  O38  1  0.60650600  0.51970600  0.71834200  1
  O  O39  1  0.35531200  0.26989200  0.21816400  1
  O  O40  1  0.61226500  0.36526900  0.57428200  1
  O  O41  1  0.36272600  0.11661400  0.07454600  1
  O  O42  1  0.08268400  0.33215700  0.82344200  1
  O  O43  1  0.83227200  0.08208500  0.32367100  1
  O  O44  1  0.24202400  0.32367400  0.96681200  1
  O  O45  1  0.99325200  0.07441900  0.46736000  1
  O  O46  1  0.79872500  0.19149500  0.59023500  1
  O  O47  1  0.84289800  0.33424100  0.92351400  1
  O  O48  1  0.59241600  0.08398600  0.42380600  1
  O  O49  1  0.70525300  0.23599000  0.76910400  1
  O  O50  1  0.38461200  0.23559600  0.66564300  1
  O  O51  1  0.40781000  0.29402600  0.84412100  1
  O  O52  1  0.15716500  0.04334800  0.34391600  1
  O  O53  1  0.91207000  0.05332300  0.91133300  1
  O  O54  1  0.41600200  0.02427500  0.83744500  1
  O  O55  1  0.11243500  0.01754000  0.71744000  1
loop_
_geom_bond_atom_site_label_1
_geom_bond_atom_site_label_2
_geom_bond_distance
_geom_bond_site_symmetry_2
Li0 O6 1.967578 1_555
Li0 O10 2.002255 1_555
Li0 O48 2.080892 1_565
Li0 O52 2.088016 1_565
Li1 O18 1.958322 1_555
Li1 O22 1.980304 1_555
Li1 O28 2.053141 1_555
Li1 O34 2.072383 1_455
Li2 O19 1.946928 1_555
Li2 O23 1.972561 1_455
Li2 O29 2.063914 1_555
Li2 O35 2.070684 1_455
Li3 O33 1.952590 1_556
Li3 O54 2.004600 1_555
Li3 O51 2.083628 1_555
Li3 O47 2.092146 1_555
Cr0 O46 1.991205 1_565
Cr0 O3 2.004589 1_555
Cr0 O5 2.007441 1_555
Cr0 O45 2.009497 1_565
Cr0 O48 2.049737 1_565
Cr0 O6 2.055385 1_555
Cr1 O20 2.002630 1_554
Cr1 O7 2.002964 1_555
Cr1 O16 2.006310 1_554
Cr1 O0 2.006502 1_555
Cr1 O30 2.021094 1_554
Cr1 O4 2.024350 1_555
Cr2 O21 1.978951 1_555
Cr2 O17 1.991971 1_555
Cr2 O32 1.993393 1_455
Cr2 O31 1.994176 1_555
Cr2 O18 2.047149 1_555
Cr2 O28 2.067267 1_555
Cr3 O53 1.980249 1_555
Cr3 O44 1.996028 1_655
Cr3 O47 2.020629 1_555
Cr3 O19 2.031861 1_656
Cr3 O29 2.042023 1_656
Cr3 O33 2.044948 1_556
O0 P9 1.498873 1_565
O1 P15 1.527571 1_565
O1 V0 1.956649 1_555
O2 P13 1.533210 1_565
O2 V0 1.922165 1_555
O3 P4 1.496729 1_555
O4 P5 1.494375 1_555
O5 P3 1.514889 1_555
O6 P0 1.522480 1_555
O7 P1 1.497989 1_555
O8 P0 1.539710 1_555
O8 V3 1.919043 1_565
O9 P1 1.549959 1_555
O9 V0 1.905229 1_555
O10 P7 1.548700 1_555
O10 V0 2.000077 1_555
O11 P5 1.549139 1_555
O11 V0 1.935338 1_655
O12 P0 1.616805 1_555
O12 P4 1.621316 1_455
O13 P5 1.613099 1_555
O13 P1 1.619930 1_655
O14 P6 1.604110 1_555
O14 P2 1.648512 1_555
O15 P7 1.602752 1_555
O15 P3 1.651287 1_555
O16 P2 1.514664 1_555
O17 P3 1.517481 1_555
O18 P0 1.521725 1_555
O19 P1 1.534247 1_555
O20 P6 1.503098 1_555
O21 P7 1.506250 1_555
O22 P6 1.544747 1_555
O22 V1 2.025574 1_455
O23 P7 1.542890 1_655
O23 V2 2.025930 1_555
O24 P4 1.544334 1_555
O24 V1 1.920437 1_555
O25 P5 1.553179 1_555
O25 V2 1.914276 1_555
O26 P2 1.537492 1_555
O26 V1 1.926720 1_555
O27 P3 1.539453 1_555
O27 V2 1.920845 1_555
O28 P12 1.517402 1_555
O29 P13 1.520126 1_555
O30 P10 1.507350 1_555
O31 P11 1.512424 1_555
O32 P8 1.507821 1_555
O33 P9 1.533988 1_555
O34 P8 1.559841 1_555
O34 V1 1.999334 1_555
O35 P9 1.549070 1_555
O35 V2 2.018192 1_555
O36 P14 1.540131 1_555
O36 V1 1.914792 1_555
O37 P15 1.544165 1_555
O37 V2 1.912158 1_555
O38 P12 1.544594 1_555
O38 V1 1.970724 1_555
O39 P13 1.542839 1_555
O39 V2 1.979361 1_555
O40 P12 1.593668 1_555
O40 P8 1.638117 1_555
O41 P13 1.602080 1_555
O41 P9 1.634331 1_555
O42 P14 1.600888 1_455
O42 P10 1.634489 1_555
O43 P15 1.601643 1_555
O43 P11 1.632473 1_655
O44 P10 1.529869 1_555
O45 P11 1.527432 1_655
O46 P8 1.510403 1_555
O47 P14 1.531191 1_555
O48 P15 1.528396 1_555
O49 P14 1.526521 1_555
O49 V3 1.956344 1_555
O50 P12 1.542014 1_555
O50 V3 1.915173 1_555
O51 P10 1.547708 1_555
O51 V3 2.016267 1_555
O52 P11 1.544885 1_555
O52 V0 2.025719 1_545
O53 P2 1.520177 1_545
O54 P6 1.553506 1_545
O54 V3 1.998815 1_555
O55 P4 1.547015 1_445
O55 V3 1.940910 1_555
