# generated using pymatgen
data_LiFe(PO3)4
_symmetry_space_group_name_H-M   'P 1'
_cell_length_a   9.59254100
_cell_length_b   10.22211500
_cell_length_c   11.40254628
_cell_angle_alpha   57.26514085
_cell_angle_beta   90.00000000
_cell_angle_gamma   90.00000000
_symmetry_Int_Tables_number   1
_chemical_formula_structural   LiFe(PO3)4
_chemical_formula_sum   'Li4 Fe4 P16 O48'
_cell_volume   940.51604756
_cell_formula_units_Z   4
loop_
 _symmetry_equiv_pos_site_id
 _symmetry_equiv_pos_as_xyz
  1  'x, y, z'
loop_
 _atom_site_type_symbol
 _atom_site_label
 _atom_site_symmetry_multiplicity
 _atom_site_fract_x
 _atom_site_fract_y
 _atom_site_fract_z
 _atom_site_occupancy
  Li  Li0  1  0.45532100  0.14186000  0.97385400  1
  Li  Li1  1  0.04467900  0.14186000  0.47385400  1
  Li  Li2  1  0.95532100  0.85814000  0.52614600  1
  Li  Li3  1  0.54467900  0.85814000  0.02614600  1
  Fe  Fe0  1  0.16476700  0.80058900  0.21019600  1
  Fe  Fe1  1  0.66476700  0.19941100  0.28980400  1
  Fe  Fe2  1  0.33523300  0.80058900  0.71019600  1
  Fe  Fe3  1  0.83523300  0.19941100  0.78980400  1
  P  P0  1  0.82826500  0.80029300  0.15719200  1
  P  P1  1  0.88466900  0.28374600  0.02528300  1
  P  P2  1  0.99665400  0.51804100  0.24962700  1
  P  P3  1  0.49665400  0.48195900  0.25037300  1
  P  P4  1  0.10764700  0.09871000  0.23948600  1
  P  P5  1  0.60764700  0.90129000  0.26051400  1
  P  P6  1  0.32826500  0.19970700  0.34280800  1
  P  P7  1  0.61533100  0.28374600  0.52528300  1
  P  P8  1  0.38466900  0.71625400  0.47471700  1
  P  P9  1  0.67173500  0.80029300  0.65719200  1
  P  P10  1  0.39235300  0.09871000  0.73948600  1
  P  P11  1  0.89235300  0.90129000  0.76051400  1
  P  P12  1  0.50334600  0.51804100  0.74962700  1
  P  P13  1  0.00334600  0.48195900  0.75037300  1
  P  P14  1  0.11533100  0.71625400  0.97471700  1
  P  P15  1  0.17173500  0.19970700  0.84280800  1
  O  O0  1  0.74942300  0.88666600  0.02385400  1
  O  O1  1  0.18513100  0.80043800  0.03568000  1
  O  O2  1  0.05811100  0.55101000  0.10200300  1
  O  O3  1  0.85465200  0.62147800  0.20355500  1
  O  O4  1  0.46492900  0.64989400  0.15725700  1
  O  O5  1  0.80399500  0.30916200  0.12381200  1
  O  O6  1  0.03091100  0.20024600  0.09238300  1
  O  O7  1  0.59810400  0.41293900  0.19581600  1
  O  O8  1  0.09810400  0.58706100  0.30418400  1
  O  O9  1  0.22500000  0.22388000  0.21922500  1
  O  O10  1  0.96492900  0.35010600  0.34274300  1
  O  O11  1  0.50953800  0.94492400  0.14301200  1
  O  O12  1  0.35465200  0.37852200  0.29644500  1
  O  O13  1  0.96507200  0.86698000  0.16936400  1
  O  O14  1  0.55811100  0.44899000  0.39799700  1
  O  O15  1  0.68468500  0.03394500  0.25414800  1
  O  O16  1  0.18468500  0.96605500  0.24585200  1
  O  O17  1  0.46507200  0.13302000  0.33063600  1
  O  O18  1  0.00953800  0.05507600  0.35698800  1
  O  O19  1  0.72500000  0.77612000  0.28077500  1
  O  O20  1  0.68513100  0.19956200  0.46432000  1
  O  O21  1  0.24942300  0.11333400  0.47614600  1
  O  O22  1  0.69600500  0.30916200  0.62381200  1
  O  O23  1  0.53091100  0.79975400  0.40761700  1
  O  O24  1  0.46908900  0.20024600  0.59238300  1
  O  O25  1  0.30399500  0.69083800  0.37618800  1
  O  O26  1  0.75057700  0.88666600  0.52385400  1
  O  O27  1  0.31486900  0.80043800  0.53568000  1
  O  O28  1  0.27500000  0.22388000  0.71922500  1
  O  O29  1  0.99046200  0.94492400  0.64301200  1
  O  O30  1  0.53492800  0.86698000  0.66936400  1
  O  O31  1  0.81531500  0.03394500  0.75414800  1
  O  O32  1  0.31531500  0.96605500  0.74585200  1
  O  O33  1  0.44188900  0.55101000  0.60200300  1
  O  O34  1  0.03492800  0.13302000  0.83063600  1
  O  O35  1  0.64534800  0.62147800  0.70355500  1
  O  O36  1  0.49046200  0.05507600  0.85698800  1
  O  O37  1  0.03507100  0.64989400  0.65725700  1
  O  O38  1  0.77500000  0.77612000  0.78077500  1
  O  O39  1  0.90189600  0.41293900  0.69581600  1
  O  O40  1  0.40189600  0.58706100  0.80418400  1
  O  O41  1  0.96908900  0.79975400  0.90761700  1
  O  O42  1  0.19600500  0.69083800  0.87618800  1
  O  O43  1  0.53507100  0.35010600  0.84274300  1
  O  O44  1  0.14534800  0.37852200  0.79644500  1
  O  O45  1  0.94188900  0.44899000  0.89799700  1
  O  O46  1  0.81486900  0.19956200  0.96432000  1
  O  O47  1  0.25057700  0.11333400  0.97614600  1
loop_
_geom_bond_atom_site_label_1
_geom_bond_atom_site_label_2
_geom_bond_distance
_geom_bond_site_symmetry_2
Li0 O11 1.960623 1_546
Li0 O43 1.977340 1_555
Li0 O47 1.983639 1_555
Li0 O36 1.988679 1_555
Li1 O29 1.960623 1_445
Li1 O10 1.977340 1_455
Li1 O21 1.983639 1_555
Li1 O18 1.988679 1_555
Li2 O18 1.960623 1_665
Li2 O37 1.977340 1_655
Li2 O26 1.983639 1_555
Li2 O29 1.988679 1_555
Li3 O36 1.960623 1_564
Li3 O4 1.977340 1_555
Li3 O0 1.983639 1_555
Li3 O11 1.988679 1_555
Fe0 O8 1.947257 1_555
Fe0 O16 1.951001 1_555
Fe0 O1 2.000323 1_555
Fe0 O13 2.001268 1_455
Fe0 O25 2.080447 1_555
Fe1 O7 1.947257 1_555
Fe1 O15 1.951001 1_555
Fe1 O20 2.000323 1_555
Fe1 O17 2.001268 1_555
Fe1 O5 2.080447 1_555
Fe2 O40 1.947257 1_555
Fe2 O32 1.951001 1_555
Fe2 O27 2.000323 1_555
Fe2 O30 2.001268 1_555
Fe2 O42 2.080447 1_555
Fe3 O39 1.947257 1_555
Fe3 O31 1.951001 1_555
Fe3 O46 2.000323 1_555
Fe3 O34 2.001268 1_655
Fe3 O22 2.080447 1_555
O0 P0 1.487053 1_555
O1 P14 1.522823 1_554
O2 P14 1.615421 1_554
O2 P2 1.637394 1_455
O3 P0 1.624676 1_555
O3 P2 1.627483 1_555
O4 P3 1.481759 1_555
O5 P1 1.498085 1_555
O6 P4 1.596796 1_555
O6 P1 1.604865 1_455
O7 P3 1.518713 1_555
O8 P2 1.518713 1_455
O9 P4 1.624204 1_555
O9 P6 1.628326 1_555
O10 P2 1.481759 1_555
O11 P5 1.494474 1_555
O12 P6 1.624676 1_555
O12 P3 1.627483 1_555
O13 P0 1.519368 1_555
O14 P7 1.615421 1_555
O14 P3 1.637394 1_555
O15 P5 1.511191 1_545
O16 P4 1.511191 1_565
O17 P6 1.519368 1_555
O18 P4 1.494474 1_555
O19 P5 1.624204 1_555
O19 P0 1.628326 1_555
O20 P7 1.522823 1_555
O21 P6 1.487053 1_555
O22 P7 1.498085 1_555
O23 P5 1.596796 1_555
O23 P8 1.604865 1_555
O24 P10 1.596796 1_555
O24 P7 1.604865 1_555
O25 P8 1.498085 1_555
O26 P9 1.487053 1_555
O27 P8 1.522823 1_555
O28 P10 1.624204 1_555
O28 P15 1.628326 1_555
O29 P11 1.494474 1_555
O30 P9 1.519368 1_555
O31 P11 1.511191 1_545
O32 P10 1.511191 1_565
O33 P8 1.615421 1_555
O33 P12 1.637394 1_555
O34 P15 1.519368 1_555
O35 P9 1.624676 1_555
O35 P12 1.627483 1_555
O36 P10 1.494474 1_555
O37 P13 1.481759 1_555
O38 P11 1.624204 1_555
O38 P9 1.628326 1_555
O39 P13 1.518713 1_655
O40 P12 1.518713 1_555
O41 P11 1.596796 1_555
O41 P14 1.604865 1_655
O42 P14 1.498085 1_555
O43 P12 1.481759 1_555
O44 P15 1.624676 1_555
O44 P13 1.627483 1_555
O45 P1 1.615421 1_556
O45 P13 1.637394 1_655
O46 P1 1.522823 1_556
O47 P15 1.487053 1_555
