# generated using pymatgen
data_K2SnOF6
_symmetry_space_group_name_H-M   'P 1'
_cell_length_a   11.25972040
_cell_length_b   10.78638592
_cell_length_c   9.18243904
_cell_angle_alpha   68.10105760
_cell_angle_beta   62.72766723
_cell_angle_gamma   49.17127517
_symmetry_Int_Tables_number   1
_chemical_formula_structural   K2SnOF6
_chemical_formula_sum   'K8 Sn4 O4 F24'
_cell_volume   745.57034134
_cell_formula_units_Z   4
loop_
 _symmetry_equiv_pos_site_id
 _symmetry_equiv_pos_as_xyz
  1  'x, y, z'
loop_
 _atom_site_type_symbol
 _atom_site_label
 _atom_site_symmetry_multiplicity
 _atom_site_fract_x
 _atom_site_fract_y
 _atom_site_fract_z
 _atom_site_occupancy
  K  K0  1  0.12122800  0.12122800  0.87877200  1
  K  K1  1  0.87877200  0.87877200  0.12122800  1
  K  K2  1  0.12877200  0.12877200  0.37122800  1
  K  K3  1  0.37122800  0.37122800  0.12877200  1
  K  K4  1  0.29691500  0.70308500  0.70308500  1
  K  K5  1  0.70308500  0.29691500  0.29691500  1
  K  K6  1  0.95308500  0.54691500  0.54691500  1
  K  K7  1  0.54691500  0.95308500  0.95308500  1
  Sn  Sn0  1  0.78303000  0.21697000  0.78303000  1
  Sn  Sn1  1  0.21697000  0.78303000  0.21697000  1
  Sn  Sn2  1  0.46697000  0.03303000  0.46697000  1
  Sn  Sn3  1  0.03303000  0.46697000  0.03303000  1
  O  O0  1  0.39851200  0.39851200  0.60148800  1
  O  O1  1  0.60148800  0.60148800  0.39851200  1
  O  O2  1  0.85148800  0.85148800  0.64851200  1
  O  O3  1  0.64851200  0.64851200  0.85148800  1
  F  F0  1  0.92431200  0.29819400  0.65343000  1
  F  F1  1  0.12406300  0.65343000  0.29819400  1
  F  F2  1  0.65343000  0.12406300  0.92431200  1
  F  F3  1  0.29819400  0.92431200  0.12406300  1
  F  F4  1  0.32568800  0.95180600  0.59657000  1
  F  F5  1  0.12593700  0.59657000  0.95180600  1
  F  F6  1  0.59657000  0.12593700  0.32568800  1
  F  F7  1  0.95180600  0.32568800  0.12593700  1
  F  F8  1  0.99072600  0.98845300  0.78852100  1
  F  F9  1  0.23230100  0.78852100  0.98845300  1
  F  F10  1  0.78852100  0.23230100  0.99072600  1
  F  F11  1  0.98845300  0.99072600  0.23230100  1
  F  F12  1  0.25927400  0.26154700  0.46147900  1
  F  F13  1  0.01769900  0.46147900  0.26154700  1
  F  F14  1  0.46147900  0.01769900  0.25927400  1
  F  F15  1  0.26154700  0.25927400  0.01769900  1
  F  F16  1  0.57104200  0.44204100  0.79455100  1
  F  F17  1  0.19236500  0.79455100  0.44204100  1
  F  F18  1  0.79455100  0.19236500  0.57104200  1
  F  F19  1  0.44204100  0.57104200  0.19236500  1
  F  F20  1  0.67895800  0.80795900  0.45544900  1
  F  F21  1  0.05763500  0.45544900  0.80795900  1
  F  F22  1  0.45544900  0.05763500  0.67895800  1
  F  F23  1  0.80795900  0.67895800  0.05763500  1
loop_
_geom_bond_atom_site_label_1
_geom_bond_atom_site_label_2
_geom_bond_distance
_geom_bond_site_symmetry_2
K4 O0 3.060350 1_555
K4 O1 3.060350 1_555
K5 O0 3.060350 1_555
K5 O1 3.060350 1_555
K6 O3 3.060350 1_555
K6 O2 3.060350 1_555
K7 O3 3.060350 1_555
K7 O2 3.060350 1_555
F0 Sn0 2.006035 1_555
F0 K6 2.673537 1_555
F0 K2 2.813976 1_655
F0 K0 2.926656 1_655
F1 Sn1 2.006044 1_555
F1 K6 2.673530 1_455
F1 K3 2.813976 1_555
F1 K1 2.926648 1_455
F2 Sn0 2.006043 1_555
F2 K7 2.673527 1_545
F2 K3 2.813981 1_556
F2 K1 2.926655 1_546
F3 Sn1 2.006035 1_555
F3 K7 2.673536 1_554
F3 K2 2.813983 1_565
F3 K0 2.926648 1_564
F4 Sn2 2.006035 1_565
F4 K4 2.673537 1_555
F4 K0 2.813976 1_565
F4 K2 2.926656 1_565
F5 Sn3 2.006044 1_556
F5 K4 2.673530 1_555
F5 K1 2.813976 1_456
F5 K3 2.926648 1_556
F6 Sn2 2.006043 1_555
F6 K5 2.673527 1_555
F6 K1 2.813981 1_545
F6 K3 2.926655 1_555
F7 Sn3 2.006035 1_655
F7 K5 2.673536 1_555
F7 K0 2.813983 1_654
F7 K2 2.926648 1_655
F8 Sn0 2.006259 1_565
F8 K4 2.724404 1_655
F8 K1 2.836678 1_556
F8 K0 3.106469 1_665
F9 Sn1 2.006255 1_556
F9 K4 2.724409 1_555
F9 K0 2.836676 1_565
F9 K1 3.106479 1_456
F10 Sn0 2.006264 1_555
F10 K5 2.724400 1_556
F10 K0 2.836675 1_655
F10 K1 3.106478 1_546
F11 Sn1 2.006258 1_655
F11 K5 2.724403 1_565
F11 K1 2.836685 1_555
F11 K0 3.106475 1_664
F12 Sn2 2.006259 1_555
F12 K6 2.724404 1_455
F12 K3 2.836678 1_555
F12 K2 3.106469 1_555
F13 Sn3 2.006255 1_555
F13 K6 2.724409 1_455
F13 K2 2.836676 1_555
F13 K3 3.106479 1_555
F14 Sn2 2.006264 1_555
F14 K7 2.724400 1_544
F14 K2 2.836675 1_555
F14 K3 3.106478 1_555
F15 Sn3 2.006258 1_555
F15 K7 2.724403 1_544
F15 K3 2.836685 1_555
F15 K2 3.106475 1_555
F16 Sn0 1.996322 1_555
F16 K4 2.721784 1_555
F16 K3 3.038835 1_556
F17 Sn1 1.996317 1_555
F17 K4 2.721791 1_555
F17 K2 3.038840 1_565
F18 Sn0 1.996327 1_555
F18 K5 2.721782 1_555
F18 K2 3.038839 1_655
F19 Sn1 1.996321 1_555
F19 K5 2.721788 1_555
F19 K3 3.038830 1_555
F20 Sn2 1.996322 1_565
F20 K6 2.721784 1_555
F20 K1 3.038835 1_555
F21 Sn3 1.996317 1_556
F21 K6 2.721791 1_455
F21 K0 3.038840 1_555
F22 Sn2 1.996327 1_555
F22 K7 2.721782 1_545
F22 K0 3.038839 1_555
F23 Sn3 1.996321 1_655
F23 K7 2.721788 1_554
F23 K1 3.038830 1_555
