# generated using pymatgen
data_Li2MnVP2(O4F)2
_symmetry_space_group_name_H-M   'P 1'
_cell_length_a   5.23843900
_cell_length_b   10.35259941
_cell_length_c   10.52536649
_cell_angle_alpha   78.74842758
_cell_angle_beta   83.84584426
_cell_angle_gamma   80.28991612
_symmetry_Int_Tables_number   1
_chemical_formula_structural   Li2MnVP2(O4F)2
_chemical_formula_sum   'Li6 Mn3 V3 P6 O24 F6'
_cell_volume   550.18277872
_cell_formula_units_Z   3
loop_
 _symmetry_equiv_pos_site_id
 _symmetry_equiv_pos_as_xyz
  1  'x, y, z'
loop_
 _atom_site_type_symbol
 _atom_site_label
 _atom_site_symmetry_multiplicity
 _atom_site_fract_x
 _atom_site_fract_y
 _atom_site_fract_z
 _atom_site_occupancy
  Li  Li0  1  0.66143500  0.74940700  0.56531500  1
  Li  Li1  1  0.33856500  0.25059300  0.43468500  1
  Li  Li2  1  0.99799500  0.57823600  0.76581900  1
  Li  Li3  1  0.33190000  0.08592800  0.89806200  1
  Li  Li4  1  0.00200500  0.42176400  0.23418100  1
  Li  Li5  1  0.66810000  0.91407200  0.10193800  1
  Mn  Mn0  1  0.16501200  0.83300100  0.33475800  1
  Mn  Mn1  1  0.00000000  0.50000000  0.50000000  1
  Mn  Mn2  1  0.83498800  0.16699900  0.66524200  1
  V  V0  1  0.66261300  0.83205700  0.83457700  1
  V  V1  1  0.50000000  0.50000000  0.00000000  1
  V  V2  1  0.33738700  0.16794300  0.16542300  1
  P  P0  1  0.47930800  0.46016600  0.69744100  1
  P  P1  1  0.52069200  0.53983400  0.30255900  1
  P  P2  1  0.14877400  0.79548600  0.03471300  1
  P  P3  1  0.17773600  0.87094000  0.63433300  1
  P  P4  1  0.82226400  0.12906000  0.36566700  1
  P  P5  1  0.85122600  0.20451400  0.96528700  1
  O  O0  1  0.40335300  0.80668200  0.72161900  1
  O  O1  1  0.64346200  0.51031000  0.16809700  1
  O  O2  1  0.54779700  0.30989000  0.69791100  1
  O  O3  1  0.45220300  0.69011000  0.30208900  1
  O  O4  1  0.59664700  0.19331800  0.27838100  1
  O  O5  1  0.61108400  0.13143900  0.01295800  1
  O  O6  1  0.25528100  0.52707700  0.60759000  1
  O  O7  1  0.28342900  0.46450800  0.34607000  1
  O  O8  1  0.35653800  0.48969000  0.83190300  1
  O  O9  1  0.21579100  0.64501900  0.03623400  1
  O  O10  1  0.30246500  0.83998400  0.49960700  1
  O  O11  1  0.93826900  0.79703000  0.68147200  1
  O  O12  1  0.38891600  0.86856100  0.98704200  1
  O  O13  1  0.02727200  0.82713800  0.16939800  1
  O  O14  1  0.11205500  0.02146200  0.63345600  1
  O  O15  1  0.97272800  0.17286200  0.83060200  1
  O  O16  1  0.06173100  0.20297000  0.31852800  1
  O  O17  1  0.07713200  0.14219400  0.05257500  1
  O  O18  1  0.71657100  0.53549200  0.65393000  1
  O  O19  1  0.74471900  0.47292300  0.39241000  1
  O  O20  1  0.88794500  0.97853800  0.36654400  1
  O  O21  1  0.78420900  0.35498100  0.96376600  1
  O  O22  1  0.69753500  0.16001600  0.50039300  1
  O  O23  1  0.92286800  0.85780600  0.94742500  1
  F  F0  1  0.59176300  0.02639700  0.77257600  1
  F  F1  1  0.40823700  0.97360300  0.22742400  1
  F  F2  1  0.26764400  0.36593200  0.10376200  1
  F  F3  1  0.07723000  0.30266600  0.56180100  1
  F  F4  1  0.92277000  0.69733400  0.43819900  1
  F  F5  1  0.73235600  0.63406800  0.89623800  1
loop_
_geom_bond_atom_site_label_1
_geom_bond_atom_site_label_2
_geom_bond_distance
_geom_bond_site_symmetry_2
Li0 O10 2.079574 1_555
Li0 O0 2.125856 1_555
Li0 O11 2.167340 1_555
Li0 O18 2.212161 1_555
Li1 O22 2.079574 1_555
Li1 O4 2.125856 1_555
Li1 O16 2.167340 1_555
Li1 O7 2.212161 1_555
Li2 O8 2.074191 1_655
Li2 O6 2.119618 1_655
Li2 O18 2.133478 1_555
Li2 O11 2.247763 1_555
Li3 O15 2.078473 1_455
Li3 O17 2.099376 1_556
Li3 O5 2.158081 1_556
Li3 O12 2.245231 1_545
Li4 O1 2.074191 1_455
Li4 O19 2.119618 1_455
Li4 O7 2.133478 1_555
Li4 O16 2.247763 1_555
Li5 O13 2.078473 1_655
Li5 O23 2.099376 1_554
Li5 O12 2.158081 1_554
Li5 O5 2.245231 1_565
Mn0 O20 1.960490 1_455
Mn0 O10 1.966880 1_555
Mn0 O13 1.969471 1_555
Mn0 O3 1.976544 1_555
Mn1 O19 1.929839 1_455
Mn1 O6 1.929839 1_555
Mn1 O7 2.120588 1_555
Mn1 O18 2.120588 1_455
Mn2 O14 1.960490 1_655
Mn2 O22 1.966880 1_555
Mn2 O15 1.969471 1_555
Mn2 O2 1.976544 1_555
O0 P3 1.553228 1_555
O0 V0 1.978754 1_555
O1 P1 1.554780 1_555
O1 V1 2.022960 1_555
O2 P0 1.535639 1_555
O3 P1 1.535639 1_555
O4 P4 1.553228 1_555
O4 V2 1.978754 1_555
O5 P5 1.563370 1_554
O5 V2 2.081884 1_555
O6 P0 1.568290 1_555
O7 P1 1.558256 1_555
O8 P0 1.554780 1_555
O8 V1 2.022960 1_556
O9 P2 1.535256 1_555
O9 V1 1.990902 1_555
O10 P3 1.564771 1_555
O11 P3 1.564426 1_655
O11 V0 2.089501 1_555
O12 P2 1.563370 1_556
O12 V0 2.081884 1_555
O13 P2 1.561909 1_555
O14 P3 1.536540 1_545
O15 P5 1.561909 1_555
O16 P4 1.564426 1_455
O16 V2 2.089501 1_555
O17 P5 1.550808 1_454
O17 V2 1.983396 1_555
O18 P0 1.558256 1_555
O19 P1 1.568290 1_555
O20 P4 1.536540 1_565
O21 P5 1.535256 1_555
O21 V1 1.990902 1_556
O22 P4 1.564771 1_555
O23 P2 1.550808 1_656
O23 V0 1.983396 1_555
F0 Li3 1.904345 1_555
F0 V0 1.974624 1_545
F0 Mn2 2.166495 1_555
F1 Li5 1.904345 1_555
F1 V2 1.974624 1_565
F1 Mn0 2.166495 1_555
F2 Li4 1.945132 1_555
F2 V2 2.008750 1_555
F2 V1 2.072204 1_555
F3 Li1 1.895953 1_555
F3 Mn1 2.004837 1_555
F3 Mn2 2.115788 1_455
F4 Li0 1.895953 1_555
F4 Mn1 2.004837 1_655
F4 Mn0 2.115788 1_655
F5 Li2 1.945132 1_555
F5 V0 2.008750 1_555
F5 V1 2.072204 1_556
