# generated using pymatgen
data_Li3Sb(PO4)2
_symmetry_space_group_name_H-M   'P 1'
_cell_length_a   6.46814200
_cell_length_b   4.76801800
_cell_length_c   10.59232513
_cell_angle_alpha   88.53779437
_cell_angle_beta   90.00000000
_cell_angle_gamma   90.00000000
_symmetry_Int_Tables_number   1
_chemical_formula_structural   Li3Sb(PO4)2
_chemical_formula_sum   'Li6 Sb2 P4 O16'
_cell_volume   326.56323874
_cell_formula_units_Z   2
loop_
 _symmetry_equiv_pos_site_id
 _symmetry_equiv_pos_as_xyz
  1  'x, y, z'
loop_
 _atom_site_type_symbol
 _atom_site_label
 _atom_site_symmetry_multiplicity
 _atom_site_fract_x
 _atom_site_fract_y
 _atom_site_fract_z
 _atom_site_occupancy
  Li  Li0  1  0.00000000  0.00000000  0.00000000  1
  Li  Li1  1  0.50000000  0.00000000  0.00000000  1
  Li  Li2  1  0.25000000  0.50847800  0.78572700  1
  Li  Li3  1  0.00000000  0.50000000  0.50000000  1
  Li  Li4  1  0.50000000  0.50000000  0.50000000  1
  Li  Li5  1  0.75000000  0.49152200  0.21427300  1
  Sb  Sb0  1  0.75000000  0.01415900  0.71825800  1
  Sb  Sb1  1  0.25000000  0.98584100  0.28174200  1
  P  P0  1  0.75000000  0.58618000  0.91714000  1
  P  P1  1  0.25000000  0.09690700  0.59030500  1
  P  P2  1  0.75000000  0.90309300  0.40969500  1
  P  P3  1  0.25000000  0.41382000  0.08286000  1
  O  O0  1  0.25000000  0.28388200  0.95149100  1
  O  O1  1  0.75000000  0.26371000  0.92110300  1
  O  O2  1  0.94052600  0.71251300  0.83863400  1
  O  O3  1  0.55947400  0.71251300  0.83863400  1
  O  O4  1  0.44223000  0.22725200  0.65502200  1
  O  O5  1  0.05777000  0.22725200  0.65502200  1
  O  O6  1  0.25000000  0.77796400  0.58727200  1
  O  O7  1  0.75000000  0.75844800  0.54855200  1
  O  O8  1  0.25000000  0.24155200  0.45144800  1
  O  O9  1  0.75000000  0.22203600  0.41272800  1
  O  O10  1  0.94223000  0.77274800  0.34497800  1
  O  O11  1  0.55777000  0.77274800  0.34497800  1
  O  O12  1  0.44052600  0.28748700  0.16136600  1
  O  O13  1  0.05947400  0.28748700  0.16136600  1
  O  O14  1  0.25000000  0.73629000  0.07889700  1
  O  O15  1  0.75000000  0.71611800  0.04850900  1
loop_
_geom_bond_atom_site_label_1
_geom_bond_atom_site_label_2
_geom_bond_distance
_geom_bond_site_symmetry_2
Li0 O15 2.162275 1_445
Li0 O0 2.162275 1_554
Li0 O14 2.200128 1_545
Li0 O1 2.200128 1_454
Li0 O2 2.251221 1_444
Li0 O13 2.251221 1_555
Li1 O15 2.162275 1_545
Li1 O0 2.162275 1_554
Li1 O14 2.200128 1_545
Li1 O1 2.200128 1_554
Li1 O12 2.251221 1_555
Li1 O3 2.251221 1_544
Li2 O0 2.033161 1_555
Li2 O3 2.301129 1_555
Li2 O2 2.301129 1_455
Li2 O5 2.314186 1_555
Li2 O4 2.314186 1_555
Li2 O6 2.435566 1_555
Li3 O5 2.101943 1_555
Li3 O10 2.101943 1_455
Li3 O8 2.104793 1_555
Li3 O7 2.104793 1_455
Li3 O9 2.299650 1_455
Li3 O6 2.299650 1_555
Li4 O11 2.101943 1_555
Li4 O4 2.101943 1_555
Li4 O8 2.104793 1_555
Li4 O7 2.104793 1_555
Li4 O9 2.299650 1_555
Li4 O6 2.299650 1_555
Li5 O15 2.033161 1_555
Li5 O12 2.301129 1_555
Li5 O13 2.301129 1_655
Li5 O10 2.314186 1_555
Li5 O11 2.314186 1_555
Li5 O9 2.435566 1_555
O0 P3 1.537568 1_556
O1 P0 1.537045 1_555
O1 Sb0 2.482485 1_555
O2 P0 1.596073 1_555
O2 Sb0 2.262620 1_565
O3 P0 1.596073 1_555
O3 Sb0 2.262620 1_565
O4 P1 1.556880 1_555
O4 Sb0 2.325753 1_555
O5 P1 1.556880 1_555
O5 Sb0 2.325753 1_455
O6 P1 1.521885 1_565
O7 P2 1.608472 1_555
O7 Sb0 2.197654 1_565
O8 P1 1.608472 1_555
O8 Sb1 2.197654 1_545
O9 P2 1.521885 1_545
O10 P2 1.556880 1_555
O10 Sb1 2.325753 1_655
O11 P2 1.556880 1_555
O11 Sb1 2.325753 1_555
O12 P3 1.596073 1_555
O12 Sb1 2.262620 1_545
O13 P3 1.596073 1_555
O13 Sb1 2.262620 1_545
O14 P3 1.537045 1_555
O14 Sb1 2.482485 1_555
O15 P0 1.537568 1_554
