# generated using pymatgen
data_NaMnBO3
_symmetry_space_group_name_H-M   'P 1'
_cell_length_a   5.22003033
_cell_length_b   8.98819821
_cell_length_c   5.87751163
_cell_angle_alpha   82.07739822
_cell_angle_beta   94.79046904
_cell_angle_gamma   89.36610600
_symmetry_Int_Tables_number   1
_chemical_formula_structural   NaMnBO3
_chemical_formula_sum   'Na4 Mn4 B4 O12'
_cell_volume   272.10756491
_cell_formula_units_Z   4
loop_
 _symmetry_equiv_pos_site_id
 _symmetry_equiv_pos_as_xyz
  1  'x, y, z'
loop_
 _atom_site_type_symbol
 _atom_site_label
 _atom_site_symmetry_multiplicity
 _atom_site_fract_x
 _atom_site_fract_y
 _atom_site_fract_z
 _atom_site_occupancy
  Na  Na0  1  0.49893300  0.83553800  0.74902900  1
  Na  Na1  1  0.99893900  0.33553300  0.74903600  1
  Na  Na2  1  0.00602300  0.67038200  0.24970600  1
  Na  Na3  1  0.50602100  0.17038500  0.24971100  1
  Mn  Mn0  1  0.50073300  0.50308900  0.49810100  1
  Mn  Mn1  1  0.99959400  0.00259100  0.99835400  1
  Mn  Mn2  1  0.00068800  0.00316700  0.49821400  1
  Mn  Mn3  1  0.49972100  0.50258700  0.99825800  1
  B  B0  1  0.99896000  0.66880400  0.74826900  1
  B  B1  1  0.49894300  0.16879800  0.74826400  1
  B  B2  1  0.50024900  0.83687400  0.24777800  1
  B  B3  1  0.00025600  0.33686900  0.24777300  1
  O  O0  1  0.77119900  0.59040900  0.75088700  1
  O  O1  1  0.27119000  0.09040800  0.75088800  1
  O  O2  1  0.72808700  0.91513500  0.24740800  1
  O  O3  1  0.22807500  0.41513800  0.24739300  1
  O  O4  1  0.22304800  0.59889700  0.70084000  1
  O  O5  1  0.72303300  0.09889600  0.70084100  1
  O  O6  1  0.00105800  0.81651500  0.79254000  1
  O  O7  1  0.50106200  0.31650900  0.79254100  1
  O  O8  1  0.49819800  0.68950400  0.20175400  1
  O  O9  1  0.99820300  0.18949900  0.20177000  1
  O  O10  1  0.27534000  0.90634100  0.29424700  1
  O  O11  1  0.77534700  0.40634100  0.29423700  1
loop_
_geom_bond_atom_site_label_1
_geom_bond_atom_site_label_2
_geom_bond_distance
_geom_bond_site_symmetry_2
Na0 O1 2.571012 1_565
Na0 O0 2.606897 1_555
Na0 O6 2.613602 1_655
Na0 O4 2.616092 1_555
Na0 O6 2.637769 1_555
Na0 O5 2.642667 1_565
Na0 O8 2.800403 1_556
Na0 O10 2.811702 1_555
Na1 O0 2.571045 1_555
Na1 O1 2.606830 1_655
Na1 O7 2.613591 1_655
Na1 O5 2.616128 1_555
Na1 O7 2.637774 1_555
Na1 O4 2.642737 1_655
Na1 O9 2.800450 1_556
Na1 O11 2.811792 1_555
Na2 O3 2.561134 1_555
Na2 O10 2.588528 1_555
Na2 O8 2.612845 1_555
Na2 O2 2.619643 1_455
Na2 O8 2.643449 1_455
Na2 O11 2.663721 1_455
Na2 O4 2.781988 1_555
Na2 O6 2.821442 1_554
Na3 O2 2.561205 1_545
Na3 O11 2.588516 1_555
Na3 O9 2.612865 1_555
Na3 O3 2.619653 1_555
Na3 O9 2.643409 1_455
Na3 O10 2.663758 1_545
Na3 O5 2.781949 1_555
Na3 O7 2.821438 1_554
Mn0 O11 2.189371 1_555
Mn0 O4 2.192338 1_555
Mn0 O0 2.193710 1_555
Mn0 O3 2.194925 1_555
Mn0 O7 2.237559 1_555
Mn0 O8 2.243332 1_555
Mn1 O1 2.191170 1_655
Mn1 O9 2.192401 1_556
Mn1 O6 2.195353 1_645
Mn1 O2 2.196201 1_546
Mn1 O10 2.232578 1_646
Mn1 O5 2.241561 1_555
Mn2 O10 2.190233 1_545
Mn2 O5 2.191472 1_455
Mn2 O1 2.193052 1_555
Mn2 O2 2.195467 1_445
Mn2 O6 2.237510 1_545
Mn2 O9 2.243256 1_455
Mn3 O0 2.190374 1_555
Mn3 O8 2.192804 1_556
Mn3 O7 2.194968 1_555
Mn3 O3 2.197015 1_556
Mn3 O11 2.232547 1_556
Mn3 O4 2.241533 1_555
B0 O6 1.387651 1_655
B0 O4 1.388276 1_655
B0 O0 1.388838 1_555
B1 O7 1.387662 1_555
B1 O5 1.388252 1_555
B1 O1 1.388780 1_555
B2 O8 1.387961 1_555
B2 O10 1.388218 1_555
B2 O2 1.388459 1_555
B3 O9 1.387921 1_455
B3 O11 1.388229 1_455
B3 O3 1.388411 1_555
