# generated using pymatgen
data_Li3Mg3Ti6O16
_symmetry_space_group_name_H-M   'P 1'
_cell_length_a   8.47632400
_cell_length_b   8.47363000
_cell_length_c   8.47438500
_cell_angle_alpha   89.99930361
_cell_angle_beta   90.00000000
_cell_angle_gamma   90.00000000
_symmetry_Int_Tables_number   1
_chemical_formula_structural   Li3Mg3Ti6O16
_chemical_formula_sum   'Li6 Mg6 Ti12 O32'
_cell_volume   608.67468001
_cell_formula_units_Z   2
loop_
 _symmetry_equiv_pos_site_id
 _symmetry_equiv_pos_as_xyz
  1  'x, y, z'
loop_
 _atom_site_type_symbol
 _atom_site_label
 _atom_site_symmetry_multiplicity
 _atom_site_fract_x
 _atom_site_fract_y
 _atom_site_fract_z
 _atom_site_occupancy
  Li  Li0  1  0.37518500  0.12541400  0.87578600  1
  Li  Li1  1  0.87518500  0.87458600  0.12421400  1
  Li  Li2  1  0.49799600  0.74806900  0.00180500  1
  Li  Li3  1  0.62472000  0.62514000  0.62530300  1
  Li  Li4  1  0.12472000  0.37486000  0.37469700  1
  Li  Li5  1  0.99799600  0.25193100  0.99819500  1
  Mg  Mg0  1  0.50167800  0.24809300  0.49816700  1
  Mg  Mg1  1  0.75249000  0.00155300  0.74989800  1
  Mg  Mg2  1  0.25249000  0.99844700  0.25010200  1
  Mg  Mg3  1  0.00167800  0.75190700  0.50183300  1
  Mg  Mg4  1  0.24858900  0.50246500  0.75399300  1
  Mg  Mg5  1  0.74858900  0.49753500  0.24600700  1
  Ti  Ti0  1  0.13032000  0.13154600  0.62953400  1
  Ti  Ti1  1  0.88213800  0.12739700  0.36386000  1
  Ti  Ti2  1  0.62594700  0.11675000  0.11619800  1
  Ti  Ti3  1  0.12594700  0.88325000  0.88380200  1
  Ti  Ti4  1  0.38213800  0.87260300  0.63614000  1
  Ti  Ti5  1  0.63032000  0.86845400  0.37046600  1
  Ti  Ti6  1  0.86634300  0.62824200  0.87803300  1
  Ti  Ti7  1  0.12262300  0.61993000  0.12866600  1
  Ti  Ti8  1  0.37474900  0.61947800  0.37629700  1
  Ti  Ti9  1  0.87474900  0.38052200  0.62370300  1
  Ti  Ti10  1  0.62262300  0.38007000  0.87133400  1
  Ti  Ti11  1  0.36634300  0.37175800  0.12196700  1
  O  O0  1  0.39043200  0.14261200  0.12843200  1
  O  O1  1  0.88744200  0.13704500  0.61258400  1
  O  O2  1  0.62685100  0.13836400  0.89257200  1
  O  O3  1  0.85800300  0.12630500  0.14434100  1
  O  O4  1  0.10723500  0.12116500  0.38934900  1
  O  O5  1  0.35756600  0.11068400  0.62180300  1
  O  O6  1  0.63762500  0.11316600  0.36355900  1
  O  O7  1  0.12319500  0.10587300  0.85758900  1
  O  O8  1  0.62319500  0.89412700  0.14241100  1
  O  O9  1  0.13762500  0.88683400  0.63644100  1
  O  O10  1  0.85756600  0.88931600  0.37819700  1
  O  O11  1  0.60723500  0.87883500  0.61065100  1
  O  O12  1  0.35800300  0.87369500  0.85565900  1
  O  O13  1  0.12685100  0.86163600  0.10742800  1
  O  O14  1  0.38744200  0.86295500  0.38741600  1
  O  O15  1  0.89043200  0.85738800  0.87156800  1
  O  O16  1  0.61236400  0.64154700  0.37343600  1
  O  O17  1  0.11277700  0.63838900  0.88761900  1
  O  O18  1  0.37191400  0.63991000  0.60786600  1
  O  O19  1  0.13807400  0.62768900  0.35830600  1
  O  O20  1  0.89172600  0.62394000  0.11104600  1
  O  O21  1  0.64294400  0.60947200  0.87608000  1
  O  O22  1  0.36180000  0.61098900  0.13942500  1
  O  O23  1  0.87727400  0.60803000  0.63805600  1
  O  O24  1  0.37727400  0.39197000  0.36194400  1
  O  O25  1  0.86180000  0.38901100  0.86057500  1
  O  O26  1  0.14294400  0.39052800  0.12392000  1
  O  O27  1  0.39172600  0.37606000  0.88895400  1
  O  O28  1  0.63807400  0.37231100  0.64169400  1
  O  O29  1  0.87191400  0.36009000  0.39213400  1
  O  O30  1  0.61277700  0.36161100  0.11238100  1
  O  O31  1  0.11236400  0.35845300  0.62656400  1
loop_
_geom_bond_atom_site_label_1
_geom_bond_atom_site_label_2
_geom_bond_distance
_geom_bond_site_symmetry_2
Li0 O27 2.131429 1_555
Li0 O2 2.140755 1_555
Li0 O12 2.144735 1_545
Li0 O7 2.147900 1_555
Li0 O0 2.149863 1_556
Li0 O5 2.161134 1_555
Li1 O20 2.131429 1_555
Li1 O13 2.140755 1_655
Li1 O3 2.144735 1_565
Li1 O8 2.147900 1_555
Li1 O15 2.149863 1_554
Li1 O10 2.161134 1_555
Li2 O21 2.005986 1_554
Li2 O22 2.010488 1_555
Li2 O12 2.018688 1_554
Li2 O8 2.019353 1_555
Li3 O21 2.134918 1_555
Li3 O16 2.141502 1_555
Li3 O23 2.148354 1_555
Li3 O28 2.149858 1_555
Li3 O18 2.151597 1_555
Li3 O11 2.158393 1_555
Li4 O26 2.134918 1_555
Li4 O31 2.141502 1_555
Li4 O24 2.148354 1_555
Li4 O19 2.149858 1_555
Li4 O29 2.151597 1_455
Li4 O4 2.158393 1_555
Li5 O26 2.005986 1_656
Li5 O25 2.010488 1_555
Li5 O3 2.018688 1_556
Li5 O7 2.019353 1_655
Mg0 O28 1.980908 1_555
Mg0 O24 1.982654 1_555
Mg0 O6 1.984017 1_555
Mg0 O5 1.986355 1_555
Mg1 O15 1.980537 1_545
Mg1 O2 1.984936 1_555
Mg1 O1 1.995171 1_555
Mg1 O11 1.997437 1_545
Mg2 O0 1.980537 1_565
Mg2 O13 1.984936 1_555
Mg2 O14 1.995171 1_555
Mg2 O4 1.997437 1_565
Mg3 O19 1.980908 1_555
Mg3 O23 1.982654 1_455
Mg3 O9 1.984017 1_555
Mg3 O10 1.986355 1_455
Mg4 O27 1.981756 1_555
Mg4 O17 1.983472 1_555
Mg4 O18 1.995648 1_555
Mg4 O31 1.997154 1_555
Mg5 O20 1.981756 1_555
Mg5 O30 1.983472 1_555
Mg5 O29 1.995648 1_555
Mg5 O16 1.997154 1_555
O0 Ti11 1.953173 1_555
O0 Ti2 2.010968 1_555
O1 Ti0 2.064244 1_655
O1 Ti9 2.068086 1_555
O1 Ti1 2.109848 1_555
O2 Ti2 1.903936 1_556
O2 Ti10 2.056330 1_555
O3 Ti1 1.871526 1_555
O3 Ti2 1.983041 1_555
O4 Ti1 1.920909 1_455
O4 Ti0 2.046696 1_555
O5 Ti0 1.935415 1_555
O5 Ti4 2.031768 1_545
O6 Ti5 2.075348 1_545
O6 Ti1 2.076078 1_555
O6 Ti2 2.098788 1_555
O7 Ti3 1.899600 1_545
O7 Ti0 1.945766 1_555
O8 Ti2 1.899600 1_565
O8 Ti5 1.945766 1_555
O9 Ti0 2.075348 1_565
O9 Ti4 2.076078 1_555
O9 Ti3 2.098788 1_555
O10 Ti5 1.935415 1_555
O10 Ti1 2.031768 1_565
O11 Ti4 1.920909 1_555
O11 Ti5 2.046696 1_555
O12 Ti4 1.871526 1_555
O12 Ti3 1.983041 1_555
O13 Ti3 1.903936 1_554
O13 Ti7 2.056330 1_555
O14 Ti5 2.064244 1_555
O14 Ti8 2.068086 1_555
O14 Ti4 2.109848 1_555
O15 Ti6 1.953173 1_555
O15 Ti3 2.010968 1_655
O16 Ti5 1.928904 1_555
O16 Ti8 2.022910 1_555
O17 Ti7 2.050402 1_556
O17 Ti3 2.078114 1_555
O17 Ti6 2.092201 1_455
O18 Ti8 1.970176 1_555
O18 Ti4 1.988152 1_555
O19 Ti7 1.951568 1_555
O19 Ti8 2.013122 1_555
O20 Ti7 1.963140 1_655
O20 Ti6 1.986663 1_554
O21 Ti6 1.900342 1_555
O21 Ti10 1.951899 1_555
O22 Ti8 2.011630 1_555
O22 Ti7 2.030805 1_555
O22 Ti11 2.032913 1_555
O23 Ti9 1.931772 1_555
O23 Ti6 2.042961 1_555
O24 Ti8 1.931772 1_555
O24 Ti11 2.042961 1_555
O25 Ti9 2.011630 1_555
O25 Ti10 2.030805 1_555
O25 Ti6 2.032913 1_555
O26 Ti11 1.900342 1_555
O26 Ti7 1.951899 1_555
O27 Ti10 1.963140 1_555
O27 Ti11 1.986663 1_556
O28 Ti10 1.951568 1_555
O28 Ti9 2.013122 1_555
O29 Ti9 1.970176 1_555
O29 Ti1 1.988152 1_555
O30 Ti10 2.050402 1_554
O30 Ti2 2.078114 1_555
O30 Ti11 2.092201 1_555
O31 Ti0 1.928904 1_555
O31 Ti9 2.022910 1_455
