# generated using pymatgen
data_Li2Mn3(Si3O8)2
_symmetry_space_group_name_H-M   'P 1'
_cell_length_a   7.07773900
_cell_length_b   9.86129188
_cell_length_c   10.35024911
_cell_angle_alpha   78.90422717
_cell_angle_beta   70.36376528
_cell_angle_gamma   81.63750067
_symmetry_Int_Tables_number   1
_chemical_formula_structural   Li2Mn3(Si3O8)2
_chemical_formula_sum   'Li4 Mn6 Si12 O32'
_cell_volume   665.11847514
_cell_formula_units_Z   2
loop_
 _symmetry_equiv_pos_site_id
 _symmetry_equiv_pos_as_xyz
  1  'x, y, z'
loop_
 _atom_site_type_symbol
 _atom_site_label
 _atom_site_symmetry_multiplicity
 _atom_site_fract_x
 _atom_site_fract_y
 _atom_site_fract_z
 _atom_site_occupancy
  Li  Li0  1  0.90762000  0.88546000  0.46745900  1
  Li  Li1  1  0.82998600  0.58416500  0.81882800  1
  Li  Li2  1  0.17001400  0.41583500  0.18117200  1
  Li  Li3  1  0.09238000  0.11454000  0.53254100  1
  Mn  Mn0  1  0.42168300  0.85938100  0.47279000  1
  Mn  Mn1  1  0.84421600  0.88356800  0.11511100  1
  Mn  Mn2  1  0.34901000  0.87486500  0.11132200  1
  Mn  Mn3  1  0.65099000  0.12513500  0.88867800  1
  Mn  Mn4  1  0.15578400  0.11643200  0.88488900  1
  Mn  Mn5  1  0.57831700  0.14061900  0.52721000  1
  Si  Si0  1  0.98790200  0.86377300  0.76372600  1
  Si  Si1  1  0.54866100  0.86612900  0.76777400  1
  Si  Si2  1  0.21768700  0.68079100  0.93777900  1
  Si  Si3  1  0.25706200  0.60655700  0.35587500  1
  Si  Si4  1  0.64942100  0.59484500  0.13514400  1
  Si  Si5  1  0.80595700  0.60314100  0.37454200  1
  Si  Si6  1  0.19404300  0.39685900  0.62545800  1
  Si  Si7  1  0.35057900  0.40515500  0.86485600  1
  Si  Si8  1  0.74293800  0.39344300  0.64412500  1
  Si  Si9  1  0.78231300  0.31920900  0.06222100  1
  Si  Si10  1  0.45133900  0.13387100  0.23222600  1
  Si  Si11  1  0.01209800  0.13622700  0.23627400  1
  O  O0  1  0.93956400  0.97958500  0.86795300  1
  O  O1  1  0.45106700  0.97856000  0.87519900  1
  O  O2  1  0.11958900  0.91623900  0.60546800  1
  O  O3  1  0.54889100  0.92724600  0.61159200  1
  O  O4  1  0.78341500  0.80695100  0.75558900  1
  O  O5  1  0.06989100  0.71337600  0.84040000  1
  O  O6  1  0.26345400  0.77030500  0.35572600  1
  O  O7  1  0.43861400  0.72187100  0.83289800  1
  O  O8  1  0.65006400  0.75715200  0.07478700  1
  O  O9  1  0.73649400  0.76681000  0.37632000  1
  O  O10  1  0.13647600  0.76116000  0.06981200  1
  O  O11  1  0.24598000  0.50902800  0.98467200  1
  O  O12  1  0.22151400  0.45160600  0.75728400  1
  O  O13  1  0.04828900  0.55984800  0.34821000  1
  O  O14  1  0.41654800  0.55425000  0.21266300  1
  O  O15  1  0.30782000  0.50251500  0.48610200  1
  O  O16  1  0.69218000  0.49748500  0.51389800  1
  O  O17  1  0.58345200  0.44575000  0.78733700  1
  O  O18  1  0.95171100  0.44015200  0.65179000  1
  O  O19  1  0.77848600  0.54839400  0.24271600  1
  O  O20  1  0.75402000  0.49097200  0.01532800  1
  O  O21  1  0.86352400  0.23884000  0.93018800  1
  O  O22  1  0.26350600  0.23319000  0.62368000  1
  O  O23  1  0.34993600  0.24284800  0.92521300  1
  O  O24  1  0.56138600  0.27812900  0.16710200  1
  O  O25  1  0.73654600  0.22969500  0.64427400  1
  O  O26  1  0.93010900  0.28662400  0.15960000  1
  O  O27  1  0.21658500  0.19304900  0.24441100  1
  O  O28  1  0.45110900  0.07275400  0.38840800  1
  O  O29  1  0.88041100  0.08376100  0.39453200  1
  O  O30  1  0.54893300  0.02144000  0.12480100  1
  O  O31  1  0.06043600  0.02041500  0.13204700  1
loop_
_geom_bond_atom_site_label_1
_geom_bond_atom_site_label_2
_geom_bond_distance
_geom_bond_site_symmetry_2
Li0 O29 1.962360 1_565
Li0 O9 2.308834 1_555
Li0 O2 2.474459 1_655
Li0 O3 2.495670 1_555
Li0 O6 2.585705 1_655
Li1 O20 1.989838 1_556
Li1 O4 2.178205 1_555
Li1 O18 2.310020 1_555
Li1 O5 2.355882 1_655
Li1 O17 2.502052 1_555
Li2 O11 1.989838 1_554
Li2 O27 2.178205 1_555
Li2 O13 2.310020 1_555
Li2 O26 2.355882 1_455
Li2 O14 2.502052 1_555
Li3 O2 1.962360 1_545
Li3 O22 2.308834 1_555
Li3 O29 2.474459 1_455
Li3 O28 2.495670 1_555
Li3 O25 2.585705 1_455
Mn0 O28 2.128714 1_565
Mn0 O3 2.176482 1_555
Mn0 O2 2.178553 1_555
Mn0 O9 2.249199 1_555
Mn0 O6 2.258677 1_555
Mn1 O8 2.168081 1_555
Mn1 O10 2.189862 1_655
Mn1 O31 2.250747 1_665
Mn1 O30 2.304669 1_565
Mn1 O0 2.447315 1_554
Mn1 O9 2.624528 1_555
Mn2 O10 2.194323 1_555
Mn2 O30 2.217236 1_565
Mn2 O8 2.222309 1_555
Mn2 O31 2.291087 1_565
Mn2 O1 2.367845 1_554
Mn2 O6 2.444809 1_555
Mn3 O21 2.194323 1_555
Mn3 O1 2.217236 1_545
Mn3 O23 2.222309 1_555
Mn3 O0 2.291087 1_545
Mn3 O30 2.367845 1_556
Mn3 O25 2.444809 1_555
Mn4 O23 2.168081 1_555
Mn4 O21 2.189862 1_455
Mn4 O0 2.250747 1_445
Mn4 O1 2.304669 1_545
Mn4 O31 2.447315 1_556
Mn4 O22 2.624528 1_555
Mn5 O3 2.128714 1_545
Mn5 O28 2.176482 1_555
Mn5 O29 2.178553 1_555
Mn5 O22 2.249199 1_555
Mn5 O25 2.258677 1_555
O0 Si0 1.642436 1_555
O1 Si1 1.636516 1_555
O2 Si0 1.614762 1_455
O3 Si1 1.612423 1_555
O4 Si1 1.650028 1_555
O4 Si0 1.658838 1_555
O5 Si2 1.643025 1_555
O5 Si0 1.665024 1_455
O6 Si3 1.621655 1_555
O7 Si2 1.631477 1_555
O7 Si1 1.638619 1_555
O8 Si4 1.602317 1_555
O9 Si5 1.619120 1_555
O10 Si2 1.607008 1_554
O11 Si7 1.669292 1_555
O11 Si2 1.671791 1_555
O12 Si7 1.627727 1_555
O12 Si6 1.638079 1_555
O13 Si3 1.640946 1_555
O13 Si5 1.648014 1_455
O14 Si4 1.643202 1_555
O14 Si3 1.654626 1_555
O15 Si3 1.638431 1_555
O15 Si6 1.642999 1_555
O16 Si8 1.638431 1_555
O16 Si5 1.642999 1_555
O17 Si7 1.643202 1_555
O17 Si8 1.654626 1_555
O18 Si8 1.640946 1_555
O18 Si6 1.648014 1_655
O19 Si4 1.627727 1_555
O19 Si5 1.638079 1_555
O20 Si4 1.669292 1_555
O20 Si9 1.671791 1_555
O21 Si9 1.607008 1_556
O22 Si6 1.619120 1_555
O23 Si7 1.602317 1_555
O24 Si9 1.631477 1_555
O24 Si10 1.638619 1_555
O25 Si8 1.621655 1_555
O26 Si9 1.643025 1_555
O26 Si11 1.665024 1_655
O27 Si10 1.650028 1_555
O27 Si11 1.658838 1_555
O28 Si10 1.612423 1_555
O29 Si11 1.614762 1_655
O30 Si10 1.636516 1_555
O31 Si11 1.642436 1_555
