# generated using pymatgen
data_Li5Bi2P5O18
_symmetry_space_group_name_H-M   'P 1'
_cell_length_a   9.53310300
_cell_length_b   11.23929260
_cell_length_c   6.79029533
_cell_angle_alpha   91.34975216
_cell_angle_beta   91.68292643
_cell_angle_gamma   97.36800387
_symmetry_Int_Tables_number   1
_chemical_formula_structural   Li5Bi2P5O18
_chemical_formula_sum   'Li10 Bi4 P10 O36'
_cell_volume   720.95583186
_cell_formula_units_Z   2
loop_
 _symmetry_equiv_pos_site_id
 _symmetry_equiv_pos_as_xyz
  1  'x, y, z'
loop_
 _atom_site_type_symbol
 _atom_site_label
 _atom_site_symmetry_multiplicity
 _atom_site_fract_x
 _atom_site_fract_y
 _atom_site_fract_z
 _atom_site_occupancy
  Li  Li0  1  0.86426400  0.98331400  0.04331800  1
  Li  Li1  1  0.13573600  0.01668600  0.95668200  1
  Li  Li2  1  0.64616900  0.17956300  0.88955900  1
  Li  Li3  1  0.33682300  0.86951900  0.77566300  1
  Li  Li4  1  0.40392400  0.40597700  0.72528800  1
  Li  Li5  1  0.35383100  0.82043700  0.11044100  1
  Li  Li6  1  0.66317700  0.13048100  0.22433700  1
  Li  Li7  1  0.59607600  0.59402300  0.27471200  1
  Li  Li8  1  0.85261400  0.33787000  0.37451300  1
  Li  Li9  1  0.14738600  0.66213000  0.62548700  1
  Bi  Bi0  1  0.93736100  0.33771000  0.76365500  1
  Bi  Bi1  1  0.60734900  0.77744900  0.63464800  1
  Bi  Bi2  1  0.39265100  0.22255100  0.36535200  1
  Bi  Bi3  1  0.06263900  0.66229000  0.23634500  1
  P  P0  1  0.65875600  0.27707700  0.57898400  1
  P  P1  1  0.16535000  0.14769900  0.57937800  1
  P  P2  1  0.90832300  0.82404200  0.73291600  1
  P  P3  1  0.21638900  0.51413000  0.93221600  1
  P  P4  1  0.40359400  0.21908000  0.00556700  1
  P  P5  1  0.78361100  0.48587000  0.06778400  1
  P  P6  1  0.09167700  0.17595800  0.26708400  1
  P  P7  1  0.59640600  0.78092000  0.99443300  1
  P  P8  1  0.34124400  0.72292300  0.42101600  1
  P  P9  1  0.83465000  0.85230100  0.42062200  1
  O  O0  1  0.47864100  0.25528300  0.88679300  1
  O  O1  1  0.67162800  0.58336800  0.97430900  1
  O  O2  1  0.11603300  0.35154900  0.91519700  1
  O  O3  1  0.31652900  0.04086300  0.97418000  1
  O  O4  1  0.68347100  0.95913700  0.02582000  1
  O  O5  1  0.88396700  0.64845100  0.08480300  1
  O  O6  1  0.32837200  0.41663200  0.02569100  1
  O  O7  1  0.18674500  0.68994900  0.02622700  1
  O  O8  1  0.52135900  0.74471700  0.11320700  1
  O  O9  1  0.47925800  0.20848300  0.15364700  1
  O  O10  1  0.73772900  0.42113600  0.20447600  1
  O  O11  1  0.04370100  0.01049400  0.15878500  1
  O  O12  1  0.82795300  0.03219300  0.33063700  1
  O  O13  1  0.20968900  0.27057800  0.23495800  1
  O  O14  1  0.92908900  0.69963300  0.39199400  1
  O  O15  1  0.33114100  0.88369400  0.30724200  1
  O  O16  1  0.00126800  0.34073700  0.27892000  1
  O  O17  1  0.81325500  0.31005100  0.97377300  1
  O  O18  1  0.42618500  0.56308400  0.37036500  1
  O  O19  1  0.60272600  0.18830800  0.43225200  1
  O  O20  1  0.11615100  0.06535500  0.41589100  1
  O  O21  1  0.21439000  0.63726000  0.43632100  1
  O  O22  1  0.78561000  0.36274000  0.56367900  1
  O  O23  1  0.88384900  0.93464500  0.58410900  1
  O  O24  1  0.39727400  0.81169200  0.56774800  1
  O  O25  1  0.57381500  0.43691600  0.62963500  1
  O  O26  1  0.28896600  0.24919100  0.57432800  1
  O  O27  1  0.99873200  0.65926300  0.72108000  1
  O  O28  1  0.66885900  0.11630600  0.69275800  1
  O  O29  1  0.07091100  0.30036700  0.60800600  1
  O  O30  1  0.79031100  0.72942200  0.76504200  1
  O  O31  1  0.17204700  0.96780700  0.66936300  1
  O  O32  1  0.95629900  0.98950600  0.84121500  1
  O  O33  1  0.26227100  0.57886400  0.79552400  1
  O  O34  1  0.52074200  0.79151700  0.84635300  1
  O  O35  1  0.71103400  0.75080900  0.42567200  1
loop_
_geom_bond_atom_site_label_1
_geom_bond_atom_site_label_2
_geom_bond_distance
_geom_bond_site_symmetry_2
Li0 O32 1.648488 1_554
Li0 O4 1.710205 1_555
Li0 O11 1.846645 1_665
Li0 O12 2.065406 1_565
Li1 O11 1.648488 1_556
Li1 O3 1.710205 1_555
Li1 O32 1.846645 1_445
Li1 O31 2.065406 1_545
Li2 O28 1.532879 1_555
Li2 O0 1.903371 1_555
Li2 O17 2.079155 1_555
Li3 O24 1.687702 1_555
Li3 O34 2.106597 1_555
Li3 O31 2.150552 1_555
Li3 O3 2.356211 1_565
Li4 O25 1.758929 1_555
Li4 O26 2.170390 1_555
Li4 O6 2.188810 1_556
Li4 O0 2.220286 1_555
Li4 O33 2.548321 1_555
Li5 O15 1.532879 1_555
Li5 O8 1.903371 1_555
Li5 O7 2.079155 1_555
Li6 O19 1.687702 1_555
Li6 O9 2.106597 1_555
Li6 O12 2.150552 1_555
Li6 O4 2.356211 1_545
Li7 O18 1.758929 1_555
Li7 O35 2.170390 1_555
Li7 O1 2.188810 1_554
Li7 O8 2.220286 1_555
Li7 O10 2.548321 1_555
Li8 O22 1.487661 1_555
Li8 O16 1.572879 1_655
Li8 O10 1.909953 1_555
Li9 O21 1.487661 1_555
Li9 O27 1.572879 1_455
Li9 O33 1.909953 1_555
Bi0 O29 1.763318 1_655
Bi0 O17 1.886204 1_555
Bi0 O2 1.950859 1_655
Bi0 O22 2.005701 1_555
Bi1 O34 1.692831 1_555
Bi1 O35 1.794024 1_555
Bi1 O30 2.071433 1_555
Bi1 O24 2.125476 1_555
Bi2 O9 1.692831 1_555
Bi2 O26 1.794024 1_555
Bi2 O13 2.071433 1_555
Bi2 O19 2.125476 1_555
Bi3 O14 1.763318 1_455
Bi3 O7 1.886204 1_555
Bi3 O5 1.950859 1_455
Bi3 O21 2.005701 1_555
O0 P4 1.141294 1_556
O1 P5 1.742507 1_556
O2 P3 1.950083 1_555
O3 P4 2.071124 1_556
O4 P7 2.071124 1_554
O5 P5 1.950083 1_555
O6 P3 1.742507 1_554
O7 P3 2.118175 1_554
O8 P7 1.141294 1_554
O9 P4 1.237173 1_555
O10 P5 1.247486 1_555
O11 P6 1.976387 1_555
O12 P9 2.134094 1_545
O13 P6 1.470610 1_555
O14 P9 2.045324 1_555
O16 P6 2.141413 1_555
O17 P5 2.118175 1_556
O18 P8 2.088463 1_555
O19 P0 1.434803 1_555
O20 P1 1.455530 1_555
O20 P6 1.655429 1_555
O21 P8 1.453847 1_555
O22 P0 1.453847 1_555
O23 P9 1.455530 1_555
O23 P2 1.655429 1_555
O24 P8 1.434803 1_555
O25 P0 2.088463 1_555
O26 P1 1.533146 1_555
O27 P2 2.141413 1_555
O29 P1 2.045324 1_555
O30 P2 1.470610 1_555
O31 P1 2.134094 1_565
O32 P2 1.976387 1_555
O33 P3 1.247486 1_555
O34 P7 1.237173 1_555
O35 P9 1.533146 1_555
