# generated using pymatgen
data_HoLuO3
_symmetry_space_group_name_H-M   'P 1'
_cell_length_a   5.57601800
_cell_length_b   5.84943100
_cell_length_c   8.25877100
_cell_angle_alpha   90.00000000
_cell_angle_beta   90.00000000
_cell_angle_gamma   90.00000000
_symmetry_Int_Tables_number   1
_chemical_formula_structural   HoLuO3
_chemical_formula_sum   'Ho4 Lu4 O12'
_cell_volume   269.37247311
_cell_formula_units_Z   4
loop_
 _symmetry_equiv_pos_site_id
 _symmetry_equiv_pos_as_xyz
  1  'x, y, z'
loop_
 _atom_site_type_symbol
 _atom_site_label
 _atom_site_symmetry_multiplicity
 _atom_site_fract_x
 _atom_site_fract_y
 _atom_site_fract_z
 _atom_site_occupancy
  Ho  Ho0  1  0.01884200  0.94327000  0.75000000  1
  Ho  Ho1  1  0.48115800  0.44327000  0.75000000  1
  Ho  Ho2  1  0.51884200  0.55673000  0.25000000  1
  Ho  Ho3  1  0.98115800  0.05673000  0.25000000  1
  Lu  Lu0  1  0.00000000  0.50000000  0.00000000  1
  Lu  Lu1  1  0.00000000  0.50000000  0.50000000  1
  Lu  Lu2  1  0.50000000  0.00000000  0.00000000  1
  Lu  Lu3  1  0.50000000  0.00000000  0.50000000  1
  O  O0  1  0.14460200  0.43017200  0.25000000  1
  O  O1  1  0.18378800  0.18697300  0.57654900  1
  O  O2  1  0.18378800  0.18697300  0.92345100  1
  O  O3  1  0.31621200  0.68697300  0.92345100  1
  O  O4  1  0.31621200  0.68697300  0.57654900  1
  O  O5  1  0.35539800  0.93017200  0.25000000  1
  O  O6  1  0.64460200  0.06982800  0.75000000  1
  O  O7  1  0.68378800  0.31302700  0.07654900  1
  O  O8  1  0.68378800  0.31302700  0.42345100  1
  O  O9  1  0.81621200  0.81302700  0.07654900  1
  O  O10  1  0.81621200  0.81302700  0.42345100  1
  O  O11  1  0.85539800  0.56982800  0.75000000  1
loop_
_geom_bond_atom_site_label_1
_geom_bond_atom_site_label_2
_geom_bond_distance
_geom_bond_site_symmetry_2
Ho0 O6 2.214190 1_465
Ho0 O2 2.220378 1_565
Ho0 O1 2.220378 1_565
Ho0 O11 2.366917 1_455
Ho0 O3 2.655003 1_555
Ho0 O4 2.655003 1_555
Ho0 O9 3.021630 1_456
Ho0 O10 3.021630 1_455
Ho1 O11 2.214190 1_555
Ho1 O4 2.220378 1_555
Ho1 O3 2.220378 1_555
Ho1 O6 2.366917 1_555
Ho1 O1 2.655003 1_555
Ho1 O2 2.655003 1_555
Ho1 O7 3.021630 1_556
Ho1 O8 3.021630 1_555
Ho2 O0 2.214190 1_555
Ho2 O7 2.220378 1_555
Ho2 O8 2.220378 1_555
Ho2 O5 2.366917 1_555
Ho2 O9 2.655003 1_555
Ho2 O10 2.655003 1_555
Ho2 O4 3.021630 1_555
Ho2 O3 3.021630 1_554
Ho3 O5 2.214190 1_645
Ho3 O9 2.220378 1_545
Ho3 O10 2.220378 1_545
Ho3 O0 2.366917 1_655
Ho3 O7 2.655003 1_555
Ho3 O8 2.655003 1_555
Ho3 O2 3.021630 1_654
Ho3 O1 3.021630 1_655
Lu0 O3 2.169035 1_554
Lu0 O7 2.169035 1_455
Lu0 O2 2.191477 1_554
Lu0 O9 2.191477 1_455
Lu0 O0 2.253867 1_555
Lu0 O11 2.253867 1_454
Lu1 O4 2.169035 1_555
Lu1 O8 2.169035 1_455
Lu1 O10 2.191477 1_455
Lu1 O1 2.191477 1_555
Lu1 O0 2.253867 1_555
Lu1 O11 2.253867 1_455
Lu2 O2 2.169035 1_554
Lu2 O9 2.169035 1_545
Lu2 O7 2.191477 1_555
Lu2 O3 2.191477 1_544
Lu2 O6 2.253867 1_554
Lu2 O5 2.253867 1_545
Lu3 O1 2.169035 1_555
Lu3 O10 2.169035 1_545
Lu3 O8 2.191477 1_555
Lu3 O4 2.191477 1_545
Lu3 O6 2.253867 1_555
Lu3 O5 2.253867 1_545
