# generated using pymatgen
data_KRe3Os3(Se4Cl3)2
_symmetry_space_group_name_H-M   'P 1'
_cell_length_a   13.22772600
_cell_length_b   13.24614854
_cell_length_c   13.27007800
_cell_angle_alpha   90.00133312
_cell_angle_beta   90.00063901
_cell_angle_gamma   90.09324414
_symmetry_Int_Tables_number   1
_chemical_formula_structural   KRe3Os3(Se4Cl3)2
_chemical_formula_sum   'K4 Re12 Os12 Se32 Cl24'
_cell_volume   2325.13252711
_cell_formula_units_Z   4
loop_
 _symmetry_equiv_pos_site_id
 _symmetry_equiv_pos_as_xyz
  1  'x, y, z'
loop_
 _atom_site_type_symbol
 _atom_site_label
 _atom_site_symmetry_multiplicity
 _atom_site_fract_x
 _atom_site_fract_y
 _atom_site_fract_z
 _atom_site_occupancy
  K  K0  1  0.99959800  0.00001100  0.99962200  1
  K  K1  1  0.50054500  0.49986700  0.99964500  1
  K  K2  1  0.50015000  0.00017800  0.50043900  1
  K  K3  1  0.99990700  0.50006400  0.50015500  1
  Re  Re0  1  0.86837000  0.54145400  0.96842600  1
  Re  Re1  1  0.63168300  0.95856800  0.96843800  1
  Re  Re2  1  0.53170900  0.13167600  0.95847500  1
  Re  Re3  1  0.96834000  0.36831100  0.95842600  1
  Re  Re4  1  0.04178100  0.53148100  0.86853000  1
  Re  Re5  1  0.45835700  0.96848100  0.86857400  1
  Re  Re6  1  0.53146200  0.36854300  0.54153400  1
  Re  Re7  1  0.63127700  0.54160400  0.53144000  1
  Re  Re8  1  0.86863400  0.95831500  0.53135300  1
  Re  Re9  1  0.13140800  0.04149800  0.46853200  1
  Re  Re10  1  0.36853300  0.45837500  0.46862300  1
  Re  Re11  1  0.03148300  0.86840700  0.45841700  1
  Os  Os0  1  0.45789500  0.53219600  0.63179000  1
  Os  Os1  1  0.04177000  0.96883900  0.63211200  1
  Os  Os2  1  0.96852100  0.13126000  0.54144500  1
  Os  Os3  1  0.46845700  0.63144900  0.45849000  1
  Os  Os4  1  0.95802900  0.03217100  0.36820200  1
  Os  Os5  1  0.54164000  0.46887700  0.36789100  1
  Os  Os6  1  0.95907700  0.46874200  0.13167500  1
  Os  Os7  1  0.54105500  0.03122100  0.13174500  1
  Os  Os8  1  0.03216800  0.63122400  0.04216900  1
  Os  Os9  1  0.46788600  0.86877300  0.04220000  1
  Os  Os10  1  0.36828600  0.04117700  0.03216500  1
  Os  Os11  1  0.13177900  0.45882000  0.03218200  1
  Se  Se0  1  0.19550900  0.61654800  0.94505600  1
  Se  Se1  1  0.30451200  0.88340500  0.94506500  1
  Se  Se2  1  0.94506700  0.69572100  0.88439300  1
  Se  Se3  1  0.55504800  0.80422300  0.88442400  1
  Se  Se4  1  0.36319000  0.13558900  0.86542500  1
  Se  Se5  1  0.13686300  0.36437000  0.86542100  1
  Se  Se6  1  0.61742500  0.05617000  0.80448500  1
  Se  Se7  1  0.88268500  0.44377200  0.80440000  1
  Se  Se8  1  0.88468300  0.05588700  0.69507600  1
  Se  Se9  1  0.61535200  0.44495700  0.69583300  1
  Se  Se10  1  0.13464000  0.13538600  0.63650900  1
  Se  Se11  1  0.36422400  0.36526900  0.63695800  1
  Se  Se12  1  0.55428700  0.69508400  0.61672600  1
  Se  Se13  1  0.94503700  0.80512300  0.61786400  1
  Se  Se14  1  0.30571800  0.61742700  0.55679100  1
  Se  Se15  1  0.19476100  0.88316500  0.55734200  1
  Se  Se16  1  0.80578100  0.11736700  0.44318500  1
  Se  Se17  1  0.69474800  0.38326000  0.44259000  1
  Se  Se18  1  0.05437100  0.19505700  0.38330500  1
  Se  Se19  1  0.44494700  0.30519400  0.38214000  1
  Se  Se20  1  0.63462900  0.63543200  0.36339200  1
  Se  Se21  1  0.86423800  0.86523800  0.36289200  1
  Se  Se22  1  0.11528600  0.94474000  0.30411400  1
  Se  Se23  1  0.38475400  0.55611400  0.30485800  1
  Se  Se24  1  0.38327200  0.94417300  0.19445700  1
  Se  Se25  1  0.11678800  0.55580000  0.19445900  1
  Se  Se26  1  0.86538400  0.63530200  0.13594200  1
  Se  Se27  1  0.63466500  0.86464900  0.13596200  1
  Se  Se28  1  0.44374800  0.19416800  0.11708400  1
  Se  Se29  1  0.05629900  0.30576400  0.11706300  1
  Se  Se30  1  0.69522500  0.11689000  0.05685300  1
  Se  Se31  1  0.80479800  0.38307900  0.05680800  1
  Cl  Cl0  1  0.79938800  0.90429300  0.92338600  1
  Cl  Cl1  1  0.70078000  0.59590700  0.92380900  1
  Cl  Cl2  1  0.57621600  0.29902000  0.90301800  1
  Cl  Cl3  1  0.92377200  0.20094600  0.90299700  1
  Cl  Cl4  1  0.09703800  0.92400200  0.79918500  1
  Cl  Cl5  1  0.40323500  0.57497000  0.79959200  1
  Cl  Cl6  1  0.09588900  0.57491600  0.70021900  1
  Cl  Cl7  1  0.40458300  0.92521500  0.70062900  1
  Cl  Cl8  1  0.57562500  0.20084300  0.59604900  1
  Cl  Cl9  1  0.92440200  0.29838100  0.59611100  1
  Cl  Cl10  1  0.79922900  0.59589200  0.57541000  1
  Cl  Cl11  1  0.70105700  0.90266200  0.57499700  1
  Cl  Cl12  1  0.29942800  0.09576800  0.42416400  1
  Cl  Cl13  1  0.20086000  0.40280800  0.42459300  1
  Cl  Cl14  1  0.42425400  0.79887500  0.40339100  1
  Cl  Cl15  1  0.07575100  0.70034800  0.40332500  1
  Cl  Cl16  1  0.59728100  0.07574100  0.29831100  1
  Cl  Cl17  1  0.90306400  0.42436100  0.29786100  1
  Cl  Cl18  1  0.59638400  0.42375600  0.20112600  1
  Cl  Cl19  1  0.90383500  0.07519000  0.20068500  1
  Cl  Cl20  1  0.07507600  0.79901700  0.09577800  1
  Cl  Cl21  1  0.42493500  0.70098000  0.09580400  1
  Cl  Cl22  1  0.29934100  0.40302000  0.07521000  1
  Cl  Cl23  1  0.20084200  0.09718400  0.07477800  1
loop_
_geom_bond_atom_site_label_1
_geom_bond_atom_site_label_2
_geom_bond_distance
_geom_bond_site_symmetry_2
Re0 Se2 2.538073 1_555
Re0 Se7 2.539387 1_555
Re0 Se31 2.545208 1_556
Re0 Se26 2.547246 1_556
Re1 Se6 2.538008 1_565
Re1 Se3 2.538415 1_555
Re1 Se30 2.544648 1_566
Re1 Se27 2.547846 1_556
Re2 Se30 2.534227 1_556
Re2 Se6 2.542689 1_555
Re2 Se28 2.544033 1_556
Re2 Se4 2.548858 1_555
Re3 Se31 2.534549 1_556
Re3 Se7 2.542495 1_555
Re3 Se29 2.544576 1_656
Re3 Se5 2.548646 1_655
Re4 Se2 2.534361 1_455
Re4 Se0 2.535430 1_555
Re4 Se5 2.548046 1_555
Re4 Se7 2.548489 1_455
Re5 Se3 2.534404 1_555
Re5 Se1 2.536576 1_555
Re5 Se6 2.547915 1_565
Re5 Se4 2.548579 1_565
Re6 Se17 2.534924 1_555
Re6 Se9 2.538623 1_555
Re6 Se19 2.546462 1_555
Re6 Se11 2.549283 1_555
Re7 Se9 2.538016 1_555
Re7 Se12 2.541226 1_555
Re7 Se17 2.549503 1_555
Re7 Se20 2.553343 1_555
Re8 Se8 2.536678 1_565
Re8 Se13 2.542388 1_555
Re8 Se16 2.550418 1_565
Re8 Se21 2.553528 1_555
Re9 Se22 2.539203 1_545
Re9 Se18 2.541997 1_555
Re9 Se15 2.548659 1_545
Re9 Se10 2.552830 1_555
Re10 Se23 2.538527 1_555
Re10 Se19 2.542130 1_555
Re10 Se14 2.550217 1_555
Re10 Se11 2.552276 1_555
Re11 Se15 2.534715 1_555
Re11 Se22 2.537794 1_555
Re11 Se13 2.546407 1_455
Re11 Se21 2.549982 1_455
Os0 Se12 2.512405 1_555
Os0 Se14 2.514857 1_555
Os0 Se9 2.530516 1_555
Os0 Se11 2.533809 1_555
Os1 Se8 2.520541 1_465
Os1 Se13 2.523255 1_455
Os1 Se10 2.524003 1_565
Os1 Se15 2.524931 1_555
Os2 Se16 2.523239 1_555
Os2 Se8 2.525763 1_555
Os2 Se18 2.530724 1_655
Os2 Se10 2.534244 1_655
Os3 Se14 2.523661 1_555
Os3 Se23 2.524735 1_555
Os3 Se12 2.530894 1_555
Os3 Se20 2.535065 1_555
Os4 Se18 2.512079 1_655
Os4 Se16 2.515314 1_555
Os4 Se22 2.529702 1_645
Os4 Se21 2.534701 1_545
Os5 Se23 2.519804 1_555
Os5 Se19 2.522622 1_555
Os5 Se20 2.524895 1_555
Os5 Se17 2.525466 1_555
Os6 Se29 2.522109 1_655
Os6 Se25 2.523511 1_655
Os6 Se26 2.532932 1_555
Os6 Se31 2.536069 1_555
Os7 Se28 2.522388 1_555
Os7 Se24 2.523955 1_545
Os7 Se27 2.532519 1_545
Os7 Se30 2.535114 1_555
Os8 Se25 2.517693 1_555
Os8 Se0 2.523543 1_554
Os8 Se26 2.533581 1_455
Os8 Se2 2.538533 1_454
Os9 Se24 2.517162 1_555
Os9 Se1 2.524001 1_554
Os9 Se27 2.533443 1_555
Os9 Se3 2.539125 1_554
Os10 Se24 2.515830 1_545
Os10 Se28 2.523173 1_555
Os10 Se1 2.531650 1_544
Os10 Se4 2.542590 1_554
Os11 Se25 2.515455 1_555
Os11 Se29 2.523785 1_555
Os11 Se0 2.531187 1_554
Os11 Se5 2.543027 1_554
Cl0 Re1 2.408441 1_555
Cl0 K0 3.103800 1_565
Cl1 Re0 2.406317 1_555
Cl1 K1 3.104134 1_555
Cl2 Re2 2.407823 1_555
Cl2 K1 3.119711 1_555
Cl3 Re3 2.408126 1_555
Cl3 K0 3.121398 1_555
Cl4 Os1 2.409159 1_555
Cl4 K0 3.123104 1_465
Cl5 Os0 2.409046 1_555
Cl5 K1 3.114207 1_555
Cl6 Re4 2.414656 1_555
Cl6 K3 3.104679 1_455
Cl7 Re5 2.408286 1_555
Cl7 K2 3.104404 1_565
Cl8 Re6 2.409027 1_555
Cl8 K2 3.108505 1_555
Cl9 Os2 2.402388 1_555
Cl9 K3 3.122092 1_555
Cl10 Re7 2.405812 1_555
Cl10 K3 3.109010 1_555
Cl11 Re8 2.405659 1_555
Cl11 K2 3.117871 1_565
Cl12 Re9 2.407877 1_555
Cl12 K2 3.112593 1_555
Cl13 Re10 2.407699 1_555
Cl13 K3 3.121215 1_455
Cl14 Os3 2.408150 1_555
Cl14 K2 3.125326 1_565
Cl15 Re11 2.416032 1_555
Cl15 K3 3.112469 1_455
Cl16 Os7 2.405206 1_555
Cl16 K2 3.137373 1_555
Cl17 Os6 2.399292 1_555
Cl17 K3 3.138228 1_555
Cl18 Os5 2.404222 1_555
Cl18 K1 3.126704 1_554
Cl19 Os4 2.404481 1_555
Cl19 K0 3.117565 1_554
Cl20 Os8 2.400841 1_555
Cl20 K0 3.118030 1_464
Cl21 Os9 2.400989 1_555
Cl21 K1 3.119914 1_554
Cl22 Os11 2.406321 1_555
Cl22 K1 3.118277 1_554
Cl23 Os10 2.404433 1_555
Cl23 K0 3.118723 1_454
