# generated using pymatgen
data_LiFe5O3F5
_symmetry_space_group_name_H-M   'P 1'
_cell_length_a   6.25886115
_cell_length_b   6.25886115
_cell_length_c   6.37873835
_cell_angle_alpha   59.94853340
_cell_angle_beta   59.94853340
_cell_angle_gamma   59.82799524
_symmetry_Int_Tables_number   1
_chemical_formula_structural   LiFe5O3F5
_chemical_formula_sum   'Li1 Fe5 O3 F5'
_cell_volume   176.32150576
_cell_formula_units_Z   1
loop_
 _symmetry_equiv_pos_site_id
 _symmetry_equiv_pos_as_xyz
  1  'x, y, z'
loop_
 _atom_site_type_symbol
 _atom_site_label
 _atom_site_symmetry_multiplicity
 _atom_site_fract_x
 _atom_site_fract_y
 _atom_site_fract_z
 _atom_site_occupancy
  Li  Li0  1  0.61782800  0.61782800  0.12725800  1
  Fe  Fe0  1  0.61037400  0.13818500  0.61097500  1
  Fe  Fe1  1  0.96495000  0.96495000  0.06464800  1
  Fe  Fe2  1  0.62196100  0.62196100  0.62497600  1
  Fe  Fe3  1  0.29284800  0.29284800  0.20109100  1
  Fe  Fe4  1  0.13818500  0.61037400  0.61097500  1
  O  O0  1  0.39775000  0.39775000  0.82589500  1
  O  O1  1  0.84696300  0.84696300  0.43874200  1
  O  O2  1  0.39277600  0.39277600  0.37629100  1
  F  F0  1  0.87527000  0.38378900  0.35951600  1
  F  F1  1  0.87019600  0.37396400  0.88945200  1
  F  F2  1  0.37396400  0.87019600  0.88945200  1
  F  F3  1  0.86314400  0.86314400  0.87121800  1
  F  F4  1  0.38378900  0.87527000  0.35951600  1
loop_
_geom_bond_atom_site_label_1
_geom_bond_atom_site_label_2
_geom_bond_distance
_geom_bond_site_symmetry_2
Li0 O2 2.000965 1_555
Fe0 O2 2.026403 1_555
Fe0 O1 2.094082 1_545
Fe0 O0 2.125998 1_555
Fe1 O1 1.950180 1_555
Fe2 O0 1.989467 1_555
Fe2 O1 2.004996 1_555
Fe3 O2 1.955649 1_555
Fe3 O0 1.968673 1_554
Fe4 O2 2.026403 1_555
Fe4 O1 2.094082 1_455
Fe4 O0 2.125998 1_555
F0 Fe3 2.147418 1_655
F0 Li0 2.186703 1_555
F0 Fe2 2.250924 1_555
F0 Fe0 2.261292 1_555
F1 Fe1 2.103904 1_546
F1 Li0 2.149721 1_556
F1 Fe4 2.244168 1_655
F1 Fe2 2.290766 1_555
F2 Fe1 2.103904 1_456
F2 Li0 2.149721 1_556
F2 Fe0 2.244168 1_565
F2 Fe2 2.290766 1_555
F3 Fe1 2.077818 1_556
F3 Li0 2.174606 1_556
F3 Fe4 2.291859 1_655
F3 Fe0 2.291859 1_565
F4 Fe3 2.147418 1_565
F4 Li0 2.186703 1_555
F4 Fe2 2.250924 1_555
F4 Fe4 2.261292 1_555
