# generated using pymatgen
data_Mn3(O2F)2
_symmetry_space_group_name_H-M   'P 1'
_cell_length_a   4.62596249
_cell_length_b   7.65965902
_cell_length_c   5.55737742
_cell_angle_alpha   93.95295518
_cell_angle_beta   92.05547982
_cell_angle_gamma   88.97078673
_symmetry_Int_Tables_number   1
_chemical_formula_structural   Mn3(O2F)2
_chemical_formula_sum   'Mn6 O8 F4'
_cell_volume   196.29763246
_cell_formula_units_Z   2
loop_
 _symmetry_equiv_pos_site_id
 _symmetry_equiv_pos_as_xyz
  1  'x, y, z'
loop_
 _atom_site_type_symbol
 _atom_site_label
 _atom_site_symmetry_multiplicity
 _atom_site_fract_x
 _atom_site_fract_y
 _atom_site_fract_z
 _atom_site_occupancy
  Mn  Mn0  1  0.48626900  0.99473300  0.49519800  1
  Mn  Mn1  1  0.50185600  0.66127000  0.17152000  1
  Mn  Mn2  1  0.50602700  0.35372900  0.82039300  1
  Mn  Mn3  1  0.00007400  0.67132800  0.66347200  1
  Mn  Mn4  1  0.97343000  0.32043400  0.34660500  1
  Mn  Mn5  1  0.02062000  0.99867500  0.00894100  1
  O  O0  1  0.80254400  0.44015000  0.63210800  1
  O  O1  1  0.80795900  0.09636500  0.29277000  1
  O  O2  1  0.68681300  0.76825700  0.46548200  1
  O  O3  1  0.70301300  0.43490200  0.12109200  1
  O  O4  1  0.30773300  0.56987200  0.86922400  1
  O  O5  1  0.30754000  0.23182500  0.53544000  1
  O  O6  1  0.30677000  0.89064700  0.20919200  1
  O  O7  1  0.19343400  0.90019300  0.70979000  1
  F  F0  1  0.79900400  0.77218500  0.96863600  1
  F  F1  1  0.69848500  0.10618500  0.79987600  1
  F  F2  1  0.18809000  0.54862800  0.36032800  1
  F  F3  1  0.21033900  0.24062100  0.02993400  1
loop_
_geom_bond_atom_site_label_1
_geom_bond_atom_site_label_2
_geom_bond_distance
_geom_bond_site_symmetry_2
Mn0 O6 1.898905 1_555
Mn0 O2 1.952147 1_555
Mn0 O5 1.983670 1_565
Mn0 O7 2.012923 1_555
Mn0 O1 2.090104 1_565
Mn1 O2 1.952637 1_555
Mn1 O3 1.960769 1_555
Mn1 O6 1.962400 1_555
Mn1 O4 1.967496 1_554
Mn2 O4 1.886104 1_555
Mn2 O0 1.909359 1_555
Mn2 O3 1.943551 1_556
Mn2 O5 1.986288 1_555
Mn3 O2 1.954861 1_455
Mn3 O4 1.975593 1_555
Mn3 O7 1.979154 1_555
Mn3 O0 2.001258 1_455
Mn4 O1 1.892372 1_555
Mn4 O0 1.961264 1_555
Mn4 O5 1.973559 1_655
Mn4 O3 1.975830 1_555
Mn5 O6 1.912417 1_555
Mn5 O7 1.967937 1_554
Mn5 O1 1.984402 1_465
F0 Mn5 2.026001 1_656
F0 Mn1 2.041506 1_556
F0 Mn3 2.060289 1_655
F1 Mn5 2.052394 1_646
F1 Mn0 2.066653 1_545
F1 Mn2 2.077902 1_555
F2 Mn4 2.021271 1_455
F2 Mn1 2.056995 1_555
F2 Mn3 2.082158 1_555
F3 Mn5 2.059020 1_545
F3 Mn2 2.067263 1_554
F3 Mn4 2.153569 1_455
