# generated using pymatgen
data_Li4Mn3O5F3
_symmetry_space_group_name_H-M   'P 1'
_cell_length_a   2.93304700
_cell_length_b   15.76265863
_cell_length_c   6.73370898
_cell_angle_alpha   90.22832932
_cell_angle_beta   77.42159341
_cell_angle_gamma   90.00017755
_symmetry_Int_Tables_number   1
_chemical_formula_structural   Li4Mn3O5F3
_chemical_formula_sum   'Li8 Mn6 O10 F6'
_cell_volume   303.84251874
_cell_formula_units_Z   2
loop_
 _symmetry_equiv_pos_site_id
 _symmetry_equiv_pos_as_xyz
  1  'x, y, z'
loop_
 _atom_site_type_symbol
 _atom_site_label
 _atom_site_symmetry_multiplicity
 _atom_site_fract_x
 _atom_site_fract_y
 _atom_site_fract_z
 _atom_site_occupancy
  Li  Li0  1  0.11849600  0.37814900  0.76289100  1
  Li  Li1  1  0.61850900  0.87815900  0.76286600  1
  Li  Li2  1  0.76873100  0.26023500  0.46243500  1
  Li  Li3  1  0.26870800  0.76022200  0.46248200  1
  Li  Li4  1  0.36724400  0.11931800  0.26555200  1
  Li  Li5  1  0.86724000  0.61929300  0.26556100  1
  Li  Li6  1  0.00378000  0.00141400  0.99247500  1
  Li  Li7  1  0.50377400  0.50139700  0.99248600  1
  Mn  Mn0  1  0.55324000  0.69335400  0.89348900  1
  Mn  Mn1  1  0.31608000  0.92875300  0.36790900  1
  Mn  Mn2  1  0.68262100  0.06152000  0.63471600  1
  Mn  Mn3  1  0.05324000  0.19337600  0.89348600  1
  Mn  Mn4  1  0.81610200  0.42872300  0.36786900  1
  Mn  Mn5  1  0.18263600  0.56151600  0.63468500  1
  O  O0  1  0.28120400  0.35247400  0.43769700  1
  O  O1  1  0.78118500  0.85250000  0.43773500  1
  O  O2  1  0.82777400  0.01752700  0.34446600  1
  O  O3  1  0.32779800  0.51749800  0.34442400  1
  O  O4  1  0.54382900  0.09635400  0.91229800  1
  O  O5  1  0.04383300  0.59634500  0.91229200  1
  O  O6  1  0.65713900  0.48275400  0.68571400  1
  O  O7  1  0.15712700  0.98277300  0.68573100  1
  O  O8  1  0.21387800  0.13935400  0.57219900  1
  O  O9  1  0.71388100  0.63934200  0.57219800  1
  F  F0  1  0.89315600  0.19809200  0.21359600  1
  F  F1  1  0.39313900  0.69803900  0.21362500  1
  F  F2  1  0.97987500  0.42160100  0.04040800  1
  F  F3  1  0.47989500  0.92167300  0.04038700  1
  F  F4  1  0.60542400  0.28663200  0.78920200  1
  F  F5  1  0.10546500  0.78660900  0.78912900  1
loop_
_geom_bond_atom_site_label_1
_geom_bond_atom_site_label_2
_geom_bond_distance
_geom_bond_site_symmetry_2
Li0 O0 2.173562 1_555
Li0 O6 2.265619 1_455
Li0 O6 2.265828 1_555
Li1 O1 2.173109 1_555
Li1 O7 2.265667 1_555
Li1 O7 2.265861 1_655
Li2 O0 2.071734 1_555
Li2 O0 2.072163 1_655
Li2 O8 2.512496 1_555
Li2 O8 2.512591 1_655
Li3 O1 2.072172 1_455
Li3 O1 2.072598 1_555
Li3 O9 2.512389 1_455
Li3 O9 2.512491 1_555
Li4 O8 2.038634 1_555
Li4 O2 2.236237 1_555
Li4 O2 2.236289 1_455
Li4 O4 2.348206 1_554
Li5 O9 2.038600 1_555
Li5 O3 2.236208 1_655
Li5 O3 2.236251 1_555
Li5 O5 2.348266 1_654
Li6 O7 2.036064 1_545
Li6 O4 2.161940 1_555
Li6 O4 2.162094 1_455
Li6 O2 2.326187 1_456
Li7 O6 2.036250 1_555
Li7 O5 2.162058 1_655
Li7 O5 2.162206 1_555
Li7 O3 2.325821 1_556
Mn0 O5 2.122657 1_655
Mn0 O5 2.122675 1_555
Mn0 O9 2.273504 1_555
Mn1 O1 1.952005 1_455
Mn1 O1 1.952081 1_555
Mn1 O2 2.033230 1_565
Mn1 O2 2.033350 1_465
Mn1 O7 2.252427 1_555
Mn2 O4 1.902986 1_555
Mn2 O7 1.951183 1_545
Mn2 O7 1.951242 1_645
Mn2 O8 1.956738 1_655
Mn2 O8 1.956742 1_555
Mn2 O2 2.027021 1_555
Mn3 O4 2.122810 1_555
Mn3 O4 2.122826 1_455
Mn3 O8 2.273538 1_555
Mn4 O0 1.951973 1_555
Mn4 O0 1.952040 1_655
Mn4 O3 2.033244 1_655
Mn4 O3 2.033360 1_555
Mn4 O6 2.252632 1_555
Mn5 O5 1.903121 1_555
Mn5 O6 1.951341 1_455
Mn5 O6 1.951417 1_555
Mn5 O9 1.956614 1_455
Mn5 O9 1.956623 1_555
Mn5 O3 2.027222 1_555
F0 Li2 1.902873 1_555
F0 Li4 1.952427 1_555
F0 Li4 1.952716 1_655
F0 Mn3 2.104802 1_654
F1 Li3 1.903297 1_555
F1 Li5 1.952116 1_455
F1 Li5 1.952419 1_555
F1 Mn0 2.104958 1_554
F2 Li0 1.945612 1_654
F2 Li7 1.958223 1_654
F2 Li7 1.958495 1_554
F2 Mn4 2.154572 1_555
F3 Li1 1.945977 1_554
F3 Li6 1.957636 1_664
F3 Li6 1.957947 1_564
F3 Mn1 2.154941 1_555
F4 Li0 2.064669 1_655
F4 Li0 2.065020 1_555
F4 Li2 2.185812 1_555
F4 Mn3 2.188391 1_655
F4 Mn3 2.188562 1_555
F5 Li1 2.064997 1_555
F5 Li1 2.065365 1_455
F5 Li3 2.185008 1_555
F5 Mn0 2.188533 1_555
F5 Mn0 2.188715 1_455
