# generated using pymatgen
data_Mn6O5F7
_symmetry_space_group_name_H-M   'P 1'
_cell_length_a   4.78559900
_cell_length_b   5.71061205
_cell_length_c   7.87064686
_cell_angle_alpha   86.11088258
_cell_angle_beta   87.51372641
_cell_angle_gamma   86.08118346
_symmetry_Int_Tables_number   1
_chemical_formula_structural   Mn6O5F7
_chemical_formula_sum   'Mn6 O5 F7'
_cell_volume   213.93520280
_cell_formula_units_Z   1
loop_
 _symmetry_equiv_pos_site_id
 _symmetry_equiv_pos_as_xyz
  1  'x, y, z'
loop_
 _atom_site_type_symbol
 _atom_site_label
 _atom_site_symmetry_multiplicity
 _atom_site_fract_x
 _atom_site_fract_y
 _atom_site_fract_z
 _atom_site_occupancy
  Mn  Mn0  1  0.51057700  0.48493400  0.99866600  1
  Mn  Mn1  1  0.52292700  0.85075600  0.67665500  1
  Mn  Mn2  1  0.48888600  0.17502800  0.33118700  1
  Mn  Mn3  1  0.99464800  0.32657800  0.67040500  1
  Mn  Mn4  1  0.02492600  0.65596100  0.32750200  1
  Mn  Mn5  1  0.96281600  0.00587400  0.99589200  1
  O  O0  1  0.80789200  0.04310200  0.77366000  1
  O  O1  1  0.69105000  0.19990100  0.10534300  1
  O  O2  1  0.69765600  0.54250000  0.77122900  1
  O  O3  1  0.30491200  0.12746400  0.56391000  1
  O  O4  1  0.31713700  0.46022000  0.22557500  1
  F  F0  1  0.81164900  0.37261900  0.43412700  1
  F  F1  1  0.79879700  0.69767600  0.10314900  1
  F  F2  1  0.70059600  0.87224900  0.42019200  1
  F  F3  1  0.28672800  0.79427000  0.91291400  1
  F  F4  1  0.20032600  0.62866500  0.57333500  1
  F  F5  1  0.17904600  0.96607200  0.21627400  1
  F  F6  1  0.19943200  0.29613100  0.89998700  1
loop_
_geom_bond_atom_site_label_1
_geom_bond_atom_site_label_2
_geom_bond_distance
_geom_bond_site_symmetry_2
Mn0 O1 1.945689 1_556
Mn0 O4 1.976519 1_556
Mn0 O2 1.983768 1_555
Mn1 O2 2.006762 1_555
Mn1 O3 2.009400 1_565
Mn1 O0 2.014455 1_565
Mn2 O4 1.926546 1_555
Mn2 O1 1.987752 1_555
Mn2 O3 2.007303 1_555
Mn3 O2 1.991359 1_555
Mn3 O3 1.997657 1_655
Mn3 O0 2.009002 1_555
Mn4 O4 1.912915 1_555
Mn5 O1 1.869909 1_556
Mn5 O0 1.922182 1_555
F0 Mn4 2.081187 1_655
F0 Mn3 2.082768 1_555
F0 Mn2 2.187759 1_555
F1 Mn5 2.087139 1_564
F1 Mn4 2.102231 1_655
F1 Mn0 2.125481 1_554
F2 Mn2 2.040754 1_565
F2 Mn4 2.056402 1_655
F2 Mn1 2.155043 1_555
F3 Mn5 2.013149 1_465
F3 Mn0 2.089487 1_555
F3 Mn1 2.150731 1_555
F4 Mn3 2.125223 1_455
F4 Mn4 2.134173 1_555
F4 Mn1 2.273699 1_555
F5 Mn5 2.049685 1_464
F5 Mn4 2.087764 1_555
F5 Mn2 2.223758 1_565
F6 Mn3 2.084104 1_455
F6 Mn0 2.101480 1_555
F6 Mn5 2.147583 1_455
