# generated using pymatgen
data_LiVF3
_symmetry_space_group_name_H-M   'P 1'
_cell_length_a   5.85793789
_cell_length_b   5.85793789
_cell_length_c   5.89149100
_cell_angle_alpha   90.00000000
_cell_angle_beta   90.00000000
_cell_angle_gamma   119.99999881
_symmetry_Int_Tables_number   1
_chemical_formula_structural   LiVF3
_chemical_formula_sum   'Li2 V2 F6'
_cell_volume   175.08356520
_cell_formula_units_Z   2
loop_
 _symmetry_equiv_pos_site_id
 _symmetry_equiv_pos_as_xyz
  1  'x, y, z'
loop_
 _atom_site_type_symbol
 _atom_site_label
 _atom_site_symmetry_multiplicity
 _atom_site_fract_x
 _atom_site_fract_y
 _atom_site_fract_z
 _atom_site_occupancy
  Li  Li0  1  0.66666700  0.33333300  0.75000000  1
  Li  Li1  1  0.33333300  0.66666700  0.25000000  1
  V  V0  1  0.00000000  0.00000000  0.50000000  1
  V  V1  1  0.00000000  0.00000000  0.00000000  1
  F  F0  1  0.30442800  0.15221400  0.75000000  1
  F  F1  1  0.84778600  0.69557200  0.75000000  1
  F  F2  1  0.15221400  0.84778600  0.25000000  1
  F  F3  1  0.84778600  0.15221400  0.75000000  1
  F  F4  1  0.15221400  0.30442800  0.25000000  1
  F  F5  1  0.69557200  0.84778600  0.25000000  1
loop_
_geom_bond_atom_site_label_1
_geom_bond_atom_site_label_2
_geom_bond_distance
_geom_bond_site_symmetry_2
F0 Li0 1.837683 1_555
F0 V0 2.134134 1_555
F0 V1 2.134134 1_556
F1 Li0 1.837683 1_555
F1 V1 2.134134 1_666
F1 V0 2.134134 1_665
F2 Li1 1.837678 1_555
F2 V1 2.134134 1_565
F2 V0 2.134134 1_565
F3 Li0 1.837678 1_555
F3 V0 2.134134 1_655
F3 V1 2.134134 1_656
F4 Li1 1.837683 1_555
F4 V0 2.134134 1_555
F4 V1 2.134134 1_555
F5 Li1 1.837683 1_555
F5 V0 2.134134 1_665
F5 V1 2.134134 1_665
