# generated using pymatgen
data_Li5Mn2Fe(BO3)4
_symmetry_space_group_name_H-M   'P 1'
_cell_length_a   5.29730171
_cell_length_b   9.15901446
_cell_length_c   9.76669312
_cell_angle_alpha   90.00000000
_cell_angle_beta   91.75817102
_cell_angle_gamma   90.00000000
_symmetry_Int_Tables_number   1
_chemical_formula_structural   Li5Mn2Fe(BO3)4
_chemical_formula_sum   'Li10 Mn4 Fe2 B8 O24'
_cell_volume   473.63795019
_cell_formula_units_Z   2
loop_
 _symmetry_equiv_pos_site_id
 _symmetry_equiv_pos_as_xyz
  1  'x, y, z'
loop_
 _atom_site_type_symbol
 _atom_site_label
 _atom_site_symmetry_multiplicity
 _atom_site_fract_x
 _atom_site_fract_y
 _atom_site_fract_z
 _atom_site_occupancy
  Li  Li0  1  0.16214639  0.98531928  0.65136327  1
  Li  Li1  1  0.17114354  0.66870810  0.62935918  1
  Li  Li2  1  0.18382383  0.99533504  0.12079679  1
  Li  Li3  1  0.32726372  0.16862817  0.87293349  1
  Li  Li4  1  0.33854668  0.48372358  0.83878457  1
  Li  Li5  1  0.68382383  0.50466496  0.62079679  1
  Li  Li6  1  0.66214639  0.51468072  0.15136327  1
  Li  Li7  1  0.67114354  0.83129190  0.12935918  1
  Li  Li8  1  0.82726372  0.33137183  0.37293349  1
  Li  Li9  1  0.83854668  0.01627642  0.33878457  1
  Mn  Mn0  1  0.14744493  0.32100022  0.11952383  1
  Mn  Mn1  1  0.35155208  0.83063949  0.37677515  1
  Mn  Mn2  1  0.64744493  0.17899978  0.61952383  1
  Mn  Mn3  1  0.85155208  0.66936051  0.87677515  1
  Fe  Fe0  1  0.32161396  0.49499889  0.39004982  1
  Fe  Fe1  1  0.82161396  0.00500111  0.89004982  1
  B  B0  1  0.16504469  0.32476061  0.61803211  1
  B  B1  1  0.16599405  0.66482047  0.13514801  1
  B  B2  1  0.33331120  0.82467260  0.87893529  1
  B  B3  1  0.33276899  0.16034814  0.36842137  1
  B  B4  1  0.66599405  0.83517953  0.63514801  1
  B  B5  1  0.66504469  0.17523939  0.11803211  1
  B  B6  1  0.83276899  0.33965186  0.86842137  1
  B  B7  1  0.83331120  0.67532740  0.37893529  1
  O  O0  1  0.08779317  0.33548565  0.90896673  1
  O  O1  1  0.09052570  0.66672420  0.41485150  1
  O  O2  1  0.19617579  0.95315959  0.87565364  1
  O  O3  1  0.23174606  0.68922490  0.84664697  1
  O  O4  1  0.20526731  0.29131347  0.33360527  1
  O  O5  1  0.19815807  0.03297947  0.35698762  1
  O  O6  1  0.26589421  0.18908217  0.65370475  1
  O  O7  1  0.31976578  0.44871270  0.61068365  1
  O  O8  1  0.29201656  0.53344517  0.15677790  1
  O  O9  1  0.28838251  0.79595375  0.16899004  1
  O  O10  1  0.41487338  0.83425589  0.58518138  1
  O  O11  1  0.40874941  0.16119227  0.08782768  1
  O  O12  1  0.59052570  0.83327580  0.91485150  1
  O  O13  1  0.58779317  0.16451435  0.40896673  1
  O  O14  1  0.70526731  0.20868653  0.83360527  1
  O  O15  1  0.69815807  0.46702053  0.85698762  1
  O  O16  1  0.69617579  0.54684041  0.37565364  1
  O  O17  1  0.73174606  0.81077510  0.34664697  1
  O  O18  1  0.79201656  0.96655483  0.65677790  1
  O  O19  1  0.78838251  0.70404625  0.66899004  1
  O  O20  1  0.76589421  0.31091783  0.15370475  1
  O  O21  1  0.81976578  0.05128730  0.11068365  1
  O  O22  1  0.90874941  0.33880773  0.58782768  1
  O  O23  1  0.91487338  0.66574411  0.08518138  1
loop_
_geom_bond_atom_site_label_1
_geom_bond_atom_site_label_2
_geom_bond_distance
_geom_bond_site_symmetry_2
Li0 O6 1.945443 1_565
Li0 O18 1.970533 1_455
Li0 O10 2.043903 1_555
Li0 O2 2.212158 1_555
Li1 O10 2.046056 1_555
Li1 O19 2.100928 1_455
Li1 O1 2.125314 1_555
Li1 O3 2.144814 1_555
Li1 O7 2.172994 1_555
Li2 O9 1.961404 1_555
Li2 O11 1.963295 1_565
Li2 O21 1.994969 1_465
Li2 O5 2.331359 1_565
Li2 O2 2.428062 1_554
Li3 O0 2.023860 1_555
Li3 O14 2.083014 1_555
Li3 O2 2.092527 1_545
Li3 O11 2.130811 1_556
Li3 O6 2.163920 1_555
Li4 O15 1.913933 1_555
Li4 O3 1.967557 1_555
Li4 O0 2.033106 1_555
Li4 O7 2.249929 1_555
Li5 O19 1.961404 1_555
Li5 O22 1.963295 1_555
Li5 O7 1.994969 1_555
Li5 O15 2.331359 1_555
Li5 O16 2.428062 1_555
Li6 O20 1.945443 1_555
Li6 O8 1.970533 1_555
Li6 O23 2.043903 1_555
Li6 O16 2.212158 1_555
Li7 O23 2.046056 1_555
Li7 O9 2.100928 1_555
Li7 O12 2.125314 1_554
Li7 O17 2.144814 1_555
Li7 O21 2.172994 1_565
Li8 O13 2.023860 1_555
Li8 O4 2.083014 1_655
Li8 O16 2.092527 1_555
Li8 O22 2.130811 1_555
Li8 O20 2.163920 1_555
Li9 O5 1.913933 1_655
Li9 O17 1.967557 1_545
Li9 O13 2.033106 1_555
Li9 O21 2.249929 1_555
Mn0 O11 2.044634 1_555
Mn0 O20 2.060724 1_455
Mn0 O0 2.075223 1_554
Mn0 O8 2.118462 1_555
Mn0 O4 2.121363 1_555
Mn1 O5 2.030386 1_565
Mn1 O17 2.052378 1_555
Mn1 O10 2.052981 1_555
Mn1 O9 2.071132 1_555
Mn1 O1 2.082238 1_555
Mn2 O22 2.044634 1_555
Mn2 O6 2.060724 1_555
Mn2 O13 2.075223 1_555
Mn2 O18 2.118462 1_545
Mn2 O14 2.121363 1_555
Mn3 O15 2.030386 1_555
Mn3 O3 2.052378 1_655
Mn3 O23 2.052981 1_556
Mn3 O19 2.071132 1_555
Mn3 O12 2.082238 1_555
Fe0 O1 2.012265 1_555
Fe0 O4 2.035489 1_555
Fe0 O16 2.049209 1_555
Fe0 O7 2.196485 1_555
Fe0 O8 2.305925 1_555
Fe1 O12 2.012265 1_545
Fe1 O14 2.035489 1_555
Fe1 O2 2.049209 1_645
Fe1 O21 2.196485 1_556
Fe1 O18 2.305925 1_545
B0 O22 1.386462 1_455
B0 O6 1.392703 1_555
B0 O7 1.403342 1_555
B1 O8 1.389061 1_555
B1 O9 1.399626 1_555
B1 O23 1.402849 1_455
B2 O2 1.382829 1_555
B2 O3 1.384742 1_555
B2 O12 1.398732 1_555
B3 O5 1.370018 1_555
B3 O13 1.396596 1_555
B3 O4 1.412994 1_555
B4 O18 1.389061 1_555
B4 O19 1.399626 1_555
B4 O10 1.402849 1_555
B5 O11 1.386462 1_555
B5 O20 1.392703 1_555
B5 O21 1.403342 1_555
B6 O15 1.370018 1_555
B6 O0 1.396596 1_655
B6 O14 1.412994 1_555
B7 O16 1.382829 1_555
B7 O17 1.384742 1_555
B7 O1 1.398732 1_655
