# generated using pymatgen
data_Li2V2P2O9
_symmetry_space_group_name_H-M   'P 1'
_cell_length_a   5.67306300
_cell_length_b   8.45025200
_cell_length_c   14.53110100
_cell_angle_alpha   90.00000000
_cell_angle_beta   90.00000000
_cell_angle_gamma   90.00000000
_symmetry_Int_Tables_number   1
_chemical_formula_structural   Li2V2P2O9
_chemical_formula_sum   'Li8 V8 P8 O36'
_cell_volume   696.60371844
_cell_formula_units_Z   4
loop_
 _symmetry_equiv_pos_site_id
 _symmetry_equiv_pos_as_xyz
  1  'x, y, z'
loop_
 _atom_site_type_symbol
 _atom_site_label
 _atom_site_symmetry_multiplicity
 _atom_site_fract_x
 _atom_site_fract_y
 _atom_site_fract_z
 _atom_site_occupancy
  Li  Li0  1  0.75000000  0.52163000  0.73889100  1
  Li  Li1  1  0.75000000  0.51980700  0.12867500  1
  Li  Li2  1  0.25000000  0.98019300  0.62867500  1
  Li  Li3  1  0.25000000  0.97837000  0.23889100  1
  Li  Li4  1  0.75000000  0.02163000  0.76110900  1
  Li  Li5  1  0.75000000  0.01980700  0.37132500  1
  Li  Li6  1  0.25000000  0.48019300  0.87132500  1
  Li  Li7  1  0.25000000  0.47837000  0.26110900  1
  V  V0  1  0.50000000  0.50000000  0.50000000  1
  V  V1  1  0.00000000  0.50000000  0.50000000  1
  V  V2  1  0.75000000  0.70697100  0.93619300  1
  V  V3  1  0.25000000  0.79302900  0.43619300  1
  V  V4  1  0.50000000  0.00000000  0.00000000  1
  V  V5  1  0.00000000  0.00000000  0.00000000  1
  V  V6  1  0.75000000  0.20697100  0.56380700  1
  V  V7  1  0.25000000  0.29302900  0.06380700  1
  P  P0  1  0.25000000  0.67145900  0.07038800  1
  P  P1  1  0.75000000  0.70782200  0.32997100  1
  P  P2  1  0.25000000  0.79217800  0.82997100  1
  P  P3  1  0.75000000  0.82854100  0.57038800  1
  P  P4  1  0.25000000  0.17145900  0.42961200  1
  P  P5  1  0.75000000  0.20782200  0.17002900  1
  P  P6  1  0.25000000  0.29217800  0.67002900  1
  P  P7  1  0.75000000  0.32854100  0.92961200  1
  O  O0  1  0.75000000  0.48822600  0.98364000  1
  O  O1  1  0.75000000  0.56597900  0.40562700  1
  O  O2  1  0.25000000  0.56104400  0.41315500  1
  O  O3  1  0.75000000  0.63121100  0.23759900  1
  O  O4  1  0.25000000  0.64899800  0.17270500  1
  O  O5  1  0.03042600  0.68299400  0.84787100  1
  O  O6  1  0.46957400  0.68299400  0.84787100  1
  O  O7  1  0.51899300  0.73725200  0.53816600  1
  O  O8  1  0.98100700  0.73725200  0.53816600  1
  O  O9  1  0.01899300  0.76274800  0.03816600  1
  O  O10  1  0.48100700  0.76274800  0.03816600  1
  O  O11  1  0.53042600  0.81700600  0.34787100  1
  O  O12  1  0.96957400  0.81700600  0.34787100  1
  O  O13  1  0.75000000  0.85100200  0.67270500  1
  O  O14  1  0.25000000  0.86878900  0.73759900  1
  O  O15  1  0.75000000  0.93895600  0.91315500  1
  O  O16  1  0.25000000  0.93402100  0.90562700  1
  O  O17  1  0.25000000  0.01177400  0.48364000  1
  O  O18  1  0.75000000  0.98822600  0.51636000  1
  O  O19  1  0.75000000  0.06597900  0.09437300  1
  O  O20  1  0.25000000  0.06104400  0.08684500  1
  O  O21  1  0.75000000  0.13121100  0.26240100  1
  O  O22  1  0.25000000  0.14899800  0.32729500  1
  O  O23  1  0.03042600  0.18299400  0.65212900  1
  O  O24  1  0.46957400  0.18299400  0.65212900  1
  O  O25  1  0.51899300  0.23725200  0.96183400  1
  O  O26  1  0.98100700  0.23725200  0.96183400  1
  O  O27  1  0.01899300  0.26274800  0.46183400  1
  O  O28  1  0.48100700  0.26274800  0.46183400  1
  O  O29  1  0.53042600  0.31700600  0.15212900  1
  O  O30  1  0.96957400  0.31700600  0.15212900  1
  O  O31  1  0.75000000  0.35100200  0.82729500  1
  O  O32  1  0.25000000  0.36878900  0.76240100  1
  O  O33  1  0.75000000  0.43895600  0.58684500  1
  O  O34  1  0.25000000  0.43402100  0.59437300  1
  O  O35  1  0.25000000  0.51177400  0.01636000  1
loop_
_geom_bond_atom_site_label_1
_geom_bond_atom_site_label_2
_geom_bond_distance
_geom_bond_site_symmetry_2
Li0 O31 1.931100 1_555
Li0 O33 2.317217 1_555
Li1 O3 1.841583 1_555
Li1 O0 2.124347 1_554
Li1 O30 2.145845 1_555
Li1 O29 2.145845 1_555
Li2 O14 1.841583 1_555
Li2 O17 2.124347 1_565
Li2 O24 2.145845 1_565
Li2 O23 2.145845 1_565
Li3 O22 1.931100 1_565
Li3 O20 2.317217 1_565
Li4 O13 1.931100 1_545
Li4 O15 2.317217 1_545
Li5 O21 1.841583 1_555
Li5 O18 2.124347 1_545
Li5 O12 2.145845 1_545
Li5 O11 2.145845 1_545
Li6 O32 1.841583 1_555
Li6 O35 2.124347 1_556
Li6 O6 2.145845 1_555
Li6 O5 2.145845 1_555
Li7 O4 1.931100 1_555
Li7 O2 2.317217 1_555
O0 P7 1.561148 1_555
O0 V2 1.972846 1_555
O1 P1 1.626428 1_555
O1 V0 2.050100 1_555
O1 V1 2.050100 1_655
O2 V0 1.967255 1_555
O2 V1 1.967255 1_555
O2 V3 1.988711 1_555
O3 P1 1.490230 1_555
O4 P0 1.498845 1_555
O5 P2 1.571804 1_555
O5 V2 2.054042 1_455
O6 P2 1.571804 1_555
O6 V2 2.054042 1_555
O7 P3 1.591153 1_555
O7 V0 2.082922 1_555
O7 V3 2.178656 1_555
O8 P3 1.591153 1_555
O8 V1 2.082922 1_655
O8 V3 2.178656 1_655
O9 P0 1.591153 1_555
O9 V5 2.082922 1_565
O9 V2 2.178656 1_454
O10 P0 1.591153 1_555
O10 V4 2.082922 1_565
O10 V2 2.178656 1_554
O11 P1 1.571804 1_555
O11 V3 2.054042 1_555
O12 P1 1.571804 1_555
O12 V3 2.054042 1_655
O13 P3 1.498845 1_555
O14 P2 1.490230 1_555
O15 V5 1.967255 1_666
O15 V4 1.967255 1_566
O15 V2 1.988711 1_555
O16 P2 1.626428 1_555
O16 V5 2.050100 1_566
O16 V4 2.050100 1_566
O17 P4 1.561148 1_555
O17 V3 1.972846 1_545
O18 P3 1.561148 1_555
O18 V6 1.972846 1_565
O19 P5 1.626428 1_555
O19 V5 2.050100 1_655
O19 V4 2.050100 1_555
O20 V4 1.967255 1_555
O20 V5 1.967255 1_555
O20 V7 1.988711 1_555
O21 P5 1.490230 1_555
O22 P4 1.498845 1_555
O23 P6 1.571804 1_555
O23 V6 2.054042 1_455
O24 P6 1.571804 1_555
O24 V6 2.054042 1_555
O25 P7 1.591153 1_555
O25 V4 2.082922 1_556
O25 V7 2.178656 1_556
O26 P7 1.591153 1_555
O26 V5 2.082922 1_656
O26 V7 2.178656 1_656
O27 P4 1.591153 1_555
O27 V1 2.082922 1_555
O27 V6 2.178656 1_455
O28 P4 1.591153 1_555
O28 V0 2.082922 1_555
O28 V6 2.178656 1_555
O29 P5 1.571804 1_555
O29 V7 2.054042 1_555
O30 P5 1.571804 1_555
O30 V7 2.054042 1_655
O31 P7 1.498845 1_555
O32 P6 1.490230 1_555
O33 V0 1.967255 1_555
O33 V1 1.967255 1_655
O33 V6 1.988711 1_555
O34 P6 1.626428 1_555
O34 V0 2.050100 1_555
O34 V1 2.050100 1_555
O35 P0 1.561148 1_555
O35 V7 1.972846 1_555
