# generated using pymatgen
data_Li2V(CO3)2
_symmetry_space_group_name_H-M   'P 1'
_cell_length_a   4.89686985
_cell_length_b   6.41714202
_cell_length_c   8.33655780
_cell_angle_alpha   90.00469158
_cell_angle_beta   87.52095463
_cell_angle_gamma   89.99331597
_symmetry_Int_Tables_number   1
_chemical_formula_structural   Li2V(CO3)2
_chemical_formula_sum   'Li4 V2 C4 O12'
_cell_volume   261.72206027
_cell_formula_units_Z   2
loop_
 _symmetry_equiv_pos_site_id
 _symmetry_equiv_pos_as_xyz
  1  'x, y, z'
loop_
 _atom_site_type_symbol
 _atom_site_label
 _atom_site_symmetry_multiplicity
 _atom_site_fract_x
 _atom_site_fract_y
 _atom_site_fract_z
 _atom_site_occupancy
  Li  Li0  1  0.01842700  0.27513100  0.66697800  1
  Li  Li1  1  0.48152700  0.77516300  0.83298900  1
  Li  Li2  1  0.51839200  0.22486700  0.16699800  1
  Li  Li3  1  0.98156100  0.72483100  0.33298200  1
  V  V0  1  0.99992900  0.99983600  0.00014300  1
  V  V1  1  0.50002100  0.50010500  0.50002400  1
  C  C0  1  0.01362800  0.27526500  0.32341700  1
  C  C1  1  0.48634800  0.77522300  0.17659900  1
  C  C2  1  0.51362900  0.22476100  0.82340100  1
  C  C3  1  0.98636800  0.72477200  0.67656900  1
  O  O0  1  0.13089600  0.19049700  0.19703200  1
  O  O1  1  0.15366500  0.30272500  0.45040900  1
  O  O2  1  0.25924200  0.16703400  0.82268200  1
  O  O3  1  0.24078900  0.66711900  0.67727800  1
  O  O4  1  0.34634600  0.80268800  0.04958200  1
  O  O5  1  0.36910200  0.69056100  0.30296400  1
  O  O6  1  0.63091400  0.30949600  0.69700000  1
  O  O7  1  0.65368400  0.19729000  0.95042500  1
  O  O8  1  0.75921400  0.33297500  0.32268900  1
  O  O9  1  0.74081100  0.83286600  0.17730500  1
  O  O10  1  0.84634300  0.69731800  0.54956700  1
  O  O11  1  0.86916400  0.80947300  0.80296700  1
loop_
_geom_bond_atom_site_label_1
_geom_bond_atom_site_label_2
_geom_bond_distance
_geom_bond_site_symmetry_2
Li0 O1 1.904254 1_555
Li0 O6 1.915977 1_455
Li0 O2 1.920692 1_555
Li1 O4 1.904272 1_556
Li1 O11 1.916590 1_555
Li1 O3 1.920391 1_555
Li2 O7 1.904314 1_554
Li2 O0 1.915963 1_555
Li2 O8 1.920686 1_555
Li3 O10 1.904300 1_555
Li3 O5 1.916039 1_655
Li3 O9 1.920186 1_555
C0 O0 1.297405 1_555
C0 O1 1.298033 1_555
C0 O8 1.299934 1_455
C1 O5 1.297072 1_555
C1 O4 1.298118 1_555
C1 O9 1.300116 1_555
C2 O6 1.297584 1_555
C2 O7 1.298318 1_555
C2 O2 1.299917 1_555
C3 O11 1.297183 1_555
C3 O10 1.298065 1_555
C3 O3 1.299855 1_655
O0 V0 2.166399 1_445
O1 V1 2.170972 1_555
O2 V0 2.188690 1_446
O3 V1 2.186506 1_555
O4 V0 2.169819 1_455
O5 V1 2.166746 1_555
O6 V1 2.166718 1_555
O7 V0 2.170821 1_546
O8 V1 2.187205 1_555
O9 V0 2.185824 1_555
O10 V1 2.170080 1_555
O11 V0 2.166840 1_556
