# generated using pymatgen
data_LiCr2O4
_symmetry_space_group_name_H-M   'P 1'
_cell_length_a   5.95719800
_cell_length_b   5.95719800
_cell_length_c   8.30186000
_cell_angle_alpha   90.00000000
_cell_angle_beta   90.00000000
_cell_angle_gamma   90.00000000
_symmetry_Int_Tables_number   1
_chemical_formula_structural   LiCr2O4
_chemical_formula_sum   'Li4 Cr8 O16'
_cell_volume   294.61813456
_cell_formula_units_Z   4
loop_
 _symmetry_equiv_pos_site_id
 _symmetry_equiv_pos_as_xyz
  1  'x, y, z'
loop_
 _atom_site_type_symbol
 _atom_site_label
 _atom_site_symmetry_multiplicity
 _atom_site_fract_x
 _atom_site_fract_y
 _atom_site_fract_z
 _atom_site_occupancy
  Li  Li0  1  0.25281800  0.25281800  0.12500000  1
  Li  Li1  1  0.25281800  0.74718200  0.37500000  1
  Li  Li2  1  0.74718200  0.25281800  0.87500000  1
  Li  Li3  1  0.74718200  0.74718200  0.62500000  1
  Cr  Cr0  1  0.24467000  0.50000000  0.75000000  1
  Cr  Cr1  1  0.00000000  0.75035700  0.00000000  1
  Cr  Cr2  1  0.50000000  0.24467000  0.50000000  1
  Cr  Cr3  1  0.75035700  0.00000000  0.25000000  1
  Cr  Cr4  1  0.24964300  0.00000000  0.75000000  1
  Cr  Cr5  1  0.50000000  0.75533000  0.00000000  1
  Cr  Cr6  1  0.00000000  0.24964300  0.50000000  1
  Cr  Cr7  1  0.75533000  0.50000000  0.25000000  1
  O  O0  1  0.24414100  0.46561000  0.50737900  1
  O  O1  1  0.46561000  0.24414100  0.74262100  1
  O  O2  1  0.75721100  0.98048500  0.01734500  1
  O  O3  1  0.24414100  0.53439000  0.99262100  1
  O  O4  1  0.98048500  0.75721100  0.23265500  1
  O  O5  1  0.01951500  0.75721100  0.76734500  1
  O  O6  1  0.75721100  0.01951500  0.48265500  1
  O  O7  1  0.53439000  0.24414100  0.25737900  1
  O  O8  1  0.46561000  0.75585900  0.75737900  1
  O  O9  1  0.24278900  0.98048500  0.98265500  1
  O  O10  1  0.98048500  0.24278900  0.26734500  1
  O  O11  1  0.01951500  0.24278900  0.73265500  1
  O  O12  1  0.75585900  0.46561000  0.49262100  1
  O  O13  1  0.24278900  0.01951500  0.51734500  1
  O  O14  1  0.53439000  0.75585900  0.24262100  1
  O  O15  1  0.75585900  0.53439000  0.00737900  1
loop_
_geom_bond_atom_site_label_1
_geom_bond_atom_site_label_2
_geom_bond_distance
_geom_bond_site_symmetry_2
Li0 O7 2.006006 1_555
Li0 O3 2.006006 1_554
Li0 O10 2.007995 1_455
Li0 O9 2.007995 1_544
Li1 O0 2.006006 1_555
Li1 O14 2.006006 1_555
Li1 O13 2.007995 1_565
Li1 O4 2.007995 1_455
Li2 O15 2.006006 1_556
Li2 O1 2.006006 1_555
Li2 O11 2.007995 1_655
Li2 O2 2.007995 1_546
Li3 O8 2.006006 1_555
Li3 O12 2.006006 1_555
Li3 O5 2.007995 1_655
Li3 O6 2.007995 1_565
Cr0 O8 2.014767 1_555
Cr0 O1 2.014767 1_555
Cr0 O3 2.024600 1_555
Cr0 O0 2.024600 1_555
Cr0 O5 2.041473 1_555
Cr0 O11 2.041473 1_555
Cr1 O4 1.935395 1_455
Cr1 O5 1.935395 1_554
Cr1 O3 1.942744 1_554
Cr1 O15 1.942744 1_455
Cr1 O9 1.998013 1_554
Cr1 O2 1.998013 1_455
Cr2 O12 2.014767 1_555
Cr2 O0 2.014767 1_555
Cr2 O1 2.024600 1_555
Cr2 O7 2.024600 1_555
Cr2 O6 2.041473 1_555
Cr2 O13 2.041473 1_555
Cr3 O6 1.935395 1_555
Cr3 O2 1.935395 1_545
Cr3 O7 1.942744 1_555
Cr3 O14 1.942744 1_545
Cr3 O10 1.998013 1_555
Cr3 O4 1.998013 1_545
Cr4 O9 1.935395 1_545
Cr4 O13 1.935395 1_555
Cr4 O8 1.942744 1_545
Cr4 O1 1.942744 1_555
Cr4 O11 1.998013 1_555
Cr4 O5 1.998013 1_545
Cr5 O15 2.014767 1_555
Cr5 O3 2.014767 1_554
Cr5 O14 2.024600 1_555
Cr5 O8 2.024600 1_554
Cr5 O2 2.041473 1_555
Cr5 O9 2.041473 1_554
Cr6 O11 1.935395 1_555
Cr6 O10 1.935395 1_455
Cr6 O0 1.942744 1_555
Cr6 O12 1.942744 1_455
Cr6 O13 1.998013 1_555
Cr6 O6 1.998013 1_455
Cr7 O14 2.014767 1_555
Cr7 O7 2.014767 1_555
Cr7 O12 2.024600 1_555
Cr7 O15 2.024600 1_555
Cr7 O4 2.041473 1_555
Cr7 O10 2.041473 1_555
