# generated using pymatgen
data_Si6C8N2Cl4O3
_symmetry_space_group_name_H-M   'P 1'
_cell_length_a   10.06758400
_cell_length_b   14.93512400
_cell_length_c   19.40011701
_cell_angle_alpha   72.58134351
_cell_angle_beta   90.00000000
_cell_angle_gamma   90.00000000
_symmetry_Int_Tables_number   1
_chemical_formula_structural   Si6C8N2Cl4O3
_chemical_formula_sum   'Si24 C32 N8 Cl16 O12'
_cell_volume   2783.24776597
_cell_formula_units_Z   4
loop_
 _symmetry_equiv_pos_site_id
 _symmetry_equiv_pos_as_xyz
  1  'x, y, z'
loop_
 _atom_site_type_symbol
 _atom_site_label
 _atom_site_symmetry_multiplicity
 _atom_site_fract_x
 _atom_site_fract_y
 _atom_site_fract_z
 _atom_site_occupancy
  Si  Si0  1  0.41845300  0.24746700  0.20216000  1
  Si  Si1  1  0.91845300  0.75253300  0.29784000  1
  Si  Si2  1  0.58154700  0.75253300  0.79784000  1
  Si  Si3  1  0.08154700  0.24746700  0.70216000  1
  Si  Si4  1  0.45047100  0.20978500  0.05968900  1
  Si  Si5  1  0.95047100  0.79021500  0.44031100  1
  Si  Si6  1  0.54952900  0.79021500  0.94031100  1
  Si  Si7  1  0.04952900  0.20978500  0.55968900  1
  Si  Si8  1  0.21409900  0.31610900  0.08624700  1
  Si  Si9  1  0.71409900  0.68389100  0.41375300  1
  Si  Si10  1  0.78590100  0.68389100  0.91375300  1
  Si  Si11  1  0.28590100  0.31610900  0.58624700  1
  Si  Si12  1  0.52288900  0.25201200  0.31563600  1
  Si  Si13  1  0.02288900  0.74798800  0.18436400  1
  Si  Si14  1  0.47711100  0.74798800  0.68436400  1
  Si  Si15  1  0.97711100  0.25201200  0.81563600  1
  Si  Si16  1  0.28232900  0.11995400  0.35608300  1
  Si  Si17  1  0.78232900  0.88004600  0.14391700  1
  Si  Si18  1  0.71767100  0.88004600  0.64391700  1
  Si  Si19  1  0.21767100  0.11995400  0.85608300  1
  Si  Si20  1  0.65034100  0.39371900  0.16495800  1
  Si  Si21  1  0.15034100  0.60628100  0.33504200  1
  Si  Si22  1  0.34965900  0.60628100  0.83504200  1
  Si  Si23  1  0.84965900  0.39371900  0.66495800  1
  C  C0  1  0.63448400  0.22300800  0.39251500  1
  C  C1  1  0.13448400  0.77699200  0.10748500  1
  C  C2  1  0.36551600  0.77699200  0.60748500  1
  C  C3  1  0.86551600  0.22300800  0.89251500  1
  C  C4  1  0.53966700  0.27408800  0.40277000  1
  C  C5  1  0.03966700  0.72591200  0.09723000  1
  C  C6  1  0.46033300  0.72591200  0.59723000  1
  C  C7  1  0.96033300  0.27408800  0.90277000  1
  C  C8  1  0.28833800  0.98287800  0.36890300  1
  C  C9  1  0.78833800  0.01712200  0.13109700  1
  C  C10  1  0.71166200  0.01712200  0.63109700  1
  C  C11  1  0.21166200  0.98287800  0.86890300  1
  C  C12  1  0.20810400  0.00210500  0.30978000  1
  C  C13  1  0.70810400  0.99789500  0.19022000  1
  C  C14  1  0.79189600  0.99789500  0.69022000  1
  C  C15  1  0.29189600  0.00210500  0.80978000  1
  C  C16  1  0.13260400  0.07748900  0.31032500  1
  C  C17  1  0.63260400  0.92251100  0.18967500  1
  C  C18  1  0.86739600  0.92251100  0.68967500  1
  C  C19  1  0.36739600  0.07748900  0.81032500  1
  C  C20  1  0.71828800  0.50758600  0.21677500  1
  C  C21  1  0.21828800  0.49241400  0.28322500  1
  C  C22  1  0.28171200  0.49241400  0.78322500  1
  C  C23  1  0.78171200  0.50758600  0.71677500  1
  C  C24  1  0.63030500  0.52764600  0.16100000  1
  C  C25  1  0.13030500  0.47235400  0.33900000  1
  C  C26  1  0.36969500  0.47235400  0.83900000  1
  C  C27  1  0.86969500  0.52764600  0.66100000  1
  C  C28  1  0.80014000  0.43858800  0.20927600  1
  C  C29  1  0.30014000  0.56141200  0.29072400  1
  C  C30  1  0.19986000  0.56141200  0.79072400  1
  C  C31  1  0.69986000  0.43858800  0.70927600  1
  N  N0  1  0.39961200  0.18429500  0.29315200  1
  N  N1  1  0.89961200  0.81570500  0.20684800  1
  N  N2  1  0.60038800  0.81570500  0.70684800  1
  N  N3  1  0.10038800  0.18429500  0.79315200  1
  N  N4  1  0.54211400  0.31692500  0.22614000  1
  N  N5  1  0.04211400  0.68307500  0.27386000  1
  N  N6  1  0.45788600  0.68307500  0.77386000  1
  N  N7  1  0.95788600  0.31692500  0.72614000  1
  Cl  Cl0  1  0.41557300  0.08473500  0.04252000  1
  Cl  Cl1  1  0.91557300  0.91526500  0.45748000  1
  Cl  Cl2  1  0.58442700  0.91526500  0.95748000  1
  Cl  Cl3  1  0.08442700  0.08473500  0.54252000  1
  Cl  Cl4  1  0.61012100  0.27171800  0.00145000  1
  Cl  Cl5  1  0.11012100  0.72828200  0.49855000  1
  Cl  Cl6  1  0.38987900  0.72828200  0.99855000  1
  Cl  Cl7  1  0.88987900  0.27171800  0.50145000  1
  Cl  Cl8  1  0.04456600  0.24015200  0.09693100  1
  Cl  Cl9  1  0.54456600  0.75984800  0.40306900  1
  Cl  Cl10  1  0.95543400  0.75984800  0.90306900  1
  Cl  Cl11  1  0.45543400  0.24015200  0.59693100  1
  Cl  Cl12  1  0.17553700  0.45415000  0.04193400  1
  Cl  Cl13  1  0.67553700  0.54585000  0.45806600  1
  Cl  Cl14  1  0.82446300  0.54585000  0.95806600  1
  Cl  Cl15  1  0.32446300  0.45415000  0.54193400  1
  O  O0  1  0.47759300  0.19347700  0.14651600  1
  O  O1  1  0.97759300  0.80652300  0.35348400  1
  O  O2  1  0.52240700  0.80652300  0.85348400  1
  O  O3  1  0.02240700  0.19347700  0.64651600  1
  O  O4  1  0.32070900  0.27897600  0.03681000  1
  O  O5  1  0.82070900  0.72102400  0.46319000  1
  O  O6  1  0.67929100  0.72102400  0.96319000  1
  O  O7  1  0.17929100  0.27897600  0.53681000  1
  O  O8  1  0.28248600  0.30128200  0.16612300  1
  O  O9  1  0.78248600  0.69871800  0.33387700  1
  O  O10  1  0.71751400  0.69871800  0.83387700  1
  O  O11  1  0.21751400  0.30128200  0.66612300  1
loop_
_geom_bond_atom_site_label_1
_geom_bond_atom_site_label_2
_geom_bond_distance
_geom_bond_site_symmetry_2
C0 C4 1.274230 1_555
C0 Si12 1.813155 1_555
C1 C5 1.274230 1_555
C1 Si13 1.813155 1_555
C2 C6 1.274230 1_555
C2 Si14 1.813155 1_555
C3 C7 1.274230 1_555
C3 Si15 1.813155 1_555
C4 Si12 1.824392 1_555
C5 Si13 1.824392 1_555
C6 Si14 1.824392 1_555
C7 Si15 1.824392 1_555
C8 Si16 1.987937 1_565
C9 Si17 1.987937 1_545
C10 C14 1.361374 1_545
C10 Si18 1.987937 1_545
C11 C15 1.361374 1_565
C11 Si19 1.987937 1_565
C12 C16 1.361094 1_555
C12 C8 1.361374 1_545
C13 C17 1.361094 1_555
C13 C9 1.361374 1_565
C14 C18 1.361094 1_555
C15 C19 1.361094 1_555
C16 Si16 1.949230 1_555
C17 Si17 1.949230 1_555
C18 Si18 1.949230 1_555
C19 Si19 1.949230 1_555
C20 C24 1.360546 1_555
C20 C28 1.360845 1_555
C21 C25 1.360546 1_555
C21 C29 1.360845 1_555
C22 C26 1.360546 1_555
C22 C30 1.360845 1_555
C23 C27 1.360546 1_555
C23 C31 1.360845 1_555
C24 Si20 1.988843 1_555
C25 Si21 1.988843 1_555
C26 Si22 1.988843 1_555
C27 Si23 1.988843 1_555
C28 Si20 1.951316 1_555
C29 Si21 1.951316 1_555
C30 Si22 1.951316 1_555
C31 Si23 1.951316 1_555
N0 Si12 1.737114 1_555
N0 Si0 1.745031 1_555
N0 Si16 1.762307 1_555
N1 Si13 1.737114 1_655
N1 Si1 1.745031 1_555
N1 Si17 1.762307 1_555
N2 Si14 1.737114 1_555
N2 Si2 1.745031 1_555
N2 Si18 1.762307 1_555
N3 Si15 1.737114 1_455
N3 Si3 1.745031 1_555
N3 Si19 1.762307 1_555
N4 Si12 1.727454 1_555
N4 Si20 1.759666 1_555
N4 Si0 1.769583 1_555
N5 Si13 1.727454 1_555
N5 Si21 1.759666 1_555
N5 Si1 1.769583 1_455
N6 Si14 1.727454 1_555
N6 Si22 1.759666 1_555
N6 Si2 1.769583 1_555
N7 Si15 1.727454 1_555
N7 Si23 1.759666 1_555
N7 Si3 1.769583 1_655
Cl0 Si4 2.023583 1_555
Cl1 Si5 2.023583 1_555
Cl2 Si6 2.023583 1_555
Cl3 Si7 2.023583 1_555
Cl4 Si4 2.022330 1_555
Cl5 Si5 2.022330 1_455
Cl6 Si6 2.022330 1_555
Cl7 Si7 2.022330 1_655
Cl8 Si8 2.025398 1_555
Cl9 Si9 2.025398 1_555
Cl10 Si10 2.025398 1_555
Cl11 Si11 2.025398 1_555
Cl12 Si8 2.019675 1_555
Cl13 Si9 2.019675 1_555
Cl14 Si10 2.019675 1_555
Cl15 Si11 2.019675 1_555
O0 Si0 1.640474 1_555
O0 Si4 1.650950 1_555
O1 Si1 1.640474 1_555
O1 Si5 1.650950 1_555
O2 Si2 1.640474 1_555
O2 Si6 1.650950 1_555
O3 Si3 1.640474 1_555
O3 Si7 1.650950 1_555
O4 Si4 1.642231 1_555
O4 Si8 1.642510 1_555
O5 Si5 1.642231 1_555
O5 Si9 1.642510 1_555
O6 Si6 1.642231 1_555
O6 Si10 1.642510 1_555
O7 Si7 1.642231 1_555
O7 Si11 1.642510 1_555
O8 Si0 1.634662 1_555
O8 Si8 1.648904 1_555
O9 Si1 1.634662 1_555
O9 Si9 1.648904 1_555
O10 Si2 1.634662 1_555
O10 Si10 1.648904 1_555
O11 Si3 1.634662 1_555
O11 Si11 1.648904 1_555
