# generated using pymatgen
data_V3(O2F)2
_symmetry_space_group_name_H-M   'P 1'
_cell_length_a   5.61788200
_cell_length_b   5.61748289
_cell_length_c   7.11070881
_cell_angle_alpha   73.53311983
_cell_angle_beta   73.50294476
_cell_angle_gamma   76.08437437
_symmetry_Int_Tables_number   1
_chemical_formula_structural   V3(O2F)2
_chemical_formula_sum   'V6 O8 F4'
_cell_volume   203.19158181
_cell_formula_units_Z   2
loop_
 _symmetry_equiv_pos_site_id
 _symmetry_equiv_pos_as_xyz
  1  'x, y, z'
loop_
 _atom_site_type_symbol
 _atom_site_label
 _atom_site_symmetry_multiplicity
 _atom_site_fract_x
 _atom_site_fract_y
 _atom_site_fract_z
 _atom_site_occupancy
  V  V0  1  0.50000000  0.50000000  0.50000000  1
  V  V1  1  0.20938200  0.12262400  0.33403500  1
  V  V2  1  0.50000000  0.50000000  0.00000000  1
  V  V3  1  0.17350900  0.16768100  0.82965000  1
  V  V4  1  0.82649100  0.83231900  0.17035000  1
  V  V5  1  0.79061800  0.87737600  0.66596500  1
  O  O0  1  0.06385700  0.06683600  0.62754400  1
  O  O1  1  0.39537800  0.39192400  0.30077300  1
  O  O2  1  0.73441100  0.73764900  0.96140000  1
  O  O3  1  0.93614300  0.93316400  0.37245600  1
  O  O4  1  0.60462200  0.60807600  0.69922700  1
  O  O5  1  0.26558900  0.26235100  0.03860000  1
  O  O6  1  0.46817900  0.86271600  0.33299200  1
  O  O7  1  0.53182100  0.13728400  0.66700800  1
  F  F0  1  0.86526100  0.46644300  0.33068800  1
  F  F1  1  0.19371000  0.80322900  0.00222900  1
  F  F2  1  0.13473900  0.53355700  0.66931200  1
  F  F3  1  0.80629000  0.19677100  0.99777100  1
loop_
_geom_bond_atom_site_label_1
_geom_bond_atom_site_label_2
_geom_bond_distance
_geom_bond_site_symmetry_2
O0 V3 1.974301 1_555
O0 V1 1.976307 1_555
O0 V5 1.986561 1_445
O1 V0 1.962914 1_555
O1 V1 1.963006 1_555
O1 V2 2.002430 1_555
O2 V4 1.942869 1_556
O2 V5 1.984095 1_555
O2 V2 2.006071 1_556
O3 V4 1.974301 1_555
O3 V5 1.976307 1_555
O3 V1 1.986561 1_665
O4 V0 1.962914 1_555
O4 V5 1.963006 1_555
O4 V2 2.002430 1_556
O5 V3 1.942869 1_554
O5 V1 1.984095 1_555
O5 V2 2.006071 1_555
O6 V1 1.795704 1_565
O6 V4 2.010753 1_555
O6 V0 2.041429 1_555
O7 V5 1.795704 1_545
O7 V3 2.010753 1_555
O7 V0 2.041429 1_555
F0 V4 2.041771 1_555
F0 V0 2.057964 1_555
F0 V1 2.381679 1_655
F1 V3 2.062346 1_564
F1 V4 2.063909 1_455
F1 V2 2.110123 1_555
F2 V3 2.041771 1_555
F2 V0 2.057964 1_555
F2 V5 2.381679 1_455
F3 V4 2.062346 1_546
F3 V3 2.063909 1_655
F3 V2 2.110123 1_556
