# generated using pymatgen
data_Mn6OF11
_symmetry_space_group_name_H-M   'P 1'
_cell_length_a   5.28401579
_cell_length_b   5.28401579
_cell_length_c   15.57780259
_cell_angle_alpha   87.89075224
_cell_angle_beta   87.89075224
_cell_angle_gamma   88.53846205
_symmetry_Int_Tables_number   1
_chemical_formula_structural   Mn6OF11
_chemical_formula_sum   'Mn12 O2 F22'
_cell_volume   434.22884811
_cell_formula_units_Z   2
loop_
 _symmetry_equiv_pos_site_id
 _symmetry_equiv_pos_as_xyz
  1  'x, y, z'
loop_
 _atom_site_type_symbol
 _atom_site_label
 _atom_site_symmetry_multiplicity
 _atom_site_fract_x
 _atom_site_fract_y
 _atom_site_fract_z
 _atom_site_occupancy
  Mn  Mn0  1  0.69348800  0.69348800  0.00030000  1
  Mn  Mn1  1  0.26755800  0.76428700  0.16319000  1
  Mn  Mn2  1  0.75035000  0.75035000  0.33047800  1
  Mn  Mn3  1  0.24892000  0.75108000  0.50000000  1
  Mn  Mn4  1  0.74187200  0.74187200  0.66718500  1
  Mn  Mn5  1  0.23571300  0.73244200  0.83681000  1
  Mn  Mn6  1  0.76428700  0.26755800  0.16319000  1
  Mn  Mn7  1  0.30651200  0.30651200  0.99970000  1
  Mn  Mn8  1  0.24965000  0.24965000  0.66952200  1
  Mn  Mn9  1  0.75108000  0.24892000  0.50000000  1
  Mn  Mn10  1  0.25812800  0.25812800  0.33281500  1
  Mn  Mn11  1  0.73244200  0.23571300  0.83681000  1
  O  O0  1  0.50654600  0.50654600  0.91900300  1
  O  O1  1  0.49345400  0.49345400  0.08099700  1
  F  F0  1  0.52305600  0.52305600  0.25014300  1
  F  F1  1  0.98271500  0.60435200  0.08125100  1
  F  F2  1  0.51708300  0.51708300  0.58211700  1
  F  F3  1  0.98341600  0.51956500  0.41692700  1
  F  F4  1  0.97626600  0.52493800  0.75507400  1
  F  F5  1  0.02373400  0.47506200  0.24492600  1
  F  F6  1  0.01658400  0.48043500  0.58307300  1
  F  F7  1  0.01728500  0.39564800  0.91874900  1
  F  F8  1  0.47694400  0.47694400  0.74985700  1
  F  F9  1  0.48291700  0.48291700  0.41788300  1
  F  F10  1  0.39564800  0.01728500  0.91874900  1
  F  F11  1  0.48043500  0.01658400  0.58307300  1
  F  F12  1  0.47506200  0.02373400  0.24492600  1
  F  F13  1  0.11080000  0.11080000  0.08407900  1
  F  F14  1  0.01848000  0.01848000  0.41455900  1
  F  F15  1  0.02508300  0.02508300  0.75778800  1
  F  F16  1  0.51956500  0.98341600  0.41692700  1
  F  F17  1  0.60435200  0.98271500  0.08125100  1
  F  F18  1  0.52493800  0.97626600  0.75507400  1
  F  F19  1  0.98152000  0.98152000  0.58544100  1
  F  F20  1  0.88920000  0.88920000  0.91592100  1
  F  F21  1  0.97491700  0.97491700  0.24221200  1
loop_
_geom_bond_atom_site_label_1
_geom_bond_atom_site_label_2
_geom_bond_distance
_geom_bond_site_symmetry_2
Mn0 O1 1.917305 1_555
Mn0 O0 1.946613 1_554
Mn1 O1 2.246644 1_555
Mn5 O0 2.246644 1_555
Mn6 O1 2.246644 1_555
Mn7 O0 1.917305 1_555
Mn7 O1 1.946613 1_556
Mn11 O0 2.246644 1_555
F0 Mn2 2.178506 1_555
F0 Mn1 2.280774 1_555
F0 Mn6 2.280774 1_555
F0 Mn10 2.326468 1_555
F1 Mn0 2.051614 1_555
F1 Mn1 2.212361 1_655
F1 Mn6 2.440817 1_555
F1 Mn7 2.620660 1_654
F2 Mn4 2.209403 1_555
F2 Mn9 2.258452 1_555
F2 Mn3 2.258452 1_555
F2 Mn8 2.380402 1_555
F3 Mn2 2.177593 1_555
F3 Mn9 2.250200 1_555
F3 Mn3 2.340329 1_655
F3 Mn10 2.371337 1_655
F4 Mn4 2.158543 1_555
F4 Mn5 2.238478 1_655
F4 Mn11 2.335201 1_555
F4 Mn8 2.423350 1_655
F5 Mn10 2.158543 1_555
F5 Mn6 2.238478 1_455
F5 Mn1 2.335201 1_555
F5 Mn2 2.423350 1_455
F6 Mn8 2.177593 1_555
F6 Mn3 2.250200 1_555
F6 Mn9 2.340329 1_455
F6 Mn4 2.371337 1_455
F7 Mn7 2.051614 1_555
F7 Mn11 2.212361 1_455
F7 Mn5 2.440817 1_555
F7 Mn0 2.620660 1_456
F8 Mn8 2.178506 1_555
F8 Mn11 2.280774 1_555
F8 Mn5 2.280774 1_555
F8 Mn4 2.326468 1_555
F9 Mn10 2.209403 1_555
F9 Mn9 2.258452 1_555
F9 Mn3 2.258452 1_555
F9 Mn2 2.380402 1_555
F10 Mn7 2.051614 1_555
F10 Mn5 2.212361 1_545
F10 Mn11 2.440817 1_555
F10 Mn0 2.620660 1_546
F11 Mn8 2.177593 1_555
F11 Mn9 2.250200 1_555
F11 Mn3 2.340329 1_545
F11 Mn4 2.371337 1_545
F12 Mn10 2.158543 1_555
F12 Mn1 2.238478 1_545
F12 Mn6 2.335201 1_555
F12 Mn2 2.423350 1_545
F13 Mn7 1.929015 1_554
F13 Mn6 2.321425 1_455
F13 Mn1 2.321425 1_545
F14 Mn10 2.161709 1_555
F14 Mn3 2.267973 1_545
F14 Mn9 2.267973 1_455
F14 Mn2 2.470997 1_445
F15 Mn8 2.130337 1_555
F15 Mn5 2.240109 1_545
F15 Mn11 2.240109 1_455
F15 Mn4 2.626062 1_445
F16 Mn2 2.177593 1_555
F16 Mn3 2.250200 1_555
F16 Mn9 2.340329 1_565
F16 Mn10 2.371337 1_565
F17 Mn0 2.051614 1_555
F17 Mn6 2.212361 1_565
F17 Mn1 2.440817 1_555
F17 Mn7 2.620660 1_564
F18 Mn4 2.158543 1_555
F18 Mn11 2.238478 1_565
F18 Mn5 2.335201 1_555
F18 Mn8 2.423350 1_565
F19 Mn4 2.161709 1_555
F19 Mn3 2.267973 1_655
F19 Mn9 2.267973 1_565
F19 Mn8 2.470997 1_665
F20 Mn0 1.929015 1_556
F20 Mn5 2.321425 1_655
F20 Mn11 2.321425 1_565
F21 Mn2 2.130337 1_555
F21 Mn6 2.240109 1_565
F21 Mn1 2.240109 1_655
F21 Mn10 2.626062 1_665
