# generated using pymatgen
data_K5Ce2H2S6O25
_symmetry_space_group_name_H-M   'P 1'
_cell_length_a   9.62181196
_cell_length_b   9.62181196
_cell_length_c   19.58826225
_cell_angle_alpha   69.67730190
_cell_angle_beta   110.32269810
_cell_angle_gamma   136.72214472
_symmetry_Int_Tables_number   1
_chemical_formula_structural   K5Ce2H2S6O25
_chemical_formula_sum   'K10 Ce4 H4 S12 O50'
_cell_volume   1153.15908038
_cell_formula_units_Z   2
loop_
 _symmetry_equiv_pos_site_id
 _symmetry_equiv_pos_as_xyz
  1  'x, y, z'
loop_
 _atom_site_type_symbol
 _atom_site_label
 _atom_site_symmetry_multiplicity
 _atom_site_fract_x
 _atom_site_fract_y
 _atom_site_fract_z
 _atom_site_occupancy
  K  K0  1  0.93074302  0.22755485  0.76564593  1
  K  K1  1  0.77244515  0.06925698  0.26564593  1
  K  K2  1  0.43639036  0.29185122  0.80563825  1
  K  K3  1  0.70814878  0.56360964  0.30563825  1
  K  K4  1  0.39077890  0.81372356  0.91617337  1
  K  K5  1  0.18627644  0.60922110  0.41617337  1
  K  K6  1  0.51519195  0.68013506  0.60086996  1
  K  K7  1  0.31986494  0.48480805  0.10086996  1
  K  K8  1  -0.00134527  0.72931319  0.72621304  1
  K  K9  1  0.27068681  0.00134527  0.22621304  1
  Ce  Ce0  1  0.07306689  0.07114567  0.50034394  1
  Ce  Ce1  1  0.92885433  0.92693311  0.00034394  1
  Ce  Ce2  1  0.63137130  0.22489691  0.53098088  1
  Ce  Ce3  1  0.77510309  0.36862870  0.03098088  1
  H  H0  1  0.51504518  0.74326691  0.78717277  1
  H  H1  1  0.25673309  0.48495482  0.28717277  1
  H  H2  1  0.40861421  0.82126733  0.75138051  1
  H  H3  1  0.17873267  0.59138579  0.25138051  1
  S  S0  1  0.95909367  0.81372578  0.87384296  1
  S  S1  1  0.18627422  0.04090633  0.37384296  1
  S  S2  1  0.87652434  0.30922402  0.91066411  1
  S  S3  1  0.69077598  0.12347566  0.41066411  1
  S  S4  1  0.40936702  0.43183314  0.93766287  1
  S  S5  1  0.56816686  0.59063298  0.43766287  1
  S  S6  1  0.51785526  0.25169353  0.65854282  1
  S  S7  1  0.74830647  0.48214474  0.15854282  1
  S  S8  1  0.01256797  0.16741932  0.62088510  1
  S  S9  1  0.83258068  0.98743203  0.12088510  1
  S  S10  1  0.13974846  0.70582630  0.59481619  1
  S  S11  1  0.29417370  0.86025154  0.09481619  1
  O  O0  1  0.78522252  0.68630009  0.81894078  1
  O  O1  1  0.31369991  0.21477748  0.31894078  1
  O  O2  1  0.98229468  0.98417458  0.87733150  1
  O  O3  1  0.01582542  0.01770532  0.37733150  1
  O  O4  1  0.92212940  0.69825797  0.95182824  1
  O  O5  1  0.30174203  0.07787060  0.45182824  1
  O  O6  1  0.14952296  0.89550986  0.85969417  1
  O  O7  1  0.10449014  0.85047704  0.35969417  1
  O  O8  1  0.01965073  0.42604197  0.97471674  1
  O  O9  1  0.57395803  0.98034927  0.47471674  1
  O  O10  1  0.67851036  0.24055202  0.91340558  1
  O  O11  1  0.75944798  0.32148964  0.41340558  1
  O  O12  1  0.83696423  0.12276677  0.92034110  1
  O  O13  1  0.87723323  0.16303577  0.42034110  1
  O  O14  1  0.95637457  0.43961749  0.84152295  1
  O  O15  1  0.56038251  0.04362543  0.34152295  1
  O  O16  1  0.56096209  0.64374186  0.95676296  1
  O  O17  1  0.35625814  0.43903791  0.45676296  1
  O  O18  1  0.50881102  0.35227598  0.95736422  1
  O  O19  1  0.64772402  0.49118898  0.45736422  1
  O  O20  1  0.24267037  0.29592452  0.98385367  1
  O  O21  1  0.70407548  0.75732963  0.48385367  1
  O  O22  1  0.33017529  0.43387104  0.85919769  1
  O  O23  1  0.56612896  0.66982471  0.35919769  1
  O  O24  1  0.40130807  0.21134213  0.58084444  1
  O  O25  1  0.78865787  0.59869193  0.08084444  1
  O  O26  1  0.69329810  0.28319339  0.65459863  1
  O  O27  1  0.71680661  0.30670190  0.15459863  1
  O  O28  1  0.39170925  0.07694406  0.71345626  1
  O  O29  1  0.92305594  0.60829075  0.21345626  1
  O  O30  1  0.59456744  0.43952750  0.67305086  1
  O  O31  1  0.56047250  0.40543256  0.17305086  1
  O  O32  1  0.12989426  0.31557462  0.55755654  1
  O  O33  1  0.68442538  0.87010574  0.05755654  1
  O  O34  1  0.93833952  0.96969075  0.61316886  1
  O  O35  1  0.03030925  0.06166048  0.11316886  1
  O  O36  1  0.14294338  0.23589468  0.69124734  1
  O  O37  1  0.76410532  0.85705662  0.19124734  1
  O  O38  1  0.82830529  0.12960728  0.61444566  1
  O  O39  1  0.87039272  0.17169471  0.11444566  1
  O  O40  1  0.35860573  0.86995227  0.58060875  1
  O  O41  1  0.13004773  0.64139427  0.08060875  1
  O  O42  1  0.04786144  0.79272035  0.57510704  1
  O  O43  1  0.20727965  0.95213856  0.07510704  1
  O  O44  1  0.01918812  0.54637457  0.54700238  1
  O  O45  1  0.45362543  0.98081188  0.04700238  1
  O  O46  1  0.13872367  0.62109489  0.67329784  1
  O  O47  1  0.37890511  0.86127633  0.17329784  1
  O  O48  1  0.52300844  0.84958673  0.78821314  1
  O  O49  1  0.15041327  0.47699156  0.28821314  1
loop_
_geom_bond_atom_site_label_1
_geom_bond_atom_site_label_2
_geom_bond_distance
_geom_bond_site_symmetry_2
K0 O14 2.748175 1_555
K0 O26 2.785293 1_555
K0 O2 2.809800 1_545
K0 O36 2.836561 1_655
K0 O48 2.850579 1_545
K0 O46 2.887586 1_655
K0 O22 2.931786 1_655
K0 O38 3.031534 1_555
K0 O12 3.076568 1_555
K1 O15 2.748175 1_555
K1 O27 2.785293 1_555
K1 O3 2.809800 1_655
K1 O37 2.836561 1_545
K1 O49 2.850579 1_655
K1 O47 2.887586 1_545
K1 O23 2.931786 1_545
K1 O39 3.031534 1_555
K1 O13 3.076568 1_555
K2 O6 2.679802 1_545
K2 O0 2.696074 1_555
K2 O36 2.740934 1_555
K2 O10 2.767964 1_555
K2 O22 2.790422 1_555
K2 O30 2.848503 1_555
K2 O28 2.912218 1_555
K2 O18 2.971274 1_555
K3 O7 2.679802 1_655
K3 O1 2.696074 1_555
K3 O37 2.740934 1_555
K3 O11 2.767964 1_555
K3 O23 2.790422 1_555
K3 O31 2.848503 1_555
K3 O29 2.912218 1_555
K3 O19 2.971274 1_555
K4 O6 2.739159 1_555
K4 O10 2.815687 1_565
K4 O16 2.842605 1_555
K4 O8 2.908398 1_555
K4 O12 2.935421 1_565
K4 O48 2.999252 1_555
K4 O33 3.053461 1_556
K4 O45 3.144473 1_556
K4 O14 3.173183 1_455
K5 O7 2.739159 1_555
K5 O11 2.815687 1_455
K5 O17 2.842605 1_555
K5 O9 2.908398 1_555
K5 O13 2.935421 1_455
K5 O49 2.999252 1_555
K5 O32 3.053461 1_555
K5 O44 3.144473 1_555
K5 O15 3.173183 1_565
K6 O30 2.737289 1_555
K6 O34 2.768584 1_555
K6 O32 2.777643 1_555
K6 O9 2.899016 1_555
K6 O40 2.975067 1_555
K6 O21 2.975575 1_555
K6 O38 3.020160 1_565
K6 O36 3.330074 1_555
K7 O31 2.737289 1_555
K7 O35 2.768584 1_555
K7 O33 2.777643 1_555
K7 O8 2.899016 1_554
K7 O41 2.975067 1_555
K7 O20 2.975575 1_554
K7 O39 3.020160 1_455
K7 O37 3.330074 1_555
K8 O28 2.685121 1_565
K8 O30 2.719388 1_455
K8 O14 2.766007 1_455
K8 O46 2.781775 1_555
K8 O34 2.844959 1_455
K8 O6 2.896325 1_555
K8 O0 2.918747 1_455
K8 O42 2.942090 1_555
K9 O29 2.685121 1_445
K9 O31 2.719388 1_555
K9 O15 2.766007 1_555
K9 O47 2.781775 1_545
K9 O35 2.844959 1_555
K9 O7 2.896325 1_545
K9 O1 2.918747 1_555
K9 O43 2.942090 1_545
Ce0 O3 2.429060 1_555
Ce0 O42 2.440460 1_545
Ce0 O24 2.468947 1_555
Ce0 O21 2.469428 1_445
Ce0 O17 2.481126 1_555
Ce0 O34 2.483254 1_445
Ce0 O13 2.490043 1_455
Ce0 O32 2.572711 1_555
Ce0 O5 2.636463 1_555
Ce1 O2 2.429060 1_554
Ce1 O43 2.440460 1_655
Ce1 O25 2.468947 1_555
Ce1 O20 2.469428 1_664
Ce1 O16 2.481126 1_554
Ce1 O35 2.483254 1_665
Ce1 O12 2.490043 1_564
Ce1 O33 2.572711 1_555
Ce1 O4 2.636463 1_554
Ce2 O19 2.381863 1_555
Ce2 O40 2.431385 1_545
Ce2 O26 2.446980 1_555
Ce2 O5 2.457466 1_555
Ce2 O38 2.537849 1_555
Ce2 O11 2.550217 1_555
Ce2 O9 2.557764 1_545
Ce2 O44 2.577770 1_655
Ce2 O24 2.619954 1_555
Ce3 O18 2.381863 1_554
Ce3 O41 2.431385 1_655
Ce3 O27 2.446980 1_555
Ce3 O4 2.457466 1_554
Ce3 O39 2.537849 1_555
Ce3 O10 2.550217 1_554
Ce3 O8 2.557764 1_654
Ce3 O45 2.577770 1_545
Ce3 O25 2.619954 1_555
H0 O48 0.975735 1_555
H1 O49 0.975735 1_555
H2 O48 0.977000 1_555
H3 O49 0.977000 1_555
O0 S0 1.462230 1_555
O1 S1 1.462230 1_555
O2 S0 1.509421 1_555
O3 S1 1.509421 1_555
O4 S0 1.522346 1_555
O5 S1 1.522346 1_555
O6 S0 1.468024 1_455
O7 S1 1.468024 1_565
O8 S2 1.503206 1_455
O9 S3 1.503206 1_565
O10 S2 1.510907 1_555
O11 S3 1.510907 1_555
O12 S2 1.489636 1_555
O13 S3 1.489636 1_555
O14 S2 1.462047 1_555
O15 S3 1.462047 1_555
O16 S4 1.498409 1_555
O17 S5 1.498409 1_555
O18 S4 1.501740 1_555
O19 S5 1.501740 1_555
O20 S4 1.494469 1_555
O21 S5 1.494469 1_555
O22 S4 1.459680 1_555
O23 S5 1.459680 1_555
O24 S6 1.521729 1_555
O25 S7 1.521729 1_555
O26 S6 1.508903 1_555
O27 S7 1.508903 1_555
O28 S6 1.461634 1_555
O29 S7 1.461634 1_555
O30 S6 1.469893 1_555
O31 S7 1.469893 1_555
O32 S8 1.498846 1_555
O33 S9 1.498846 1_555
O34 S8 1.516156 1_665
O35 S9 1.516156 1_445
O36 S8 1.460727 1_555
O37 S9 1.460727 1_555
O38 S8 1.492956 1_655
O39 S9 1.492956 1_545
O40 S10 1.505116 1_555
O41 S11 1.505116 1_555
O42 S10 1.498253 1_555
O43 S11 1.498253 1_555
O44 S10 1.492883 1_555
O45 S11 1.492883 1_555
O46 S10 1.468453 1_555
O47 S11 1.468453 1_555
