# generated using pymatgen
data_Li4V2C4SO16
_symmetry_space_group_name_H-M   'P 1'
_cell_length_a   9.74807514
_cell_length_b   9.64559500
_cell_length_c   9.31065267
_cell_angle_alpha   61.86359251
_cell_angle_beta   60.75713709
_cell_angle_gamma   57.37927040
_symmetry_Int_Tables_number   1
_chemical_formula_structural   Li4V2C4SO16
_chemical_formula_sum   'Li8 V4 C8 S2 O32'
_cell_volume   617.01375374
_cell_formula_units_Z   2
loop_
 _symmetry_equiv_pos_site_id
 _symmetry_equiv_pos_as_xyz
  1  'x, y, z'
loop_
 _atom_site_type_symbol
 _atom_site_label
 _atom_site_symmetry_multiplicity
 _atom_site_fract_x
 _atom_site_fract_y
 _atom_site_fract_z
 _atom_site_occupancy
  Li  Li0  1  0.54728300  0.95271700  0.54728300  1
  Li  Li1  1  0.95414000  0.54586000  0.54586000  1
  Li  Li2  1  0.29728300  0.70271700  0.29728300  1
  Li  Li3  1  0.70414000  0.29586000  0.29586000  1
  Li  Li4  1  0.54586000  0.95414000  0.95414000  1
  Li  Li5  1  0.95271700  0.54728300  0.95271700  1
  Li  Li6  1  0.29586000  0.70414000  0.70414000  1
  Li  Li7  1  0.70271700  0.29728300  0.70271700  1
  V  V0  1  0.12500000  0.12500000  0.12500000  1
  V  V1  1  0.62500000  0.12500000  0.12500000  1
  V  V2  1  0.12500000  0.62500000  0.12500000  1
  V  V3  1  0.12500000  0.12500000  0.62500000  1
  C  C0  1  0.27939200  0.88840100  0.91169300  1
  C  C1  1  0.88840100  0.27939200  0.92051500  1
  C  C2  1  0.32948500  0.33830700  0.36159900  1
  C  C3  1  0.91169300  0.92051500  0.27939200  1
  C  C4  1  0.33830700  0.32948500  0.97060800  1
  C  C5  1  0.92051500  0.91169300  0.88840100  1
  C  C6  1  0.36159900  0.97060800  0.32948500  1
  C  C7  1  0.97060800  0.36159900  0.33830700  1
  S  S0  1  0.75000000  0.75000000  0.75000000  1
  S  S1  1  0.50000000  0.50000000  0.50000000  1
  O  O0  1  0.90599700  0.28470900  0.77159500  1
  O  O1  1  0.27356100  0.75043800  0.92737600  1
  O  O2  1  0.75043800  0.27356100  0.04862500  1
  O  O3  1  0.76729400  0.94287000  0.28151200  1
  O  O4  1  0.30713000  0.48270600  0.24167500  1
  O  O5  1  0.28470900  0.90599700  0.03770000  1
  O  O6  1  0.47840500  0.21230000  0.34400300  1
  O  O7  1  0.03770000  0.77159500  0.28470900  1
  O  O8  1  0.20137500  0.32262400  0.49956200  1
  O  O9  1  0.92737600  0.04862500  0.27356100  1
  O  O10  1  0.69441900  0.69199100  0.67142500  1
  O  O11  1  0.55800900  0.55558100  0.30783500  1
  O  O12  1  0.28151200  0.00832500  0.76729400  1
  O  O13  1  0.24167500  0.96848800  0.30713000  1
  O  O14  1  0.94216500  0.67142500  0.69199100  1
  O  O15  1  0.67142500  0.94216500  0.69441900  1
  O  O16  1  0.57857500  0.30783500  0.55558100  1
  O  O17  1  0.30783500  0.57857500  0.55800900  1
  O  O18  1  0.00832500  0.28151200  0.94287000  1
  O  O19  1  0.96848800  0.24167500  0.48270600  1
  O  O20  1  0.69199100  0.69441900  0.94216500  1
  O  O21  1  0.55558100  0.55800900  0.57857500  1
  O  O22  1  0.32262400  0.20137500  0.97643900  1
  O  O23  1  0.04862500  0.92737600  0.75043800  1
  O  O24  1  0.21230000  0.47840500  0.96529100  1
  O  O25  1  0.77159500  0.03770000  0.90599700  1
  O  O26  1  0.96529100  0.34400300  0.21230000  1
  O  O27  1  0.94287000  0.76729400  0.00832500  1
  O  O28  1  0.48270600  0.30713000  0.96848800  1
  O  O29  1  0.49956200  0.97643900  0.20137500  1
  O  O30  1  0.97643900  0.49956200  0.32262400  1
  O  O31  1  0.34400300  0.96529100  0.47840500  1
loop_
_geom_bond_atom_site_label_1
_geom_bond_atom_site_label_2
_geom_bond_distance
_geom_bond_site_symmetry_2
Li0 O10 2.169552 1_555
Li0 O15 2.169552 1_555
Li0 O6 2.293854 1_565
Li0 O31 2.293859 1_555
Li0 O3 2.355588 1_555
Li0 O12 2.355589 1_565
Li1 O10 2.139682 1_555
Li1 O14 2.139682 1_555
Li1 O30 2.212704 1_555
Li1 O8 2.212704 1_655
Li1 O0 2.510051 1_555
Li1 O7 2.510054 1_655
Li2 O17 2.169552 1_555
Li2 O11 2.169552 1_555
Li2 O7 2.293850 1_555
Li2 O5 2.293853 1_555
Li2 O13 2.355585 1_555
Li2 O4 2.355594 1_555
Li3 O11 2.139682 1_555
Li3 O16 2.139682 1_555
Li3 O2 2.212704 1_555
Li3 O9 2.212704 1_555
Li3 O26 2.510049 1_555
Li3 O6 2.510058 1_555
Li4 O15 2.139682 1_555
Li4 O20 2.139682 1_555
Li4 O22 2.212704 1_565
Li4 O29 2.212704 1_556
Li4 O5 2.510049 1_556
Li4 O25 2.510058 1_565
Li5 O20 2.169552 1_555
Li5 O14 2.169552 1_555
Li5 O24 2.293850 1_655
Li5 O26 2.293853 1_556
Li5 O18 2.355585 1_655
Li5 O27 2.355594 1_556
Li6 O17 2.139682 1_555
Li6 O21 2.139682 1_555
Li6 O1 2.212704 1_555
Li6 O23 2.212704 1_555
Li6 O31 2.510051 1_555
Li6 O24 2.510054 1_555
Li7 O21 2.169552 1_555
Li7 O16 2.169552 1_555
Li7 O25 2.293854 1_555
Li7 O0 2.293859 1_555
Li7 O28 2.355588 1_555
Li7 O19 2.355589 1_555
C0 O5 1.290195 1_556
C0 O12 1.295332 1_565
C0 O1 1.298301 1_555
C1 O0 1.290195 1_555
C1 O18 1.295332 1_655
C1 O2 1.298298 1_556
C2 O6 1.290195 1_555
C2 O4 1.295332 1_555
C2 O8 1.298296 1_555
C3 O7 1.290195 1_655
C3 O3 1.295332 1_555
C3 O9 1.298292 1_565
C4 O24 1.290195 1_555
C4 O28 1.295332 1_555
C4 O22 1.298292 1_555
C5 O25 1.290195 1_565
C5 O27 1.295332 1_556
C5 O23 1.298296 1_655
C6 O31 1.290195 1_555
C6 O13 1.295332 1_555
C6 O29 1.298298 1_555
C7 O26 1.290195 1_555
C7 O19 1.295332 1_555
C7 O30 1.298301 1_555
O0 V3 2.093817 1_655
O1 V2 2.032921 1_556
O2 V1 2.032921 1_555
O3 V1 2.016665 1_565
O4 V2 2.016659 1_555
O5 V0 2.093812 1_565
O6 V1 2.093812 1_555
O7 V2 2.093820 1_555
O8 V3 2.032921 1_555
O9 V0 2.032921 1_655
O10 S0 1.497344 1_555
O11 S1 1.497344 1_555
O12 V3 2.016666 1_555
O13 V0 2.016659 1_565
O14 S0 1.497344 1_555
O15 S0 1.497344 1_555
O16 S1 1.497344 1_555
O17 S1 1.497344 1_555
O18 V0 2.016659 1_556
O19 V3 2.016666 1_655
O20 S0 1.497344 1_555
O21 S1 1.497344 1_555
O22 V0 2.032921 1_556
O23 V3 2.032921 1_565
O24 V2 2.093820 1_556
O25 V1 2.093812 1_556
O26 V0 2.093812 1_655
O27 V2 2.016659 1_655
O28 V1 2.016665 1_556
O29 V1 2.032921 1_565
O30 V2 2.032921 1_655
O31 V3 2.093817 1_565
