# generated using pymatgen
data_LiSn4(PO4)3
_symmetry_space_group_name_H-M   'P 1'
_cell_length_a   8.00524000
_cell_length_b   8.65205111
_cell_length_c   9.88747331
_cell_angle_alpha   97.56759778
_cell_angle_beta   109.05155367
_cell_angle_gamma   96.73127157
_symmetry_Int_Tables_number   1
_chemical_formula_structural   LiSn4(PO4)3
_chemical_formula_sum   'Li2 Sn8 P6 O24'
_cell_volume   632.22639735
_cell_formula_units_Z   2
loop_
 _symmetry_equiv_pos_site_id
 _symmetry_equiv_pos_as_xyz
  1  'x, y, z'
loop_
 _atom_site_type_symbol
 _atom_site_label
 _atom_site_symmetry_multiplicity
 _atom_site_fract_x
 _atom_site_fract_y
 _atom_site_fract_z
 _atom_site_occupancy
  Li  Li0  1  0.93315600  0.11094300  0.27705100  1
  Li  Li1  1  0.06684400  0.88905700  0.72294900  1
  Sn  Sn0  1  0.43712900  0.69844900  0.48445700  1
  Sn  Sn1  1  0.67721900  0.99739500  0.89980900  1
  Sn  Sn2  1  0.64908000  0.44370100  0.88384500  1
  Sn  Sn3  1  0.94276000  0.62309600  0.27610900  1
  Sn  Sn4  1  0.05724000  0.37690400  0.72389100  1
  Sn  Sn5  1  0.35092000  0.55629900  0.11615500  1
  Sn  Sn6  1  0.32278100  0.00260500  0.10019100  1
  Sn  Sn7  1  0.56287100  0.30155100  0.51554300  1
  P  P0  1  0.96238100  0.71709200  0.94239200  1
  P  P1  1  0.31630200  0.05062200  0.60187500  1
  P  P2  1  0.32966700  0.66892300  0.76817500  1
  P  P3  1  0.67033300  0.33107700  0.23182500  1
  P  P4  1  0.68369800  0.94937800  0.39812500  1
  P  P5  1  0.03761900  0.28290800  0.05760800  1
  O  O0  1  0.85139800  0.23932400  0.92945200  1
  O  O1  1  0.93075700  0.85372700  0.85761000  1
  O  O2  1  0.49997200  0.68396400  0.72137400  1
  O  O3  1  0.51164400  0.09874900  0.72001200  1
  O  O4  1  0.31057400  0.16564900  0.48955600  1
  O  O5  1  0.04883700  0.44356900  0.15582400  1
  O  O6  1  0.35386900  0.54342800  0.87640000  1
  O  O7  1  0.29230800  0.87759700  0.52019800  1
  O  O8  1  0.31165100  0.82915000  0.84376700  1
  O  O9  1  0.81459600  0.67946200  0.01287500  1
  O  O10  1  0.16950600  0.06790800  0.66658400  1
  O  O11  1  0.15981300  0.58775300  0.63712400  1
  O  O12  1  0.84018700  0.41224700  0.36287600  1
  O  O13  1  0.83049400  0.93209200  0.33341600  1
  O  O14  1  0.18540400  0.32053800  0.98712500  1
  O  O15  1  0.68834900  0.17085000  0.15623300  1
  O  O16  1  0.70769200  0.12240300  0.47980200  1
  O  O17  1  0.64613100  0.45657200  0.12360000  1
  O  O18  1  0.95116300  0.55643100  0.84417600  1
  O  O19  1  0.68942600  0.83435100  0.51044400  1
  O  O20  1  0.48835600  0.90125100  0.27998800  1
  O  O21  1  0.50002800  0.31603600  0.27862600  1
  O  O22  1  0.06924300  0.14627300  0.14239000  1
  O  O23  1  0.14860200  0.76067600  0.07054800  1
loop_
_geom_bond_atom_site_label_1
_geom_bond_atom_site_label_2
_geom_bond_distance
_geom_bond_site_symmetry_2
Li0 O13 1.899623 1_545
Li0 O22 2.007263 1_655
Li0 O15 2.099793 1_555
Li1 O10 1.899623 1_565
Li1 O1 2.007263 1_455
Li1 O8 2.099793 1_555
O0 P5 1.574586 1_656
O0 Sn1 2.301939 1_545
O0 Sn2 2.521484 1_555
O1 P0 1.535242 1_555
O1 Sn1 2.616540 1_555
O2 P2 1.573490 1_555
O2 Sn0 2.253644 1_555
O3 P1 1.584270 1_555
O3 Sn1 2.197952 1_545
O4 P1 1.579384 1_555
O4 Sn7 2.133704 1_555
O5 P5 1.562563 1_555
O5 Sn3 2.242808 1_455
O5 Sn5 2.668354 1_555
O6 P2 1.606712 1_555
O6 Sn5 2.366471 1_556
O6 Sn4 2.505285 1_555
O6 Sn2 2.591520 1_555
O7 P1 1.563024 1_565
O7 Sn0 2.101394 1_555
O8 P2 1.531524 1_555
O8 Sn6 2.739950 1_566
O9 P0 1.580822 1_554
O9 Sn2 2.263070 1_554
O9 Sn3 2.602487 1_555
O10 P1 1.522994 1_555
O11 P2 1.551545 1_555
O11 Sn4 2.293290 1_555
O12 P3 1.551545 1_555
O12 Sn3 2.293290 1_555
O13 P4 1.522994 1_555
O14 P5 1.580822 1_556
O14 Sn5 2.263070 1_556
O14 Sn4 2.602487 1_555
O15 P3 1.531524 1_555
O15 Sn1 2.739950 1_544
O16 P4 1.563024 1_545
O16 Sn7 2.101394 1_555
O17 P3 1.606712 1_555
O17 Sn2 2.366471 1_554
O17 Sn3 2.505285 1_555
O17 Sn5 2.591520 1_555
O18 P0 1.562563 1_555
O18 Sn4 2.242808 1_655
O18 Sn2 2.668354 1_555
O19 P4 1.579384 1_555
O19 Sn0 2.133704 1_555
O20 P4 1.584270 1_555
O20 Sn6 2.197952 1_565
O21 P3 1.573490 1_555
O21 Sn7 2.253644 1_555
O22 P5 1.535242 1_555
O22 Sn6 2.616540 1_555
O23 P0 1.574586 1_454
O23 Sn6 2.301939 1_565
O23 Sn5 2.521484 1_555
