# generated using pymatgen
data_Li2U(WO5)2
_symmetry_space_group_name_H-M   'P 1'
_cell_length_a   7.63243900
_cell_length_b   7.81124300
_cell_length_c   12.94894800
_cell_angle_alpha   90.00000000
_cell_angle_beta   90.00000000
_cell_angle_gamma   90.00000000
_symmetry_Int_Tables_number   1
_chemical_formula_structural   Li2U(WO5)2
_chemical_formula_sum   'Li8 U4 W8 O40'
_cell_volume   772.00120345
_cell_formula_units_Z   4
loop_
 _symmetry_equiv_pos_site_id
 _symmetry_equiv_pos_as_xyz
  1  'x, y, z'
loop_
 _atom_site_type_symbol
 _atom_site_label
 _atom_site_symmetry_multiplicity
 _atom_site_fract_x
 _atom_site_fract_y
 _atom_site_fract_z
 _atom_site_occupancy
  Li  Li0  1  0.00000000  0.50000000  0.23836000  1
  Li  Li1  1  0.50000000  0.50000000  0.25850800  1
  Li  Li2  1  0.74933200  0.69062700  0.25609600  1
  Li  Li3  1  0.24933200  0.80937300  0.74390400  1
  Li  Li4  1  0.00000000  0.00000000  0.74149200  1
  Li  Li5  1  0.50000000  0.00000000  0.76164000  1
  Li  Li6  1  0.75066800  0.19062700  0.74390400  1
  Li  Li7  1  0.25066800  0.30937300  0.25609600  1
  U  U0  1  0.00000000  0.50000000  0.76997500  1
  U  U1  1  0.50000000  0.50000000  0.73026100  1
  U  U2  1  0.00000000  0.00000000  0.26973900  1
  U  U3  1  0.50000000  0.00000000  0.23002500  1
  W  W0  1  0.25069700  0.51756100  0.49199500  1
  W  W1  1  0.75031300  0.52292900  0.00752500  1
  W  W2  1  0.25031300  0.97707100  0.99247500  1
  W  W3  1  0.75069700  0.98243900  0.50800500  1
  W  W4  1  0.74968700  0.02292900  0.99247500  1
  W  W5  1  0.24930300  0.01756100  0.50800500  1
  W  W6  1  0.24968700  0.47707100  0.00752500  1
  W  W7  1  0.74930300  0.48243900  0.49199500  1
  O  O0  1  0.00000000  0.50000000  0.96245600  1
  O  O1  1  0.50000000  0.50000000  0.02101300  1
  O  O2  1  0.00000000  0.50000000  0.47860700  1
  O  O3  1  0.50000000  0.50000000  0.53848200  1
  O  O4  1  0.71966400  0.49835900  0.84814600  1
  O  O5  1  0.21906000  0.51001200  0.65134100  1
  O  O6  1  0.79887400  0.52560000  0.14420200  1
  O  O7  1  0.30024900  0.48615400  0.35662100  1
  O  O8  1  0.00951900  0.73920600  0.77205800  1
  O  O9  1  0.49102200  0.73924400  0.72713500  1
  O  O10  1  0.24642800  0.73977200  0.00694700  1
  O  O11  1  0.75307000  0.74598800  0.50689200  1
  O  O12  1  0.74642800  0.76022800  0.99305300  1
  O  O13  1  0.25307000  0.75401200  0.49310800  1
  O  O14  1  0.99102200  0.76075600  0.27286500  1
  O  O15  1  0.50951900  0.76079400  0.22794200  1
  O  O16  1  0.29887400  0.97440000  0.85579800  1
  O  O17  1  0.80024900  0.01384600  0.64337900  1
  O  O18  1  0.21966400  0.00164100  0.15185400  1
  O  O19  1  0.71906000  0.98998800  0.34865900  1
  O  O20  1  0.00000000  0.00000000  0.97898700  1
  O  O21  1  0.00000000  0.00000000  0.46151800  1
  O  O22  1  0.50000000  0.00000000  0.52139300  1
  O  O23  1  0.50000000  0.00000000  0.03754400  1
  O  O24  1  0.78033600  0.99835900  0.15185400  1
  O  O25  1  0.28094000  0.01001200  0.34865900  1
  O  O26  1  0.70112600  0.02560000  0.85579800  1
  O  O27  1  0.19975100  0.98615400  0.64337900  1
  O  O28  1  0.49048100  0.23920600  0.22794200  1
  O  O29  1  0.00897800  0.23924400  0.27286500  1
  O  O30  1  0.25357200  0.23977200  0.99305300  1
  O  O31  1  0.74693000  0.24598800  0.49310800  1
  O  O32  1  0.75357200  0.26022800  0.00694700  1
  O  O33  1  0.24693000  0.25401200  0.50689200  1
  O  O34  1  0.99048100  0.26079400  0.77205800  1
  O  O35  1  0.50897800  0.26075600  0.72713500  1
  O  O36  1  0.20112600  0.47440000  0.14420200  1
  O  O37  1  0.69975100  0.51384600  0.35662100  1
  O  O38  1  0.28033600  0.50164100  0.84814600  1
  O  O39  1  0.78094000  0.48998800  0.65134100  1
loop_
_geom_bond_atom_site_label_1
_geom_bond_atom_site_label_2
_geom_bond_distance
_geom_bond_site_symmetry_2
Li0 O36 1.970540 1_555
Li0 O6 1.970540 1_455
Li0 O29 2.086384 1_555
Li0 O14 2.086384 1_455
Li1 O37 1.987494 1_555
Li1 O7 1.987494 1_555
Li1 O28 2.076491 1_555
Li1 O15 2.076491 1_555
Li2 O37 1.935055 1_555
Li2 O14 1.936515 1_555
Li2 O15 1.945128 1_555
Li2 O6 1.975857 1_555
Li2 O19 2.637809 1_555
Li3 O27 1.935055 1_555
Li3 O9 1.936515 1_555
Li3 O8 1.945128 1_555
Li3 O16 1.975857 1_555
Li3 O5 2.637809 1_555
Li4 O17 1.987494 1_455
Li4 O27 1.987494 1_545
Li4 O8 2.076491 1_545
Li4 O34 2.076491 1_455
Li5 O16 1.970540 1_545
Li5 O26 1.970540 1_555
Li5 O9 2.086384 1_545
Li5 O35 2.086384 1_555
Li6 O17 1.935055 1_555
Li6 O35 1.936515 1_555
Li6 O34 1.945128 1_555
Li6 O26 1.975857 1_555
Li6 O39 2.637809 1_555
Li7 O7 1.935055 1_555
Li7 O29 1.936515 1_555
Li7 O28 1.945128 1_555
Li7 O36 1.975857 1_555
Li7 O25 2.637809 1_555
O0 W6 2.001108 1_556
O0 W1 2.001108 1_456
O0 U0 2.492426 1_555
O1 W6 1.926808 1_555
O1 W1 1.926808 1_555
O2 W7 1.926158 1_455
O2 W0 1.926158 1_555
O3 W0 2.000445 1_555
O3 W7 2.000445 1_555
O3 U1 2.483336 1_555
O4 W1 2.085854 1_556
O4 U1 2.267426 1_555
O4 U0 2.367038 1_655
O5 W0 2.078281 1_555
O5 U0 2.271880 1_555
O5 U1 2.376615 1_555
O6 W1 1.808337 1_555
O7 W0 1.809989 1_555
O8 U0 1.870103 1_555
O9 U1 1.870487 1_555
O10 W2 1.863285 1_554
O10 W6 2.052186 1_555
O11 W3 1.847121 1_555
O11 W7 2.067863 1_555
O12 W1 1.863285 1_556
O12 W4 2.052186 1_565
O13 W0 1.847121 1_555
O13 W5 2.067863 1_565
O14 U2 1.870487 1_665
O15 U3 1.870103 1_565
O16 W2 1.808337 1_555
O17 W3 1.809989 1_545
O18 W2 2.085854 1_544
O18 U2 2.267426 1_555
O18 U3 2.367038 1_555
O19 W3 2.078281 1_555
O19 U3 2.271880 1_565
O19 U2 2.376615 1_665
O20 W2 1.926808 1_545
O20 W4 1.926808 1_455
O21 W5 2.000445 1_555
O21 W3 2.000445 1_445
O21 U2 2.483336 1_555
O22 W3 1.926158 1_545
O22 W5 1.926158 1_555
O23 W4 2.001108 1_554
O23 W2 2.001108 1_544
O23 U3 2.492426 1_555
O24 W4 2.085854 1_564
O24 U2 2.267426 1_665
O24 U3 2.367038 1_565
O25 W5 2.078281 1_555
O25 U3 2.271880 1_555
O25 U2 2.376615 1_555
O26 W4 1.808337 1_555
O27 W5 1.809989 1_565
O28 U3 1.870103 1_555
O29 U2 1.870487 1_555
O30 W6 1.863285 1_556
O30 W2 2.052186 1_545
O31 W7 1.847121 1_555
O31 W3 2.067863 1_545
O32 W4 1.863285 1_554
O32 W1 2.052186 1_555
O33 W5 1.847121 1_555
O33 W0 2.067863 1_555
O34 U0 1.870103 1_655
O35 U1 1.870487 1_555
O36 W6 1.808337 1_555
O37 W7 1.809989 1_555
O38 W6 2.085854 1_556
O38 U1 2.267426 1_555
O38 U0 2.367038 1_555
O39 W7 2.078281 1_555
O39 U0 2.271880 1_655
O39 U1 2.376615 1_555
