# generated using pymatgen
data_Li3Bi2(PO4)3
_symmetry_space_group_name_H-M   'P 1'
_cell_length_a   9.02465358
_cell_length_b   9.02465358
_cell_length_c   8.87696845
_cell_angle_alpha   63.29495429
_cell_angle_beta   63.29495429
_cell_angle_gamma   63.64377254
_symmetry_Int_Tables_number   1
_chemical_formula_structural   Li3Bi2(PO4)3
_chemical_formula_sum   'Li6 Bi4 P6 O24'
_cell_volume   549.80185481
_cell_formula_units_Z   2
loop_
 _symmetry_equiv_pos_site_id
 _symmetry_equiv_pos_as_xyz
  1  'x, y, z'
loop_
 _atom_site_type_symbol
 _atom_site_label
 _atom_site_symmetry_multiplicity
 _atom_site_fract_x
 _atom_site_fract_y
 _atom_site_fract_z
 _atom_site_occupancy
  Li  Li0  1  0.00000000  0.50000000  0.00000000  1
  Li  Li1  1  0.72239700  0.66570200  0.38418400  1
  Li  Li2  1  0.66570200  0.72239700  0.88418400  1
  Li  Li3  1  0.50000000  0.00000000  0.50000000  1
  Li  Li4  1  0.33429800  0.27760300  0.11581600  1
  Li  Li5  1  0.27760300  0.33429800  0.61581600  1
  Bi  Bi0  1  0.85948500  0.33149500  0.85199500  1
  Bi  Bi1  1  0.66850500  0.14051500  0.64800500  1
  Bi  Bi2  1  0.33149500  0.85948500  0.35199500  1
  Bi  Bi3  1  0.14051500  0.66850500  0.14800500  1
  P  P0  1  0.90097400  0.74347900  0.56397000  1
  P  P1  1  0.44015600  0.55984400  0.75000000  1
  P  P2  1  0.74347900  0.90097400  0.06397000  1
  P  P3  1  0.25652100  0.09902600  0.93603000  1
  P  P4  1  0.55984400  0.44015600  0.25000000  1
  P  P5  1  0.09902600  0.25652100  0.43603000  1
  O  O0  1  0.67382200  0.90576600  0.93148700  1
  O  O1  1  0.94363500  0.19005400  0.50506300  1
  O  O2  1  0.89955700  0.60202100  0.75116100  1
  O  O3  1  0.90576600  0.67382200  0.43148700  1
  O  O4  1  0.88895000  0.71986200  0.09759200  1
  O  O5  1  0.47055800  0.40940500  0.69004500  1
  O  O6  1  0.59059500  0.52944200  0.80995500  1
  O  O7  1  0.71986200  0.88895000  0.59759200  1
  O  O8  1  0.43156600  0.73636400  0.59345000  1
  O  O9  1  0.26363600  0.56843400  0.90655000  1
  O  O10  1  0.80994600  0.05636500  0.99493700  1
  O  O11  1  0.60202100  0.89955700  0.25116100  1
  O  O12  1  0.39797900  0.10044300  0.74883900  1
  O  O13  1  0.19005400  0.94363500  0.00506300  1
  O  O14  1  0.73636400  0.43156600  0.09345000  1
  O  O15  1  0.56843400  0.26363600  0.40655000  1
  O  O16  1  0.28013800  0.11105000  0.40240800  1
  O  O17  1  0.40940500  0.47055800  0.19004500  1
  O  O18  1  0.52944200  0.59059500  0.30995500  1
  O  O19  1  0.11105000  0.28013800  0.90240800  1
  O  O20  1  0.09423400  0.32617800  0.56851300  1
  O  O21  1  0.10044300  0.39797900  0.24883900  1
  O  O22  1  0.05636500  0.80994600  0.49493700  1
  O  O23  1  0.32617800  0.09423400  0.06851300  1
loop_
_geom_bond_atom_site_label_1
_geom_bond_atom_site_label_2
_geom_bond_distance
_geom_bond_site_symmetry_2
Li0 O4 2.165842 1_455
Li0 O19 2.165842 1_554
Li0 O2 2.404052 1_454
Li0 O21 2.404052 1_555
Li0 O14 2.408431 1_455
Li0 O9 2.408431 1_554
Li1 O3 1.918353 1_555
Li1 O11 1.976353 1_555
Li1 O4 2.251262 1_555
Li1 O8 2.437762 1_555
Li1 O18 2.531138 1_555
Li2 O0 1.918353 1_555
Li2 O2 1.976353 1_555
Li2 O7 2.251262 1_555
Li2 O14 2.437762 1_556
Li2 O6 2.531138 1_555
Li3 O16 2.165842 1_555
Li3 O7 2.165842 1_545
Li3 O11 2.404052 1_545
Li3 O12 2.404052 1_555
Li3 O15 2.408431 1_555
Li3 O8 2.408431 1_545
Li4 O23 1.918353 1_555
Li4 O21 1.976353 1_555
Li4 O16 2.251262 1_555
Li4 O9 2.437762 1_554
Li4 O17 2.531138 1_555
Li5 O20 1.918353 1_555
Li5 O12 1.976353 1_555
Li5 O19 2.251262 1_555
Li5 O15 2.437762 1_555
Li5 O5 2.531138 1_555
Bi0 O14 2.313568 1_556
Bi0 O19 2.315545 1_655
Bi0 O2 2.328365 1_555
Bi0 O6 2.363222 1_555
Bi0 O10 2.370447 1_555
Bi0 O20 2.459605 1_655
Bi1 O15 2.313568 1_555
Bi1 O7 2.315545 1_545
Bi1 O12 2.328365 1_555
Bi1 O5 2.363222 1_555
Bi1 O1 2.370447 1_555
Bi1 O0 2.459605 1_545
Bi2 O8 2.313568 1_555
Bi2 O16 2.315545 1_565
Bi2 O11 2.328365 1_555
Bi2 O18 2.363222 1_555
Bi2 O22 2.370447 1_555
Bi2 O23 2.459605 1_565
Bi3 O9 2.313568 1_554
Bi3 O4 2.315545 1_455
Bi3 O21 2.328365 1_555
Bi3 O17 2.363222 1_555
Bi3 O13 2.370447 1_555
Bi3 O3 2.459605 1_455
O0 P2 1.541026 1_556
O1 P5 1.531678 1_655
O2 P0 1.574758 1_555
O3 P0 1.541026 1_555
O4 P2 1.578787 1_555
O5 P1 1.545714 1_555
O6 P1 1.545714 1_555
O7 P0 1.578787 1_555
O8 P1 1.572388 1_555
O9 P1 1.572388 1_555
O10 P2 1.531678 1_546
O11 P2 1.574758 1_555
O12 P3 1.574758 1_555
O13 P3 1.531678 1_564
O14 P4 1.572388 1_555
O15 P4 1.572388 1_555
O16 P5 1.578787 1_555
O17 P4 1.545714 1_555
O18 P4 1.545714 1_555
O19 P3 1.578787 1_555
O20 P5 1.541026 1_555
O21 P5 1.574758 1_555
O22 P0 1.531678 1_455
O23 P3 1.541026 1_554
