# generated using pymatgen
data_TiMn3O8
_symmetry_space_group_name_H-M   'P 1'
_cell_length_a   5.78658782
_cell_length_b   5.78658782
_cell_length_c   9.03595200
_cell_angle_alpha   90.00000000
_cell_angle_beta   90.00000000
_cell_angle_gamma   119.99999793
_symmetry_Int_Tables_number   1
_chemical_formula_structural   TiMn3O8
_chemical_formula_sum   'Ti2 Mn6 O16'
_cell_volume   262.02917710
_cell_formula_units_Z   2
loop_
 _symmetry_equiv_pos_site_id
 _symmetry_equiv_pos_as_xyz
  1  'x, y, z'
loop_
 _atom_site_type_symbol
 _atom_site_label
 _atom_site_symmetry_multiplicity
 _atom_site_fract_x
 _atom_site_fract_y
 _atom_site_fract_z
 _atom_site_occupancy
  Ti  Ti0  1  0.33333300  0.66666700  0.49709600  1
  Ti  Ti1  1  0.66666700  0.33333300  0.99709600  1
  Mn  Mn0  1  0.16825600  0.83174400  0.21282800  1
  Mn  Mn1  1  0.16825600  0.33651100  0.21282800  1
  Mn  Mn2  1  0.66348900  0.83174400  0.21282800  1
  Mn  Mn3  1  0.33651100  0.16825600  0.71282800  1
  Mn  Mn4  1  0.83174400  0.66348900  0.71282800  1
  Mn  Mn5  1  0.83174400  0.16825600  0.71282800  1
  O  O0  1  0.16677400  0.83322600  0.59973300  1
  O  O1  1  0.03989900  0.51994900  0.33447600  1
  O  O2  1  0.33333300  0.66666700  0.10352700  1
  O  O3  1  0.00000000  0.00000000  0.31610400  1
  O  O4  1  0.00000000  0.00000000  0.81610400  1
  O  O5  1  0.16677400  0.33354800  0.59973300  1
  O  O6  1  0.48005100  0.96010100  0.33447600  1
  O  O7  1  0.48005100  0.51994900  0.33447600  1
  O  O8  1  0.33354800  0.16677400  0.09973300  1
  O  O9  1  0.66645200  0.83322600  0.59973300  1
  O  O10  1  0.51994900  0.48005100  0.83447600  1
  O  O11  1  0.51994900  0.03989900  0.83447600  1
  O  O12  1  0.66666700  0.33333300  0.60352700  1
  O  O13  1  0.83322600  0.66645200  0.09973300  1
  O  O14  1  0.96010100  0.48005100  0.83447600  1
  O  O15  1  0.83322600  0.16677400  0.09973300  1
loop_
_geom_bond_atom_site_label_1
_geom_bond_atom_site_label_2
_geom_bond_distance
_geom_bond_site_symmetry_2
Mn0 O6 1.917050 1_555
Mn0 O1 1.917050 1_555
Mn0 O2 1.926873 1_555
Mn0 O3 1.927359 1_565
Mn0 O8 1.965541 1_565
Mn0 O13 1.965541 1_455
Mn1 O1 1.917050 1_555
Mn1 O7 1.917050 1_555
Mn1 O2 1.926881 1_555
Mn1 O3 1.927354 1_555
Mn1 O8 1.965536 1_555
Mn1 O15 1.965541 1_455
Mn2 O6 1.917050 1_555
Mn2 O7 1.917050 1_555
Mn2 O2 1.926881 1_555
Mn2 O3 1.927354 1_665
Mn2 O13 1.965536 1_555
Mn2 O15 1.965541 1_565
Mn3 O11 1.917050 1_555
Mn3 O10 1.917050 1_555
Mn3 O12 1.926881 1_555
Mn3 O4 1.927354 1_555
Mn3 O5 1.965536 1_555
Mn3 O0 1.965541 1_545
Mn4 O14 1.917050 1_555
Mn4 O10 1.917050 1_555
Mn4 O12 1.926881 1_555
Mn4 O4 1.927354 1_665
Mn4 O9 1.965536 1_555
Mn4 O0 1.965541 1_655
Mn5 O11 1.917050 1_555
Mn5 O14 1.917050 1_555
Mn5 O12 1.926873 1_555
Mn5 O4 1.927359 1_655
Mn5 O9 1.965541 1_545
Mn5 O5 1.965541 1_655
O0 Ti0 1.909684 1_555
O1 Ti0 2.078839 1_555
O5 Ti0 1.909688 1_555
O6 Ti0 2.078839 1_555
O7 Ti0 2.078846 1_555
O8 Ti1 1.909688 1_554
O9 Ti0 1.909688 1_555
O10 Ti1 2.078846 1_555
O11 Ti1 2.078839 1_555
O13 Ti1 1.909688 1_554
O14 Ti1 2.078839 1_555
O15 Ti1 1.909684 1_554
