# generated using pymatgen
data_Ce2Th2O7
_symmetry_space_group_name_H-M   'P 1'
_cell_length_a   3.95086400
_cell_length_b   3.95086400
_cell_length_c   11.19501700
_cell_angle_alpha   90.00000000
_cell_angle_beta   90.00000000
_cell_angle_gamma   90.00000000
_symmetry_Int_Tables_number   1
_chemical_formula_structural   Ce2Th2O7
_chemical_formula_sum   'Ce2 Th2 O7'
_cell_volume   174.74667381
_cell_formula_units_Z   1
loop_
 _symmetry_equiv_pos_site_id
 _symmetry_equiv_pos_as_xyz
  1  'x, y, z'
loop_
 _atom_site_type_symbol
 _atom_site_label
 _atom_site_symmetry_multiplicity
 _atom_site_fract_x
 _atom_site_fract_y
 _atom_site_fract_z
 _atom_site_occupancy
  Ce  Ce0  1  0.50000000  0.00000000  0.86747200  1
  Ce  Ce1  1  0.00000000  0.50000000  0.13252800  1
  Th  Th0  1  0.50000000  0.00000000  0.37381600  1
  Th  Th1  1  0.00000000  0.50000000  0.62618400  1
  O  O0  1  0.50000000  0.50000000  0.00000000  1
  O  O1  1  0.00000000  0.00000000  0.23946900  1
  O  O2  1  0.50000000  0.50000000  0.25553100  1
  O  O3  1  0.50000000  0.50000000  0.50000000  1
  O  O4  1  0.00000000  0.00000000  0.50000000  1
  O  O5  1  0.50000000  0.50000000  0.74446900  1
  O  O6  1  0.00000000  0.00000000  0.76053100  1
loop_
_geom_bond_atom_site_label_1
_geom_bond_atom_site_label_2
_geom_bond_distance
_geom_bond_site_symmetry_2
Ce0 O6 2.309899 1_555
Ce0 O6 2.309899 1_655
Ce0 O5 2.408011 1_555
Ce0 O5 2.408011 1_545
Ce0 O0 2.470538 1_556
Ce0 O0 2.470538 1_546
Ce1 O1 2.309899 1_565
Ce1 O1 2.309899 1_555
Ce1 O2 2.408011 1_455
Ce1 O2 2.408011 1_555
Ce1 O0 2.470538 1_555
Ce1 O0 2.470538 1_455
O1 Th0 2.482821 1_455
O1 Th0 2.482821 1_555
O2 Th0 2.378202 1_555
O2 Th0 2.378202 1_565
O3 Th1 2.428551 1_655
O3 Th1 2.428551 1_555
O3 Th0 2.428551 1_555
O3 Th0 2.428551 1_565
O4 Th1 2.428551 1_545
O4 Th1 2.428551 1_555
O4 Th0 2.428551 1_555
O4 Th0 2.428551 1_455
O5 Th1 2.378202 1_655
O5 Th1 2.378202 1_555
O6 Th1 2.482821 1_555
O6 Th1 2.482821 1_545
