# generated using pymatgen
data_Li7FeP4O14F
_symmetry_space_group_name_H-M   'P 1'
_cell_length_a   6.37118582
_cell_length_b   6.37118582
_cell_length_c   14.62238099
_cell_angle_alpha   84.22333532
_cell_angle_beta   84.22333532
_cell_angle_gamma   78.70522928
_symmetry_Int_Tables_number   1
_chemical_formula_structural   Li7FeP4O14F
_chemical_formula_sum   'Li14 Fe2 P8 O28 F2'
_cell_volume   577.10429817
_cell_formula_units_Z   2
loop_
 _symmetry_equiv_pos_site_id
 _symmetry_equiv_pos_as_xyz
  1  'x, y, z'
loop_
 _atom_site_type_symbol
 _atom_site_label
 _atom_site_symmetry_multiplicity
 _atom_site_fract_x
 _atom_site_fract_y
 _atom_site_fract_z
 _atom_site_occupancy
  Li  Li0  1  0.98834000  0.39811500  0.82219000  1
  Li  Li1  1  0.36498100  0.82693400  0.83435300  1
  Li  Li2  1  0.39811500  0.98834000  0.32219000  1
  Li  Li3  1  0.82693400  0.36498100  0.33435300  1
  Li  Li4  1  0.10443900  0.95289300  0.49326200  1
  Li  Li5  1  0.47433900  0.32808500  0.82134300  1
  Li  Li6  1  0.95289300  0.10443900  0.99326200  1
  Li  Li7  1  0.12100100  0.58145300  0.97460300  1
  Li  Li8  1  0.32808500  0.47433900  0.32134300  1
  Li  Li9  1  0.58145300  0.12100100  0.47460300  1
  Li  Li10  1  0.47438800  0.03613200  0.98706700  1
  Li  Li11  1  0.03613200  0.47438800  0.48706700  1
  Li  Li12  1  0.30637000  0.13001200  0.65879100  1
  Li  Li13  1  0.13001200  0.30637000  0.15879100  1
  Fe  Fe0  1  0.72157500  0.72291700  0.65651800  1
  Fe  Fe1  1  0.72291700  0.72157500  0.15651800  1
  P  P0  1  0.86122700  0.91215500  0.83061900  1
  P  P1  1  0.91215500  0.86122700  0.33061900  1
  P  P2  1  0.62167900  0.52837100  0.98247900  1
  P  P3  1  0.52837100  0.62167900  0.48247900  1
  P  P4  1  0.83921100  0.19241700  0.65655900  1
  P  P5  1  0.19241700  0.83921100  0.15655900  1
  P  P6  1  0.25120300  0.61729100  0.65548100  1
  P  P7  1  0.61729100  0.25120300  0.15548100  1
  O  O0  1  0.70342200  0.79394300  0.79448900  1
  O  O1  1  0.79394300  0.70342200  0.29448900  1
  O  O2  1  0.85696000  0.41891800  0.95998800  1
  O  O3  1  0.74181900  0.61658400  0.52228300  1
  O  O4  1  0.41891800  0.85696000  0.45998800  1
  O  O5  1  0.61658400  0.74181900  0.02228300  1
  O  O6  1  0.37457600  0.78194700  0.68421800  1
  O  O7  1  0.73890100  0.39233500  0.70746900  1
  O  O8  1  0.45916200  0.54248100  0.91081500  1
  O  O9  1  0.96402900  0.03971300  0.73868600  1
  O  O10  1  0.78194700  0.37457600  0.18421800  1
  O  O11  1  0.39233500  0.73890100  0.20746900  1
  O  O12  1  0.54248100  0.45916200  0.41081500  1
  O  O13  1  0.03971300  0.96402900  0.23868600  1
  O  O14  1  0.05958400  0.76559800  0.86681000  1
  O  O15  1  0.75047900  0.08142700  0.89508500  1
  O  O16  1  0.38308400  0.50806100  0.56520300  1
  O  O17  1  0.04066100  0.72515800  0.61511000  1
  O  O18  1  0.76559800  0.05958400  0.36681000  1
  O  O19  1  0.66778800  0.08400900  0.62105800  1
  O  O20  1  0.08142700  0.75047900  0.39508500  1
  O  O21  1  0.50806100  0.38308400  0.06520300  1
  O  O22  1  0.23967200  0.42405600  0.72602900  1
  O  O23  1  0.72515800  0.04066100  0.11511000  1
  O  O24  1  0.08400900  0.66778800  0.12105800  1
  O  O25  1  0.42405600  0.23967200  0.22602900  1
  O  O26  1  0.02856700  0.20954900  0.58344400  1
  O  O27  1  0.20954900  0.02856700  0.08344400  1
  F  F0  1  0.29223800  0.12482500  0.88348400  1
  F  F1  1  0.12482500  0.29223800  0.38348400  1
loop_
_geom_bond_atom_site_label_1
_geom_bond_atom_site_label_2
_geom_bond_distance
_geom_bond_site_symmetry_2
Li0 O22 2.042594 1_655
Li0 O2 2.109257 1_555
Li0 O7 2.431663 1_555
Li1 O8 2.048349 1_555
Li1 O14 2.058757 1_555
Li1 O0 2.151179 1_555
Li1 O6 2.235655 1_555
Li2 O25 2.042594 1_565
Li2 O4 2.109257 1_555
Li2 O11 2.431663 1_555
Li3 O12 2.048349 1_555
Li3 O18 2.058757 1_555
Li3 O1 2.151179 1_555
Li3 O10 2.235655 1_555
Li4 O4 2.002163 1_555
Li4 O20 2.057818 1_555
Li4 O26 2.154666 1_565
Li4 O17 2.238222 1_555
Li5 O8 1.967068 1_555
Li5 O22 2.107483 1_555
Li5 O7 2.312875 1_555
Li5 O15 2.384398 1_555
Li6 O2 2.002163 1_555
Li6 O15 2.057818 1_555
Li6 O27 2.154666 1_656
Li6 O23 2.238222 1_556
Li7 O14 1.893678 1_555
Li7 O2 2.178829 1_455
Li7 O8 2.237409 1_555
Li7 O24 2.242535 1_556
Li8 O12 1.967068 1_555
Li8 O25 2.107483 1_555
Li8 O11 2.312875 1_555
Li8 O20 2.384398 1_555
Li9 O18 1.893678 1_555
Li9 O4 2.178829 1_545
Li9 O12 2.237409 1_555
Li9 O19 2.242535 1_555
Li10 O5 1.958599 1_546
Li10 O27 2.091640 1_556
Li10 O15 2.151958 1_555
Li11 O3 1.958599 1_455
Li11 O26 2.091640 1_555
Li11 O20 2.151958 1_555
Li12 O26 2.128883 1_555
Li12 O22 2.152142 1_555
Li12 O6 2.175738 1_545
Li12 O19 2.281450 1_555
Li12 O9 2.509258 1_455
Li13 O27 2.128883 1_555
Li13 O25 2.152142 1_555
Li13 O10 2.175738 1_455
Li13 O24 2.281450 1_555
Li13 O13 2.509258 1_545
Fe0 O17 2.064356 1_655
Fe0 O0 2.098719 1_555
Fe0 O3 2.123867 1_555
Fe0 O7 2.147773 1_555
Fe0 O6 2.172056 1_555
Fe0 O19 2.272839 1_565
Fe1 O23 2.064356 1_565
Fe1 O1 2.098719 1_555
Fe1 O5 2.123867 1_555
Fe1 O11 2.147773 1_555
Fe1 O10 2.172056 1_555
Fe1 O24 2.272839 1_655
O0 P0 1.529973 1_555
O1 P1 1.529973 1_555
O2 P2 1.542388 1_555
O3 P3 1.525590 1_555
O4 P3 1.542388 1_555
O5 P2 1.525590 1_554
O6 P6 1.540507 1_555
O7 P4 1.536618 1_555
O8 P2 1.530121 1_555
O9 P4 1.635566 1_555
O9 P0 1.645568 1_545
O10 P7 1.540507 1_555
O11 P5 1.536618 1_555
O12 P3 1.530121 1_555
O13 P5 1.635566 1_555
O13 P1 1.645568 1_455
O14 P0 1.523798 1_455
O15 P0 1.523879 1_545
O16 P6 1.632642 1_555
O16 P3 1.644637 1_555
O17 P6 1.528648 1_555
O18 P1 1.523798 1_545
O19 P4 1.556003 1_555
O20 P1 1.523879 1_455
O21 P7 1.632642 1_555
O21 P2 1.644637 1_554
O22 P6 1.532895 1_555
O23 P7 1.528648 1_555
O24 P5 1.556003 1_555
O25 P7 1.532895 1_555
O26 P4 1.542345 1_455
O27 P5 1.542345 1_545
F0 Li10 1.971008 1_555
F0 Li5 1.997047 1_555
F0 Li1 2.048390 1_545
F1 Li11 1.971008 1_555
F1 Li8 1.997047 1_555
F1 Li3 2.048390 1_455
