# generated using pymatgen
data_Li4Cr3Fe3(SbO8)2
_symmetry_space_group_name_H-M   'P 1'
_cell_length_a   5.95488426
_cell_length_b   5.96858708
_cell_length_c   9.65235832
_cell_angle_alpha   89.99110431
_cell_angle_beta   89.82775155
_cell_angle_gamma   120.06524967
_symmetry_Int_Tables_number   1
_chemical_formula_structural   Li4Cr3Fe3(SbO8)2
_chemical_formula_sum   'Li4 Cr3 Fe3 Sb2 O16'
_cell_volume   296.90686540
_cell_formula_units_Z   1
loop_
 _symmetry_equiv_pos_site_id
 _symmetry_equiv_pos_as_xyz
  1  'x, y, z'
loop_
 _atom_site_type_symbol
 _atom_site_label
 _atom_site_symmetry_multiplicity
 _atom_site_fract_x
 _atom_site_fract_y
 _atom_site_fract_z
 _atom_site_occupancy
  Li  Li0  1  0.33132200  0.66561900  0.90760000  1
  Li  Li1  1  0.00099500  0.00043200  0.99659700  1
  Li  Li2  1  0.00330800  0.00174900  0.49867900  1
  Li  Li3  1  0.66661600  0.33332000  0.41172200  1
  Cr  Cr0  1  0.65745000  0.82872200  0.22085700  1
  Cr  Cr1  1  0.83053600  0.66070600  0.72088800  1
  Cr  Cr2  1  0.83047600  0.16981900  0.72092400  1
  Fe  Fe0  1  0.16794100  0.82859900  0.22165600  1
  Fe  Fe1  1  0.16795700  0.33934600  0.22166000  1
  Fe  Fe2  1  0.34329400  0.17167200  0.72079700  1
  Sb  Sb0  1  0.33624900  0.66813900  0.49831600  1
  Sb  Sb1  1  0.66313500  0.33161600  0.99174700  1
  O  O0  1  0.16902400  0.83863900  0.60368000  1
  O  O1  1  0.03721100  0.51861600  0.35810300  1
  O  O2  1  0.32885500  0.66440500  0.11374100  1
  O  O3  1  0.99927900  0.99965900  0.31153500  1
  O  O4  1  0.01005400  0.00495700  0.81081200  1
  O  O5  1  0.16900100  0.33042900  0.60372200  1
  O  O6  1  0.48564200  0.96373300  0.35337900  1
  O  O7  1  0.48574900  0.52199800  0.35343500  1
  O  O8  1  0.67202100  0.83608900  0.60431600  1
  O  O9  1  0.33236000  0.16621300  0.10191800  1
  O  O10  1  0.51456300  0.47950000  0.84831900  1
  O  O11  1  0.51453900  0.03511400  0.84837700  1
  O  O12  1  0.82989700  0.66556300  0.10098600  1
  O  O13  1  0.66039400  0.33029000  0.61786200  1
  O  O14  1  0.96222900  0.48104500  0.84923700  1
  O  O15  1  0.82990100  0.16431100  0.10097500  1
loop_
_geom_bond_atom_site_label_1
_geom_bond_atom_site_label_2
_geom_bond_distance
_geom_bond_site_symmetry_2
Li0 O14 1.985778 1_455
Li0 O2 1.989742 1_556
Li0 O10 1.990754 1_555
Li0 O11 1.991417 1_565
Li1 O4 1.793705 1_555
Li1 O9 1.990542 1_556
Li1 O12 2.000228 1_446
Li1 O15 2.000619 1_456
Li2 O3 1.806574 1_445
Li2 O0 1.979164 1_545
Li2 O5 1.979200 1_555
Li2 O8 1.985526 1_445
Li3 O1 1.977030 1_655
Li3 O13 1.989881 1_555
Li3 O7 1.990849 1_555
Li3 O6 1.991647 1_545
Cr0 O3 1.969919 1_555
Cr0 O2 1.987293 1_555
Cr0 O7 2.037257 1_555
Cr0 O6 2.037356 1_555
Cr0 O15 2.082473 1_565
Cr0 O12 2.082501 1_555
Cr1 O13 1.977199 1_555
Cr1 O4 1.980718 1_665
Cr1 O14 2.036588 1_555
Cr1 O10 2.041974 1_555
Cr1 O8 2.061291 1_555
Cr1 O0 2.076463 1_655
Cr2 O13 1.977499 1_555
Cr2 O4 1.980961 1_655
Cr2 O14 2.036264 1_555
Cr2 O11 2.041956 1_555
Cr2 O8 2.061238 1_545
Cr2 O5 2.076579 1_655
Fe0 O3 1.956090 1_455
Fe0 O2 1.974548 1_555
Fe0 O1 2.076929 1_555
Fe0 O6 2.081379 1_555
Fe0 O9 2.090590 1_565
Fe0 O12 2.099407 1_455
Fe1 O3 1.955958 1_445
Fe1 O2 1.974347 1_555
Fe1 O1 2.077143 1_555
Fe1 O7 2.082142 1_555
Fe1 O9 2.090300 1_555
Fe1 O15 2.099559 1_455
Fe2 O13 1.909534 1_555
Fe2 O4 1.921924 1_555
Fe2 O11 2.015116 1_555
Fe2 O10 2.015351 1_555
Fe2 O5 2.060150 1_555
Fe2 O0 2.060791 1_545
O0 Sb0 2.017708 1_555
O1 Sb0 2.054667 1_555
O5 Sb0 2.017852 1_555
O6 Sb0 2.068907 1_555
O7 Sb0 2.068812 1_555
O8 Sb0 2.013445 1_555
O9 Sb1 2.005981 1_554
O10 Sb1 2.065886 1_555
O11 Sb1 2.066149 1_555
O12 Sb1 2.023476 1_554
O14 Sb1 2.062298 1_555
O15 Sb1 2.023484 1_554
