# generated using pymatgen
data_Na3AsH14SO10
_symmetry_space_group_name_H-M   'P 1'
_cell_length_a   12.74214300
_cell_length_b   6.77473600
_cell_length_c   7.10608055
_cell_angle_alpha   85.86546282
_cell_angle_beta   90.00000000
_cell_angle_gamma   90.00000000
_symmetry_Int_Tables_number   1
_chemical_formula_structural   Na3AsH14SO10
_chemical_formula_sum   'Na6 As2 H28 S2 O20'
_cell_volume   611.83350184
_cell_formula_units_Z   2
loop_
 _symmetry_equiv_pos_site_id
 _symmetry_equiv_pos_as_xyz
  1  'x, y, z'
loop_
 _atom_site_type_symbol
 _atom_site_label
 _atom_site_symmetry_multiplicity
 _atom_site_fract_x
 _atom_site_fract_y
 _atom_site_fract_z
 _atom_site_occupancy
  Na  Na0  1  0.23869000  0.19958000  0.79979600  1
  Na  Na1  1  0.73869000  0.80042000  0.20020400  1
  Na  Na2  1  0.13178800  0.20297900  0.32614600  1
  Na  Na3  1  0.63178800  0.79702100  0.67385400  1
  Na  Na4  1  0.49397600  0.22327100  0.67741900  1
  Na  Na5  1  0.99397600  0.77672900  0.32258100  1
  As  As0  1  0.85107700  0.19950000  0.80691400  1
  As  As1  1  0.35107700  0.80050000  0.19308600  1
  H  H0  1  0.77747900  0.35526400  0.41579900  1
  H  H1  1  0.27747900  0.64473600  0.58420100  1
  H  H2  1  0.67038000  0.35999200  0.30272400  1
  H  H3  1  0.17038000  0.64000800  0.69727600  1
  H  H4  1  0.40418400  0.20024400  0.05426200  1
  H  H5  1  0.90418400  0.79975600  0.94573800  1
  H  H6  1  0.39362900  0.43189000  0.97935300  1
  H  H7  1  0.89362900  0.56811000  0.02064700  1
  H  H8  1  0.91289600  0.17067400  0.40653500  1
  H  H9  1  0.41289600  0.82932600  0.59346500  1
  H  H10  1  0.92612200  0.18912500  0.18364200  1
  H  H11  1  0.42612200  0.81087500  0.81635800  1
  H  H12  1  0.97218800  0.42035200  0.53663700  1
  H  H13  1  0.47218800  0.57964800  0.46336300  1
  H  H14  1  0.08906300  0.47349000  0.58844400  1
  H  H15  1  0.58906300  0.52651000  0.41155600  1
  H  H16  1  0.32970200  0.39790100  0.42742800  1
  H  H17  1  0.82970200  0.60209900  0.57257200  1
  H  H18  1  0.04662600  0.36256800  0.98123000  1
  H  H19  1  0.54662600  0.63743200  0.01877000  1
  H  H20  1  0.14429400  0.50978100  0.01433600  1
  H  H21  1  0.64429400  0.49021900  0.98566400  1
  H  H22  1  0.03321100  0.99346100  0.68820900  1
  H  H23  1  0.53321100  0.00653900  0.31179100  1
  H  H24  1  0.14739700  0.89525200  0.69000000  1
  H  H25  1  0.64739700  0.10474800  0.31000000  1
  H  H26  1  0.34604800  0.17168400  0.37999100  1
  H  H27  1  0.84604800  0.82831600  0.62000900  1
  S  S0  1  0.69110300  0.13936500  0.89049400  1
  S  S1  1  0.19110300  0.86063500  0.10950600  1
  O  O0  1  0.91954100  0.32065100  0.97275600  1
  O  O1  1  0.41954100  0.67934900  0.02724400  1
  O  O2  1  0.91486500  0.97884400  0.76733900  1
  O  O3  1  0.41486500  0.02115600  0.23266100  1
  O  O4  1  0.85910600  0.34636100  0.59443600  1
  O  O5  1  0.35910600  0.65363900  0.40556400  1
  O  O6  1  0.74502200  0.38618800  0.28832300  1
  O  O7  1  0.24502200  0.61381200  0.71167700  1
  O  O8  1  0.39483900  0.29366300  0.93935300  1
  O  O9  1  0.89483900  0.70633700  0.06064700  1
  O  O10  1  0.94623300  0.10684000  0.30192600  1
  O  O11  1  0.44623300  0.89316000  0.69807400  1
  O  O12  1  0.04117000  0.47594600  0.48084000  1
  O  O13  1  0.54117000  0.52405400  0.51916000  1
  O  O14  1  0.30890400  0.25902800  0.46667900  1
  O  O15  1  0.80890400  0.74097200  0.53332100  1
  O  O16  1  0.12531700  0.37184000  0.99635800  1
  O  O17  1  0.62531700  0.62816000  0.00364200  1
  O  O18  1  0.10535100  0.99936800  0.62465100  1
  O  O19  1  0.60535100  0.00063200  0.37534900  1
loop_
_geom_bond_atom_site_label_1
_geom_bond_atom_site_label_2
_geom_bond_distance
_geom_bond_site_symmetry_2
Na0 O8 2.332313 1_555
Na0 O16 2.373794 1_555
Na0 O14 2.535470 1_555
Na0 O18 2.553214 1_545
Na0 O7 2.832068 1_555
Na0 S1 3.123363 1_546
Na1 O9 2.332313 1_555
Na1 O17 2.373794 1_555
Na1 O15 2.535470 1_555
Na1 O19 2.553214 1_565
Na1 O6 2.832068 1_555
Na1 S0 3.123363 1_564
Na2 O10 2.461755 1_455
Na2 O18 2.468567 1_545
Na2 O12 2.500923 1_555
Na2 O14 2.507879 1_555
Na2 O16 2.533953 1_554
Na2 S1 2.972395 1_545
Na3 O11 2.461755 1_555
Na3 O19 2.468567 1_565
Na3 O13 2.500923 1_555
Na3 O15 2.507879 1_555
Na3 O17 2.533953 1_556
Na3 S0 2.972395 1_565
Na4 O11 2.312109 1_545
Na4 O8 2.327158 1_555
Na4 O13 2.334145 1_555
Na4 S0 2.966621 1_555
Na5 O10 2.312109 1_565
Na5 O9 2.327158 1_555
Na5 O12 2.334145 1_655
Na5 S1 2.966621 1_655
As0 O0 1.721339 1_555
As0 O2 1.742133 1_545
As0 O4 1.750290 1_555
As0 S0 2.153823 1_555
As1 O1 1.721339 1_555
As1 O3 1.742133 1_565
As1 O5 1.750290 1_555
As1 S1 2.153823 1_555
H0 O6 1.004062 1_555
H0 O4 1.638844 1_555
H1 O7 1.004062 1_555
H1 O5 1.638844 1_555
H2 O6 0.971565 1_555
H3 O7 0.971565 1_555
H4 O8 1.003477 1_554
H4 O3 1.695841 1_555
H5 O9 1.003477 1_556
H5 O2 1.695841 1_555
H6 O8 0.998176 1_555
H6 O1 1.765687 1_556
H7 O9 0.998176 1_555
H7 O0 1.765687 1_554
H8 O10 0.983057 1_555
H9 O11 0.983057 1_555
H10 O10 1.007652 1_555
H10 O0 1.689432 1_554
H11 O11 1.007652 1_555
H11 O1 1.689432 1_556
H12 O12 1.024760 1_655
H12 O4 1.570507 1_555
H13 O13 1.024760 1_555
H13 O5 1.570507 1_555
H14 O12 0.977516 1_555
H15 O13 0.977516 1_555
H16 O14 0.997670 1_555
H17 O15 0.997670 1_555
H18 O16 1.010874 1_555
H18 O0 1.645898 1_455
H19 O17 1.010874 1_555
H19 O1 1.645898 1_555
H20 O16 0.982509 1_554
H21 O17 0.982509 1_556
H22 O18 1.023691 1_555
H22 O2 1.609960 1_455
H23 O19 1.023691 1_555
H23 O3 1.609960 1_555
H24 O18 0.976206 1_555
H24 Na0 2.538636 1_565
H25 O19 0.976206 1_555
H25 Na1 2.538636 1_545
H26 O14 1.003089 1_555
H26 O3 1.748975 1_555
H27 O15 1.003089 1_555
H27 O2 1.748975 1_555
