# generated using pymatgen
data_CeCu5
_symmetry_space_group_name_H-M   'P 1'
_cell_length_a   5.06263116
_cell_length_b   5.06262976
_cell_length_c   4.06861800
_cell_angle_alpha   90.00000000
_cell_angle_beta   90.00000000
_cell_angle_gamma   120.00006887
_symmetry_Int_Tables_number   1
_chemical_formula_structural   CeCu5
_chemical_formula_sum   'Ce1 Cu5'
_cell_volume   90.30872317
_cell_formula_units_Z   1
loop_
 _symmetry_equiv_pos_site_id
 _symmetry_equiv_pos_as_xyz
  1  'x, y, z'
loop_
 _atom_site_type_symbol
 _atom_site_label
 _atom_site_symmetry_multiplicity
 _atom_site_fract_x
 _atom_site_fract_y
 _atom_site_fract_z
 _atom_site_occupancy
  Ce  Ce0  1  -0.00000000  0.00000000  0.00000000  1
  Cu  Cu0  1  -0.00000000  0.50000000  0.50000000  1
  Cu  Cu1  1  0.33333400  0.66666700  0.00000000  1
  Cu  Cu2  1  0.66666600  0.33333300  -0.00000000  1
  Cu  Cu3  1  0.50000000  0.00000000  0.50000000  1
  Cu  Cu4  1  0.50000000  0.50000000  0.50000000  1
loop_
_geom_bond_atom_site_label_1
_geom_bond_atom_site_label_2
_geom_bond_distance
_geom_bond_site_symmetry_2
Ce0 Cu2 2.922907 1_555
Ce0 Cu1 2.922907 1_445
Ce0 Cu2 2.922910 1_445
Ce0 Cu1 2.922910 1_555
Ce0 Cu1 2.922914 1_545
Ce0 Cu2 2.922914 1_455
Ce0 Cu4 3.247454 1_554
Ce0 Cu4 3.247454 1_445
Ce0 Cu4 3.247454 1_555
Ce0 Cu4 3.247454 1_444
Ce0 Cu0 3.247456 1_545
Ce0 Cu0 3.247456 1_554
Ce0 Cu0 3.247456 1_544
Ce0 Cu0 3.247456 1_555
Ce0 Cu3 3.247456 1_455
Ce0 Cu3 3.247456 1_554
Ce0 Cu3 3.247456 1_454
Ce0 Cu3 3.247456 1_555
Cu0 Cu1 2.504850 1_556
Cu0 Cu1 2.504850 1_555
Cu0 Cu2 2.504850 1_456
Cu0 Cu2 2.504850 1_455
Cu0 Cu3 2.531313 1_455
Cu0 Cu3 2.531313 1_565
Cu0 Cu4 2.531316 1_455
Cu0 Cu4 2.531316 1_555
Cu1 Cu3 2.504847 1_565
Cu1 Cu3 2.504847 1_564
Cu1 Cu4 2.504848 1_554
Cu1 Cu4 2.504848 1_555
Cu1 Cu2 2.922906 1_565
Cu1 Cu2 2.922909 1_555
Cu1 Cu2 2.922915 1_455
Cu2 Cu3 2.504847 1_554
Cu2 Cu3 2.504847 1_555
Cu2 Cu4 2.504848 1_555
Cu2 Cu4 2.504848 1_554
Cu3 Cu4 2.531315 1_555
Cu3 Cu4 2.531315 1_545
