# generated using pymatgen
data_Na3Li3Fe2P2(CO7)2
_symmetry_space_group_name_H-M   'P 1'
_cell_length_a   6.63083600
_cell_length_b   8.75212652
_cell_length_c   10.20111287
_cell_angle_alpha   91.59660503
_cell_angle_beta   90.47454807
_cell_angle_gamma   90.60723180
_symmetry_Int_Tables_number   1
_chemical_formula_structural   Na3Li3Fe2P2(CO7)2
_chemical_formula_sum   'Na6 Li6 Fe4 P4 C4 O28'
_cell_volume   591.72566265
_cell_formula_units_Z   2
loop_
 _symmetry_equiv_pos_site_id
 _symmetry_equiv_pos_as_xyz
  1  'x, y, z'
loop_
 _atom_site_type_symbol
 _atom_site_label
 _atom_site_symmetry_multiplicity
 _atom_site_fract_x
 _atom_site_fract_y
 _atom_site_fract_z
 _atom_site_occupancy
  Na  Na0  1  0.25210800  0.91574600  0.87869400  1
  Na  Na1  1  0.24171500  0.91586100  0.37873500  1
  Na  Na2  1  0.99503200  0.74487800  0.62491600  1
  Na  Na3  1  0.50219700  0.74337800  0.12755500  1
  Na  Na4  1  0.50152500  0.25497100  0.87473200  1
  Na  Na5  1  0.50079600  0.25612800  0.37604600  1
  Li  Li0  1  0.47141700  0.71883400  0.61067500  1
  Li  Li1  1  0.02719400  0.72038700  0.10939800  1
  Li  Li2  1  0.97937300  0.27470800  0.88403800  1
  Li  Li3  1  0.97819100  0.27612800  0.38762800  1
  Li  Li4  1  0.75682200  0.09724600  0.62593800  1
  Li  Li5  1  0.77991100  0.09242900  0.12700200  1
  Fe  Fe0  1  0.75140300  0.64629600  0.88968400  1
  Fe  Fe1  1  0.74710100  0.64618800  0.38929600  1
  Fe  Fe2  1  0.24247200  0.34889200  0.60996600  1
  Fe  Fe3  1  0.24628000  0.34869700  0.10808100  1
  P  P0  1  0.24917300  0.58345600  0.85270800  1
  P  P1  1  0.23758100  0.58386300  0.35327700  1
  P  P2  1  0.74600500  0.40926400  0.64770900  1
  P  P3  1  0.75898600  0.41093700  0.14706300  1
  C  C0  1  0.75896000  0.95697600  0.86487300  1
  C  C1  1  0.76123300  0.95763000  0.36526100  1
  C  C2  1  0.25781400  0.05070700  0.63520200  1
  C  C3  1  0.23861600  0.05041700  0.13549500  1
  O  O0  1  0.28201700  0.90456700  0.64184400  1
  O  O1  1  0.22110700  0.90310700  0.14139300  1
  O  O2  1  0.74763900  0.92556300  0.98853600  1
  O  O3  1  0.75882000  0.92482400  0.48877800  1
  O  O4  1  0.75054300  0.84588200  0.77640200  1
  O  O5  1  0.74563200  0.84751000  0.27621200  1
  O  O6  1  0.06755900  0.68537400  0.89452000  1
  O  O7  1  0.43961300  0.67079100  0.90511400  1
  O  O8  1  0.05804600  0.68283900  0.40110600  1
  O  O9  1  0.43089200  0.67437800  0.40016700  1
  O  O10  1  0.25997400  0.56860900  0.69922000  1
  O  O11  1  0.72414600  0.56969700  0.58818000  1
  O  O12  1  0.23269600  0.57008200  0.19989700  1
  O  O13  1  0.77250600  0.57203700  0.08744500  1
  O  O14  1  0.22977200  0.42177800  0.90853300  1
  O  O15  1  0.77605500  0.42834000  0.79921000  1
  O  O16  1  0.23151500  0.42219800  0.41023800  1
  O  O17  1  0.77812800  0.42825600  0.29959100  1
  O  O18  1  0.55805400  0.30563200  0.61752300  1
  O  O19  1  0.92502900  0.31654600  0.58831200  1
  O  O20  1  0.55937000  0.32481300  0.11090500  1
  O  O21  1  0.92898300  0.30435500  0.09321400  1
  O  O22  1  0.23865600  0.13629000  0.74064600  1
  O  O23  1  0.24297300  0.13647800  0.24123800  1
  O  O24  1  0.25024000  0.11651700  0.52202500  1
  O  O25  1  0.25219300  0.11585100  0.02240900  1
  O  O26  1  0.77772500  0.09633900  0.82618300  1
  O  O27  1  0.77821500  0.09733000  0.32718600  1
loop_
_geom_bond_atom_site_label_1
_geom_bond_atom_site_label_2
_geom_bond_distance
_geom_bond_site_symmetry_2
Na0 O25 2.252422 1_566
Na0 O6 2.357519 1_555
Na0 O22 2.422794 1_565
Na0 O0 2.425238 1_555
Na0 O7 2.509547 1_555
Na0 O1 2.694643 1_556
Na1 O24 2.253312 1_565
Na1 O8 2.381703 1_555
Na1 O23 2.417941 1_565
Na1 O1 2.423272 1_555
Na1 O9 2.483055 1_555
Na1 O0 2.699728 1_555
Na2 O0 2.351406 1_655
Na2 O11 2.369800 1_555
Na2 O8 2.373507 1_655
Na2 O4 2.406952 1_555
Na2 O10 2.478185 1_655
Na2 O3 2.645821 1_555
Na2 O6 2.851253 1_655
Na3 O1 2.344528 1_555
Na3 O5 2.363705 1_555
Na3 O7 2.371352 1_554
Na3 O13 2.379863 1_555
Na3 O12 2.462763 1_555
Na3 O2 2.703986 1_554
Na3 O9 2.903655 1_555
Na4 O14 2.352716 1_555
Na4 O26 2.357457 1_555
Na4 O22 2.414751 1_555
Na4 O20 2.494554 1_556
Na4 O15 2.497883 1_555
Na4 O25 2.566345 1_556
Na4 O18 2.701688 1_555
Na5 O16 2.336560 1_555
Na5 O27 2.365299 1_555
Na5 O23 2.398603 1_555
Na5 O17 2.507989 1_555
Na5 O18 2.514245 1_555
Na5 O24 2.563234 1_555
Na5 O20 2.816178 1_555
Li0 O0 2.083713 1_555
Li0 O10 2.135030 1_555
Li0 O11 2.144934 1_555
Li0 O9 2.185556 1_555
Li1 O1 2.058544 1_555
Li1 O13 2.125798 1_455
Li1 O12 2.127072 1_555
Li1 O6 2.223603 1_554
Li2 O14 2.099033 1_655
Li2 O15 2.111463 1_555
Li2 O26 2.112946 1_555
Li2 O21 2.171402 1_556
Li2 O22 2.559336 1_655
Li3 O19 2.101111 1_555
Li3 O17 2.103199 1_555
Li3 O16 2.107311 1_655
Li3 O27 2.115648 1_555
Li4 O3 2.029341 1_545
Li4 O26 2.046515 1_555
Li4 O19 2.253436 1_555
Li4 O18 2.264644 1_555
Li5 O2 2.011777 1_544
Li5 O27 2.041481 1_555
Li5 O21 2.130394 1_555
Li5 O20 2.525813 1_555
Fe0 O7 2.087559 1_555
Fe0 O15 2.104373 1_555
Fe0 O6 2.120462 1_655
Fe0 O4 2.121168 1_555
Fe0 O13 2.140591 1_556
Fe1 O8 2.085245 1_655
Fe1 O17 2.105219 1_555
Fe1 O9 2.117248 1_555
Fe1 O5 2.132820 1_555
Fe1 O11 2.160132 1_555
Fe2 O10 2.106254 1_555
Fe2 O19 2.129736 1_455
Fe2 O18 2.131643 1_555
Fe2 O16 2.153945 1_555
Fe2 O24 2.201135 1_555
Fe2 O22 2.319010 1_555
Fe3 O20 2.088791 1_555
Fe3 O12 2.131572 1_555
Fe3 O21 2.138766 1_455
Fe3 O14 2.152940 1_554
Fe3 O25 2.195761 1_555
Fe3 O23 2.331444 1_555
C0 O26 1.297460 1_565
C0 O2 1.301177 1_555
C0 O4 1.308483 1_555
C1 O27 1.297203 1_565
C1 O3 1.300277 1_555
C1 O5 1.308554 1_555
C2 O0 1.294326 1_545
C2 O22 1.301379 1_555
C2 O24 1.305344 1_555
C3 O1 1.296378 1_545
C3 O23 1.298269 1_555
C3 O25 1.305495 1_555
O6 P0 1.561374 1_555
O7 P0 1.552497 1_555
O8 P1 1.553572 1_555
O9 P1 1.564170 1_555
O10 P0 1.569809 1_555
O11 P2 1.552974 1_555
O12 P1 1.565975 1_555
O13 P3 1.553037 1_555
O14 P0 1.544478 1_555
O15 P2 1.560736 1_555
O16 P1 1.544742 1_555
O17 P3 1.563094 1_555
O18 P2 1.557172 1_555
O19 P2 1.561961 1_555
O20 P3 1.552889 1_555
O21 P3 1.564137 1_555
