# generated using pymatgen
data_LaHoO3
_symmetry_space_group_name_H-M   'P 1'
_cell_length_a   6.08585400
_cell_length_b   6.03314600
_cell_length_c   8.51063151
_cell_angle_alpha   89.85699993
_cell_angle_beta   90.00000000
_cell_angle_gamma   90.00000000
_symmetry_Int_Tables_number   1
_chemical_formula_structural   LaHoO3
_chemical_formula_sum   'La4 Ho4 O12'
_cell_volume   312.48257074
_cell_formula_units_Z   4
loop_
 _symmetry_equiv_pos_site_id
 _symmetry_equiv_pos_as_xyz
  1  'x, y, z'
loop_
 _atom_site_type_symbol
 _atom_site_label
 _atom_site_symmetry_multiplicity
 _atom_site_fract_x
 _atom_site_fract_y
 _atom_site_fract_z
 _atom_site_occupancy
  La  La0  1  0.99178500  0.02397500  0.75092900  1
  La  La1  1  0.49178500  0.47602500  0.24907100  1
  La  La2  1  0.50821500  0.52397500  0.75092900  1
  La  La3  1  0.00821500  0.97602500  0.24907100  1
  Ho  Ho0  1  0.50000000  0.00000000  0.50000000  1
  Ho  Ho1  1  0.50000000  0.00000000  0.00000000  1
  Ho  Ho2  1  0.00000000  0.50000000  0.50000000  1
  Ho  Ho3  1  0.00000000  0.50000000  0.00000000  1
  O  O0  1  0.38924400  0.04032400  0.25158900  1
  O  O1  1  0.17580500  0.17636000  0.96086500  1
  O  O2  1  0.81273900  0.18690700  0.43548100  1
  O  O3  1  0.31273900  0.31309300  0.56451900  1
  O  O4  1  0.67580500  0.32364000  0.03913500  1
  O  O5  1  0.88924400  0.45967600  0.74841100  1
  O  O6  1  0.11075600  0.54032400  0.25158900  1
  O  O7  1  0.32419500  0.67636000  0.96086500  1
  O  O8  1  0.68726100  0.68690700  0.43548100  1
  O  O9  1  0.18726100  0.81309300  0.56451900  1
  O  O10  1  0.82419500  0.82364000  0.03913500  1
  O  O11  1  0.61075600  0.95967600  0.74841100  1
loop_
_geom_bond_atom_site_label_1
_geom_bond_atom_site_label_2
_geom_bond_distance
_geom_bond_site_symmetry_2
La0 O1 2.302150 1_655
La0 O11 2.351217 1_545
La0 O9 2.358155 1_645
La0 O5 2.701741 1_555
La0 O10 2.915921 1_546
La0 O2 3.057424 1_555
La0 O3 3.059561 1_655
La1 O4 2.302150 1_555
La1 O6 2.351217 1_555
La1 O8 2.358155 1_555
La1 O0 2.701741 1_555
La1 O7 2.915921 1_554
La1 O3 3.057424 1_555
La1 O2 3.059561 1_555
La2 O7 2.302150 1_555
La2 O5 2.351217 1_555
La2 O3 2.358155 1_555
La2 O11 2.701741 1_555
La2 O4 2.915921 1_556
La2 O8 3.057424 1_555
La2 O9 3.059561 1_555
La3 O10 2.302150 1_455
La3 O0 2.351217 1_565
La3 O2 2.358155 1_465
La3 O6 2.701741 1_555
La3 O1 2.915921 1_564
La3 O9 3.057424 1_555
La3 O8 3.059561 1_455
Ho0 O0 2.231708 1_555
Ho0 O11 2.231708 1_545
Ho0 O3 2.274544 1_555
Ho0 O8 2.274544 1_545
Ho0 O2 2.278700 1_555
Ho0 O9 2.278700 1_545
Ho1 O4 2.251984 1_555
Ho1 O7 2.251984 1_544
Ho1 O11 2.258490 1_544
Ho1 O0 2.258490 1_555
Ho1 O1 2.265836 1_554
Ho1 O10 2.265836 1_545
Ho2 O6 2.231708 1_555
Ho2 O5 2.231708 1_455
Ho2 O9 2.274544 1_555
Ho2 O2 2.274544 1_455
Ho2 O3 2.278700 1_555
Ho2 O8 2.278700 1_455
Ho3 O10 2.251984 1_455
Ho3 O1 2.251984 1_554
Ho3 O5 2.258490 1_454
Ho3 O6 2.258490 1_555
Ho3 O7 2.265836 1_554
Ho3 O4 2.265836 1_455
