# generated using pymatgen
data_Li4AlCr3O8
_symmetry_space_group_name_H-M   'P 1'
_cell_length_a   5.84875000
_cell_length_b   5.91914410
_cell_length_c   10.16219568
_cell_angle_alpha   73.40876564
_cell_angle_beta   89.99987354
_cell_angle_gamma   119.60744791
_symmetry_Int_Tables_number   1
_chemical_formula_structural   Li4AlCr3O8
_chemical_formula_sum   'Li8 Al2 Cr6 O16'
_cell_volume   288.90846894
_cell_formula_units_Z   2
loop_
 _symmetry_equiv_pos_site_id
 _symmetry_equiv_pos_as_xyz
  1  'x, y, z'
loop_
 _atom_site_type_symbol
 _atom_site_label
 _atom_site_symmetry_multiplicity
 _atom_site_fract_x
 _atom_site_fract_y
 _atom_site_fract_z
 _atom_site_occupancy
  Li  Li0  1  0.49981600  0.99995300  0.00001100  1
  Li  Li1  1  0.99986300  0.00005000  0.49999000  1
  Li  Li2  1  0.49984600  0.00001200  0.49999000  1
  Li  Li3  1  0.99983500  0.99999100  0.00000800  1
  Li  Li4  1  0.24997800  0.99961500  0.25017600  1
  Li  Li5  1  0.74998000  0.99963700  0.75017600  1
  Li  Li6  1  0.75036100  0.00038600  0.24982400  1
  Li  Li7  1  0.25034400  0.00036700  0.74982400  1
  Al  Al0  1  0.25118400  0.49999800  0.75000100  1
  Al  Al1  1  0.75122800  0.49999900  0.25000200  1
  Cr  Cr0  1  0.99871600  0.50035200  0.50089400  1
  Cr  Cr1  1  0.25137300  0.49999200  0.24999700  1
  Cr  Cr2  1  0.99834300  0.49963900  0.99911400  1
  Cr  Cr3  1  0.49857800  0.50025800  0.00098900  1
  Cr  Cr4  1  0.75166200  0.49998500  0.74999400  1
  Cr  Cr5  1  0.49830300  0.49974500  0.49900300  1
  O  O0  1  0.86237900  0.72845700  0.87838800  1
  O  O1  1  0.36236800  0.72840400  0.37843700  1
  O  O2  1  0.13396800  0.27159500  0.12156500  1
  O  O3  1  0.63391800  0.27154600  0.62161500  1
  O  O4  1  0.38293600  0.28080500  0.86764000  1
  O  O5  1  0.88300500  0.28086200  0.36765800  1
  O  O6  1  0.63887600  0.27869200  0.12622400  1
  O  O7  1  0.13888300  0.27875200  0.62623000  1
  O  O8  1  0.89890700  0.27806000  0.86695300  1
  O  O9  1  0.39899900  0.27809600  0.36698300  1
  O  O10  1  0.10214800  0.71914200  0.13234300  1
  O  O11  1  0.60213200  0.71919700  0.63236100  1
  O  O12  1  0.36014000  0.72124900  0.87377200  1
  O  O13  1  0.86018000  0.72131200  0.37377600  1
  O  O14  1  0.62090400  0.72190100  0.13301600  1
  O  O15  1  0.12085000  0.72194700  0.63304900  1
loop_
_geom_bond_atom_site_label_1
_geom_bond_atom_site_label_2
_geom_bond_distance
_geom_bond_site_symmetry_2
Li0 O10 2.210053 1_555
Li0 O4 2.210485 1_564
Li0 O6 2.216141 1_565
Li0 O12 2.216200 1_554
Li0 O14 2.217781 1_555
Li0 O8 2.217807 1_564
Li1 O5 2.210068 1_555
Li1 O11 2.210475 1_545
Li1 O13 2.216145 1_545
Li1 O7 2.216199 1_655
Li1 O9 2.217764 1_655
Li1 O15 2.217813 1_645
Li2 O9 2.138453 1_555
Li2 O15 2.138905 1_545
Li2 O1 2.147977 1_545
Li2 O3 2.148235 1_555
Li2 O11 2.153121 1_545
Li2 O5 2.153195 1_555
Li3 O14 2.138454 1_555
Li3 O8 2.138901 1_564
Li3 O2 2.147992 1_665
Li3 O0 2.148195 1_554
Li3 O4 2.153102 1_664
Li3 O10 2.153225 1_655
Li4 O1 2.134445 1_555
Li4 O9 2.140931 1_565
Li4 O6 2.141983 1_565
Li4 O13 2.143908 1_455
Li4 O2 2.153610 1_565
Li4 O10 2.157432 1_555
Li5 O0 2.134150 1_555
Li5 O8 2.140431 1_565
Li5 O7 2.141998 1_665
Li5 O12 2.144099 1_555
Li5 O3 2.153312 1_565
Li5 O11 2.157150 1_555
Li6 O2 2.134454 1_655
Li6 O14 2.140957 1_545
Li6 O13 2.141968 1_545
Li6 O6 2.143888 1_555
Li6 O1 2.153624 1_545
Li6 O5 2.157453 1_555
Li7 O3 2.134111 1_555
Li7 O15 2.140402 1_545
Li7 O12 2.142058 1_545
Li7 O7 2.144121 1_555
Li7 O0 2.153294 1_445
Li7 O4 2.157149 1_555
Al0 O4 1.951515 1_555
Al0 O11 1.951525 1_555
Al0 O8 1.953789 1_455
Al0 O15 1.953819 1_555
Al0 O7 1.954277 1_555
Al0 O12 1.954297 1_555
Al1 O5 1.951467 1_555
Al1 O10 1.951498 1_655
Al1 O9 1.953713 1_555
Al1 O14 1.953728 1_555
Al1 O13 1.954577 1_555
Al1 O6 1.954586 1_555
Cr0 O3 2.021735 1_555
Cr0 O1 2.024416 1_655
Cr0 O15 2.028419 1_655
Cr0 O5 2.028530 1_555
Cr0 O13 2.029318 1_555
Cr0 O7 2.030594 1_655
Cr1 O2 2.023112 1_555
Cr1 O1 2.023241 1_555
Cr1 O5 2.026551 1_455
Cr1 O10 2.026553 1_555
Cr1 O9 2.028004 1_555
Cr1 O14 2.028013 1_555
Cr2 O0 2.021693 1_555
Cr2 O2 2.024469 1_656
Cr2 O8 2.028409 1_555
Cr2 O10 2.028519 1_656
Cr2 O6 2.029157 1_556
Cr2 O12 2.030739 1_655
Cr3 O2 2.020348 1_555
Cr3 O0 2.025641 1_554
Cr3 O14 2.027542 1_555
Cr3 O4 2.029354 1_554
Cr3 O12 2.029483 1_554
Cr3 O6 2.030560 1_555
Cr4 O3 2.022851 1_555
Cr4 O0 2.023113 1_555
Cr4 O8 2.026351 1_555
Cr4 O15 2.026356 1_655
Cr4 O4 2.028038 1_555
Cr4 O11 2.028050 1_555
Cr5 O1 2.020244 1_555
Cr5 O3 2.025750 1_555
Cr5 O9 2.027509 1_555
Cr5 O11 2.029426 1_555
Cr5 O7 2.029484 1_555
Cr5 O13 2.030572 1_555
