# generated using pymatgen
data_LiMn2O4
_symmetry_space_group_name_H-M   'P 1'
_cell_length_a   6.63487500
_cell_length_b   6.64773432
_cell_length_c   11.00261515
_cell_angle_alpha   94.07718060
_cell_angle_beta   105.88685995
_cell_angle_gamma   98.53524598
_symmetry_Int_Tables_number   1
_chemical_formula_structural   LiMn2O4
_chemical_formula_sum   'Li6 Mn12 O24'
_cell_volume   458.38995036
_cell_formula_units_Z   6
loop_
 _symmetry_equiv_pos_site_id
 _symmetry_equiv_pos_as_xyz
  1  'x, y, z'
loop_
 _atom_site_type_symbol
 _atom_site_label
 _atom_site_symmetry_multiplicity
 _atom_site_fract_x
 _atom_site_fract_y
 _atom_site_fract_z
 _atom_site_occupancy
  Li  Li0  1  0.49000900  0.98931700  0.13415600  1
  Li  Li1  1  0.36694300  0.87639300  0.36038100  1
  Li  Li2  1  0.21976200  0.71944400  0.86476500  1
  Li  Li3  1  0.01342700  0.52264800  0.36615600  1
  Li  Li4  1  0.86123700  0.36751900  0.87955400  1
  Li  Li5  1  0.62834200  0.11587900  0.62601000  1
  Mn  Mn0  1  0.91445900  0.92020500  0.25446000  1
  Mn  Mn1  1  0.84555300  0.82212200  0.50361800  1
  Mn  Mn2  1  0.66979800  0.66316300  0.00182600  1
  Mn  Mn3  1  0.74632500  0.75144000  0.75056600  1
  Mn  Mn4  1  0.57525600  0.58515000  0.24764800  1
  Mn  Mn5  1  0.51747700  0.48807500  0.50328900  1
  Mn  Mn6  1  0.32393000  0.33615700  0.99245400  1
  Mn  Mn7  1  0.41591400  0.42090200  0.74954200  1
  Mn  Mn8  1  0.23803700  0.26251200  0.24686600  1
  Mn  Mn9  1  0.17601800  0.16360700  0.50625900  1
  Mn  Mn10  1  0.99255300  0.00269000  0.99978800  1
  Mn  Mn11  1  0.08566300  0.07859100  0.74988400  1
  O  O0  1  0.17112600  0.96965900  0.19921600  1
  O  O1  1  0.75959400  0.95346500  0.08111200  1
  O  O2  1  0.08027800  0.87485600  0.42599700  1
  O  O3  1  0.65193700  0.88360200  0.30227200  1
  O  O4  1  0.01180000  0.79160500  0.70713300  1
  O  O5  1  0.60397900  0.78461300  0.57469600  1
  O  O6  1  0.40655100  0.62562600  0.04491500  1
  O  O7  1  0.48828200  0.70548700  0.80161600  1
  O  O8  1  0.83929700  0.63292900  0.20257200  1
  O  O9  1  0.33035900  0.54795200  0.31567000  1
  O  O10  1  0.90423000  0.71349400  0.92441600  1
  O  O11  1  0.75832500  0.54061200  0.43656600  1
  O  O12  1  0.26809300  0.44814600  0.57145300  1
  O  O13  1  0.06763400  0.29390400  0.04158500  1
  O  O14  1  0.67694800  0.45463800  0.70654800  1
  O  O15  1  0.16853500  0.37461200  0.81711500  1
  O  O16  1  0.46891300  0.29145800  0.16287300  1
  O  O17  1  0.01841700  0.21524300  0.33566800  1
  O  O18  1  0.57047400  0.37698500  0.92184400  1
  O  O19  1  0.42960000  0.18879400  0.45653200  1
  O  O20  1  0.33189900  0.12853200  0.68295200  1
  O  O21  1  0.93330300  0.11120700  0.57761600  1
  O  O22  1  0.23797900  0.04150100  0.92751000  1
  O  O23  1  0.82469200  0.04708400  0.79604300  1
loop_
_geom_bond_atom_site_label_1
_geom_bond_atom_site_label_2
_geom_bond_distance
_geom_bond_site_symmetry_2
Li0 O16 2.042334 1_565
Li0 O1 2.067609 1_555
Li0 O3 2.095371 1_555
Li0 O0 2.401307 1_555
Li0 O6 2.466467 1_555
Li0 O22 2.507765 1_564
Li1 O0 2.085883 1_555
Li1 O3 2.150790 1_555
Li1 O9 2.166260 1_555
Li1 O19 2.189854 1_565
Li1 O2 2.210408 1_555
Li1 O5 2.620123 1_555
Li2 O4 2.036325 1_555
Li2 O7 2.093573 1_555
Li2 O22 2.177659 1_565
Li2 O6 2.216765 1_556
Li2 O15 2.268376 1_555
Li2 O10 2.355095 1_455
Li3 O17 2.053872 1_555
Li3 O11 2.060076 1_455
Li3 O8 2.100556 1_455
Li3 O9 2.303566 1_555
Li3 O2 2.329153 1_555
Li3 O12 2.553518 1_555
Li4 O13 2.068682 1_656
Li4 O18 2.113173 1_555
Li4 O14 2.132272 1_555
Li4 O23 2.210668 1_555
Li4 O10 2.276294 1_555
Li4 O15 2.318221 1_655
Li5 O23 2.090562 1_555
Li5 O19 2.103078 1_555
Li5 O5 2.204995 1_545
Li5 O20 2.232574 1_555
Li5 O21 2.232639 1_555
Li5 O14 2.303224 1_555
Mn0 O8 1.904759 1_555
Mn0 O3 1.940066 1_555
Mn0 O1 1.948556 1_555
Mn0 O0 1.951029 1_655
Mn0 O2 1.976351 1_655
Mn0 O17 2.032918 1_665
Mn1 O11 1.905202 1_555
Mn1 O5 1.959112 1_555
Mn1 O21 1.969995 1_565
Mn1 O2 1.971385 1_655
Mn1 O4 2.247362 1_655
Mn1 O3 2.334852 1_555
Mn2 O6 1.917934 1_555
Mn2 O10 1.966734 1_554
Mn2 O18 1.974906 1_554
Mn2 O1 1.993753 1_555
Mn2 O8 2.225745 1_555
Mn2 O7 2.262377 1_554
Mn3 O7 1.932788 1_555
Mn3 O4 1.934305 1_655
Mn3 O23 1.948784 1_565
Mn3 O5 1.951134 1_555
Mn3 O14 1.952405 1_555
Mn3 O10 1.967232 1_555
Mn4 O8 1.936192 1_555
Mn4 O9 1.958131 1_555
Mn4 O3 1.979857 1_555
Mn4 O16 2.037521 1_555
Mn4 O11 2.166929 1_555
Mn4 O6 2.260238 1_555
Mn5 O11 1.930692 1_555
Mn5 O19 1.977065 1_555
Mn5 O12 1.986973 1_555
Mn5 O5 2.007428 1_555
Mn5 O9 2.195802 1_555
Mn5 O14 2.239498 1_555
Mn6 O13 1.909412 1_556
Mn6 O6 1.921550 1_556
Mn6 O16 1.925112 1_556
Mn6 O15 1.977256 1_555
Mn6 O22 1.979639 1_555
Mn6 O18 1.986702 1_555
Mn7 O7 1.887726 1_555
Mn7 O14 1.903148 1_555
Mn7 O18 1.958070 1_555
Mn7 O20 1.969115 1_555
Mn7 O12 1.971093 1_555
Mn7 O15 1.972843 1_555
Mn8 O0 1.932073 1_545
Mn8 O9 1.935396 1_555
Mn8 O17 1.965671 1_555
Mn8 O16 1.987561 1_555
Mn8 O13 2.272054 1_555
Mn8 O19 2.432629 1_555
Mn9 O19 1.895129 1_555
Mn9 O12 1.920885 1_555
Mn9 O17 1.964135 1_555
Mn9 O21 1.973740 1_455
Mn9 O20 1.984630 1_555
Mn9 O2 1.989445 1_545
Mn10 O13 1.915495 1_656
Mn10 O10 1.974827 1_545
Mn10 O1 1.986309 1_546
Mn10 O22 1.990980 1_655
Mn10 O0 2.233623 1_646
Mn10 O23 2.275436 1_555
Mn11 O4 1.889393 1_545
Mn11 O23 1.920636 1_455
Mn11 O21 1.932863 1_455
Mn11 O20 1.963192 1_555
Mn11 O22 1.990672 1_555
Mn11 O15 1.992778 1_555
