# generated using pymatgen
data_Li5Fe3(SnO5)2
_symmetry_space_group_name_H-M   'P 1'
_cell_length_a   5.23068700
_cell_length_b   5.35512529
_cell_length_c   8.06399771
_cell_angle_alpha   72.30904408
_cell_angle_beta   71.93840262
_cell_angle_gamma   80.31616984
_symmetry_Int_Tables_number   1
_chemical_formula_structural   Li5Fe3(SnO5)2
_chemical_formula_sum   'Li5 Fe3 Sn2 O10'
_cell_volume   203.91045775
_cell_formula_units_Z   1
loop_
 _symmetry_equiv_pos_site_id
 _symmetry_equiv_pos_as_xyz
  1  'x, y, z'
loop_
 _atom_site_type_symbol
 _atom_site_label
 _atom_site_symmetry_multiplicity
 _atom_site_fract_x
 _atom_site_fract_y
 _atom_site_fract_z
 _atom_site_occupancy
  Li  Li0  1  0.50509300  0.76774700  0.40787800  1
  Li  Li1  1  0.50701900  0.59210100  0.79249200  1
  Li  Li2  1  0.00000000  0.50000000  0.50000000  1
  Li  Li3  1  0.49298100  0.40789900  0.20750800  1
  Li  Li4  1  0.49490700  0.23225300  0.59212200  1
  Fe  Fe0  1  0.50000000  0.00000000  0.00000000  1
  Fe  Fe1  1  0.00297300  0.30797700  0.89411200  1
  Fe  Fe2  1  0.99702700  0.69202300  0.10588800  1
  Sn  Sn0  1  0.00963100  0.89670600  0.69787000  1
  Sn  Sn1  1  0.99036900  0.10329400  0.30213000  1
  O  O0  1  0.24557500  0.94049500  0.85869100  1
  O  O1  1  0.74492900  0.67828900  0.93867100  1
  O  O2  1  0.77032600  0.85686200  0.54026400  1
  O  O3  1  0.26105200  0.78224500  0.23239800  1
  O  O4  1  0.23751500  0.55428800  0.66197300  1
  O  O5  1  0.76248500  0.44571200  0.33802700  1
  O  O6  1  0.73894800  0.21775500  0.76760200  1
  O  O7  1  0.22967400  0.14313800  0.45973600  1
  O  O8  1  0.25507100  0.32171100  0.06132900  1
  O  O9  1  0.75442500  0.05950500  0.14130900  1
loop_
_geom_bond_atom_site_label_1
_geom_bond_atom_site_label_2
_geom_bond_distance
_geom_bond_site_symmetry_2
Li0 O5 2.107834 1_555
Li0 O3 2.158210 1_555
Li0 O2 2.177826 1_555
Li0 O4 2.191008 1_555
Li0 O7 2.335492 1_565
Li0 O9 2.380909 1_565
Li1 O4 2.069197 1_555
Li1 O1 2.141186 1_555
Li1 O6 2.192283 1_555
Li1 O0 2.220409 1_555
Li1 O2 2.282841 1_555
Li1 O8 2.344307 1_556
Li2 O2 2.136263 1_455
Li2 O7 2.136263 1_555
Li2 O4 2.166223 1_555
Li2 O5 2.166223 1_455
Li2 O3 2.385505 1_555
Li2 O6 2.385505 1_455
Li3 O5 2.069197 1_555
Li3 O8 2.141186 1_555
Li3 O3 2.192283 1_555
Li3 O9 2.220409 1_555
Li3 O7 2.282841 1_555
Li3 O1 2.344307 1_554
Li4 O4 2.107834 1_555
Li4 O6 2.158210 1_555
Li4 O7 2.177826 1_555
Li4 O5 2.191008 1_555
Li4 O2 2.335492 1_545
Li4 O0 2.380909 1_545
Fe0 O6 2.035627 1_554
Fe0 O3 2.035627 1_545
Fe0 O8 2.058248 1_555
Fe0 O1 2.058248 1_544
Fe0 O9 2.115375 1_555
Fe0 O0 2.115375 1_544
Fe1 O4 2.090178 1_555
Fe1 O6 2.139886 1_455
Fe1 O8 2.181282 1_556
Fe1 O9 2.190268 1_456
Fe1 O0 2.200298 1_545
Fe1 O1 2.261712 1_455
Fe2 O5 2.090178 1_555
Fe2 O3 2.139886 1_655
Fe2 O1 2.181282 1_554
Fe2 O0 2.190268 1_654
Fe2 O9 2.200298 1_565
Fe2 O8 2.261712 1_655
O0 Sn0 2.129459 1_555
O1 Sn0 2.133796 1_655
O2 Sn1 2.086665 1_565
O2 Sn0 2.113943 1_655
O3 Sn1 2.133462 1_465
O4 Sn0 2.059217 1_555
O5 Sn1 2.059217 1_555
O6 Sn0 2.133462 1_645
O7 Sn0 2.086665 1_545
O7 Sn1 2.113943 1_455
O8 Sn1 2.133796 1_455
O9 Sn1 2.129459 1_555
