# generated using pymatgen
data_Li3FeF6
_symmetry_space_group_name_H-M   'P 1'
_cell_length_a   5.12702980
_cell_length_b   5.12702980
_cell_length_c   9.64977100
_cell_angle_alpha   90.00000000
_cell_angle_beta   90.00000000
_cell_angle_gamma   119.99999747
_symmetry_Int_Tables_number   1
_chemical_formula_structural   Li3FeF6
_chemical_formula_sum   'Li6 Fe2 F12'
_cell_volume   219.67434192
_cell_formula_units_Z   2
loop_
 _symmetry_equiv_pos_site_id
 _symmetry_equiv_pos_as_xyz
  1  'x, y, z'
loop_
 _atom_site_type_symbol
 _atom_site_label
 _atom_site_symmetry_multiplicity
 _atom_site_fract_x
 _atom_site_fract_y
 _atom_site_fract_z
 _atom_site_occupancy
  Li  Li0  1  0.33333300  0.66666700  0.94552500  1
  Li  Li1  1  0.00000000  0.00000000  0.25000000  1
  Li  Li2  1  0.00000000  0.00000000  0.75000000  1
  Li  Li3  1  0.33333300  0.66666700  0.55447500  1
  Li  Li4  1  0.66666700  0.33333300  0.05447500  1
  Li  Li5  1  0.66666700  0.33333300  0.44552500  1
  Fe  Fe0  1  0.33333300  0.66666700  0.25000000  1
  Fe  Fe1  1  0.66666700  0.33333300  0.75000000  1
  F  F0  1  0.02762800  0.67253400  0.36839300  1
  F  F1  1  0.32746600  0.97237200  0.13160700  1
  F  F2  1  0.02762800  0.35509400  0.13160700  1
  F  F3  1  0.32746600  0.35509400  0.36839300  1
  F  F4  1  0.64490600  0.97237200  0.36839300  1
  F  F5  1  0.35509400  0.32746600  0.86839300  1
  F  F6  1  0.64490600  0.67253400  0.13160700  1
  F  F7  1  0.35509400  0.02762800  0.63160700  1
  F  F8  1  0.67253400  0.64490600  0.63160700  1
  F  F9  1  0.97237200  0.64490600  0.86839300  1
  F  F10  1  0.67253400  0.02762800  0.86839300  1
  F  F11  1  0.97237200  0.32746600  0.63160700  1
loop_
_geom_bond_atom_site_label_1
_geom_bond_atom_site_label_2
_geom_bond_distance
_geom_bond_site_symmetry_2
F0 Li5 1.945483 1_455
F0 Fe0 1.951894 1_555
F0 Li1 2.093301 1_565
F0 Li3 2.393537 1_555
F1 Li4 1.945483 1_565
F1 Fe0 1.951894 1_555
F1 Li1 2.093301 1_565
F1 Li0 2.393537 1_554
F2 Li4 1.945481 1_455
F2 Fe0 1.951897 1_555
F2 Li1 2.093301 1_555
F2 Li0 2.393539 1_554
F3 Li5 1.945486 1_555
F3 Fe0 1.951899 1_555
F3 Li1 2.093301 1_555
F3 Li3 2.393540 1_555
F4 Li5 1.945481 1_565
F4 Fe0 1.951897 1_555
F4 Li1 2.093301 1_665
F4 Li3 2.393539 1_555
F5 Li0 1.945486 1_555
F5 Fe1 1.951899 1_555
F5 Li2 2.093301 1_555
F5 Li4 2.393540 1_556
F6 Li4 1.945486 1_555
F6 Fe0 1.951899 1_555
F6 Li1 2.093301 1_665
F6 Li0 2.393540 1_554
F7 Li3 1.945481 1_545
F7 Fe1 1.951897 1_555
F7 Li2 2.093301 1_555
F7 Li5 2.393539 1_555
F8 Li3 1.945486 1_555
F8 Fe1 1.951899 1_555
F8 Li2 2.093301 1_665
F8 Li5 2.393540 1_555
F9 Li0 1.945481 1_655
F9 Fe1 1.951897 1_555
F9 Li2 2.093301 1_665
F9 Li4 2.393539 1_556
F10 Li0 1.945483 1_545
F10 Fe1 1.951894 1_555
F10 Li2 2.093301 1_655
F10 Li4 2.393537 1_556
F11 Li3 1.945483 1_655
F11 Fe1 1.951894 1_555
F11 Li2 2.093301 1_655
F11 Li5 2.393537 1_555
