# generated using pymatgen
data_Cd(CoO2)2
_symmetry_space_group_name_H-M   'P 1'
_cell_length_a   5.06679300
_cell_length_b   5.90934957
_cell_length_c   11.01085128
_cell_angle_alpha   89.07548370
_cell_angle_beta   89.91991697
_cell_angle_gamma   89.28698270
_symmetry_Int_Tables_number   1
_chemical_formula_structural   Cd(CoO2)2
_chemical_formula_sum   'Cd4 Co8 O16'
_cell_volume   329.61218609
_cell_formula_units_Z   4
loop_
 _symmetry_equiv_pos_site_id
 _symmetry_equiv_pos_as_xyz
  1  'x, y, z'
loop_
 _atom_site_type_symbol
 _atom_site_label
 _atom_site_symmetry_multiplicity
 _atom_site_fract_x
 _atom_site_fract_y
 _atom_site_fract_z
 _atom_site_occupancy
  Cd  Cd0  1  0.97446300  0.25871200  0.24967400  1
  Cd  Cd1  1  0.64531800  0.24642600  0.74998900  1
  Cd  Cd2  1  0.35602900  0.75208100  0.24990700  1
  Cd  Cd3  1  0.02716400  0.74121400  0.75027800  1
  Co  Co0  1  0.99103500  0.75358900  0.01175200  1
  Co  Co1  1  0.00739200  0.24735200  0.98861200  1
  Co  Co2  1  0.99242200  0.74857600  0.48955200  1
  Co  Co3  1  0.00805000  0.24805300  0.51054000  1
  Co  Co4  1  0.49957100  0.99976700  0.99992500  1
  Co  Co5  1  0.50223500  0.99935000  0.50557200  1
  Co  Co6  1  0.49934000  0.49953200  0.99973900  1
  Co  Co7  1  0.49802800  0.49982600  0.49519100  1
  O  O0  1  0.83594000  0.97742700  0.90002600  1
  O  O1  1  0.82174800  0.99782800  0.61424400  1
  O  O2  1  0.84877900  0.50246000  0.59409700  1
  O  O3  1  0.83397300  0.48040900  0.88967900  1
  O  O4  1  0.66768400  0.74395200  0.09674600  1
  O  O5  1  0.66848600  0.75669700  0.40316100  1
  O  O6  1  0.68680500  0.24927200  0.08500200  1
  O  O7  1  0.68679400  0.25131100  0.41402500  1
  O  O8  1  0.31466600  0.74495000  0.58655500  1
  O  O9  1  0.31304700  0.75249800  0.91387500  1
  O  O10  1  0.33108100  0.25032700  0.59717100  1
  O  O11  1  0.33135900  0.25509400  0.90277500  1
  O  O12  1  0.16631000  0.02058200  0.10306400  1
  O  O13  1  0.15285400  0.00400900  0.40557900  1
  O  O14  1  0.16263100  0.51783000  0.10559600  1
  O  O15  1  0.17679600  0.50087600  0.38767300  1
loop_
_geom_bond_atom_site_label_1
_geom_bond_atom_site_label_2
_geom_bond_distance
_geom_bond_site_symmetry_2
Cd0 O7 2.322254 1_555
Cd0 O6 2.329747 1_555
Cd0 O15 2.349196 1_655
Cd0 O12 2.359219 1_655
Cd0 O14 2.392502 1_655
Cd0 O13 2.432359 1_655
Cd1 O1 2.285980 1_545
Cd1 O3 2.301505 1_555
Cd1 O11 2.314428 1_555
Cd1 O10 2.317802 1_555
Cd1 O0 2.463825 1_545
Cd1 O2 2.499669 1_555
Cd2 O15 2.299220 1_555
Cd2 O4 2.309367 1_555
Cd2 O5 2.316174 1_555
Cd2 O14 2.347424 1_555
Cd2 O12 2.437088 1_565
Cd2 O13 2.500685 1_565
Cd3 O9 2.315391 1_555
Cd3 O8 2.316141 1_555
Cd3 O1 2.349071 1_455
Cd3 O0 2.375301 1_455
Cd3 O3 2.376220 1_455
Cd3 O2 2.424708 1_455
Co0 O4 1.886686 1_555
Co0 O14 1.921069 1_655
Co0 O0 1.950610 1_554
Co0 O9 1.954114 1_654
Co0 O12 2.092232 1_665
Co0 O3 2.269577 1_554
Co1 O11 1.893661 1_555
Co1 O6 1.939118 1_456
Co1 O3 1.944118 1_455
Co1 O12 1.988403 1_556
Co1 O0 2.082649 1_445
Co1 O14 2.221069 1_556
Co2 O5 1.897896 1_555
Co2 O13 1.943578 1_665
Co2 O8 1.952020 1_655
Co2 O2 1.984948 1_555
Co2 O15 2.071149 1_655
Co2 O1 2.198314 1_555
Co3 O10 1.895860 1_555
Co3 O2 1.941704 1_455
Co3 O7 1.944904 1_455
Co3 O13 1.994698 1_555
Co3 O1 2.087728 1_445
Co3 O15 2.180989 1_555
Co4 O9 2.001887 1_555
Co4 O6 2.008304 1_566
Co4 O11 2.016348 1_565
Co4 O4 2.016384 1_556
Co4 O0 2.031230 1_555
Co4 O12 2.037168 1_566
Co5 O8 1.987028 1_555
Co5 O10 1.995673 1_565
Co5 O5 2.014129 1_555
Co5 O1 2.014305 1_555
Co5 O7 2.022628 1_565
Co5 O13 2.085662 1_565
Co6 O6 1.973166 1_556
Co6 O9 1.985246 1_555
Co6 O11 2.008408 1_555
Co6 O4 2.009385 1_556
Co6 O14 2.067542 1_556
Co6 O3 2.085676 1_555
Co7 O7 1.968544 1_555
Co7 O8 1.996074 1_555
Co7 O15 2.013854 1_555
Co7 O5 2.014313 1_555
Co7 O10 2.031045 1_555
Co7 O2 2.085971 1_555
