# generated using pymatgen
data_Mn3Fe2P6WO24
_symmetry_space_group_name_H-M   'P 1'
_cell_length_a   8.65446296
_cell_length_b   8.80228219
_cell_length_c   8.80228231
_cell_angle_alpha   60.00000272
_cell_angle_beta   59.43336634
_cell_angle_gamma   59.43336824
_symmetry_Int_Tables_number   1
_chemical_formula_structural   Mn3Fe2P6WO24
_chemical_formula_sum   'Mn3 Fe2 P6 W1 O24'
_cell_volume   470.04836625
_cell_formula_units_Z   1
loop_
 _symmetry_equiv_pos_site_id
 _symmetry_equiv_pos_as_xyz
  1  'x, y, z'
loop_
 _atom_site_type_symbol
 _atom_site_label
 _atom_site_symmetry_multiplicity
 _atom_site_fract_x
 _atom_site_fract_y
 _atom_site_fract_z
 _atom_site_occupancy
  Mn  Mn0  1  0.05671300  0.64776200  0.64776200  1
  Mn  Mn1  1  0.44218100  0.85260600  0.85260600  1
  Mn  Mn2  1  0.93799000  0.35400400  0.35400400  1
  Fe  Fe0  1  0.02795000  0.99068300  0.99068300  1
  Fe  Fe1  1  0.50236200  0.49921300  0.49921300  1
  P  P0  1  0.25020900  0.25298700  0.54825000  1
  P  P1  1  0.25020900  0.94855400  0.25298700  1
  P  P2  1  0.25020900  0.54825000  0.94855400  1
  P  P3  1  0.74202400  0.45768500  0.05505800  1
  P  P4  1  0.74202400  0.05505800  0.74523300  1
  P  P5  1  0.74202400  0.74523300  0.45768500  1
  W  W0  1  0.57221700  0.14259400  0.14259400  1
  O  O0  1  0.07300000  0.09509000  0.32673200  1
  O  O1  1  0.07300000  0.50517900  0.09509000  1
  O  O2  1  0.07300000  0.32673200  0.50517900  1
  O  O3  1  0.23277100  0.09356100  0.73787800  1
  O  O4  1  0.42635700  0.17505400  0.38134300  1
  O  O5  1  0.30539000  0.39874400  0.54240200  1
  O  O6  1  0.23277100  0.93579100  0.09356100  1
  O  O7  1  0.30539000  0.75346300  0.39874400  1
  O  O8  1  0.56317100  0.60575200  0.01323300  1
  O  O9  1  0.30539000  0.54240200  0.75346300  1
  O  O10  1  0.75319100  0.25410800  0.08144800  1
  O  O11  1  0.56317100  0.01323300  0.81784200  1
  O  O12  1  0.42635700  0.01724700  0.17505400  1
  O  O13  1  0.23277100  0.73787800  0.93579100  1
  O  O14  1  0.71219600  0.43598700  0.25483400  1
  O  O15  1  0.42635700  0.38134300  0.01724700  1
  O  O16  1  0.71219600  0.25483400  0.59698400  1
  O  O17  1  0.75319100  0.08144800  0.91125200  1
  O  O18  1  0.71219600  0.59698400  0.43598700  1
  O  O19  1  0.56317100  0.81784200  0.60575200  1
  O  O20  1  0.75319100  0.91125200  0.25410800  1
  O  O21  1  0.92855300  0.69158300  0.47492300  1
  O  O22  1  0.92855300  0.47492300  0.90493900  1
  O  O23  1  0.92855300  0.90493900  0.69158300  1
loop_
_geom_bond_atom_site_label_1
_geom_bond_atom_site_label_2
_geom_bond_distance
_geom_bond_site_symmetry_2
Mn0 O23 2.094723 1_455
Mn0 O22 2.094727 1_455
Mn0 O21 2.094731 1_455
Mn0 O5 2.345478 1_555
Mn0 O7 2.345478 1_555
Mn0 O9 2.345478 1_555
Mn1 O11 1.984026 1_565
Mn1 O8 1.984031 1_556
Mn1 O19 1.984034 1_555
Mn1 O13 2.147758 1_555
Mn1 O3 2.147764 1_565
Mn1 O6 2.147771 1_556
Mn2 O2 2.042121 1_655
Mn2 O1 2.042126 1_655
Mn2 O0 2.042129 1_655
Mn2 O18 2.184509 1_555
Mn2 O16 2.184512 1_555
Mn2 O14 2.184515 1_555
Fe0 O13 2.125931 1_555
Fe0 O3 2.125937 1_565
Fe0 O6 2.125944 1_556
Fe0 O10 2.445738 1_466
Fe0 O20 2.445738 1_456
Fe0 O17 2.445738 1_465
Fe1 O9 2.090571 1_555
Fe1 O7 2.090577 1_555
Fe1 O5 2.090584 1_555
Fe1 O14 2.104972 1_555
Fe1 O18 2.104972 1_555
Fe1 O16 2.104972 1_555
O0 P1 1.499977 1_545
O1 P2 1.499974 1_554
O2 P0 1.499972 1_555
O3 P0 1.547578 1_555
O4 P0 1.618417 1_555
O4 W0 1.904480 1_555
O5 P0 1.552069 1_555
O6 P1 1.547573 1_555
O7 P1 1.552074 1_555
O8 P3 1.509318 1_555
O9 P2 1.552077 1_555
O10 P3 1.644627 1_555
O10 W0 1.970840 1_555
O11 P4 1.509322 1_555
O12 P1 1.618423 1_545
O12 W0 1.904466 1_555
O13 P2 1.547581 1_555
O14 P3 1.564601 1_555
O15 P2 1.618421 1_554
O15 W0 1.904474 1_555
O16 P4 1.564598 1_555
O17 P4 1.644618 1_555
O17 W0 1.970840 1_556
O18 P5 1.564593 1_555
O19 P5 1.509312 1_555
O20 P5 1.644623 1_555
O20 W0 1.970840 1_565
O21 P5 1.501378 1_555
O22 P3 1.501383 1_556
O23 P4 1.501386 1_565
