# generated using pymatgen
data_Mn2PO5
_symmetry_space_group_name_H-M   'P 1'
_cell_length_a   5.91636811
_cell_length_b   8.33536772
_cell_length_c   8.40923273
_cell_angle_alpha   90.00000000
_cell_angle_beta   90.00000000
_cell_angle_gamma   90.00000000
_symmetry_Int_Tables_number   1
_chemical_formula_structural   Mn2PO5
_chemical_formula_sum   'Mn8 P4 O20'
_cell_volume   414.70218465
_cell_formula_units_Z   4
loop_
 _symmetry_equiv_pos_site_id
 _symmetry_equiv_pos_as_xyz
  1  'x, y, z'
loop_
 _atom_site_type_symbol
 _atom_site_label
 _atom_site_symmetry_multiplicity
 _atom_site_fract_x
 _atom_site_fract_y
 _atom_site_fract_z
 _atom_site_occupancy
  Mn  Mn0  1  0.75969756  0.00000000  -0.00000000  1
  Mn  Mn1  1  0.24030244  0.00000000  -0.00000000  1
  Mn  Mn2  1  0.00000000  0.64730329  0.13100080  1
  Mn  Mn3  1  0.50000000  0.14730329  0.36899920  1
  Mn  Mn4  1  0.74030244  0.50000000  0.50000000  1
  Mn  Mn5  1  0.25969756  0.50000000  0.50000000  1
  Mn  Mn6  1  0.50000000  0.85269671  0.63100080  1
  Mn  Mn7  1  0.00000000  0.35269671  0.86899920  1
  P  P0  1  0.00000000  0.26896779  0.24605123  1
  P  P1  1  0.50000000  0.76896779  0.25394877  1
  P  P2  1  0.50000000  0.23103221  0.74605123  1
  P  P3  1  0.00000000  0.73103221  0.75394877  1
  O  O0  1  0.50000000  0.86598299  0.09208121  1
  O  O1  1  0.00000000  0.87546660  0.07940418  1
  O  O2  1  0.00000000  0.39843887  0.11581224  1
  O  O3  1  0.78809818  0.16499543  0.23460305  1
  O  O4  1  0.21190182  0.16499543  0.23460305  1
  O  O5  1  0.71190182  0.66499543  0.26539695  1
  O  O6  1  0.28809818  0.66499543  0.26539695  1
  O  O7  1  0.50000000  0.89843887  0.38418776  1
  O  O8  1  0.50000000  0.37546660  0.42059582  1
  O  O9  1  0.00000000  0.36598299  0.40791879  1
  O  O10  1  0.00000000  0.63401701  0.59208121  1
  O  O11  1  0.50000000  0.62453340  0.57940418  1
  O  O12  1  0.50000000  0.10156113  0.61581224  1
  O  O13  1  0.71190182  0.33500457  0.73460305  1
  O  O14  1  0.28809818  0.33500457  0.73460305  1
  O  O15  1  0.78809818  0.83500457  0.76539695  1
  O  O16  1  0.21190182  0.83500457  0.76539695  1
  O  O17  1  0.00000000  0.60156113  0.88418776  1
  O  O18  1  0.00000000  0.12453340  0.92059582  1
  O  O19  1  0.50000000  0.13401701  0.90791879  1
loop_
_geom_bond_atom_site_label_1
_geom_bond_atom_site_label_2
_geom_bond_distance
_geom_bond_site_symmetry_2
Mn0 O18 1.882725 1_654
Mn0 O1 1.882725 1_645
Mn0 O0 2.051387 1_545
Mn0 O19 2.051387 1_554
Mn0 O3 2.410755 1_555
Mn0 O15 2.410755 1_544
Mn1 O18 1.882725 1_554
Mn1 O1 1.882725 1_545
Mn1 O0 2.051387 1_545
Mn1 O19 2.051387 1_554
Mn1 O4 2.410755 1_555
Mn1 O16 2.410755 1_544
Mn2 O1 1.950692 1_555
Mn2 O5 2.050447 1_455
Mn2 O6 2.050447 1_555
Mn2 O2 2.078305 1_555
Mn2 O17 2.110239 1_554
Mn3 O8 1.950692 1_555
Mn3 O3 2.050447 1_555
Mn3 O4 2.050447 1_555
Mn3 O7 2.078305 1_545
Mn3 O12 2.110239 1_555
Mn4 O8 1.882725 1_555
Mn4 O11 1.882725 1_555
Mn4 O10 2.051387 1_655
Mn4 O9 2.051387 1_655
Mn4 O5 2.410755 1_555
Mn4 O13 2.410755 1_555
Mn5 O8 1.882725 1_555
Mn5 O11 1.882725 1_555
Mn5 O10 2.051387 1_555
Mn5 O9 2.051387 1_555
Mn5 O6 2.410755 1_555
Mn5 O14 2.410755 1_555
Mn6 O11 1.950692 1_555
Mn6 O15 2.050447 1_555
Mn6 O16 2.050447 1_555
Mn6 O12 2.078305 1_565
Mn6 O7 2.110239 1_555
Mn7 O18 1.950692 1_555
Mn7 O13 2.050447 1_455
Mn7 O14 2.050447 1_555
Mn7 O17 2.078305 1_555
Mn7 O2 2.110239 1_556
O0 P1 1.583270 1_555
O2 P0 1.537574 1_555
O3 P0 1.527116 1_655
O4 P0 1.527116 1_555
O5 P1 1.527116 1_555
O6 P1 1.527116 1_555
O7 P1 1.537574 1_555
O9 P0 1.583270 1_555
O10 P3 1.583270 1_555
O12 P2 1.537574 1_555
O13 P2 1.527116 1_555
O14 P2 1.527116 1_555
O15 P3 1.527116 1_655
O16 P3 1.527116 1_555
O17 P3 1.537574 1_555
O19 P2 1.583270 1_555
