# generated using pymatgen
data_Li2MnF4
_symmetry_space_group_name_H-M   'P 1'
_cell_length_a   5.07119100
_cell_length_b   5.81001000
_cell_length_c   10.49041700
_cell_angle_alpha   90.00000000
_cell_angle_beta   90.00000000
_cell_angle_gamma   90.00000000
_symmetry_Int_Tables_number   1
_chemical_formula_structural   Li2MnF4
_chemical_formula_sum   'Li8 Mn4 F16'
_cell_volume   309.08618908
_cell_formula_units_Z   4
loop_
 _symmetry_equiv_pos_site_id
 _symmetry_equiv_pos_as_xyz
  1  'x, y, z'
loop_
 _atom_site_type_symbol
 _atom_site_label
 _atom_site_symmetry_multiplicity
 _atom_site_fract_x
 _atom_site_fract_y
 _atom_site_fract_z
 _atom_site_occupancy
  Li  Li0  1  0.48691400  0.50000000  0.22683100  1
  Li  Li1  1  0.00000000  0.25000000  0.25000000  1
  Li  Li2  1  0.00000000  0.75000000  0.25000000  1
  Li  Li3  1  0.51308600  0.00000000  0.27316900  1
  Li  Li4  1  0.51308600  0.00000000  0.72683100  1
  Li  Li5  1  0.00000000  0.25000000  0.75000000  1
  Li  Li6  1  0.00000000  0.75000000  0.75000000  1
  Li  Li7  1  0.48691400  0.50000000  0.77316900  1
  Mn  Mn0  1  0.46754700  0.00000000  0.00000000  1
  Mn  Mn1  1  0.86092100  0.50000000  0.00000000  1
  Mn  Mn2  1  0.13907900  0.00000000  0.50000000  1
  Mn  Mn3  1  0.53245300  0.50000000  0.50000000  1
  F  F0  1  0.66656700  0.74905800  0.12849400  1
  F  F1  1  0.66656700  0.25094200  0.12849400  1
  F  F2  1  0.14615200  0.50000000  0.14390700  1
  F  F3  1  0.20023700  0.00000000  0.15062200  1
  F  F4  1  0.79976300  0.50000000  0.34937800  1
  F  F5  1  0.85384800  0.00000000  0.35609300  1
  F  F6  1  0.33343300  0.24905800  0.37150600  1
  F  F7  1  0.33343300  0.75094200  0.37150600  1
  F  F8  1  0.33343300  0.24905800  0.62849400  1
  F  F9  1  0.33343300  0.75094200  0.62849400  1
  F  F10  1  0.85384800  0.00000000  0.64390700  1
  F  F11  1  0.79976300  0.50000000  0.65062200  1
  F  F12  1  0.20023700  0.00000000  0.84937800  1
  F  F13  1  0.14615200  0.50000000  0.85609300  1
  F  F14  1  0.66656700  0.25094200  0.87150600  1
  F  F15  1  0.66656700  0.74905800  0.87150600  1
loop_
_geom_bond_atom_site_label_1
_geom_bond_atom_site_label_2
_geom_bond_distance
_geom_bond_site_symmetry_2
F0 Li0 1.997024 1_555
F0 Li2 2.117525 1_655
F0 Mn1 2.209592 1_555
F0 Mn0 2.227398 1_565
F0 Li3 2.243860 1_565
F1 Li0 1.997024 1_555
F1 Li1 2.117525 1_655
F1 Mn1 2.209592 1_555
F1 Mn0 2.227398 1_555
F1 Li3 2.243860 1_555
F2 Li0 1.934674 1_555
F2 Li2 1.974277 1_555
F2 Li1 1.974277 1_555
F2 Mn1 2.090760 1_455
F3 Li3 2.041990 1_555
F3 Li2 2.056143 1_545
F3 Li1 2.056143 1_555
F3 Mn0 2.081892 1_555
F4 Li0 2.041990 1_555
F4 Li2 2.056143 1_655
F4 Li1 2.056143 1_655
F4 Mn3 2.081892 1_555
F5 Li3 1.934674 1_555
F5 Li2 1.974277 1_645
F5 Li1 1.974277 1_655
F5 Mn2 2.090760 1_655
F6 Li3 1.997024 1_555
F6 Li1 2.117525 1_555
F6 Mn2 2.209592 1_555
F6 Mn3 2.227398 1_555
F6 Li0 2.243860 1_555
F7 Li3 1.997024 1_565
F7 Li2 2.117525 1_555
F7 Mn2 2.209592 1_565
F7 Mn3 2.227398 1_555
F7 Li0 2.243860 1_555
F8 Li4 1.997024 1_555
F8 Li5 2.117525 1_555
F8 Mn2 2.209592 1_555
F8 Mn3 2.227398 1_555
F8 Li7 2.243860 1_555
F9 Li4 1.997024 1_565
F9 Li6 2.117525 1_555
F9 Mn2 2.209592 1_565
F9 Mn3 2.227398 1_555
F9 Li7 2.243860 1_555
F10 Li4 1.934674 1_555
F10 Li5 1.974277 1_655
F10 Li6 1.974277 1_645
F10 Mn2 2.090760 1_655
F11 Li7 2.041990 1_555
F11 Li5 2.056143 1_655
F11 Li6 2.056143 1_655
F11 Mn3 2.081892 1_555
F12 Li4 2.041990 1_555
F12 Li6 2.056143 1_545
F12 Li5 2.056143 1_555
F12 Mn0 2.081892 1_556
F13 Li7 1.934674 1_555
F13 Li5 1.974277 1_555
F13 Li6 1.974277 1_555
F13 Mn1 2.090760 1_456
F14 Li7 1.997024 1_555
F14 Li5 2.117525 1_655
F14 Mn1 2.209592 1_556
F14 Mn0 2.227398 1_556
F14 Li4 2.243860 1_555
F15 Li7 1.997024 1_555
F15 Li6 2.117525 1_655
F15 Mn1 2.209592 1_556
F15 Mn0 2.227398 1_566
F15 Li4 2.243860 1_565
