# generated using pymatgen
data_Rb2CoO3
_symmetry_space_group_name_H-M   'P 1'
_cell_length_a   6.37572880
_cell_length_b   6.37572880
_cell_length_c   5.40236800
_cell_angle_alpha   90.00000000
_cell_angle_beta   90.00000000
_cell_angle_gamma   109.23870655
_symmetry_Int_Tables_number   1
_chemical_formula_structural   Rb2CoO3
_chemical_formula_sum   'Rb4 Co2 O6'
_cell_volume   207.34170577
_cell_formula_units_Z   2
loop_
 _symmetry_equiv_pos_site_id
 _symmetry_equiv_pos_as_xyz
  1  'x, y, z'
loop_
 _atom_site_type_symbol
 _atom_site_label
 _atom_site_symmetry_multiplicity
 _atom_site_fract_x
 _atom_site_fract_y
 _atom_site_fract_z
 _atom_site_occupancy
  Rb  Rb0  1  0.81603600  0.49452000  0.24979900  1
  Rb  Rb1  1  0.50548000  0.18396400  0.74979900  1
  Rb  Rb2  1  0.49452000  0.81603600  0.24979900  1
  Rb  Rb3  1  0.18396400  0.50548000  0.74979900  1
  Co  Co0  1  0.92670700  0.92670700  0.76309200  1
  Co  Co1  1  0.07329300  0.07329300  0.26309200  1
  O  O0  1  0.88983300  0.12421800  0.00926100  1
  O  O1  1  0.87578200  0.11016700  0.50926100  1
  O  O2  1  0.68280800  0.68280800  0.77878800  1
  O  O3  1  0.31719200  0.31719200  0.27878800  1
  O  O4  1  0.12421800  0.88983300  0.00926100  1
  O  O5  1  0.11016700  0.87578200  0.50926100  1
loop_
_geom_bond_atom_site_label_1
_geom_bond_atom_site_label_2
_geom_bond_distance
_geom_bond_site_symmetry_2
Co0 O2 1.802743 1_555
Co0 O1 1.898501 1_565
Co0 O5 1.898501 1_655
Co0 O0 1.898624 1_566
Co0 O4 1.898624 1_656
Co1 O3 1.802743 1_555
Co1 O0 1.898501 1_455
Co1 O4 1.898501 1_545
Co1 O1 1.898624 1_455
Co1 O5 1.898624 1_545
O0 Rb0 2.866380 1_555
O0 Rb3 2.895916 1_654
O0 Rb2 2.939090 1_545
O0 Rb1 2.954684 1_554
O1 Rb1 2.866380 1_555
O1 Rb2 2.895916 1_545
O1 Rb3 2.939090 1_655
O1 Rb0 2.954684 1_555
O2 Rb1 3.008092 1_555
O2 Rb3 3.008092 1_555
O2 Rb2 3.051151 1_556
O2 Rb0 3.051151 1_556
O2 Rb0 3.316872 1_555
O2 Rb2 3.316872 1_555
O3 Rb0 3.008092 1_555
O3 Rb2 3.008092 1_555
O3 Rb3 3.051151 1_555
O3 Rb1 3.051151 1_555
O3 Rb3 3.316872 1_554
O3 Rb1 3.316872 1_554
O4 Rb2 2.866380 1_555
O4 Rb1 2.895916 1_564
O4 Rb0 2.939090 1_455
O4 Rb3 2.954684 1_554
O5 Rb3 2.866380 1_555
O5 Rb0 2.895916 1_455
O5 Rb1 2.939090 1_565
O5 Rb2 2.954684 1_555
