# generated using pymatgen
data_Li4Co2Ni3O10
_symmetry_space_group_name_H-M   'P 1'
_cell_length_a   20.66049320
_cell_length_b   2.86858271
_cell_length_c   5.80807139
_cell_angle_alpha   90.00000000
_cell_angle_beta   82.79090181
_cell_angle_gamma   90.00000000
_symmetry_Int_Tables_number   1
_chemical_formula_structural   Li4Co2Ni3O10
_chemical_formula_sum   'Li8 Co4 Ni6 O20'
_cell_volume   341.50193973
_cell_formula_units_Z   2
loop_
 _symmetry_equiv_pos_site_id
 _symmetry_equiv_pos_as_xyz
  1  'x, y, z'
loop_
 _atom_site_type_symbol
 _atom_site_label
 _atom_site_symmetry_multiplicity
 _atom_site_fract_x
 _atom_site_fract_y
 _atom_site_fract_z
 _atom_site_occupancy
  Li  Li0  1  0.20000000  0.00000000  0.90000000  1
  Li  Li1  1  0.39352086  0.00000000  0.28716012  1
  Li  Li2  1  0.49742123  0.50000000  0.49848434  1
  Li  Li3  1  0.59938314  0.00000000  0.69955248  1
  Li  Li4  1  0.70000000  0.50000000  0.90000000  1
  Li  Li5  1  0.80061686  0.00000000  0.10044752  1
  Li  Li6  1  0.90257877  0.50000000  0.30151566  1
  Li  Li7  1  0.00647914  0.00000000  0.51283988  1
  Co  Co0  1  0.10187787  0.50000000  0.20127317  1
  Co  Co1  1  0.20000000  0.00000000  0.40000000  1
  Co  Co2  1  0.29812213  0.50000000  0.59872683  1
  Co  Co3  1  0.70000000  0.50000000  0.40000000  1
  Ni  Ni0  1  0.39778873  0.00000000  0.80148048  1
  Ni  Ni1  1  0.49978794  0.50000000  0.99708283  1
  Ni  Ni2  1  0.59948645  0.00000000  0.20043528  1
  Ni  Ni3  1  0.80051355  0.00000000  0.59956472  1
  Ni  Ni4  1  0.90021206  0.50000000  0.80291717  1
  Ni  Ni5  1  0.00221127  0.00000000  0.99851952  1
  O  O0  1  0.00887061  0.50000000  0.23473162  1
  O  O1  1  0.10610610  0.00000000  0.41604842  1
  O  O2  1  0.10127335  0.00000000  0.98947631  1
  O  O3  1  0.19326959  0.50000000  0.18075715  1
  O  O4  1  0.20673041  0.50000000  0.61924285  1
  O  O5  1  0.29389390  0.00000000  0.38395158  1
  O  O6  1  0.29872665  0.00000000  0.81052369  1
  O  O7  1  0.40899161  0.50000000  0.02857738  1
  O  O8  1  0.39112939  0.50000000  0.56526838  1
  O  O9  1  0.49920312  0.00000000  0.23176939  1
  O  O10  1  0.50000895  0.00000000  0.76311737  1
  O  O11  1  0.60697403  0.50000000  0.43012182  1
  O  O12  1  0.59326754  0.50000000  0.96822329  1
  O  O13  1  0.70017179  0.00000000  0.17298135  1
  O  O14  1  0.69982821  0.00000000  0.62701865  1
  O  O15  1  0.79302597  0.50000000  0.36987818  1
  O  O16  1  0.80673246  0.50000000  0.83177671  1
  O  O17  1  0.89999105  0.00000000  0.03688263  1
  O  O18  1  0.90079688  0.00000000  0.56823061  1
  O  O19  1  0.99100839  0.50000000  0.77142262  1
loop_
_geom_bond_atom_site_label_1
_geom_bond_atom_site_label_2
_geom_bond_distance
_geom_bond_site_symmetry_2
Li0 O6 2.040728 1_555
Li0 O2 2.040728 1_555
Li0 O3 2.163021 1_546
Li0 O3 2.163021 1_556
Li0 O4 2.163021 1_545
Li0 O4 2.163021 1_555
Li1 O5 2.064555 1_555
Li1 O7 2.072312 1_555
Li1 O7 2.072312 1_545
Li1 O8 2.156086 1_545
Li1 O8 2.156086 1_555
Li1 O9 2.166712 1_555
Li2 O10 2.107858 1_565
Li2 O10 2.107858 1_555
Li2 O9 2.108066 1_555
Li2 O9 2.108066 1_565
Li2 O8 2.181574 1_555
Li2 O11 2.248364 1_555
Li3 O10 2.039941 1_555
Li3 O14 2.065114 1_555
Li3 O12 2.111564 1_555
Li3 O12 2.111564 1_545
Li3 O11 2.114005 1_545
Li3 O11 2.114005 1_555
Li4 O13 2.138320 1_556
Li4 O13 2.138320 1_566
Li4 O14 2.138320 1_565
Li4 O14 2.138320 1_555
Li4 O16 2.190976 1_555
Li4 O12 2.190976 1_555
Li5 O17 2.039941 1_555
Li5 O13 2.065114 1_555
Li5 O16 2.111564 1_544
Li5 O16 2.111564 1_554
Li5 O15 2.114005 1_545
Li5 O15 2.114005 1_555
Li6 O17 2.107858 1_555
Li6 O17 2.107858 1_565
Li6 O18 2.108066 1_555
Li6 O18 2.108066 1_565
Li6 O0 2.181574 1_655
Li6 O15 2.248364 1_555
Li7 O1 2.064555 1_555
Li7 O19 2.072312 1_455
Li7 O19 2.072312 1_445
Li7 O0 2.156086 1_545
Li7 O0 2.156086 1_555
Li7 O18 2.166712 1_455
Co0 O3 1.876971 1_555
Co0 O2 1.890615 1_564
Co0 O2 1.890615 1_554
Co0 O0 1.906960 1_555
Co0 O1 1.910040 1_555
Co0 O1 1.910040 1_565
Co1 O5 1.930413 1_555
Co1 O1 1.930413 1_555
Co1 O4 1.934544 1_545
Co1 O4 1.934544 1_555
Co1 O3 1.934544 1_555
Co1 O3 1.934544 1_545
Co2 O4 1.876971 1_555
Co2 O6 1.890615 1_555
Co2 O6 1.890615 1_565
Co2 O8 1.906960 1_555
Co2 O5 1.910040 1_555
Co2 O5 1.910040 1_565
Co3 O15 1.907919 1_555
Co3 O11 1.907919 1_555
Co3 O14 1.947968 1_555
Co3 O14 1.947968 1_565
Co3 O13 1.947968 1_565
Co3 O13 1.947968 1_555
Ni0 O7 1.981700 1_546
Ni0 O7 1.981700 1_556
Ni0 O8 2.001426 1_545
Ni0 O8 2.001426 1_555
Ni0 O6 2.040746 1_555
Ni0 O10 2.095650 1_555
Ni1 O7 1.861808 1_556
Ni1 O12 1.917524 1_555
Ni1 O10 1.975407 1_555
Ni1 O10 1.975407 1_565
Ni1 O9 1.977671 1_556
Ni1 O9 1.977671 1_566
Ni2 O11 1.978022 1_545
Ni2 O11 1.978022 1_555
Ni2 O12 1.983985 1_554
Ni2 O12 1.983985 1_544
Ni2 O9 2.057004 1_555
Ni2 O13 2.066263 1_555
Ni3 O15 1.978022 1_555
Ni3 O15 1.978022 1_545
Ni3 O16 1.983985 1_545
Ni3 O16 1.983985 1_555
Ni3 O18 2.057004 1_555
Ni3 O14 2.066263 1_555
Ni4 O19 1.861808 1_555
Ni4 O16 1.917524 1_555
Ni4 O17 1.975407 1_556
Ni4 O17 1.975407 1_566
Ni4 O18 1.977671 1_565
Ni4 O18 1.977671 1_555
Ni5 O19 1.981700 1_445
Ni5 O19 1.981700 1_455
Ni5 O0 2.001426 1_546
Ni5 O0 2.001426 1_556
Ni5 O2 2.040746 1_555
Ni5 O17 2.095650 1_456
