# generated using pymatgen
data_Na6SiNi2(CO4)4
_symmetry_space_group_name_H-M   'P 1'
_cell_length_a   9.87608405
_cell_length_b   9.87608405
_cell_length_c   9.87608405
_cell_angle_alpha   60.00000000
_cell_angle_beta   60.00000000
_cell_angle_gamma   60.00000000
_symmetry_Int_Tables_number   1
_chemical_formula_structural   Na6SiNi2(CO4)4
_chemical_formula_sum   'Na12 Si2 Ni4 C8 O32'
_cell_volume   681.14462439
_cell_formula_units_Z   2
loop_
 _symmetry_equiv_pos_site_id
 _symmetry_equiv_pos_as_xyz
  1  'x, y, z'
loop_
 _atom_site_type_symbol
 _atom_site_label
 _atom_site_symmetry_multiplicity
 _atom_site_fract_x
 _atom_site_fract_y
 _atom_site_fract_z
 _atom_site_occupancy
  Na  Na0  1  0.03686500  0.46313500  0.46313500  1
  Na  Na1  1  0.03686500  0.03686500  0.46313500  1
  Na  Na2  1  0.03686500  0.46313500  0.03686500  1
  Na  Na3  1  0.46313500  0.03686500  0.46313500  1
  Na  Na4  1  0.78686500  0.21313500  0.21313500  1
  Na  Na5  1  0.78686500  0.78686500  0.21313500  1
  Na  Na6  1  0.46313500  0.46313500  0.03686500  1
  Na  Na7  1  0.46313500  0.03686500  0.03686500  1
  Na  Na8  1  0.21313500  0.78686500  0.21313500  1
  Na  Na9  1  0.78686500  0.21313500  0.78686500  1
  Na  Na10  1  0.21313500  0.21313500  0.78686500  1
  Na  Na11  1  0.21313500  0.78686500  0.78686500  1
  Si  Si0  1  0.00000000  0.00000000  0.00000000  1
  Si  Si1  1  0.25000000  0.25000000  0.25000000  1
  Ni  Ni0  1  0.12500000  0.62500000  0.62500000  1
  Ni  Ni1  1  0.62500000  0.12500000  0.62500000  1
  Ni  Ni2  1  0.62500000  0.62500000  0.62500000  1
  Ni  Ni3  1  0.62500000  0.62500000  0.12500000  1
  C  C0  1  0.84072000  0.84072000  0.47784000  1
  C  C1  1  0.84072000  0.84072000  0.84072000  1
  C  C2  1  0.84072000  0.47784000  0.84072000  1
  C  C3  1  0.47784000  0.84072000  0.84072000  1
  C  C4  1  0.77216000  0.40928000  0.40928000  1
  C  C5  1  0.40928000  0.77216000  0.40928000  1
  C  C6  1  0.40928000  0.40928000  0.40928000  1
  C  C7  1  0.40928000  0.40928000  0.77216000  1
  O  O0  1  0.06763400  0.06763400  0.79709700  1
  O  O1  1  0.06763400  0.06763400  0.06763400  1
  O  O2  1  0.06763400  0.79709700  0.06763400  1
  O  O3  1  0.79709700  0.06763400  0.06763400  1
  O  O4  1  0.98383400  0.72396000  0.47498200  1
  O  O5  1  0.81722300  0.98383400  0.47498200  1
  O  O6  1  0.98383400  0.81722300  0.72396000  1
  O  O7  1  0.72396000  0.81722300  0.47498200  1
  O  O8  1  0.98383400  0.47498200  0.81722300  1
  O  O9  1  0.81722300  0.47498200  0.72396000  1
  O  O10  1  0.72396000  0.98383400  0.81722300  1
  O  O11  1  0.81722300  0.72396000  0.98383400  1
  O  O12  1  0.47498200  0.98383400  0.72396000  1
  O  O13  1  0.72396000  0.47498200  0.98383400  1
  O  O14  1  0.47498200  0.72396000  0.81722300  1
  O  O15  1  0.77501800  0.43277700  0.26616600  1
  O  O16  1  0.47498200  0.81722300  0.98383400  1
  O  O17  1  0.77501800  0.52604000  0.43277700  1
  O  O18  1  0.52604000  0.77501800  0.26616600  1
  O  O19  1  0.77501800  0.26616600  0.52604000  1
  O  O20  1  0.43277700  0.52604000  0.26616600  1
  O  O21  1  0.52604000  0.26616600  0.43277700  1
  O  O22  1  0.43277700  0.77501800  0.52604000  1
  O  O23  1  0.26616600  0.77501800  0.43277700  1
  O  O24  1  0.52604000  0.43277700  0.77501800  1
  O  O25  1  0.26616600  0.43277700  0.52604000  1
  O  O26  1  0.43277700  0.26616600  0.77501800  1
  O  O27  1  0.26616600  0.52604000  0.77501800  1
  O  O28  1  0.45290300  0.18236600  0.18236600  1
  O  O29  1  0.18236600  0.45290300  0.18236600  1
  O  O30  1  0.18236600  0.18236600  0.18236600  1
  O  O31  1  0.18236600  0.18236600  0.45290300  1
loop_
_geom_bond_atom_site_label_1
_geom_bond_atom_site_label_2
_geom_bond_distance
_geom_bond_site_symmetry_2
Na0 O4 2.411307 1_455
Na0 O9 2.411310 1_455
Na0 O29 2.431972 1_555
Na0 O31 2.431972 1_555
Na0 O17 2.479084 1_455
Na0 O25 2.479094 1_555
Na1 O6 2.411312 1_445
Na1 O5 2.411317 1_445
Na1 O30 2.431975 1_555
Na1 O31 2.431980 1_555
Na1 O23 2.479087 1_545
Na1 O19 2.479089 1_455
Na2 O11 2.411312 1_454
Na2 O8 2.411317 1_454
Na2 O30 2.431975 1_555
Na2 O29 2.431980 1_555
Na2 O15 2.479087 1_455
Na2 O27 2.479089 1_554
Na3 O12 2.411307 1_545
Na3 O7 2.411310 1_545
Na3 O28 2.431972 1_555
Na3 O31 2.431972 1_555
Na3 O22 2.479084 1_545
Na3 O21 2.479094 1_555
Na4 O21 2.411312 1_555
Na4 O15 2.411317 1_555
Na4 O1 2.431975 1_655
Na4 O3 2.431980 1_555
Na4 O5 2.479087 1_545
Na4 O13 2.479089 1_554
Na5 O18 2.411307 1_555
Na5 O17 2.411310 1_555
Na5 O2 2.431972 1_655
Na5 O3 2.431972 1_565
Na5 O7 2.479084 1_555
Na5 O11 2.479094 1_554
Na6 O13 2.411307 1_554
Na6 O14 2.411310 1_554
Na6 O29 2.431972 1_555
Na6 O28 2.431972 1_555
Na6 O24 2.479084 1_554
Na6 O20 2.479094 1_555
Na7 O10 2.411312 1_544
Na7 O16 2.411317 1_544
Na7 O30 2.431975 1_555
Na7 O28 2.431980 1_555
Na7 O26 2.479087 1_554
Na7 O18 2.479089 1_545
Na8 O20 2.411312 1_555
Na8 O23 2.411317 1_555
Na8 O1 2.431975 1_565
Na8 O2 2.431980 1_555
Na8 O16 2.479087 1_554
Na8 O4 2.479089 1_455
Na9 O19 2.411307 1_555
Na9 O24 2.411310 1_555
Na9 O3 2.431972 1_556
Na9 O0 2.431972 1_655
Na9 O9 2.479084 1_555
Na9 O10 2.479094 1_545
Na10 O25 2.411312 1_555
Na10 O26 2.411317 1_555
Na10 O1 2.431975 1_556
Na10 O0 2.431980 1_555
Na10 O8 2.479087 1_455
Na10 O12 2.479089 1_545
Na11 O27 2.411307 1_555
Na11 O22 2.411310 1_555
Na11 O2 2.431972 1_556
Na11 O0 2.431972 1_565
Na11 O14 2.479084 1_555
Na11 O6 2.479094 1_455
Ni0 O25 2.085418 1_555
Ni0 O6 2.085418 1_455
Ni0 O8 2.085423 1_455
Ni0 O23 2.085423 1_555
Ni0 O4 2.085426 1_455
Ni0 O27 2.085426 1_555
Ni1 O21 2.085418 1_555
Ni1 O10 2.085418 1_545
Ni1 O5 2.085423 1_545
Ni1 O26 2.085423 1_555
Ni1 O19 2.085426 1_555
Ni1 O12 2.085426 1_545
Ni2 O22 2.085418 1_555
Ni2 O24 2.085418 1_555
Ni2 O17 2.085418 1_555
Ni2 O7 2.085418 1_555
Ni2 O14 2.085418 1_555
Ni2 O9 2.085418 1_555
Ni3 O20 2.085418 1_555
Ni3 O11 2.085418 1_554
Ni3 O15 2.085423 1_555
Ni3 O16 2.085423 1_554
Ni3 O13 2.085426 1_554
Ni3 O18 2.085426 1_555
C0 O5 1.300395 1_555
C0 O4 1.300398 1_555
C0 O7 1.300405 1_555
C1 O11 1.300399 1_555
C1 O6 1.300399 1_555
C1 O10 1.300399 1_555
C2 O8 1.300395 1_555
C2 O13 1.300398 1_555
C2 O9 1.300405 1_555
C3 O16 1.300395 1_555
C3 O12 1.300398 1_555
C3 O14 1.300405 1_555
C4 O15 1.300395 1_555
C4 O19 1.300398 1_555
C4 O17 1.300405 1_555
C5 O23 1.300395 1_555
C5 O18 1.300398 1_555
C5 O22 1.300405 1_555
C6 O20 1.300399 1_555
C6 O25 1.300399 1_555
C6 O21 1.300399 1_555
C7 O26 1.300395 1_555
C7 O27 1.300398 1_555
C7 O24 1.300405 1_555
O0 Si0 1.636167 1_556
O1 Si0 1.636159 1_555
O2 Si0 1.636167 1_565
O3 Si0 1.636167 1_655
O28 Si1 1.636167 1_555
O29 Si1 1.636167 1_555
O30 Si1 1.636159 1_555
O31 Si1 1.636167 1_555
