# generated using pymatgen
data_SrLiLa3FeO8
_symmetry_space_group_name_H-M   'P 1'
_cell_length_a   7.01746624
_cell_length_b   7.01746624
_cell_length_c   5.37866800
_cell_angle_alpha   90.00000000
_cell_angle_beta   90.00000000
_cell_angle_gamma   134.90538896
_symmetry_Int_Tables_number   1
_chemical_formula_structural   SrLiLa3FeO8
_chemical_formula_sum   'Sr1 Li1 La3 Fe1 O8'
_cell_volume   187.60152353
_cell_formula_units_Z   1
loop_
 _symmetry_equiv_pos_site_id
 _symmetry_equiv_pos_as_xyz
  1  'x, y, z'
loop_
 _atom_site_type_symbol
 _atom_site_label
 _atom_site_symmetry_multiplicity
 _atom_site_fract_x
 _atom_site_fract_y
 _atom_site_fract_z
 _atom_site_occupancy
  Sr  Sr0  1  0.85891900  0.14108100  0.50000000  1
  Li  Li0  1  0.99419000  0.00581000  0.00000000  1
  La  La0  1  0.64246200  0.35753800  0.00000000  1
  La  La1  1  0.36015400  0.63984600  0.00000000  1
  La  La2  1  0.13867600  0.86132400  0.50000000  1
  Fe  Fe0  1  0.50252900  0.49747100  0.50000000  1
  O  O0  1  0.81977500  0.18022500  0.00000000  1
  O  O1  1  0.66732900  0.33267100  0.50000000  1
  O  O2  1  0.18138400  0.81861600  0.00000000  1
  O  O3  1  0.32252500  0.67747500  0.50000000  1
  O  O4  1  0.26173300  0.25607700  0.74446800  1
  O  O5  1  0.26173300  0.25607700  0.25553200  1
  O  O6  1  0.74392300  0.73826700  0.25553200  1
  O  O7  1  0.74392300  0.73826700  0.74446800  1
loop_
_geom_bond_atom_site_label_1
_geom_bond_atom_site_label_2
_geom_bond_distance
_geom_bond_site_symmetry_2
Li0 O5 1.960344 1_655
Li0 O4 1.960344 1_654
Li0 O6 1.960344 1_545
Li0 O7 1.960344 1_544
Li0 O0 2.260793 1_555
Li0 O2 2.426436 1_645
La0 O0 2.298357 1_555
La0 O4 2.616954 1_554
La0 O5 2.616954 1_555
La0 O6 2.616954 1_555
La0 O7 2.616954 1_554
La0 O1 2.708582 1_555
La0 O1 2.708582 1_554
La0 O2 2.737708 1_545
La0 O2 2.737708 1_655
La1 O2 2.317243 1_555
La1 O5 2.644361 1_555
La1 O6 2.644361 1_555
La1 O4 2.644361 1_554
La1 O7 2.644361 1_554
La1 O3 2.733207 1_555
La1 O3 2.733207 1_554
La1 O0 2.741251 1_565
La1 O0 2.741251 1_455
La2 O3 2.383078 1_555
La2 O5 2.602129 1_565
La2 O4 2.602129 1_565
La2 O6 2.602129 1_455
La2 O7 2.602129 1_455
La2 O1 2.716331 1_565
La2 O1 2.716331 1_455
La2 O2 2.745720 1_555
La2 O2 2.745720 1_556
Fe0 O4 1.847290 1_555
Fe0 O7 1.847290 1_555
Fe0 O5 1.847290 1_555
Fe0 O6 1.847290 1_555
Fe0 O1 2.136162 1_555
Fe0 O3 2.333238 1_555
O0 Sr0 2.736780 1_555
O0 Sr0 2.736780 1_554
O1 Sr0 2.483418 1_555
O3 Sr0 2.731859 1_565
O3 Sr0 2.731859 1_455
O4 Sr0 2.673944 1_455
O5 Sr0 2.673944 1_455
O6 Sr0 2.673944 1_565
O7 Sr0 2.673944 1_565
