# generated using pymatgen
data_Ti2Mn3Co3O16
_symmetry_space_group_name_H-M   'P 1'
_cell_length_a   5.67722853
_cell_length_b   5.67722853
_cell_length_c   9.02587284
_cell_angle_alpha   89.30135171
_cell_angle_beta   89.30135171
_cell_angle_gamma   60.23835760
_symmetry_Int_Tables_number   1
_chemical_formula_structural   Ti2Mn3Co3O16
_chemical_formula_sum   'Ti2 Mn3 Co3 O16'
_cell_volume   252.51521261
_cell_formula_units_Z   1
loop_
 _symmetry_equiv_pos_site_id
 _symmetry_equiv_pos_as_xyz
  1  'x, y, z'
loop_
 _atom_site_type_symbol
 _atom_site_label
 _atom_site_symmetry_multiplicity
 _atom_site_fract_x
 _atom_site_fract_y
 _atom_site_fract_z
 _atom_site_occupancy
  Ti  Ti0  1  0.66520100  0.66520100  0.50486200  1
  Ti  Ti1  1  0.33326000  0.33326000  0.00318400  1
  Mn  Mn0  1  0.83279900  0.83279900  0.78654700  1
  Mn  Mn1  1  0.16862000  0.66420000  0.28611600  1
  Mn  Mn2  1  0.66420000  0.16862000  0.28611600  1
  Co  Co0  1  0.33729500  0.83284100  0.78770700  1
  Co  Co1  1  0.83284100  0.33729500  0.78770700  1
  Co  Co2  1  0.16844900  0.16844900  0.28817200  1
  O  O0  1  0.33009600  0.83840500  0.39890200  1
  O  O1  1  0.52002000  0.52002000  0.67213300  1
  O  O2  1  0.66561800  0.66561800  0.89563400  1
  O  O3  1  0.00267500  0.00267500  0.68303800  1
  O  O4  1  0.00143000  0.00143000  0.18144500  1
  O  O5  1  0.83840500  0.33009600  0.39890200  1
  O  O6  1  0.51623400  0.96198900  0.66668000  1
  O  O7  1  0.96198900  0.51623400  0.66668000  1
  O  O8  1  0.16269800  0.16269800  0.89477500  1
  O  O9  1  0.83273600  0.83273600  0.40184900  1
  O  O10  1  0.03769200  0.47637500  0.16737700  1
  O  O11  1  0.47637500  0.03769200  0.16737700  1
  O  O12  1  0.33334200  0.33334200  0.39679300  1
  O  O13  1  0.16873300  0.66726900  0.89954300  1
  O  O14  1  0.48187400  0.48187400  0.16330400  1
  O  O15  1  0.66726900  0.16873300  0.89954300  1
loop_
_geom_bond_atom_site_label_1
_geom_bond_atom_site_label_2
_geom_bond_distance
_geom_bond_site_symmetry_2
Mn0 O3 1.900666 1_665
Mn0 O2 1.902599 1_555
Mn0 O6 1.912551 1_555
Mn0 O7 1.912551 1_555
Mn0 O13 1.950728 1_655
Mn0 O15 1.950728 1_565
Mn1 O14 1.901390 1_555
Mn1 O4 1.905926 1_565
Mn1 O12 1.906251 1_555
Mn1 O10 1.916334 1_555
Mn1 O0 1.949939 1_555
Mn1 O9 1.951234 1_455
Mn2 O14 1.901390 1_555
Mn2 O4 1.905926 1_655
Mn2 O12 1.906251 1_555
Mn2 O11 1.916334 1_555
Mn2 O5 1.949939 1_555
Mn2 O9 1.951234 1_545
Co0 O6 1.858965 1_555
Co0 O1 1.872989 1_555
Co0 O2 1.894600 1_555
Co0 O8 1.897696 1_565
Co0 O3 1.906350 1_565
Co0 O13 1.914325 1_555
Co1 O7 1.858965 1_555
Co1 O1 1.872989 1_555
Co1 O2 1.894600 1_555
Co1 O8 1.897696 1_655
Co1 O3 1.906350 1_655
Co1 O15 1.914325 1_555
Co2 O11 1.865677 1_555
Co2 O10 1.865677 1_555
Co2 O5 1.903025 1_455
Co2 O0 1.903025 1_545
Co2 O12 1.904907 1_555
Co2 O4 1.913974 1_555
O0 Ti0 1.914462 1_555
O1 Ti0 2.062000 1_555
O5 Ti0 1.914462 1_555
O6 Ti0 2.074279 1_555
O7 Ti0 2.074279 1_555
O8 Ti1 1.951874 1_556
O9 Ti0 1.878512 1_555
O10 Ti1 2.070584 1_555
O11 Ti1 2.070584 1_555
O13 Ti1 1.887565 1_556
O14 Ti1 2.068471 1_555
O15 Ti1 1.887565 1_556
