# generated using pymatgen
data_Na2NiPCO7
_symmetry_space_group_name_H-M   'P 1'
_cell_length_a   6.63076400
_cell_length_b   8.86552178
_cell_length_c   10.33643106
_cell_angle_alpha   92.21224314
_cell_angle_beta   90.31422278
_cell_angle_gamma   90.44946403
_symmetry_Int_Tables_number   1
_chemical_formula_structural   Na2NiPCO7
_chemical_formula_sum   'Na8 Ni4 P4 C4 O28'
_cell_volume   607.14725184
_cell_formula_units_Z   4
loop_
 _symmetry_equiv_pos_site_id
 _symmetry_equiv_pos_as_xyz
  1  'x, y, z'
loop_
 _atom_site_type_symbol
 _atom_site_label
 _atom_site_symmetry_multiplicity
 _atom_site_fract_x
 _atom_site_fract_y
 _atom_site_fract_z
 _atom_site_occupancy
  Na  Na0  1  0.99180100  0.74853400  0.12155600  1
  Na  Na1  1  0.50906700  0.75069900  0.12296200  1
  Na  Na2  1  0.98305000  0.73532600  0.62508200  1
  Na  Na3  1  0.51765900  0.73478000  0.62415800  1
  Na  Na4  1  0.48570200  0.26318500  0.36411400  1
  Na  Na5  1  0.01081800  0.26243000  0.36824200  1
  Na  Na6  1  0.02707600  0.25803500  0.88619100  1
  Na  Na7  1  0.26307400  0.08728400  0.61447500  1
  Ni  Ni0  1  0.24866300  0.65366800  0.39004600  1
  Ni  Ni1  1  0.25154000  0.64931800  0.88871700  1
  Ni  Ni2  1  0.74367800  0.34622900  0.10532600  1
  Ni  Ni3  1  0.74610600  0.34553200  0.61153800  1
  P  P0  1  0.74904200  0.57738600  0.35867500  1
  P  P1  1  0.75005100  0.57435300  0.86162900  1
  P  P2  1  0.24944300  0.42098800  0.14222300  1
  P  P3  1  0.24827700  0.42112200  0.64031300  1
  C  C0  1  0.24990000  0.93095600  0.36134200  1
  C  C1  1  0.24763300  0.92384300  0.85541500  1
  C  C2  1  0.75183800  0.07356400  0.14045900  1
  C  C3  1  0.75139000  0.07217600  0.64303700  1
  O  O0  1  0.75369300  0.93482100  0.15799300  1
  O  O1  1  0.75258400  0.93177900  0.65487300  1
  O  O2  1  0.25216100  0.86783100  0.47373800  1
  O  O3  1  0.25194800  0.86320800  0.96751000  1
  O  O4  1  0.25005800  0.83794000  0.26222000  1
  O  O5  1  0.25374100  0.82556400  0.75777400  1
  O  O6  1  0.93617100  0.67528300  0.39469800  1
  O  O7  1  0.56269400  0.67300900  0.39469800  1
  O  O8  1  0.93676400  0.67483200  0.89382600  1
  O  O9  1  0.56386100  0.67000000  0.89660200  1
  O  O10  1  0.25196100  0.57186800  0.07239400  1
  O  O11  1  0.24688700  0.57164600  0.57071500  1
  O  O12  1  0.74876900  0.54125600  0.20904300  1
  O  O13  1  0.74927900  0.53854400  0.71171000  1
  O  O14  1  0.24396700  0.45864100  0.29247700  1
  O  O15  1  0.24169300  0.45870800  0.78853000  1
  O  O16  1  0.74969900  0.42648400  0.42907700  1
  O  O17  1  0.75720400  0.42437100  0.93070800  1
  O  O18  1  0.43607300  0.32358000  0.11650300  1
  O  O19  1  0.06199400  0.32384400  0.10707600  1
  O  O20  1  0.43329300  0.32430600  0.60254800  1
  O  O21  1  0.06397500  0.31871500  0.60421200  1
  O  O22  1  0.74905400  0.17507800  0.23534700  1
  O  O23  1  0.75759700  0.17047700  0.73834700  1
  O  O24  1  0.75193100  0.13102300  0.02800100  1
  O  O25  1  0.74198000  0.13274800  0.53000400  1
  O  O26  1  0.24763400  0.07308300  0.35660700  1
  O  O27  1  0.23737000  0.06227600  0.83930700  1
loop_
_geom_bond_atom_site_label_1
_geom_bond_atom_site_label_2
_geom_bond_distance
_geom_bond_site_symmetry_2
Na0 O0 2.315501 1_555
Na0 O4 2.353115 1_655
Na0 O10 2.382795 1_655
Na0 O8 2.443181 1_554
Na0 O3 2.583033 1_654
Na0 O12 2.624757 1_555
Na1 O0 2.309349 1_555
Na1 O10 2.361570 1_555
Na1 O4 2.362568 1_555
Na1 O9 2.449996 1_554
Na1 O3 2.569788 1_554
Na1 O12 2.631356 1_555
Na1 O7 2.938082 1_555
Na2 O1 2.338589 1_555
Na2 O11 2.338742 1_655
Na2 O5 2.368243 1_655
Na2 O6 2.437667 1_555
Na2 O13 2.518228 1_555
Na2 O2 2.674121 1_655
Na2 O8 2.867068 1_555
Na3 O1 2.342364 1_555
Na3 O11 2.346722 1_555
Na3 O5 2.362301 1_555
Na3 O7 2.434041 1_555
Na3 O13 2.520440 1_555
Na3 O2 2.655588 1_555
Na3 O9 2.910714 1_555
Na4 O26 2.298945 1_555
Na4 O22 2.323275 1_555
Na4 O16 2.341660 1_555
Na4 O14 2.499965 1_555
Na4 O20 2.529362 1_555
Na4 O18 2.654224 1_555
Na4 O25 2.705016 1_555
Na5 O26 2.307803 1_555
Na5 O22 2.317313 1_455
Na5 O16 2.342950 1_455
Na5 O14 2.470921 1_555
Na5 O21 2.493237 1_555
Na5 O25 2.728396 1_455
Na5 O19 2.796363 1_555
Na6 O27 2.274128 1_555
Na6 O19 2.344371 1_556
Na6 O17 2.363588 1_455
Na6 O23 2.446924 1_455
Na6 O15 2.514745 1_555
Na6 O24 2.620988 1_456
Na7 O27 2.350005 1_555
Na7 O2 2.384282 1_545
Na7 O20 2.385162 1_555
Na7 O21 2.453894 1_555
Na7 O26 2.664915 1_555
Na7 O5 2.800997 1_545
Ni0 O14 1.967679 1_555
Ni0 O11 2.030101 1_555
Ni0 O2 2.055752 1_555
Ni0 O6 2.083046 1_455
Ni0 O7 2.088111 1_555
Ni0 O4 2.140382 1_555
Ni1 O15 1.948005 1_555
Ni1 O3 2.034633 1_555
Ni1 O10 2.043682 1_556
Ni1 O9 2.078470 1_555
Ni1 O8 2.101921 1_455
Ni1 O5 2.106349 1_555
Ni2 O17 1.960375 1_554
Ni2 O12 1.998885 1_555
Ni2 O24 2.041162 1_555
Ni2 O18 2.052270 1_555
Ni2 O22 2.065809 1_555
Ni2 O19 2.121581 1_655
Ni3 O13 1.965450 1_555
Ni3 O25 2.036141 1_555
Ni3 O16 2.043853 1_555
Ni3 O23 2.071291 1_555
Ni3 O20 2.082479 1_555
Ni3 O21 2.124368 1_655
C0 O26 1.263070 1_565
C0 O4 1.290179 1_555
C0 O2 1.308920 1_555
C1 O27 1.247210 1_565
C1 O3 1.296245 1_555
C1 O5 1.308630 1_555
C2 O0 1.250358 1_545
C2 O24 1.287019 1_555
C2 O22 1.305597 1_555
C3 O1 1.255464 1_545
C3 O23 1.290135 1_555
C3 O25 1.305944 1_555
O6 P0 1.544215 1_555
O7 P0 1.543118 1_555
O8 P1 1.546718 1_555
O9 P1 1.539988 1_555
O10 P2 1.544287 1_555
O11 P3 1.540347 1_555
O12 P0 1.567315 1_555
O13 P1 1.569733 1_555
O14 P2 1.576586 1_555
O15 P3 1.556156 1_555
O16 P0 1.547439 1_555
O17 P1 1.534283 1_555
O18 P2 1.533131 1_555
O19 P2 1.540350 1_555
O20 P3 1.545974 1_555
O21 P3 1.551898 1_555
