# generated using pymatgen
data_Li4Cr3Fe3(SnO8)2
_symmetry_space_group_name_H-M   'P 1'
_cell_length_a   5.84597246
_cell_length_b   5.82544425
_cell_length_c   9.69553763
_cell_angle_alpha   90.01287009
_cell_angle_beta   89.63376921
_cell_angle_gamma   119.87756042
_symmetry_Int_Tables_number   1
_chemical_formula_structural   Li4Cr3Fe3(SnO8)2
_chemical_formula_sum   'Li4 Cr3 Fe3 Sn2 O16'
_cell_volume   286.29347177
_cell_formula_units_Z   1
loop_
 _symmetry_equiv_pos_site_id
 _symmetry_equiv_pos_as_xyz
  1  'x, y, z'
loop_
 _atom_site_type_symbol
 _atom_site_label
 _atom_site_symmetry_multiplicity
 _atom_site_fract_x
 _atom_site_fract_y
 _atom_site_fract_z
 _atom_site_occupancy
  Li  Li0  1  0.33690100  0.66848100  0.89191800  1
  Li  Li1  1  0.99667500  0.99824900  0.99339000  1
  Li  Li2  1  0.99661100  0.99822100  0.49539400  1
  Li  Li3  1  0.66981500  0.33510400  0.39209300  1
  Cr  Cr0  1  0.16874600  0.82804800  0.21586400  1
  Cr  Cr1  1  0.16861600  0.34067300  0.21590800  1
  Cr  Cr2  1  0.33662500  0.16836700  0.71567000  1
  Fe  Fe0  1  0.66071700  0.83039400  0.21493900  1
  Fe  Fe1  1  0.83017700  0.65561800  0.71504100  1
  Fe  Fe2  1  0.83022000  0.17455500  0.71506300  1
  Sn  Sn0  1  0.33575300  0.66780200  0.49338500  1
  Sn  Sn1  1  0.66468300  0.33232200  0.99229700  1
  O  O0  1  0.15457300  0.83758700  0.60229900  1
  O  O1  1  0.03349900  0.51660500  0.33724300  1
  O  O2  1  0.33947100  0.66973400  0.10830400  1
  O  O3  1  0.99507500  0.99759100  0.30891200  1
  O  O4  1  0.98802500  0.99415300  0.80660000  1
  O  O5  1  0.15454500  0.31674100  0.60236000  1
  O  O6  1  0.48921500  0.96783000  0.33342100  1
  O  O7  1  0.48904000  0.52143300  0.33338300  1
  O  O8  1  0.31512900  0.15770700  0.10077800  1
  O  O9  1  0.68622600  0.84315000  0.60736300  1
  O  O10  1  0.52259900  0.48792700  0.83258800  1
  O  O11  1  0.52251900  0.03489100  0.83259800  1
  O  O12  1  0.67075600  0.33516000  0.61019500  1
  O  O13  1  0.83748000  0.68240500  0.10317700  1
  O  O14  1  0.96868500  0.48439000  0.83457800  1
  O  O15  1  0.83762200  0.15516300  0.10307800  1
loop_
_geom_bond_atom_site_label_1
_geom_bond_atom_site_label_2
_geom_bond_distance
_geom_bond_site_symmetry_2
Li0 O10 1.935209 1_555
Li0 O11 1.936318 1_565
Li0 O14 1.951376 1_455
Li0 O2 2.098113 1_556
Li1 O4 1.811878 1_555
Li1 O15 1.914379 1_566
Li1 O13 1.914869 1_556
Li1 O8 1.927223 1_666
Li2 O3 1.808117 1_555
Li2 O9 1.905042 1_555
Li2 O5 1.917165 1_665
Li2 O0 1.917376 1_655
Li3 O1 1.914981 1_655
Li3 O7 1.941619 1_555
Li3 O6 1.942291 1_545
Li3 O12 2.114658 1_555
Cr0 O3 1.951171 1_455
Cr0 O2 1.958955 1_555
Cr0 O1 1.965104 1_555
Cr0 O6 1.994739 1_555
Cr0 O8 2.004193 1_565
Cr0 O13 2.013332 1_455
Cr1 O3 1.950840 1_445
Cr1 O2 1.959766 1_555
Cr1 O1 1.962746 1_555
Cr1 O7 1.994118 1_555
Cr1 O8 2.003111 1_555
Cr1 O15 2.012939 1_455
Cr2 O4 1.969048 1_445
Cr2 O12 1.972143 1_555
Cr2 O11 1.982125 1_555
Cr2 O10 1.982646 1_555
Cr2 O5 2.004755 1_555
Cr2 O0 2.006193 1_545
Fe0 O3 1.930040 1_555
Fe0 O2 1.935193 1_555
Fe0 O6 1.936599 1_555
Fe0 O7 1.936999 1_555
Fe0 O13 1.964187 1_555
Fe0 O15 1.965298 1_565
Fe1 O12 1.914364 1_555
Fe1 O10 1.926290 1_555
Fe1 O4 1.930129 1_555
Fe1 O14 1.952184 1_555
Fe1 O0 1.971322 1_655
Fe1 O9 1.979709 1_555
Fe2 O12 1.913023 1_555
Fe2 O11 1.926757 1_555
Fe2 O4 1.928714 1_545
Fe2 O14 1.952220 1_555
Fe2 O5 1.970835 1_655
Fe2 O9 1.979226 1_545
O0 Sn0 2.060136 1_555
O1 Sn0 2.161674 1_555
O5 Sn0 2.061351 1_555
O6 Sn0 2.164781 1_555
O7 Sn0 2.163212 1_555
O8 Sn1 2.053980 1_554
O9 Sn0 2.098988 1_555
O10 Sn1 2.162538 1_555
O11 Sn1 2.161219 1_555
O13 Sn1 2.072598 1_554
O14 Sn1 2.163068 1_555
O15 Sn1 2.072377 1_554
