# generated using pymatgen
data_Cs4GeO4
_symmetry_space_group_name_H-M   'P 1'
_cell_length_a   7.08720599
_cell_length_b   11.33550850
_cell_length_c   11.68837934
_cell_angle_alpha   68.03714463
_cell_angle_beta   90.00000000
_cell_angle_gamma   90.00000000
_symmetry_Int_Tables_number   1
_chemical_formula_structural   Cs4GeO4
_chemical_formula_sum   'Cs16 Ge4 O16'
_cell_volume   870.86305994
_cell_formula_units_Z   4
loop_
 _symmetry_equiv_pos_site_id
 _symmetry_equiv_pos_as_xyz
  1  'x, y, z'
loop_
 _atom_site_type_symbol
 _atom_site_label
 _atom_site_symmetry_multiplicity
 _atom_site_fract_x
 _atom_site_fract_y
 _atom_site_fract_z
 _atom_site_occupancy
  Cs  Cs0  1  0.58507410  0.28909817  0.07057049  1
  Cs  Cs1  1  0.12537988  0.42417375  0.14975850  1
  Cs  Cs2  1  0.91492590  0.78909817  0.07057049  1
  Cs  Cs3  1  0.32901625  0.10460436  0.37480402  1
  Cs  Cs4  1  0.37462012  0.92417375  0.14975850  1
  Cs  Cs5  1  0.82808503  0.21660377  0.41276952  1
  Cs  Cs6  1  0.17098375  0.60460436  0.37480402  1
  Cs  Cs7  1  0.32808503  0.28339623  0.58723048  1
  Cs  Cs8  1  0.67191497  0.71660377  0.41276952  1
  Cs  Cs9  1  0.82901625  0.39539564  0.62519598  1
  Cs  Cs10  1  0.17191497  0.78339623  0.58723048  1
  Cs  Cs11  1  0.62537988  0.07582625  0.85024150  1
  Cs  Cs12  1  0.67098375  0.89539564  0.62519598  1
  Cs  Cs13  1  0.08507410  0.21090183  0.92942951  1
  Cs  Cs14  1  0.87462012  0.57582625  0.85024150  1
  Cs  Cs15  1  0.41492590  0.71090183  0.92942951  1
  Ge  Ge0  1  0.87709686  0.01261404  0.23811802  1
  Ge  Ge1  1  0.62290314  0.51261404  0.23811802  1
  Ge  Ge2  1  0.37709686  0.48738596  0.76188198  1
  Ge  Ge3  1  0.12290314  0.98738596  0.76188198  1
  O  O0  1  0.77759083  0.01929131  0.09592201  1
  O  O1  1  0.01116042  0.15453460  0.20955200  1
  O  O2  1  0.72240917  0.51929131  0.09592201  1
  O  O3  1  0.47788568  0.37428742  0.30645261  1
  O  O4  1  0.48883958  0.65453460  0.20955200  1
  O  O5  1  0.81394259  0.50530590  0.34106977  1
  O  O6  1  0.02211432  0.87428742  0.30645261  1
  O  O7  1  0.31394259  -0.00530590  0.65893023  1
  O  O8  1  0.68605741  0.00530590  0.34106977  1
  O  O9  1  0.97788568  0.12571258  0.69354739  1
  O  O10  1  0.18605741  0.49469410  0.65893023  1
  O  O11  1  0.51116042  0.34546540  0.79044800  1
  O  O12  1  0.52211432  0.62571258  0.69354739  1
  O  O13  1  0.27759083  0.48070869  0.90407799  1
  O  O14  1  0.98883958  0.84546540  0.79044800  1
  O  O15  1  0.22240917  0.98070869  0.90407799  1
loop_
_geom_bond_atom_site_label_1
_geom_bond_atom_site_label_2
_geom_bond_distance
_geom_bond_site_symmetry_2
Cs0 O2 2.902113 1_555
Cs0 O11 3.136565 1_554
Cs0 O13 3.176766 1_554
Cs0 O0 3.259649 1_555
Cs0 O3 3.332056 1_555
Cs0 O1 3.497293 1_655
Cs0 O8 3.639944 1_555
Cs1 O13 2.905852 1_554
Cs1 O1 2.981281 1_555
Cs1 O3 3.023387 1_555
Cs1 O2 3.034364 1_455
Cs1 O5 3.500876 1_455
Cs2 O0 2.902113 1_565
Cs2 O14 3.136565 1_554
Cs2 O15 3.176766 1_654
Cs2 O2 3.259649 1_555
Cs2 O6 3.332056 1_655
Cs2 O4 3.497293 1_555
Cs2 O5 3.639944 1_555
Cs3 O8 2.856129 1_555
Cs3 O1 2.882378 1_555
Cs3 O3 3.044634 1_555
Cs3 O7 3.081815 1_555
Cs4 O15 2.905852 1_554
Cs4 O4 2.981281 1_555
Cs4 O6 3.023387 1_555
Cs4 O0 3.034364 1_565
Cs4 O8 3.500876 1_565
Cs5 O8 2.992296 1_555
Cs5 O1 3.011740 1_655
Cs5 O3 3.039351 1_555
Cs5 O5 3.061160 1_555
Cs5 O9 3.229534 1_555
Cs6 O5 2.856129 1_455
Cs6 O4 2.882378 1_555
Cs6 O6 3.044634 1_555
Cs6 O10 3.081815 1_555
Cs7 O10 2.992296 1_555
Cs7 O11 3.011740 1_555
Cs7 O9 3.039351 1_455
Cs7 O7 3.061160 1_555
Cs7 O3 3.229534 1_555
Cs8 O5 2.992296 1_555
Cs8 O4 3.011740 1_555
Cs8 O6 3.039351 1_655
Cs8 O8 3.061160 1_565
Cs8 O12 3.229534 1_555
Cs9 O10 2.856129 1_655
Cs9 O11 2.882378 1_555
Cs9 O9 3.044634 1_555
Cs9 O5 3.081815 1_555
Cs10 O7 2.992296 1_565
Cs10 O14 3.011740 1_455
Cs10 O12 3.039351 1_555
Cs10 O10 3.061160 1_555
Cs10 O6 3.229534 1_555
Cs11 O0 2.905852 1_556
Cs11 O11 2.981281 1_555
Cs11 O9 3.023387 1_555
Cs11 O15 3.034364 1_545
Cs11 O7 3.500876 1_555
Cs12 O7 2.856129 1_565
Cs12 O14 2.882378 1_555
Cs12 O12 3.044634 1_555
Cs12 O8 3.081815 1_565
Cs13 O15 2.902113 1_545
Cs13 O1 3.136565 1_556
Cs13 O0 3.176766 1_456
Cs13 O13 3.259649 1_555
Cs13 O9 3.332056 1_455
Cs13 O11 3.497293 1_555
Cs13 O10 3.639944 1_555
Cs14 O2 2.905852 1_556
Cs14 O14 2.981281 1_555
Cs14 O12 3.023387 1_555
Cs14 O13 3.034364 1_655
Cs14 O10 3.500876 1_655
Cs15 O13 2.902113 1_555
Cs15 O4 3.136565 1_556
Cs15 O2 3.176766 1_556
Cs15 O15 3.259649 1_555
Cs15 O12 3.332056 1_555
Cs15 O14 3.497293 1_455
Cs15 O7 3.639944 1_565
Ge0 O0 1.780827 1_555
Ge0 O1 1.788995 1_655
Ge0 O8 1.792614 1_555
Ge0 O6 1.793346 1_645
Ge1 O2 1.780827 1_555
Ge1 O4 1.788995 1_555
Ge1 O5 1.792614 1_555
Ge1 O3 1.793346 1_555
Ge2 O13 1.780827 1_555
Ge2 O11 1.788995 1_555
Ge2 O10 1.792614 1_555
Ge2 O12 1.793346 1_555
Ge3 O15 1.780827 1_555
Ge3 O14 1.788995 1_455
Ge3 O7 1.792614 1_565
Ge3 O9 1.793346 1_465
