# generated using pymatgen
data_Li5Fe8(BO3)8
_symmetry_space_group_name_H-M   'P 1'
_cell_length_a   5.27555800
_cell_length_b   9.06114675
_cell_length_c   10.10845595
_cell_angle_alpha   90.73669570
_cell_angle_beta   91.70247850
_cell_angle_gamma   90.49689253
_symmetry_Int_Tables_number   1
_chemical_formula_structural   Li5Fe8(BO3)8
_chemical_formula_sum   'Li5 Fe8 B8 O24'
_cell_volume   482.93748628
_cell_formula_units_Z   1
loop_
 _symmetry_equiv_pos_site_id
 _symmetry_equiv_pos_as_xyz
  1  'x, y, z'
loop_
 _atom_site_type_symbol
 _atom_site_label
 _atom_site_symmetry_multiplicity
 _atom_site_fract_x
 _atom_site_fract_y
 _atom_site_fract_z
 _atom_site_occupancy
  Li  Li0  1  0.65178300  0.00584000  0.07922300  1
  Li  Li1  1  0.15415500  0.49908000  0.08703700  1
  Li  Li2  1  0.83851500  0.48918400  0.34958200  1
  Li  Li3  1  0.33642800  0.99478600  0.34735000  1
  Li  Li4  1  0.65678700  0.00071200  0.59933800  1
  Fe  Fe0  1  0.15901700  0.16203400  0.11711600  1
  Fe  Fe1  1  0.83994800  0.16080500  0.37278800  1
  Fe  Fe2  1  0.33651600  0.33294300  0.85844300  1
  Fe  Fe3  1  0.67215400  0.34764400  0.62419900  1
  Fe  Fe4  1  0.33298600  0.66168500  0.37391600  1
  Fe  Fe5  1  0.15916900  0.83722700  0.62602800  1
  Fe  Fe6  1  0.65864500  0.65840900  0.11642600  1
  Fe  Fe7  1  0.84164800  0.83143400  0.86670000  1
  B  B0  1  0.16477000  0.16425300  0.62030200  1
  B  B1  1  0.34175400  0.33325600  0.36872600  1
  B  B2  1  0.83435500  0.16862600  0.87295300  1
  B  B3  1  0.66246300  0.32981000  0.12321900  1
  B  B4  1  0.33292500  0.66630400  0.87541600  1
  B  B5  1  0.66402200  0.67407700  0.61767400  1
  B  B6  1  0.16418100  0.83130500  0.12702900  1
  B  B7  1  0.82408800  0.82634800  0.37225800  1
  O  O0  1  0.30215100  0.03699900  0.60499700  1
  O  O1  1  0.08845800  0.18754100  0.90946500  1
  O  O2  1  0.72631700  0.02962400  0.88115900  1
  O  O3  1  0.21625900  0.20190300  0.33549100  1
  O  O4  1  0.28641400  0.29440400  0.66477000  1
  O  O5  1  0.77424900  0.19467100  0.15369000  1
  O  O6  1  0.90523700  0.16489200  0.58850700  1
  O  O7  1  0.41026700  0.33427300  0.07813200  1
  O  O8  1  0.20696500  0.46481400  0.36042500  1
  O  O9  1  0.59657000  0.33591500  0.40533800  1
  O  O10  1  0.69132600  0.28906700  0.83693700  1
  O  O11  1  0.22498600  0.53033200  0.88919500  1
  O  O12  1  0.80265500  0.45887800  0.14167800  1
  O  O13  1  0.27202700  0.69561500  0.16427600  1
  O  O14  1  0.41535800  0.68488600  0.56546100  1
  O  O15  1  0.79766500  0.55018300  0.61577500  1
  O  O16  1  0.58693900  0.68849700  0.91236800  1
  O  O17  1  0.08539700  0.82250900  0.39847200  1
  O  O18  1  0.19172900  0.78678600  0.83443100  1
  O  O19  1  0.69803400  0.69473900  0.33456000  1
  O  O20  1  0.77333900  0.80956300  0.66744400  1
  O  O21  1  0.30621500  0.95879100  0.14119700  1
  O  O22  1  0.91269700  0.83370600  0.07919100  1
  O  O23  1  0.69354600  0.95497100  0.38574600  1
loop_
_geom_bond_atom_site_label_1
_geom_bond_atom_site_label_2
_geom_bond_distance
_geom_bond_site_symmetry_2
Li0 O5 1.957156 1_555
Li0 O21 1.989727 1_545
Li0 O2 2.065418 1_554
Li0 O22 2.089180 1_545
Li1 O12 1.982608 1_455
Li1 O13 2.020851 1_555
Li1 O7 2.025462 1_555
Li1 O11 2.067961 1_554
Li2 O8 1.958178 1_655
Li2 O9 1.976793 1_555
Li2 O19 2.016428 1_555
Li2 O12 2.118610 1_555
Li3 O23 1.949918 1_555
Li3 O3 1.990037 1_565
Li3 O21 2.106243 1_555
Li3 O17 2.117368 1_555
Li4 O0 1.904785 1_555
Li4 O20 1.968740 1_545
Li4 O6 1.980399 1_555
Li4 O23 2.207782 1_545
Fe0 O21 2.019636 1_545
Fe0 O7 2.087798 1_555
Fe0 O5 2.096828 1_455
Fe0 O1 2.136692 1_554
Fe0 O3 2.243314 1_555
Fe1 O23 2.019793 1_545
Fe1 O3 2.063322 1_655
Fe1 O9 2.078803 1_555
Fe1 O6 2.197279 1_555
Fe1 O5 2.256788 1_555
Fe2 O11 1.912233 1_555
Fe2 O1 1.934439 1_555
Fe2 O10 1.934915 1_555
Fe2 O4 1.993642 1_555
Fe2 O7 2.242989 1_556
Fe3 O15 1.949375 1_555
Fe3 O6 2.104912 1_555
Fe3 O4 2.140038 1_555
Fe3 O10 2.221206 1_555
Fe3 O9 2.237314 1_555
Fe4 O8 1.900158 1_555
Fe4 O14 1.979887 1_555
Fe4 O17 1.983494 1_555
Fe4 O19 1.998846 1_555
Fe4 O13 2.160245 1_555
Fe5 O0 1.971449 1_565
Fe5 O14 2.041262 1_555
Fe5 O20 2.103739 1_455
Fe5 O18 2.163544 1_555
Fe5 O17 2.323440 1_555
Fe6 O12 1.983762 1_555
Fe6 O16 2.107628 1_554
Fe6 O22 2.114094 1_555
Fe6 O13 2.138700 1_555
Fe6 O19 2.228561 1_555
Fe7 O2 1.906316 1_565
Fe7 O16 1.928274 1_555
Fe7 O18 1.930381 1_655
Fe7 O20 2.042398 1_555
Fe7 O22 2.169221 1_556
B0 O0 1.376716 1_555
B0 O6 1.397149 1_455
B0 O4 1.400276 1_555
B1 O9 1.383593 1_555
B1 O3 1.389466 1_555
B1 O8 1.395506 1_555
B2 O10 1.378799 1_555
B2 O2 1.382449 1_555
B2 O1 1.388387 1_655
B3 O12 1.385907 1_555
B3 O7 1.394594 1_555
B3 O5 1.397686 1_555
B4 O11 1.363303 1_555
B4 O18 1.387702 1_555
B4 O16 1.392620 1_555
B5 O15 1.331056 1_555
B5 O14 1.404102 1_555
B5 O20 1.430889 1_555
B6 O21 1.375044 1_555
B6 O22 1.398980 1_455
B6 O13 1.410127 1_555
B7 O23 1.366240 1_555
B7 O17 1.396851 1_655
B7 O19 1.403236 1_555
