# generated using pymatgen
data_V5As3
_symmetry_space_group_name_H-M   'P 1'
_cell_length_a   4.88478829
_cell_length_b   7.10637577
_cell_length_c   7.10637609
_cell_angle_alpha   83.21620217
_cell_angle_beta   69.89813377
_cell_angle_gamma   69.89811644
_symmetry_Int_Tables_number   1
_chemical_formula_structural   V5As3
_chemical_formula_sum   'V10 As6'
_cell_volume   217.54548044
_cell_formula_units_Z   2
loop_
 _symmetry_equiv_pos_site_id
 _symmetry_equiv_pos_as_xyz
  1  'x, y, z'
loop_
 _atom_site_type_symbol
 _atom_site_label
 _atom_site_symmetry_multiplicity
 _atom_site_fract_x
 _atom_site_fract_y
 _atom_site_fract_z
 _atom_site_occupancy
  V  V0  1  0.57896949  0.69329745  0.14876357  1
  V  V1  1  0.42103051  0.30670255  0.85123643  1
  V  V2  1  0.72773306  0.85123643  0.69329745  1
  V  V3  1  0.27226694  0.14876357  0.30670255  1
  V  V4  1  0.92103051  0.85123643  0.30670255  1
  V  V5  1  0.22773306  0.69329745  0.85123643  1
  V  V6  1  0.25000000  0.50000000  0.50000000  1
  V  V7  1  0.75000000  0.50000000  0.50000000  1
  V  V8  1  0.07896949  0.14876357  0.69329745  1
  V  V9  1  0.77226694  0.30670255  0.14876357  1
  As  As0  1  0.83638080  0.50000000  0.82723940  1
  As  As1  1  0.66361920  0.17276060  0.50000000  1
  As  As2  1  0.33638080  0.82723940  0.50000000  1
  As  As3  1  0.16361920  0.50000000  0.17276060  1
  As  As4  1  0.75000000  -0.00000000  -0.00000000  1
  As  As5  1  0.25000000  -0.00000000  -0.00000000  1
loop_
_geom_bond_atom_site_label_1
_geom_bond_atom_site_label_2
_geom_bond_distance
_geom_bond_site_symmetry_2
As0 V6 2.502081 1_655
As0 V7 2.502083 1_555
As0 V9 2.503592 1_556
As0 V0 2.503592 1_556
As0 V2 2.508619 1_555
As0 V8 2.508619 1_655
As0 V1 2.766755 1_655
As0 V5 2.766755 1_655
As0 V5 2.766760 1_555
As0 V1 2.766760 1_555
As1 V6 2.502080 1_555
As1 V7 2.502083 1_555
As1 V2 2.503592 1_545
As1 V4 2.503592 1_545
As1 V9 2.508619 1_555
As1 V1 2.508619 1_555
As1 V3 2.766755 1_555
As1 V8 2.766756 1_555
As1 V8 2.766759 1_655
As1 V3 2.766760 1_655
As2 V7 2.502080 1_555
As2 V6 2.502083 1_555
As2 V3 2.503592 1_565
As2 V8 2.503592 1_565
As2 V5 2.508619 1_555
As2 V0 2.508619 1_555
As2 V2 2.766755 1_555
As2 V4 2.766756 1_555
As2 V4 2.766759 1_455
As2 V2 2.766760 1_455
As3 V7 2.502081 1_455
As3 V6 2.502083 1_555
As3 V5 2.503592 1_554
As3 V1 2.503592 1_554
As3 V3 2.508619 1_555
As3 V4 2.508619 1_455
As3 V0 2.766755 1_455
As3 V9 2.766755 1_455
As3 V9 2.766760 1_555
As3 V0 2.766760 1_555
As4 As5 2.442394 1_655
As4 As5 2.442394 1_555
As4 V1 2.581897 1_554
As4 V4 2.581897 1_545
As4 V9 2.581897 1_555
As4 V2 2.581897 1_544
As4 V0 2.581897 1_545
As4 V5 2.581897 1_644
As4 V8 2.581897 1_654
As4 V3 2.581897 1_555
As5 V0 2.581897 1_545
As5 V8 2.581897 1_554
As5 V5 2.581897 1_544
As5 V3 2.581897 1_555
As5 V1 2.581897 1_554
As5 V9 2.581897 1_455
As5 V4 2.581897 1_445
As5 V2 2.581897 1_544
