# generated using pymatgen
data_Fe4OF7
_symmetry_space_group_name_H-M   'P 1'
_cell_length_a   10.32496409
_cell_length_b   10.32496409
_cell_length_c   4.92304983
_cell_angle_alpha   88.02903658
_cell_angle_beta   88.02903658
_cell_angle_gamma   34.86578409
_symmetry_Int_Tables_number   1
_chemical_formula_structural   Fe4OF7
_chemical_formula_sum   'Fe8 O2 F14'
_cell_volume   299.82215579
_cell_formula_units_Z   2
loop_
 _symmetry_equiv_pos_site_id
 _symmetry_equiv_pos_as_xyz
  1  'x, y, z'
loop_
 _atom_site_type_symbol
 _atom_site_label
 _atom_site_symmetry_multiplicity
 _atom_site_fract_x
 _atom_site_fract_y
 _atom_site_fract_z
 _atom_site_occupancy
  Fe  Fe0  1  0.87876800  0.87876800  0.48923800  1
  Fe  Fe1  1  0.62229300  0.62229300  0.50981200  1
  Fe  Fe2  1  0.13011800  0.13011800  0.47516200  1
  Fe  Fe3  1  0.37519700  0.37519700  0.49230100  1
  Fe  Fe4  1  0.48427700  0.00957400  0.00974600  1
  Fe  Fe5  1  0.22210500  0.77129900  0.01149700  1
  Fe  Fe6  1  0.00957400  0.48427700  0.00974600  1
  Fe  Fe7  1  0.77129900  0.22210500  0.01149700  1
  O  O0  1  0.94856900  0.94856900  0.21220000  1
  O  O1  1  0.19976600  0.19976600  0.20517600  1
  F  F0  1  0.44804700  0.44804700  0.19885400  1
  F  F1  1  0.69771800  0.69771800  0.20718100  1
  F  F2  1  0.57991700  0.06634000  0.30161400  1
  F  F3  1  0.81865600  0.32821800  0.29996100  1
  F  F4  1  0.06634000  0.57991700  0.30161400  1
  F  F5  1  0.32821800  0.81865600  0.29996100  1
  F  F6  1  0.91913400  0.42697700  0.71085100  1
  F  F7  1  0.42697700  0.91913400  0.71085100  1
  F  F8  1  0.18040900  0.66588400  0.70879700  1
  F  F9  1  0.66588400  0.18040900  0.70879700  1
  F  F10  1  0.54598600  0.54598600  0.81299700  1
  F  F11  1  0.30178600  0.30178600  0.78675000  1
  F  F12  1  0.05390700  0.05390700  0.77431600  1
  F  F13  1  0.79671200  0.79671200  0.80985000  1
loop_
_geom_bond_atom_site_label_1
_geom_bond_atom_site_label_2
_geom_bond_distance
_geom_bond_site_symmetry_2
Fe0 O0 1.901590 1_555
Fe2 O1 1.875633 1_555
Fe4 O1 1.969916 1_555
Fe5 O0 1.937132 1_455
Fe6 O1 1.969916 1_555
Fe7 O0 1.937132 1_545
F0 Fe3 1.999370 1_555
F0 Fe5 2.142841 1_555
F0 Fe7 2.142841 1_555
F1 Fe1 2.065969 1_555
F1 Fe6 2.111129 1_655
F1 Fe4 2.111129 1_565
F2 Fe0 2.095636 1_545
F2 Fe4 2.118618 1_555
F2 Fe3 2.127610 1_555
F3 Fe1 2.089712 1_555
F3 Fe7 2.118981 1_555
F3 Fe2 2.131854 1_655
F4 Fe0 2.095636 1_455
F4 Fe6 2.118618 1_555
F4 Fe3 2.127610 1_555
F5 Fe1 2.089712 1_555
F5 Fe5 2.118981 1_555
F5 Fe2 2.131854 1_565
F6 Fe1 2.090141 1_555
F6 Fe6 2.109070 1_656
F6 Fe2 2.144842 1_655
F7 Fe1 2.090141 1_555
F7 Fe4 2.109070 1_566
F7 Fe2 2.144842 1_565
F8 Fe3 2.087116 1_555
F8 Fe5 2.124923 1_556
F8 Fe0 2.129307 1_455
F9 Fe3 2.087116 1_555
F9 Fe7 2.124923 1_556
F9 Fe0 2.129307 1_545
F10 Fe1 2.079939 1_555
F10 Fe7 2.171456 1_556
F10 Fe5 2.171456 1_556
F11 Fe3 2.010457 1_555
F11 Fe6 2.108073 1_556
F11 Fe4 2.108073 1_556
F12 Fe2 2.064938 1_555
F12 Fe7 2.117359 1_456
F12 Fe5 2.117359 1_546
F13 Fe6 2.121593 1_656
F13 Fe4 2.121593 1_566
F13 Fe0 2.218290 1_555
