# generated using pymatgen
data_Rb3LuO3
_symmetry_space_group_name_H-M   'P 1'
_cell_length_a   7.14217626
_cell_length_b   7.14217626
_cell_length_c   7.11319529
_cell_angle_alpha   84.73786824
_cell_angle_beta   84.73786824
_cell_angle_gamma   115.62216469
_symmetry_Int_Tables_number   1
_chemical_formula_structural   Rb3LuO3
_chemical_formula_sum   'Rb6 Lu2 O6'
_cell_volume   322.28328050
_cell_formula_units_Z   2
loop_
 _symmetry_equiv_pos_site_id
 _symmetry_equiv_pos_as_xyz
  1  'x, y, z'
loop_
 _atom_site_type_symbol
 _atom_site_label
 _atom_site_symmetry_multiplicity
 _atom_site_fract_x
 _atom_site_fract_y
 _atom_site_fract_z
 _atom_site_occupancy
  Rb  Rb0  1  0.79747288  0.20252712  0.50000000  1
  Rb  Rb1  1  0.73905468  0.26094532  -0.00000000  1
  Rb  Rb2  1  0.63620208  0.63620208  0.64280608  1
  Rb  Rb3  1  0.36379792  0.36379792  0.35719392  1
  Rb  Rb4  1  0.26094532  0.73905468  -0.00000000  1
  Rb  Rb5  1  0.20252712  0.79747288  0.50000000  1
  Lu  Lu0  1  0.82547024  0.82547024  0.14827631  1
  Lu  Lu1  1  0.17452976  0.17452976  0.85172369  1
  O  O0  1  0.83584521  0.55938833  0.26781853  1
  O  O1  1  0.89895727  0.89895727  0.84616584  1
  O  O2  1  0.44061167  0.16415479  0.73218147  1
  O  O3  1  0.55938833  0.83584521  0.26781853  1
  O  O4  1  0.10104273  0.10104273  0.15383416  1
  O  O5  1  0.16415479  0.44061167  0.73218147  1
loop_
_geom_bond_atom_site_label_1
_geom_bond_atom_site_label_2
_geom_bond_distance
_geom_bond_site_symmetry_2
Lu0 O0 2.043776 1_555
Lu0 O3 2.043776 1_555
Lu0 O4 2.104123 1_665
Lu0 O1 2.125325 1_554
Lu1 O2 2.043776 1_555
Lu1 O5 2.043776 1_555
Lu1 O1 2.104123 1_445
Lu1 O4 2.125325 1_556
O0 Rb0 2.799942 1_555
O0 Rb1 2.891800 1_555
O0 Rb3 3.015448 1_555
O0 Rb4 3.100825 1_655
O0 Rb2 3.113886 1_555
O0 Rb5 3.151946 1_655
O1 Rb2 2.661960 1_555
O1 Rb0 3.463618 1_565
O1 Rb5 3.463618 1_655
O2 Rb0 2.799942 1_555
O2 Rb1 2.891800 1_556
O2 Rb2 3.015448 1_555
O2 Rb4 3.100825 1_546
O2 Rb3 3.113886 1_555
O2 Rb5 3.151946 1_545
O3 Rb5 2.799942 1_555
O3 Rb4 2.891800 1_555
O3 Rb3 3.015448 1_555
O3 Rb1 3.100825 1_565
O3 Rb2 3.113886 1_555
O3 Rb0 3.151946 1_565
O4 Rb3 2.661960 1_555
O4 Rb5 3.463618 1_545
O4 Rb0 3.463618 1_455
O5 Rb5 2.799942 1_555
O5 Rb4 2.891800 1_556
O5 Rb2 3.015448 1_555
O5 Rb1 3.100825 1_456
O5 Rb3 3.113886 1_555
O5 Rb0 3.151946 1_455
