# generated using pymatgen
data_Li2MnVP2(HO5)2
_symmetry_space_group_name_H-M   'P 1'
_cell_length_a   6.92962400
_cell_length_b   7.30657529
_cell_length_c   8.09122964
_cell_angle_alpha   90.92358479
_cell_angle_beta   93.39834371
_cell_angle_gamma   116.79277253
_symmetry_Int_Tables_number   1
_chemical_formula_structural   Li2MnVP2(HO5)2
_chemical_formula_sum   'Li4 Mn2 V2 P4 H4 O20'
_cell_volume   364.62704728
_cell_formula_units_Z   2
loop_
 _symmetry_equiv_pos_site_id
 _symmetry_equiv_pos_as_xyz
  1  'x, y, z'
loop_
 _atom_site_type_symbol
 _atom_site_label
 _atom_site_symmetry_multiplicity
 _atom_site_fract_x
 _atom_site_fract_y
 _atom_site_fract_z
 _atom_site_occupancy
  Li  Li0  1  0.07449700  0.82285700  0.67688400  1
  Li  Li1  1  0.42881700  0.17353600  0.82527100  1
  Li  Li2  1  0.57118300  0.82646400  0.17472900  1
  Li  Li3  1  0.92550300  0.17714300  0.32311600  1
  Mn  Mn0  1  0.00000000  0.50000000  0.00000000  1
  Mn  Mn1  1  0.50000000  0.00000000  0.50000000  1
  V  V0  1  0.00000000  0.00000000  0.00000000  1
  V  V1  1  0.50000000  0.50000000  0.50000000  1
  P  P0  1  0.48292500  0.76660900  0.84393800  1
  P  P1  1  0.01858800  0.23117300  0.65528200  1
  P  P2  1  0.98141200  0.76882700  0.34471800  1
  P  P3  1  0.51707500  0.23339100  0.15606200  1
  H  H0  1  0.79013400  0.65491600  0.85350000  1
  H  H1  1  0.28785100  0.66741000  0.35140700  1
  H  H2  1  0.71214900  0.33259000  0.64859300  1
  H  H3  1  0.20986600  0.34508400  0.14650000  1
  O  O0  1  0.33729600  0.65551600  0.98432900  1
  O  O1  1  0.11127800  0.11818400  0.77440800  1
  O  O2  1  0.38339600  0.87969700  0.73609100  1
  O  O3  1  0.69586900  0.93003200  0.93801400  1
  O  O4  1  0.18495500  0.93100400  0.44798100  1
  O  O5  1  0.53928300  0.62054200  0.73784300  1
  O  O6  1  0.18064300  0.34188300  0.52242500  1
  O  O7  1  0.03843000  0.61907400  0.24828300  1
  O  O8  1  0.94502300  0.71994200  0.89679900  1
  O  O9  1  0.44305900  0.73150900  0.39591900  1
  O  O10  1  0.55694100  0.26849100  0.60408100  1
  O  O11  1  0.05497700  0.28005800  0.10320100  1
  O  O12  1  0.96157000  0.38092600  0.75171700  1
  O  O13  1  0.81935700  0.65811700  0.47757500  1
  O  O14  1  0.46071700  0.37945800  0.26215700  1
  O  O15  1  0.81504500  0.06899600  0.55201900  1
  O  O16  1  0.30413100  0.06996800  0.06198600  1
  O  O17  1  0.61660400  0.12030300  0.26390900  1
  O  O18  1  0.88872200  0.88181600  0.22559200  1
  O  O19  1  0.66270400  0.34448400  0.01567100  1
loop_
_geom_bond_atom_site_label_1
_geom_bond_atom_site_label_2
_geom_bond_distance
_geom_bond_site_symmetry_2
Li0 O2 2.013582 1_555
Li0 O8 2.039804 1_455
Li0 O4 2.076187 1_555
Li0 O1 2.183870 1_565
Li0 O13 2.203687 1_455
Li1 O10 2.036108 1_555
Li1 O1 2.063925 1_555
Li1 O19 2.092176 1_556
Li1 O2 2.131450 1_545
Li1 O16 2.154317 1_556
Li2 O9 2.036108 1_555
Li2 O18 2.063925 1_555
Li2 O0 2.092176 1_554
Li2 O17 2.131450 1_565
Li2 O3 2.154317 1_554
Li3 O17 2.013582 1_555
Li3 O11 2.039804 1_655
Li3 O15 2.076187 1_555
Li3 O18 2.183870 1_545
Li3 O6 2.203687 1_655
Mn0 O8 1.995598 1_454
Mn0 O11 1.995598 1_555
Mn0 O0 2.101376 1_554
Mn0 O19 2.101376 1_455
Mn0 O7 2.129542 1_555
Mn0 O12 2.129542 1_454
Mn1 O10 1.980622 1_555
Mn1 O9 1.980622 1_545
Mn1 O15 2.022234 1_555
Mn1 O4 2.022234 1_545
Mn1 O17 2.161359 1_555
Mn1 O2 2.161359 1_545
H0 O8 0.995395 1_555
H1 O9 1.000175 1_555
H1 O7 1.754284 1_555
H2 O10 1.000175 1_555
H2 O12 1.754284 1_555
H3 O11 0.995395 1_555
O0 P0 1.547502 1_555
O1 P1 1.566356 1_555
O1 V0 2.071097 1_556
O2 P0 1.544524 1_555
O3 P0 1.559394 1_555
O3 V0 1.962042 1_666
O4 P2 1.553468 1_455
O5 P0 1.553844 1_555
O5 V1 2.054362 1_555
O6 P1 1.556664 1_555
O6 V1 2.003629 1_555
O7 P2 1.536542 1_455
O8 V0 2.057669 1_666
O9 V1 2.081934 1_555
O10 V1 2.081934 1_555
O11 V0 2.057669 1_555
O12 P1 1.536542 1_655
O13 P2 1.556664 1_555
O13 V1 2.003629 1_555
O14 P3 1.553844 1_555
O14 V1 2.054362 1_555
O15 P1 1.553468 1_655
O16 P3 1.559394 1_555
O16 V0 1.962042 1_555
O17 P3 1.544524 1_555
O18 P2 1.566356 1_555
O18 V0 2.071097 1_665
O19 P3 1.547502 1_555
