# generated using pymatgen
data_Na5V4(PO4)6
_symmetry_space_group_name_H-M   'P 1'
_cell_length_a   8.98379200
_cell_length_b   8.76223800
_cell_length_c   15.23415696
_cell_angle_alpha   55.75427057
_cell_angle_beta   90.00000000
_cell_angle_gamma   90.00000000
_symmetry_Int_Tables_number   1
_chemical_formula_structural   Na5V4(PO4)6
_chemical_formula_sum   'Na10 V8 P12 O48'
_cell_volume   991.30024365
_cell_formula_units_Z   2
loop_
 _symmetry_equiv_pos_site_id
 _symmetry_equiv_pos_as_xyz
  1  'x, y, z'
loop_
 _atom_site_type_symbol
 _atom_site_label
 _atom_site_symmetry_multiplicity
 _atom_site_fract_x
 _atom_site_fract_y
 _atom_site_fract_z
 _atom_site_occupancy
  Na  Na0  1  0.97173700  0.64791600  0.23673000  1
  Na  Na1  1  0.03934000  0.94759000  0.83270500  1
  Na  Na2  1  0.54837400  0.03802300  0.66810100  1
  Na  Na3  1  0.46642900  0.36479200  0.28768300  1
  Na  Na4  1  0.80690800  0.38532500  0.18983000  1
  Na  Na5  1  0.02826300  0.64791600  0.73673000  1
  Na  Na6  1  0.96066000  0.94759000  0.33270500  1
  Na  Na7  1  0.45162600  0.03802300  0.16810100  1
  Na  Na8  1  0.53357100  0.36479200  0.78768300  1
  Na  Na9  1  0.19309200  0.38532500  0.68983000  1
  V  V0  1  0.27691900  0.64304000  0.10403100  1
  V  V1  1  0.21365200  0.13997000  0.60108600  1
  V  V2  1  0.71268500  0.85768900  0.89151500  1
  V  V3  1  0.77530200  0.35400400  0.39995200  1
  V  V4  1  0.72308100  0.64304000  0.60403100  1
  V  V5  1  0.78634800  0.13997000  0.10108600  1
  V  V6  1  0.28731500  0.85768900  0.39151500  1
  V  V7  1  0.22469800  0.35400400  0.89995200  1
  P  P0  1  0.49493900  0.46713200  0.50287900  1
  P  P1  1  0.63431700  0.74932200  0.14297700  1
  P  P2  1  0.35256200  0.02687700  0.85157800  1
  P  P3  1  0.85804000  0.96924000  0.64430700  1
  P  P4  1  0.13604500  0.25987900  0.35063300  1
  P  P5  1  0.00198600  0.52847700  0.99910600  1
  P  P6  1  0.50506100  0.46713200  0.00287900  1
  P  P7  1  0.36568300  0.74932200  0.64297700  1
  P  P8  1  0.64743800  0.02687700  0.35157800  1
  P  P9  1  0.14196000  0.96924000  0.14430700  1
  P  P10  1  0.86395500  0.25987900  0.85063300  1
  P  P11  1  0.99801400  0.52847700  0.49910600  1
  O  O0  1  0.09346100  0.34950700  0.56870400  1
  O  O1  1  0.90786400  0.52435200  0.41374300  1
  O  O2  1  0.15468100  0.81514800  0.12464700  1
  O  O3  1  0.84105400  0.09070300  0.84594000  1
  O  O4  1  0.59208600  0.43051300  0.43246100  1
  O  O5  1  0.68882500  0.80100000  0.03465200  1
  O  O6  1  0.46631500  0.70664500  0.16115600  1
  O  O7  1  0.25353300  0.08017500  0.75301400  1
  O  O8  1  0.39243900  0.29191400  0.56866000  1
  O  O9  1  0.51973500  0.02335500  0.82681100  1
  O  O10  1  0.29094300  0.84737600  0.94637300  1
  O  O11  1  0.72649200  0.58003800  0.23098500  1
  O  O12  1  0.22675400  0.42983400  0.26742900  1
  O  O13  1  0.79420300  0.15204700  0.55288900  1
  O  O14  1  0.02910000  0.98070500  0.66434800  1
  O  O15  1  0.90045400  0.69773900  0.94140600  1
  O  O16  1  0.77096200  0.91568600  0.74516000  1
  O  O17  1  0.96667200  0.31070600  0.33635100  1
  O  O18  1  0.19421700  0.20296000  0.46198900  1
  O  O19  1  0.09797300  0.53869800  0.07904200  1
  O  O20  1  0.33256500  0.91933000  0.64929200  1
  O  O21  1  0.66768100  0.19170400  0.36341700  1
  O  O22  1  0.41689700  0.47589000  0.08757400  1
  O  O23  1  0.59636700  0.63919900  0.92844600  1
  O  O24  1  0.90653900  0.34950700  0.06870400  1
  O  O25  1  0.09213600  0.52435200  0.91374300  1
  O  O26  1  0.84531900  0.81514800  0.62464700  1
  O  O27  1  0.15894600  0.09070300  0.34594000  1
  O  O28  1  0.40791400  0.43051300  0.93246100  1
  O  O29  1  0.31117500  0.80100000  0.53465200  1
  O  O30  1  0.53368500  0.70664500  0.66115600  1
  O  O31  1  0.74646700  0.08017500  0.25301400  1
  O  O32  1  0.60756100  0.29191400  0.06866000  1
  O  O33  1  0.48026500  0.02335500  0.32681100  1
  O  O34  1  0.70905700  0.84737600  0.44637300  1
  O  O35  1  0.27350800  0.58003800  0.73098500  1
  O  O36  1  0.77324600  0.42983400  0.76742900  1
  O  O37  1  0.20579700  0.15204700  0.05288900  1
  O  O38  1  0.97090000  0.98070500  0.16434800  1
  O  O39  1  0.09954600  0.69773900  0.44140600  1
  O  O40  1  0.22903800  0.91568600  0.24516000  1
  O  O41  1  0.03332800  0.31070600  0.83635100  1
  O  O42  1  0.80578300  0.20296000  0.96198900  1
  O  O43  1  0.90202700  0.53869800  0.57904200  1
  O  O44  1  0.66743500  0.91933000  0.14929200  1
  O  O45  1  0.33231900  0.19170400  0.86341700  1
  O  O46  1  0.58310300  0.47589000  0.58757400  1
  O  O47  1  0.40363300  0.63919900  0.42844600  1
loop_
_geom_bond_atom_site_label_1
_geom_bond_atom_site_label_2
_geom_bond_distance
_geom_bond_site_symmetry_2
Na0 O2 2.224387 1_655
Na0 O11 2.296565 1_555
Na0 O1 2.342513 1_555
Na0 O17 2.447190 1_555
Na0 O38 2.469818 1_555
Na0 O12 2.848361 1_655
Na1 O7 2.222370 1_565
Na1 O15 2.238663 1_455
Na1 O3 2.251877 1_465
Na1 O14 2.415192 1_555
Na1 O10 2.677208 1_555
Na1 O16 2.844226 1_455
Na2 O16 2.260446 1_545
Na2 O20 2.293037 1_545
Na2 O8 2.326684 1_555
Na2 O9 2.361947 1_555
Na2 O13 2.642446 1_555
Na3 O12 2.204160 1_555
Na3 O21 2.220543 1_555
Na3 O6 2.487878 1_555
Na3 O22 2.664386 1_555
Na3 O33 2.704484 1_555
Na3 O4 2.810696 1_555
Na3 O11 2.815715 1_555
Na4 O24 2.226296 1_555
Na4 O11 2.242712 1_555
Na4 O31 2.339637 1_555
Na4 O17 2.413991 1_555
Na4 O21 2.527141 1_555
Na5 O26 2.224387 1_455
Na5 O35 2.296565 1_555
Na5 O25 2.342513 1_555
Na5 O41 2.447190 1_555
Na5 O14 2.469818 1_555
Na5 O36 2.848361 1_455
Na6 O31 2.222370 1_565
Na6 O39 2.238663 1_655
Na6 O27 2.251877 1_665
Na6 O38 2.415192 1_555
Na6 O34 2.677208 1_555
Na6 O40 2.844226 1_655
Na7 O40 2.260446 1_545
Na7 O44 2.293037 1_545
Na7 O32 2.326684 1_555
Na7 O33 2.361947 1_555
Na7 O37 2.642446 1_555
Na8 O36 2.204160 1_555
Na8 O45 2.220543 1_555
Na8 O30 2.487878 1_555
Na8 O46 2.664386 1_555
Na8 O9 2.704484 1_555
Na8 O28 2.810696 1_555
Na8 O35 2.815715 1_555
Na9 O0 2.226296 1_555
Na9 O35 2.242712 1_555
Na9 O7 2.339637 1_555
Na9 O41 2.413991 1_555
Na9 O45 2.527141 1_555
O0 P11 1.564379 1_455
O0 V1 1.939284 1_555
O1 P11 1.549598 1_555
O1 V3 2.010794 1_555
O2 P9 1.543020 1_555
O2 V0 2.027777 1_555
O3 P10 1.537566 1_555
O3 V2 2.094087 1_545
O4 P0 1.550116 1_555
O4 V3 1.943604 1_555
O5 P1 1.525485 1_555
O5 V2 1.956659 1_554
O6 P1 1.542059 1_555
O6 V0 2.123417 1_555
O7 P2 1.573206 1_555
O7 V1 2.096411 1_555
O8 P0 1.574076 1_555
O8 V1 1.963719 1_555
O9 P2 1.553049 1_555
O9 V2 2.114975 1_545
O10 P2 1.519652 1_565
O10 V0 2.037216 1_556
O11 P1 1.563714 1_555
O11 V3 2.236715 1_555
O12 P4 1.537512 1_555
O12 V0 2.157677 1_555
O13 P3 1.524298 1_545
O13 V3 1.987029 1_555
O14 P3 1.580974 1_455
O14 V1 2.027675 1_565
O15 P5 1.528733 1_655
O15 V2 2.046605 1_555
O16 P3 1.543145 1_555
O16 V2 2.056264 1_555
O17 P4 1.565863 1_655
O17 V3 2.110019 1_555
O18 P4 1.564430 1_555
O18 V1 1.873248 1_555
O19 P5 1.535353 1_554
O19 V0 1.989210 1_555
O20 P7 1.574207 1_555
O20 V1 1.954551 1_565
O21 P8 1.563534 1_555
O21 V3 2.039072 1_555
O22 P6 1.552234 1_555
O22 V0 2.050022 1_555
O23 P6 1.519088 1_556
O23 V2 1.965047 1_555
O24 P5 1.564379 1_654
O24 V5 1.939284 1_555
O25 P5 1.549598 1_555
O25 V7 2.010794 1_555
O26 P3 1.543020 1_555
O26 V4 2.027777 1_555
O27 P4 1.537566 1_555
O27 V6 2.094087 1_545
O28 P6 1.550116 1_556
O28 V7 1.943604 1_555
O29 P7 1.525485 1_555
O29 V6 1.956659 1_555
O30 P7 1.542059 1_555
O30 V4 2.123417 1_555
O31 P8 1.573206 1_555
O31 V5 2.096411 1_555
O32 P6 1.574076 1_555
O32 V5 1.963719 1_555
O33 P8 1.553049 1_555
O33 V6 2.114975 1_545
O34 P8 1.519652 1_565
O34 V4 2.037216 1_555
O35 P7 1.563714 1_555
O35 V7 2.236715 1_555
O36 P10 1.537512 1_555
O36 V4 2.157677 1_555
O37 P9 1.524298 1_545
O37 V7 1.987029 1_554
O38 P9 1.580974 1_655
O38 V5 2.027675 1_565
O39 P11 1.528733 1_455
O39 V6 2.046605 1_555
O40 P9 1.543145 1_555
O40 V6 2.056264 1_555
O41 P10 1.565863 1_455
O41 V7 2.110019 1_555
O42 P10 1.564430 1_555
O42 V5 1.873248 1_556
O43 P11 1.535353 1_555
O43 V4 1.989210 1_555
O44 P1 1.574207 1_555
O44 V5 1.954551 1_565
O45 P2 1.563534 1_555
O45 V7 2.039072 1_555
O46 P0 1.552234 1_555
O46 V4 2.050022 1_555
O47 P0 1.519088 1_555
O47 V6 1.965047 1_555
