# generated using pymatgen
data_Li6Mn11(OF12)2
_symmetry_space_group_name_H-M   'P 1'
_cell_length_a   8.38560300
_cell_length_b   8.54034249
_cell_length_c   9.02314298
_cell_angle_alpha   109.21672315
_cell_angle_beta   107.09843281
_cell_angle_gamma   90.18284300
_symmetry_Int_Tables_number   1
_chemical_formula_structural   Li6Mn11(OF12)2
_chemical_formula_sum   'Li6 Mn11 O2 F24'
_cell_volume   579.63633693
_cell_formula_units_Z   1
loop_
 _symmetry_equiv_pos_site_id
 _symmetry_equiv_pos_as_xyz
  1  'x, y, z'
loop_
 _atom_site_type_symbol
 _atom_site_label
 _atom_site_symmetry_multiplicity
 _atom_site_fract_x
 _atom_site_fract_y
 _atom_site_fract_z
 _atom_site_occupancy
  Li  Li0  1  0.41180200  0.09427400  0.23748000  1
  Li  Li1  1  0.08579700  0.21067000  0.45180200  1
  Li  Li2  1  0.29385500  0.57342800  0.93639000  1
  Li  Li3  1  0.70403600  0.38349600  0.08479400  1
  Li  Li4  1  0.92594100  0.80253900  0.55107300  1
  Li  Li5  1  0.58107500  0.89745800  0.74180800  1
  Mn  Mn0  1  0.28538100  0.11244700  0.85157400  1
  Mn  Mn1  1  0.86999600  0.21716200  0.74039300  1
  Mn  Mn2  1  0.00832700  0.00050000  0.99219700  1
  Mn  Mn3  1  0.48427100  0.28412300  0.67289700  1
  Mn  Mn4  1  0.70760800  0.39140200  0.47424300  1
  Mn  Mn5  1  0.15192400  0.35577400  0.15383000  1
  Mn  Mn6  1  0.86861000  0.61277800  0.85165500  1
  Mn  Mn7  1  0.28197500  0.63016700  0.57337500  1
  Mn  Mn8  1  0.53007100  0.72071100  0.33360800  1
  Mn  Mn9  1  0.12613800  0.79776700  0.25328200  1
  Mn  Mn10  1  0.72220400  0.88233800  0.15686500  1
  O  O0  1  0.23318100  0.13360200  0.06496200  1
  O  O1  1  0.71853100  0.40404700  0.72081000  1
  F  F0  1  0.99645200  0.00162900  0.74544300  1
  F  F1  1  0.63559600  0.06913500  0.67692500  1
  F  F2  1  0.62109500  0.10063500  0.19904900  1
  F  F3  1  0.24828000  0.14764000  0.61890100  1
  F  F4  1  0.89616800  0.23434700  0.51689200  1
  F  F5  1  0.49685000  0.28840800  0.92059400  1
  F  F6  1  0.11078500  0.39280400  0.90753300  1
  F  F7  1  0.45465300  0.29354200  0.42734800  1
  F  F8  1  0.89011000  0.24939300  0.02352000  1
  F  F9  1  0.12861200  0.40423000  0.39176300  1
  F  F10  1  0.65457900  0.49202000  0.28579500  1
  F  F11  1  0.34290500  0.50460500  0.73458600  1
  F  F12  1  0.88835100  0.62700300  0.62512200  1
  F  F13  1  0.10712000  0.75501700  0.98641600  1
  F  F14  1  0.27732900  0.59229200  0.24244700  1
  F  F15  1  0.51980900  0.69122100  0.55501100  1
  F  F16  1  0.87274700  0.66028500  0.10819400  1
  F  F17  1  0.76590000  0.86051400  0.91388700  1
  F  F18  1  0.50693900  0.70590800  0.08617200  1
  F  F19  1  0.10561600  0.76202000  0.46421300  1
  F  F20  1  0.75927000  0.85862200  0.39191400  1
  F  F21  1  0.36917000  0.87573300  0.77407900  1
  F  F22  1  0.36681600  0.92000700  0.32250300  1
  F  F23  1  0.99412700  0.00830700  0.23865900  1
loop_
_geom_bond_atom_site_label_1
_geom_bond_atom_site_label_2
_geom_bond_distance
_geom_bond_site_symmetry_2
Li0 O0 1.938002 1_555
Mn0 O0 2.049058 1_556
Mn1 O1 2.063607 1_555
Mn2 O0 2.011353 1_556
Mn3 O1 2.071491 1_555
Mn4 O1 2.166050 1_555
Mn5 O0 2.008850 1_555
Mn6 O1 1.970287 1_555
F0 Li4 1.933212 1_545
F0 Mn1 2.134028 1_555
F0 Mn2 2.202512 1_655
F0 Mn0 2.389007 1_655
F1 Li5 1.849223 1_545
F1 Mn1 2.152982 1_555
F1 Mn3 2.239284 1_555
F2 Li0 1.890253 1_555
F2 Mn10 2.017970 1_545
F3 Li1 1.936621 1_555
F3 Mn3 2.134634 1_555
F3 Mn0 2.150973 1_555
F4 Li1 1.840507 1_655
F4 Mn4 2.107810 1_555
F4 Mn1 2.142803 1_555
F5 Li3 1.886377 1_556
F5 Mn0 2.123263 1_555
F5 Mn3 2.194361 1_555
F6 Li2 2.071112 1_555
F6 Mn5 2.273873 1_556
F6 Mn1 2.302697 1_455
F7 Li0 1.917083 1_555
F7 Mn4 2.145936 1_555
F7 Mn3 2.184265 1_555
F8 Li3 2.038109 1_555
F8 Mn5 2.189548 1_655
F8 Mn2 2.315951 1_654
F8 Mn1 2.431892 1_554
F9 Li1 1.963446 1_555
F9 Mn5 2.116864 1_555
F9 Mn7 2.173928 1_555
F10 Li3 1.912743 1_555
F10 Mn4 2.084987 1_555
F10 Mn8 2.194088 1_555
F11 Li2 1.888852 1_555
F11 Mn7 2.029831 1_555
F11 Mn3 2.230034 1_555
F12 Li4 1.890346 1_555
F12 Mn6 2.140694 1_555
F12 Mn4 2.272255 1_555
F13 Mn6 2.129903 1_455
F13 Li2 2.243022 1_555
F13 Mn2 2.246973 1_565
F13 Mn9 2.269832 1_556
F14 Mn5 2.062561 1_555
F14 Mn9 2.161137 1_555
F14 Mn8 2.176570 1_555
F15 Li5 1.933367 1_555
F15 Mn8 2.119907 1_555
F15 Mn7 2.126373 1_555
F16 Mn6 2.204203 1_554
F16 Mn9 2.223486 1_655
F16 Mn10 2.275062 1_555
F17 Li5 1.955259 1_555
F17 Mn2 2.155218 1_665
F17 Mn6 2.246658 1_555
F17 Mn10 2.275864 1_556
F18 Li2 1.964671 1_554
F18 Mn8 2.144227 1_555
F18 Mn10 2.146763 1_555
F19 Li4 1.877040 1_455
F19 Mn7 2.075936 1_555
F19 Mn9 2.078455 1_555
F20 Li4 1.876707 1_555
F20 Mn8 2.083518 1_555
F20 Mn10 2.128688 1_555
F21 Li5 1.901181 1_555
F21 Mn0 2.106413 1_565
F21 Mn7 2.219007 1_555
F22 Li0 1.965735 1_565
F22 Mn9 2.090289 1_555
F22 Mn8 2.197192 1_555
F23 Li1 2.052001 1_655
F23 Mn9 2.135167 1_645
F23 Mn2 2.241059 1_654
F23 Mn10 2.318113 1_545
