# generated using pymatgen
data_Cr(CoO3)2
_symmetry_space_group_name_H-M   'P 1'
_cell_length_a   6.46675623
_cell_length_b   6.46675623
_cell_length_c   5.79993458
_cell_angle_alpha   76.61942512
_cell_angle_beta   76.61942512
_cell_angle_gamma   25.43689686
_symmetry_Int_Tables_number   1
_chemical_formula_structural   Cr(CoO3)2
_chemical_formula_sum   'Cr1 Co2 O6'
_cell_volume   101.20389608
_cell_formula_units_Z   1
loop_
 _symmetry_equiv_pos_site_id
 _symmetry_equiv_pos_as_xyz
  1  'x, y, z'
loop_
 _atom_site_type_symbol
 _atom_site_label
 _atom_site_symmetry_multiplicity
 _atom_site_fract_x
 _atom_site_fract_y
 _atom_site_fract_z
 _atom_site_occupancy
  Cr  Cr0  1  0.00000000  0.00000000  0.50000000  1
  Co  Co0  1  0.66771000  0.66771000  0.16166800  1
  Co  Co1  1  0.33229000  0.33229000  0.83833200  1
  O  O0  1  0.15949600  0.15949600  0.37873500  1
  O  O1  1  0.48608800  0.48608800  0.72781800  1
  O  O2  1  0.81991200  0.81991200  0.05244500  1
  O  O3  1  0.51391200  0.51391200  0.27218200  1
  O  O4  1  0.84050400  0.84050400  0.62126500  1
  O  O5  1  0.18008800  0.18008800  0.94755500  1
loop_
_geom_bond_atom_site_label_1
_geom_bond_atom_site_label_2
_geom_bond_distance
_geom_bond_site_symmetry_2
Cr0 O1 1.921891 1_545
Cr0 O1 1.921891 1_455
Cr0 O3 1.921891 1_545
Cr0 O3 1.921891 1_455
Cr0 O0 1.967798 1_555
Cr0 O4 1.967798 1_445
Co0 O5 1.871237 1_654
Co0 O5 1.871237 1_564
Co0 O2 1.873855 1_555
Co0 O0 1.887019 1_655
Co0 O0 1.887019 1_565
Co0 O3 1.893584 1_555
Co1 O2 1.871237 1_546
Co1 O2 1.871237 1_456
Co1 O5 1.873855 1_555
Co1 O4 1.887019 1_455
Co1 O4 1.887019 1_545
Co1 O1 1.893584 1_555
