# generated using pymatgen
data_Co2H21S3(NO2)6
_symmetry_space_group_name_H-M   'P 1'
_cell_length_a   11.32299539
_cell_length_b   10.03246202
_cell_length_c   15.90045525
_cell_angle_alpha   90.00000000
_cell_angle_beta   117.35206244
_cell_angle_gamma   90.00000000
_symmetry_Int_Tables_number   1
_chemical_formula_structural   Co2H21S3(NO2)6
_chemical_formula_sum   'Co8 H84 S12 N24 O48'
_cell_volume   1604.31349212
_cell_formula_units_Z   4
loop_
 _symmetry_equiv_pos_site_id
 _symmetry_equiv_pos_as_xyz
  1  'x, y, z'
loop_
 _atom_site_type_symbol
 _atom_site_label
 _atom_site_symmetry_multiplicity
 _atom_site_fract_x
 _atom_site_fract_y
 _atom_site_fract_z
 _atom_site_occupancy
  Co  Co0  1  0.26534426  0.45849238  0.75826844  1
  Co  Co1  1  0.73465574  0.95849238  0.74173156  1
  Co  Co2  1  0.73465574  0.54150762  0.24173156  1
  Co  Co3  1  0.26534426  0.04150762  0.25826844  1
  Co  Co4  1  0.99533617  0.46155531  0.67493615  1
  Co  Co5  1  0.00466383  0.96155531  0.82506385  1
  Co  Co6  1  0.00466383  0.53844469  0.32506385  1
  Co  Co7  1  0.99533617  0.03844469  0.17493615  1
  H  H0  1  0.12459173  0.37673820  0.85855718  1
  H  H1  1  0.87540827  0.87673820  0.64144282  1
  H  H2  1  0.87540827  0.62326180  0.14144282  1
  H  H3  1  0.12459173  0.12326180  0.35855718  1
  H  H4  1  0.12566076  0.65671690  0.69479967  1
  H  H5  1  0.87433924  0.15671690  0.80520033  1
  H  H6  1  0.87433924  0.34328310  0.30520033  1
  H  H7  1  0.12566076  0.84328310  0.19479967  1
  H  H8  1  0.13486701  0.32802705  0.61389670  1
  H  H9  1  0.86513299  0.82802705  0.88610330  1
  H  H10  1  0.86513299  0.67197295  0.38610330  1
  H  H11  1  0.13486701  0.17197295  0.11389670  1
  H  H12  1  0.36321512  0.57387341  0.65838995  1
  H  H13  1  0.63678488  0.07387341  0.84161005  1
  H  H14  1  0.63678488  0.42612659  0.34161005  1
  H  H15  1  0.36321512  0.92612659  0.15838995  1
  H  H16  1  0.38528915  0.67665568  0.74881666  1
  H  H17  1  0.61471085  0.17665568  0.75118334  1
  H  H18  1  0.61471085  0.32334432  0.25118334  1
  H  H19  1  0.38528915  0.82334432  0.24881666  1
  H  H20  1  0.48760179  0.54819147  0.76293530  1
  H  H21  1  0.51239821  0.04819147  0.73706470  1
  H  H22  1  0.51239821  0.45180853  0.23706470  1
  H  H23  1  0.48760179  0.95180853  0.26293530  1
  H  H24  1  0.37304880  0.41494543  0.93862135  1
  H  H25  1  0.62695120  0.91494543  0.56137865  1
  H  H26  1  0.62695120  0.58505457  0.06137865  1
  H  H27  1  0.37304880  0.08505457  0.43862135  1
  H  H28  1  0.35395409  0.57961762  0.91894188  1
  H  H29  1  0.64604591  0.07961762  0.58105812  1
  H  H30  1  0.64604591  0.42038238  0.08105812  1
  H  H31  1  0.35395409  0.92038238  0.41894188  1
  H  H32  1  0.47602911  0.49952401  0.91037460  1
  H  H33  1  0.52397089  0.99952401  0.58962540  1
  H  H34  1  0.52397089  0.50047599  0.08962540  1
  H  H35  1  0.47602911  0.00047599  0.41037460  1
  H  H36  1  0.47241347  0.31664252  0.81149092  1
  H  H37  1  0.52758653  0.81664252  0.68850908  1
  H  H38  1  0.52758653  0.68335748  0.18850908  1
  H  H39  1  0.47241347  0.18335748  0.31149092  1
  H  H40  1  0.36413217  0.27428315  0.70090053  1
  H  H41  1  0.63586783  0.77428315  0.79909947  1
  H  H42  1  0.63586783  0.72571685  0.29909947  1
  H  H43  1  0.36413217  0.22571685  0.20090053  1
  H  H44  1  0.34814736  0.22041049  0.79559233  1
  H  H45  1  0.65185264  0.72041049  0.70440767  1
  H  H46  1  0.65185264  0.77958951  0.20440767  1
  H  H47  1  0.34814736  0.27958951  0.29559233  1
  H  H48  1  0.92008222  0.49713914  0.80096463  1
  H  H49  1  0.07991778  0.99713914  0.69903537  1
  H  H50  1  0.07991778  0.50286086  0.19903537  1
  H  H51  1  0.92008222  0.00286086  0.30096463  1
  H  H52  1  0.78913689  0.44909848  0.70301729  1
  H  H53  1  0.21086311  0.94909848  0.79698271  1
  H  H54  1  0.21086311  0.55090152  0.29698271  1
  H  H55  1  0.78913689  0.05090152  0.20301729  1
  H  H56  1  0.83996840  0.60064931  0.71175088  1
  H  H57  1  0.16003160  0.10064931  0.78824912  1
  H  H58  1  0.16003160  0.39935069  0.28824912  1
  H  H59  1  0.83996840  0.89935069  0.21175088  1
  H  H60  1  0.91223154  0.55684027  0.51965158  1
  H  H61  1  0.08776846  0.05684027  0.98034842  1
  H  H62  1  0.08776846  0.44315973  0.48034842  1
  H  H63  1  0.91223154  0.94315973  0.01965158  1
  H  H64  1  0.92821650  0.74484143  0.21221846  1
  H  H65  1  0.07178350  0.24484143  0.28778154  1
  H  H66  1  0.07178350  0.25515857  0.78778154  1
  H  H67  1  0.92821650  0.75515857  0.71221846  1
  H  H68  1  0.80915745  0.59000869  0.56055092  1
  H  H69  1  0.19084255  0.09000869  0.93944908  1
  H  H70  1  0.19084255  0.40999131  0.43944908  1
  H  H71  1  0.80915745  0.90999131  0.06055092  1
  H  H72  1  0.86928674  0.24183157  0.64216777  1
  H  H73  1  0.13071326  0.74183157  0.85783223  1
  H  H74  1  0.13071326  0.75816843  0.35783223  1
  H  H75  1  0.86928674  0.25816843  0.14216777  1
  H  H76  1  0.91353071  0.27195822  0.55799041  1
  H  H77  1  0.08646929  0.77195822  0.94200959  1
  H  H78  1  0.08646929  0.72804178  0.44200959  1
  H  H79  1  0.91353071  0.22804178  0.05799041  1
  H  H80  1  0.78526738  0.34893983  0.55826547  1
  H  H81  1  0.21473262  0.84893983  0.94173453  1
  H  H82  1  0.21473262  0.65106017  0.44173453  1
  H  H83  1  0.78526738  0.15106017  0.05826547  1
  S  S0  1  0.47012282  0.40636490  0.52142242  1
  S  S1  1  0.52987718  0.90636490  0.97857758  1
  S  S2  1  0.52987718  0.59363510  0.47857758  1
  S  S3  1  0.47012282  0.09363510  0.02142242  1
  S  S4  1  0.21050386  0.08140328  0.54843809  1
  S  S5  1  0.78949614  0.58140328  0.95156191  1
  S  S6  1  0.78949614  0.91859672  0.45156191  1
  S  S7  1  0.21050386  0.41859672  0.04843809  1
  S  S8  1  0.26861721  0.88605330  0.61796141  1
  S  S9  1  0.73138279  0.38605330  0.88203859  1
  S  S10  1  0.73138279  0.11394670  0.38203859  1
  S  S11  1  0.26861721  0.61394670  0.11796141  1
  N  N0  1  0.39077873  0.58064951  0.72939140  1
  N  N1  1  0.60922127  0.08064951  0.77060860  1
  N  N2  1  0.60922127  0.41935049  0.27060860  1
  N  N3  1  0.39077873  0.91935049  0.22939140  1
  N  N4  1  0.37897890  0.49185044  0.89802187  1
  N  N5  1  0.62102110  0.99185044  0.60197813  1
  N  N6  1  0.62102110  0.50814956  0.10197813  1
  N  N7  1  0.37897890  0.00814956  0.39802187  1
  N  N8  1  0.37338821  0.29965326  0.76623134  1
  N  N9  1  0.62661179  0.79965326  0.73376866  1
  N  N10  1  0.62661179  0.70034674  0.23376866  1
  N  N11  1  0.37338821  0.20034674  0.26623134  1
  N  N12  1  0.87452658  0.50544475  0.72858414  1
  N  N13  1  0.12547342  0.00544475  0.77141586  1
  N  N14  1  0.12547342  0.49455525  0.27141586  1
  N  N15  1  0.87452658  0.99455525  0.22858414  1
  N  N16  1  0.90896520  0.58829327  0.57993178  1
  N  N17  1  0.09103480  0.08829327  0.92006822  1
  N  N18  1  0.09103480  0.41170673  0.42006822  1
  N  N19  1  0.90896520  0.91170673  0.07993178  1
  N  N20  1  0.87992490  0.31581772  0.60136499  1
  N  N21  1  0.12007510  0.81581772  0.89863501  1
  N  N22  1  0.12007510  0.68418228  0.39863501  1
  N  N23  1  0.87992490  0.18418228  0.10136499  1
  O  O0  1  0.11114938  0.34316383  0.79389229  1
  O  O1  1  0.88885062  0.84316383  0.70610771  1
  O  O2  1  0.88885062  0.65683617  0.20610771  1
  O  O3  1  0.11114938  0.15683617  0.29389229  1
  O  O4  1  0.13599589  0.59717222  0.74712783  1
  O  O5  1  0.86400411  0.09717222  0.75287217  1
  O  O6  1  0.86400411  0.40282778  0.25287217  1
  O  O7  1  0.13599589  0.90282778  0.24712783  1
  O  O8  1  0.13169056  0.42010195  0.63523847  1
  O  O9  1  0.86830944  0.92010195  0.86476153  1
  O  O10  1  0.86830944  0.57989805  0.36476153  1
  O  O11  1  0.13169056  0.07989805  0.13523847  1
  O  O12  1  0.15044584  0.80861994  0.60091353  1
  O  O13  1  0.84955416  0.30861994  0.89908647  1
  O  O14  1  0.84955416  0.19138006  0.39908647  1
  O  O15  1  0.15044584  0.69138006  0.10091353  1
  O  O16  1  0.34770954  0.83104774  0.57388184  1
  O  O17  1  0.65229046  0.33104774  0.92611816  1
  O  O18  1  0.65229046  0.16895226  0.42611816  1
  O  O19  1  0.34770954  0.66895226  0.07388184  1
  O  O20  1  0.35072508  0.92462905  0.71733365  1
  O  O21  1  0.64927492  0.42462905  0.78266635  1
  O  O22  1  0.64927492  0.07537095  0.28266635  1
  O  O23  1  0.35072508  0.57537095  0.21733365  1
  O  O24  1  0.34120949  0.14064349  0.57391107  1
  O  O25  1  0.65879051  0.64064349  0.92608893  1
  O  O26  1  0.65879051  0.85935651  0.42608893  1
  O  O27  1  0.34120949  0.35935651  0.07391107  1
  O  O28  1  0.13487124  0.15055577  0.58975304  1
  O  O29  1  0.86512876  0.65055577  0.91024696  1
  O  O30  1  0.86512876  0.84944423  0.41024696  1
  O  O31  1  0.13487124  0.34944423  0.08975304  1
  O  O32  1  0.13351540  0.05027694  0.44657654  1
  O  O33  1  0.86648460  0.55027694  0.05342346  1
  O  O34  1  0.86648460  0.94972306  0.55342346  1
  O  O35  1  0.13351540  0.44972306  0.94657654  1
  O  O36  1  0.39847069  0.45028165  0.57339620  1
  O  O37  1  0.60152931  0.95028165  0.92660380  1
  O  O38  1  0.60152931  0.54971835  0.42660380  1
  O  O39  1  0.39847069  0.04971835  0.07339620  1
  O  O40  1  0.38256927  0.33942994  0.43125859  1
  O  O41  1  0.61743073  0.83942994  0.06874141  1
  O  O42  1  0.61743073  0.66057006  0.56874141  1
  O  O43  1  0.38256927  0.16057006  0.93125859  1
  O  O44  1  0.59541090  0.33564864  0.57837512  1
  O  O45  1  0.40458910  0.83564864  0.92162488  1
  O  O46  1  0.40458910  0.66435136  0.42162488  1
  O  O47  1  0.59541090  0.16435136  0.07837512  1
loop_
_geom_bond_atom_site_label_1
_geom_bond_atom_site_label_2
_geom_bond_distance
_geom_bond_site_symmetry_2
Co0 O8 1.882821 1_555
Co0 O4 1.968191 1_555
Co0 N8 1.977309 1_555
Co0 N4 2.019436 1_555
Co0 N0 2.080688 1_555
Co0 O0 2.369953 1_555
Co1 O9 1.882821 1_555
Co1 O5 1.968191 1_565
Co1 N9 1.977309 1_555
Co1 N5 2.019436 1_555
Co1 N1 2.080688 1_565
Co1 O1 2.369953 1_555
Co2 O10 1.882821 1_555
Co2 O6 1.968191 1_555
Co2 N10 1.977309 1_555
Co2 N6 2.019436 1_555
Co2 N2 2.080688 1_555
Co2 O2 2.369953 1_555
Co3 O11 1.882821 1_555
Co3 O7 1.968191 1_545
Co3 N11 1.977309 1_555
Co3 N7 2.019436 1_555
Co3 N3 2.080688 1_545
Co3 O3 2.369953 1_555
Co4 N16 1.870170 1_555
Co4 N20 1.951716 1_555
Co4 O8 1.962311 1_655
Co4 N12 1.965966 1_555
Co4 O4 2.006357 1_655
Co4 O0 2.104467 1_655
Co5 N17 1.870170 1_565
Co5 N21 1.951716 1_555
Co5 O9 1.962311 1_455
Co5 N13 1.965966 1_565
Co5 O5 2.006357 1_465
Co5 O1 2.104467 1_455
Co6 N18 1.870170 1_555
Co6 N22 1.951716 1_555
Co6 O10 1.962311 1_455
Co6 N14 1.965966 1_555
Co6 O6 2.006357 1_455
Co6 O2 2.104467 1_455
Co7 N19 1.870170 1_545
Co7 N23 1.951716 1_555
Co7 O11 1.962311 1_655
Co7 N15 1.965966 1_545
Co7 O7 2.006357 1_645
Co7 O3 2.104467 1_655
H0 O0 1.024701 1_555
H0 O35 1.541149 1_555
H1 O1 1.024701 1_555
H1 O34 1.541149 1_555
H2 O2 1.024701 1_555
H2 O33 1.541149 1_555
H3 O3 1.024701 1_555
H3 O32 1.541149 1_555
H4 O4 0.986598 1_555
H5 O5 0.986598 1_555
H6 O6 0.986598 1_555
H7 O7 0.986598 1_555
H8 O8 0.990432 1_555
H9 O9 0.990432 1_555
H10 O10 0.990432 1_555
H11 O11 0.990432 1_555
H12 N0 1.026056 1_555
H13 N1 1.026056 1_555
H14 N2 1.026056 1_555
H15 N3 1.026056 1_555
H16 N0 1.022066 1_555
H17 N1 1.022066 1_555
H18 N2 1.022066 1_555
H19 N3 1.022066 1_555
H20 N0 1.027191 1_555
H21 N1 1.027191 1_555
H22 N2 1.027191 1_555
H23 N3 1.027191 1_555
H24 N4 1.027794 1_555
H25 N5 1.027794 1_555
H26 N6 1.027794 1_555
H27 N7 1.027794 1_555
H28 N4 1.026093 1_555
H29 N5 1.026093 1_545
H30 N6 1.026093 1_555
H31 N7 1.026093 1_565
H32 N4 1.026522 1_555
H33 N5 1.026522 1_555
H34 N6 1.026522 1_555
H35 N7 1.026522 1_555
H36 N8 1.030868 1_555
H37 N9 1.030868 1_555
H38 N10 1.030868 1_555
H39 N11 1.030868 1_555
H40 N8 1.027038 1_555
H41 N9 1.027038 1_555
H42 N10 1.027038 1_555
H43 N11 1.027038 1_555
H44 N8 1.026776 1_555
H45 N9 1.026776 1_555
H46 N10 1.026776 1_555
H47 N11 1.026776 1_555
H48 N12 1.025687 1_555
H49 N13 1.025687 1_565
H50 N14 1.025687 1_555
H51 N15 1.025687 1_545
H52 N12 1.028817 1_555
H53 N13 1.028817 1_565
H54 N14 1.028817 1_555
H55 N15 1.028817 1_545
H56 N12 1.020196 1_555
H57 N13 1.020196 1_555
H58 N14 1.020196 1_555
H59 N15 1.020196 1_555
H60 N16 1.025770 1_555
H61 N17 1.025770 1_555
H62 N18 1.025770 1_555
H63 N19 1.025770 1_555
H64 O2 0.973579 1_555
H65 O3 0.973579 1_555
H66 O0 0.973579 1_555
H67 O1 0.973579 1_555
H68 N16 1.025873 1_555
H69 N17 1.025873 1_555
H70 N18 1.025873 1_555
H71 N19 1.025873 1_555
H72 N20 1.028687 1_555
H73 N21 1.028687 1_555
H74 N22 1.028687 1_555
H75 N23 1.028687 1_555
H76 N20 1.027238 1_555
H77 N21 1.027238 1_555
H78 N22 1.027238 1_555
H79 N23 1.027238 1_555
H80 N20 1.026585 1_555
H81 N21 1.026585 1_555
H82 N22 1.026585 1_555
H83 N23 1.026585 1_555
O12 S8 1.460843 1_555
O13 S9 1.460843 1_555
O14 S10 1.460843 1_555
O15 S11 1.460843 1_555
O16 S8 1.474649 1_555
O17 S9 1.474649 1_555
O18 S10 1.474649 1_555
O19 S11 1.474649 1_555
O20 S8 1.469984 1_555
O21 S9 1.469984 1_555
O22 S10 1.469984 1_555
O23 S11 1.469984 1_555
O24 S4 1.468598 1_555
O25 S5 1.468598 1_555
O26 S6 1.468598 1_555
O27 S7 1.468598 1_555
O28 S4 1.470794 1_555
O29 S5 1.470794 1_555
O30 S6 1.470794 1_555
O31 S7 1.470794 1_555
O32 S4 1.477590 1_555
O33 S5 1.477590 1_554
O34 S6 1.477590 1_555
O35 S7 1.477590 1_556
O36 S0 1.466771 1_555
O37 S1 1.466771 1_555
O38 S2 1.466771 1_555
O39 S3 1.466771 1_555
O40 S0 1.477521 1_555
O41 S1 1.477521 1_554
O42 S2 1.477521 1_555
O43 S3 1.477521 1_556
O44 S0 1.468133 1_555
O45 S1 1.468133 1_555
O46 S2 1.468133 1_555
O47 S3 1.468133 1_555
