# generated using pymatgen
data_LiFe2(BO3)2
_symmetry_space_group_name_H-M   'P 1'
_cell_length_a   5.25296400
_cell_length_b   9.16179068
_cell_length_c   11.36810518
_cell_angle_alpha   112.57722953
_cell_angle_beta   103.12564773
_cell_angle_gamma   89.45420602
_symmetry_Int_Tables_number   1
_chemical_formula_structural   LiFe2(BO3)2
_chemical_formula_sum   'Li4 Fe8 B8 O24'
_cell_volume   490.14279347
_cell_formula_units_Z   4
loop_
 _symmetry_equiv_pos_site_id
 _symmetry_equiv_pos_as_xyz
  1  'x, y, z'
loop_
 _atom_site_type_symbol
 _atom_site_label
 _atom_site_symmetry_multiplicity
 _atom_site_fract_x
 _atom_site_fract_y
 _atom_site_fract_z
 _atom_site_occupancy
  Li  Li0  1  0.02601400  0.03185800  0.40506500  1
  Li  Li1  1  0.28788600  0.27857100  0.90391900  1
  Li  Li2  1  0.49425300  0.51136000  0.66230500  1
  Li  Li3  1  0.26290000  0.24918500  0.16257200  1
  Fe  Fe0  1  0.01910200  0.35681900  0.38125000  1
  Fe  Fe1  1  0.24692900  0.93227600  0.87718300  1
  Fe  Fe2  1  0.49364200  0.14600100  0.62946000  1
  Fe  Fe3  1  0.23701400  0.57473700  0.13372100  1
  Fe  Fe4  1  0.76952700  0.44574500  0.88418100  1
  Fe  Fe5  1  0.53301300  0.84131500  0.37920100  1
  Fe  Fe6  1  0.97797900  0.65800300  0.62851900  1
  Fe  Fe7  1  0.73396700  0.05942200  0.12585600  1
  B  B0  1  0.02887600  0.69212800  0.37931100  1
  B  B1  1  0.26081800  0.59736600  0.86994100  1
  B  B2  1  0.47355000  0.81340800  0.63068000  1
  B  B3  1  0.23641900  0.90190200  0.13326200  1
  B  B4  1  0.51643900  0.17734200  0.37349100  1
  B  B5  1  0.76725900  0.11259300  0.88286500  1
  B  B6  1  0.98498400  0.31865300  0.62481200  1
  B  B7  1  0.73398900  0.38978400  0.12516000  1
  O  O0  1  0.03060500  0.11863400  0.89025800  1
  O  O1  1  0.09883100  0.69971500  0.82980100  1
  O  O2  1  0.16637000  0.50521900  0.92959800  1
  O  O3  1  0.13318600  0.19298800  0.62097900  1
  O  O4  1  0.07967400  0.43793200  0.59320300  1
  O  O5  1  0.24174800  0.82815100  0.67180700  1
  O  O6  1  0.24534000  0.65441700  0.32271300  1
  O  O7  1  0.50248800  0.57755700  0.84530600  1
  O  O8  1  0.60381600  0.20800900  0.82878500  1
  O  O9  1  0.43187200  0.07834100  0.42911600  1
  O  O10  1  0.36540400  0.29005700  0.35155200  1
  O  O11  1  0.64623800  0.02243300  0.93243700  1
  O  O12  1  0.35965900  0.00591500  0.09470200  1
  O  O13  1  0.61817100  0.68682400  0.62852300  1
  O  O14  1  0.55424100  0.92502600  0.58858400  1
  O  O15  1  0.37481900  0.78513400  0.16231700  1
  O  O16  1  0.46492800  0.39434000  0.11428000  1
  O  O17  1  0.74181200  0.32866600  0.65690500  1
  O  O18  1  0.75704900  0.15285400  0.33683600  1
  O  O19  1  0.94983900  0.59144500  0.43281600  1
  O  O20  1  0.90811700  0.82590600  0.38464600  1
  O  O21  1  0.87013500  0.48677100  0.08826900  1
  O  O22  1  0.87190700  0.27959300  0.16703100  1
  O  O23  1  0.98486100  0.92127600  0.14526200  1
loop_
_geom_bond_atom_site_label_1
_geom_bond_atom_site_label_2
_geom_bond_distance
_geom_bond_site_symmetry_2
Li0 O20 1.902217 1_445
Li0 O18 1.989804 1_455
Li0 O9 2.112938 1_555
Li0 O3 2.264261 1_555
Li1 O0 1.940474 1_555
Li1 O8 2.025092 1_555
Li1 O2 2.097248 1_555
Li1 O16 2.183982 1_556
Li2 O7 1.920538 1_555
Li2 O13 1.939842 1_555
Li2 O17 2.100564 1_555
Li2 O4 2.158120 1_555
Li3 O10 1.976431 1_555
Li3 O16 2.012041 1_555
Li3 O22 2.079450 1_455
Li3 O12 2.158062 1_555
Fe0 O10 1.973942 1_555
Fe0 O19 2.052110 1_455
Fe0 O18 2.156544 1_455
Fe0 O4 2.177289 1_555
Fe0 O22 2.204803 1_455
Fe1 O0 2.018259 1_565
Fe1 O1 2.096458 1_555
Fe1 O11 2.124332 1_565
Fe1 O5 2.150164 1_555
Fe1 O12 2.232044 1_566
Fe2 O3 1.926977 1_555
Fe2 O14 1.936105 1_545
Fe2 O17 2.013313 1_555
Fe2 O8 2.052902 1_555
Fe2 O9 2.064176 1_555
Fe3 O15 1.945231 1_555
Fe3 O21 1.971847 1_455
Fe3 O6 1.975959 1_555
Fe3 O16 2.003947 1_555
Fe3 O2 2.099191 1_554
Fe4 O7 1.928045 1_555
Fe4 O2 2.055684 1_655
Fe4 O21 2.140257 1_556
Fe4 O8 2.152277 1_555
Fe4 O17 2.356133 1_555
Fe5 O20 1.962724 1_555
Fe5 O6 2.095755 1_555
Fe5 O9 2.118675 1_565
Fe5 O14 2.178470 1_555
Fe5 O15 2.266630 1_555
Fe6 O13 1.905929 1_555
Fe6 O5 1.932472 1_655
Fe6 O4 1.991763 1_655
Fe6 O19 2.038125 1_555
Fe6 O1 2.111473 1_655
Fe7 O23 1.854212 1_545
Fe7 O12 1.949506 1_555
Fe7 O22 1.990445 1_555
Fe7 O11 2.032872 1_554
Fe7 O18 2.189384 1_555
B0 O20 1.361565 1_455
B0 O19 1.395007 1_455
B0 O6 1.407265 1_555
B1 O7 1.356838 1_555
B1 O1 1.395909 1_555
B1 O2 1.421000 1_555
B2 O13 1.375702 1_555
B2 O5 1.387961 1_555
B2 O14 1.389454 1_555
B3 O23 1.362017 1_455
B3 O15 1.389090 1_555
B3 O12 1.407390 1_565
B4 O10 1.360277 1_555
B4 O18 1.408356 1_555
B4 O9 1.412647 1_555
B5 O0 1.367062 1_655
B5 O11 1.390750 1_555
B5 O8 1.427560 1_555
B6 O3 1.375972 1_655
B6 O17 1.398904 1_555
B6 O4 1.401364 1_655
B7 O21 1.382528 1_555
B7 O16 1.392154 1_555
B7 O22 1.403230 1_555
