# generated using pymatgen
data_Li4Co(PO4)2
_symmetry_space_group_name_H-M   'P 1'
_cell_length_a   5.32682146
_cell_length_b   8.15733189
_cell_length_c   7.58775489
_cell_angle_alpha   75.68505757
_cell_angle_beta   101.09858096
_cell_angle_gamma   89.20158674
_symmetry_Int_Tables_number   1
_chemical_formula_structural   Li4Co(PO4)2
_chemical_formula_sum   'Li8 Co2 P4 O16'
_cell_volume   312.83903127
_cell_formula_units_Z   2
loop_
 _symmetry_equiv_pos_site_id
 _symmetry_equiv_pos_as_xyz
  1  'x, y, z'
loop_
 _atom_site_type_symbol
 _atom_site_label
 _atom_site_symmetry_multiplicity
 _atom_site_fract_x
 _atom_site_fract_y
 _atom_site_fract_z
 _atom_site_occupancy
  Li  Li0  1  0.29031900  0.17601000  0.34938400  1
  Li  Li1  1  0.29032500  0.67600300  0.84939200  1
  Li  Li2  1  0.70968200  0.82399000  0.65061700  1
  Li  Li3  1  0.70967400  0.32399800  0.15060800  1
  Li  Li4  1  0.56225500  0.96217100  0.22363500  1
  Li  Li5  1  0.56214500  0.46222100  0.72357100  1
  Li  Li6  1  0.43774200  0.03783200  0.77636100  1
  Li  Li7  1  0.43785600  0.53778000  0.27642900  1
  Co  Co0  1  0.99999900  0.49999900  0.50000000  1
  Co  Co1  1  0.99999800  0.99999900  0.99999900  1
  P  P0  1  0.81756800  0.18631900  0.54132300  1
  P  P1  1  0.81751400  0.68628700  0.04131700  1
  P  P2  1  0.18243300  0.81368100  0.45867500  1
  P  P3  1  0.18248400  0.31371200  0.95868100  1
  O  O0  1  0.67824000  0.35441100  0.54989700  1
  O  O1  1  0.67820100  0.85442500  0.04990800  1
  O  O2  1  0.32175500  0.64559400  0.45010400  1
  O  O3  1  0.32179700  0.14557800  0.95009500  1
  O  O4  1  0.67528100  0.12874800  0.37148700  1
  O  O5  1  0.67522800  0.62873500  0.87145600  1
  O  O6  1  0.32471700  0.87124900  0.62850800  1
  O  O7  1  0.32476900  0.37126400  0.12854300  1
  O  O8  1  0.19011000  0.95751700  0.28091200  1
  O  O9  1  0.19007000  0.45754400  0.78091300  1
  O  O10  1  0.80989100  0.04247800  0.71909400  1
  O  O11  1  0.80993000  0.54245300  0.21909200  1
  O  O12  1  0.09363900  0.23543000  0.51887500  1
  O  O13  1  0.09363500  0.73548900  0.01884200  1
  O  O14  1  0.90637000  0.76457000  0.48112500  1
  O  O15  1  0.90637000  0.26451000  0.98115900  1
loop_
_geom_bond_atom_site_label_1
_geom_bond_atom_site_label_2
_geom_bond_distance
_geom_bond_site_symmetry_2
Li0 O12 1.949192 1_555
Li0 O8 2.027113 1_545
Li0 O7 2.045773 1_555
Li0 O4 2.048270 1_555
Li1 O13 1.949189 1_556
Li1 O9 2.026928 1_555
Li1 O6 2.045866 1_555
Li1 O5 2.048015 1_555
Li2 O14 1.949227 1_555
Li2 O10 2.027090 1_565
Li2 O5 2.045774 1_555
Li2 O6 2.048274 1_555
Li3 O15 1.949210 1_554
Li3 O11 2.026915 1_555
Li3 O4 2.045862 1_555
Li3 O7 2.048022 1_555
Li4 O1 1.939806 1_555
Li4 O4 1.996011 1_565
Li4 O8 2.108473 1_555
Li4 O3 2.361024 1_564
Li4 O14 2.599422 1_555
Li5 O0 1.940137 1_555
Li5 O5 1.995817 1_555
Li5 O9 2.108293 1_555
Li5 O2 2.360436 1_555
Li5 O15 2.600470 1_555
Li6 O3 1.939849 1_555
Li6 O6 1.996055 1_545
Li6 O10 2.108466 1_555
Li6 O1 2.361058 1_546
Li6 O12 2.599362 1_555
Li7 O2 1.940177 1_555
Li7 O7 1.995840 1_555
Li7 O11 2.108274 1_555
Li7 O0 2.360416 1_555
Li7 O13 2.600448 1_555
Co0 O11 2.117197 1_555
Co0 O9 2.117232 1_655
Co0 O0 2.139066 1_555
Co0 O2 2.139081 1_655
Co0 O12 2.171795 1_655
Co0 O14 2.171799 1_555
Co1 O10 2.117215 1_565
Co1 O8 2.117273 1_656
Co1 O1 2.139194 1_556
Co1 O3 2.139217 1_665
Co1 O13 2.171377 1_656
Co1 O15 2.171381 1_565
O0 P0 1.571476 1_555
O1 P1 1.571813 1_555
O2 P2 1.571418 1_555
O3 P3 1.571771 1_555
O4 P0 1.545591 1_555
O5 P1 1.545663 1_556
O6 P2 1.545554 1_555
O7 P3 1.545668 1_554
O8 P2 1.561295 1_555
O9 P3 1.561205 1_555
O10 P0 1.561358 1_555
O11 P1 1.561248 1_555
O12 P0 1.559238 1_455
O13 P1 1.559723 1_455
O14 P2 1.559200 1_655
O15 P3 1.559692 1_655
