# generated using pymatgen
data_Ti3Cr2Sb(PO4)6
_symmetry_space_group_name_H-M   'P 1'
_cell_length_a   8.71474331
_cell_length_b   8.71474331
_cell_length_c   8.71474324
_cell_angle_alpha   60.16582036
_cell_angle_beta   60.16582036
_cell_angle_gamma   60.16581596
_symmetry_Int_Tables_number   1
_chemical_formula_structural   Ti3Cr2Sb(PO4)6
_chemical_formula_sum   'Ti3 Cr2 Sb1 P6 O24'
_cell_volume   469.76079561
_cell_formula_units_Z   1
loop_
 _symmetry_equiv_pos_site_id
 _symmetry_equiv_pos_as_xyz
  1  'x, y, z'
loop_
 _atom_site_type_symbol
 _atom_site_label
 _atom_site_symmetry_multiplicity
 _atom_site_fract_x
 _atom_site_fract_y
 _atom_site_fract_z
 _atom_site_occupancy
  Ti  Ti0  1  0.14540000  0.14540000  0.14540000  1
  Ti  Ti1  1  0.35316300  0.35316300  0.35316300  1
  Ti  Ti2  1  0.64574300  0.64574300  0.64574300  1
  Cr  Cr0  1  0.00051700  0.00051700  0.00051700  1
  Cr  Cr1  1  0.49836300  0.49836300  0.49836300  1
  Sb  Sb0  1  0.85218100  0.85218100  0.85218100  1
  P  P0  1  0.44205300  0.75046500  0.05069600  1
  P  P1  1  0.75046500  0.05069600  0.44205300  1
  P  P2  1  0.95679500  0.53618400  0.26146200  1
  P  P3  1  0.26146200  0.95679500  0.53618400  1
  P  P4  1  0.53618400  0.26146200  0.95679500  1
  P  P5  1  0.05069600  0.44205300  0.75046500  1
  O  O0  1  0.47608300  0.33770300  0.11066900  1
  O  O1  1  0.11066900  0.47608300  0.33770300  1
  O  O2  1  0.25283200  0.91457000  0.06128900  1
  O  O3  1  0.33770300  0.11066900  0.47608300  1
  O  O4  1  0.58978000  0.80448500  0.03825400  1
  O  O5  1  0.41406100  0.58780900  0.24023000  1
  O  O6  1  0.91457000  0.06128900  0.25283200  1
  O  O7  1  0.58780900  0.24023000  0.41406100  1
  O  O8  1  0.99818700  0.38370500  0.19119900  1
  O  O9  1  0.24023000  0.41406100  0.58780900  1
  O  O10  1  0.95463200  0.72835700  0.10665900  1
  O  O11  1  0.19119900  0.99818700  0.38370500  1
  O  O12  1  0.80448500  0.03825400  0.58978000  1
  O  O13  1  0.06128900  0.25283200  0.91457000  1
  O  O14  1  0.76424200  0.55337100  0.42074000  1
  O  O15  1  0.03825400  0.58978000  0.80448500  1
  O  O16  1  0.42074000  0.76424200  0.55337100  1
  O  O17  1  0.10665900  0.95463200  0.72835700  1
  O  O18  1  0.55337100  0.42074000  0.76424200  1
  O  O19  1  0.38370500  0.19119900  0.99818700  1
  O  O20  1  0.69983900  0.87858100  0.49970400  1
  O  O21  1  0.72835700  0.10665900  0.95463200  1
  O  O22  1  0.87858100  0.49970400  0.69983900  1
  O  O23  1  0.49970400  0.69983900  0.87858100  1
loop_
_geom_bond_atom_site_label_1
_geom_bond_atom_site_label_2
_geom_bond_distance
_geom_bond_site_symmetry_2
Cr0 O2 2.191300 1_545
Cr0 O6 2.191301 1_455
Cr0 O13 2.191301 1_554
Cr0 O21 2.243593 1_454
Cr0 O17 2.243593 1_544
Cr0 O10 2.243593 1_445
Cr1 O16 2.297648 1_555
Cr1 O18 2.297648 1_555
Cr1 O14 2.297648 1_555
Cr1 O7 2.353243 1_555
Cr1 O5 2.353243 1_555
Cr1 O9 2.353243 1_555
O0 P4 1.534733 1_554
O0 Ti1 1.875861 1_555
O1 P2 1.534733 1_455
O1 Ti1 1.875861 1_555
O2 P0 1.551278 1_555
O2 Ti0 2.090662 1_565
O3 P3 1.534733 1_545
O3 Ti1 1.875861 1_555
O4 P0 1.517939 1_555
O4 Sb0 2.148743 1_554
O5 P0 1.552616 1_555
O5 Ti1 1.997364 1_555
O6 P1 1.551278 1_555
O6 Ti0 2.090662 1_655
O7 P1 1.552616 1_555
O7 Ti1 1.997364 1_555
O8 P2 1.543923 1_555
O8 Ti0 1.944850 1_655
O9 P5 1.552616 1_555
O9 Ti1 1.997364 1_555
O10 P2 1.539799 1_555
O10 Sb0 2.347386 1_554
O11 P3 1.543923 1_555
O11 Ti0 1.944850 1_565
O12 P1 1.517939 1_555
O12 Sb0 2.148743 1_545
O13 P5 1.551278 1_555
O13 Ti0 2.090662 1_556
O14 P2 1.550561 1_555
O14 Ti2 2.070751 1_555
O15 P5 1.517939 1_555
O15 Sb0 2.148743 1_455
O16 P3 1.550561 1_555
O16 Ti2 2.070750 1_555
O17 P3 1.539799 1_555
O17 Sb0 2.347386 1_455
O18 P4 1.550561 1_555
O18 Ti2 2.070751 1_555
O19 P4 1.543923 1_555
O19 Ti0 1.944851 1_556
O20 P1 1.544334 1_565
O20 Ti2 1.935112 1_555
O21 P4 1.539798 1_555
O21 Sb0 2.347386 1_545
O22 P5 1.544334 1_655
O22 Ti2 1.935112 1_555
O23 P0 1.544334 1_556
O23 Ti2 1.935112 1_555
