# generated using pymatgen
data_Fe15O16
_symmetry_space_group_name_H-M   'P 1'
_cell_length_a   6.24710300
_cell_length_b   6.26532232
_cell_length_c   8.76823809
_cell_angle_alpha   90.37687825
_cell_angle_beta   90.44855667
_cell_angle_gamma   90.08758079
_symmetry_Int_Tables_number   1
_chemical_formula_structural   Fe15O16
_chemical_formula_sum   'Fe15 O16'
_cell_volume   343.17146743
_cell_formula_units_Z   1
loop_
 _symmetry_equiv_pos_site_id
 _symmetry_equiv_pos_as_xyz
  1  'x, y, z'
loop_
 _atom_site_type_symbol
 _atom_site_label
 _atom_site_symmetry_multiplicity
 _atom_site_fract_x
 _atom_site_fract_y
 _atom_site_fract_z
 _atom_site_occupancy
  Fe  Fe0  1  0.68059500  0.25970800  0.26357600  1
  Fe  Fe1  1  0.03951100  0.21210200  0.12704800  1
  Fe  Fe2  1  0.48994300  0.49648400  0.50298900  1
  Fe  Fe3  1  0.98964800  0.56887400  0.99160400  1
  Fe  Fe4  1  0.75201600  0.75399100  0.25054600  1
  Fe  Fe5  1  0.24829600  0.76163500  0.75074800  1
  Fe  Fe6  1  0.50614600  0.99656900  0.00299400  1
  Fe  Fe7  1  0.48979200  0.99985500  0.49690700  1
  Fe  Fe8  1  0.00221200  0.00690100  0.49908700  1
  Fe  Fe9  1  0.24542900  0.24943200  0.75200300  1
  Fe  Fe10  1  0.75687500  0.24635300  0.75623400  1
  Fe  Fe11  1  0.00108200  0.49519900  0.49350200  1
  Fe  Fe12  1  0.49851600  0.50170500  0.99769900  1
  Fe  Fe13  1  0.75584500  0.76099000  0.74806500  1
  Fe  Fe14  1  0.25632700  0.74723300  0.25172000  1
  O  O0  1  0.99837700  0.48773500  0.23366100  1
  O  O1  1  0.74082900  0.72599800  0.50077800  1
  O  O2  1  0.00631500  0.96759500  0.25400200  1
  O  O3  1  0.49979900  0.01424900  0.74192300  1
  O  O4  1  0.75543300  0.24828600  0.49115800  1
  O  O5  1  0.28599700  0.25055800  0.99766000  1
  O  O6  1  0.75214800  0.26449700  0.01605300  1
  O  O7  1  0.50412300  0.52870200  0.23569300  1
  O  O8  1  0.51655000  0.50375500  0.76405400  1
  O  O9  1  0.27057100  0.73056000  0.99215900  1
  O  O10  1  0.23883800  0.75008200  0.50916500  1
  O  O11  1  0.71601000  0.74149900  0.99834100  1
  O  O12  1  0.50624000  0.99199100  0.25699300  1
  O  O13  1  0.98827900  0.99683400  0.74089500  1
  O  O14  1  0.25290800  0.26749700  0.50965000  1
  O  O15  1  0.00168300  0.49130100  0.76282300  1
loop_
_geom_bond_atom_site_label_1
_geom_bond_atom_site_label_2
_geom_bond_distance
_geom_bond_site_symmetry_2
Fe0 O12 1.998830 1_545
Fe0 O7 2.030363 1_555
Fe0 O4 2.047697 1_555
Fe0 O6 2.219705 1_555
Fe0 O0 2.460768 1_555
Fe1 O2 1.911538 1_545
Fe1 O5 1.935465 1_554
Fe1 O0 1.976377 1_455
Fe1 O6 2.063076 1_455
Fe2 O14 2.061647 1_555
Fe2 O1 2.125694 1_555
Fe2 O10 2.235178 1_555
Fe2 O4 2.277748 1_555
Fe2 O8 2.293957 1_555
Fe2 O7 2.356059 1_555
Fe3 O9 2.024958 1_655
Fe3 O11 2.025299 1_555
Fe3 O15 2.062905 1_655
Fe3 O0 2.185981 1_556
Fe3 O6 2.426050 1_556
Fe4 O2 2.075554 1_655
Fe4 O7 2.096488 1_555
Fe4 O12 2.142750 1_555
Fe4 O1 2.203887 1_555
Fe4 O11 2.221905 1_554
Fe4 O0 2.276304 1_555
Fe5 O10 2.119376 1_555
Fe5 O9 2.130443 1_555
Fe5 O13 2.196422 1_455
Fe5 O3 2.230566 1_565
Fe5 O15 2.291368 1_555
Fe5 O8 2.332411 1_555
Fe6 O11 2.069007 1_554
Fe6 O5 2.105372 1_564
Fe6 O9 2.222770 1_554
Fe6 O12 2.227493 1_555
Fe6 O6 2.275869 1_565
Fe6 O3 2.292575 1_564
Fe7 O12 2.107191 1_555
Fe7 O3 2.150074 1_565
Fe7 O10 2.217123 1_555
Fe7 O14 2.240979 1_565
Fe7 O4 2.274550 1_565
Fe7 O1 2.326523 1_555
Fe8 O13 2.124044 1_445
Fe8 O2 2.161774 1_545
Fe8 O4 2.162309 1_455
Fe8 O10 2.188405 1_545
Fe8 O14 2.261639 1_555
Fe8 O1 2.399144 1_445
Fe9 O14 2.129638 1_555
Fe9 O15 2.152082 1_555
Fe9 O5 2.166830 1_555
Fe9 O3 2.170671 1_555
Fe9 O13 2.254449 1_445
Fe9 O8 2.324986 1_555
Fe10 O13 2.135184 1_545
Fe10 O15 2.165117 1_655
Fe10 O3 2.167242 1_555
Fe10 O8 2.206148 1_555
Fe10 O6 2.280667 1_556
Fe10 O4 2.324308 1_555
Fe11 O14 2.129847 1_555
Fe11 O4 2.177248 1_455
Fe11 O1 2.178528 1_455
Fe11 O10 2.182149 1_555
Fe11 O0 2.278450 1_455
Fe11 O15 2.361731 1_555
Fe12 O9 2.022900 1_555
Fe12 O11 2.024058 1_555
Fe12 O8 2.052754 1_555
Fe12 O5 2.057219 1_555
Fe12 O7 2.092538 1_556
Fe12 O6 2.179800 1_556
Fe13 O13 2.071685 1_555
Fe13 O1 2.179166 1_555
Fe13 O8 2.202435 1_555
Fe13 O11 2.214625 1_555
Fe13 O3 2.255384 1_565
Fe13 O15 2.288689 1_655
Fe14 O7 2.073173 1_555
Fe14 O2 2.086303 1_555
Fe14 O12 2.186730 1_555
Fe14 O10 2.260790 1_555
Fe14 O9 2.280042 1_554
Fe14 O0 2.291238 1_455
