# generated using pymatgen
data_Fe3Sb(PO4)6
_symmetry_space_group_name_H-M   'P 1'
_cell_length_a   8.93255837
_cell_length_b   8.93255837
_cell_length_c   8.93255856
_cell_angle_alpha   58.34223759
_cell_angle_beta   58.34223759
_cell_angle_gamma   58.34223963
_symmetry_Int_Tables_number   1
_chemical_formula_structural   Fe3Sb(PO4)6
_chemical_formula_sum   'Fe3 Sb1 P6 O24'
_cell_volume   484.85009874
_cell_formula_units_Z   1
loop_
 _symmetry_equiv_pos_site_id
 _symmetry_equiv_pos_as_xyz
  1  'x, y, z'
loop_
 _atom_site_type_symbol
 _atom_site_label
 _atom_site_symmetry_multiplicity
 _atom_site_fract_x
 _atom_site_fract_y
 _atom_site_fract_z
 _atom_site_occupancy
  Fe  Fe0  1  0.14318700  0.14318700  0.14318700  1
  Fe  Fe1  1  0.35642200  0.35642200  0.35642200  1
  Fe  Fe2  1  0.64264500  0.64264500  0.64264500  1
  Sb  Sb0  1  0.85592500  0.85592500  0.85592500  1
  P  P0  1  0.03577400  0.46366100  0.74917900  1
  P  P1  1  0.46366100  0.74917900  0.03577400  1
  P  P2  1  0.74917900  0.03577400  0.46366100  1
  P  P3  1  0.24881800  0.96436400  0.53599200  1
  P  P4  1  0.53599200  0.24881800  0.96436400  1
  P  P5  1  0.96436400  0.53599200  0.24881800  1
  O  O0  1  0.13442600  0.50939700  0.27387600  1
  O  O1  1  0.27387600  0.13442600  0.50939700  1
  O  O2  1  0.06254500  0.28689600  0.92113200  1
  O  O3  1  0.50939700  0.27387600  0.13442600  1
  O  O4  1  0.21186700  0.43956500  0.57705800  1
  O  O5  1  0.01458600  0.63688800  0.77222200  1
  O  O6  1  0.28689600  0.92113200  0.06254500  1
  O  O7  1  0.43956500  0.57705800  0.21186700  1
  O  O8  1  0.57705800  0.21186700  0.43956500  1
  O  O9  1  0.22090700  0.98991700  0.36751300  1
  O  O10  1  0.07437400  0.93914400  0.71902000  1
  O  O11  1  0.36751300  0.22090700  0.98991700  1
  O  O12  1  0.63688800  0.77222200  0.01458600  1
  O  O13  1  0.92113200  0.06254500  0.28689600  1
  O  O14  1  0.77222200  0.01458600  0.63688800  1
  O  O15  1  0.42077300  0.78727800  0.56181300  1
  O  O16  1  0.56181300  0.42077300  0.78727800  1
  O  O17  1  0.71902000  0.07437400  0.93914400  1
  O  O18  1  0.98991700  0.36751300  0.22090700  1
  O  O19  1  0.78727800  0.56181300  0.42077300  1
  O  O20  1  0.49351000  0.72709100  0.86223400  1
  O  O21  1  0.93914400  0.71902000  0.07437400  1
  O  O22  1  0.72709100  0.86223400  0.49351000  1
  O  O23  1  0.86223400  0.49351000  0.72709100  1
loop_
_geom_bond_atom_site_label_1
_geom_bond_atom_site_label_2
_geom_bond_distance
_geom_bond_site_symmetry_2
Fe0 O11 1.988578 1_554
Fe0 O18 1.988578 1_455
Fe0 O9 1.988578 1_545
Fe0 O13 1.989351 1_455
Fe0 O6 1.989351 1_545
Fe0 O2 1.989351 1_554
Fe1 O7 1.990383 1_555
Fe1 O8 1.990383 1_555
Fe1 O4 1.990383 1_555
Fe1 O1 1.993996 1_555
Fe1 O0 1.993996 1_555
Fe1 O3 1.993996 1_555
Fe2 O22 1.986591 1_555
Fe2 O23 1.986591 1_555
Fe2 O20 1.986591 1_555
Fe2 O16 1.988348 1_555
Fe2 O15 1.988348 1_555
Fe2 O19 1.988348 1_555
O0 P5 1.528548 1_455
O1 P3 1.528548 1_545
O2 P0 1.533947 1_555
O3 P4 1.528548 1_554
O4 P0 1.528987 1_555
O5 P0 1.567971 1_555
O5 Sb0 1.976944 1_455
O6 P1 1.533947 1_555
O7 P1 1.528987 1_555
O8 P2 1.528987 1_555
O9 P3 1.533841 1_555
O10 P3 1.568272 1_555
O10 Sb0 1.979701 1_455
O11 P4 1.533841 1_555
O12 P1 1.567971 1_555
O12 Sb0 1.976944 1_554
O13 P2 1.533947 1_555
O14 P2 1.567971 1_555
O14 Sb0 1.976944 1_545
O15 P3 1.534003 1_555
O16 P4 1.534003 1_555
O17 P4 1.568272 1_555
O17 Sb0 1.979701 1_545
O18 P5 1.533841 1_555
O19 P5 1.534003 1_555
O20 P1 1.531332 1_556
O21 P5 1.568272 1_555
O21 Sb0 1.979701 1_554
O22 P2 1.531332 1_565
O23 P0 1.531332 1_655
