# generated using pymatgen
data_Li6V5O12
_symmetry_space_group_name_H-M   'P 1'
_cell_length_a   5.18552600
_cell_length_b   8.80550664
_cell_length_c   9.92596773
_cell_angle_alpha   98.40716621
_cell_angle_beta   95.63040601
_cell_angle_gamma   90.16071848
_symmetry_Int_Tables_number   1
_chemical_formula_structural   Li6V5O12
_chemical_formula_sum   'Li12 V10 O24'
_cell_volume   446.13020031
_cell_formula_units_Z   2
loop_
 _symmetry_equiv_pos_site_id
 _symmetry_equiv_pos_as_xyz
  1  'x, y, z'
loop_
 _atom_site_type_symbol
 _atom_site_label
 _atom_site_symmetry_multiplicity
 _atom_site_fract_x
 _atom_site_fract_y
 _atom_site_fract_z
 _atom_site_occupancy
  Li  Li0  1  0.01898800  0.82499800  0.51431100  1
  Li  Li1  1  0.24760800  0.74882800  0.98032700  1
  Li  Li2  1  0.22690900  0.40430600  0.98661800  1
  Li  Li3  1  0.37515000  0.86927500  0.74361800  1
  Li  Li4  1  0.26992000  0.07993100  0.99040600  1
  Li  Li5  1  0.50779200  0.34055300  0.51307000  1
  Li  Li6  1  0.50942900  0.98588300  0.52084200  1
  Li  Li7  1  0.74091400  0.56113900  0.98151900  1
  Li  Li8  1  0.74243400  0.91719000  0.98612600  1
  Li  Li9  1  0.87821500  0.37119900  0.75597900  1
  Li  Li10  1  0.98127300  0.50094200  0.50863900  1
  Li  Li11  1  0.00759500  0.17412100  0.52028700  1
  V  V0  1  0.11757200  0.29211700  0.24732900  1
  V  V1  1  0.12410300  0.62526600  0.24930400  1
  V  V2  1  0.12644000  0.95376400  0.25312500  1
  V  V3  1  0.62477600  0.12556400  0.25104600  1
  V  V4  1  0.61959000  0.45747700  0.24743200  1
  V  V5  1  0.62442400  0.79033500  0.25190800  1
  V  V6  1  0.35600600  0.54084500  0.73980200  1
  V  V7  1  0.40258700  0.20493900  0.76204900  1
  V  V8  1  0.85097100  0.70090200  0.73901700  1
  V  V9  1  0.89685500  0.04406200  0.76050000  1
  O  O0  1  0.03931800  0.89775100  0.86556700  1
  O  O1  1  0.09382900  0.21427900  0.86529100  1
  O  O2  1  0.05875600  0.57318300  0.85948100  1
  O  O3  1  0.19349200  0.03728800  0.64108800  1
  O  O4  1  0.15917700  0.67640400  0.63487100  1
  O  O5  1  0.21312800  0.35925800  0.63528900  1
  O  O6  1  0.30379600  0.14114200  0.36118700  1
  O  O7  1  0.29547400  0.46096900  0.35751700  1
  O  O8  1  0.30597500  0.82109600  0.36432400  1
  O  O9  1  0.52994100  0.38934900  0.85819000  1
  O  O10  1  0.43231500  0.60706400  0.13700200  1
  O  O11  1  0.42989500  0.93929300  0.13825700  1
  O  O12  1  0.42277500  0.27004100  0.14222500  1
  O  O13  1  0.55516900  0.70600000  0.85832700  1
  O  O14  1  0.57615400  0.06199300  0.86366800  1
  O  O15  1  0.67614300  0.52498700  0.63706500  1
  O  O16  1  0.69773400  0.16993600  0.64187700  1
  O  O17  1  0.72303100  0.85356300  0.64215500  1
  O  O18  1  0.81827900  0.97590200  0.36163200  1
  O  O19  1  0.81284300  0.31114300  0.36293000  1
  O  O20  1  0.81978900  0.64194400  0.35712100  1
  O  O21  1  0.93970100  0.43856700  0.13750400  1
  O  O22  1  0.93835300  0.78123300  0.13656200  1
  O  O23  1  0.95508000  0.10450300  0.14605900  1
loop_
_geom_bond_atom_site_label_1
_geom_bond_atom_site_label_2
_geom_bond_distance
_geom_bond_site_symmetry_2
Li0 O4 1.991235 1_555
Li0 O17 2.078417 1_455
Li0 O8 2.202805 1_555
Li0 O3 2.230683 1_565
Li0 O20 2.244678 1_455
Li0 O18 2.330817 1_455
Li1 O2 2.002117 1_555
Li1 O0 2.094540 1_555
Li1 O13 2.097871 1_555
Li1 O11 2.257269 1_556
Li1 O10 2.275134 1_556
Li1 O22 2.327918 1_456
Li2 O1 1.991887 1_555
Li2 O9 2.111103 1_555
Li2 O21 2.204599 1_456
Li2 O2 2.214557 1_555
Li2 O12 2.246745 1_556
Li2 O10 2.334170 1_556
Li3 O3 2.090885 1_565
Li3 O13 2.124264 1_555
Li3 O4 2.125977 1_555
Li3 O14 2.130998 1_565
Li3 O17 2.145880 1_555
Li3 O0 2.210910 1_555
Li4 O1 1.997178 1_555
Li4 O14 2.112935 1_555
Li4 O0 2.157786 1_545
Li4 O11 2.161904 1_546
Li4 O12 2.173019 1_556
Li4 O23 2.344879 1_456
Li5 O15 2.027592 1_555
Li5 O5 2.034773 1_555
Li5 O7 2.207292 1_555
Li5 O19 2.267660 1_555
Li5 O16 2.277008 1_555
Li5 O6 2.318971 1_555
Li6 O17 2.046994 1_555
Li6 O16 2.053046 1_565
Li6 O3 2.131518 1_565
Li6 O8 2.154717 1_555
Li6 O18 2.350932 1_555
Li6 O6 2.414038 1_565
Li7 O9 2.042085 1_555
Li7 O13 2.069285 1_555
Li7 O2 2.150219 1_655
Li7 O21 2.192361 1_556
Li7 O10 2.326350 1_556
Li7 O22 2.445434 1_556
Li8 O14 2.024956 1_565
Li8 O0 2.033332 1_655
Li8 O22 2.219674 1_556
Li8 O13 2.251385 1_555
Li8 O23 2.310230 1_566
Li8 O11 2.311010 1_556
Li9 O2 2.088749 1_655
Li9 O16 2.120181 1_555
Li9 O1 2.132054 1_655
Li9 O15 2.134866 1_555
Li9 O9 2.151779 1_555
Li9 O5 2.198803 1_655
Li10 O4 2.001808 1_655
Li10 O15 2.119458 1_555
Li10 O19 2.164465 1_555
Li10 O5 2.180097 1_655
Li10 O20 2.193035 1_555
Li10 O7 2.314518 1_655
Li11 O3 2.005223 1_555
Li11 O5 2.074599 1_555
Li11 O16 2.105454 1_455
Li11 O19 2.272360 1_455
Li11 O6 2.298216 1_555
Li11 O18 2.318083 1_445
O0 V9 1.881554 1_465
O0 V8 2.156242 1_455
O1 V9 1.923227 1_455
O1 V7 1.979497 1_555
O2 V8 2.000678 1_455
O2 V6 2.032490 1_555
O3 V7 2.003449 1_555
O3 V9 2.027846 1_455
O4 V6 1.926961 1_555
O4 V8 1.982514 1_455
O5 V6 1.881302 1_555
O5 V7 2.158629 1_555
O6 V2 1.999777 1_545
O6 V0 2.051702 1_555
O6 V3 2.073381 1_555
O7 V0 1.891223 1_555
O7 V1 2.076230 1_555
O7 V4 2.090589 1_555
O8 V2 1.905580 1_555
O8 V5 2.078708 1_555
O8 V1 2.090527 1_555
O9 V7 1.844126 1_555
O9 V6 2.056968 1_555
O10 V4 2.024856 1_555
O10 V1 2.030126 1_555
O10 V5 2.031598 1_555
O11 V2 2.025603 1_555
O11 V3 2.048571 1_565
O11 V5 2.056060 1_555
O12 V0 1.974165 1_555
O12 V3 2.017353 1_555
O12 V4 2.033126 1_555
O13 V6 1.954091 1_555
O13 V8 2.024501 1_555
O14 V7 1.900343 1_555
O14 V9 2.031632 1_555
O15 V8 1.897144 1_555
O15 V6 2.026604 1_555
O16 V9 1.957174 1_555
O16 V7 2.028201 1_555
O17 V8 1.851844 1_555
O17 V9 2.052736 1_565
O18 V2 2.007388 1_655
O18 V5 2.030331 1_555
O18 V3 2.040281 1_565
O19 V3 2.025492 1_555
O19 V0 2.035372 1_655
O19 V4 2.047600 1_555
O20 V1 1.985891 1_655
O20 V5 2.005783 1_555
O20 V4 2.037939 1_555
O21 V0 1.980537 1_655
O21 V1 2.024353 1_655
O21 V4 2.068226 1_555
O22 V2 1.963219 1_655
O22 V5 2.075308 1_555
O22 V1 2.076431 1_655
O23 V0 1.946803 1_655
O23 V2 1.978537 1_645
O23 V3 2.085558 1_555
