# generated using pymatgen
data_Hg3H4S2O11
_symmetry_space_group_name_H-M   'P 1'
_cell_length_a   5.82695675
_cell_length_b   5.82695675
_cell_length_c   14.81332612
_cell_angle_alpha   84.42180982
_cell_angle_beta   84.42180982
_cell_angle_gamma   102.90392342
_symmetry_Int_Tables_number   1
_chemical_formula_structural   Hg3H4S2O11
_chemical_formula_sum   'Hg6 H8 S4 O22'
_cell_volume   484.26034652
_cell_formula_units_Z   2
loop_
 _symmetry_equiv_pos_site_id
 _symmetry_equiv_pos_as_xyz
  1  'x, y, z'
loop_
 _atom_site_type_symbol
 _atom_site_label
 _atom_site_symmetry_multiplicity
 _atom_site_fract_x
 _atom_site_fract_y
 _atom_site_fract_z
 _atom_site_occupancy
  Hg  Hg0  1  0.00000000  0.50000000  0.00000000  1
  Hg  Hg1  1  0.50000000  0.00000000  0.50000000  1
  Hg  Hg2  1  0.68286000  0.81450200  0.14895600  1
  Hg  Hg3  1  0.18549800  0.31714000  0.35104400  1
  Hg  Hg4  1  0.31714000  0.18549800  0.85104400  1
  Hg  Hg5  1  0.81450200  0.68286000  0.64895600  1
  H  H0  1  0.09585200  0.71995500  0.14846800  1
  H  H1  1  0.28004500  0.90414800  0.35153200  1
  H  H2  1  0.90414800  0.28004500  0.85153200  1
  H  H3  1  0.71995500  0.09585200  0.64846800  1
  H  H4  1  0.85669200  0.32317700  0.21167200  1
  H  H5  1  0.67682300  0.14330800  0.28832800  1
  H  H6  1  0.14330800  0.67682300  0.78832800  1
  H  H7  1  0.32317700  0.85669200  0.71167200  1
  S  S0  1  0.37505000  0.19249900  0.10458900  1
  S  S1  1  0.80750100  0.62495000  0.39541100  1
  S  S2  1  0.62495000  0.80750100  0.89541100  1
  S  S3  1  0.19249900  0.37505000  0.60458900  1
  O  O0  1  0.94460000  0.61416800  0.13739100  1
  O  O1  1  0.38583200  0.05540000  0.36260900  1
  O  O2  1  0.05540000  0.38583200  0.86260900  1
  O  O3  1  0.61416800  0.94460000  0.63739100  1
  O  O4  1  0.36829700  0.94796400  0.16051900  1
  O  O5  1  0.05203600  0.63170300  0.33948100  1
  O  O6  1  0.63170300  0.05203600  0.83948100  1
  O  O7  1  0.94796400  0.36829700  0.66051900  1
  O  O8  1  0.38327000  0.37090000  0.16911600  1
  O  O9  1  0.62910000  0.61672900  0.33088400  1
  O  O10  1  0.61672900  0.62910000  0.83088400  1
  O  O11  1  0.37090000  0.38327000  0.66911600  1
  O  O12  1  0.15138100  0.15064300  0.06157800  1
  O  O13  1  0.84935700  0.84861900  0.43842200  1
  O  O14  1  0.84861900  0.84935700  0.93842200  1
  O  O15  1  0.15064300  0.15138100  0.56157800  1
  O  O16  1  0.58428700  0.24966400  0.03427800  1
  O  O17  1  0.75033600  0.41571300  0.46572200  1
  O  O18  1  0.41571300  0.75033600  0.96572200  1
  O  O19  1  0.24966400  0.58428700  0.53427800  1
  O  O20  1  0.83185100  0.16814900  0.25000000  1
  O  O21  1  0.16814900  0.83185100  0.75000000  1
loop_
_geom_bond_atom_site_label_1
_geom_bond_atom_site_label_2
_geom_bond_distance
_geom_bond_site_symmetry_2
Hg0 O0 2.218172 1_455
Hg0 O2 2.218172 1_554
Hg0 O16 2.508404 1_455
Hg0 O18 2.508404 1_554
Hg0 O14 2.520239 1_454
Hg0 O12 2.520239 1_555
Hg1 O3 2.218172 1_545
Hg1 O1 2.218172 1_555
Hg1 O19 2.508404 1_545
Hg1 O17 2.508404 1_555
Hg1 O13 2.520239 1_545
Hg1 O15 2.520239 1_555
Hg2 O0 2.121640 1_555
Hg2 O4 2.143669 1_555
Hg3 O1 2.121640 1_555
Hg3 O5 2.143669 1_555
Hg4 O2 2.121640 1_555
Hg4 O6 2.143669 1_555
Hg5 O3 2.121640 1_555
Hg5 O7 2.143669 1_555
H0 O0 0.994378 1_455
H1 O1 0.994378 1_565
H2 O2 0.994378 1_655
H3 O3 0.994378 1_545
H4 O20 0.992597 1_555
H5 O20 0.992597 1_555
H6 O21 0.992597 1_555
H7 O21 0.992597 1_555
O4 S0 1.567614 1_565
O5 S1 1.567614 1_455
O6 S2 1.567614 1_545
O7 S3 1.567614 1_655
O8 S0 1.475273 1_555
O9 S1 1.475273 1_555
O10 S2 1.475273 1_555
O11 S3 1.475273 1_555
O12 S0 1.487856 1_555
O13 S1 1.487856 1_555
O14 S2 1.487856 1_555
O15 S3 1.487856 1_555
O16 S0 1.478695 1_555
O17 S1 1.478695 1_555
O18 S2 1.478695 1_555
O19 S3 1.478695 1_555
