# generated using pymatgen
data_Sr(SiAg)2
_symmetry_space_group_name_H-M   'P 1'
_cell_length_a   4.38351184
_cell_length_b   4.38351278
_cell_length_c   6.10211563
_cell_angle_alpha   111.04983364
_cell_angle_beta   111.04982447
_cell_angle_gamma   89.99998162
_symmetry_Int_Tables_number   1
_chemical_formula_structural   Sr(SiAg)2
_chemical_formula_sum   'Sr1 Si2 Ag2'
_cell_volume   100.99990646
_cell_formula_units_Z   1
loop_
 _symmetry_equiv_pos_site_id
 _symmetry_equiv_pos_as_xyz
  1  'x, y, z'
loop_
 _atom_site_type_symbol
 _atom_site_label
 _atom_site_symmetry_multiplicity
 _atom_site_fract_x
 _atom_site_fract_y
 _atom_site_fract_z
 _atom_site_occupancy
  Sr  Sr0  1  0.00000000  -0.00000000  0.00000000  1
  Si  Si0  1  0.61054150  0.61054150  0.22108300  1
  Si  Si1  1  0.38945850  0.38945850  0.77891700  1
  Ag  Ag0  1  0.25000000  0.75000000  0.50000000  1
  Ag  Ag1  1  0.75000000  0.25000000  0.50000000  1
loop_
_geom_bond_atom_site_label_1
_geom_bond_atom_site_label_2
_geom_bond_distance
_geom_bond_site_symmetry_2
Si0 Si1 2.324138 1_554
Si0 Sr0 3.310286 1_655
Si0 Sr0 3.310286 1_565
Si0 Sr0 3.310286 1_665
Si0 Sr0 3.310287 1_555
Si1 Sr0 3.310286 1_566
Si1 Sr0 3.310286 1_656
Si1 Sr0 3.310286 1_556
Si1 Sr0 3.310287 1_666
Ag0 Si0 2.636877 1_555
Ag0 Si0 2.636878 1_455
Ag0 Si1 2.636878 1_555
Ag0 Si1 2.636878 1_565
Ag0 Ag1 3.099611 1_465
Ag0 Ag1 3.099611 1_555
Ag0 Ag1 3.099612 1_455
Ag0 Ag1 3.099612 1_565
Ag0 Sr0 3.422112 1_566
Ag0 Sr0 3.422112 1_565
Ag0 Sr0 3.422112 1_666
Ag0 Sr0 3.422112 1_555
Ag1 Si1 2.636877 1_555
Ag1 Si1 2.636878 1_655
Ag1 Si0 2.636878 1_555
Ag1 Si0 2.636878 1_545
Ag1 Sr0 3.422112 1_655
Ag1 Sr0 3.422112 1_656
Ag1 Sr0 3.422112 1_555
Ag1 Sr0 3.422112 1_666
