# generated using pymatgen
data_Li24Mn7Cr5O36
_symmetry_space_group_name_H-M   'P 1'
_cell_length_a   5.01748600
_cell_length_b   9.74538432
_cell_length_c   13.25725851
_cell_angle_alpha   97.14661829
_cell_angle_beta   100.72469616
_cell_angle_gamma   94.88923847
_symmetry_Int_Tables_number   1
_chemical_formula_structural   Li24Mn7Cr5O36
_chemical_formula_sum   'Li24 Mn7 Cr5 O36'
_cell_volume   628.05577009
_cell_formula_units_Z   1
loop_
 _symmetry_equiv_pos_site_id
 _symmetry_equiv_pos_as_xyz
  1  'x, y, z'
loop_
 _atom_site_type_symbol
 _atom_site_label
 _atom_site_symmetry_multiplicity
 _atom_site_fract_x
 _atom_site_fract_y
 _atom_site_fract_z
 _atom_site_occupancy
  Li  Li0  1  0.17131800  0.99988600  0.83230500  1
  Li  Li1  1  0.04873700  0.99998200  0.61424200  1
  Li  Li2  1  0.00016400  0.74990100  0.25043100  1
  Li  Li3  1  0.33656600  0.74942900  0.91713300  1
  Li  Li4  1  0.04741100  0.49944100  0.11215100  1
  Li  Li5  1  0.38391800  0.49970900  0.77862400  1
  Li  Li6  1  0.16379900  0.50040600  0.33326000  1
  Li  Li7  1  0.50319200  0.50045100  0.99994300  1
  Li  Li8  1  0.28468000  0.50096800  0.55519300  1
  Li  Li9  1  0.33279100  0.25002000  0.41630200  1
  Li  Li10  1  0.50170900  0.99958900  0.49992300  1
  Li  Li11  1  0.28329900  0.99976700  0.05352800  1
  Li  Li12  1  0.61559000  0.99865400  0.71934200  1
  Li  Li13  1  0.38426300  0.99921700  0.28007300  1
  Li  Li14  1  0.71447300  0.00156600  0.94725900  1
  Li  Li15  1  0.66588500  0.75064900  0.58420000  1
  Li  Li16  1  0.71498900  0.49942900  0.44417700  1
  Li  Li17  1  0.83481600  0.49923600  0.66671800  1
  Li  Li18  1  0.62054700  0.50113500  0.22201100  1
  Li  Li19  1  0.94597700  0.49975200  0.88794000  1
  Li  Li20  1  0.66675600  0.24997000  0.08301800  1
  Li  Li21  1  0.83229800  0.00024300  0.16660100  1
  Li  Li22  1  0.99790700  0.25013400  0.74858900  1
  Li  Li23  1  0.95036400  0.00022900  0.38644100  1
  Mn  Mn0  1  0.22612000  0.75278600  0.69458100  1
  Mn  Mn1  1  0.55536600  0.25084000  0.86133100  1
  Mn  Mn2  1  0.44313600  0.75020600  0.13899000  1
  Mn  Mn3  1  0.55387000  0.74841000  0.35978900  1
  Mn  Mn4  1  0.77986000  0.25096300  0.30619800  1
  Mn  Mn5  1  0.88729600  0.24916700  0.52763700  1
  Mn  Mn6  1  0.88762100  0.74882200  0.02869700  1
  Cr  Cr0  1  0.10624100  0.24775200  0.96998800  1
  Cr  Cr1  1  0.10451900  0.75020500  0.47312900  1
  Cr  Cr2  1  0.22928300  0.25102300  0.19492300  1
  Cr  Cr3  1  0.43970500  0.24987100  0.63723400  1
  Cr  Cr4  1  0.78378800  0.74972200  0.80743900  1
  O  O0  1  0.99519900  0.86132200  0.92807300  1
  O  O1  1  0.06459100  0.63696800  0.78405400  1
  O  O2  1  0.00239500  0.36177600  0.42924200  1
  O  O3  1  0.13813700  0.36298900  0.64236200  1
  O  O4  1  0.26379800  0.36324100  0.88319600  1
  O  O5  1  0.33821400  0.86351000  0.59758100  1
  O  O6  1  0.06857300  0.13639700  0.28401100  1
  O  O7  1  0.18900500  0.13822100  0.52394500  1
  O  O8  1  0.40872700  0.13418500  0.95059700  1
  O  O9  1  0.14410500  0.86157800  0.14318300  1
  O  O10  1  0.26573800  0.86387400  0.38233900  1
  O  O11  1  0.47808300  0.86124300  0.80937200  1
  O  O12  1  0.33719700  0.13873000  0.73743200  1
  O  O13  1  0.18911300  0.63855700  0.02342900  1
  O  O14  1  0.40235900  0.63625900  0.45090100  1
  O  O15  1  0.52227800  0.63835900  0.69064300  1
  O  O16  1  0.33136600  0.63820200  0.23736200  1
  O  O17  1  0.66509800  0.63716100  0.90702900  1
  O  O18  1  0.32822100  0.36226200  0.09671500  1
  O  O19  1  0.66825100  0.36254700  0.76282000  1
  O  O20  1  0.47904900  0.36194600  0.31078200  1
  O  O21  1  0.59781400  0.36364500  0.55011400  1
  O  O22  1  0.80429000  0.36274100  0.97604100  1
  O  O23  1  0.66725100  0.86146000  0.26187300  1
  O  O24  1  0.52636000  0.13787600  0.19155900  1
  O  O25  1  0.74130300  0.13461900  0.61752200  1
  O  O26  1  0.85734900  0.13850400  0.85726300  1
  O  O27  1  0.59621400  0.86353000  0.04819000  1
  O  O28  1  0.81312200  0.86144500  0.47455300  1
  O  O29  1  0.93452600  0.86533600  0.71339200  1
  O  O30  1  0.66436700  0.13829600  0.40465500  1
  O  O31  1  0.73643700  0.63652300  0.11907500  1
  O  O32  1  0.85073500  0.63677100  0.35520300  1
  O  O33  1  0.00334600  0.63883400  0.57082400  1
  O  O34  1  0.92652200  0.36477700  0.21582100  1
  O  O35  1  0.00261400  0.13678800  0.06951600  1
loop_
_geom_bond_atom_site_label_1
_geom_bond_atom_site_label_2
_geom_bond_distance
_geom_bond_site_symmetry_2
Li0 O8 2.029662 1_565
Li0 O29 2.034498 1_455
Li0 O11 2.171068 1_555
Li0 O12 2.174076 1_565
Li0 O0 2.203867 1_455
Li0 O26 2.204900 1_465
Li1 O7 2.072798 1_565
Li1 O5 2.074320 1_555
Li1 O29 2.087900 1_455
Li1 O25 2.111561 1_465
Li1 O12 2.197167 1_565
Li1 O28 2.222807 1_455
Li2 O32 2.081980 1_455
Li2 O16 2.084497 1_555
Li2 O23 2.087582 1_455
Li2 O9 2.088265 1_555
Li2 O31 2.102083 1_455
Li2 O10 2.112941 1_555
Li3 O17 2.070112 1_555
Li3 O13 2.081171 1_556
Li3 O11 2.089377 1_555
Li3 O27 2.093408 1_556
Li3 O0 2.124916 1_455
Li3 O1 2.131643 1_555
Li4 O18 2.043174 1_555
Li4 O13 2.066570 1_555
Li4 O34 2.145335 1_455
Li4 O31 2.146105 1_455
Li4 O22 2.196462 1_454
Li4 O16 2.201555 1_555
Li5 O15 2.049816 1_555
Li5 O19 2.057322 1_555
Li5 O4 2.164948 1_555
Li5 O1 2.178501 1_555
Li5 O3 2.202559 1_555
Li5 O17 2.213413 1_555
Li6 O34 2.029355 1_455
Li6 O14 2.034508 1_555
Li6 O2 2.173700 1_555
Li6 O32 2.178940 1_455
Li6 O16 2.180981 1_555
Li6 O20 2.202433 1_555
Li7 O4 2.036087 1_555
Li7 O31 2.036887 1_556
Li7 O17 2.132720 1_555
Li7 O22 2.145185 1_555
Li7 O13 2.198111 1_556
Li7 O18 2.208576 1_556
Li8 O33 2.050256 1_555
Li8 O3 2.053912 1_555
Li8 O14 2.150198 1_555
Li8 O21 2.153915 1_555
Li8 O15 2.184354 1_555
Li8 O2 2.205211 1_555
Li9 O20 2.076180 1_555
Li9 O2 2.081070 1_555
Li9 O30 2.083191 1_555
Li9 O7 2.092862 1_555
Li9 O6 2.112042 1_555
Li9 O21 2.126894 1_555
Li10 O10 2.028356 1_555
Li10 O25 2.032183 1_565
Li10 O30 2.169985 1_565
Li10 O5 2.178264 1_555
Li10 O28 2.192828 1_555
Li10 O7 2.197418 1_565
Li11 O35 2.042707 1_565
Li11 O9 2.064220 1_555
Li11 O8 2.144293 1_564
Li11 O27 2.146181 1_555
Li11 O0 2.211454 1_454
Li11 O24 2.219055 1_565
Li12 O12 2.059222 1_565
Li12 O11 2.059250 1_555
Li12 O25 2.143626 1_565
Li12 O5 2.144675 1_555
Li12 O29 2.151962 1_555
Li12 O26 2.223692 1_565
Li13 O23 2.061172 1_555
Li13 O24 2.062277 1_565
Li13 O10 2.131375 1_555
Li13 O6 2.161778 1_565
Li13 O30 2.189630 1_565
Li13 O9 2.202174 1_555
Li14 O26 2.066338 1_555
Li14 O0 2.071624 1_545
Li14 O8 2.091580 1_555
Li14 O27 2.135278 1_546
Li14 O35 2.173800 1_656
Li14 O11 2.216535 1_545
Li15 O5 2.076643 1_555
Li15 O15 2.082373 1_555
Li15 O29 2.099323 1_555
Li15 O33 2.112811 1_655
Li15 O28 2.116333 1_555
Li15 O14 2.121999 1_555
Li16 O32 2.045271 1_555
Li16 O2 2.070804 1_655
Li16 O14 2.150729 1_555
Li16 O20 2.164463 1_555
Li16 O21 2.169386 1_555
Li16 O33 2.225148 1_655
Li17 O21 2.022261 1_555
Li17 O1 2.024793 1_655
Li17 O3 2.145726 1_655
Li17 O19 2.173686 1_555
Li17 O33 2.194615 1_655
Li17 O15 2.199650 1_555
Li18 O20 2.067128 1_555
Li18 O16 2.074518 1_555
Li18 O34 2.120621 1_555
Li18 O31 2.133958 1_555
Li18 O32 2.144545 1_555
Li18 O18 2.222079 1_555
Li19 O22 2.046376 1_555
Li19 O17 2.052680 1_555
Li19 O1 2.160279 1_655
Li19 O4 2.166765 1_655
Li19 O19 2.179767 1_555
Li19 O13 2.200689 1_656
Li20 O22 2.078012 1_554
Li20 O24 2.096990 1_555
Li20 O8 2.107955 1_554
Li20 O34 2.111291 1_555
Li20 O35 2.113861 1_655
Li20 O18 2.120839 1_555
Li21 O6 2.029782 1_655
Li21 O27 2.039861 1_545
Li21 O24 2.166667 1_555
Li21 O23 2.175711 1_545
Li21 O35 2.190715 1_655
Li21 O9 2.192464 1_645
Li22 O3 2.076091 1_655
Li22 O19 2.084511 1_555
Li22 O25 2.092315 1_555
Li22 O26 2.096158 1_555
Li22 O12 2.113642 1_655
Li22 O4 2.133819 1_655
Li23 O28 2.049801 1_545
Li23 O30 2.074885 1_555
Li23 O6 2.137921 1_655
Li23 O10 2.155265 1_645
Li23 O23 2.194929 1_545
Li23 O7 2.206448 1_655
Mn0 O5 1.909278 1_555
Mn0 O11 1.920232 1_555
Mn0 O29 1.935745 1_455
Mn0 O15 1.936802 1_555
Mn0 O33 1.956267 1_555
Mn0 O1 1.967938 1_555
Mn1 O22 1.926162 1_555
Mn1 O19 1.932736 1_555
Mn1 O8 1.936618 1_555
Mn1 O12 1.941746 1_555
Mn1 O4 1.943213 1_555
Mn1 O26 1.948255 1_555
Mn2 O9 1.930251 1_555
Mn2 O16 1.931000 1_555
Mn2 O23 1.940320 1_555
Mn2 O13 1.943598 1_555
Mn2 O27 1.946517 1_555
Mn2 O31 1.952579 1_555
Mn3 O32 1.923410 1_555
Mn3 O16 1.929161 1_555
Mn3 O23 1.935541 1_555
Mn3 O14 1.939092 1_555
Mn3 O10 1.949367 1_555
Mn3 O28 1.955120 1_555
Mn4 O34 1.930544 1_555
Mn4 O20 1.935864 1_555
Mn4 O2 1.937035 1_655
Mn4 O24 1.940881 1_555
Mn4 O30 1.942871 1_555
Mn4 O6 1.945280 1_655
Mn5 O25 1.928520 1_555
Mn5 O30 1.937453 1_555
Mn5 O7 1.938163 1_655
Mn5 O3 1.938434 1_655
Mn5 O2 1.941123 1_655
Mn5 O21 1.948766 1_555
Mn6 O17 1.928301 1_554
Mn6 O31 1.931773 1_555
Mn6 O13 1.935377 1_655
Mn6 O9 1.945313 1_655
Mn6 O27 1.949772 1_555
Mn6 O0 1.950364 1_554
Cr0 O26 1.899800 1_455
Cr0 O35 1.922306 1_556
Cr0 O4 1.929949 1_555
Cr0 O22 1.967185 1_455
Cr0 O18 1.983337 1_556
Cr0 O8 1.988771 1_555
Cr1 O28 1.894365 1_455
Cr1 O33 1.900971 1_555
Cr1 O10 1.967623 1_555
Cr1 O32 1.968945 1_455
Cr1 O14 1.979529 1_555
Cr1 O5 1.980476 1_555
Cr2 O18 1.901778 1_555
Cr2 O24 1.931929 1_555
Cr2 O20 1.933339 1_555
Cr2 O6 1.955035 1_555
Cr2 O35 1.979098 1_555
Cr2 O34 1.995154 1_455
Cr3 O7 1.918029 1_555
Cr3 O21 1.924158 1_555
Cr3 O12 1.928598 1_555
Cr3 O3 1.952777 1_555
Cr3 O19 1.978034 1_555
Cr3 O25 1.995909 1_555
Cr4 O0 1.898659 1_555
Cr4 O1 1.905339 1_655
Cr4 O11 1.956130 1_555
Cr4 O17 1.960295 1_555
Cr4 O15 1.969772 1_555
Cr4 O29 1.987775 1_555
