# generated using pymatgen
data_NaNdPCO7
_symmetry_space_group_name_H-M   'P 1'
_cell_length_a   7.16264300
_cell_length_b   5.29800500
_cell_length_c   9.74337498
_cell_angle_alpha   89.50475107
_cell_angle_beta   90.00000000
_cell_angle_gamma   90.00000000
_symmetry_Int_Tables_number   1
_chemical_formula_structural   NaNdPCO7
_chemical_formula_sum   'Na2 Nd2 P2 C2 O14'
_cell_volume   369.72503806
_cell_formula_units_Z   2
loop_
 _symmetry_equiv_pos_site_id
 _symmetry_equiv_pos_as_xyz
  1  'x, y, z'
loop_
 _atom_site_type_symbol
 _atom_site_label
 _atom_site_symmetry_multiplicity
 _atom_site_fract_x
 _atom_site_fract_y
 _atom_site_fract_z
 _atom_site_occupancy
  Na  Na0  1  0.53597100  0.77052800  0.76917700  1
  Na  Na1  1  0.03597100  0.22947200  0.23082300  1
  Nd  Nd0  1  0.22120800  0.22049500  0.62663300  1
  Nd  Nd1  1  0.72120800  0.77950500  0.37336700  1
  P  P0  1  0.72832700  0.28440600  0.58353500  1
  P  P1  1  0.22832700  0.71559400  0.41646500  1
  C  C0  1  0.27864900  0.27604200  0.92915100  1
  C  C1  1  0.77864900  0.72395800  0.07084900  1
  O  O0  1  0.73887000  0.68848700  0.94553500  1
  O  O1  1  0.28887200  0.05061800  0.88095400  1
  O  O2  1  0.30289100  0.45998900  0.84324900  1
  O  O3  1  0.90542800  0.21172200  0.66411100  1
  O  O4  1  0.55404000  0.15283400  0.64416100  1
  O  O5  1  0.24915800  0.78985300  0.57178300  1
  O  O6  1  0.69873500  0.57640300  0.58420000  1
  O  O7  1  0.19873500  0.42359700  0.41580000  1
  O  O8  1  0.74915800  0.21014700  0.42821700  1
  O  O9  1  0.05404000  0.84716600  0.35583900  1
  O  O10  1  0.40542800  0.78827800  0.33588900  1
  O  O11  1  0.80289100  0.54001100  0.15675100  1
  O  O12  1  0.78887200  0.94938200  0.11904600  1
  O  O13  1  0.23887000  0.31151300  0.05446500  1
loop_
_geom_bond_atom_site_label_1
_geom_bond_atom_site_label_2
_geom_bond_distance
_geom_bond_site_symmetry_2
Na0 O0 2.289258 1_555
Na0 O4 2.358028 1_565
Na0 O6 2.386887 1_555
Na0 O2 2.448320 1_555
Na0 O1 2.559012 1_565
Na0 O5 2.815388 1_555
Na1 O13 2.289258 1_555
Na1 O9 2.358028 1_545
Na1 O7 2.386887 1_555
Na1 O11 2.448320 1_455
Na1 O12 2.559012 1_445
Na1 O8 2.815388 1_455
Nd0 O3 2.291514 1_455
Nd0 O7 2.316331 1_555
Nd0 O5 2.356312 1_545
Nd0 O4 2.416580 1_555
Nd0 O2 2.540288 1_555
Nd0 O1 2.673306 1_555
Nd0 O5 3.065430 1_555
Nd1 O10 2.291514 1_555
Nd1 O6 2.316331 1_555
Nd1 O8 2.356312 1_565
Nd1 O9 2.416580 1_655
Nd1 O11 2.540288 1_555
Nd1 O12 2.673306 1_555
Nd1 O8 3.065430 1_555
C0 O13 1.269354 1_556
C0 O1 1.289158 1_555
C0 O2 1.290864 1_555
C1 O0 1.269354 1_554
C1 O12 1.289158 1_555
C1 O11 1.290864 1_555
O3 P0 1.539005 1_555
O4 P0 1.544703 1_555
O5 P1 1.574001 1_555
O6 P0 1.561523 1_555
O7 P1 1.561523 1_555
O8 P0 1.574001 1_555
O9 P1 1.544703 1_555
O10 P1 1.539005 1_555
