# generated using pymatgen
data_LiFeP2O7
_symmetry_space_group_name_H-M   'P 1'
_cell_length_a   8.06464900
_cell_length_b   4.94889600
_cell_length_c   14.20387287
_cell_angle_alpha   79.33603324
_cell_angle_beta   90.00000000
_cell_angle_gamma   90.00000000
_symmetry_Int_Tables_number   1
_chemical_formula_structural   LiFeP2O7
_chemical_formula_sum   'Li4 Fe4 P8 O28'
_cell_volume   557.10173185
_cell_formula_units_Z   4
loop_
 _symmetry_equiv_pos_site_id
 _symmetry_equiv_pos_as_xyz
  1  'x, y, z'
loop_
 _atom_site_type_symbol
 _atom_site_label
 _atom_site_symmetry_multiplicity
 _atom_site_fract_x
 _atom_site_fract_y
 _atom_site_fract_z
 _atom_site_occupancy
  Li  Li0  1  0.85835200  0.95297100  0.37907800  1
  Li  Li1  1  0.35835200  0.04702900  0.12092200  1
  Li  Li2  1  0.64164800  0.95297100  0.87907800  1
  Li  Li3  1  0.14164800  0.04702900  0.62092200  1
  Fe  Fe0  1  0.76395200  0.67095300  0.68901900  1
  Fe  Fe1  1  0.26395200  0.32904700  0.81098100  1
  Fe  Fe2  1  0.73604800  0.67095300  0.18901900  1
  Fe  Fe3  1  0.23604800  0.32904700  0.31098100  1
  P  P0  1  0.71841000  0.26248100  0.04427600  1
  P  P1  1  0.47123500  0.84310100  0.32249400  1
  P  P2  1  0.97123500  0.15689900  0.17750600  1
  P  P3  1  0.21841000  0.73751900  0.45572400  1
  P  P4  1  0.78159000  0.26248100  0.54427600  1
  P  P5  1  0.02876500  0.84310100  0.82249400  1
  P  P6  1  0.52876500  0.15689900  0.67750600  1
  P  P7  1  0.28159000  0.73751900  0.95572400  1
  O  O0  1  0.55070700  0.84292200  0.70770000  1
  O  O1  1  0.85427700  0.30951900  0.23587500  1
  O  O2  1  0.32143400  0.45237300  0.93038800  1
  O  O3  1  0.13259700  0.96687400  0.38151600  1
  O  O4  1  0.15271000  0.24452000  0.18620000  1
  O  O5  1  0.19531800  0.75660000  0.55780600  1
  O  O6  1  0.92044200  0.22886800  0.06693000  1
  O  O7  1  0.42044200  0.77113200  0.43307000  1
  O  O8  1  0.69531800  0.24340000  0.94219400  1
  O  O9  1  0.65271000  0.75548000  0.31380000  1
  O  O10  1  0.63259700  0.03312600  0.11848400  1
  O  O11  1  0.82143400  0.54762700  0.56961200  1
  O  O12  1  0.35427700  0.69048100  0.26412500  1
  O  O13  1  0.05070700  0.15707800  0.79230000  1
  O  O14  1  0.94929300  0.84292200  0.20770000  1
  O  O15  1  0.64572300  0.30951900  0.73587500  1
  O  O16  1  0.17856600  0.45237300  0.43038800  1
  O  O17  1  0.36740300  0.96687400  0.88151600  1
  O  O18  1  0.34729000  0.24452000  0.68620000  1
  O  O19  1  0.30468200  0.75660000  0.05780600  1
  O  O20  1  0.57955800  0.22886800  0.56693000  1
  O  O21  1  0.07955800  0.77113200  0.93307000  1
  O  O22  1  0.80468200  0.24340000  0.44219400  1
  O  O23  1  0.84729000  0.75548000  0.81380000  1
  O  O24  1  0.86740300  0.03312600  0.61848400  1
  O  O25  1  0.67856600  0.54762700  0.06961200  1
  O  O26  1  0.14572300  0.69048100  0.76412500  1
  O  O27  1  0.44929300  0.15707800  0.29230000  1
loop_
_geom_bond_atom_site_label_1
_geom_bond_atom_site_label_2
_geom_bond_distance
_geom_bond_site_symmetry_2
Li0 O22 1.879830 1_565
Li0 O3 2.213230 1_655
Li0 O9 2.213756 1_555
Li0 O1 2.433845 1_565
Li1 O19 1.879830 1_545
Li1 O10 2.213230 1_555
Li1 O4 2.213756 1_555
Li1 O12 2.433845 1_545
Li2 O8 1.879830 1_565
Li2 O17 2.213230 1_555
Li2 O23 2.213756 1_555
Li2 O15 2.433845 1_565
Li3 O5 1.879830 1_545
Li3 O24 2.213230 1_455
Li3 O18 2.213756 1_555
Li3 O26 2.433845 1_545
Fe0 O0 1.958522 1_555
Fe0 O11 1.961392 1_555
Fe0 O23 2.010571 1_555
Fe0 O15 2.027540 1_555
Fe0 O24 2.061007 1_565
Fe1 O13 1.958522 1_555
Fe1 O2 1.961392 1_555
Fe1 O18 2.010571 1_555
Fe1 O26 2.027540 1_555
Fe1 O17 2.061007 1_545
Fe2 O14 1.958522 1_555
Fe2 O25 1.961392 1_555
Fe2 O9 2.010571 1_555
Fe2 O1 2.027540 1_555
Fe2 O10 2.061007 1_565
Fe3 O27 1.958522 1_555
Fe3 O16 1.961392 1_555
Fe3 O4 2.010571 1_555
Fe3 O12 2.027540 1_555
Fe3 O3 2.061007 1_545
O0 P6 1.543706 1_565
O1 P2 1.542484 1_555
O2 P7 1.553085 1_555
O3 P3 1.560610 1_555
O4 P2 1.537864 1_455
O5 P3 1.482112 1_555
O6 P2 1.598257 1_555
O6 P0 1.663152 1_555
O7 P1 1.598257 1_555
O7 P3 1.663152 1_555
O8 P0 1.482112 1_556
O9 P1 1.537864 1_555
O10 P0 1.560610 1_555
O11 P4 1.553085 1_555
O12 P1 1.542484 1_555
O13 P5 1.543706 1_545
O14 P2 1.543706 1_565
O15 P6 1.542484 1_555
O16 P3 1.553085 1_555
O17 P7 1.560610 1_555
O18 P6 1.537864 1_555
O19 P7 1.482112 1_554
O20 P6 1.598257 1_555
O20 P4 1.663152 1_555
O21 P5 1.598257 1_555
O21 P7 1.663152 1_555
O22 P4 1.482112 1_555
O23 P5 1.537864 1_655
O24 P4 1.560610 1_555
O25 P0 1.553085 1_555
O26 P5 1.542484 1_555
O27 P1 1.543706 1_545
