# generated using pymatgen
data_LiNb5O8
_symmetry_space_group_name_H-M   'P 1'
_cell_length_a   9.76951900
_cell_length_b   8.20879600
_cell_length_c   10.30486307
_cell_angle_alpha   70.17699224
_cell_angle_beta   90.00000000
_cell_angle_gamma   90.00000000
_symmetry_Int_Tables_number   1
_chemical_formula_structural   LiNb5O8
_chemical_formula_sum   'Li4 Nb20 O32'
_cell_volume   777.43956043
_cell_formula_units_Z   4
loop_
 _symmetry_equiv_pos_site_id
 _symmetry_equiv_pos_as_xyz
  1  'x, y, z'
loop_
 _atom_site_type_symbol
 _atom_site_label
 _atom_site_symmetry_multiplicity
 _atom_site_fract_x
 _atom_site_fract_y
 _atom_site_fract_z
 _atom_site_occupancy
  Li  Li0  1  0.43123000  0.61623800  0.51979500  1
  Li  Li1  1  0.06877000  0.61623800  0.01979500  1
  Li  Li2  1  0.93123000  0.38376200  0.98020500  1
  Li  Li3  1  0.56877000  0.38376200  0.48020500  1
  Nb  Nb0  1  0.64635200  0.00706600  0.90041600  1
  Nb  Nb1  1  0.38813400  0.79365500  0.89467300  1
  Nb  Nb2  1  0.85364800  0.00706600  0.40041600  1
  Nb  Nb3  1  0.87946300  0.79086600  0.70648000  1
  Nb  Nb4  1  0.11186600  0.79365500  0.39467300  1
  Nb  Nb5  1  0.11911200  0.60321600  0.68933400  1
  Nb  Nb6  1  0.62053700  0.79086600  0.20648000  1
  Nb  Nb7  1  0.86744900  0.62259900  0.51679500  1
  Nb  Nb8  1  0.36744900  0.37740100  0.98320500  1
  Nb  Nb9  1  0.61911200  0.39678400  0.81066600  1
  Nb  Nb10  1  0.38088800  0.60321600  0.18933400  1
  Nb  Nb11  1  0.63255100  0.62259900  0.01679500  1
  Nb  Nb12  1  0.13255100  0.37740100  0.48320500  1
  Nb  Nb13  1  0.37946300  0.20913400  0.79352000  1
  Nb  Nb14  1  0.88088800  0.39678400  0.31066600  1
  Nb  Nb15  1  0.88813400  0.20634500  0.60532700  1
  Nb  Nb16  1  0.12053700  0.20913400  0.29352000  1
  Nb  Nb17  1  0.14635200  0.99293400  0.59958400  1
  Nb  Nb18  1  0.61186600  0.20634500  0.10532700  1
  Nb  Nb19  1  0.35364800  0.99293400  0.09958400  1
  O  O0  1  0.26974800  0.98924300  0.92192400  1
  O  O1  1  0.99461800  0.99309500  0.73452900  1
  O  O2  1  0.23025200  0.98924300  0.42192400  1
  O  O3  1  0.75089600  0.79914400  0.87231200  1
  O  O4  1  0.25638700  0.78223600  0.72934800  1
  O  O5  1  0.50538200  0.99309500  0.23452900  1
  O  O6  1  0.50007200  0.59223300  0.85618200  1
  O  O7  1  0.99667700  0.60431900  0.84833900  1
  O  O8  1  0.74910400  0.79914400  0.37231200  1
  O  O9  1  0.74696400  0.60592500  0.68146800  1
  O  O10  1  0.24361300  0.78223600  0.22934800  1
  O  O11  1  0.73830400  0.39812700  0.98083900  1
  O  O12  1  0.23830400  0.60187300  0.51916100  1
  O  O13  1  0.99992800  0.59223300  0.35618200  1
  O  O14  1  0.24696400  0.39407500  0.81853200  1
  O  O15  1  0.50332300  0.60431900  0.34833900  1
  O  O16  1  0.49667700  0.39568100  0.65166100  1
  O  O17  1  0.75303600  0.60592500  0.18146800  1
  O  O18  1  0.00007200  0.40776700  0.64381800  1
  O  O19  1  0.76169600  0.39812700  0.48083900  1
  O  O20  1  0.26169600  0.60187300  0.01916100  1
  O  O21  1  0.75638700  0.21776400  0.77065200  1
  O  O22  1  0.25303600  0.39407500  0.31853200  1
  O  O23  1  0.25089600  0.20085600  0.62768800  1
  O  O24  1  0.00332300  0.39568100  0.15166100  1
  O  O25  1  0.49992800  0.40776700  0.14381800  1
  O  O26  1  0.49461800  0.00690500  0.76547100  1
  O  O27  1  0.74361300  0.21776400  0.27065200  1
  O  O28  1  0.24910400  0.20085600  0.12768800  1
  O  O29  1  0.76974800  0.01075700  0.57807600  1
  O  O30  1  0.00538200  0.00690500  0.26547100  1
  O  O31  1  0.73025200  0.01075700  0.07807600  1
loop_
_geom_bond_atom_site_label_1
_geom_bond_atom_site_label_2
_geom_bond_distance
_geom_bond_site_symmetry_2
Li0 O12 1.888629 1_555
Li0 O15 1.935088 1_555
Li0 O16 1.965871 1_555
Li1 O20 1.888629 1_555
Li1 O7 1.935088 1_454
Li1 O24 1.965871 1_555
Li2 O11 1.888629 1_555
Li2 O24 1.935088 1_656
Li2 O7 1.965871 1_555
Li3 O19 1.888629 1_555
Li3 O16 1.935088 1_555
Li3 O15 1.965871 1_555
Nb0 O31 2.015459 1_556
Nb0 O26 2.032831 1_555
Nb0 O21 2.089626 1_555
Nb0 O3 2.091745 1_545
Nb1 O20 2.068855 1_556
Nb1 O0 2.073663 1_555
Nb1 O26 2.082901 1_565
Nb1 O6 2.128822 1_555
Nb1 O4 2.162444 1_555
Nb2 O29 2.015459 1_555
Nb2 O30 2.032831 1_655
Nb2 O27 2.089626 1_555
Nb2 O8 2.091745 1_545
Nb3 O7 2.067603 1_555
Nb3 O9 2.076580 1_555
Nb3 O1 2.104854 1_555
Nb3 O29 2.130256 1_565
Nb3 O3 2.140389 1_555
Nb4 O12 2.068855 1_555
Nb4 O2 2.073663 1_555
Nb4 O30 2.082901 1_565
Nb4 O13 2.128822 1_455
Nb4 O10 2.162444 1_555
Nb5 O7 2.031166 1_455
Nb5 O12 2.108156 1_555
Nb5 O4 2.130521 1_555
Nb5 O18 2.158000 1_555
Nb5 O14 2.174819 1_555
Nb6 O15 2.067603 1_555
Nb6 O17 2.076580 1_555
Nb6 O5 2.104854 1_555
Nb6 O31 2.130256 1_565
Nb6 O8 2.140389 1_555
Nb7 O9 2.031331 1_555
Nb7 O8 2.047024 1_555
Nb7 O13 2.180914 1_555
Nb7 O18 2.221819 1_655
Nb7 O19 2.250132 1_555
Nb8 O14 2.031331 1_555
Nb8 O28 2.047024 1_556
Nb8 O25 2.180914 1_556
Nb8 O6 2.221819 1_555
Nb8 O20 2.250132 1_556
Nb9 O16 2.031166 1_555
Nb9 O11 2.108156 1_555
Nb9 O21 2.130521 1_555
Nb9 O6 2.158000 1_555
Nb9 O9 2.174819 1_555
Nb10 O15 2.031166 1_555
Nb10 O20 2.108156 1_555
Nb10 O10 2.130521 1_555
Nb10 O25 2.158000 1_555
Nb10 O22 2.174819 1_555
Nb11 O17 2.031331 1_555
Nb11 O3 2.047024 1_554
Nb11 O6 2.180914 1_554
Nb11 O25 2.221819 1_555
Nb11 O11 2.250132 1_554
Nb12 O22 2.031331 1_555
Nb12 O23 2.047024 1_555
Nb12 O18 2.180914 1_555
Nb12 O13 2.221819 1_455
Nb12 O12 2.250132 1_555
Nb13 O16 2.067603 1_555
Nb13 O14 2.076580 1_555
Nb13 O26 2.104854 1_555
Nb13 O0 2.130256 1_545
Nb13 O23 2.140389 1_555
Nb14 O24 2.031166 1_655
Nb14 O19 2.108156 1_555
Nb14 O27 2.130521 1_555
Nb14 O13 2.158000 1_555
Nb14 O17 2.174819 1_555
Nb15 O19 2.068855 1_555
Nb15 O29 2.073663 1_555
Nb15 O1 2.082901 1_545
Nb15 O18 2.128822 1_655
Nb15 O21 2.162444 1_555
Nb16 O24 2.067603 1_555
Nb16 O22 2.076580 1_555
Nb16 O30 2.104854 1_555
Nb16 O2 2.130256 1_545
Nb16 O28 2.140389 1_555
Nb17 O2 2.015459 1_555
Nb17 O1 2.032831 1_455
Nb17 O4 2.089626 1_555
Nb17 O23 2.091745 1_565
Nb18 O11 2.068855 1_554
Nb18 O31 2.073663 1_555
Nb18 O5 2.082901 1_545
Nb18 O25 2.128822 1_555
Nb18 O27 2.162444 1_555
Nb19 O0 2.015459 1_554
Nb19 O5 2.032831 1_555
Nb19 O10 2.089626 1_555
Nb19 O28 2.091745 1_565
