# generated using pymatgen
data_LiMnV(P2O7)2
_symmetry_space_group_name_H-M   'P 1'
_cell_length_a   7.03219000
_cell_length_b   8.15945794
_cell_length_c   18.39287034
_cell_angle_alpha   90.26054958
_cell_angle_beta   92.59685500
_cell_angle_gamma   92.04150499
_symmetry_Int_Tables_number   1
_chemical_formula_structural   LiMnV(P2O7)2
_chemical_formula_sum   'Li4 Mn4 V4 P16 O56'
_cell_volume   1053.58887660
_cell_formula_units_Z   4
loop_
 _symmetry_equiv_pos_site_id
 _symmetry_equiv_pos_as_xyz
  1  'x, y, z'
loop_
 _atom_site_type_symbol
 _atom_site_label
 _atom_site_symmetry_multiplicity
 _atom_site_fract_x
 _atom_site_fract_y
 _atom_site_fract_z
 _atom_site_occupancy
  Li  Li0  1  0.38034900  0.86338800  0.70804200  1
  Li  Li1  1  0.12991600  0.86317500  0.45791100  1
  Li  Li2  1  0.87897000  0.86331400  0.20736000  1
  Li  Li3  1  0.37214700  0.35800100  0.04329700  1
  Mn  Mn0  1  0.07106100  0.00690000  0.80440700  1
  Mn  Mn1  1  0.82081300  0.00662800  0.55442900  1
  Mn  Mn2  1  0.57014000  0.00709200  0.30439400  1
  Mn  Mn3  1  0.32968700  0.99308000  0.05152900  1
  V  V0  1  0.67022000  0.50601100  0.94498100  1
  V  V1  1  0.41834700  0.49383900  0.69892100  1
  V  V2  1  0.16826200  0.49395800  0.44918900  1
  V  V3  1  0.91846000  0.49556300  0.19920300  1
  P  P0  1  0.41813200  0.17480500  0.89982200  1
  P  P1  1  0.03513300  0.78106900  0.94494900  1
  P  P2  1  0.71763300  0.28606600  0.80390700  1
  P  P3  1  0.33323800  0.67863800  0.84885300  1
  P  P4  1  0.78739300  0.78154100  0.69544000  1
  P  P5  1  0.16950700  0.17636700  0.64891100  1
  P  P6  1  0.46855000  0.28723700  0.55374300  1
  P  P7  1  0.08370400  0.67913000  0.59937200  1
  P  P8  1  0.91940800  0.17639700  0.39887700  1
  P  P9  1  0.53708600  0.78148400  0.44546300  1
  P  P10  1  0.83374800  0.67930600  0.34944200  1
  P  P11  1  0.21839500  0.28753200  0.30379400  1
  P  P12  1  0.67111100  0.17701900  0.14842400  1
  P  P13  1  0.28743100  0.78178000  0.19510200  1
  P  P14  1  0.96215000  0.29072100  0.05272400  1
  P  P15  1  0.58396300  0.68196100  0.10031200  1
  O  O0  1  0.82833200  0.33923200  0.98875300  1
  O  O1  1  0.85955400  0.67929200  0.96600600  1
  O  O2  1  0.99013700  0.93213100  0.90015600  1
  O  O3  1  0.42607800  0.03820900  0.95567200  1
  O  O4  1  0.45063300  0.34479800  0.93756900  1
  O  O5  1  0.50848000  0.66260900  0.90237700  1
  O  O6  1  0.76001700  0.44009500  0.85224700  1
  O  O7  1  0.59882200  0.15189400  0.85045300  1
  O  O8  1  0.15160000  0.65232900  0.89793300  1
  O  O9  1  0.88665300  0.20014100  0.77922100  1
  O  O10  1  0.24014200  0.17466200  0.84967600  1
  O  O11  1  0.90909500  0.82554500  0.76386200  1
  O  O12  1  0.32487200  0.84417300  0.81261000  1
  O  O13  1  0.32157700  0.53520400  0.79449300  1
  O  O14  1  0.58311300  0.33564200  0.73907300  1
  O  O15  1  0.60343700  0.68704400  0.71486300  1
  O  O16  1  0.89890200  0.65249600  0.64756800  1
  O  O17  1  0.73566400  0.93238700  0.65048400  1
  O  O18  1  0.98899000  0.17277900  0.60044800  1
  O  O19  1  0.18737500  0.03866800  0.70484900  1
  O  O20  1  0.20001600  0.34777600  0.68366100  1
  O  O21  1  0.25913300  0.67183900  0.65315700  1
  O  O22  1  0.50532400  0.43952800  0.60339500  1
  O  O23  1  0.34933100  0.14993700  0.59872900  1
  O  O24  1  0.63835900  0.20223400  0.52914000  1
  O  O25  1  0.65797500  0.82586700  0.51409800  1
  O  O26  1  0.93737900  0.03870100  0.45476300  1
  O  O27  1  0.07188900  0.84421200  0.56229500  1
  O  O28  1  0.95006000  0.34769200  0.43369400  1
  O  O29  1  0.07359100  0.53528700  0.54533600  1
  O  O30  1  0.33372700  0.33651700  0.48889100  1
  O  O31  1  0.35334200  0.68701600  0.46502000  1
  O  O32  1  0.64924900  0.65260600  0.39785100  1
  O  O33  1  0.48537400  0.93229600  0.40055200  1
  O  O34  1  0.73883400  0.17270200  0.35033600  1
  O  O35  1  0.82130600  0.84431400  0.31222400  1
  O  O36  1  0.82343300  0.53537400  0.29548100  1
  O  O37  1  0.00920900  0.67193900  0.40320200  1
  O  O38  1  0.25536800  0.43947700  0.35350500  1
  O  O39  1  0.09903200  0.14997100  0.34854000  1
  O  O40  1  0.38808000  0.20229800  0.27892700  1
  O  O41  1  0.40693900  0.82768900  0.26391300  1
  O  O42  1  0.68545400  0.03886900  0.20377000  1
  O  O43  1  0.70074800  0.34786000  0.18351200  1
  O  O44  1  0.76040100  0.66960400  0.15353100  1
  O  O45  1  0.08439700  0.33767300  0.23883200  1
  O  O46  1  0.10236900  0.68988100  0.21508100  1
  O  O47  1  0.85030100  0.15040000  0.09813400  1
  O  O48  1  0.39891000  0.64887700  0.14950400  1
  O  O49  1  0.24025300  0.93133100  0.14839200  1
  O  O50  1  0.48930600  0.17646200  0.09938100  1
  O  O51  1  0.57333400  0.84823000  0.06707400  1
  O  O52  1  0.56530000  0.53723000  0.04613800  1
  O  O53  1  0.00513000  0.44134900  0.10328800  1
  O  O54  1  0.14238500  0.21411000  0.03066000  1
  O  O55  1  0.15358800  0.82204400  0.01488400  1
loop_
_geom_bond_atom_site_label_1
_geom_bond_atom_site_label_2
_geom_bond_distance
_geom_bond_site_symmetry_2
Li0 O12 1.985513 1_555
Li0 O21 2.000302 1_555
Li0 O19 2.005552 1_565
Li0 O15 2.166067 1_555
Li1 O27 1.986390 1_555
Li1 O37 1.995449 1_555
Li1 O26 2.004881 1_465
Li1 O31 2.166954 1_555
Li2 O35 1.994406 1_555
Li2 O44 1.997680 1_555
Li2 O42 2.009904 1_565
Li2 O46 2.151912 1_655
Li3 O52 1.958999 1_555
Li3 O54 1.967584 1_555
Li3 O50 1.990185 1_555
Li3 O4 2.048768 1_554
Mn0 O10 1.940288 1_555
Mn0 O11 1.958569 1_445
Mn0 O2 1.968084 1_445
Mn0 O19 2.052874 1_555
Mn0 O9 2.116664 1_455
Mn0 O12 2.262226 1_545
Mn1 O18 1.933300 1_555
Mn1 O25 1.956950 1_545
Mn1 O17 1.981558 1_545
Mn1 O26 2.055743 1_555
Mn1 O24 2.123319 1_555
Mn1 O27 2.244962 1_645
Mn2 O34 1.931803 1_555
Mn2 O41 1.951220 1_545
Mn2 O33 1.983743 1_545
Mn2 O42 2.067731 1_555
Mn2 O40 2.119715 1_555
Mn2 O35 2.247278 1_545
Mn3 O55 1.930828 1_555
Mn3 O3 1.949345 1_564
Mn3 O49 1.977516 1_555
Mn3 O50 2.013039 1_565
Mn3 O51 2.125378 1_555
Mn3 O54 2.294446 1_565
O0 P14 1.535276 1_556
O0 V0 1.942404 1_555
O1 P1 1.528836 1_655
O1 V0 1.932760 1_555
O2 P1 1.520378 1_655
O3 P0 1.519940 1_555
O4 P0 1.553204 1_555
O4 V0 1.991971 1_555
O5 P3 1.551656 1_555
O5 V0 1.890036 1_555
O6 P2 1.548554 1_555
O6 V0 1.926318 1_555
O7 P0 1.610576 1_555
O7 P2 1.624097 1_555
O8 P3 1.605998 1_555
O8 P1 1.624579 1_555
O9 P2 1.488558 1_555
O10 P0 1.520730 1_555
O11 P4 1.523656 1_555
O12 P3 1.510780 1_555
O13 P3 1.533360 1_555
O13 V1 1.945863 1_555
O14 P2 1.552397 1_555
O14 V1 1.895194 1_555
O15 P4 1.539119 1_555
O15 V1 2.019980 1_555
O16 P7 1.614908 1_655
O16 P4 1.616112 1_555
O17 P4 1.531294 1_555
O18 P5 1.517048 1_655
O19 P5 1.531523 1_555
O20 P5 1.539060 1_555
O20 V1 1.919369 1_555
O21 P7 1.548949 1_555
O21 V1 2.028068 1_555
O22 P6 1.546078 1_555
O22 V1 1.940910 1_555
O23 P5 1.618921 1_555
O23 P6 1.626937 1_555
O24 P6 1.488922 1_555
O25 P9 1.524514 1_555
O26 P8 1.530919 1_555
O27 P7 1.515754 1_555
O28 P8 1.538810 1_555
O28 V2 1.920119 1_655
O29 P7 1.532128 1_555
O29 V2 1.949743 1_555
O30 P6 1.553200 1_555
O30 V2 1.890894 1_555
O31 P9 1.538439 1_555
O31 V2 2.018801 1_555
O32 P9 1.614972 1_555
O32 P10 1.615511 1_555
O33 P9 1.530598 1_555
O34 P8 1.518150 1_555
O35 P10 1.516685 1_555
O36 P10 1.531780 1_555
O36 V3 1.950737 1_555
O37 P10 1.548889 1_455
O37 V2 2.028939 1_555
O38 P11 1.544621 1_555
O38 V2 1.944237 1_555
O39 P8 1.619502 1_455
O39 P11 1.626535 1_555
O40 P11 1.490776 1_555
O41 P13 1.524892 1_555
O42 P12 1.525227 1_555
O43 P12 1.536887 1_555
O43 V3 1.924842 1_555
O44 P15 1.551618 1_555
O44 V3 1.999106 1_555
O45 P11 1.553330 1_555
O45 V3 1.895052 1_455
O46 P13 1.538583 1_555
O46 V3 2.021693 1_455
O47 P12 1.616755 1_555
O47 P14 1.622099 1_555
O48 P13 1.614243 1_555
O48 P15 1.633659 1_555
O49 P13 1.532888 1_555
O50 P12 1.530776 1_555
O51 P15 1.493484 1_555
O52 P15 1.539825 1_555
O52 V0 2.050475 1_554
O53 P14 1.550644 1_455
O53 V3 1.946515 1_455
O54 P14 1.504200 1_455
O55 P1 1.529509 1_554
