# generated using pymatgen
data_CuH8(ClO5)2
_symmetry_space_group_name_H-M   'P 1'
_cell_length_a   7.32512800
_cell_length_b   9.65810200
_cell_length_c   12.94879900
_cell_angle_alpha   90.00000000
_cell_angle_beta   90.00000000
_cell_angle_gamma   90.00000000
_symmetry_Int_Tables_number   1
_chemical_formula_structural   CuH8(ClO5)2
_chemical_formula_sum   'Cu4 H32 Cl8 O40'
_cell_volume   916.08652542
_cell_formula_units_Z   4
loop_
 _symmetry_equiv_pos_site_id
 _symmetry_equiv_pos_as_xyz
  1  'x, y, z'
loop_
 _atom_site_type_symbol
 _atom_site_label
 _atom_site_symmetry_multiplicity
 _atom_site_fract_x
 _atom_site_fract_y
 _atom_site_fract_z
 _atom_site_occupancy
  Cu  Cu0  1  0.00000000  0.50000000  0.00000000  1
  Cu  Cu1  1  0.00000000  0.00000000  0.50000000  1
  Cu  Cu2  1  0.50000000  0.00000000  0.00000000  1
  Cu  Cu3  1  0.50000000  0.50000000  0.50000000  1
  H  H0  1  0.27578800  0.53316500  0.12190800  1
  H  H1  1  0.72421200  0.96683500  0.62190800  1
  H  H2  1  0.22421200  0.03316500  0.87809200  1
  H  H3  1  0.77578800  0.46683500  0.37809200  1
  H  H4  1  0.72421200  0.46683500  0.87809200  1
  H  H5  1  0.27578800  0.03316500  0.37809200  1
  H  H6  1  0.77578800  0.96683500  0.12190800  1
  H  H7  1  0.22421200  0.53316500  0.62190800  1
  H  H8  1  0.12372400  0.64753900  0.15351100  1
  H  H9  1  0.87627600  0.85246100  0.65351100  1
  H  H10  1  0.37627600  0.14753900  0.84648900  1
  H  H11  1  0.62372400  0.35246100  0.34648900  1
  H  H12  1  0.87627600  0.35246100  0.84648900  1
  H  H13  1  0.12372400  0.14753900  0.34648900  1
  H  H14  1  0.62372400  0.85246100  0.15351100  1
  H  H15  1  0.37627600  0.64753900  0.65351100  1
  H  H16  1  0.01185800  0.68550400  0.85538700  1
  H  H17  1  0.98814200  0.81449600  0.35538700  1
  H  H18  1  0.48814200  0.18550400  0.14461300  1
  H  H19  1  0.51185800  0.31449600  0.64461300  1
  H  H20  1  0.98814200  0.31449600  0.14461300  1
  H  H21  1  0.01185800  0.18550400  0.64461300  1
  H  H22  1  0.51185800  0.81449600  0.85538700  1
  H  H23  1  0.48814200  0.68550400  0.35538700  1
  H  H24  1  0.07701600  0.75563800  0.96213000  1
  H  H25  1  0.92298400  0.74436200  0.46213000  1
  H  H26  1  0.42298400  0.25563800  0.03787000  1
  H  H27  1  0.57701600  0.24436200  0.53787000  1
  H  H28  1  0.92298400  0.24436200  0.03787000  1
  H  H29  1  0.07701600  0.25563800  0.53787000  1
  H  H30  1  0.57701600  0.74436200  0.96213000  1
  H  H31  1  0.42298400  0.75563800  0.46213000  1
  Cl  Cl0  1  0.15040400  0.43058800  0.33702600  1
  Cl  Cl1  1  0.84959600  0.06941200  0.83702600  1
  Cl  Cl2  1  0.34959600  0.93058800  0.66297400  1
  Cl  Cl3  1  0.65040400  0.56941200  0.16297400  1
  Cl  Cl4  1  0.84959600  0.56941200  0.66297400  1
  Cl  Cl5  1  0.15040400  0.93058800  0.16297400  1
  Cl  Cl6  1  0.65040400  0.06941200  0.33702600  1
  Cl  Cl7  1  0.34959600  0.43058800  0.83702600  1
  O  O0  1  0.14174400  0.55350100  0.12326700  1
  O  O1  1  0.85825600  0.94649900  0.62326700  1
  O  O2  1  0.35825600  0.05350100  0.87673300  1
  O  O3  1  0.64174400  0.44649900  0.37673300  1
  O  O4  1  0.85825600  0.44649900  0.87673300  1
  O  O5  1  0.14174400  0.05350100  0.37673300  1
  O  O6  1  0.64174400  0.94649900  0.12326700  1
  O  O7  1  0.35825600  0.55350100  0.62326700  1
  O  O8  1  0.07538900  0.66869700  0.92185600  1
  O  O9  1  0.92461100  0.83130300  0.42185600  1
  O  O10  1  0.42461100  0.16869700  0.07814400  1
  O  O11  1  0.57538900  0.33130300  0.57814400  1
  O  O12  1  0.92461100  0.33130300  0.07814400  1
  O  O13  1  0.07538900  0.16869700  0.57814400  1
  O  O14  1  0.57538900  0.83130300  0.92185600  1
  O  O15  1  0.42461100  0.66869700  0.42185600  1
  O  O16  1  0.22619400  0.37630800  0.43785900  1
  O  O17  1  0.77380600  0.12369200  0.93785900  1
  O  O18  1  0.27380600  0.87630800  0.56214100  1
  O  O19  1  0.72619400  0.62369200  0.06214100  1
  O  O20  1  0.77380600  0.62369200  0.56214100  1
  O  O21  1  0.22619400  0.87630800  0.06214100  1
  O  O22  1  0.72619400  0.12369200  0.43785900  1
  O  O23  1  0.27380600  0.37630800  0.93785900  1
  O  O24  1  0.07253900  0.30375800  0.28211600  1
  O  O25  1  0.92746100  0.19624200  0.78211600  1
  O  O26  1  0.42746100  0.80375800  0.71788400  1
  O  O27  1  0.57253900  0.69624200  0.21788400  1
  O  O28  1  0.92746100  0.69624200  0.71788400  1
  O  O29  1  0.07253900  0.80375800  0.21788400  1
  O  O30  1  0.57253900  0.19624200  0.28211600  1
  O  O31  1  0.42746100  0.30375800  0.78211600  1
  O  O32  1  0.99390200  0.52525200  0.36040900  1
  O  O33  1  0.00609800  0.97474800  0.86040900  1
  O  O34  1  0.50609800  0.02525200  0.63959100  1
  O  O35  1  0.49390200  0.47474800  0.13959100  1
  O  O36  1  0.00609800  0.47474800  0.63959100  1
  O  O37  1  0.99390200  0.02525200  0.13959100  1
  O  O38  1  0.49390200  0.97474800  0.36040900  1
  O  O39  1  0.50609800  0.52525200  0.86040900  1
loop_
_geom_bond_atom_site_label_1
_geom_bond_atom_site_label_2
_geom_bond_distance
_geom_bond_site_symmetry_2
Cu0 O0 1.973012 1_555
Cu0 O4 1.973012 1_454
Cu0 O8 1.995856 1_554
Cu0 O12 1.995856 1_455
Cu0 O19 2.469270 1_455
Cu0 O23 2.469270 1_554
Cu1 O5 1.973012 1_555
Cu1 O1 1.973012 1_445
Cu1 O13 1.995856 1_555
Cu1 O9 1.995856 1_445
Cu1 O18 2.469270 1_545
Cu1 O22 2.469270 1_455
Cu2 O6 1.973012 1_545
Cu2 O2 1.973012 1_554
Cu2 O10 1.995856 1_555
Cu2 O14 1.995856 1_544
Cu2 O17 2.469270 1_554
Cu2 O21 2.469270 1_545
Cu3 O3 1.973012 1_555
Cu3 O7 1.973012 1_555
Cu3 O11 1.995856 1_555
Cu3 O15 1.995856 1_555
Cu3 O20 2.469270 1_555
Cu3 O16 2.469270 1_555
H0 O0 1.001495 1_555
H0 O35 1.709805 1_555
H1 O1 1.001495 1_555
H1 O34 1.709805 1_565
H2 O2 1.001495 1_555
H2 O33 1.709805 1_545
H3 O3 1.001495 1_555
H3 O32 1.709805 1_555
H4 O4 1.001495 1_555
H4 O39 1.709805 1_555
H5 O5 1.001495 1_555
H5 O38 1.709805 1_545
H6 O6 1.001495 1_555
H6 O37 1.709805 1_565
H7 O7 1.001495 1_555
H7 O36 1.709805 1_555
H8 O0 0.997834 1_555
H9 O1 0.997834 1_555
H10 O2 0.997834 1_555
H11 O3 0.997834 1_555
H12 O4 0.997834 1_555
H13 O5 0.997834 1_555
H14 O6 0.997834 1_555
H15 O7 0.997834 1_555
H16 O8 0.991824 1_555
H17 O9 0.991824 1_555
H18 O10 0.991824 1_555
H19 O11 0.991824 1_555
H20 O12 0.991824 1_555
H21 O13 0.991824 1_555
H22 O14 0.991824 1_555
H23 O15 0.991824 1_555
H24 O8 0.988522 1_555
H25 O9 0.988522 1_555
H26 O10 0.988522 1_555
H27 O11 0.988522 1_555
H28 O12 0.988522 1_555
H29 O13 0.988522 1_555
H30 O14 0.988522 1_555
H31 O15 0.988522 1_555
Cl0 O32 1.497265 1_455
Cl0 O16 1.512551 1_555
Cl0 O24 1.526873 1_555
Cl1 O33 1.497265 1_645
Cl1 O17 1.512551 1_555
Cl1 O25 1.526873 1_555
Cl2 O34 1.497265 1_565
Cl2 O18 1.512551 1_555
Cl2 O26 1.526873 1_555
Cl3 O35 1.497265 1_555
Cl3 O19 1.512551 1_555
Cl3 O27 1.526873 1_555
Cl4 O36 1.497265 1_655
Cl4 O20 1.512551 1_555
Cl4 O28 1.526873 1_555
Cl5 O37 1.497265 1_465
Cl5 O21 1.512551 1_555
Cl5 O29 1.526873 1_555
Cl6 O38 1.497265 1_545
Cl6 O22 1.512551 1_555
Cl6 O30 1.526873 1_555
Cl7 O39 1.497265 1_555
Cl7 O23 1.512551 1_555
Cl7 O31 1.526873 1_555
