# generated using pymatgen
data_Li4FeCo5O12
_symmetry_space_group_name_H-M   'P 1'
_cell_length_a   4.94850254
_cell_length_b   4.92415171
_cell_length_c   9.96202867
_cell_angle_alpha   89.91771909
_cell_angle_beta   89.94540489
_cell_angle_gamma   59.83343798
_symmetry_Int_Tables_number   1
_chemical_formula_structural   Li4FeCo5O12
_chemical_formula_sum   'Li4 Fe1 Co5 O12'
_cell_volume   209.87070079
_cell_formula_units_Z   1
loop_
 _symmetry_equiv_pos_site_id
 _symmetry_equiv_pos_as_xyz
  1  'x, y, z'
loop_
 _atom_site_type_symbol
 _atom_site_label
 _atom_site_symmetry_multiplicity
 _atom_site_fract_x
 _atom_site_fract_y
 _atom_site_fract_z
 _atom_site_occupancy
  Li  Li0  1  0.15394600  0.51115700  0.74848600  1
  Li  Li1  1  0.34154900  0.49716800  0.25092200  1
  Li  Li2  1  0.65388800  0.50839500  0.74907100  1
  Li  Li3  1  0.84061200  0.49895000  0.24979000  1
  Fe  Fe0  1  0.00324600  0.99918700  0.00019100  1
  Co  Co0  1  0.16475700  0.66880500  0.49923200  1
  Co  Co1  1  0.66866900  0.66766700  0.00003700  1
  Co  Co2  1  0.33757600  0.32915800  0.99972800  1
  Co  Co3  1  0.83636100  0.32536900  0.49986000  1
  Co  Co4  1  0.49930100  0.99953300  0.49953400  1
  O  O0  1  0.01042900  0.64639500  0.10585700  1
  O  O1  1  0.34648600  0.64809500  0.89433300  1
  O  O2  1  0.16355800  0.33594200  0.39881100  1
  O  O3  1  0.50714400  0.65675400  0.39895500  1
  O  O4  1  0.49784900  0.33653900  0.60044900  1
  O  O5  1  0.16458700  0.00222800  0.59584200  1
  O  O6  1  0.83437000  0.65744800  0.60000800  1
  O  O7  1  0.65856500  0.34979900  0.10577300  1
  O  O8  1  0.33836600  0.99854900  0.09859600  1
  O  O9  1  0.99522100  0.35115000  0.89377800  1
  O  O10  1  0.66874800  0.99778300  0.90147200  1
  O  O11  1  0.83034500  0.00451700  0.40332200  1
loop_
_geom_bond_atom_site_label_1
_geom_bond_atom_site_label_2
_geom_bond_distance
_geom_bond_site_symmetry_2
Li0 O9 1.987265 1_455
Li0 O6 2.015974 1_455
Li0 O1 2.030922 1_555
Li0 O4 2.082923 1_555
Li1 O7 1.983181 1_555
Li1 O0 2.025982 1_555
Li1 O3 2.028940 1_555
Li1 O2 2.067257 1_555
Li2 O1 1.956600 1_555
Li2 O4 2.041315 1_555
Li2 O6 2.048082 1_555
Li2 O9 2.053702 1_555
Li3 O0 1.974128 1_655
Li3 O7 2.019844 1_555
Li3 O2 2.028298 1_655
Li3 O3 2.060326 1_555
Fe0 O8 1.925870 1_555
Fe0 O10 1.929178 1_454
Fe0 O1 2.009111 1_554
Fe0 O7 2.009596 1_465
Fe0 O9 2.013629 1_464
Fe0 O0 2.014934 1_555
Co0 O5 1.903947 1_565
Co0 O11 1.906102 1_465
Co0 O4 1.923168 1_555
Co0 O2 1.924024 1_555
Co0 O3 1.941135 1_555
Co0 O6 1.942312 1_455
Co1 O10 1.898046 1_554
Co1 O8 1.901397 1_555
Co1 O9 1.905574 1_554
Co1 O7 1.906778 1_555
Co1 O0 1.951274 1_655
Co1 O1 1.953954 1_554
Co2 O8 1.899838 1_546
Co2 O10 1.902719 1_545
Co2 O1 1.906713 1_555
Co2 O0 1.907533 1_556
Co2 O9 1.953095 1_455
Co2 O7 1.953250 1_556
Co3 O11 1.863768 1_555
Co3 O5 1.866926 1_655
Co3 O3 1.911519 1_555
Co3 O6 1.912547 1_555
Co3 O4 1.928103 1_555
Co3 O2 1.928503 1_655
Co4 O5 1.907623 1_565
Co4 O11 1.907935 1_565
Co4 O2 1.934839 1_565
Co4 O4 1.938388 1_565
Co4 O6 1.944179 1_555
Co4 O3 1.947662 1_555
