# generated using pymatgen
data_Sr2YI7
_symmetry_space_group_name_H-M   'P 1'
_cell_length_a   14.61040900
_cell_length_b   8.31070100
_cell_length_c   14.91182783
_cell_angle_alpha   79.37934749
_cell_angle_beta   90.00000000
_cell_angle_gamma   90.00000000
_symmetry_Int_Tables_number   1
_chemical_formula_structural   Sr2YI7
_chemical_formula_sum   'Sr8 Y4 I28'
_cell_volume   1779.61697819
_cell_formula_units_Z   4
loop_
 _symmetry_equiv_pos_site_id
 _symmetry_equiv_pos_as_xyz
  1  'x, y, z'
loop_
 _atom_site_type_symbol
 _atom_site_label
 _atom_site_symmetry_multiplicity
 _atom_site_fract_x
 _atom_site_fract_y
 _atom_site_fract_z
 _atom_site_occupancy
  Sr  Sr0  1  0.53775900  0.75094500  0.77165900  1
  Sr  Sr1  1  0.12771100  0.75822600  0.65524800  1
  Sr  Sr2  1  0.79651800  0.77119400  0.15795200  1
  Sr  Sr3  1  0.36948000  0.62117700  0.26650400  1
  Sr  Sr4  1  0.86948000  0.37882300  0.73349600  1
  Sr  Sr5  1  0.29651800  0.22880600  0.84204800  1
  Sr  Sr6  1  0.62771100  0.24177400  0.34475200  1
  Sr  Sr7  1  0.03775900  0.24905500  0.22834100  1
  Y  Y0  1  0.84583000  0.85207300  0.55416300  1
  Y  Y1  1  0.07497000  0.84272600  0.05400900  1
  Y  Y2  1  0.57497000  0.15727400  0.94599100  1
  Y  Y3  1  0.34583000  0.14792700  0.44583700  1
  I  I0  1  0.69535100  0.88638500  0.90404900  1
  I  I1  1  0.41881200  0.92569500  0.99704700  1
  I  I2  1  0.51211600  0.95467700  0.51162800  1
  I  I3  1  0.16380000  0.88378000  0.86645900  1
  I  I4  1  0.25312900  0.84476200  0.40442200  1
  I  I5  1  0.74962400  0.87999400  0.37125800  1
  I  I6  1  0.91811400  0.79239000  0.74951400  1
  I  I7  1  0.00336900  0.83459600  0.25094300  1
  I  I8  1  0.34016700  0.60652600  0.70118900  1
  I  I9  1  0.58803000  0.60360000  0.19974000  1
  I  I10  1  0.68979500  0.61469600  0.62745500  1
  I  I11  1  0.71643300  0.42244800  0.88796700  1
  I  I12  1  0.96661100  0.55120000  0.53951900  1
  I  I13  1  0.44543200  0.44368000  0.95280500  1
  I  I14  1  0.94543200  0.55632000  0.04719500  1
  I  I15  1  0.46661100  0.44880000  0.46048100  1
  I  I16  1  0.21643300  0.57755200  0.11203300  1
  I  I17  1  0.18979500  0.38530400  0.37254500  1
  I  I18  1  0.08803000  0.39640000  0.80026000  1
  I  I19  1  0.84016700  0.39347400  0.29881100  1
  I  I20  1  0.50336900  0.16540400  0.74905700  1
  I  I21  1  0.41811400  0.20761000  0.25048600  1
  I  I22  1  0.24962400  0.12000600  0.62874200  1
  I  I23  1  0.75312900  0.15523800  0.59557800  1
  I  I24  1  0.66380000  0.11622000  0.13354100  1
  I  I25  1  0.01211600  0.04532300  0.48837200  1
  I  I26  1  0.91881200  0.07430500  0.00295300  1
  I  I27  1  0.19535100  0.11361500  0.09595100  1
loop_
_geom_bond_atom_site_label_1
_geom_bond_atom_site_label_2
_geom_bond_distance
_geom_bond_site_symmetry_2
I0 Y2 3.011953 1_565
I0 Sr0 3.359299 1_555
I0 Sr2 4.012499 1_556
I1 Y2 2.991477 1_565
I1 Sr5 3.568504 1_565
I2 Y3 2.977174 1_565
I2 Sr6 3.542448 1_565
I2 Sr0 3.952519 1_555
I3 Y1 3.044779 1_556
I3 Sr5 3.424873 1_565
I3 Sr1 3.535222 1_555
I4 Y3 3.022796 1_565
I4 Sr3 3.461326 1_555
I5 Y0 3.038958 1_555
I5 Sr6 3.454093 1_565
I5 Sr2 3.530515 1_555
I6 Y0 3.051978 1_555
I6 Sr1 3.403135 1_655
I6 Sr4 3.560583 1_555
I7 Y1 3.106394 1_555
I7 Sr2 3.406372 1_455
I7 Sr7 3.435452 1_565
I8 Sr0 3.368069 1_555
I8 Sr1 3.372780 1_555
I8 Sr5 3.498891 1_555
I9 Sr3 3.355895 1_555
I9 Sr2 3.359617 1_555
I9 Sr6 3.414298 1_555
I10 Y0 3.080378 1_555
I10 Sr0 3.426059 1_555
I10 Sr4 3.477430 1_555
I11 Y2 3.028898 1_555
I11 Sr4 3.277986 1_555
I11 Sr0 3.940878 1_555
I12 Y0 3.100856 1_555
I12 Sr4 3.302361 1_555
I12 Sr1 3.545832 1_655
I13 Y2 3.057276 1_555
I13 Sr5 3.425999 1_555
I13 Sr0 3.618620 1_555
I14 Y1 3.057276 1_655
I14 Sr2 3.425999 1_555
I14 Sr7 3.618620 1_655
I15 Y3 3.100856 1_555
I15 Sr3 3.302361 1_555
I15 Sr6 3.545832 1_555
I16 Y1 3.028898 1_555
I16 Sr3 3.277986 1_555
I16 Sr7 3.940878 1_555
I17 Y3 3.080378 1_555
I17 Sr7 3.426059 1_555
I17 Sr3 3.477430 1_555
I18 Sr4 3.355895 1_455
I18 Sr5 3.359617 1_555
I18 Sr1 3.414298 1_555
I19 Sr7 3.368069 1_655
I19 Sr6 3.372780 1_555
I19 Sr2 3.498891 1_555
I20 Y2 3.106394 1_555
I20 Sr5 3.406372 1_555
I20 Sr0 3.435452 1_545
I21 Y3 3.051978 1_555
I21 Sr6 3.403135 1_555
I21 Sr3 3.560583 1_555
I22 Y3 3.038958 1_555
I22 Sr1 3.454093 1_545
I22 Sr5 3.530515 1_555
I23 Y0 3.022796 1_545
I23 Sr4 3.461326 1_555
I24 Y2 3.044779 1_554
I24 Sr2 3.424873 1_545
I24 Sr6 3.535222 1_555
I25 Y0 2.977174 1_445
I25 Sr1 3.542448 1_545
I25 Sr7 3.952519 1_555
I26 Y1 2.991477 1_645
I26 Sr2 3.568504 1_545
I27 Y1 3.011953 1_545
I27 Sr7 3.359299 1_555
I27 Sr5 4.012499 1_554
