# generated using pymatgen
data_LiFe2(BO3)2
_symmetry_space_group_name_H-M   'P 1'
_cell_length_a   5.24702400
_cell_length_b   9.14558830
_cell_length_c   11.36373894
_cell_angle_alpha   112.88918305
_cell_angle_beta   103.08066429
_cell_angle_gamma   89.98534651
_symmetry_Int_Tables_number   1
_chemical_formula_structural   LiFe2(BO3)2
_chemical_formula_sum   'Li4 Fe8 B8 O24'
_cell_volume   486.99267782
_cell_formula_units_Z   4
loop_
 _symmetry_equiv_pos_site_id
 _symmetry_equiv_pos_as_xyz
  1  'x, y, z'
loop_
 _atom_site_type_symbol
 _atom_site_label
 _atom_site_symmetry_multiplicity
 _atom_site_fract_x
 _atom_site_fract_y
 _atom_site_fract_z
 _atom_site_occupancy
  Li  Li0  1  0.02875300  0.03299300  0.39715000  1
  Li  Li1  1  0.48324400  0.50710400  0.65774600  1
  Li  Li2  1  0.98838100  0.01049800  0.66659500  1
  Li  Li3  1  0.76526700  0.74817000  0.15883300  1
  Fe  Fe0  1  0.01785900  0.35995100  0.37432000  1
  Fe  Fe1  1  0.27243600  0.93334100  0.88453000  1
  Fe  Fe2  1  0.47146000  0.15295600  0.62837100  1
  Fe  Fe3  1  0.23639300  0.56156900  0.13113900  1
  Fe  Fe4  1  0.77037900  0.42975300  0.87540300  1
  Fe  Fe5  1  0.52776000  0.84257900  0.38608000  1
  Fe  Fe6  1  0.96368500  0.65818700  0.62817900  1
  Fe  Fe7  1  0.74967200  0.06948600  0.12914100  1
  B  B0  1  0.02583700  0.68398300  0.37294400  1
  B  B1  1  0.26303100  0.60076500  0.87597800  1
  B  B2  1  0.48047700  0.82069800  0.63556500  1
  B  B3  1  0.23805300  0.88801500  0.12818800  1
  B  B4  1  0.51439200  0.18601900  0.37924500  1
  B  B5  1  0.76706300  0.10081100  0.87579600  1
  B  B6  1  0.97603300  0.31464400  0.62183700  1
  B  B7  1  0.72933300  0.40423600  0.13079300  1
  O  O0  1  0.01299000  0.07063800  0.85734400  1
  O  O1  1  0.13806700  0.71405800  0.83824800  1
  O  O2  1  0.13441800  0.51678900  0.92947000  1
  O  O3  1  0.08296700  0.17256600  0.60850300  1
  O  O4  1  0.08489800  0.42321600  0.58354300  1
  O  O5  1  0.24525400  0.85627800  0.67702600  1
  O  O6  1  0.24770100  0.65416400  0.32267800  1
  O  O7  1  0.50779300  0.56579000  0.85628800  1
  O  O8  1  0.64081700  0.21795300  0.84036200  1
  O  O9  1  0.42563500  0.07068800  0.41692900  1
  O  O10  1  0.36573600  0.30704800  0.37642400  1
  O  O11  1  0.63669700  0.01524000  0.92488600  1
  O  O12  1  0.35146200  0.98067500  0.07801600  1
  O  O13  1  0.59264300  0.68607700  0.63301200  1
  O  O14  1  0.59479500  0.92660100  0.59533100  1
  O  O15  1  0.39356300  0.77528100  0.16070100  1
  O  O16  1  0.47130500  0.40940400  0.12641000  1
  O  O17  1  0.75252100  0.35066400  0.67385400  1
  O  O18  1  0.76398100  0.17751900  0.34900500  1
  O  O19  1  0.94203300  0.58227200  0.42311300  1
  O  O20  1  0.89542500  0.81393100  0.36916700  1
  O  O21  1  0.84795400  0.50499300  0.08367200  1
  O  O22  1  0.88318300  0.30779700  0.17950700  1
  O  O23  1  0.98957900  0.90308400  0.14755600  1
loop_
_geom_bond_atom_site_label_1
_geom_bond_atom_site_label_2
_geom_bond_distance
_geom_bond_site_symmetry_2
Li0 O20 2.002193 1_445
Li0 O18 2.047933 1_455
Li0 O9 2.057714 1_555
Li0 O3 2.187423 1_555
Li0 O23 2.571651 1_445
Li1 O13 1.875913 1_555
Li1 O17 2.040204 1_555
Li1 O7 2.078824 1_555
Li1 O4 2.089998 1_555
Li2 O3 1.946499 1_655
Li2 O5 1.968947 1_645
Li2 O0 1.990901 1_655
Li2 O14 2.066362 1_545
Li3 O23 1.902447 1_555
Li3 O15 1.969810 1_555
Li3 O21 2.133891 1_555
Li3 O20 2.164296 1_555
Fe0 O10 1.885536 1_555
Fe0 O19 1.955074 1_455
Fe0 O18 2.023682 1_455
Fe0 O22 2.024460 1_455
Fe0 O4 2.159331 1_555
Fe1 O0 1.906788 1_565
Fe1 O11 1.939363 1_565
Fe1 O1 1.951408 1_555
Fe1 O12 2.010153 1_556
Fe1 O5 2.152291 1_555
Fe2 O3 2.015276 1_555
Fe2 O14 2.085654 1_545
Fe2 O17 2.154243 1_555
Fe2 O9 2.174740 1_555
Fe2 O8 2.205373 1_555
Fe3 O16 1.851959 1_555
Fe3 O6 1.991472 1_555
Fe3 O15 1.994432 1_555
Fe3 O21 1.999632 1_455
Fe3 O2 2.102604 1_554
Fe4 O7 1.888720 1_555
Fe4 O8 1.910745 1_555
Fe4 O2 1.936177 1_655
Fe4 O17 2.095676 1_555
Fe4 O21 2.130198 1_556
Fe5 O20 1.988867 1_555
Fe5 O6 2.050378 1_555
Fe5 O9 2.068278 1_565
Fe5 O14 2.137437 1_555
Fe5 O15 2.322024 1_555
Fe6 O13 1.973731 1_555
Fe6 O19 2.132358 1_555
Fe6 O4 2.139432 1_655
Fe6 O5 2.149610 1_655
Fe6 O1 2.204442 1_655
Fe7 O23 2.017893 1_545
Fe7 O22 2.101772 1_555
Fe7 O12 2.108847 1_545
Fe7 O11 2.113435 1_554
Fe7 O18 2.284525 1_555
B0 O20 1.381470 1_455
B0 O19 1.381984 1_455
B0 O6 1.391219 1_555
B1 O7 1.369643 1_555
B1 O1 1.380328 1_555
B1 O2 1.401376 1_555
B2 O13 1.357430 1_555
B2 O14 1.405640 1_555
B2 O5 1.412416 1_555
B3 O23 1.368719 1_455
B3 O12 1.388153 1_555
B3 O15 1.422934 1_555
B4 O10 1.360316 1_555
B4 O9 1.398105 1_555
B4 O18 1.421989 1_555
B5 O0 1.364730 1_655
B5 O11 1.379911 1_555
B5 O8 1.401129 1_555
B6 O3 1.382437 1_655
B6 O4 1.396621 1_655
B6 O17 1.412600 1_555
B7 O16 1.344983 1_555
B7 O22 1.383177 1_555
B7 O21 1.434656 1_555
