# generated using pymatgen
data_Al2P2H8C2NO8F
_symmetry_space_group_name_H-M   'P 1'
_cell_length_a   12.89089900
_cell_length_b   8.68955800
_cell_length_c   9.54393823
_cell_angle_alpha   67.04503711
_cell_angle_beta   90.00000000
_cell_angle_gamma   90.00000000
_symmetry_Int_Tables_number   1
_chemical_formula_structural   Al2P2H8C2NO8F
_chemical_formula_sum   'Al8 P8 H32 C8 N4 O32 F4'
_cell_volume   984.41753607
_cell_formula_units_Z   4
loop_
 _symmetry_equiv_pos_site_id
 _symmetry_equiv_pos_as_xyz
  1  'x, y, z'
loop_
 _atom_site_type_symbol
 _atom_site_label
 _atom_site_symmetry_multiplicity
 _atom_site_fract_x
 _atom_site_fract_y
 _atom_site_fract_z
 _atom_site_occupancy
  Al  Al0  1  0.59842500  0.09050800  0.43481200  1
  Al  Al1  1  0.09842500  0.40949200  0.56518800  1
  Al  Al2  1  0.40157500  0.90949200  0.56518800  1
  Al  Al3  1  0.90157500  0.59050800  0.43481200  1
  Al  Al4  1  0.88265300  0.31925200  0.12827900  1
  Al  Al5  1  0.38265300  0.18074800  0.87172100  1
  Al  Al6  1  0.11734700  0.68074800  0.87172100  1
  Al  Al7  1  0.61734700  0.81925200  0.12827900  1
  P  P0  1  0.45045300  0.01887500  0.21710000  1
  P  P1  1  0.95045300  0.48112500  0.78290000  1
  P  P2  1  0.54954700  0.98112500  0.78290000  1
  P  P3  1  0.04954700  0.51887500  0.21710000  1
  P  P4  1  0.71256100  0.45476700  0.29361600  1
  P  P5  1  0.21256100  0.04523300  0.70638400  1
  P  P6  1  0.28743900  0.54523300  0.70638400  1
  P  P7  1  0.78743900  0.95476700  0.29361600  1
  H  H0  1  0.25821900  0.41029600  0.30943800  1
  H  H1  1  0.75821900  0.08970400  0.69056200  1
  H  H2  1  0.74178100  0.58970400  0.69056200  1
  H  H3  1  0.24178100  0.91029600  0.30943800  1
  H  H4  1  0.35690100  0.27279200  0.33698800  1
  H  H5  1  0.85690100  0.22720800  0.66301200  1
  H  H6  1  0.64309900  0.72720800  0.66301200  1
  H  H7  1  0.14309900  0.77279200  0.33698800  1
  H  H8  1  0.35775500  0.59198500  0.37269000  1
  H  H9  1  0.85775500  0.90801500  0.62731000  1
  H  H10  1  0.64224500  0.40801500  0.62731000  1
  H  H11  1  0.14224500  0.09198500  0.37269000  1
  H  H12  1  0.31152600  0.43765600  0.05970800  1
  H  H13  1  0.81152600  0.06234400  0.94029200  1
  H  H14  1  0.68847400  0.56234400  0.94029200  1
  H  H15  1  0.18847400  0.93765600  0.05970800  1
  H  H16  1  0.47440700  0.51051200  0.32509400  1
  H  H17  1  0.97440700  0.98948800  0.67490600  1
  H  H18  1  0.52559300  0.48948800  0.67490600  1
  H  H19  1  0.02559300  0.01051200  0.32509400  1
  H  H20  1  0.36555800  0.61083600  0.09228800  1
  H  H21  1  0.86555800  0.88916400  0.90771200  1
  H  H22  1  0.63444200  0.38916400  0.90771200  1
  H  H23  1  0.13444200  0.11083600  0.09228800  1
  H  H24  1  0.40681400  0.39192500  0.49648400  1
  H  H25  1  0.90681400  0.10807500  0.50351600  1
  H  H26  1  0.59318600  0.60807500  0.50351600  1
  H  H27  1  0.09318600  0.89192500  0.49648400  1
  H  H28  1  0.44432200  0.43212800  0.11703500  1
  H  H29  1  0.94432200  0.06787200  0.88296500  1
  H  H30  1  0.55567800  0.56787200  0.88296500  1
  H  H31  1  0.05567800  0.93212800  0.11703500  1
  C  C0  1  0.36596200  0.47477000  0.12814200  1
  C  C1  1  0.86596200  0.02523000  0.87185800  1
  C  C2  1  0.63403800  0.52523000  0.87185800  1
  C  C3  1  0.13403800  0.97477000  0.12814200  1
  C  C4  1  0.39821100  0.47931900  0.37866700  1
  C  C5  1  0.89821100  0.02068100  0.62133300  1
  C  C6  1  0.60178900  0.52068100  0.62133300  1
  C  C7  1  0.10178900  0.97931900  0.37866700  1
  N  N0  1  0.33802900  0.39850900  0.29252100  1
  N  N1  1  0.83802900  0.10149100  0.70747900  1
  N  N2  1  0.66197100  0.60149100  0.70747900  1
  N  N3  1  0.16197100  0.89850900  0.29252100  1
  O  O0  1  0.64415900  0.30404000  0.38004400  1
  O  O1  1  0.14415900  0.19596000  0.61995600  1
  O  O2  1  0.35584100  0.69596000  0.61995600  1
  O  O3  1  0.85584100  0.80404000  0.38004400  1
  O  O4  1  0.78023600  0.49693600  0.40568400  1
  O  O5  1  0.28023600  0.00306400  0.59431600  1
  O  O6  1  0.21976400  0.50306400  0.59431600  1
  O  O7  1  0.71976400  0.99693600  0.40568400  1
  O  O8  1  0.77946000  0.42409700  0.17198700  1
  O  O9  1  0.27946000  0.07590300  0.82801300  1
  O  O10  1  0.22054000  0.57590300  0.82801300  1
  O  O11  1  0.72054000  0.92409700  0.17198700  1
  O  O12  1  0.53695000  0.12734800  0.24247100  1
  O  O13  1  0.03695000  0.37265200  0.75752900  1
  O  O14  1  0.46305000  0.87265200  0.75752900  1
  O  O15  1  0.96305000  0.62734800  0.24247100  1
  O  O16  1  0.37008300  0.96117200  0.34933700  1
  O  O17  1  0.87008300  0.53882800  0.65066300  1
  O  O18  1  0.62991700  0.03882800  0.65066300  1
  O  O19  1  0.12991700  0.46117200  0.34933700  1
  O  O20  1  0.38803000  0.12004100  0.07058800  1
  O  O21  1  0.88803000  0.37995900  0.92941200  1
  O  O22  1  0.61197000  0.87995900  0.92941200  1
  O  O23  1  0.11197000  0.62004100  0.07058800  1
  O  O24  1  0.49798600  0.86409500  0.19548200  1
  O  O25  1  0.99798600  0.63590500  0.80451800  1
  O  O26  1  0.50201400  0.13590500  0.80451800  1
  O  O27  1  0.00201400  0.36409500  0.19548200  1
  O  O28  1  0.63886600  0.60274500  0.20554500  1
  O  O29  1  0.13886600  0.89725500  0.79445500  1
  O  O30  1  0.36113400  0.39725500  0.79445500  1
  O  O31  1  0.86113400  0.10274500  0.20554500  1
  F  F0  1  0.46234800  0.13040800  0.49042100  1
  F  F1  1  0.96234800  0.36959200  0.50957900  1
  F  F2  1  0.53765200  0.86959200  0.50957900  1
  F  F3  1  0.03765200  0.63040800  0.49042100  1
loop_
_geom_bond_atom_site_label_1
_geom_bond_atom_site_label_2
_geom_bond_distance
_geom_bond_site_symmetry_2
Al0 O0 1.818557 1_555
Al0 O7 1.833398 1_545
Al0 F0 1.903280 1_555
Al0 O12 1.908369 1_555
Al0 F2 1.933793 1_545
Al0 O18 1.971989 1_555
Al1 O1 1.818557 1_555
Al1 O6 1.833398 1_555
Al1 F1 1.903280 1_455
Al1 O13 1.908369 1_555
Al1 F3 1.933793 1_555
Al1 O19 1.971989 1_555
Al2 O2 1.818557 1_555
Al2 O5 1.833398 1_565
Al2 F2 1.903280 1_555
Al2 O14 1.908369 1_555
Al2 F0 1.933793 1_565
Al2 O16 1.971989 1_555
Al3 O3 1.818557 1_555
Al3 O4 1.833398 1_555
Al3 F3 1.903280 1_655
Al3 O15 1.908369 1_555
Al3 F1 1.933793 1_555
Al3 O17 1.971989 1_555
Al4 O8 1.752154 1_555
Al4 O31 1.754442 1_555
Al4 O21 1.761937 1_554
Al4 O27 1.767954 1_655
Al5 O9 1.752154 1_555
Al5 O30 1.754442 1_555
Al5 O20 1.761937 1_556
Al5 O26 1.767954 1_555
Al6 O10 1.752154 1_555
Al6 O29 1.754442 1_555
Al6 O23 1.761937 1_556
Al6 O25 1.767954 1_455
Al7 O11 1.752154 1_555
Al7 O28 1.754442 1_555
Al7 O22 1.761937 1_554
Al7 O24 1.767954 1_555
H0 N0 1.052584 1_555
H1 N1 1.052584 1_555
H2 N2 1.052584 1_555
H3 N3 1.052584 1_555
H4 N0 1.034919 1_555
H5 N1 1.034919 1_555
H6 N2 1.034919 1_555
H7 N3 1.034919 1_555
C0 H12 1.089638 1_555
C0 H20 1.095215 1_555
C0 H28 1.095235 1_555
C0 N0 1.489659 1_555
C1 H13 1.089638 1_555
C1 H21 1.095215 1_545
C1 H29 1.095235 1_555
C1 N1 1.489659 1_555
C2 H14 1.089638 1_555
C2 H22 1.095215 1_555
C2 H30 1.095235 1_555
C2 N2 1.489659 1_555
C3 H15 1.089638 1_555
C3 H23 1.095215 1_565
C3 H31 1.095235 1_555
C3 N3 1.489659 1_555
C4 H24 1.089635 1_555
C4 H8 1.090938 1_555
C4 H16 1.091595 1_555
C4 N0 1.490386 1_555
C5 H25 1.089635 1_555
C5 H9 1.090938 1_545
C5 H17 1.091595 1_545
C5 N1 1.490386 1_555
C6 H26 1.089635 1_555
C6 H10 1.090938 1_555
C6 H18 1.091595 1_555
C6 N2 1.490386 1_555
C7 H27 1.089635 1_555
C7 H11 1.090938 1_565
C7 H19 1.091595 1_565
C7 N3 1.490386 1_555
O0 P4 1.526647 1_555
O1 P5 1.526647 1_555
O2 P6 1.526647 1_555
O3 P7 1.526647 1_555
O4 P4 1.531347 1_555
O5 P5 1.531347 1_555
O6 P6 1.531347 1_555
O7 P7 1.531347 1_555
O8 P4 1.550340 1_555
O9 P5 1.550340 1_555
O10 P6 1.550340 1_555
O11 P7 1.550340 1_555
O12 P0 1.538960 1_555
O13 P1 1.538960 1_455
O14 P2 1.538960 1_555
O15 P3 1.538960 1_655
O16 P0 1.556918 1_565
O17 P1 1.556918 1_555
O18 P2 1.556918 1_545
O19 P3 1.556918 1_555
O20 P0 1.554590 1_555
O21 P1 1.554590 1_555
O22 P2 1.554590 1_555
O23 P3 1.554590 1_555
O24 P0 1.563143 1_565
O25 P1 1.563143 1_555
O26 P2 1.563143 1_545
O27 P3 1.563143 1_555
O28 P4 1.555439 1_555
O29 P5 1.555439 1_565
O30 P6 1.555439 1_555
O31 P7 1.555439 1_545
