# generated using pymatgen
data_Li2TiVO4
_symmetry_space_group_name_H-M   'P 1'
_cell_length_a   5.18157970
_cell_length_b   6.02492025
_cell_length_c   7.92220001
_cell_angle_alpha   78.14478969
_cell_angle_beta   102.62566509
_cell_angle_gamma   106.68134981
_symmetry_Int_Tables_number   1
_chemical_formula_structural   Li2TiVO4
_chemical_formula_sum   'Li6 Ti3 V3 O12'
_cell_volume   228.47340937
_cell_formula_units_Z   3
loop_
 _symmetry_equiv_pos_site_id
 _symmetry_equiv_pos_as_xyz
  1  'x, y, z'
loop_
 _atom_site_type_symbol
 _atom_site_label
 _atom_site_symmetry_multiplicity
 _atom_site_fract_x
 _atom_site_fract_y
 _atom_site_fract_z
 _atom_site_occupancy
  Li  Li0  1  0.49975400  0.83164300  0.16829000  1
  Li  Li1  1  0.99339300  0.67022000  0.33476300  1
  Li  Li2  1  0.49998800  0.49995700  0.49999000  1
  Li  Li3  1  0.00667300  0.32982100  0.66523100  1
  Li  Li4  1  0.50027000  0.16840300  0.83171300  1
  Li  Li5  1  0.99993100  0.99996500  0.99999400  1
  Ti  Ti0  1  0.49991300  0.67183500  0.82871500  1
  Ti  Ti1  1  0.50010500  0.32831900  0.17116300  1
  Ti  Ti2  1  0.50002200  0.99975200  0.50024500  1
  V  V0  1  0.00029200  0.82925500  0.67037100  1
  V  V1  1  0.99970400  0.17080600  0.32957100  1
  V  V2  1  0.99997500  0.49997700  0.00003000  1
  O  O0  1  0.25904000  0.81341600  0.91647300  1
  O  O1  1  0.73562400  0.98816200  0.74785500  1
  O  O2  1  0.73936600  0.84791200  0.42381700  1
  O  O3  1  0.26482400  0.67271800  0.59003100  1
  O  O4  1  0.26483500  0.34791800  0.92405200  1
  O  O5  1  0.74061600  0.50740900  0.76348500  1
  O  O6  1  0.25929300  0.49262500  0.23645500  1
  O  O7  1  0.73518500  0.65189900  0.07610100  1
  O  O8  1  0.73464700  0.32702500  0.40969500  1
  O  O9  1  0.26064200  0.15203300  0.57627200  1
  O  O10  1  0.26488400  0.01228900  0.25220600  1
  O  O11  1  0.74106100  0.18663700  0.08347900  1
loop_
_geom_bond_atom_site_label_1
_geom_bond_atom_site_label_2
_geom_bond_distance
_geom_bond_site_symmetry_2
Li0 O6 2.096657 1_555
Li0 O0 2.114517 1_554
Li0 O10 2.125797 1_565
Li0 O2 2.135874 1_555
Li0 O7 2.160375 1_555
Li0 O11 2.197918 1_565
Li1 O8 2.162741 1_555
Li1 O7 2.193388 1_555
Li1 O3 2.196567 1_655
Li1 O10 2.199573 1_665
Li1 O2 2.213981 1_555
Li1 O6 2.303815 1_655
Li2 O8 2.118832 1_555
Li2 O3 2.119015 1_555
Li2 O9 2.147569 1_555
Li2 O2 2.147590 1_555
Li2 O5 2.186930 1_555
Li2 O6 2.187280 1_555
Li3 O3 2.160650 1_555
Li3 O4 2.194226 1_555
Li3 O1 2.196995 1_445
Li3 O8 2.199598 1_455
Li3 O9 2.213744 1_555
Li3 O5 2.304199 1_455
Li4 O5 2.096476 1_555
Li4 O11 2.114334 1_556
Li4 O1 2.125718 1_545
Li4 O9 2.135384 1_555
Li4 O4 2.160051 1_555
Li4 O0 2.197651 1_545
Li5 O1 2.162683 1_555
Li5 O10 2.164684 1_666
Li5 O4 2.198111 1_665
Li5 O7 2.198544 1_556
Li5 O11 2.249694 1_566
Li5 O0 2.250298 1_655
O0 Ti0 2.000741 1_555
O0 V2 2.055689 1_456
O0 V0 2.112377 1_555
O1 Ti0 2.009571 1_555
O1 Ti2 2.070971 1_555
O1 V0 2.130122 1_655
O2 Ti2 1.987145 1_555
O2 V0 2.120926 1_655
O2 V1 2.121010 1_565
O3 Ti0 2.012966 1_555
O3 Ti2 2.073165 1_555
O3 V0 2.131560 1_555
O4 Ti1 2.068063 1_556
O4 Ti0 2.072348 1_555
O4 V2 2.096329 1_456
O5 Ti0 2.001359 1_555
O5 V2 2.053993 1_556
O5 V0 2.112581 1_655
O6 Ti1 2.001542 1_555
O6 V2 2.053157 1_455
O6 V1 2.112276 1_455
O7 Ti0 2.069888 1_554
O7 Ti1 2.070283 1_555
O7 V2 2.095842 1_555
O8 Ti1 2.010820 1_555
O8 Ti2 2.074712 1_545
O8 V1 2.131609 1_555
O9 Ti2 1.987466 1_545
O9 V0 2.120223 1_545
O9 V1 2.121884 1_455
O10 Ti1 2.007648 1_555
O10 Ti2 2.072842 1_545
O10 V1 2.130220 1_455
O11 Ti1 2.001172 1_555
O11 V2 2.054697 1_555
O11 V1 2.112072 1_555
