# generated using pymatgen
data_CuAgC3S3N7
_symmetry_space_group_name_H-M   'P 1'
_cell_length_a   12.24029294
_cell_length_b   12.24029294
_cell_length_c   5.48500473
_cell_angle_alpha   81.14556163
_cell_angle_beta   81.14556163
_cell_angle_gamma   120.13658713
_symmetry_Int_Tables_number   1
_chemical_formula_structural   CuAgC3S3N7
_chemical_formula_sum   'Cu2 Ag2 C6 S6 N14'
_cell_volume   676.04690462
_cell_formula_units_Z   2
loop_
 _symmetry_equiv_pos_site_id
 _symmetry_equiv_pos_as_xyz
  1  'x, y, z'
loop_
 _atom_site_type_symbol
 _atom_site_label
 _atom_site_symmetry_multiplicity
 _atom_site_fract_x
 _atom_site_fract_y
 _atom_site_fract_z
 _atom_site_occupancy
  Cu  Cu0  1  0.60786100  0.39213900  0.00000000  1
  Cu  Cu1  1  0.39213900  0.60786100  0.00000000  1
  Ag  Ag0  1  0.11008600  0.88991400  0.00000000  1
  Ag  Ag1  1  0.88991400  0.11008600  0.00000000  1
  C  C0  1  0.72587100  0.72587100  0.51547900  1
  C  C1  1  0.27412900  0.27412900  0.48452100  1
  C  C2  1  0.88822100  0.60079700  0.99495900  1
  C  C3  1  0.60079700  0.88822100  0.99495900  1
  C  C4  1  0.11177900  0.39920300  0.00504100  1
  C  C5  1  0.39920300  0.11177900  0.00504100  1
  S  S0  1  0.85389300  0.85389300  0.36460500  1
  S  S1  1  0.14610700  0.14610700  0.63539500  1
  S  S2  1  0.00384000  0.73514900  0.76881400  1
  S  S3  1  0.73514900  0.00384000  0.76881400  1
  S  S4  1  0.99616000  0.26485100  0.23118600  1
  S  S5  1  0.26485100  0.99616000  0.23118600  1
  N  N0  1  0.62023100  0.62023100  0.69670700  1
  N  N1  1  0.37976900  0.37976900  0.30329300  1
  N  N2  1  0.79902800  0.50022600  0.13524400  1
  N  N3  1  0.50022600  0.79902800  0.13524400  1
  N  N4  1  0.20097200  0.49977400  0.86475600  1
  N  N5  1  0.49977400  0.20097200  0.86475600  1
  N  N6  1  0.70612900  0.23007900  0.09781300  1
  N  N7  1  0.23007900  0.70612900  0.09781300  1
  N  N8  1  0.29387100  0.76992100  0.90218700  1
  N  N9  1  0.76992100  0.29387100  0.90218700  1
  N  N10  1  0.46262300  0.34589600  0.25096600  1
  N  N11  1  0.34589600  0.46262300  0.25096600  1
  N  N12  1  0.53737700  0.65410400  0.74903400  1
  N  N13  1  0.65410400  0.53737700  0.74903400  1
loop_
_geom_bond_atom_site_label_1
_geom_bond_atom_site_label_2
_geom_bond_distance
_geom_bond_site_symmetry_2
Cu0 N10 1.836316 1_555
Cu0 N13 1.836316 1_554
Cu0 N5 2.346045 1_554
Cu0 N2 2.346045 1_555
Cu1 N11 1.836316 1_555
Cu1 N12 1.836316 1_554
Cu1 N4 2.346045 1_554
Cu1 N3 2.346045 1_555
Ag0 S2 2.379343 1_554
Ag0 S5 2.379343 1_555
Ag1 S3 2.379343 1_554
Ag1 S4 2.379343 1_555
C0 N0 1.364491 1_555
C0 S0 1.527037 1_555
C1 N1 1.364491 1_555
C1 S1 1.527037 1_555
C2 N2 1.183078 1_556
C2 S2 1.655454 1_655
C3 N3 1.183078 1_556
C3 S3 1.655454 1_565
C4 N4 1.183078 1_554
C4 S4 1.655454 1_455
C5 N5 1.183078 1_554
C5 S5 1.655454 1_545
N0 N13 1.285319 1_555
N0 N12 1.285319 1_555
N1 N10 1.285319 1_555
N1 N11 1.285319 1_555
N6 N9 1.114754 1_554
N7 N8 1.114754 1_554
