# generated using pymatgen
data_LiScVO4
_symmetry_space_group_name_H-M   'P 1'
_cell_length_a   6.08011806
_cell_length_b   6.08010515
_cell_length_c   8.70346174
_cell_angle_alpha   88.14299211
_cell_angle_beta   91.85763750
_cell_angle_gamma   91.40386058
_symmetry_Int_Tables_number   1
_chemical_formula_structural   LiScVO4
_chemical_formula_sum   'Li4 Sc4 V4 O16'
_cell_volume   321.32091566
_cell_formula_units_Z   4
loop_
 _symmetry_equiv_pos_site_id
 _symmetry_equiv_pos_as_xyz
  1  'x, y, z'
loop_
 _atom_site_type_symbol
 _atom_site_label
 _atom_site_symmetry_multiplicity
 _atom_site_fract_x
 _atom_site_fract_y
 _atom_site_fract_z
 _atom_site_occupancy
  Li  Li0  1  0.25589600  0.00591100  0.12501500  1
  Li  Li1  1  0.75590700  0.50595400  0.62501700  1
  Li  Li2  1  0.74366200  0.99363300  0.87500600  1
  Li  Li3  1  0.24363400  0.49367600  0.37501100  1
  Sc  Sc0  1  0.75014100  0.75030900  0.25004800  1
  Sc  Sc1  1  0.25024400  0.25024400  0.75004300  1
  Sc  Sc2  1  0.50030100  0.00020300  0.49995200  1
  Sc  Sc3  1  0.00025000  0.50016300  0.99992200  1
  V  V0  1  0.50037600  0.49910200  0.00066900  1
  V  V1  1  0.24922700  0.75045900  0.74937700  1
  V  V2  1  0.00052600  0.99924800  0.50054200  1
  V  V3  1  0.74933300  0.25056400  0.24946300  1
  O  O0  1  0.23345300  0.21647100  0.50847900  1
  O  O1  1  0.73344900  0.71646700  0.00853200  1
  O  O2  1  0.53289300  0.01700200  0.25795900  1
  O  O3  1  0.03290700  0.51697600  0.75795300  1
  O  O4  1  0.46641700  0.98340500  0.74146500  1
  O  O5  1  0.96641900  0.48342100  0.24148800  1
  O  O6  1  0.76703900  0.78297500  0.49203100  1
  O  O7  1  0.26701900  0.28294600  0.99206200  1
  O  O8  1  0.76384000  0.22743500  0.48174500  1
  O  O9  1  0.26380600  0.72735900  0.98179200  1
  O  O10  1  0.97737200  0.01383500  0.26825000  1
  O  O11  1  0.47741400  0.51379900  0.76821200  1
  O  O12  1  0.02158700  0.98770400  0.73310100  1
  O  O13  1  0.52149400  0.48771200  0.23309400  1
  O  O14  1  0.23771600  0.77153100  0.51687700  1
  O  O15  1  0.73767900  0.27149400  0.01689500  1
loop_
_geom_bond_atom_site_label_1
_geom_bond_atom_site_label_2
_geom_bond_distance
_geom_bond_site_symmetry_2
Li0 O2 2.013197 1_555
Li0 O7 2.013443 1_554
Li0 O10 2.137521 1_455
Li0 O9 2.137577 1_544
Li1 O3 2.013160 1_655
Li1 O6 2.013533 1_555
Li1 O11 2.137127 1_555
Li1 O8 2.137683 1_555
Li2 O1 2.016665 1_556
Li2 O4 2.017124 1_555
Li2 O15 2.126419 1_566
Li2 O12 2.126815 1_655
Li3 O0 2.016576 1_555
Li3 O5 2.016894 1_455
Li3 O14 2.126246 1_555
Li3 O13 2.126569 1_555
O0 V2 1.913826 1_545
O0 Sc2 2.117929 1_555
O0 Sc1 2.117993 1_555
O1 V0 1.915026 1_555
O1 Sc0 2.117623 1_555
O1 Sc3 2.117903 1_654
O2 V3 1.913593 1_555
O2 Sc0 2.120593 1_545
O2 Sc2 2.120803 1_555
O3 V1 1.912782 1_555
O3 Sc3 2.120646 1_555
O3 Sc1 2.121125 1_555
O4 V1 1.913768 1_555
O4 Sc1 2.117550 1_565
O4 Sc2 2.117642 1_565
O5 V3 1.912971 1_555
O5 Sc3 2.118054 1_654
O5 Sc0 2.118180 1_555
O6 V2 1.912586 1_655
O6 Sc2 2.120736 1_565
O6 Sc0 2.120778 1_555
O7 V0 1.911567 1_556
O7 Sc3 2.120799 1_555
O7 Sc1 2.121106 1_555
O8 V3 2.021207 1_555
O8 V2 2.022486 1_645
O8 Sc2 2.096481 1_555
O9 V0 2.022298 1_556
O9 V1 2.022359 1_555
O9 Sc3 2.096366 1_555
O10 V2 2.021305 1_645
O10 V3 2.022042 1_555
O10 Sc0 2.096411 1_545
O11 V1 2.022383 1_555
O11 V0 2.022701 1_556
O11 Sc1 2.096284 1_555
O12 V1 2.021965 1_555
O12 V2 2.023019 1_555
O12 Sc1 2.096634 1_565
O13 V0 2.021864 1_555
O13 V3 2.022403 1_555
O13 Sc0 2.096862 1_555
O14 V2 2.022062 1_555
O14 V1 2.022509 1_555
O14 Sc2 2.096889 1_565
O15 V0 2.022075 1_555
O15 V3 2.023075 1_555
O15 Sc3 2.096845 1_654
