# generated using pymatgen
data_V2OF4
_symmetry_space_group_name_H-M   'P 1'
_cell_length_a   4.92698817
_cell_length_b   6.86738258
_cell_length_c   5.71055409
_cell_angle_alpha   102.07371464
_cell_angle_beta   90.01372942
_cell_angle_gamma   68.99986529
_symmetry_Int_Tables_number   1
_chemical_formula_structural   V2OF4
_chemical_formula_sum   'V4 O2 F8'
_cell_volume   175.80371705
_cell_formula_units_Z   2
loop_
 _symmetry_equiv_pos_site_id
 _symmetry_equiv_pos_as_xyz
  1  'x, y, z'
loop_
 _atom_site_type_symbol
 _atom_site_label
 _atom_site_symmetry_multiplicity
 _atom_site_fract_x
 _atom_site_fract_y
 _atom_site_fract_z
 _atom_site_occupancy
  V  V0  1  0.88955500  0.72567800  0.71217900  1
  V  V1  1  0.38270400  0.72471700  0.21235500  1
  V  V2  1  0.61541500  0.27348600  0.78513200  1
  V  V3  1  0.10857300  0.27252000  0.28499500  1
  O  O0  1  0.86930800  0.99985300  0.74902400  1
  O  O1  1  0.12995800  0.99835900  0.24804300  1
  F  F0  1  0.69499200  0.76578700  0.03576600  1
  F  F1  1  0.53551800  0.76915600  0.53660100  1
  F  F2  1  0.27803000  0.59578400  0.86731100  1
  F  F3  1  0.12280400  0.59616800  0.36729400  1
  F  F4  1  0.87399100  0.40285100  0.62955600  1
  F  F5  1  0.71977900  0.40168500  0.13071200  1
  F  F6  1  0.46165400  0.23114400  0.46126600  1
  F  F7  1  0.30449500  0.23030400  0.96100500  1
loop_
_geom_bond_atom_site_label_1
_geom_bond_atom_site_label_2
_geom_bond_distance
_geom_bond_site_symmetry_2
O0 V2 1.814310 1_565
O0 V0 1.816330 1_555
O1 V1 1.812815 1_555
O1 V3 1.814406 1_565
F0 V1 1.973484 1_555
F0 V0 2.002015 1_554
F1 V0 1.971869 1_555
F1 V1 2.004033 1_555
F2 V0 2.085667 1_455
F2 V1 2.128230 1_556
F2 V2 2.193430 1_555
F3 V1 2.083135 1_555
F3 V0 2.127511 1_455
F3 V3 2.200114 1_555
F4 V2 2.084126 1_555
F4 V3 2.128712 1_655
F4 V0 2.197208 1_555
F5 V3 2.083451 1_655
F5 V2 2.128652 1_554
F5 V1 2.196316 1_555
F6 V3 1.970994 1_555
F6 V2 2.002798 1_555
F7 V2 1.973391 1_555
F7 V3 2.003708 1_556
