# generated using pymatgen
data_FeSe2
_symmetry_space_group_name_H-M   'P 1'
_cell_length_a   3.58090064
_cell_length_b   4.77959329
_cell_length_c   5.75626371
_cell_angle_alpha   90.00000000
_cell_angle_beta   90.00000000
_cell_angle_gamma   90.00000000
_symmetry_Int_Tables_number   1
_chemical_formula_structural   FeSe2
_chemical_formula_sum   'Fe2 Se4'
_cell_volume   98.51988481
_cell_formula_units_Z   2
loop_
 _symmetry_equiv_pos_site_id
 _symmetry_equiv_pos_as_xyz
  1  'x, y, z'
loop_
 _atom_site_type_symbol
 _atom_site_label
 _atom_site_symmetry_multiplicity
 _atom_site_fract_x
 _atom_site_fract_y
 _atom_site_fract_z
 _atom_site_occupancy
  Fe  Fe0  1  -0.00000000  0.00000000  -0.00000000  1
  Fe  Fe1  1  0.50000000  0.50000000  0.50000000  1
  Se  Se0  1  -0.00000000  0.21326136  0.36977222  1
  Se  Se1  1  -0.00000000  0.78673864  0.63022778  1
  Se  Se2  1  0.50000000  0.71326136  0.13022778  1
  Se  Se3  1  0.50000000  0.28673864  0.86977222  1
loop_
_geom_bond_atom_site_label_1
_geom_bond_atom_site_label_2
_geom_bond_distance
_geom_bond_site_symmetry_2
Fe0 Se1 2.359982 1_544
Fe0 Se0 2.359982 1_555
Fe0 Se3 2.376111 1_454
Fe0 Se3 2.376111 1_554
Fe0 Se2 2.376111 1_445
Fe0 Se2 2.376111 1_545
Fe1 Se2 2.359982 1_555
Fe1 Se3 2.359982 1_555
Fe1 Se0 2.376111 1_555
Fe1 Se0 2.376111 1_655
Fe1 Se1 2.376111 1_655
Fe1 Se1 2.376111 1_555
