# generated using pymatgen
data_La2Nb2N2O5
_symmetry_space_group_name_H-M   'P 1'
_cell_length_a   13.51432181
_cell_length_b   13.51432181
_cell_length_c   5.69880100
_cell_angle_alpha   90.00000000
_cell_angle_beta   90.00000000
_cell_angle_gamma   162.78430421
_symmetry_Int_Tables_number   1
_chemical_formula_structural   La2Nb2N2O5
_chemical_formula_sum   'La4 Nb4 N4 O10'
_cell_volume   308.04864468
_cell_formula_units_Z   2
loop_
 _symmetry_equiv_pos_site_id
 _symmetry_equiv_pos_as_xyz
  1  'x, y, z'
loop_
 _atom_site_type_symbol
 _atom_site_label
 _atom_site_symmetry_multiplicity
 _atom_site_fract_x
 _atom_site_fract_y
 _atom_site_fract_z
 _atom_site_occupancy
  La  La0  1  0.70547400  0.29452600  0.04749700  1
  La  La1  1  0.55283700  0.44716300  0.47396900  1
  La  La2  1  0.44716300  0.55283700  0.97396900  1
  La  La3  1  0.29452600  0.70547400  0.54749700  1
  Nb  Nb0  1  0.94177400  0.05822600  0.47523800  1
  Nb  Nb1  1  0.83818700  0.16181300  0.00115100  1
  Nb  Nb2  1  0.16181300  0.83818700  0.50115100  1
  Nb  Nb3  1  0.05822600  0.94177400  0.97523800  1
  N  N0  1  0.54602600  0.45397400  0.93805100  1
  N  N1  1  0.65359300  0.34640700  0.45558000  1
  N  N2  1  0.45397400  0.54602600  0.43805100  1
  N  N3  1  0.34640700  0.65359300  0.95558000  1
  O  O0  1  0.98567000  0.01433000  0.76232400  1
  O  O1  1  0.90970800  0.09029200  0.14367300  1
  O  O2  1  0.77977400  0.22022600  0.77955100  1
  O  O3  1  0.88233900  0.11766100  0.65579400  1
  O  O4  1  0.79638000  0.20362000  0.27759000  1
  O  O5  1  0.22022600  0.77977400  0.27955100  1
  O  O6  1  0.20362000  0.79638000  0.77759000  1
  O  O7  1  0.11766100  0.88233900  0.15579400  1
  O  O8  1  0.09029200  0.90970800  0.64367300  1
  O  O9  1  0.01433000  0.98567000  0.26232400  1
loop_
_geom_bond_atom_site_label_1
_geom_bond_atom_site_label_2
_geom_bond_distance
_geom_bond_site_symmetry_2
La0 O5 2.448582 1_655
La0 O5 2.448582 1_545
La0 O2 2.504851 1_554
La0 O6 2.541586 1_544
La0 O6 2.541586 1_654
La0 N1 2.707519 1_555
La0 O4 2.760674 1_555
La0 O7 3.159011 1_545
La0 O7 3.159011 1_655
La1 O8 2.455305 1_545
La1 O8 2.455305 1_655
La1 O9 2.570024 1_655
La1 O9 2.570024 1_545
La1 N2 2.649951 1_555
La1 N0 2.650967 1_555
La1 N1 2.694661 1_555
La1 N0 3.059509 1_554
La2 O1 2.455305 1_566
La2 O1 2.455305 1_456
La2 O0 2.570024 1_455
La2 O0 2.570024 1_565
La2 N0 2.649951 1_555
La2 N2 2.650967 1_556
La2 N3 2.694661 1_555
La2 N2 3.059509 1_555
La3 O2 2.448582 1_565
La3 O2 2.448582 1_455
La3 O5 2.504851 1_555
La3 O4 2.541586 1_455
La3 O4 2.541586 1_565
La3 N3 2.707519 1_555
La3 O6 2.760674 1_555
La3 O3 3.159011 1_455
La3 O3 3.159011 1_565
Nb0 O3 1.892513 1_555
Nb0 O0 2.013151 1_555
Nb0 O1 2.074763 1_555
Nb0 O9 2.287346 1_645
Nb1 O4 1.931336 1_555
Nb1 O2 2.007896 1_554
Nb1 O1 2.076752 1_555
Nb1 O3 2.294717 1_554
Nb2 O6 1.931336 1_555
Nb2 O5 2.007896 1_555
Nb2 O8 2.076752 1_555
Nb2 O7 2.294717 1_555
Nb3 O7 1.892513 1_556
Nb3 O9 2.013151 1_556
Nb3 O8 2.074763 1_555
Nb3 O0 2.287346 1_465
N0 Nb3 2.059738 1_655
N0 Nb3 2.059738 1_545
N1 Nb2 2.051100 1_545
N1 Nb2 2.051100 1_655
N2 Nb0 2.059738 1_565
N2 Nb0 2.059738 1_455
N3 Nb1 2.051100 1_456
N3 Nb1 2.051100 1_566
