# generated using pymatgen
data_K2H17Ru2(SO6)4
_symmetry_space_group_name_H-M   'P 1'
_cell_length_a   9.13357400
_cell_length_b   9.25166233
_cell_length_c   9.64572177
_cell_angle_alpha   68.89769241
_cell_angle_beta   66.08044884
_cell_angle_gamma   77.18085076
_symmetry_Int_Tables_number   1
_chemical_formula_structural   K2H17Ru2(SO6)4
_chemical_formula_sum   'K2 H17 Ru2 S4 O24'
_cell_volume   692.34561403
_cell_formula_units_Z   1
loop_
 _symmetry_equiv_pos_site_id
 _symmetry_equiv_pos_as_xyz
  1  'x, y, z'
loop_
 _atom_site_type_symbol
 _atom_site_label
 _atom_site_symmetry_multiplicity
 _atom_site_fract_x
 _atom_site_fract_y
 _atom_site_fract_z
 _atom_site_occupancy
  K  K0  1  0.55882300  0.49790900  0.78668900  1
  K  K1  1  0.44117700  0.50209100  0.21331100  1
  H  H0  1  0.20660500  0.23113100  0.01408900  1
  H  H1  1  0.79339500  0.76886900  0.98591100  1
  H  H2  1  0.09659300  0.38789900  0.14743500  1
  H  H3  1  0.90340700  0.61210100  0.85256500  1
  H  H4  1  0.14984700  0.62846600  0.57210600  1
  H  H5  1  0.85015300  0.37153400  0.42789400  1
  H  H6  1  0.87567300  0.37729400  0.49069500  1
  H  H7  1  0.12432700  0.62270600  0.50930500  1
  H  H8  1  0.33940000  0.07616000  0.64872700  1
  H  H9  1  0.66060000  0.92384000  0.35127300  1
  H  H10  1  0.24171700  0.01846100  0.27498300  1
  H  H11  1  0.75828300  0.98153900  0.72501700  1
  H  H12  1  0.86157600  0.11286500  0.69631500  1
  H  H13  1  0.13842400  0.88713500  0.30368500  1
  H  H14  1  0.83240300  0.48710100  0.01216000  1
  H  H15  1  0.16759700  0.51289900  0.98784000  1
  H  H16  1  0.50000000  0.50000000  0.50000000  1
  Ru  Ru0  1  0.11180600  0.09167400  0.05450100  1
  Ru  Ru1  1  0.88819400  0.90832600  0.94549900  1
  S  S0  1  0.98307000  0.30932700  0.78999500  1
  S  S1  1  0.01693000  0.69067300  0.21000500  1
  S  S2  1  0.56176900  0.08186100  0.18260800  1
  S  S3  1  0.43823100  0.91813900  0.81739200  1
  O  O0  1  0.92616600  0.22341500  0.10779000  1
  O  O1  1  0.07383400  0.77658500  0.89221000  1
  O  O2  1  0.44999300  0.38202000  0.60556200  1
  O  O3  1  0.55000700  0.61798000  0.39443800  1
  O  O4  1  0.84990900  0.30868200  0.74013000  1
  O  O5  1  0.15009100  0.69131800  0.25987000  1
  O  O6  1  0.80826600  0.55073600  0.91491800  1
  O  O7  1  0.19173400  0.44926400  0.08508200  1
  O  O8  1  0.65753400  0.03845100  0.29991900  1
  O  O9  1  0.34246600  0.96154900  0.70008100  1
  O  O10  1  0.54813700  0.25071500  0.12348800  1
  O  O11  1  0.45186300  0.74928500  0.87651200  1
  O  O12  1  0.34061200  0.98657500  0.94931500  1
  O  O13  1  0.65938800  0.01342500  0.05068500  1
  O  O14  1  0.41100400  0.01119200  0.27724800  1
  O  O15  1  0.58899600  0.98880800  0.72275200  1
  O  O16  1  0.13563400  0.00071400  0.27592100  1
  O  O17  1  0.86436600  0.99928600  0.72407900  1
  O  O18  1  0.90303500  0.33457200  0.17581200  1
  O  O19  1  0.09696500  0.66542800  0.82418800  1
  O  O20  1  0.37807800  0.31918500  0.54607100  1
  O  O21  1  0.62192200  0.68081500  0.45392900  1
  O  O22  1  0.95716300  0.86099800  0.13957000  1
  O  O23  1  0.04283700  0.13900200  0.86043000  1
loop_
_geom_bond_atom_site_label_1
_geom_bond_atom_site_label_2
_geom_bond_distance
_geom_bond_site_symmetry_2
K0 O11 2.621074 1_555
K0 O4 2.804904 1_555
K0 O2 2.901713 1_555
K0 O21 2.918836 1_555
K0 O6 3.189648 1_555
K0 O10 3.207130 1_556
K1 O10 2.621074 1_555
K1 O5 2.804904 1_555
K1 O3 2.901713 1_555
K1 O20 2.918836 1_555
K1 O7 3.189648 1_555
K1 O11 3.207130 1_554
H0 Ru0 1.557620 1_555
H1 Ru1 1.557620 1_555
H2 O7 0.994186 1_555
H3 O6 0.994186 1_555
H4 H7 0.753239 1_555
H5 H6 0.753239 1_555
H8 O9 0.995160 1_545
H9 O8 0.995160 1_565
H10 O16 1.014029 1_555
H10 O14 1.541400 1_555
H11 O17 1.014029 1_555
H11 O15 1.541400 1_555
H12 O17 0.983645 1_545
H13 O16 0.983645 1_565
H14 O6 0.993704 1_554
H15 O7 0.993704 1_556
H16 O2 1.216800 1_555
H16 O3 1.216800 1_555
O0 O18 1.345272 1_555
O0 Ru0 1.857952 1_655
O1 O19 1.345272 1_555
O1 Ru1 1.857952 1_455
O2 O20 1.346833 1_555
O4 S0 1.479956 1_555
O5 S1 1.479956 1_555
O8 S2 1.589412 1_555
O9 S3 1.589412 1_555
O10 S2 1.452893 1_555
O11 S3 1.452893 1_555
O12 S3 1.491539 1_555
O12 Ru0 2.105105 1_566
O13 S2 1.491539 1_555
O13 Ru1 2.105105 1_544
O14 S2 1.451684 1_555
O15 S3 1.451684 1_555
O16 Ru0 2.078090 1_555
O17 Ru1 2.078090 1_555
O21 O3 1.346833 1_555
O22 S1 1.546227 1_655
O22 Ru1 2.082396 1_554
O22 Ru0 2.521837 1_665
O23 S0 1.546227 1_455
O23 Ru0 2.082396 1_556
O23 Ru1 2.521837 1_445
