# generated using pymatgen
data_Li4Mn3Fe(BO3)4
_symmetry_space_group_name_H-M   'P 1'
_cell_length_a   5.25672400
_cell_length_b   9.09541783
_cell_length_c   10.50100071
_cell_angle_alpha   88.51074729
_cell_angle_beta   88.90221212
_cell_angle_gamma   89.80844714
_symmetry_Int_Tables_number   1
_chemical_formula_structural   Li4Mn3Fe(BO3)4
_chemical_formula_sum   'Li8 Mn6 Fe2 B8 O24'
_cell_volume   501.81115963
_cell_formula_units_Z   2
loop_
 _symmetry_equiv_pos_site_id
 _symmetry_equiv_pos_as_xyz
  1  'x, y, z'
loop_
 _atom_site_type_symbol
 _atom_site_label
 _atom_site_symmetry_multiplicity
 _atom_site_fract_x
 _atom_site_fract_y
 _atom_site_fract_z
 _atom_site_occupancy
  Li  Li0  1  0.14631900  0.17484500  0.66843600  1
  Li  Li1  1  0.18625600  0.16081500  0.16775000  1
  Li  Li2  1  0.32264000  0.33057800  0.41697300  1
  Li  Li3  1  0.33684400  0.32564100  0.91702300  1
  Li  Li4  1  0.64796200  0.67387600  0.66716800  1
  Li  Li5  1  0.68838400  0.66024100  0.16791000  1
  Li  Li6  1  0.81915600  0.83252200  0.41787900  1
  Li  Li7  1  0.83588900  0.82568700  0.91814600  1
  Mn  Mn0  1  0.17741400  0.49821900  0.13251700  1
  Mn  Mn1  1  0.15876500  0.83923700  0.63376800  1
  Mn  Mn2  1  0.33114400  0.66396500  0.38299900  1
  Mn  Mn3  1  0.33160900  0.99882100  0.88384000  1
  Mn  Mn4  1  0.67911600  0.00001600  0.13533700  1
  Mn  Mn5  1  0.82962600  0.49626000  0.88128900  1
  Fe  Fe0  1  0.65397600  0.33893400  0.63054300  1
  Fe  Fe1  1  0.83847400  0.16486100  0.38521900  1
  B  B0  1  0.17378000  0.82951700  0.12632900  1
  B  B1  1  0.15972300  0.50002000  0.62522300  1
  B  B2  1  0.33467200  0.99893000  0.37727800  1
  B  B3  1  0.32788700  0.66691700  0.87515500  1
  B  B4  1  0.67382900  0.32939700  0.12661800  1
  B  B5  1  0.65766800  0.00348700  0.62505800  1
  B  B6  1  0.83655300  0.49575200  0.37620400  1
  B  B7  1  0.82723900  0.16706500  0.87464600  1
  O  O0  1  0.09650100  0.48061700  0.34643700  1
  O  O1  1  0.08904100  0.17941800  0.86072800  1
  O  O2  1  0.17397600  0.78916300  0.84497500  1
  O  O3  1  0.19435800  0.87571300  0.41747300  1
  O  O4  1  0.21444500  0.13467700  0.36291200  1
  O  O5  1  0.21593300  0.53499500  0.91724100  1
  O  O6  1  0.27654300  0.36331700  0.61230500  1
  O  O7  1  0.28987700  0.96500000  0.09644800  1
  O  O8  1  0.30192400  0.62700700  0.59635700  1
  O  O9  1  0.32238700  0.71020600  0.16738800  1
  O  O10  1  0.41365500  0.31437000  0.11161100  1
  O  O11  1  0.40468900  0.01735400  0.66593500  1
  O  O12  1  0.59429300  0.98752600  0.34802700  1
  O  O13  1  0.58942200  0.67863200  0.86029800  1
  O  O14  1  0.67304700  0.28822300  0.84317100  1
  O  O15  1  0.69495100  0.37275300  0.41695100  1
  O  O16  1  0.72265800  0.63275600  0.36225100  1
  O  O17  1  0.71747200  0.03491500  0.91796700  1
  O  O18  1  0.78836200  0.46523400  0.09558500  1
  O  O19  1  0.76694300  0.86564600  0.61060900  1
  O  O20  1  0.80247900  0.12979900  0.59570400  1
  O  O21  1  0.82256500  0.21118200  0.16835600  1
  O  O22  1  0.91364100  0.81517800  0.11199100  1
  O  O23  1  0.90531700  0.51011100  0.66356900  1
loop_
_geom_bond_atom_site_label_1
_geom_bond_atom_site_label_2
_geom_bond_distance
_geom_bond_site_symmetry_2
Li0 O6 1.922107 1_555
Li0 O11 1.970996 1_555
Li0 O20 2.022933 1_455
Li0 O1 2.037346 1_555
Li1 O10 1.915316 1_555
Li1 O21 1.964383 1_455
Li1 O7 2.019047 1_545
Li1 O4 2.065085 1_555
Li2 O0 1.947930 1_555
Li2 O4 1.972891 1_555
Li2 O15 1.995627 1_555
Li2 O6 2.089726 1_555
Li3 O14 1.948815 1_555
Li3 O1 1.974098 1_555
Li3 O5 2.005467 1_555
Li3 O10 2.090299 1_556
Li4 O19 1.930151 1_555
Li4 O23 2.009416 1_555
Li4 O8 2.029037 1_555
Li4 O13 2.046985 1_555
Li5 O22 1.916854 1_555
Li5 O9 1.975487 1_555
Li5 O18 2.011821 1_555
Li5 O16 2.060822 1_555
Li6 O12 1.972614 1_555
Li6 O16 1.993128 1_555
Li6 O3 2.012265 1_655
Li6 O19 2.066871 1_555
Li7 O2 1.953533 1_655
Li7 O13 1.980042 1_555
Li7 O17 2.000225 1_565
Li7 O22 2.083561 1_556
Mn0 O10 2.093166 1_555
Mn0 O18 2.112711 1_455
Mn0 O9 2.118888 1_555
Mn0 O0 2.279888 1_555
Mn0 O5 2.281856 1_554
Mn1 O19 2.090945 1_455
Mn1 O8 2.113096 1_555
Mn1 O11 2.114013 1_565
Mn1 O2 2.255412 1_555
Mn1 O3 2.291049 1_555
Mn2 O16 2.084675 1_555
Mn2 O3 2.091487 1_555
Mn2 O0 2.124847 1_555
Mn2 O8 2.259274 1_555
Mn2 O9 2.293396 1_555
Mn3 O1 2.088085 1_565
Mn3 O17 2.094977 1_565
Mn3 O2 2.133903 1_555
Mn3 O7 2.252382 1_556
Mn3 O11 2.314875 1_565
Mn4 O22 2.098172 1_545
Mn4 O21 2.105240 1_555
Mn4 O7 2.120838 1_545
Mn4 O12 2.269152 1_545
Mn4 O17 2.301481 1_554
Mn5 O13 2.090949 1_555
Mn5 O5 2.105115 1_655
Mn5 O14 2.116712 1_555
Mn5 O18 2.267010 1_556
Mn5 O23 2.313387 1_555
Fe0 O6 2.007927 1_555
Fe0 O23 2.085503 1_555
Fe0 O20 2.092078 1_555
Fe0 O15 2.262259 1_555
Fe0 O14 2.272213 1_555
Fe1 O4 2.004564 1_655
Fe1 O15 2.066202 1_555
Fe1 O12 2.113646 1_545
Fe1 O20 2.229503 1_555
Fe1 O21 2.308178 1_555
B0 O22 1.385561 1_455
B0 O9 1.398818 1_555
B0 O7 1.402499 1_555
B1 O23 1.392666 1_455
B1 O6 1.393538 1_555
B1 O8 1.401276 1_555
B2 O4 1.391172 1_565
B2 O3 1.395421 1_555
B2 O12 1.397252 1_555
B3 O13 1.384815 1_555
B3 O5 1.395915 1_555
B3 O2 1.405986 1_555
B4 O10 1.387316 1_555
B4 O21 1.393740 1_555
B4 O18 1.404157 1_555
B5 O19 1.387999 1_545
B5 O11 1.395872 1_555
B5 O20 1.404571 1_555
B6 O16 1.386217 1_555
B6 O15 1.398997 1_555
B6 O0 1.403041 1_655
B7 O1 1.385800 1_655
B7 O17 1.396695 1_555
B7 O14 1.402124 1_555
