# generated using pymatgen
data_Li6Fe2B4SO16
_symmetry_space_group_name_H-M   'P 1'
_cell_length_a   9.49151271
_cell_length_b   9.49151271
_cell_length_c   9.49151271
_cell_angle_alpha   60.00000000
_cell_angle_beta   60.00000000
_cell_angle_gamma   60.00000000
_symmetry_Int_Tables_number   1
_chemical_formula_structural   Li6Fe2B4SO16
_chemical_formula_sum   'Li12 Fe4 B8 S2 O32'
_cell_volume   604.63224295
_cell_formula_units_Z   2
loop_
 _symmetry_equiv_pos_site_id
 _symmetry_equiv_pos_as_xyz
  1  'x, y, z'
loop_
 _atom_site_type_symbol
 _atom_site_label
 _atom_site_symmetry_multiplicity
 _atom_site_fract_x
 _atom_site_fract_y
 _atom_site_fract_z
 _atom_site_occupancy
  Li  Li0  1  0.28055000  0.28055000  0.71945000  1
  Li  Li1  1  0.96945000  0.53055000  0.53055000  1
  Li  Li2  1  0.28055000  0.71945000  0.28055000  1
  Li  Li3  1  0.71945000  0.28055000  0.71945000  1
  Li  Li4  1  0.53055000  0.96945000  0.96945000  1
  Li  Li5  1  0.53055000  0.53055000  0.96945000  1
  Li  Li6  1  0.71945000  0.71945000  0.28055000  1
  Li  Li7  1  0.71945000  0.28055000  0.28055000  1
  Li  Li8  1  0.53055000  0.96945000  0.53055000  1
  Li  Li9  1  0.96945000  0.53055000  0.96945000  1
  Li  Li10  1  0.28055000  0.71945000  0.71945000  1
  Li  Li11  1  0.96945000  0.96945000  0.53055000  1
  Fe  Fe0  1  0.62500000  0.12500000  0.12500000  1
  Fe  Fe1  1  0.12500000  0.12500000  0.12500000  1
  Fe  Fe2  1  0.12500000  0.12500000  0.62500000  1
  Fe  Fe3  1  0.12500000  0.62500000  0.12500000  1
  B  B0  1  0.28001700  0.90666100  0.90666100  1
  B  B1  1  0.90666100  0.28001700  0.90666100  1
  B  B2  1  0.90666100  0.90666100  0.90666100  1
  B  B3  1  0.90666100  0.90666100  0.28001700  1
  B  B4  1  0.34333900  0.34333900  0.96998300  1
  B  B5  1  0.34333900  0.34333900  0.34333900  1
  B  B6  1  0.34333900  0.96998300  0.34333900  1
  B  B7  1  0.96998300  0.34333900  0.34333900  1
  S  S0  1  0.50000000  0.50000000  0.50000000  1
  S  S1  1  0.75000000  0.75000000  0.75000000  1
  O  O0  1  0.20635400  0.49517800  0.33019800  1
  O  O1  1  0.96827100  0.33019800  0.49517800  1
  O  O2  1  0.28172900  0.04364600  0.91980200  1
  O  O3  1  0.04364600  0.28172900  0.75482200  1
  O  O4  1  0.28172900  0.75482200  0.04364600  1
  O  O5  1  0.56433100  0.56433100  0.30700600  1
  O  O6  1  0.91980200  0.04364600  0.75482200  1
  O  O7  1  0.56433100  0.56433100  0.56433100  1
  O  O8  1  0.56433100  0.30700600  0.56433100  1
  O  O9  1  0.91980200  0.28172900  0.04364600  1
  O  O10  1  0.75482200  0.28172900  0.91980200  1
  O  O11  1  0.30700600  0.56433100  0.56433100  1
  O  O12  1  0.04364600  0.91980200  0.28172900  1
  O  O13  1  0.75482200  0.91980200  0.04364600  1
  O  O14  1  0.91980200  0.75482200  0.28172900  1
  O  O15  1  0.49517800  0.20635400  0.96827100  1
  O  O16  1  0.75482200  0.04364600  0.28172900  1
  O  O17  1  0.33019800  0.49517800  0.96827100  1
  O  O18  1  0.49517800  0.33019800  0.20635400  1
  O  O19  1  0.20635400  0.33019800  0.96827100  1
  O  O20  1  0.94299400  0.68566900  0.68566900  1
  O  O21  1  0.49517800  0.96827100  0.33019800  1
  O  O22  1  0.33019800  0.96827100  0.20635400  1
  O  O23  1  0.68566900  0.94299400  0.68566900  1
  O  O24  1  0.68566900  0.68566900  0.68566900  1
  O  O25  1  0.33019800  0.20635400  0.49517800  1
  O  O26  1  0.68566900  0.68566900  0.94299400  1
  O  O27  1  0.96827100  0.49517800  0.20635400  1
  O  O28  1  0.20635400  0.96827100  0.49517800  1
  O  O29  1  0.96827100  0.20635400  0.33019800  1
  O  O30  1  0.28172900  0.91980200  0.75482200  1
  O  O31  1  0.04364600  0.75482200  0.91980200  1
loop_
_geom_bond_atom_site_label_1
_geom_bond_atom_site_label_2
_geom_bond_distance
_geom_bond_site_symmetry_2
Li0 O2 2.095853 1_555
Li0 O3 2.095856 1_555
Li0 O25 2.326673 1_555
Li0 O19 2.326682 1_555
Li0 O8 2.413861 1_555
Li0 O11 2.413861 1_555
Li1 O1 2.095847 1_555
Li1 O0 2.095852 1_655
Li1 O3 2.326676 1_655
Li1 O14 2.326679 1_555
Li1 O24 2.413864 1_555
Li1 O20 2.413869 1_555
Li2 O12 2.095853 1_555
Li2 O4 2.095856 1_555
Li2 O0 2.326673 1_555
Li2 O22 2.326682 1_555
Li2 O11 2.413861 1_555
Li2 O5 2.413861 1_555
Li3 O10 2.095847 1_555
Li3 O6 2.095852 1_555
Li3 O15 2.326676 1_555
Li3 O1 2.326679 1_555
Li3 O7 2.413864 1_555
Li3 O8 2.413869 1_555
Li4 O22 2.095853 1_556
Li4 O15 2.095856 1_565
Li4 O13 2.326673 1_556
Li4 O2 2.326682 1_565
Li4 O26 2.413861 1_555
Li4 O23 2.413861 1_555
Li5 O17 2.095847 1_555
Li5 O18 2.095852 1_556
Li5 O4 2.326676 1_556
Li5 O10 2.326679 1_555
Li5 O24 2.413864 1_555
Li5 O26 2.413869 1_555
Li6 O14 2.095847 1_555
Li6 O13 2.095852 1_555
Li6 O27 2.326676 1_555
Li6 O21 2.326679 1_555
Li6 O7 2.413864 1_555
Li6 O5 2.413869 1_555
Li7 O9 2.095853 1_555
Li7 O16 2.095856 1_555
Li7 O18 2.326673 1_555
Li7 O29 2.326682 1_555
Li7 O8 2.413861 1_555
Li7 O5 2.413861 1_555
Li8 O21 2.095847 1_555
Li8 O25 2.095852 1_565
Li8 O16 2.326676 1_565
Li8 O30 2.326679 1_555
Li8 O24 2.413864 1_555
Li8 O23 2.413869 1_555
Li9 O19 2.095853 1_655
Li9 O27 2.095856 1_556
Li9 O31 2.326673 1_655
Li9 O9 2.326682 1_556
Li9 O20 2.413861 1_555
Li9 O26 2.413861 1_555
Li10 O30 2.095847 1_555
Li10 O31 2.095852 1_555
Li10 O28 2.326676 1_555
Li10 O17 2.326679 1_555
Li10 O7 2.413864 1_555
Li10 O11 2.413869 1_555
Li11 O29 2.095853 1_565
Li11 O28 2.095856 1_655
Li11 O6 2.326673 1_565
Li11 O12 2.326682 1_655
Li11 O23 2.413861 1_555
Li11 O20 2.413861 1_555
Fe0 O16 2.015042 1_555
Fe0 O15 2.015042 1_554
Fe0 O10 2.015045 1_554
Fe0 O21 2.015045 1_545
Fe0 O18 2.015050 1_555
Fe0 O13 2.015050 1_545
Fe1 O29 2.015049 1_455
Fe1 O19 2.015049 1_554
Fe1 O22 2.015049 1_545
Fe1 O12 2.015049 1_545
Fe1 O2 2.015049 1_554
Fe1 O9 2.015049 1_455
Fe2 O3 2.015042 1_555
Fe2 O28 2.015042 1_545
Fe2 O30 2.015045 1_545
Fe2 O1 2.015045 1_455
Fe2 O25 2.015050 1_555
Fe2 O6 2.015050 1_455
Fe3 O4 2.015042 1_555
Fe3 O27 2.015042 1_455
Fe3 O14 2.015045 1_455
Fe3 O17 2.015045 1_554
Fe3 O0 2.015050 1_555
Fe3 O31 2.015050 1_554
B0 O2 1.375374 1_565
B0 O4 1.375379 1_556
B0 O30 1.375383 1_555
B1 O9 1.375374 1_556
B1 O3 1.375379 1_655
B1 O10 1.375383 1_555
B2 O13 1.375379 1_556
B2 O31 1.375379 1_655
B2 O6 1.375379 1_565
B3 O12 1.375374 1_655
B3 O16 1.375379 1_565
B3 O14 1.375383 1_555
B4 O19 1.375374 1_555
B4 O15 1.375379 1_555
B4 O17 1.375383 1_555
B5 O25 1.375379 1_555
B5 O0 1.375379 1_555
B5 O18 1.375379 1_555
B6 O22 1.375374 1_555
B6 O28 1.375379 1_555
B6 O21 1.375383 1_555
B7 O29 1.375374 1_555
B7 O27 1.375379 1_555
B7 O1 1.375383 1_555
O5 S0 1.495663 1_555
O7 S0 1.495655 1_555
O8 S0 1.495663 1_555
O11 S0 1.495663 1_555
O20 S1 1.495663 1_555
O23 S1 1.495663 1_555
O24 S1 1.495655 1_555
O26 S1 1.495663 1_555
