# generated using pymatgen
data_Y2Ge2O7
_symmetry_space_group_name_H-M   'P 1'
_cell_length_a   5.75755320
_cell_length_b   5.75755320
_cell_length_c   4.96100838
_cell_angle_alpha   82.66488256
_cell_angle_beta   97.33511744
_cell_angle_gamma   74.87710313
_symmetry_Int_Tables_number   1
_chemical_formula_structural   Y2Ge2O7
_chemical_formula_sum   'Y2 Ge2 O7'
_cell_volume   155.21847907
_cell_formula_units_Z   1
loop_
 _symmetry_equiv_pos_site_id
 _symmetry_equiv_pos_as_xyz
  1  'x, y, z'
loop_
 _atom_site_type_symbol
 _atom_site_label
 _atom_site_symmetry_multiplicity
 _atom_site_fract_x
 _atom_site_fract_y
 _atom_site_fract_z
 _atom_site_occupancy
  Y  Y0  1  0.69412871  0.69412871  0.00000000  1
  Y  Y1  1  0.30587129  0.30587129  0.00000000  1
  Ge  Ge0  1  0.22882411  0.77117589  0.40999836  1
  Ge  Ge1  1  0.77117589  0.22882411  0.59000164  1
  O  O0  1  0.08149947  0.60231673  0.21326958  1
  O  O1  1  0.39768327  0.91850053  0.21326958  1
  O  O2  1  0.39793000  0.60207000  0.72406471  1
  O  O3  1  -0.00000000  -0.00000000  0.50000000  1
  O  O4  1  0.60207000  0.39793000  0.27593529  1
  O  O5  1  0.91850053  0.39768327  0.78673042  1
  O  O6  1  0.60231673  0.08149947  0.78673042  1
loop_
_geom_bond_atom_site_label_1
_geom_bond_atom_site_label_2
_geom_bond_distance
_geom_bond_site_symmetry_2
Ge0 O2 1.747631 1_555
Ge0 O3 1.750870 1_565
Ge0 O0 1.754540 1_555
Ge0 O1 1.754540 1_555
Ge1 O4 1.747631 1_555
Ge1 O3 1.750870 1_655
Ge1 O6 1.754540 1_555
Ge1 O5 1.754540 1_555
O0 Y0 2.238887 1_455
O0 Y1 2.315400 1_555
O1 Y1 2.238887 1_565
O1 Y0 2.315400 1_555
O2 Y1 2.263624 1_556
O2 Y0 2.263624 1_556
O4 Y1 2.263624 1_555
O4 Y0 2.263624 1_555
O5 Y1 2.238887 1_656
O5 Y0 2.315400 1_556
O6 Y0 2.238887 1_546
O6 Y1 2.315400 1_556
