# generated using pymatgen
data_K2P3H5O11
_symmetry_space_group_name_H-M   'P 1'
_cell_length_a   16.25093801
_cell_length_b   16.25093801
_cell_length_c   9.37350331
_cell_angle_alpha   80.13306229
_cell_angle_beta   80.13306229
_cell_angle_gamma   26.65366464
_symmetry_Int_Tables_number   1
_chemical_formula_structural   K2P3H5O11
_chemical_formula_sum   'K8 P12 H20 O44'
_cell_volume   1093.13478821
_cell_formula_units_Z   4
loop_
 _symmetry_equiv_pos_site_id
 _symmetry_equiv_pos_as_xyz
  1  'x, y, z'
loop_
 _atom_site_type_symbol
 _atom_site_label
 _atom_site_symmetry_multiplicity
 _atom_site_fract_x
 _atom_site_fract_y
 _atom_site_fract_z
 _atom_site_occupancy
  K  K0  1  0.85381100  0.78964500  0.87852200  1
  K  K1  1  0.21035500  0.14618900  0.62147800  1
  K  K2  1  0.14618900  0.21035500  0.12147800  1
  K  K3  1  0.78964500  0.85381100  0.37852200  1
  K  K4  1  0.49936200  0.50063800  0.25000000  1
  K  K5  1  0.50063800  0.49936200  0.75000000  1
  K  K6  1  0.00000000  0.00000000  0.00000000  1
  K  K7  1  0.00000000  0.00000000  0.50000000  1
  P  P0  1  0.67999900  0.77205500  0.20305900  1
  P  P1  1  0.22794500  0.32000100  0.29694100  1
  P  P2  1  0.32000100  0.22794500  0.79694100  1
  P  P3  1  0.77205500  0.67999900  0.70305900  1
  P  P4  1  0.21884600  0.59182300  0.05668500  1
  P  P5  1  0.40817700  0.78115400  0.44331500  1
  P  P6  1  0.78115400  0.40817700  0.94331500  1
  P  P7  1  0.59182300  0.21884600  0.55668500  1
  P  P8  1  0.62229600  0.20447900  0.05242900  1
  P  P9  1  0.79552100  0.37770400  0.44757100  1
  P  P10  1  0.37770400  0.79552100  0.94757100  1
  P  P11  1  0.20447900  0.62229600  0.55242900  1
  H  H0  1  0.47463200  0.07440900  0.14572400  1
  H  H1  1  0.92559100  0.52536800  0.35427600  1
  H  H2  1  0.52536800  0.92559100  0.85427600  1
  H  H3  1  0.07440900  0.47463200  0.64572400  1
  H  H4  1  0.22625100  0.34255700  0.00020800  1
  H  H5  1  0.65744300  0.77374900  0.49979200  1
  H  H6  1  0.77374900  0.65744300  0.99979200  1
  H  H7  1  0.34255700  0.22625100  0.50020800  1
  H  H8  1  0.42684900  0.89890200  0.33072400  1
  H  H9  1  0.10109800  0.57315100  0.16927600  1
  H  H10  1  0.57315100  0.10109800  0.66927600  1
  H  H11  1  0.89890200  0.42684900  0.83072400  1
  H  H12  1  0.13360600  0.68381900  0.32691800  1
  H  H13  1  0.31618100  0.86639400  0.17308200  1
  H  H14  1  0.86639400  0.31618100  0.67308200  1
  H  H15  1  0.68381900  0.13360600  0.82691800  1
  H  H16  1  0.86319100  0.31773100  0.21317700  1
  H  H17  1  0.68226900  0.13680900  0.28682300  1
  H  H18  1  0.13680900  0.68226900  0.78682300  1
  H  H19  1  0.31773100  0.86319100  0.71317700  1
  O  O0  1  0.49677600  0.88959600  0.21870200  1
  O  O1  1  0.11040400  0.50322400  0.28129800  1
  O  O2  1  0.50322400  0.11040400  0.78129800  1
  O  O3  1  0.88959600  0.49677600  0.71870200  1
  O  O4  1  0.65640100  0.88686100  0.14647600  1
  O  O5  1  0.11313900  0.34359900  0.35352400  1
  O  O6  1  0.34359900  0.11313900  0.85352400  1
  O  O7  1  0.88686100  0.65640100  0.64647600  1
  O  O8  1  0.33082200  0.22260600  0.14735100  1
  O  O9  1  0.77739400  0.66917800  0.35264900  1
  O  O10  1  0.66917800  0.77739400  0.85264900  1
  O  O11  1  0.22260600  0.33082200  0.64735100  1
  O  O12  1  0.82270600  0.60540800  0.10068600  1
  O  O13  1  0.39459200  0.17729400  0.39931400  1
  O  O14  1  0.17729400  0.39459200  0.89931400  1
  O  O15  1  0.60540800  0.82270600  0.60068600  1
  O  O16  1  0.07534100  0.64752900  0.07966700  1
  O  O17  1  0.35247100  0.92465900  0.42033300  1
  O  O18  1  0.92465900  0.35247100  0.92033300  1
  O  O19  1  0.64752900  0.07534100  0.57966700  1
  O  O20  1  0.21623300  0.64424300  0.18013800  1
  O  O21  1  0.35575700  0.78376700  0.31986200  1
  O  O22  1  0.78376700  0.35575700  0.81986200  1
  O  O23  1  0.64424300  0.21623300  0.68013800  1
  O  O24  1  0.20147400  0.66092500  0.90738000  1
  O  O25  1  0.33907500  0.79852600  0.59262000  1
  O  O26  1  0.79852600  0.33907500  0.09262000  1
  O  O27  1  0.66092500  0.20147400  0.40738000  1
  O  O28  1  0.41007400  0.36725200  0.05890600  1
  O  O29  1  0.63274800  0.58992600  0.44109400  1
  O  O30  1  0.58992600  0.63274800  0.94109400  1
  O  O31  1  0.36725200  0.41007400  0.55890600  1
  O  O32  1  0.64670400  0.27588000  0.02561800  1
  O  O33  1  0.72412000  0.35329600  0.47438200  1
  O  O34  1  0.35329600  0.72412000  0.97438200  1
  O  O35  1  0.27588000  0.64670400  0.52561800  1
  O  O36  1  0.71508200  0.07706500  0.93250100  1
  O  O37  1  0.92293500  0.28491800  0.56749900  1
  O  O38  1  0.28491800  0.92293500  0.06749900  1
  O  O39  1  0.07706500  0.71508200  0.43250100  1
  O  O40  1  0.70393900  0.08610400  0.19678600  1
  O  O41  1  0.91389600  0.29606100  0.30321400  1
  O  O42  1  0.29606100  0.91389600  0.80321400  1
  O  O43  1  0.08610400  0.70393900  0.69678600  1
loop_
_geom_bond_atom_site_label_1
_geom_bond_atom_site_label_2
_geom_bond_distance
_geom_bond_site_symmetry_2
K0 O2 2.743847 1_565
K0 O16 2.796674 1_656
K0 O43 2.881554 1_655
K0 O14 2.913041 1_655
K0 O4 2.938578 1_556
K0 O36 2.958357 1_565
K0 O7 2.973738 1_555
K1 O3 2.743847 1_455
K1 O17 2.796674 1_545
K1 O42 2.881554 1_545
K1 O15 2.913041 1_545
K1 O5 2.938578 1_555
K1 O37 2.958357 1_455
K1 O6 2.973738 1_555
K2 O0 2.743847 1_545
K2 O18 2.796674 1_454
K2 O41 2.881554 1_455
K2 O12 2.913041 1_455
K2 O6 2.938578 1_554
K2 O38 2.958357 1_545
K2 O5 2.973738 1_555
K3 O1 2.743847 1_655
K3 O19 2.796674 1_565
K3 O40 2.881554 1_565
K3 O13 2.913041 1_565
K3 O7 2.938578 1_555
K3 O39 2.958357 1_655
K3 O4 2.973738 1_555
K4 O20 2.891519 1_555
K4 O21 2.891519 1_555
K4 O26 2.959542 1_555
K4 O27 2.959542 1_555
K4 O32 2.961760 1_555
K4 O33 2.961760 1_555
K4 O34 2.995920 1_554
K4 O35 2.995920 1_555
K5 O22 2.891519 1_555
K5 O23 2.891519 1_555
K5 O25 2.959542 1_555
K5 O24 2.959542 1_555
K5 O34 2.961760 1_555
K5 O35 2.961760 1_555
K5 O32 2.995920 1_556
K5 O33 2.995920 1_555
K6 O34 2.647176 1_544
K6 O32 2.647176 1_455
K6 O26 3.202154 1_455
K6 O24 3.202154 1_544
K6 O22 3.316292 1_454
K6 O20 3.316292 1_545
K7 O33 2.647176 1_455
K7 O35 2.647176 1_545
K7 O25 3.202154 1_545
K7 O27 3.202154 1_455
K7 O23 3.316292 1_455
K7 O21 3.316292 1_545
H0 O8 1.096312 1_555
H0 O4 1.386387 1_545
H1 O9 1.096312 1_555
H1 O5 1.386387 1_655
H2 O10 1.096312 1_555
H2 O6 1.386387 1_565
H3 O11 1.096312 1_555
H3 O7 1.386387 1_455
H4 O14 1.011771 1_554
H4 O8 1.597084 1_555
H5 O15 1.011771 1_555
H5 O9 1.597084 1_555
H6 O12 1.011771 1_556
H6 O10 1.597084 1_555
H7 O13 1.011771 1_555
H7 O11 1.597084 1_555
H8 O17 1.099957 1_555
H8 O0 1.324801 1_555
H9 O16 1.099957 1_555
H9 O1 1.324801 1_555
H10 O19 1.099957 1_555
H10 O2 1.324801 1_555
H11 O18 1.099957 1_555
H11 O3 1.324801 1_555
H12 O39 1.052664 1_555
H12 O20 1.495346 1_555
H13 O38 1.052664 1_555
H13 O21 1.495346 1_555
H14 O37 1.052664 1_555
H14 O22 1.495346 1_555
H15 O36 1.052664 1_555
H15 O23 1.495346 1_555
H16 O41 1.064454 1_555
H16 O26 1.456963 1_555
H17 O40 1.064454 1_555
H17 O27 1.456963 1_555
H18 O43 1.064454 1_555
H18 O24 1.456963 1_555
H19 O42 1.064454 1_555
H19 O25 1.456963 1_555
O0 P0 1.521833 1_555
O1 P1 1.521833 1_555
O2 P2 1.521833 1_555
O3 P3 1.521833 1_555
O4 P0 1.536523 1_555
O5 P1 1.536523 1_555
O6 P2 1.536523 1_555
O7 P3 1.536523 1_555
O8 P1 1.579122 1_555
O9 P0 1.579122 1_555
O10 P3 1.579122 1_555
O11 P2 1.579122 1_555
O12 P0 1.592151 1_555
O13 P1 1.592151 1_555
O14 P2 1.592151 1_555
O15 P3 1.592151 1_555
O16 P4 1.557421 1_555
O17 P5 1.557421 1_555
O18 P6 1.557421 1_555
O19 P7 1.557421 1_555
O20 P4 1.524113 1_555
O21 P5 1.524113 1_555
O22 P6 1.524113 1_555
O23 P7 1.524113 1_555
O24 P4 1.526271 1_556
O25 P5 1.526271 1_555
O26 P6 1.526271 1_554
O27 P7 1.526271 1_555
O28 P8 1.603625 1_555
O28 P4 1.643335 1_555
O29 P9 1.603625 1_555
O29 P5 1.643335 1_555
O30 P10 1.603625 1_555
O30 P6 1.643335 1_555
O31 P11 1.603625 1_555
O31 P7 1.643335 1_555
O32 P8 1.501813 1_555
O33 P9 1.501813 1_555
O34 P10 1.501813 1_555
O35 P11 1.501813 1_555
O36 P8 1.568674 1_556
O37 P9 1.568674 1_555
O38 P10 1.568674 1_554
O39 P11 1.568674 1_555
O40 P8 1.566177 1_555
O41 P9 1.566177 1_555
O42 P10 1.566177 1_555
O43 P11 1.566177 1_555
