# generated using pymatgen
data_Li2V18O39
_symmetry_space_group_name_H-M   'P 1'
_cell_length_a   3.74332500
_cell_length_b   11.28524529
_cell_length_c   17.50622216
_cell_angle_alpha   104.65377771
_cell_angle_beta   89.98352104
_cell_angle_gamma   99.53497123
_symmetry_Int_Tables_number   1
_chemical_formula_structural   Li2V18O39
_chemical_formula_sum   'Li2 V18 O39'
_cell_volume   704.92699026
_cell_formula_units_Z   1
loop_
 _symmetry_equiv_pos_site_id
 _symmetry_equiv_pos_as_xyz
  1  'x, y, z'
loop_
 _atom_site_type_symbol
 _atom_site_label
 _atom_site_symmetry_multiplicity
 _atom_site_fract_x
 _atom_site_fract_y
 _atom_site_fract_z
 _atom_site_occupancy
  Li  Li0  1  0.27149800  0.52457900  0.65941300  1
  Li  Li1  1  0.73789400  0.47392200  0.34001500  1
  V  V0  1  0.19758200  0.40311300  0.44924900  1
  V  V1  1  0.36383900  0.72358200  0.34533200  1
  V  V2  1  0.79502500  0.59715400  0.55085500  1
  V  V3  1  0.89606100  0.76150600  0.76230900  1
  V  V4  1  0.55562700  0.10563000  0.10029600  1
  V  V5  1  0.69192800  0.38345000  0.02166700  1
  V  V6  1  0.93684600  0.86893400  0.47214700  1
  V  V7  1  0.59066000  0.17756400  0.82412500  1
  V  V8  1  0.13682800  0.24042000  0.23867500  1
  V  V9  1  0.97929700  0.95663300  0.30882100  1
  V  V10  1  0.41248700  0.82227300  0.17498100  1
  V  V11  1  0.26102100  0.52079900  0.15179200  1
  V  V12  1  0.02330700  0.04369800  0.69046100  1
  V  V13  1  0.44785900  0.89810600  0.90273300  1
  V  V14  1  0.63954800  0.27642500  0.65429500  1
  V  V15  1  0.30968700  0.61664200  0.97782400  1
  V  V16  1  0.07307800  0.13103200  0.52726100  1
  V  V17  1  0.74279600  0.47939800  0.84800100  1
  O  O0  1  0.37403300  0.74767900  0.94575900  1
  O  O1  1  0.86445900  0.72690800  0.51878000  1
  O  O2  1  0.20282900  0.40347500  0.19662200  1
  O  O3  1  0.99463000  0.98651200  0.57148900  1
  O  O4  1  0.93697100  0.87187500  0.87581800  1
  O  O5  1  0.08540500  0.16818400  0.79577900  1
  O  O6  1  0.60706800  0.22243200  0.21354900  1
  O  O7  1  0.24575400  0.48635000  0.87466900  1
  O  O8  1  0.38979700  0.78042400  0.78781700  1
  O  O9  1  0.42374400  0.84429700  0.45422600  1
  O  O10  1  0.47420800  0.94827200  0.13868600  1
  O  O11  1  0.13638000  0.27336800  0.48132800  1
  O  O12  1  0.81727700  0.65768700  0.66611700  1
  O  O13  1  0.91713100  0.83219900  0.20344300  1
  O  O14  1  0.89022500  0.77649400  0.35435000  1
  O  O15  1  0.70833300  0.41494800  0.63191300  1
  O  O16  1  0.04817200  0.09407900  0.28242400  1
  O  O17  1  0.00840900  0.01349800  0.42782600  1
  O  O18  1  0.65553100  0.30740900  0.90714500  1
  O  O19  1  0.11307400  0.22359400  0.64507700  1
  O  O20  1  0.32949700  0.65734100  0.23012400  1
  O  O21  1  0.52521600  0.05014200  0.85907600  1
  O  O22  1  0.45151700  0.90085400  0.29691000  1
  O  O23  1  0.55132000  0.09984600  0.70218300  1
  O  O24  1  0.22131700  0.44197800  0.03264800  1
  O  O25  1  0.49932800  0.99663000  0.99667100  1
  O  O26  1  0.57940300  0.15589500  0.54536300  1
  O  O27  1  0.62459200  0.25209600  0.05314600  1
  O  O28  1  0.95735200  0.90643700  0.71677500  1
  O  O29  1  0.67343100  0.34282400  0.76965800  1
  O  O30  1  0.34710600  0.69136300  0.09234600  1
  O  O31  1  0.72695400  0.45918100  0.45147800  1
  O  O32  1  0.29726200  0.58581100  0.36829800  1
  O  O33  1  0.16122700  0.34474100  0.33506900  1
  O  O34  1  0.80337400  0.59685000  0.80356200  1
  O  O35  1  0.26810400  0.54126900  0.54867700  1
  O  O36  1  0.75696800  0.51337700  0.12534100  1
  O  O37  1  0.78056400  0.55814700  0.96713700  1
  O  O38  1  0.06124100  0.12539100  0.12096700  1
loop_
_geom_bond_atom_site_label_1
_geom_bond_atom_site_label_2
_geom_bond_distance
_geom_bond_site_symmetry_2
Li0 O35 1.994802 1_555
Li0 O15 2.191993 1_555
Li0 O15 2.245379 1_455
Li0 O12 2.310500 1_555
Li0 O12 2.432719 1_455
Li1 O31 1.999711 1_555
Li1 O32 2.221121 1_555
Li1 O32 2.243276 1_655
Li1 O33 2.312013 1_655
Li1 O33 2.384581 1_555
O0 V15 1.691694 1_555
O0 V13 2.004242 1_555
O1 V2 1.678355 1_555
O1 V6 1.956236 1_555
O2 V11 1.687161 1_555
O2 V8 2.126904 1_555
O3 V6 1.889313 1_555
O3 V16 1.955967 1_665
O3 V12 2.015682 1_665
O4 V13 1.925976 1_655
O4 V13 1.941738 1_555
O4 V3 2.051383 1_555
O5 V7 1.930069 1_455
O5 V7 1.934484 1_555
O5 V12 2.002126 1_555
O6 V8 1.845526 1_555
O6 V8 1.997295 1_655
O6 V4 2.073469 1_555
O7 V17 1.924016 1_455
O7 V17 1.927494 1_555
O7 V15 2.005145 1_555
O8 V3 1.866118 1_455
O8 V3 1.980341 1_555
O8 V13 2.100231 1_555
O9 V6 1.902916 1_455
O9 V6 1.908963 1_555
O9 V1 2.031081 1_555
O10 V10 1.681421 1_555
O10 V4 2.030400 1_565
O11 V0 1.678267 1_555
O11 V16 1.951984 1_555
O12 V3 1.784089 1_555
O12 V2 1.956772 1_555
O13 V10 1.931711 1_555
O13 V10 1.933703 1_655
O13 V9 2.002644 1_555
O14 V1 1.956213 1_555
O14 V1 1.956398 1_655
O14 V6 2.054937 1_555
O14 V9 2.339716 1_555
O15 V14 1.685267 1_555
O16 V9 1.707651 1_445
O16 V8 1.970374 1_555
O17 V16 1.890435 1_555
O17 V6 1.957271 1_445
O17 V9 2.016056 1_445
O18 V7 1.767270 1_555
O18 V5 1.966047 1_556
O18 V17 2.398439 1_555
O19 V14 1.955700 1_455
O19 V14 1.956437 1_555
O19 V16 2.055683 1_555
O19 V12 2.335738 1_555
O20 V11 1.766580 1_555
O20 V1 1.961772 1_555
O20 V10 2.282584 1_555
O21 V7 1.682429 1_555
O21 V13 2.027446 1_545
O22 V9 1.965894 1_555
O22 V9 1.966319 1_455
O22 V10 2.088890 1_555
O22 V1 2.338558 1_555
O23 V12 1.967177 1_555
O23 V12 1.967257 1_655
O23 V7 2.087618 1_555
O23 V14 2.325926 1_555
O24 V5 1.974255 1_555
O24 V5 1.975498 1_455
O24 V11 2.044847 1_555
O24 V15 2.378418 1_554
O25 V13 1.726800 1_555
O25 V4 1.906236 1_566
O26 V16 1.884313 1_555
O26 V16 1.928902 1_655
O26 V14 2.030728 1_555
O27 V5 1.689398 1_555
O27 V4 2.007201 1_555
O28 V12 1.704965 1_665
O28 V3 1.974437 1_555
O29 V17 1.766928 1_555
O29 V14 1.964493 1_555
O29 V7 2.278494 1_555
O30 V10 1.770394 1_555
O30 V15 1.963611 1_554
O30 V11 2.387411 1_555
O31 V0 1.965271 1_655
O31 V0 1.975050 1_555
O31 V2 2.003555 1_555
O32 V1 1.681943 1_555
O33 V8 1.789215 1_555
O33 V0 1.937047 1_555
O34 V17 1.683915 1_555
O34 V3 2.135417 1_555
O35 V2 1.966078 1_555
O35 V2 1.973084 1_455
O35 V0 2.005270 1_555
O36 V11 1.923381 1_555
O36 V11 1.926162 1_655
O36 V5 2.009664 1_555
O37 V15 1.974441 1_655
O37 V15 1.974971 1_555
O37 V17 2.044591 1_555
O37 V5 2.375606 1_556
O38 V4 1.892786 1_455
O38 V4 1.923823 1_555
O38 V8 2.129931 1_555
