# generated using pymatgen
data_NaCoP3(H4O5)2
_symmetry_space_group_name_H-M   'P 1'
_cell_length_a   9.17487616
_cell_length_b   14.91974603
_cell_length_c   14.95605358
_cell_angle_alpha   90.00000000
_cell_angle_beta   90.00000000
_cell_angle_gamma   90.00000000
_symmetry_Int_Tables_number   1
_chemical_formula_structural   NaCoP3(H4O5)2
_chemical_formula_sum   'Na8 Co8 P24 H64 O80'
_cell_volume   2047.28664668
_cell_formula_units_Z   8
loop_
 _symmetry_equiv_pos_site_id
 _symmetry_equiv_pos_as_xyz
  1  'x, y, z'
loop_
 _atom_site_type_symbol
 _atom_site_label
 _atom_site_symmetry_multiplicity
 _atom_site_fract_x
 _atom_site_fract_y
 _atom_site_fract_z
 _atom_site_occupancy
  Na  Na0  1  0.06236883  0.65801027  0.06836586  1
  Na  Na1  1  0.56236883  0.84198973  0.93163414  1
  Na  Na2  1  0.93763117  0.15801027  0.43163414  1
  Na  Na3  1  0.43763117  0.34198973  0.56836586  1
  Na  Na4  1  0.93763117  0.34198973  0.93163414  1
  Na  Na5  1  0.43763117  0.15801027  0.06836586  1
  Na  Na6  1  0.06236883  0.84198973  0.56836586  1
  Na  Na7  1  0.56236883  0.65801027  0.43163414  1
  Co  Co0  1  0.94825844  0.84082224  0.95355697  1
  Co  Co1  1  0.44825844  0.65917776  0.04644303  1
  Co  Co2  1  0.05174156  0.34082224  0.54644303  1
  Co  Co3  1  0.55174156  0.15917776  0.45355697  1
  Co  Co4  1  0.05174156  0.15917776  0.04644303  1
  Co  Co5  1  0.55174156  0.34082224  0.95355697  1
  Co  Co6  1  0.94825844  0.65917776  0.45355697  1
  Co  Co7  1  0.44825844  0.84082224  0.54644303  1
  P  P0  1  0.72616491  0.53114204  0.99067145  1
  P  P1  1  0.22616491  0.96885796  0.00932855  1
  P  P2  1  0.27383509  0.03114204  0.50932855  1
  P  P3  1  0.77383509  0.46885796  0.49067145  1
  P  P4  1  0.27383509  0.46885796  0.00932855  1
  P  P5  1  0.77383509  0.03114204  0.99067145  1
  P  P6  1  0.72616491  0.96885796  0.49067145  1
  P  P7  1  0.22616491  0.53114204  0.50932855  1
  P  P8  1  0.23590951  0.72248650  0.88187726  1
  P  P9  1  0.73590951  0.77751350  0.11812274  1
  P  P10  1  0.76409049  0.22248650  0.61812274  1
  P  P11  1  0.26409049  0.27751350  0.38187726  1
  P  P12  1  0.76409049  0.27751350  0.11812274  1
  P  P13  1  0.26409049  0.22248650  0.88187726  1
  P  P14  1  0.23590951  0.77751350  0.38187726  1
  P  P15  1  0.73590951  0.72248650  0.61812274  1
  P  P16  1  0.96513216  0.52889623  0.26242821  1
  P  P17  1  0.46513216  0.97110377  0.73757179  1
  P  P18  1  0.03486784  0.02889623  0.23757179  1
  P  P19  1  0.53486784  0.47110377  0.76242821  1
  P  P20  1  0.03486784  0.47110377  0.73757179  1
  P  P21  1  0.53486784  0.02889623  0.26242821  1
  P  P22  1  0.96513216  0.97110377  0.76242821  1
  P  P23  1  0.46513216  0.52889623  0.23757179  1
  H  H0  1  0.75269099  0.54469606  0.08218092  1
  H  H1  1  0.25269099  0.95530394  0.91781908  1
  H  H2  1  0.24730901  0.04469606  0.41781908  1
  H  H3  1  0.74730901  0.45530394  0.58218092  1
  H  H4  1  0.24730901  0.45530394  0.91781908  1
  H  H5  1  0.74730901  0.04469606  0.08218092  1
  H  H6  1  0.75269099  0.95530394  0.58218092  1
  H  H7  1  0.25269099  0.54469606  0.41781908  1
  H  H8  1  0.22688568  0.63766949  0.84107544  1
  H  H9  1  0.72688568  0.86233051  0.15892456  1
  H  H10  1  0.77311432  0.13766949  0.65892456  1
  H  H11  1  0.27311432  0.36233051  0.34107544  1
  H  H12  1  0.77311432  0.36233051  0.15892456  1
  H  H13  1  0.27311432  0.13766949  0.84107544  1
  H  H14  1  0.22688568  0.86233051  0.34107544  1
  H  H15  1  0.72688568  0.63766949  0.65892456  1
  H  H16  1  0.81120019  0.52976730  0.26505953  1
  H  H17  1  0.31120019  0.97023270  0.73494047  1
  H  H18  1  0.18879981  0.02976730  0.23494047  1
  H  H19  1  0.68879981  0.47023270  0.76505953  1
  H  H20  1  0.18879981  0.47023270  0.73494047  1
  H  H21  1  0.68879981  0.02976730  0.26505953  1
  H  H22  1  0.81120019  0.97023270  0.76505953  1
  H  H23  1  0.31120019  0.52976730  0.23494047  1
  H  H24  1  0.91528573  0.53402544  0.89688037  1
  H  H25  1  0.41528573  0.96597456  0.10311963  1
  H  H26  1  0.08471427  0.03402544  0.60311963  1
  H  H27  1  0.58471427  0.46597456  0.39688037  1
  H  H28  1  0.08471427  0.46597456  0.10311963  1
  H  H29  1  0.58471427  0.03402544  0.89688037  1
  H  H30  1  0.91528573  0.96597456  0.39688037  1
  H  H31  1  0.41528573  0.53402544  0.60311963  1
  H  H32  1  0.14786225  0.83359512  0.80260464  1
  H  H33  1  0.64786225  0.66640488  0.19739536  1
  H  H34  1  0.85213775  0.33359512  0.69739536  1
  H  H35  1  0.35213775  0.16640488  0.30260464  1
  H  H36  1  0.85213775  0.16640488  0.19739536  1
  H  H37  1  0.35213775  0.33359512  0.80260464  1
  H  H38  1  0.14786225  0.66640488  0.30260464  1
  H  H39  1  0.64786225  0.83359512  0.69739536  1
  H  H40  1  0.97484635  0.42011997  0.36081728  1
  H  H41  1  0.47484635  0.07988003  0.63918272  1
  H  H42  1  0.02515365  0.92011997  0.13918272  1
  H  H43  1  0.52515365  0.57988003  0.86081728  1
  H  H44  1  0.02515365  0.57988003  0.63918272  1
  H  H45  1  0.52515365  0.92011997  0.36081728  1
  H  H46  1  0.97484635  0.07988003  0.86081728  1
  H  H47  1  0.47484635  0.42011997  0.13918272  1
  H  H48  1  0.29774157  0.73532001  0.18474755  1
  H  H49  1  0.79774157  0.76467999  0.81525245  1
  H  H50  1  0.70225843  0.23532001  0.31525245  1
  H  H51  1  0.20225843  0.26467999  0.68474755  1
  H  H52  1  0.70225843  0.26467999  0.81525245  1
  H  H53  1  0.20225843  0.23532001  0.18474755  1
  H  H54  1  0.29774157  0.76467999  0.68474755  1
  H  H55  1  0.79774157  0.73532001  0.31525245  1
  H  H56  1  0.30338823  0.80192091  0.10174438  1
  H  H57  1  0.80338823  0.69807909  0.89825562  1
  H  H58  1  0.69661177  0.30192091  0.39825562  1
  H  H59  1  0.19661177  0.19807909  0.60174438  1
  H  H60  1  0.69661177  0.19807909  0.89825562  1
  H  H61  1  0.19661177  0.30192091  0.10174438  1
  H  H62  1  0.30338823  0.69807909  0.60174438  1
  H  H63  1  0.80338823  0.80192091  0.39825562  1
  O  O0  1  0.86587332  0.57502682  0.94390897  1
  O  O1  1  0.36587332  0.92497318  0.05609103  1
  O  O2  1  0.13412668  0.07502682  0.55609103  1
  O  O3  1  0.63412668  0.42497318  0.44390897  1
  O  O4  1  0.13412668  0.42497318  0.05609103  1
  O  O5  1  0.63412668  0.07502682  0.94390897  1
  O  O6  1  0.86587332  0.92497318  0.44390897  1
  O  O7  1  0.36587332  0.57502682  0.55609103  1
  O  O8  1  0.59095001  0.58511142  0.96487955  1
  O  O9  1  0.09095001  0.91488858  0.03512045  1
  O  O10  1  0.40904999  0.08511142  0.53512045  1
  O  O11  1  0.90904999  0.41488858  0.46487955  1
  O  O12  1  0.40904999  0.41488858  0.03512045  1
  O  O13  1  0.90904999  0.08511142  0.96487955  1
  O  O14  1  0.59095001  0.91488858  0.46487955  1
  O  O15  1  0.09095001  0.58511142  0.53512045  1
  O  O16  1  0.72249174  0.43124453  0.96984941  1
  O  O17  1  0.22249174  0.06875547  0.03015059  1
  O  O18  1  0.27750826  0.93124453  0.53015059  1
  O  O19  1  0.77750826  0.56875547  0.46984941  1
  O  O20  1  0.27750826  0.56875547  0.03015059  1
  O  O21  1  0.77750826  0.93124453  0.96984941  1
  O  O22  1  0.72249174  0.06875547  0.46984941  1
  O  O23  1  0.22249174  0.43124453  0.53015059  1
  O  O24  1  0.23634647  0.79113300  0.79931966  1
  O  O25  1  0.73634647  0.70886700  0.20068034  1
  O  O26  1  0.76365353  0.29113300  0.70068034  1
  O  O27  1  0.26365353  0.20886700  0.29931966  1
  O  O28  1  0.76365353  0.20886700  0.20068034  1
  O  O29  1  0.26365353  0.29113300  0.79931966  1
  O  O30  1  0.23634647  0.70886700  0.29931966  1
  O  O31  1  0.73634647  0.79113300  0.70068034  1
  O  O32  1  0.09896701  0.73825552  0.93702518  1
  O  O33  1  0.59896701  0.76174448  0.06297482  1
  O  O34  1  0.90103299  0.23825552  0.56297482  1
  O  O35  1  0.40103299  0.26174448  0.43702518  1
  O  O36  1  0.90103299  0.26174448  0.06297482  1
  O  O37  1  0.40103299  0.23825552  0.93702518  1
  O  O38  1  0.09896701  0.76174448  0.43702518  1
  O  O39  1  0.59896701  0.73825552  0.56297482  1
  O  O40  1  0.38124034  0.72961622  0.92993595  1
  O  O41  1  0.88124034  0.77038378  0.07006405  1
  O  O42  1  0.61875966  0.22961622  0.57006405  1
  O  O43  1  0.11875966  0.27038378  0.42993595  1
  O  O44  1  0.61875966  0.27038378  0.07006405  1
  O  O45  1  0.11875966  0.22961622  0.92993595  1
  O  O46  1  0.38124034  0.77038378  0.42993595  1
  O  O47  1  0.88124034  0.72961622  0.57006405  1
  O  O48  1  0.00969474  0.43219479  0.29788494  1
  O  O49  1  0.50969474  0.06780521  0.70211506  1
  O  O50  1  0.99030526  0.93219479  0.20211506  1
  O  O51  1  0.49030526  0.56780521  0.79788494  1
  O  O52  1  0.99030526  0.56780521  0.70211506  1
  O  O53  1  0.49030526  0.93219479  0.29788494  1
  O  O54  1  0.00969474  0.06780521  0.79788494  1
  O  O55  1  0.50969474  0.43219479  0.20211506  1
  O  O56  1  0.01888454  0.53682553  0.16698985  1
  O  O57  1  0.51888454  0.96317447  0.83301015  1
  O  O58  1  0.98111546  0.03682553  0.33301015  1
  O  O59  1  0.48111546  0.46317447  0.66698985  1
  O  O60  1  0.98111546  0.46317447  0.83301015  1
  O  O61  1  0.48111546  0.03682553  0.16698985  1
  O  O62  1  0.01888454  0.96317447  0.66698985  1
  O  O63  1  0.51888454  0.53682553  0.33301015  1
  O  O64  1  0.01798680  0.60344693  0.32549747  1
  O  O65  1  0.51798680  0.89655307  0.67450253  1
  O  O66  1  0.98201320  0.10344693  0.17450253  1
  O  O67  1  0.48201320  0.39655307  0.82549747  1
  O  O68  1  0.98201320  0.39655307  0.67450253  1
  O  O69  1  0.48201320  0.10344693  0.32549747  1
  O  O70  1  0.01798680  0.89655307  0.82549747  1
  O  O71  1  0.51798680  0.60344693  0.17450253  1
  O  O72  1  0.29029537  0.73873050  0.11896481  1
  O  O73  1  0.79029537  0.76126950  0.88103519  1
  O  O74  1  0.70970463  0.23873050  0.38103519  1
  O  O75  1  0.20970463  0.26126950  0.61896481  1
  O  O76  1  0.70970463  0.26126950  0.88103519  1
  O  O77  1  0.20970463  0.23873050  0.11896481  1
  O  O78  1  0.29029537  0.76126950  0.61896481  1
  O  O79  1  0.79029537  0.73873050  0.38103519  1
loop_
_geom_bond_atom_site_label_1
_geom_bond_atom_site_label_2
_geom_bond_distance
_geom_bond_site_symmetry_2
Na0 O32 2.324813 1_554
Na0 O41 2.360776 1_455
Na0 O56 2.367256 1_555
Na0 O20 2.448709 1_555
Na0 O72 2.529070 1_555
Na0 O0 2.871896 1_454
Na1 O33 2.324813 1_556
Na1 O40 2.360776 1_555
Na1 O57 2.367256 1_555
Na1 O21 2.448709 1_555
Na1 O73 2.529070 1_555
Na1 O1 2.871896 1_556
Na2 O34 2.324813 1_555
Na2 O43 2.360776 1_655
Na2 O58 2.367256 1_555
Na2 O22 2.448709 1_555
Na2 O74 2.529070 1_555
Na2 O2 2.871896 1_655
Na3 O35 2.324813 1_555
Na3 O42 2.360776 1_555
Na3 O59 2.367256 1_555
Na3 O23 2.448709 1_555
Na3 O75 2.529070 1_555
Na3 O3 2.871896 1_555
Na4 O36 2.324813 1_556
Na4 O45 2.360776 1_655
Na4 O60 2.367256 1_555
Na4 O16 2.448709 1_555
Na4 O76 2.529070 1_555
Na4 O4 2.871896 1_656
Na5 O37 2.324813 1_554
Na5 O44 2.360776 1_555
Na5 O61 2.367256 1_555
Na5 O17 2.448709 1_555
Na5 O77 2.529070 1_555
Na5 O5 2.871896 1_554
Na6 O38 2.324813 1_555
Na6 O47 2.360776 1_455
Na6 O62 2.367256 1_555
Na6 O18 2.448709 1_555
Na6 O78 2.529070 1_555
Na6 O6 2.871896 1_455
Na7 O39 2.324813 1_555
Na7 O46 2.360776 1_555
Na7 O63 2.367256 1_555
Na7 O19 2.448709 1_555
Na7 O79 2.529070 1_555
Na7 O7 2.871896 1_555
Co0 O32 2.077211 1_655
Co0 O21 2.081744 1_555
Co0 O9 2.103131 1_656
Co0 O41 2.125742 1_556
Co0 O73 2.164633 1_555
Co0 O70 2.183780 1_655
Co1 O33 2.077211 1_555
Co1 O20 2.081744 1_555
Co1 O8 2.103131 1_554
Co1 O40 2.125742 1_554
Co1 O72 2.164633 1_555
Co1 O71 2.183780 1_555
Co2 O34 2.077211 1_455
Co2 O23 2.081744 1_555
Co2 O11 2.103131 1_455
Co2 O43 2.125742 1_555
Co2 O75 2.164633 1_555
Co2 O68 2.183780 1_455
Co3 O35 2.077211 1_555
Co3 O22 2.081744 1_555
Co3 O10 2.103131 1_555
Co3 O42 2.125742 1_555
Co3 O74 2.164633 1_555
Co3 O69 2.183780 1_555
Co4 O36 2.077211 1_455
Co4 O17 2.081744 1_555
Co4 O13 2.103131 1_454
Co4 O45 2.125742 1_554
Co4 O77 2.164633 1_555
Co4 O66 2.183780 1_455
Co5 O37 2.077211 1_555
Co5 O16 2.081744 1_555
Co5 O12 2.103131 1_556
Co5 O44 2.125742 1_556
Co5 O76 2.164633 1_555
Co5 O67 2.183780 1_555
Co6 O38 2.077211 1_655
Co6 O19 2.081744 1_555
Co6 O15 2.103131 1_655
Co6 O47 2.125742 1_555
Co6 O79 2.164633 1_555
Co6 O64 2.183780 1_655
Co7 O39 2.077211 1_555
Co7 O18 2.081744 1_555
Co7 O14 2.103131 1_555
Co7 O46 2.125742 1_555
Co7 O78 2.164633 1_555
Co7 O65 2.183780 1_555
H0 P0 1.404723 1_554
H1 P1 1.404723 1_556
H2 P2 1.404723 1_555
H3 P3 1.404723 1_555
H4 P4 1.404723 1_556
H5 P5 1.404723 1_554
H6 P6 1.404723 1_555
H7 P7 1.404723 1_555
H8 P8 1.407338 1_555
H9 P9 1.407338 1_555
H10 P10 1.407338 1_555
H11 P11 1.407338 1_555
H12 P12 1.407338 1_555
H13 P13 1.407338 1_555
H14 P14 1.407338 1_555
H15 P15 1.407338 1_555
H16 P16 1.412915 1_555
H17 P17 1.412915 1_555
H18 P18 1.412915 1_555
H19 P19 1.412915 1_555
H20 P20 1.412915 1_555
H21 P21 1.412915 1_555
H22 P22 1.412915 1_555
H23 P23 1.412915 1_555
H24 O0 1.036562 1_555
H24 O60 1.547482 1_555
H25 O1 1.036562 1_555
H25 O61 1.547482 1_565
H26 O2 1.036562 1_555
H26 O62 1.547482 1_545
H27 O3 1.036562 1_555
H27 O63 1.547482 1_555
H28 O4 1.036562 1_555
H28 O56 1.547482 1_555
H29 O5 1.036562 1_555
H29 O57 1.547482 1_545
H30 O6 1.036562 1_555
H30 O58 1.547482 1_565
H31 O7 1.036562 1_555
H31 O59 1.547482 1_555
H32 O24 1.030940 1_555
H32 O70 1.555453 1_555
H33 O25 1.030940 1_555
H33 O71 1.555453 1_555
H34 O26 1.030940 1_555
H34 O68 1.555453 1_555
H35 O27 1.030940 1_555
H35 O69 1.555453 1_555
H36 O28 1.030940 1_555
H36 O66 1.555453 1_555
H37 O29 1.030940 1_555
H37 O67 1.555453 1_555
H38 O30 1.030940 1_555
H38 O64 1.555453 1_555
H39 O31 1.030940 1_555
H39 O65 1.555453 1_555
H40 O48 1.010236 1_655
H40 O11 1.671159 1_555
H41 O49 1.010236 1_555
H41 O10 1.671159 1_555
H42 O50 1.010236 1_455
H42 O9 1.671159 1_555
H43 O51 1.010236 1_555
H43 O8 1.671159 1_555
H44 O52 1.010236 1_455
H44 O15 1.671159 1_555
H45 O53 1.010236 1_555
H45 O14 1.671159 1_555
H46 O54 1.010236 1_655
H46 O13 1.671159 1_555
H47 O55 1.010236 1_555
H47 O12 1.671159 1_555
H48 O72 0.987531 1_555
H49 O73 0.987531 1_555
H50 O74 0.987531 1_555
H51 O75 0.987531 1_555
H52 O76 0.987531 1_555
H53 O77 0.987531 1_555
H54 O78 0.987531 1_555
H55 O79 0.987531 1_555
H56 O72 0.984685 1_555
H57 O73 0.984685 1_555
H58 O74 0.984685 1_555
H59 O75 0.984685 1_555
H60 O76 0.984685 1_555
H61 O77 0.984685 1_555
H62 O78 0.984685 1_555
H63 O79 0.984685 1_555
O0 P0 1.600270 1_555
O1 P1 1.600270 1_555
O2 P2 1.600270 1_555
O3 P3 1.600270 1_555
O4 P4 1.600270 1_555
O5 P5 1.600270 1_555
O6 P6 1.600270 1_555
O7 P7 1.600270 1_555
O8 P0 1.528463 1_555
O9 P1 1.528463 1_555
O10 P2 1.528463 1_555
O11 P3 1.528463 1_555
O12 P4 1.528463 1_555
O13 P5 1.528463 1_555
O14 P6 1.528463 1_555
O15 P7 1.528463 1_555
O16 P0 1.523005 1_555
O17 P1 1.523005 1_545
O18 P2 1.523005 1_565
O19 P3 1.523005 1_555
O20 P4 1.523005 1_555
O21 P5 1.523005 1_565
O22 P6 1.523005 1_545
O23 P7 1.523005 1_555
O24 P8 1.604229 1_555
O25 P9 1.604229 1_555
O26 P10 1.604229 1_555
O27 P11 1.604229 1_555
O28 P12 1.604229 1_555
O29 P13 1.604229 1_555
O30 P14 1.604229 1_555
O31 P15 1.604229 1_555
O32 P8 1.521268 1_555
O33 P9 1.521268 1_555
O34 P10 1.521268 1_555
O35 P11 1.521268 1_555
O36 P12 1.521268 1_555
O37 P13 1.521268 1_555
O38 P14 1.521268 1_555
O39 P15 1.521268 1_555
O40 P8 1.518512 1_555
O41 P9 1.518512 1_555
O42 P10 1.518512 1_555
O43 P11 1.518512 1_555
O44 P12 1.518512 1_555
O45 P13 1.518512 1_555
O46 P14 1.518512 1_555
O47 P15 1.518512 1_555
O48 P16 1.590576 1_455
O49 P17 1.590576 1_545
O50 P18 1.590576 1_665
O51 P19 1.590576 1_555
O52 P20 1.590576 1_655
O53 P21 1.590576 1_565
O54 P22 1.590576 1_445
O55 P23 1.590576 1_555
O56 P16 1.514804 1_455
O57 P17 1.514804 1_555
O58 P18 1.514804 1_655
O59 P19 1.514804 1_555
O60 P20 1.514804 1_655
O61 P21 1.514804 1_555
O62 P22 1.514804 1_455
O63 P23 1.514804 1_555
O64 P16 1.536905 1_455
O65 P17 1.536905 1_555
O66 P18 1.536905 1_655
O67 P19 1.536905 1_555
O68 P20 1.536905 1_655
O69 P21 1.536905 1_555
O70 P22 1.536905 1_455
O71 P23 1.536905 1_555
