# generated using pymatgen
data_CrH18(O3F)3
_symmetry_space_group_name_H-M   'P 1'
_cell_length_a   8.32960697
_cell_length_b   10.87888104
_cell_length_c   13.62832921
_cell_angle_alpha   66.47712332
_cell_angle_beta   82.79662885
_cell_angle_gamma   90.00924609
_symmetry_Int_Tables_number   1
_chemical_formula_structural   CrH18(O3F)3
_chemical_formula_sum   'Cr4 H72 O36 F12'
_cell_volume   1121.68228126
_cell_formula_units_Z   4
loop_
 _symmetry_equiv_pos_site_id
 _symmetry_equiv_pos_as_xyz
  1  'x, y, z'
loop_
 _atom_site_type_symbol
 _atom_site_label
 _atom_site_symmetry_multiplicity
 _atom_site_fract_x
 _atom_site_fract_y
 _atom_site_fract_z
 _atom_site_occupancy
  Cr  Cr0  1  0.49809400  0.49943400  0.00115600  1
  Cr  Cr1  1  0.74789100  0.24919100  0.50140000  1
  Cr  Cr2  1  0.99810800  0.99941600  0.00128000  1
  Cr  Cr3  1  0.24815300  0.74956200  0.50108000  1
  H  H0  1  0.95604200  0.47469600  0.15479900  1
  H  H1  1  0.20606200  0.22470100  0.65480900  1
  H  H2  1  0.45610400  0.97473000  0.15478900  1
  H  H3  1  0.70608000  0.72472200  0.65476100  1
  H  H4  1  0.22900900  0.46147500  0.33673400  1
  H  H5  1  0.47900500  0.21143500  0.83676400  1
  H  H6  1  0.72901600  0.96142800  0.33673500  1
  H  H7  1  0.97901600  0.71146200  0.83671500  1
  H  H8  1  0.15074400  0.17571500  0.28462800  1
  H  H9  1  0.40071400  0.92573100  0.78461600  1
  H  H10  1  0.65073000  0.67577700  0.28458200  1
  H  H11  1  0.90075900  0.42576200  0.78459300  1
  H  H12  1  0.98083200  0.32704800  0.15880000  1
  H  H13  1  0.23090600  0.07709200  0.65875900  1
  H  H14  1  0.48092600  0.82711200  0.15875400  1
  H  H15  1  0.73088600  0.57706600  0.65879100  1
  H  H16  1  0.12143500  0.56096600  0.25254500  1
  H  H17  1  0.37149700  0.31097100  0.75253300  1
  H  H18  1  0.62153700  0.06100100  0.25249800  1
  H  H19  1  0.87143400  0.81096800  0.75253600  1
  H  H20  1  0.26165500  0.23323500  0.34605300  1
  H  H21  1  0.51171100  0.98324800  0.84602000  1
  H  H22  1  0.76172200  0.73328000  0.34597600  1
  H  H23  1  0.01166000  0.48326500  0.84603800  1
  H  H24  1  0.20341900  0.58677600  0.04974300  1
  H  H25  1  0.45340300  0.33676400  0.54979400  1
  H  H26  1  0.70349600  0.08678700  0.04972000  1
  H  H27  1  0.95354200  0.83678800  0.54982400  1
  H  H28  1  0.45372000  0.44687700  0.21653000  1
  H  H29  1  0.70371900  0.19684300  0.71658700  1
  H  H30  1  0.95376600  0.94686700  0.21642500  1
  H  H31  1  0.20379600  0.69680300  0.71645100  1
  H  H32  1  0.28619700  0.28073900  0.10486100  1
  H  H33  1  0.53615100  0.03073800  0.60490200  1
  H  H34  1  0.78621800  0.78086600  0.10479500  1
  H  H35  1  0.03615400  0.53084300  0.60478300  1
  H  H36  1  0.46754100  0.33472000  0.42804800  1
  H  H37  1  0.71757300  0.08473800  0.92799000  1
  H  H38  1  0.96765700  0.83474300  0.42779400  1
  H  H39  1  0.21754100  0.58473800  0.92800100  1
  H  H40  1  0.04705200  0.09709500  0.14754700  1
  H  H41  1  0.29710700  0.84712200  0.64747600  1
  H  H42  1  0.54695500  0.59704300  0.14758600  1
  H  H43  1  0.79701600  0.34709900  0.64760500  1
  H  H44  1  0.97396500  0.73106600  0.09883000  1
  H  H45  1  0.22409000  0.48102100  0.59881300  1
  H  H46  1  0.47382900  0.23101900  0.09885700  1
  H  H47  1  0.72385200  0.98096000  0.59889600  1
  H  H48  1  0.27831300  0.01858000  0.40039600  1
  H  H49  1  0.52800600  0.76854100  0.90048500  1
  H  H50  1  0.77802900  0.51851100  0.40051800  1
  H  H51  1  0.02815400  0.26864300  0.90041100  1
  H  H52  1  0.78302600  0.41595800  0.07051100  1
  H  H53  1  0.03307300  0.16597200  0.57052600  1
  H  H54  1  0.28312600  0.91601800  0.07045800  1
  H  H55  1  0.53319400  0.66599700  0.57028800  1
  H  H56  1  0.20499000  0.65420700  0.35156700  1
  H  H57  1  0.45482800  0.40412700  0.85171600  1
  H  H58  1  0.70487300  0.15416100  0.35173900  1
  H  H59  1  0.95489400  0.90417600  0.85165700  1
  H  H60  1  0.96296800  0.46375900  0.39546100  1
  H  H61  1  0.21308600  0.21391500  0.89533600  1
  H  H62  1  0.46304000  0.96389200  0.39531800  1
  H  H63  1  0.71303200  0.71376700  0.89541000  1
  H  H64  1  0.04197100  0.16713700  0.44813700  1
  H  H65  1  0.29211200  0.91716900  0.94804600  1
  H  H66  1  0.54219900  0.66717800  0.44817700  1
  H  H67  1  0.79200500  0.41715600  0.94808900  1
  H  H68  1  0.79970800  0.30396600  0.28669100  1
  H  H69  1  0.04977900  0.05402900  0.78652600  1
  H  H70  1  0.29982800  0.80397900  0.28650000  1
  H  H71  1  0.54972400  0.55403400  0.78659300  1
  O  O0  1  0.34577300  0.93731800  0.42685900  1
  O  O1  1  0.59567900  0.68733500  0.92699000  1
  O  O2  1  0.84560600  0.43723500  0.42708300  1
  O  O3  1  0.09574200  0.18740900  0.92691300  1
  O  O4  1  0.71914400  0.42688200  0.00930200  1
  O  O5  1  0.96911300  0.17688100  0.50935100  1
  O  O6  1  0.21924700  0.92695900  0.00924300  1
  O  O7  1  0.46916500  0.67706900  0.50917300  1
  O  O8  1  0.24302900  0.73848400  0.35839900  1
  O  O9  1  0.49282000  0.48847400  0.85847300  1
  O  O10  1  0.74280400  0.23842700  0.35858500  1
  O  O11  1  0.99287900  0.98848000  0.85844700  1
  O  O12  1  0.52690200  0.32229500  0.49132100  1
  O  O13  1  0.77702200  0.07235200  0.99123600  1
  O  O14  1  0.02692000  0.82246400  0.49114000  1
  O  O15  1  0.27692200  0.57231300  0.99125600  1
  O  O16  1  0.00533900  0.01239900  0.14325300  1
  O  O17  1  0.25541600  0.76240500  0.64322400  1
  O  O18  1  0.50524400  0.51238500  0.14328300  1
  O  O19  1  0.75525400  0.26236900  0.64338000  1
  O  O20  1  0.90319500  0.81033700  0.07524600  1
  O  O21  1  0.15320600  0.56026200  0.57520500  1
  O  O22  1  0.40312300  0.31028700  0.07530100  1
  O  O23  1  0.65307500  0.06017900  0.57540400  1
  O  O24  1  0.89512600  0.38992300  0.16479200  1
  O  O25  1  0.14519200  0.13995500  0.66471400  1
  O  O26  1  0.39519600  0.88998700  0.16467900  1
  O  O27  1  0.64519000  0.63991000  0.66483500  1
  O  O28  1  0.14261100  0.52770000  0.32983900  1
  O  O29  1  0.39276100  0.27778900  0.82981000  1
  O  O30  1  0.64280300  0.02782000  0.32977900  1
  O  O31  1  0.89263500  0.77770900  0.82983000  1
  O  O32  1  0.18398900  0.15628200  0.35750000  1
  O  O33  1  0.43413900  0.90622900  0.85744500  1
  O  O34  1  0.68427200  0.65622100  0.35738400  1
  O  O35  1  0.93404100  0.40629500  0.85745300  1
  F  F0  1  0.07096500  0.60303800  0.13579900  1
  F  F1  1  0.32095300  0.35303600  0.63583400  1
  F  F2  1  0.57107900  0.10299300  0.13581800  1
  F  F3  1  0.82117100  0.85298500  0.63574000  1
  F  F4  1  0.36815400  0.36036600  0.33386000  1
  F  F5  1  0.61814600  0.11031700  0.83389000  1
  F  F6  1  0.86823900  0.86033100  0.33386900  1
  F  F7  1  0.11818000  0.61039800  0.83377500  1
  F  F8  1  0.11172800  0.22026100  0.16305800  1
  F  F9  1  0.36170800  0.97028200  0.66304900  1
  F  F10  1  0.61179600  0.72037100  0.16301500  1
  F  F11  1  0.86185700  0.47038100  0.66300900  1
loop_
_geom_bond_atom_site_label_1
_geom_bond_atom_site_label_2
_geom_bond_distance
_geom_bond_site_symmetry_2
Cr0 O9 2.000959 1_554
Cr0 O1 2.001268 1_554
Cr0 O4 2.001829 1_555
Cr0 O15 2.004545 1_554
Cr0 O22 2.005067 1_555
Cr0 O18 2.005481 1_555
Cr1 O10 2.001579 1_555
Cr1 O5 2.002143 1_555
Cr1 O2 2.003010 1_555
Cr1 O23 2.003342 1_555
Cr1 O12 2.004096 1_555
Cr1 O19 2.004877 1_555
Cr2 O6 2.002099 1_655
Cr2 O3 2.002357 1_664
Cr2 O11 2.002830 1_554
Cr2 O16 2.003648 1_665
Cr2 O13 2.004159 1_564
Cr2 O20 2.004188 1_555
Cr3 O0 2.000110 1_555
Cr3 O7 2.001287 1_555
Cr3 O8 2.001328 1_555
Cr3 O14 2.005122 1_555
Cr3 O17 2.005319 1_555
Cr3 O21 2.006362 1_555
H0 O24 1.004385 1_555
H1 O25 1.004298 1_555
H2 O26 1.004485 1_555
H3 O27 1.004322 1_555
H4 O28 1.004432 1_555
H5 O29 1.004371 1_555
H6 O30 1.004462 1_565
H7 O31 1.004505 1_555
H8 O32 1.004523 1_555
H9 O33 1.004435 1_555
H10 O34 1.004374 1_555
H11 O35 1.004425 1_555
H12 O24 1.007130 1_555
H13 O25 1.006951 1_555
H14 O26 1.007030 1_555
H15 O27 1.007019 1_555
H16 O28 1.006989 1_555
H17 O29 1.007053 1_555
H18 O30 1.007109 1_555
H19 O31 1.007057 1_555
H20 O32 1.006956 1_555
H21 O33 1.007098 1_555
H22 O34 1.006861 1_555
H23 O35 1.006966 1_455
H24 O15 1.006329 1_554
H25 O12 1.006195 1_555
H26 O13 1.006251 1_554
H27 O14 1.007178 1_655
H28 O18 1.006550 1_555
H29 O19 1.006281 1_555
H30 O16 1.006085 1_665
H31 O17 1.006932 1_555
H32 O22 1.006145 1_555
H33 O23 1.005817 1_555
H34 O20 1.006379 1_555
H35 O21 1.006923 1_555
H36 O12 1.010066 1_555
H37 O13 1.010275 1_555
H38 O14 1.010767 1_655
H39 O15 1.009954 1_555
H40 O16 1.010524 1_555
H41 O17 1.010407 1_555
H42 O18 1.010189 1_555
H43 O19 1.010576 1_555
H44 O20 1.010408 1_555
H45 O21 1.010780 1_555
H46 O22 1.010033 1_555
H47 O23 1.009971 1_565
H48 O0 1.011843 1_545
H48 O32 1.618549 1_555
H49 O1 1.012509 1_555
H49 O33 1.616516 1_555
H50 O2 1.012648 1_555
H50 O34 1.616288 1_555
H51 O3 1.012302 1_555
H51 O35 1.617236 1_455
H52 O4 1.012582 1_555
H52 O24 1.616641 1_555
H53 O5 1.012634 1_455
H53 O25 1.615766 1_555
H54 O6 1.012596 1_555
H54 O26 1.615826 1_555
H55 O7 1.011935 1_555
H55 O27 1.618867 1_555
H56 O8 1.012474 1_555
H56 O28 1.617219 1_555
H57 O9 1.012562 1_555
H57 O29 1.615994 1_555
H58 O10 1.012164 1_555
H58 O30 1.616449 1_555
H59 O11 1.012323 1_555
H59 O31 1.617233 1_555
H60 O2 1.009772 1_555
H60 O28 1.640195 1_655
H61 O3 1.009495 1_555
H61 O29 1.639928 1_555
H62 O0 1.008900 1_555
H62 O30 1.640714 1_565
H63 O1 1.009479 1_555
H63 O31 1.639767 1_555
H64 O5 1.009527 1_455
H64 O32 1.639864 1_555
H65 O6 1.009590 1_556
H65 O33 1.639916 1_555
H66 O7 1.008601 1_555
H66 O34 1.642036 1_555
H67 O4 1.009444 1_556
H67 O35 1.639973 1_555
H68 O10 1.009362 1_555
H68 O24 1.641518 1_555
H69 O11 1.009617 1_445
H69 O25 1.640589 1_555
H70 O8 1.008949 1_555
H70 O26 1.640692 1_555
H71 O9 1.009315 1_555
H71 O27 1.640124 1_555
F0 H44 1.545595 1_455
F0 H24 1.570092 1_555
F0 H16 1.582462 1_555
F0 H0 1.606750 1_455
F1 H45 1.544614 1_555
F1 H25 1.569963 1_555
F1 H17 1.582120 1_555
F1 H1 1.606624 1_555
F2 H46 1.546750 1_555
F2 H26 1.570057 1_555
F2 H18 1.581690 1_555
F2 H2 1.606410 1_545
F3 H47 1.546597 1_555
F3 H27 1.568038 1_555
F3 H19 1.582483 1_555
F3 H3 1.606790 1_555
F4 H36 1.546472 1_555
F4 H28 1.569488 1_555
F4 H20 1.583207 1_555
F4 H4 1.605672 1_555
F5 H37 1.545806 1_555
F5 H29 1.569273 1_555
F5 H21 1.582624 1_545
F5 H5 1.605716 1_555
F6 H38 1.543776 1_555
F6 H30 1.570558 1_555
F6 H22 1.582934 1_555
F6 H6 1.606026 1_555
F7 H39 1.546738 1_555
F7 H31 1.569343 1_555
F7 H23 1.583022 1_555
F7 H7 1.605632 1_455
F8 H40 1.544242 1_555
F8 H32 1.570982 1_555
F8 H12 1.582470 1_455
F8 H8 1.606119 1_555
F9 H41 1.544399 1_555
F9 H33 1.570592 1_565
F9 H13 1.582033 1_565
F9 H9 1.606048 1_555
F10 H42 1.545782 1_555
F10 H34 1.570754 1_555
F10 H14 1.581953 1_555
F10 H10 1.605797 1_555
F11 H43 1.545141 1_555
F11 H35 1.569798 1_655
F11 H15 1.582198 1_555
F11 H11 1.605896 1_555
