# generated using pymatgen
data_Sb2O5
_symmetry_space_group_name_H-M   'P 1'
_cell_length_a   5.10920900
_cell_length_b   8.57722500
_cell_length_c   10.28202350
_cell_angle_alpha   64.18395225
_cell_angle_beta   90.00000000
_cell_angle_gamma   90.00000000
_symmetry_Int_Tables_number   1
_chemical_formula_structural   Sb2O5
_chemical_formula_sum   'Sb8 O20'
_cell_volume   405.61736975
_cell_formula_units_Z   4
loop_
 _symmetry_equiv_pos_site_id
 _symmetry_equiv_pos_as_xyz
  1  'x, y, z'
loop_
 _atom_site_type_symbol
 _atom_site_label
 _atom_site_symmetry_multiplicity
 _atom_site_fract_x
 _atom_site_fract_y
 _atom_site_fract_z
 _atom_site_occupancy
  Sb  Sb0  1  0.47287300  0.19088500  0.94279600  1
  Sb  Sb1  1  0.99880300  0.64927200  0.32934900  1
  Sb  Sb2  1  0.97287300  0.80911500  0.55720400  1
  Sb  Sb3  1  0.50119700  0.64927200  0.82934900  1
  Sb  Sb4  1  0.49880300  0.35072800  0.17065100  1
  Sb  Sb5  1  0.02712700  0.19088500  0.44279600  1
  Sb  Sb6  1  0.00119700  0.35072800  0.67065100  1
  Sb  Sb7  1  0.52712700  0.80911500  0.05720400  1
  O  O0  1  0.73046100  0.00777900  0.05475700  1
  O  O1  1  0.19745600  0.36202000  0.82954800  1
  O  O2  1  0.33629200  0.73514200  0.24792100  1
  O  O3  1  0.14859800  0.58978800  0.54163600  1
  O  O4  1  0.64859800  0.41021200  0.95836400  1
  O  O5  1  0.81658000  0.81667400  0.37342300  1
  O  O6  1  0.69745600  0.63798000  0.67045200  1
  O  O7  1  0.23046100  0.99222100  0.44524300  1
  O  O8  1  0.31658000  0.18332600  0.12657700  1
  O  O9  1  0.16370800  0.73514200  0.74792100  1
  O  O10  1  0.83629200  0.26485800  0.25207900  1
  O  O11  1  0.68342000  0.81667400  0.87342300  1
  O  O12  1  0.76953900  0.00777900  0.55475700  1
  O  O13  1  0.30254400  0.36202000  0.32954800  1
  O  O14  1  0.18342000  0.18332600  0.62657700  1
  O  O15  1  0.35140200  0.58978800  0.04163600  1
  O  O16  1  0.85140200  0.41021200  0.45836400  1
  O  O17  1  0.66370800  0.26485800  0.75207900  1
  O  O18  1  0.80254400  0.63798000  0.17045200  1
  O  O19  1  0.26953900  0.99222100  0.94524300  1
loop_
_geom_bond_atom_site_label_1
_geom_bond_atom_site_label_2
_geom_bond_distance
_geom_bond_site_symmetry_2
O0 Sb7 1.986485 1_545
O0 Sb0 1.987254 1_554
O1 Sb6 1.954971 1_555
O1 Sb0 2.000485 1_555
O2 Sb1 1.918224 1_455
O2 Sb7 2.028528 1_555
O3 Sb6 2.040158 1_555
O3 Sb2 2.152428 1_455
O3 Sb1 2.154170 1_455
O4 Sb3 2.040158 1_555
O4 Sb0 2.152428 1_555
O4 Sb4 2.154170 1_556
O5 Sb1 1.923675 1_555
O5 Sb2 2.026301 1_555
O6 Sb3 1.954971 1_555
O6 Sb2 2.000485 1_555
O7 Sb5 1.986485 1_565
O7 Sb2 1.987254 1_455
O8 Sb4 1.923675 1_555
O8 Sb0 2.026301 1_554
O9 Sb3 1.918224 1_555
O9 Sb2 2.028528 1_455
O10 Sb4 1.918224 1_555
O10 Sb5 2.028528 1_655
O11 Sb3 1.923675 1_555
O11 Sb7 2.026301 1_556
O12 Sb2 1.986485 1_545
O12 Sb5 1.987254 1_655
O13 Sb4 1.954971 1_555
O13 Sb5 2.000485 1_555
O14 Sb6 1.923675 1_555
O14 Sb5 2.026301 1_555
O15 Sb4 2.040158 1_555
O15 Sb7 2.152428 1_555
O15 Sb3 2.154170 1_554
O16 Sb1 2.040158 1_555
O16 Sb5 2.152428 1_655
O16 Sb6 2.154170 1_655
O17 Sb6 1.918224 1_655
O17 Sb0 2.028528 1_555
O18 Sb1 1.954971 1_555
O18 Sb7 2.000485 1_555
O19 Sb0 1.986485 1_565
O19 Sb7 1.987254 1_556
