# generated using pymatgen
data_Li4MnSb2WO12
_symmetry_space_group_name_H-M   'P 1'
_cell_length_a   5.43885176
_cell_length_b   9.06247323
_cell_length_c   9.07942789
_cell_angle_alpha   68.86703874
_cell_angle_beta   86.26285084
_cell_angle_gamma   86.31422228
_symmetry_Int_Tables_number   1
_chemical_formula_structural   Li4MnSb2WO12
_chemical_formula_sum   'Li8 Mn2 Sb4 W2 O24'
_cell_volume   416.13489708
_cell_formula_units_Z   2
loop_
 _symmetry_equiv_pos_site_id
 _symmetry_equiv_pos_as_xyz
  1  'x, y, z'
loop_
 _atom_site_type_symbol
 _atom_site_label
 _atom_site_symmetry_multiplicity
 _atom_site_fract_x
 _atom_site_fract_y
 _atom_site_fract_z
 _atom_site_occupancy
  Li  Li0  1  0.56026500  0.65003200  0.65169500  1
  Li  Li1  1  0.56018600  0.15001700  0.15174300  1
  Li  Li2  1  0.08779200  0.13580600  0.63621900  1
  Li  Li3  1  0.08793000  0.63575600  0.13622500  1
  Li  Li4  1  0.43746000  0.85513600  0.85390100  1
  Li  Li5  1  0.43712400  0.35486000  0.35395500  1
  Li  Li6  1  0.10029500  0.40339100  0.90468500  1
  Li  Li7  1  0.10006500  0.90334100  0.40468200  1
  Mn  Mn0  1  0.50839900  0.50056400  0.99911900  1
  Mn  Mn1  1  0.50836300  0.00043300  0.49897400  1
  Sb  Sb0  1  0.99577000  0.75373100  0.75113100  1
  Sb  Sb1  1  0.99566600  0.25400400  0.25091000  1
  Sb  Sb2  1  0.51090500  0.24977700  0.75010300  1
  Sb  Sb3  1  0.51089700  0.74972300  0.25013300  1
  W  W0  1  0.00007500  0.50220400  0.50323200  1
  W  W1  1  0.00000700  0.00235600  0.00318600  1
  O  O0  1  0.80219800  0.86897700  0.56012300  1
  O  O1  1  0.80224200  0.36903300  0.05999700  1
  O  O2  1  0.00469200  0.94264900  0.81642800  1
  O  O3  1  0.00441300  0.44278100  0.31638600  1
  O  O4  1  0.18073700  0.18573700  0.87455100  1
  O  O5  1  0.18081700  0.68580000  0.37451800  1
  O  O6  1  0.30610900  0.81816000  0.61820300  1
  O  O7  1  0.30622000  0.31814800  0.11814300  1
  O  O8  1  0.30612000  0.37369400  0.56038100  1
  O  O9  1  0.30612700  0.87358600  0.06035500  1
  O  O10  1  0.48155000  0.06257600  0.68690000  1
  O  O11  1  0.48146900  0.56257400  0.18691100  1
  O  O12  1  0.48474500  0.43878200  0.81147500  1
  O  O13  1  0.48467400  0.93876100  0.31147600  1
  O  O14  1  0.68765400  0.11804900  0.94574400  1
  O  O15  1  0.68751900  0.61812700  0.44570000  1
  O  O16  1  0.67620600  0.68517600  0.86777200  1
  O  O17  1  0.67620300  0.18509900  0.36775800  1
  O  O18  1  0.82718000  0.30861800  0.62283200  1
  O  O19  1  0.82714000  0.80859100  0.12285300  1
  O  O20  1  0.99313700  0.55879700  0.68694800  1
  O  O21  1  0.99330000  0.05875800  0.18690200  1
  O  O22  1  0.19144100  0.62306300  0.93465600  1
  O  O23  1  0.19169700  0.12452300  0.43429500  1
loop_
_geom_bond_atom_site_label_1
_geom_bond_atom_site_label_2
_geom_bond_distance
_geom_bond_site_symmetry_2
Li0 O6 1.942862 1_555
Li0 O12 1.989768 1_555
Li0 O15 2.063050 1_555
Li0 O16 2.232844 1_555
Li0 O0 2.315858 1_555
Li0 O20 2.446643 1_555
Li1 O7 1.942109 1_555
Li1 O13 1.989640 1_545
Li1 O14 2.063649 1_554
Li1 O17 2.232186 1_555
Li1 O1 2.316772 1_555
Li1 O21 2.447881 1_555
Li2 O23 1.919295 1_555
Li2 O2 1.971213 1_545
Li2 O18 2.019000 1_455
Li2 O10 2.228029 1_555
Li2 O8 2.384122 1_555
Li2 O4 2.453751 1_555
Li3 O22 1.920604 1_554
Li3 O3 1.970530 1_555
Li3 O19 2.019807 1_455
Li3 O11 2.226828 1_555
Li3 O9 2.383281 1_555
Li3 O5 2.453852 1_555
Li4 O16 1.923193 1_555
Li4 O10 1.961088 1_565
Li4 O9 2.021873 1_556
Li4 O22 2.423482 1_555
Li4 O6 2.439143 1_555
Li4 O2 2.440237 1_555
Li5 O17 1.923119 1_555
Li5 O11 1.963146 1_555
Li5 O8 2.022497 1_555
Li5 O23 2.409274 1_555
Li5 O7 2.438121 1_555
Li5 O3 2.440804 1_555
Li6 O1 2.040493 1_456
Li6 O20 2.066023 1_455
Li6 O4 2.102272 1_555
Li6 O7 2.167823 1_556
Li6 O22 2.195008 1_555
Li6 O12 2.202509 1_555
Li7 O0 2.040408 1_455
Li7 O21 2.065698 1_465
Li7 O5 2.101636 1_555
Li7 O6 2.168637 1_555
Li7 O13 2.203324 1_555
Li7 O23 2.207492 1_565
Mn0 O16 1.915725 1_555
Mn0 O1 1.917202 1_556
Mn0 O11 1.972866 1_556
Mn0 O7 1.974971 1_556
Mn0 O12 1.989545 1_555
Mn0 O22 1.990912 1_555
Mn1 O17 1.915817 1_555
Mn1 O0 1.917144 1_545
Mn1 O6 1.974721 1_545
Mn1 O10 1.974750 1_555
Mn1 O13 1.987703 1_545
Mn1 O23 1.995609 1_555
O0 Sb0 1.999351 1_555
O1 Sb1 1.997948 1_555
O2 W1 1.955213 1_566
O2 Sb0 2.007816 1_455
O3 W0 1.954588 1_555
O3 Sb1 2.007478 1_455
O4 W1 1.937253 1_556
O4 Sb2 2.057872 1_555
O5 W0 1.938786 1_555
O5 Sb3 2.057091 1_555
O6 Sb0 1.999884 1_455
O7 Sb1 1.999869 1_455
O8 W0 1.955469 1_555
O8 Sb2 2.040424 1_555
O9 W1 1.956876 1_565
O9 Sb3 2.040621 1_555
O10 Sb2 1.995412 1_555
O11 Sb3 1.995124 1_555
O12 Sb2 1.977663 1_555
O13 Sb3 1.977796 1_555
O14 W1 1.936375 1_656
O14 Sb2 2.012590 1_555
O15 W0 1.938241 1_655
O15 Sb3 2.011484 1_555
O16 Sb0 1.988178 1_555
O17 Sb1 1.988950 1_555
O18 W0 1.961263 1_655
O18 Sb2 1.998283 1_555
O19 W1 1.962486 1_665
O19 Sb3 1.998199 1_555
O20 W0 1.911277 1_655
O20 Sb0 2.051164 1_555
O21 W1 1.910339 1_655
O21 Sb1 2.052828 1_555
O22 Sb0 1.989408 1_455
O23 Sb1 1.986894 1_455
