# generated using pymatgen
data_ReH(CO)4
_symmetry_space_group_name_H-M   'P 1'
_cell_length_a   9.70738225
_cell_length_b   9.70738225
_cell_length_c   13.59918726
_cell_angle_alpha   85.88176785
_cell_angle_beta   85.88176785
_cell_angle_gamma   83.00594065
_symmetry_Int_Tables_number   1
_chemical_formula_structural   ReH(CO)4
_chemical_formula_sum   'Re8 H8 C32 O32'
_cell_volume   1266.09859994
_cell_formula_units_Z   8
loop_
 _symmetry_equiv_pos_site_id
 _symmetry_equiv_pos_as_xyz
  1  'x, y, z'
loop_
 _atom_site_type_symbol
 _atom_site_label
 _atom_site_symmetry_multiplicity
 _atom_site_fract_x
 _atom_site_fract_y
 _atom_site_fract_z
 _atom_site_occupancy
  Re  Re0  1  0.81776500  0.38929000  0.42936600  1
  Re  Re1  1  0.61071000  0.18223500  0.07063400  1
  Re  Re2  1  0.18223500  0.61071000  0.57063400  1
  Re  Re3  1  0.38929000  0.81776500  0.92936600  1
  Re  Re4  1  0.84036800  0.71434900  0.51730500  1
  Re  Re5  1  0.28565100  0.15963200  0.98269500  1
  Re  Re6  1  0.15963200  0.28565100  0.48269500  1
  Re  Re7  1  0.71434900  0.84036800  0.01730500  1
  H  H0  1  0.77932100  0.55062600  0.49199400  1
  H  H1  1  0.44937400  0.22067900  0.00800600  1
  H  H2  1  0.22067900  0.44937400  0.50800600  1
  H  H3  1  0.55062600  0.77932100  0.99199400  1
  H  H4  1  0.99272200  0.39580300  0.47196700  1
  H  H5  1  0.60419700  0.00727800  0.02803300  1
  H  H6  1  0.00727800  0.60419700  0.52803300  1
  H  H7  1  0.39580300  0.99272200  0.97196700  1
  C  C0  1  0.62764900  0.43813600  0.39504200  1
  C  C1  1  0.56186400  0.37235100  0.10495800  1
  C  C2  1  0.37235100  0.56186400  0.60495800  1
  C  C3  1  0.43813600  0.62764900  0.89504200  1
  C  C4  1  0.81455500  0.20583000  0.38282100  1
  C  C5  1  0.79417000  0.18544500  0.11717900  1
  C  C6  1  0.18544500  0.79417000  0.61717900  1
  C  C7  1  0.20583000  0.81455500  0.88282100  1
  C  C8  1  0.75669500  0.31865100  0.56708900  1
  C  C9  1  0.68134900  0.24330500  0.93291100  1
  C  C10  1  0.24330500  0.68134900  0.43291100  1
  C  C11  1  0.31865100  0.75669500  0.06708900  1
  C  C12  1  0.88527000  0.46230800  0.29597300  1
  C  C13  1  0.53769200  0.11473000  0.20402700  1
  C  C14  1  0.11473000  0.53769200  0.70402700  1
  C  C15  1  0.46230800  0.88527000  0.79597300  1
  C  C16  1  0.86786800  0.89495400  0.56001900  1
  C  C17  1  0.10504600  0.13213200  0.93998100  1
  C  C18  1  0.13213200  0.10504600  0.43998100  1
  C  C19  1  0.89495400  0.86786800  0.06001900  1
  C  C20  1  0.64927500  0.78195000  0.49102000  1
  C  C21  1  0.21805000  0.35072500  0.00898000  1
  C  C22  1  0.35072500  0.21805000  0.50898000  1
  C  C23  1  0.78195000  0.64927500  0.99102000  1
  C  C24  1  0.90587000  0.77034600  0.37860200  1
  C  C25  1  0.22965400  0.09413000  0.12139800  1
  C  C26  1  0.09413000  0.22965400  0.62139800  1
  C  C27  1  0.77034600  0.90587000  0.87860200  1
  C  C28  1  0.78348900  0.65075700  0.65569300  1
  C  C29  1  0.34924300  0.21651100  0.84430700  1
  C  C30  1  0.21651100  0.34924300  0.34430700  1
  C  C31  1  0.65075700  0.78348900  0.15569300  1
  O  O0  1  0.51276600  0.46838900  0.37482200  1
  O  O1  1  0.53161100  0.48723400  0.12517800  1
  O  O2  1  0.48723400  0.53161100  0.62517800  1
  O  O3  1  0.46838900  0.51276600  0.87482200  1
  O  O4  1  0.80237100  0.09647900  0.35636600  1
  O  O5  1  0.90352100  0.19762900  0.14363400  1
  O  O6  1  0.19762900  0.90352100  0.64363400  1
  O  O7  1  0.09647900  0.80237100  0.85636600  1
  O  O8  1  0.71914200  0.27859900  0.64487500  1
  O  O9  1  0.72140100  0.28085800  0.85512500  1
  O  O10  1  0.28085800  0.72140100  0.35512500  1
  O  O11  1  0.27859900  0.71914200  0.14487500  1
  O  O12  1  0.92113000  0.50433600  0.21756800  1
  O  O13  1  0.49566400  0.07887000  0.28243200  1
  O  O14  1  0.07887000  0.49566400  0.78243200  1
  O  O15  1  0.50433600  0.92113000  0.71756800  1
  O  O16  1  0.87811400  0.00549900  0.58465400  1
  O  O17  1  0.99450100  0.12188600  0.91534600  1
  O  O18  1  0.12188600  0.99450100  0.41534600  1
  O  O19  1  0.00549900  0.87811400  0.08465400  1
  O  O20  1  0.53371600  0.82094200  0.47628200  1
  O  O21  1  0.17905800  0.46628400  0.02371800  1
  O  O22  1  0.46628400  0.17905800  0.52371800  1
  O  O23  1  0.82094200  0.53371600  0.97628200  1
  O  O24  1  0.94139100  0.80420500  0.29858500  1
  O  O25  1  0.19579500  0.05860900  0.20141500  1
  O  O26  1  0.05860900  0.19579500  0.70141500  1
  O  O27  1  0.80420500  0.94139100  0.79858500  1
  O  O28  1  0.74959900  0.61682400  0.73616700  1
  O  O29  1  0.38317600  0.25040100  0.76383300  1
  O  O30  1  0.25040100  0.38317600  0.26383300  1
  O  O31  1  0.61682400  0.74959900  0.23616700  1
loop_
_geom_bond_atom_site_label_1
_geom_bond_atom_site_label_2
_geom_bond_distance
_geom_bond_site_symmetry_2
H0 Re0 1.822380 1_555
H0 Re4 1.825609 1_555
H1 Re1 1.822380 1_555
H1 Re5 1.825609 1_554
H2 Re2 1.822380 1_555
H2 Re6 1.825609 1_555
H3 Re3 1.822380 1_555
H3 Re7 1.825609 1_556
H4 Re6 1.838347 1_655
H4 Re0 1.843052 1_555
H5 Re7 1.838347 1_545
H5 Re1 1.843052 1_555
H6 Re4 1.838347 1_455
H6 Re2 1.843052 1_555
H7 Re5 1.838347 1_565
H7 Re3 1.843052 1_555
C0 O0 1.165438 1_555
C0 Re0 1.930679 1_555
C1 O1 1.165438 1_555
C1 Re1 1.930679 1_555
C2 O2 1.165438 1_555
C2 Re2 1.930679 1_555
C3 O3 1.165438 1_555
C3 Re3 1.930679 1_555
C4 O4 1.166948 1_555
C4 Re0 1.936891 1_555
C5 O5 1.166948 1_555
C5 Re1 1.936891 1_555
C6 O6 1.166948 1_555
C6 Re2 1.936891 1_555
C7 O7 1.166948 1_555
C7 Re3 1.936891 1_555
C8 O8 1.150265 1_555
C8 Re0 2.021028 1_555
C9 O9 1.150265 1_555
C9 Re1 2.021028 1_556
C10 O10 1.150265 1_555
C10 Re2 2.021028 1_555
C11 O11 1.150265 1_555
C11 Re3 2.021028 1_554
C12 O12 1.159008 1_555
C12 Re0 1.995058 1_555
C13 O13 1.159008 1_555
C13 Re1 1.995058 1_555
C14 O14 1.159008 1_555
C14 Re2 1.995058 1_555
C15 O15 1.159008 1_555
C15 Re3 1.995058 1_555
C16 O16 1.164514 1_565
C16 Re4 1.940340 1_555
C17 O17 1.164514 1_455
C17 Re5 1.940340 1_555
C18 O18 1.164514 1_545
C18 Re6 1.940340 1_555
C19 O19 1.164514 1_655
C19 Re7 1.940340 1_555
C20 O20 1.166110 1_555
C20 Re4 1.940251 1_555
C21 O21 1.166110 1_555
C21 Re5 1.940251 1_554
C22 O22 1.166110 1_555
C22 Re6 1.940251 1_555
C23 O23 1.166110 1_555
C23 Re7 1.940251 1_556
C24 O24 1.154718 1_555
C24 Re4 2.005583 1_555
C25 O25 1.154718 1_555
C25 Re5 2.005583 1_554
C26 O26 1.154718 1_555
C26 Re6 2.005583 1_555
C27 O27 1.154718 1_555
C27 Re7 2.005583 1_556
C28 O28 1.156420 1_555
C28 Re4 1.998656 1_555
C29 O29 1.156420 1_555
C29 Re5 1.998656 1_555
C30 O30 1.156420 1_555
C30 Re6 1.998656 1_555
C31 O31 1.156420 1_555
C31 Re7 1.998656 1_555
