# generated using pymatgen
data_Li2Mn2F7
_symmetry_space_group_name_H-M   'P 1'
_cell_length_a   5.22248600
_cell_length_b   7.78882300
_cell_length_c   13.14981379
_cell_angle_alpha   82.17910754
_cell_angle_beta   90.00000000
_cell_angle_gamma   90.00000000
_symmetry_Int_Tables_number   1
_chemical_formula_structural   Li2Mn2F7
_chemical_formula_sum   'Li8 Mn8 F28'
_cell_volume   529.91978463
_cell_formula_units_Z   4
loop_
 _symmetry_equiv_pos_site_id
 _symmetry_equiv_pos_as_xyz
  1  'x, y, z'
loop_
 _atom_site_type_symbol
 _atom_site_label
 _atom_site_symmetry_multiplicity
 _atom_site_fract_x
 _atom_site_fract_y
 _atom_site_fract_z
 _atom_site_occupancy
  Li  Li0  1  0.27413700  0.85369700  0.56900500  1
  Li  Li1  1  0.76417700  0.77337600  0.90374500  1
  Li  Li2  1  0.25858600  0.72146500  0.10974100  1
  Li  Li3  1  0.77972500  0.60319600  0.42448000  1
  Li  Li4  1  0.27972500  0.39680400  0.57552000  1
  Li  Li5  1  0.75858600  0.27853500  0.89025900  1
  Li  Li6  1  0.26417700  0.22662400  0.09625500  1
  Li  Li7  1  0.77413700  0.14630300  0.43099500  1
  Mn  Mn0  1  0.26053300  0.92050400  0.32094200  1
  Mn  Mn1  1  0.76451700  0.97367500  0.11184700  1
  Mn  Mn2  1  0.75837800  0.58226200  0.67979100  1
  Mn  Mn3  1  0.26160500  0.52882300  0.88715400  1
  Mn  Mn4  1  0.76160500  0.47117700  0.11284600  1
  Mn  Mn5  1  0.25837800  0.41773800  0.32020900  1
  Mn  Mn6  1  0.26451700  0.02632500  0.88815300  1
  Mn  Mn7  1  0.76053300  0.07949600  0.67905800  1
  F  F0  1  0.54814400  0.95489400  0.40091700  1
  F  F1  1  0.42160800  0.02068500  0.19081200  1
  F  F2  1  0.59961100  0.83135700  0.65742900  1
  F  F3  1  0.41244100  0.78042700  0.87644100  1
  F  F4  1  0.07969900  0.82313800  0.43712900  1
  F  F5  1  0.09070700  0.91661700  0.02621500  1
  F  F6  1  0.97914700  0.86791200  0.23750400  1
  F  F7  1  0.06926600  0.64901200  0.62104500  1
  F  F8  1  0.90977200  0.61373700  0.82029200  1
  F  F9  1  0.61891500  0.73077200  0.08060400  1
  F  F10  1  0.40809400  0.66761600  0.29615100  1
  F  F11  1  0.57977100  0.55618200  0.54869200  1
  F  F12  1  0.58797400  0.43253200  0.97136000  1
  F  F13  1  0.46568400  0.49299100  0.75347500  1
  F  F14  1  0.96568400  0.50700900  0.24652500  1
  F  F15  1  0.08797400  0.56746800  0.02864000  1
  F  F16  1  0.07977100  0.44381800  0.45130800  1
  F  F17  1  0.90809400  0.33238400  0.70384900  1
  F  F18  1  0.11891500  0.26922800  0.91939600  1
  F  F19  1  0.40977200  0.38626300  0.17970800  1
  F  F20  1  0.56926600  0.35098800  0.37895500  1
  F  F21  1  0.47914700  0.13208800  0.76249600  1
  F  F22  1  0.59070700  0.08338300  0.97378500  1
  F  F23  1  0.57969900  0.17686200  0.56287100  1
  F  F24  1  0.91244100  0.21957300  0.12355900  1
  F  F25  1  0.09961100  0.16864300  0.34257100  1
  F  F26  1  0.92160800  0.97931500  0.80918800  1
  F  F27  1  0.04814400  0.04510600  0.59908300  1
loop_
_geom_bond_atom_site_label_1
_geom_bond_atom_site_label_2
_geom_bond_distance
_geom_bond_site_symmetry_2
F0 Mn0 1.873641 1_555
F0 Li7 1.983061 1_565
F1 Mn0 1.970092 1_545
F1 Li6 2.062070 1_555
F1 Mn1 2.126702 1_545
F2 Li0 2.053408 1_555
F2 Mn2 2.093541 1_555
F2 Mn7 2.161518 1_565
F3 Li1 1.871068 1_555
F3 Mn6 2.090217 1_565
F3 Mn3 2.098968 1_555
F4 Mn0 1.867075 1_555
F4 Li0 2.051191 1_555
F4 Li3 2.343962 1_455
F5 Li2 1.957323 1_555
F5 Mn6 2.104263 1_564
F5 Mn1 2.122184 1_455
F6 Mn0 1.911408 1_655
F6 Mn1 2.072410 1_555
F7 Mn2 1.842242 1_455
F7 Li0 1.964125 1_555
F7 Li4 2.396950 1_555
F8 Li1 1.923492 1_555
F8 Mn2 2.054747 1_555
F8 Mn3 2.104375 1_655
F9 Li2 1.919822 1_555
F9 Mn1 2.130243 1_555
F9 Mn4 2.142430 1_555
F9 Li1 2.425760 1_554
F10 Mn5 2.081292 1_555
F10 Mn0 2.180510 1_555
F11 Li3 1.931234 1_555
F11 Mn2 1.994632 1_555
F11 Li4 2.000427 1_555
F12 Li5 1.928233 1_555
F12 Mn3 2.113705 1_555
F12 Mn4 2.127624 1_556
F13 Mn2 1.890906 1_555
F13 Mn3 2.106511 1_555
F14 Mn5 1.890906 1_655
F14 Mn4 2.106511 1_555
F15 Li2 1.928233 1_555
F15 Mn4 2.113705 1_455
F15 Mn3 2.127624 1_554
F16 Li4 1.931234 1_555
F16 Mn5 1.994632 1_555
F16 Li3 2.000427 1_455
F17 Mn2 2.081292 1_555
F17 Mn7 2.180510 1_555
F18 Li5 1.919822 1_455
F18 Mn6 2.130243 1_555
F18 Mn3 2.142430 1_555
F18 Li6 2.425760 1_556
F19 Li6 1.923492 1_555
F19 Mn5 2.054747 1_555
F19 Mn4 2.104375 1_555
F20 Mn5 1.842242 1_555
F20 Li7 1.964125 1_555
F20 Li3 2.396950 1_555
F21 Mn7 1.911408 1_555
F21 Mn6 2.072410 1_555
F22 Li5 1.957323 1_555
F22 Mn1 2.104263 1_546
F22 Mn6 2.122184 1_555
F23 Mn7 1.867075 1_555
F23 Li7 2.051191 1_555
F23 Li4 2.343962 1_555
F24 Li6 1.871068 1_655
F24 Mn1 2.090217 1_545
F24 Mn4 2.098968 1_555
F25 Li7 2.053408 1_455
F25 Mn5 2.093541 1_555
F25 Mn0 2.161518 1_545
F26 Mn7 1.970092 1_565
F26 Li1 2.062070 1_555
F26 Mn6 2.126702 1_665
F27 Mn7 1.873641 1_455
F27 Li0 1.983061 1_545
