# generated using pymatgen
data_Fe5Co3O16
_symmetry_space_group_name_H-M   'P 1'
_cell_length_a   5.68952790
_cell_length_b   5.67684307
_cell_length_c   9.01590107
_cell_angle_alpha   90.26340956
_cell_angle_beta   90.61640717
_cell_angle_gamma   119.85583472
_symmetry_Int_Tables_number   1
_chemical_formula_structural   Fe5Co3O16
_chemical_formula_sum   'Fe5 Co3 O16'
_cell_volume   252.52141997
_cell_formula_units_Z   1
loop_
 _symmetry_equiv_pos_site_id
 _symmetry_equiv_pos_as_xyz
  1  'x, y, z'
loop_
 _atom_site_type_symbol
 _atom_site_label
 _atom_site_symmetry_multiplicity
 _atom_site_fract_x
 _atom_site_fract_y
 _atom_site_fract_z
 _atom_site_occupancy
  Fe  Fe0  1  0.32567800  0.66076800  0.49363900  1
  Fe  Fe1  1  0.66770500  0.83311800  0.21415100  1
  Fe  Fe2  1  0.66051500  0.32622700  0.99514300  1
  Fe  Fe3  1  0.83443600  0.66825200  0.71213800  1
  Fe  Fe4  1  0.83396500  0.16779600  0.71253800  1
  Co  Co0  1  0.16877100  0.83295200  0.21100100  1
  Co  Co1  1  0.16928300  0.33585600  0.21113000  1
  Co  Co2  1  0.33595800  0.16771300  0.71123300  1
  O  O0  1  0.16118200  0.84273000  0.60269900  1
  O  O1  1  0.03989400  0.52066600  0.32593600  1
  O  O2  1  0.32972600  0.66369400  0.10266000  1
  O  O3  1  0.00785100  0.00467700  0.31869700  1
  O  O4  1  0.00666500  0.00380000  0.81962600  1
  O  O5  1  0.16090900  0.31987200  0.60638700  1
  O  O6  1  0.47624200  0.96349000  0.33174000  1
  O  O7  1  0.47680800  0.51282500  0.33184200  1
  O  O8  1  0.31761100  0.15874700  0.10559900  1
  O  O9  1  0.67692000  0.84236200  0.60401000  1
  O  O10  1  0.51799000  0.48072900  0.83103800  1
  O  O11  1  0.51809600  0.03953800  0.82917800  1
  O  O12  1  0.66448200  0.33277000  0.60290100  1
  O  O13  1  0.84228700  0.67637200  0.10452500  1
  O  O14  1  0.96408100  0.48070400  0.83306100  1
  O  O15  1  0.84294600  0.16454100  0.10484700  1
loop_
_geom_bond_atom_site_label_1
_geom_bond_atom_site_label_2
_geom_bond_distance
_geom_bond_site_symmetry_2
Fe0 O0 1.970477 1_555
Fe0 O5 1.972187 1_555
Fe0 O9 1.985746 1_555
Fe0 O1 2.052065 1_555
Fe0 O7 2.075420 1_555
Fe0 O6 2.098086 1_555
Fe1 O13 1.910060 1_555
Fe1 O3 1.912583 1_665
Fe1 O15 1.917173 1_565
Fe1 O6 1.917993 1_555
Fe1 O7 1.920396 1_555
Fe1 O2 1.934237 1_555
Fe2 O15 1.957777 1_556
Fe2 O8 1.976269 1_556
Fe2 O13 1.976471 1_556
Fe2 O11 2.045192 1_555
Fe2 O10 2.076092 1_555
Fe2 O14 2.108457 1_555
Fe3 O9 1.898012 1_555
Fe3 O0 1.904142 1_655
Fe3 O4 1.905780 1_665
Fe3 O14 1.908272 1_555
Fe3 O12 1.913311 1_555
Fe3 O10 1.915125 1_555
Fe4 O9 1.868119 1_545
Fe4 O14 1.881437 1_555
Fe4 O5 1.889031 1_655
Fe4 O11 1.900175 1_555
Fe4 O4 1.913895 1_655
Fe4 O12 1.916025 1_555
Co0 O6 1.858848 1_555
Co0 O13 1.863324 1_455
Co0 O1 1.869030 1_555
Co0 O8 1.874803 1_565
Co0 O2 1.898066 1_555
Co0 O3 1.905376 1_565
Co1 O7 1.858483 1_555
Co1 O15 1.861909 1_455
Co1 O8 1.865906 1_555
Co1 O1 1.867991 1_555
Co1 O2 1.896784 1_555
Co1 O3 1.906675 1_555
Co2 O11 1.862321 1_555
Co2 O5 1.864233 1_555
Co2 O0 1.867042 1_545
Co2 O10 1.876925 1_555
Co2 O12 1.905147 1_555
Co2 O4 1.908664 1_555
