# generated using pymatgen
data_Li2Mn2P2(H4O5)3
_symmetry_space_group_name_H-M   'P 1'
_cell_length_a   4.83828100
_cell_length_b   11.54271997
_cell_length_c   12.12457201
_cell_angle_alpha   87.02138915
_cell_angle_beta   89.92570831
_cell_angle_gamma   77.89623224
_symmetry_Int_Tables_number   1
_chemical_formula_structural   Li2Mn2P2(H4O5)3
_chemical_formula_sum   'Li4 Mn4 P4 H24 O30'
_cell_volume   661.14088457
_cell_formula_units_Z   2
loop_
 _symmetry_equiv_pos_site_id
 _symmetry_equiv_pos_as_xyz
  1  'x, y, z'
loop_
 _atom_site_type_symbol
 _atom_site_label
 _atom_site_symmetry_multiplicity
 _atom_site_fract_x
 _atom_site_fract_y
 _atom_site_fract_z
 _atom_site_occupancy
  Li  Li0  1  0.98899400  0.78886900  0.92172000  1
  Li  Li1  1  0.22425800  0.78903800  0.42204200  1
  Li  Li2  1  0.77615000  0.21096600  0.57723600  1
  Li  Li3  1  0.01293100  0.21051100  0.07861000  1
  Mn  Mn0  1  0.07736700  0.50190800  0.87544600  1
  Mn  Mn1  1  0.57917100  0.49841400  0.62375700  1
  Mn  Mn2  1  0.42002000  0.50157500  0.37575900  1
  Mn  Mn3  1  0.92227000  0.49776900  0.12415000  1
  P  P0  1  0.51987800  0.67022000  0.78550800  1
  P  P1  1  0.81032200  0.66940800  0.28618900  1
  P  P2  1  0.18913800  0.33047900  0.71320700  1
  P  P3  1  0.47979600  0.32966400  0.21421700  1
  H  H0  1  0.56718800  0.96367200  0.85611800  1
  H  H1  1  0.23515300  0.93087100  0.76757600  1
  H  H2  1  0.46803500  0.96393400  0.35299600  1
  H  H3  1  0.15182700  0.82790000  0.62618400  1
  H  H4  1  0.83399800  0.92547600  0.26823700  1
  H  H5  1  0.01918100  0.83272200  0.12426600  1
  H  H6  1  0.89825200  0.77241100  0.59657500  1
  H  H7  1  0.32838800  0.77340300  0.09796700  1
  H  H8  1  0.63106000  0.46387500  0.92990600  1
  H  H9  1  0.09495700  0.53634900  0.57019600  1
  H  H10  1  0.90402900  0.46384800  0.42910700  1
  H  H11  1  0.36832600  0.53615300  0.07010400  1
  H  H12  1  0.68099900  0.22637600  0.90073200  1
  H  H13  1  0.10284000  0.22785900  0.40301100  1
  H  H14  1  0.98971500  0.16398700  0.87679100  1
  H  H15  1  0.16787500  0.07413900  0.73081100  1
  H  H16  1  0.85119300  0.17137600  0.37331100  1
  H  H17  1  0.53434100  0.03564800  0.64644700  1
  H  H18  1  0.75995500  0.01499400  0.93375700  1
  H  H19  1  0.76716800  0.06877100  0.23180400  1
  H  H20  1  0.77855500  0.98370300  0.56850000  1
  H  H21  1  0.43470000  0.03552700  0.14407400  1
  H  H22  1  0.22481700  0.01610300  0.43131400  1
  H  H23  1  0.24112800  0.98428400  0.06672400  1
  O  O0  1  0.72526000  0.93925400  0.90954600  1
  O  O1  1  0.33451300  0.94021500  0.40720300  1
  O  O2  1  0.01052700  0.82932200  0.56794600  1
  O  O3  1  0.29661500  0.77806400  0.81013700  1
  O  O4  1  0.16281300  0.83009900  0.06707600  1
  O  O5  1  0.60495600  0.66456300  0.66056800  1
  O  O6  1  0.92720900  0.77686800  0.31164100  1
  O  O7  1  0.79311600  0.65764700  0.85815000  1
  O  O8  1  0.73131100  0.66427000  0.16116800  1
  O  O9  1  0.54902700  0.65729600  0.35854700  1
  O  O10  1  0.40554500  0.55092100  0.80589000  1
  O  O11  1  0.25317400  0.56201900  0.53238100  1
  O  O12  1  0.04324700  0.55005700  0.30613500  1
  O  O13  1  0.81474700  0.43828900  0.96721800  1
  O  O14  1  0.18485700  0.56138500  0.03250700  1
  O  O15  1  0.95612400  0.44981200  0.69310600  1
  O  O16  1  0.74620500  0.43813400  0.46699200  1
  O  O17  1  0.59414900  0.44896000  0.19385800  1
  O  O18  1  0.45075100  0.34278100  0.64078200  1
  O  O19  1  0.26800700  0.33576500  0.83810500  1
  O  O20  1  0.20702300  0.34201100  0.14158100  1
  O  O21  1  0.07328400  0.22295200  0.68752100  1
  O  O22  1  0.39470100  0.33528900  0.33910100  1
  O  O23  1  0.84292000  0.16860100  0.93304000  1
  O  O24  1  0.70396700  0.22175600  0.18958300  1
  O  O25  1  0.99157700  0.17081700  0.43160600  1
  O  O26  1  0.66764400  0.05940000  0.59214100  1
  O  O27  1  0.31333900  0.00240100  0.75193000  1
  O  O28  1  0.27555000  0.05987400  0.09090600  1
  O  O29  1  0.68870700  0.99743200  0.24774000  1
loop_
_geom_bond_atom_site_label_1
_geom_bond_atom_site_label_2
_geom_bond_distance
_geom_bond_site_symmetry_2
Li0 O0 1.925660 1_555
Li0 O3 1.998889 1_655
Li0 O4 2.073301 1_656
Li0 O7 2.124059 1_555
Li1 O1 1.928582 1_555
Li1 O6 1.996559 1_455
Li1 O2 2.072220 1_555
Li1 O9 2.119106 1_555
Li2 O26 1.928995 1_555
Li2 O21 1.995370 1_655
Li2 O25 2.072812 1_555
Li2 O18 2.121643 1_555
Li3 O28 1.925368 1_555
Li3 O24 1.998343 1_455
Li3 O23 2.070056 1_454
Li3 O20 2.118670 1_555
Mn0 O13 1.922123 1_455
Mn0 O10 1.968782 1_555
Mn0 O19 2.020105 1_555
Mn0 O7 2.022800 1_455
Mn0 O14 2.157847 1_556
Mn0 O15 2.425443 1_455
Mn1 O11 1.920570 1_555
Mn1 O15 1.968210 1_555
Mn1 O5 2.020446 1_555
Mn1 O18 2.021147 1_555
Mn1 O16 2.155826 1_555
Mn1 O10 2.422871 1_555
Mn2 O16 1.919938 1_555
Mn2 O12 1.968743 1_555
Mn2 O22 2.020897 1_555
Mn2 O9 2.023640 1_555
Mn2 O11 2.154541 1_555
Mn2 O17 2.421267 1_555
Mn3 O14 1.921115 1_655
Mn3 O17 1.968284 1_555
Mn3 O8 2.023015 1_555
Mn3 O20 2.024258 1_655
Mn3 O13 2.156504 1_554
Mn3 O12 2.421852 1_655
H0 O0 0.987876 1_555
H1 O27 0.987575 1_565
H2 O1 0.989255 1_555
H3 O2 0.980602 1_555
H4 O29 0.989903 1_555
H4 O6 1.733524 1_555
H5 O4 0.978144 1_555
H6 O2 0.986186 1_655
H7 O4 0.982731 1_555
H8 O13 0.979186 1_555
H9 O11 0.981879 1_555
H10 O16 0.980886 1_555
H11 O14 0.979500 1_555
H12 O23 0.983093 1_555
H13 O25 0.983840 1_455
H14 O23 0.979308 1_555
H15 O27 0.990252 1_555
H15 O21 1.735716 1_555
H16 O25 0.979735 1_555
H17 O26 0.989427 1_555
H18 O0 0.983360 1_545
H19 O29 0.986849 1_545
H20 O26 0.981101 1_565
H21 O28 0.989529 1_555
H22 O1 0.982693 1_545
H23 O28 0.981139 1_565
O3 P0 1.509793 1_555
O5 P0 1.570302 1_555
O6 P1 1.512617 1_555
O7 P0 1.566447 1_555
O8 P1 1.570903 1_555
O9 P1 1.563958 1_555
O10 P0 1.595940 1_555
O12 P1 1.594176 1_455
O15 P2 1.594459 1_655
O17 P3 1.595929 1_555
O18 P2 1.566186 1_555
O19 P2 1.569525 1_555
O20 P3 1.564848 1_555
O21 P2 1.511301 1_555
O22 P3 1.569653 1_555
O24 P3 1.512699 1_555
