# generated using pymatgen
data_Ni3OF5
_symmetry_space_group_name_H-M   'P 1'
_cell_length_a   3.09385700
_cell_length_b   4.69570400
_cell_length_c   14.08702600
_cell_angle_alpha   90.00000000
_cell_angle_beta   90.00000000
_cell_angle_gamma   90.00000000
_symmetry_Int_Tables_number   1
_chemical_formula_structural   Ni3OF5
_chemical_formula_sum   'Ni6 O2 F10'
_cell_volume   204.65401318
_cell_formula_units_Z   2
loop_
 _symmetry_equiv_pos_site_id
 _symmetry_equiv_pos_as_xyz
  1  'x, y, z'
loop_
 _atom_site_type_symbol
 _atom_site_label
 _atom_site_symmetry_multiplicity
 _atom_site_fract_x
 _atom_site_fract_y
 _atom_site_fract_z
 _atom_site_occupancy
  Ni  Ni0  1  0.00000000  0.76324900  0.00270400  1
  Ni  Ni1  1  0.00000000  0.73864800  0.33388500  1
  Ni  Ni2  1  0.00000000  0.76520600  0.66276300  1
  Ni  Ni3  1  0.50000000  0.23479400  0.16276300  1
  Ni  Ni4  1  0.50000000  0.23675100  0.50270400  1
  Ni  Ni5  1  0.50000000  0.26135200  0.83388500  1
  O  O0  1  0.50000000  0.94849600  0.60069200  1
  O  O1  1  0.00000000  0.05150400  0.10069200  1
  F  F0  1  0.50000000  0.94259700  0.26938400  1
  F  F1  1  0.50000000  0.94891900  0.93321000  1
  F  F2  1  0.00000000  0.05740300  0.76938400  1
  F  F3  1  0.00000000  0.05108100  0.43321000  1
  F  F4  1  0.00000000  0.44176100  0.23027200  1
  F  F5  1  0.00000000  0.44664600  0.56515900  1
  F  F6  1  0.00000000  0.45377700  0.90193200  1
  F  F7  1  0.50000000  0.55335400  0.06515900  1
  F  F8  1  0.50000000  0.54622300  0.40193200  1
  F  F9  1  0.50000000  0.55823900  0.73027200  1
loop_
_geom_bond_atom_site_label_1
_geom_bond_atom_site_label_2
_geom_bond_distance
_geom_bond_site_symmetry_2
Ni0 O1 1.933266 1_565
Ni2 O0 1.974416 1_455
Ni2 O0 1.974416 1_555
Ni3 O1 1.974416 1_655
Ni3 O1 1.974416 1_555
Ni4 O0 1.933266 1_545
F0 Ni1 2.033654 1_655
F0 Ni1 2.033654 1_555
F0 Ni3 2.034330 1_565
F1 Ni5 2.027339 1_565
F1 Ni0 2.027679 1_656
F1 Ni0 2.027679 1_556
F2 Ni5 2.033654 1_555
F2 Ni5 2.033654 1_455
F2 Ni2 2.034330 1_545
F3 Ni1 2.027339 1_545
F3 Ni4 2.027679 1_555
F3 Ni4 2.027679 1_455
F4 Ni1 2.018397 1_555
F4 Ni3 2.059586 1_455
F4 Ni3 2.059586 1_555
F5 Ni2 2.031771 1_555
F5 Ni4 2.034321 1_555
F5 Ni4 2.034321 1_455
F6 Ni0 2.031492 1_556
F6 Ni5 2.031823 1_455
F6 Ni5 2.031823 1_555
F7 Ni3 2.031771 1_555
F7 Ni0 2.034321 1_555
F7 Ni0 2.034321 1_655
F8 Ni4 2.031492 1_555
F8 Ni1 2.031823 1_655
F8 Ni1 2.031823 1_555
F9 Ni5 2.018397 1_555
F9 Ni2 2.059586 1_655
F9 Ni2 2.059586 1_555
