# generated using pymatgen
data_LiFeSiO4
_symmetry_space_group_name_H-M   'P 1'
_cell_length_a   10.95667175
_cell_length_b   10.95667175
_cell_length_c   11.66484400
_cell_angle_alpha   90.00000000
_cell_angle_beta   90.00000000
_cell_angle_gamma   119.99999847
_symmetry_Int_Tables_number   1
_chemical_formula_structural   LiFeSiO4
_chemical_formula_sum   'Li12 Fe12 Si12 O48'
_cell_volume   1212.73768989
_cell_formula_units_Z   12
loop_
 _symmetry_equiv_pos_site_id
 _symmetry_equiv_pos_as_xyz
  1  'x, y, z'
loop_
 _atom_site_type_symbol
 _atom_site_label
 _atom_site_symmetry_multiplicity
 _atom_site_fract_x
 _atom_site_fract_y
 _atom_site_fract_z
 _atom_site_occupancy
  Li  Li0  1  0.00000000  0.50000000  0.00915400  1
  Li  Li1  1  0.00000000  0.50000000  0.65751300  1
  Li  Li2  1  0.00000000  0.50000000  0.33333300  1
  Li  Li3  1  0.00000000  0.00000000  0.16666700  1
  Li  Li4  1  0.00000000  0.00000000  0.50000000  1
  Li  Li5  1  0.00000000  0.00000000  0.83333300  1
  Li  Li6  1  0.50000000  0.50000000  0.34248700  1
  Li  Li7  1  0.50000000  0.50000000  0.66666700  1
  Li  Li8  1  0.50000000  0.50000000  0.99084600  1
  Li  Li9  1  0.50000000  0.00000000  0.32418000  1
  Li  Li10  1  0.50000000  0.00000000  0.00000000  1
  Li  Li11  1  0.50000000  0.00000000  0.67582000  1
  Fe  Fe0  1  0.00000000  0.75026100  0.33333300  1
  Fe  Fe1  1  0.24683900  0.75316100  0.66666700  1
  Fe  Fe2  1  0.00000000  0.24973900  0.33333300  1
  Fe  Fe3  1  0.24683900  0.49367800  0.00000000  1
  Fe  Fe4  1  0.24973900  0.24973900  0.66666700  1
  Fe  Fe5  1  0.50632200  0.75316100  0.33333300  1
  Fe  Fe6  1  0.24973900  0.00000000  0.00000000  1
  Fe  Fe7  1  0.49367800  0.24683900  0.33333300  1
  Fe  Fe8  1  0.75026100  0.75026100  0.66666700  1
  Fe  Fe9  1  0.75316100  0.50632200  0.00000000  1
  Fe  Fe10  1  0.75316100  0.24683900  0.66666700  1
  Fe  Fe11  1  0.75026100  0.00000000  0.00000000  1
  Si  Si0  1  0.00000000  0.74810200  0.83333300  1
  Si  Si1  1  0.00000000  0.25189800  0.83333300  1
  Si  Si2  1  0.25235500  0.74764500  0.16666700  1
  Si  Si3  1  0.25235500  0.50470900  0.50000000  1
  Si  Si4  1  0.49529100  0.74764500  0.83333300  1
  Si  Si5  1  0.25189800  0.25189800  0.16666700  1
  Si  Si6  1  0.25189800  0.00000000  0.50000000  1
  Si  Si7  1  0.74810200  0.74810200  0.16666700  1
  Si  Si8  1  0.50470900  0.25235500  0.83333300  1
  Si  Si9  1  0.74764500  0.49529100  0.50000000  1
  Si  Si10  1  0.74764500  0.25235500  0.16666700  1
  Si  Si11  1  0.74810200  0.00000000  0.50000000  1
  O  O0  1  0.10027000  0.89664200  0.43683100  1
  O  O1  1  0.10335800  0.89973000  0.89650200  1
  O  O2  1  0.07308600  0.69103000  0.74036900  1
  O  O3  1  0.11937500  0.70151300  0.25519600  1
  O  O4  1  0.29848700  0.88062500  0.07813700  1
  O  O5  1  0.30897000  0.92691400  0.59296500  1
  O  O6  1  0.19654500  0.59405000  0.57611100  1
  O  O7  1  0.07308600  0.38205600  0.92629800  1
  O  O8  1  0.19654500  0.60249500  0.09055600  1
  O  O9  1  0.11937500  0.41786200  0.41147100  1
  O  O10  1  0.10027000  0.20362800  0.22983500  1
  O  O11  1  0.40595000  0.80345500  0.75722300  1
  O  O12  1  0.39750500  0.80345500  0.24277700  1
  O  O13  1  0.10335800  0.20362800  0.77016500  1
  O  O14  1  0.29848700  0.41786200  0.58852900  1
  O  O15  1  0.40595000  0.60249500  0.90944400  1
  O  O16  1  0.30897000  0.38205600  0.07370200  1
  O  O17  1  0.39750500  0.59405000  0.42388900  1
  O  O18  1  0.20362800  0.10335800  0.56316900  1
  O  O19  1  0.20362800  0.10027000  0.10349800  1
  O  O20  1  0.61794400  0.92691400  0.40703500  1
  O  O21  1  0.58213800  0.88062500  0.92186300  1
  O  O22  1  0.58213800  0.70151300  0.74480400  1
  O  O23  1  0.38205600  0.30897000  0.25963100  1
  O  O24  1  0.61794400  0.69103000  0.25963100  1
  O  O25  1  0.41786200  0.29848700  0.74480400  1
  O  O26  1  0.41786200  0.11937500  0.92186300  1
  O  O27  1  0.38205600  0.07308600  0.40703500  1
  O  O28  1  0.79637200  0.89973000  0.10349800  1
  O  O29  1  0.79637200  0.89664200  0.56316900  1
  O  O30  1  0.60249500  0.40595000  0.42388900  1
  O  O31  1  0.69103000  0.61794400  0.07370200  1
  O  O32  1  0.59405000  0.39750500  0.90944400  1
  O  O33  1  0.70151300  0.58213800  0.58852900  1
  O  O34  1  0.89664200  0.79637200  0.77016500  1
  O  O35  1  0.60249500  0.19654500  0.24277700  1
  O  O36  1  0.59405000  0.19654500  0.75722300  1
  O  O37  1  0.89973000  0.79637200  0.22983500  1
  O  O38  1  0.88062500  0.58213800  0.41147100  1
  O  O39  1  0.80345500  0.39750500  0.09055600  1
  O  O40  1  0.92691400  0.61794400  0.92629800  1
  O  O41  1  0.80345500  0.40595000  0.57611100  1
  O  O42  1  0.69103000  0.07308600  0.59296500  1
  O  O43  1  0.70151300  0.11937500  0.07813700  1
  O  O44  1  0.88062500  0.29848700  0.25519600  1
  O  O45  1  0.92691400  0.30897000  0.74036900  1
  O  O46  1  0.89664200  0.10027000  0.89650200  1
  O  O47  1  0.89973000  0.10335800  0.43683100  1
loop_
_geom_bond_atom_site_label_1
_geom_bond_atom_site_label_2
_geom_bond_distance
_geom_bond_site_symmetry_2
Li0 O40 2.068858 1_454
Li0 O7 2.068858 1_554
Li0 O8 2.093293 1_555
Li0 O39 2.093293 1_455
Li1 O45 2.068858 1_455
Li1 O2 2.068858 1_555
Li1 O6 2.093293 1_555
Li1 O41 2.093293 1_455
Li2 O3 2.128033 1_555
Li2 O44 2.128033 1_455
Li2 O38 2.128038 1_455
Li2 O9 2.128038 1_555
Li3 O10 2.067978 1_555
Li3 O37 2.067978 1_445
Li3 O19 2.067982 1_555
Li3 O28 2.067982 1_445
Li4 O47 2.067982 1_455
Li4 O0 2.067982 1_545
Li4 O29 2.067982 1_445
Li4 O18 2.067982 1_555
Li5 O13 2.067978 1_555
Li5 O34 2.067978 1_445
Li5 O1 2.067982 1_545
Li5 O46 2.067982 1_455
Li6 O24 2.068858 1_555
Li6 O23 2.068858 1_555
Li6 O30 2.093293 1_555
Li6 O17 2.093293 1_555
Li7 O22 2.128033 1_555
Li7 O25 2.128033 1_555
Li7 O33 2.128038 1_555
Li7 O14 2.128038 1_555
Li8 O31 2.068858 1_556
Li8 O16 2.068858 1_556
Li8 O15 2.093293 1_555
Li8 O32 2.093293 1_555
Li9 O20 2.068852 1_545
Li9 O27 2.068852 1_555
Li9 O35 2.093298 1_555
Li9 O12 2.093298 1_545
Li10 O21 2.128033 1_544
Li10 O26 2.128033 1_554
Li10 O43 2.128033 1_555
Li10 O4 2.128033 1_545
Li11 O5 2.068852 1_545
Li11 O42 2.068852 1_555
Li11 O36 2.093298 1_555
Li11 O11 2.093298 1_545
Fe0 O37 1.864088 1_455
Fe0 O0 1.864088 1_555
Fe0 O3 1.877597 1_555
Fe0 O38 1.877603 1_455
Fe1 O6 1.870293 1_555
Fe1 O11 1.870293 1_555
Fe1 O2 1.879054 1_555
Fe1 O5 1.879054 1_555
Fe2 O10 1.864088 1_555
Fe2 O47 1.864088 1_455
Fe2 O44 1.877597 1_455
Fe2 O9 1.877603 1_555
Fe3 O8 1.870293 1_555
Fe3 O15 1.870293 1_554
Fe3 O16 1.879054 1_555
Fe3 O7 1.879054 1_554
Fe4 O13 1.864088 1_555
Fe4 O18 1.864088 1_555
Fe4 O25 1.877597 1_555
Fe4 O14 1.877603 1_555
Fe5 O12 1.870293 1_555
Fe5 O17 1.870293 1_555
Fe5 O24 1.879054 1_555
Fe5 O20 1.879054 1_555
Fe6 O19 1.864088 1_555
Fe6 O1 1.864088 1_544
Fe6 O4 1.877597 1_545
Fe6 O26 1.877597 1_554
Fe7 O35 1.870293 1_555
Fe7 O30 1.870293 1_555
Fe7 O23 1.879054 1_555
Fe7 O27 1.879054 1_555
Fe8 O34 1.864088 1_555
Fe8 O29 1.864088 1_555
Fe8 O22 1.877597 1_555
Fe8 O33 1.877603 1_555
Fe9 O39 1.870293 1_555
Fe9 O32 1.870293 1_554
Fe9 O31 1.879054 1_555
Fe9 O40 1.879054 1_554
Fe10 O36 1.870293 1_555
Fe10 O41 1.870293 1_555
Fe10 O45 1.879054 1_555
Fe10 O42 1.879054 1_555
Fe11 O28 1.864088 1_545
Fe11 O46 1.864088 1_554
Fe11 O43 1.877597 1_555
Fe11 O21 1.877597 1_544
O0 Si6 1.644405 1_565
O1 Si0 1.644405 1_555
O2 Si0 1.645892 1_555
O3 Si2 1.645707 1_555
O4 Si2 1.645715 1_555
O5 Si6 1.645900 1_565
O6 Si3 1.648919 1_555
O7 Si1 1.645900 1_555
O8 Si2 1.648911 1_555
O9 Si3 1.645706 1_555
O10 Si5 1.644400 1_555
O11 Si4 1.648913 1_555
O12 Si2 1.648905 1_555
O13 Si1 1.644400 1_555
O14 Si3 1.645699 1_555
O15 Si4 1.648912 1_555
O16 Si5 1.645900 1_555
O17 Si3 1.648912 1_555
O18 Si6 1.644405 1_555
O19 Si5 1.644405 1_555
O20 Si11 1.645900 1_565
O21 Si4 1.645713 1_555
O22 Si4 1.645699 1_555
O23 Si5 1.645892 1_555
O24 Si7 1.645892 1_555
O25 Si8 1.645699 1_555
O26 Si8 1.645713 1_555
O27 Si6 1.645900 1_555
O28 Si7 1.644405 1_555
O29 Si11 1.644405 1_565
O30 Si9 1.648912 1_555
O31 Si7 1.645900 1_555
O32 Si8 1.648912 1_555
O33 Si9 1.645699 1_555
O34 Si0 1.644400 1_655
O35 Si10 1.648905 1_555
O36 Si8 1.648913 1_555
O37 Si7 1.644400 1_555
O38 Si9 1.645706 1_555
O39 Si10 1.648911 1_555
O40 Si0 1.645900 1_655
O41 Si9 1.648919 1_555
O42 Si11 1.645900 1_555
O43 Si10 1.645715 1_555
O44 Si10 1.645707 1_555
O45 Si1 1.645892 1_655
O46 Si1 1.644405 1_655
O47 Si11 1.644405 1_555
