# generated using pymatgen
data_Li2FeSiO4
_symmetry_space_group_name_H-M   'P 1'
_cell_length_a   5.07693800
_cell_length_b   6.28760300
_cell_length_c   10.96777600
_cell_angle_alpha   90.00000000
_cell_angle_beta   90.00000000
_cell_angle_gamma   90.00000000
_symmetry_Int_Tables_number   1
_chemical_formula_structural   Li2FeSiO4
_chemical_formula_sum   'Li8 Fe4 Si4 O16'
_cell_volume   350.11082946
_cell_formula_units_Z   4
loop_
 _symmetry_equiv_pos_site_id
 _symmetry_equiv_pos_as_xyz
  1  'x, y, z'
loop_
 _atom_site_type_symbol
 _atom_site_label
 _atom_site_symmetry_multiplicity
 _atom_site_fract_x
 _atom_site_fract_y
 _atom_site_fract_z
 _atom_site_occupancy
  Li  Li0  1  0.75808500  0.00078100  0.17269400  1
  Li  Li1  1  0.75823000  0.25400000  0.91069400  1
  Li  Li2  1  0.75823000  0.24600000  0.41069400  1
  Li  Li3  1  0.75808500  0.49921900  0.67269400  1
  Li  Li4  1  0.25808500  0.50078100  0.32730600  1
  Li  Li5  1  0.25823000  0.75400000  0.58930600  1
  Li  Li6  1  0.25823000  0.74600000  0.08930600  1
  Li  Li7  1  0.25808500  0.99921900  0.82730600  1
  Fe  Fe0  1  0.25740900  0.25006500  0.58334200  1
  Fe  Fe1  1  0.25740900  0.24993500  0.08334200  1
  Fe  Fe2  1  0.75740900  0.75006500  0.91665800  1
  Fe  Fe3  1  0.75740900  0.74993500  0.41665800  1
  Si  Si0  1  0.26411300  0.99963600  0.33433900  1
  Si  Si1  1  0.26411300  0.50036400  0.83433900  1
  Si  Si2  1  0.76411300  0.49963600  0.16566100  1
  Si  Si3  1  0.76411300  0.00036400  0.66566100  1
  O  O0  1  0.08786600  0.99750000  0.66695300  1
  O  O1  1  0.15589900  0.00174300  0.19127200  1
  O  O2  1  0.15787300  0.28256100  0.90558600  1
  O  O3  1  0.66365000  0.21908600  0.59322100  1
  O  O4  1  0.66365000  0.28091400  0.09322100  1
  O  O5  1  0.15787300  0.21743900  0.40558600  1
  O  O6  1  0.15589900  0.49825700  0.69127200  1
  O  O7  1  0.08786600  0.50250000  0.16695300  1
  O  O8  1  0.58786600  0.49750000  0.83304700  1
  O  O9  1  0.65589900  0.50174300  0.30872800  1
  O  O10  1  0.65787300  0.78256100  0.59441400  1
  O  O11  1  0.16365000  0.71908600  0.90677900  1
  O  O12  1  0.16365000  0.78091400  0.40677900  1
  O  O13  1  0.65787300  0.71743900  0.09441400  1
  O  O14  1  0.65589900  0.99825700  0.80872800  1
  O  O15  1  0.58786600  0.00250000  0.33304700  1
loop_
_geom_bond_atom_site_label_1
_geom_bond_atom_site_label_2
_geom_bond_distance
_geom_bond_site_symmetry_2
Li0 O15 1.959598 1_555
Li0 O4 2.022877 1_555
Li0 O1 2.029938 1_655
Li0 O13 2.042023 1_545
Li1 O8 1.953818 1_555
Li1 O14 2.026399 1_545
Li1 O2 2.037665 1_655
Li1 O4 2.065641 1_556
Li2 O15 1.953818 1_555
Li2 O9 2.026399 1_555
Li2 O5 2.037665 1_655
Li2 O3 2.065641 1_555
Li3 O8 1.959598 1_555
Li3 O3 2.022877 1_555
Li3 O6 2.029938 1_655
Li3 O10 2.042023 1_555
Li4 O7 1.959598 1_555
Li4 O12 2.022877 1_555
Li4 O9 2.029938 1_555
Li4 O5 2.042023 1_555
Li5 O0 1.953818 1_555
Li5 O6 2.026399 1_555
Li5 O10 2.037665 1_555
Li5 O12 2.065641 1_555
Li6 O7 1.953818 1_555
Li6 O1 2.026399 1_565
Li6 O13 2.037665 1_555
Li6 O11 2.065641 1_554
Li7 O0 1.959598 1_555
Li7 O11 2.022877 1_555
Li7 O14 2.029938 1_555
Li7 O2 2.042023 1_565
Fe0 O5 2.024436 1_555
Fe0 O6 2.025371 1_555
Fe0 O0 2.025754 1_545
Fe0 O3 2.074469 1_555
Fe1 O2 2.024436 1_554
Fe1 O1 2.025371 1_555
Fe1 O7 2.025754 1_555
Fe1 O4 2.074469 1_555
Fe2 O13 2.024436 1_556
Fe2 O14 2.025371 1_555
Fe2 O8 2.025754 1_555
Fe2 O11 2.074469 1_655
Fe3 O10 2.024436 1_555
Fe3 O9 2.025371 1_555
Fe3 O15 2.025754 1_565
Fe3 O12 2.074469 1_655
O0 Si3 1.643834 1_465
O1 Si0 1.662579 1_545
O2 Si1 1.666421 1_555
O3 Si3 1.668131 1_555
O4 Si2 1.668131 1_555
O5 Si0 1.666421 1_545
O6 Si1 1.662579 1_555
O7 Si2 1.643834 1_455
O8 Si1 1.643834 1_555
O9 Si2 1.662579 1_555
O10 Si3 1.666421 1_565
O11 Si1 1.668131 1_555
O12 Si0 1.668131 1_555
O13 Si2 1.666421 1_555
O14 Si3 1.662579 1_565
O15 Si0 1.643834 1_545
