# generated using pymatgen
data_Ta2MnO6
_symmetry_space_group_name_H-M   'P 1'
_cell_length_a   7.57045160
_cell_length_b   7.57045160
_cell_length_c   15.55375318
_cell_angle_alpha   89.36287667
_cell_angle_beta   89.36287667
_cell_angle_gamma   100.84728638
_symmetry_Int_Tables_number   1
_chemical_formula_structural   Ta2MnO6
_chemical_formula_sum   'Ta16 Mn8 O48'
_cell_volume   875.35174213
_cell_formula_units_Z   8
loop_
 _symmetry_equiv_pos_site_id
 _symmetry_equiv_pos_as_xyz
  1  'x, y, z'
loop_
 _atom_site_type_symbol
 _atom_site_label
 _atom_site_symmetry_multiplicity
 _atom_site_fract_x
 _atom_site_fract_y
 _atom_site_fract_z
 _atom_site_occupancy
  Ta  Ta0  1  0.65903600  0.83807500  0.91692000  1
  Ta  Ta1  1  0.83076100  0.66412800  0.74836700  1
  Ta  Ta2  1  0.66230300  0.83500300  0.58696700  1
  Ta  Ta3  1  0.83807500  0.65903600  0.41692000  1
  Ta  Ta4  1  0.66412800  0.83076100  0.24836700  1
  Ta  Ta5  1  0.83500300  0.66230300  0.08696700  1
  Ta  Ta6  1  0.16620500  0.83336200  0.91590800  1
  Ta  Ta7  1  0.16663800  0.83379500  0.58409200  1
  Ta  Ta8  1  0.83336200  0.16620500  0.41590800  1
  Ta  Ta9  1  0.83379500  0.16663800  0.08409200  1
  Ta  Ta10  1  0.16499700  0.33769700  0.91303300  1
  Ta  Ta11  1  0.33587200  0.16923900  0.75163300  1
  Ta  Ta12  1  0.16192500  0.34096400  0.58308000  1
  Ta  Ta13  1  0.33769700  0.16499700  0.41303300  1
  Ta  Ta14  1  0.16923900  0.33587200  0.25163300  1
  Ta  Ta15  1  0.34096400  0.16192500  0.08308000  1
  Mn  Mn0  1  0.66651500  0.34305000  0.91497500  1
  Mn  Mn1  1  0.83060100  0.16939900  0.75000000  1
  Mn  Mn2  1  0.34171700  0.65828300  0.75000000  1
  Mn  Mn3  1  0.65695000  0.33348500  0.58502500  1
  Mn  Mn4  1  0.34305000  0.66651500  0.41497500  1
  Mn  Mn5  1  0.16939900  0.83060100  0.25000000  1
  Mn  Mn6  1  0.65828300  0.34171700  0.25000000  1
  Mn  Mn7  1  0.33348500  0.65695000  0.08502500  1
  O  O0  1  0.93198400  0.80866700  0.86131600  1
  O  O1  1  0.80155300  0.91353700  0.68839500  1
  O  O2  1  0.93262500  0.80436000  0.52856400  1
  O  O3  1  0.80866700  0.93198400  0.36131600  1
  O  O4  1  0.91353700  0.80155300  0.18839500  1
  O  O5  1  0.80436000  0.93262500  0.02856400  1
  O  O6  1  0.69854200  0.60261100  0.98095300  1
  O  O7  1  0.59930800  0.70118800  0.81227500  1
  O  O8  1  0.69326700  0.59176600  0.64494300  1
  O  O9  1  0.60261100  0.69854200  0.48095300  1
  O  O10  1  0.70118800  0.59930800  0.31227500  1
  O  O11  1  0.41923300  0.81079800  0.96225600  1
  O  O12  1  0.59176600  0.69326700  0.14494300  1
  O  O13  1  0.93492500  0.29660800  0.97700400  1
  O  O14  1  0.81593700  0.44049700  0.80021000  1
  O  O15  1  0.29576900  0.92832000  0.80794300  1
  O  O16  1  0.42183500  0.81431100  0.63062600  1
  O  O17  1  0.93216000  0.30709300  0.63029000  1
  O  O18  1  0.81079800  0.41923300  0.46225600  1
  O  O19  1  0.29660800  0.93492500  0.47700400  1
  O  O20  1  0.44049700  0.81593700  0.30021000  1
  O  O21  1  0.92832000  0.29576900  0.30794300  1
  O  O22  1  0.81431100  0.42183500  0.13062600  1
  O  O23  1  0.30709300  0.93216000  0.13029000  1
  O  O24  1  0.69290700  0.06784000  0.86971000  1
  O  O25  1  0.18568900  0.57816500  0.86937400  1
  O  O26  1  0.07168000  0.70423100  0.69205700  1
  O  O27  1  0.55950300  0.18406300  0.69979000  1
  O  O28  1  0.70339200  0.06507500  0.52299600  1
  O  O29  1  0.18920200  0.58076700  0.53774400  1
  O  O30  1  0.06784000  0.69290700  0.36971000  1
  O  O31  1  0.57816500  0.18568900  0.36937400  1
  O  O32  1  0.70423100  0.07168000  0.19205700  1
  O  O33  1  0.18406300  0.55950300  0.19979000  1
  O  O34  1  0.06507500  0.70339200  0.02299600  1
  O  O35  1  0.40823400  0.30673300  0.85505700  1
  O  O36  1  0.58076700  0.18920200  0.03774400  1
  O  O37  1  0.29881200  0.40069200  0.68772500  1
  O  O38  1  0.39738900  0.30145800  0.51904700  1
  O  O39  1  0.30673300  0.40823400  0.35505700  1
  O  O40  1  0.40069200  0.29881200  0.18772500  1
  O  O41  1  0.30145800  0.39738900  0.01904700  1
  O  O42  1  0.19564000  0.06737500  0.97143600  1
  O  O43  1  0.08646300  0.19844700  0.81160500  1
  O  O44  1  0.19133300  0.06801600  0.63868400  1
  O  O45  1  0.06737500  0.19564000  0.47143600  1
  O  O46  1  0.19844700  0.08646300  0.31160500  1
  O  O47  1  0.06801600  0.19133300  0.13868400  1
loop_
_geom_bond_atom_site_label_1
_geom_bond_atom_site_label_2
_geom_bond_distance
_geom_bond_site_symmetry_2
Mn0 O35 2.147375 1_555
Mn0 O14 2.149851 1_555
Mn0 O6 2.200942 1_555
Mn0 O36 2.250019 1_556
Mn0 O24 2.250019 1_555
Mn0 O13 2.342719 1_555
Mn1 O43 2.145707 1_655
Mn1 O1 2.145707 1_545
Mn1 O24 2.183553 1_555
Mn1 O17 2.183553 1_555
Mn1 O27 2.225704 1_555
Mn1 O14 2.225704 1_555
Mn2 O7 2.158036 1_555
Mn2 O37 2.158036 1_555
Mn2 O16 2.206135 1_555
Mn2 O25 2.206135 1_555
Mn2 O15 2.326808 1_555
Mn2 O26 2.326808 1_555
Mn3 O8 2.147375 1_555
Mn3 O27 2.149851 1_555
Mn3 O38 2.200942 1_555
Mn3 O18 2.250019 1_555
Mn3 O17 2.250019 1_555
Mn3 O28 2.342719 1_555
Mn4 O39 2.147375 1_555
Mn4 O20 2.149851 1_555
Mn4 O9 2.200942 1_555
Mn4 O29 2.250019 1_555
Mn4 O30 2.250019 1_555
Mn4 O19 2.342719 1_555
Mn5 O46 2.145707 1_565
Mn5 O4 2.145707 1_455
Mn5 O30 2.183553 1_555
Mn5 O23 2.183553 1_555
Mn5 O33 2.225704 1_555
Mn5 O20 2.225704 1_555
Mn6 O10 2.158036 1_555
Mn6 O40 2.158036 1_555
Mn6 O22 2.206135 1_555
Mn6 O31 2.206135 1_555
Mn6 O21 2.326808 1_555
Mn6 O32 2.326808 1_555
Mn7 O12 2.147375 1_555
Mn7 O33 2.149851 1_555
Mn7 O41 2.200942 1_555
Mn7 O11 2.250019 1_554
Mn7 O23 2.250019 1_555
Mn7 O34 2.342719 1_555
O0 Ta6 1.952505 1_655
O0 Ta1 2.151260 1_555
O0 Ta0 2.281442 1_555
O1 Ta2 1.943066 1_555
O1 Ta1 2.146303 1_555
O2 Ta7 1.955457 1_655
O2 Ta3 2.124106 1_555
O2 Ta2 2.282325 1_555
O3 Ta8 1.952505 1_565
O3 Ta4 2.151260 1_555
O3 Ta3 2.281442 1_555
O4 Ta5 1.943066 1_555
O4 Ta4 2.146303 1_555
O5 Ta9 1.955457 1_565
O5 Ta0 2.124106 1_554
O5 Ta5 2.282325 1_555
O6 Ta5 1.967006 1_556
O6 Ta0 2.103978 1_555
O7 Ta0 1.950649 1_555
O7 Ta1 2.071107 1_555
O8 Ta1 1.952810 1_555
O8 Ta2 2.095026 1_555
O9 Ta2 1.967006 1_555
O9 Ta3 2.103978 1_555
O10 Ta3 1.950649 1_555
O10 Ta4 2.071107 1_555
O11 Ta0 1.913845 1_555
O11 Ta6 2.090278 1_555
O12 Ta4 1.952810 1_555
O12 Ta5 2.095026 1_555
O13 Ta10 1.967513 1_655
O13 Ta9 1.995049 1_556
O14 Ta1 1.850709 1_555
O15 Ta11 1.983907 1_565
O15 Ta6 1.992463 1_555
O16 Ta2 1.913770 1_555
O16 Ta7 2.100964 1_555
O17 Ta12 1.852044 1_655
O18 Ta3 1.913845 1_555
O18 Ta8 2.090278 1_555
O19 Ta13 1.967513 1_565
O19 Ta7 1.995049 1_555
O20 Ta4 1.850709 1_555
O21 Ta14 1.983907 1_655
O21 Ta8 1.992463 1_555
O22 Ta5 1.913770 1_555
O22 Ta9 2.100964 1_555
O23 Ta15 1.852044 1_565
O24 Ta0 1.852044 1_545
O25 Ta10 1.913770 1_555
O25 Ta6 2.100964 1_555
O26 Ta1 1.983907 1_455
O26 Ta7 1.992463 1_555
O27 Ta11 1.850709 1_555
O28 Ta2 1.967513 1_545
O28 Ta8 1.995049 1_555
O29 Ta12 1.913845 1_555
O29 Ta7 2.090278 1_555
O30 Ta3 1.852044 1_455
O31 Ta13 1.913770 1_555
O31 Ta8 2.100964 1_555
O32 Ta4 1.983907 1_545
O32 Ta9 1.992463 1_555
O33 Ta14 1.850709 1_555
O34 Ta5 1.967513 1_455
O34 Ta6 1.995049 1_554
O35 Ta11 1.952810 1_555
O35 Ta10 2.095026 1_555
O36 Ta15 1.913845 1_555
O36 Ta9 2.090278 1_555
O37 Ta12 1.950649 1_555
O37 Ta11 2.071107 1_555
O38 Ta13 1.967006 1_555
O38 Ta12 2.103978 1_555
O39 Ta14 1.952810 1_555
O39 Ta13 2.095026 1_555
O40 Ta15 1.950649 1_555
O40 Ta14 2.071107 1_555
O41 Ta10 1.967006 1_554
O41 Ta15 2.103978 1_555
O42 Ta6 1.955457 1_545
O42 Ta15 2.124106 1_556
O42 Ta10 2.282325 1_555
O43 Ta10 1.943066 1_555
O43 Ta11 2.146303 1_555
O44 Ta7 1.952505 1_545
O44 Ta11 2.151260 1_555
O44 Ta12 2.281442 1_555
O45 Ta8 1.955457 1_455
O45 Ta12 2.124106 1_555
O45 Ta13 2.282325 1_555
O46 Ta13 1.943066 1_555
O46 Ta14 2.146303 1_555
O47 Ta9 1.952505 1_455
O47 Ta14 2.151260 1_555
O47 Ta15 2.281442 1_555
