# generated using pymatgen
data_FeOF
_symmetry_space_group_name_H-M   'P 1'
_cell_length_a   3.09471500
_cell_length_b   9.48013000
_cell_length_c   14.19952592
_cell_angle_alpha   89.68919077
_cell_angle_beta   90.00000000
_cell_angle_gamma   90.00000000
_symmetry_Int_Tables_number   1
_chemical_formula_structural   FeOF
_chemical_formula_sum   'Fe12 O12 F12'
_cell_volume   416.58382922
_cell_formula_units_Z   12
loop_
 _symmetry_equiv_pos_site_id
 _symmetry_equiv_pos_as_xyz
  1  'x, y, z'
loop_
 _atom_site_type_symbol
 _atom_site_label
 _atom_site_symmetry_multiplicity
 _atom_site_fract_x
 _atom_site_fract_y
 _atom_site_fract_z
 _atom_site_occupancy
  Fe  Fe0  1  0.00000000  0.99251100  0.99150300  1
  Fe  Fe1  1  0.00000000  0.50386700  0.99554400  1
  Fe  Fe2  1  0.50000000  0.21487200  0.83091000  1
  Fe  Fe3  1  0.50000000  0.74684100  0.84720000  1
  Fe  Fe4  1  0.00000000  0.99924400  0.66325400  1
  Fe  Fe5  1  0.00000000  0.49468100  0.65553600  1
  Fe  Fe6  1  0.50000000  0.75052000  0.51703100  1
  Fe  Fe7  1  0.50000000  0.27531000  0.49639400  1
  Fe  Fe8  1  0.00000000  0.99689400  0.32448500  1
  Fe  Fe9  1  0.00000000  0.48760500  0.32803100  1
  Fe  Fe10  1  0.50000000  0.24596400  0.18128000  1
  Fe  Fe11  1  0.50000000  0.78155400  0.16449500  1
  O  O0  1  0.50000000  0.90133600  0.93222300  1
  O  O1  1  0.00000000  0.15252600  0.90180500  1
  O  O2  1  0.00000000  0.64420700  0.90294800  1
  O  O3  1  0.50000000  0.09287600  0.72747400  1
  O  O4  1  0.50000000  0.39692000  0.60644900  1
  O  O5  1  0.50000000  0.90520400  0.60161100  1
  O  O6  1  0.00000000  0.65052100  0.56622500  1
  O  O7  1  0.00000000  0.35341700  0.43225400  1
  O  O8  1  0.50000000  0.41099800  0.26162500  1
  O  O9  1  0.50000000  0.90208300  0.27274000  1
  O  O10  1  0.00000000  0.15449300  0.23342100  1
  O  O11  1  0.00000000  0.85170600  0.09873500  1
  F  F0  1  0.50000000  0.40060400  0.93810300  1
  F  F1  1  0.00000000  0.35026200  0.77378500  1
  F  F2  1  0.00000000  0.83511400  0.76979500  1
  F  F3  1  0.50000000  0.59649800  0.73602600  1
  F  F4  1  0.00000000  0.15551300  0.55788400  1
  F  F5  1  0.00000000  0.85044600  0.43591200  1
  F  F6  1  0.50000000  0.09654300  0.40191800  1
  F  F7  1  0.50000000  0.60595600  0.39360500  1
  F  F8  1  0.00000000  0.65713900  0.22832200  1
  F  F9  1  0.00000000  0.35048400  0.09575300  1
  F  F10  1  0.50000000  0.10515500  0.06682500  1
  F  F11  1  0.50000000  0.59013700  0.06889500  1
loop_
_geom_bond_atom_site_label_1
_geom_bond_atom_site_label_2
_geom_bond_distance
_geom_bond_site_symmetry_2
Fe0 O0 1.964141 1_455
Fe0 O0 1.964141 1_555
Fe0 O1 1.975461 1_565
Fe0 O11 2.019459 1_556
Fe1 O2 1.865434 1_555
Fe2 O3 1.874357 1_555
Fe2 O1 1.936645 1_655
Fe2 O1 1.936645 1_555
Fe3 O0 1.903122 1_555
Fe3 O2 1.989794 1_555
Fe3 O2 1.989794 1_655
Fe4 O5 1.990911 1_555
Fe4 O5 1.990911 1_455
Fe4 O3 2.005632 1_565
Fe4 O3 2.005632 1_465
Fe5 O4 1.935480 1_555
Fe5 O4 1.935480 1_455
Fe5 O6 1.941803 1_555
Fe6 O5 1.900500 1_555
Fe6 O6 1.942624 1_655
Fe6 O6 1.942624 1_555
Fe7 O7 1.940300 1_655
Fe7 O7 1.940300 1_555
Fe7 O4 1.946997 1_555
Fe8 O9 1.936291 1_455
Fe8 O9 1.936291 1_555
Fe8 O10 1.970602 1_565
Fe9 O7 1.946283 1_555
Fe9 O8 1.954047 1_555
Fe9 O8 1.954047 1_455
Fe10 O10 1.920279 1_555
Fe10 O10 1.920279 1_655
Fe10 O8 1.941321 1_555
Fe11 O9 1.920186 1_555
Fe11 O11 1.924001 1_655
Fe11 O11 1.924001 1_555
F0 Fe1 2.006633 1_655
F0 Fe1 2.006633 1_555
F0 Fe2 2.333693 1_555
F1 Fe5 2.160748 1_555
F1 Fe2 2.165269 1_555
F1 Fe2 2.165269 1_455
F2 Fe3 2.071881 1_555
F2 Fe3 2.071881 1_455
F2 Fe4 2.164296 1_555
F3 Fe3 2.132567 1_555
F3 Fe5 2.155049 1_655
F3 Fe5 2.155049 1_555
F4 Fe4 2.099827 1_545
F4 Fe7 2.106111 1_555
F4 Fe7 2.106111 1_455
F5 Fe8 2.099301 1_555
F5 Fe6 2.146308 1_455
F5 Fe6 2.146308 1_555
F6 Fe8 2.122956 1_545
F6 Fe8 2.122956 1_645
F6 Fe7 2.167130 1_555
F7 Fe9 2.128727 1_655
F7 Fe9 2.128727 1_555
F7 Fe6 2.230664 1_555
F8 Fe9 2.136110 1_555
F8 Fe11 2.143658 1_455
F8 Fe11 2.143658 1_555
F9 Fe1 2.028949 1_554
F9 Fe10 2.199532 1_555
F9 Fe10 2.199532 1_455
F10 Fe10 2.108734 1_555
F10 Fe0 2.165868 1_644
F10 Fe0 2.165868 1_544
F11 Fe1 2.038937 1_654
F11 Fe1 2.038937 1_554
F11 Fe11 2.272102 1_555
