# generated using pymatgen
data_Lu2Sb2O7
_symmetry_space_group_name_H-M   'P 1'
_cell_length_a   7.50032526
_cell_length_b   7.50032526
_cell_length_c   18.28162700
_cell_angle_alpha   90.00000000
_cell_angle_beta   90.00000000
_cell_angle_gamma   119.99999349
_symmetry_Int_Tables_number   1
_chemical_formula_structural   Lu2Sb2O7
_chemical_formula_sum   'Lu12 Sb12 O42'
_cell_volume   890.64718398
_cell_formula_units_Z   6
loop_
 _symmetry_equiv_pos_site_id
 _symmetry_equiv_pos_as_xyz
  1  'x, y, z'
loop_
 _atom_site_type_symbol
 _atom_site_label
 _atom_site_symmetry_multiplicity
 _atom_site_fract_x
 _atom_site_fract_y
 _atom_site_fract_z
 _atom_site_occupancy
  Lu  Lu0  1  0.00000000  0.84873300  0.66666700  1
  Lu  Lu1  1  0.00000000  0.83219100  0.16666700  1
  Lu  Lu2  1  0.17528700  0.68155900  0.01098500  1
  Lu  Lu3  1  0.15126700  0.15126700  0.00000000  1
  Lu  Lu4  1  0.50627200  0.82471300  0.67765200  1
  Lu  Lu5  1  0.16780900  0.16780900  0.50000000  1
  Lu  Lu6  1  0.31844100  0.49372800  0.34431900  1
  Lu  Lu7  1  0.49372800  0.31844100  0.65568100  1
  Lu  Lu8  1  0.68155900  0.17528700  0.98901500  1
  Lu  Lu9  1  0.82471300  0.50627200  0.32234800  1
  Lu  Lu10  1  0.83219100  0.00000000  0.83333300  1
  Lu  Lu11  1  0.84873300  0.00000000  0.33333300  1
  Sb  Sb0  1  0.00000000  0.32417900  0.16666700  1
  Sb  Sb1  1  0.00000000  0.31426500  0.66666700  1
  Sb  Sb2  1  0.17050200  0.67150700  0.50198300  1
  Sb  Sb3  1  0.50100500  0.82949800  0.16865000  1
  Sb  Sb4  1  0.32849300  0.49899500  0.83531600  1
  Sb  Sb5  1  0.31426500  0.00000000  0.33333300  1
  Sb  Sb6  1  0.67582100  0.67582100  0.50000000  1
  Sb  Sb7  1  0.32417900  0.00000000  0.83333300  1
  Sb  Sb8  1  0.68573500  0.68573500  0.00000000  1
  Sb  Sb9  1  0.49899500  0.32849300  0.16468400  1
  Sb  Sb10  1  0.67150700  0.17050200  0.49801700  1
  Sb  Sb11  1  0.82949800  0.50100500  0.83135000  1
  O  O0  1  0.02491800  0.85337600  0.28346000  1
  O  O1  1  0.97961800  0.80214000  0.80040400  1
  O  O2  1  0.10165400  0.65875400  0.39472600  1
  O  O3  1  0.05549700  0.45105200  0.80418100  1
  O  O4  1  0.32383900  0.99110000  0.95841300  1
  O  O5  1  0.24401200  0.68739700  0.60695900  1
  O  O6  1  0.00890000  0.33273900  0.29174600  1
  O  O7  1  0.19866200  0.68294000  0.13780500  1
  O  O8  1  0.39555600  0.94450300  0.47084700  1
  O  O9  1  0.44338400  0.75598800  0.27362600  1
  O  O10  1  0.48427800  0.80133800  0.80447100  1
  O  O11  1  0.34124600  0.44290000  0.72806000  1
  O  O12  1  0.14662400  0.17154200  0.61679300  1
  O  O13  1  0.31706000  0.51572200  0.47113800  1
  O  O14  1  0.19786000  0.17747800  0.13373700  1
  O  O15  1  0.17154200  0.14662400  0.38320700  1
  O  O16  1  0.31260300  0.55661600  0.94029300  1
  O  O17  1  0.17747800  0.19786000  0.86626300  1
  O  O18  1  0.55710000  0.89834600  0.06139300  1
  O  O19  1  0.54894800  0.60444400  0.13751400  1
  O  O20  1  0.82252200  0.02038200  0.46707100  1
  O  O21  1  0.66726100  0.67616100  0.62507900  1
  O  O22  1  0.44290000  0.34124600  0.27194000  1
  O  O23  1  0.60444400  0.54894800  0.86248600  1
  O  O24  1  0.33273900  0.00890000  0.70825400  1
  O  O25  1  0.82845800  0.97508200  0.95012600  1
  O  O26  1  0.55661600  0.31260300  0.05970700  1
  O  O27  1  0.67616100  0.66726100  0.37492100  1
  O  O28  1  0.51572200  0.31706000  0.52886200  1
  O  O29  1  0.45105200  0.05549700  0.19581900  1
  O  O30  1  0.68739700  0.24401200  0.39304100  1
  O  O31  1  0.68294000  0.19866200  0.86219500  1
  O  O32  1  0.89834600  0.55710000  0.93860700  1
  O  O33  1  0.97508200  0.82845800  0.04987400  1
  O  O34  1  0.80133800  0.48427800  0.19552900  1
  O  O35  1  0.02038200  0.82252200  0.53292900  1
  O  O36  1  0.75598800  0.44338400  0.72637400  1
  O  O37  1  0.65875400  0.10165400  0.60527400  1
  O  O38  1  0.94450300  0.39555600  0.52915300  1
  O  O39  1  0.80214000  0.97961800  0.19959600  1
  O  O40  1  0.99110000  0.32383900  0.04158700  1
  O  O41  1  0.85337600  0.02491800  0.71654000  1
loop_
_geom_bond_atom_site_label_1
_geom_bond_atom_site_label_2
_geom_bond_distance
_geom_bond_site_symmetry_2
Lu0 O41 2.289138 1_465
Lu0 O12 2.289145 1_565
Lu0 O24 2.291592 1_565
Lu0 O21 2.291598 1_455
Lu0 O1 2.463687 1_455
Lu0 O35 2.463705 1_555
Lu0 O36 2.867042 1_455
Lu0 O5 2.867043 1_555
Lu1 O33 2.142292 1_455
Lu1 O0 2.142292 1_555
Lu1 O7 2.328027 1_555
Lu1 O34 2.328027 1_455
Lu1 O39 2.329878 1_455
Lu1 O14 2.329883 1_565
Lu2 O16 2.138752 1_554
Lu2 O4 2.229005 1_554
Lu2 O32 2.235571 1_454
Lu2 O7 2.324728 1_555
Lu2 O33 2.372479 1_455
Lu2 O40 2.390297 1_455
Lu2 O18 2.652846 1_555
Lu3 O33 2.289145 1_445
Lu3 O25 2.289145 1_444
Lu3 O40 2.291591 1_455
Lu3 O4 2.291591 1_544
Lu3 O17 2.463687 1_554
Lu3 O14 2.463687 1_555
Lu3 O16 2.867042 1_554
Lu3 O26 2.867042 1_555
Lu4 O5 2.138768 1_555
Lu4 O21 2.229013 1_555
Lu4 O37 2.235571 1_565
Lu4 O10 2.324710 1_555
Lu4 O41 2.372474 1_565
Lu4 O24 2.390297 1_565
Lu4 O11 2.652846 1_555
Lu5 O15 2.142292 1_555
Lu5 O12 2.142292 1_555
Lu5 O13 2.328027 1_555
Lu5 O28 2.328027 1_555
Lu5 O20 2.329878 1_455
Lu5 O35 2.329878 1_545
Lu6 O9 2.138768 1_555
Lu6 O6 2.229013 1_555
Lu6 O22 2.235581 1_555
Lu6 O13 2.324710 1_555
Lu6 O15 2.372474 1_555
Lu6 O27 2.390297 1_555
Lu6 O2 2.652840 1_555
Lu7 O36 2.138768 1_555
Lu7 O24 2.229013 1_555
Lu7 O11 2.235581 1_555
Lu7 O28 2.324710 1_555
Lu7 O12 2.372474 1_555
Lu7 O21 2.390297 1_555
Lu7 O37 2.652840 1_555
Lu8 O26 2.138752 1_556
Lu8 O40 2.229005 1_556
Lu8 O18 2.235571 1_546
Lu8 O31 2.324728 1_555
Lu8 O25 2.372479 1_545
Lu8 O4 2.390297 1_545
Lu8 O32 2.652846 1_555
Lu9 O30 2.138768 1_555
Lu9 O27 2.229013 1_555
Lu9 O2 2.235571 1_655
Lu9 O34 2.324710 1_555
Lu9 O0 2.372474 1_655
Lu9 O6 2.390297 1_655
Lu9 O22 2.652846 1_555
Lu10 O25 2.142292 1_545
Lu10 O41 2.142292 1_555
Lu10 O31 2.328027 1_555
Lu10 O10 2.328027 1_545
Lu10 O1 2.329878 1_545
Lu10 O17 2.329883 1_655
Lu11 O0 2.289138 1_645
Lu11 O15 2.289145 1_655
Lu11 O6 2.291592 1_655
Lu11 O27 2.291598 1_545
Lu11 O39 2.463687 1_545
Lu11 O20 2.463705 1_555
Lu11 O9 2.867042 1_545
Lu11 O30 2.867043 1_555
O0 Sb5 2.088979 1_565
O1 Sb11 2.036190 1_555
O1 Sb7 2.325562 1_665
O2 Sb2 2.017739 1_555
O2 Sb5 2.504394 1_565
O3 Sb11 1.973678 1_455
O3 Sb4 1.977248 1_555
O3 Sb1 2.668122 1_555
O4 Sb7 2.287604 1_565
O5 Sb2 1.983821 1_555
O5 Sb1 2.692827 1_555
O6 Sb0 2.287586 1_555
O7 Sb3 2.043508 1_555
O7 Sb0 2.393684 1_555
O8 Sb10 1.973678 1_565
O8 Sb2 1.977256 1_555
O8 Sb5 2.668124 1_565
O9 Sb3 1.983822 1_555
O9 Sb5 2.692814 1_565
O10 Sb4 2.043508 1_555
O10 Sb7 2.393684 1_565
O11 Sb4 2.017721 1_555
O11 Sb1 2.504394 1_555
O12 Sb1 2.088987 1_555
O13 Sb2 2.043508 1_555
O13 Sb6 2.393684 1_555
O14 Sb9 2.036195 1_555
O14 Sb0 2.325566 1_555
O15 Sb5 2.088987 1_555
O16 Sb4 1.983841 1_555
O16 Sb8 2.692820 1_556
O17 Sb4 2.036195 1_555
O17 Sb7 2.325566 1_555
O18 Sb3 2.017739 1_555
O18 Sb8 2.504394 1_555
O19 Sb9 1.973676 1_555
O19 Sb3 1.977260 1_555
O19 Sb8 2.668122 1_555
O20 Sb10 2.036189 1_555
O20 Sb6 2.325562 1_545
O21 Sb6 2.287586 1_555
O22 Sb9 2.017721 1_555
O22 Sb5 2.504394 1_555
O23 Sb4 1.973676 1_555
O23 Sb11 1.977260 1_555
O23 Sb8 2.668122 1_556
O24 Sb7 2.287586 1_555
O25 Sb8 2.088987 1_556
O26 Sb9 1.983841 1_555
O26 Sb8 2.692820 1_555
O27 Sb6 2.287586 1_555
O28 Sb10 2.043508 1_555
O28 Sb6 2.393684 1_555
O29 Sb3 1.973678 1_545
O29 Sb9 1.977248 1_555
O29 Sb5 2.668122 1_555
O30 Sb10 1.983821 1_555
O30 Sb5 2.692827 1_555
O31 Sb11 2.043508 1_555
O31 Sb7 2.393684 1_555
O32 Sb11 2.017739 1_555
O32 Sb8 2.504394 1_556
O33 Sb8 2.088987 1_555
O34 Sb9 2.043508 1_555
O34 Sb0 2.393684 1_655
O35 Sb2 2.036189 1_555
O35 Sb6 2.325562 1_455
O36 Sb11 1.983822 1_555
O36 Sb1 2.692814 1_655
O37 Sb10 2.017739 1_555
O37 Sb1 2.504394 1_655
O38 Sb2 1.973678 1_655
O38 Sb10 1.977256 1_555
O38 Sb1 2.668124 1_655
O39 Sb3 2.036190 1_555
O39 Sb0 2.325562 1_665
O40 Sb0 2.287604 1_655
O41 Sb1 2.088979 1_655
