# generated using pymatgen
data_Li4Ti11O24
_symmetry_space_group_name_H-M   'P 1'
_cell_length_a   10.30434594
_cell_length_b   10.30434594
_cell_length_c   8.45391795
_cell_angle_alpha   65.92968170
_cell_angle_beta   65.92968170
_cell_angle_gamma   33.75407050
_symmetry_Int_Tables_number   1
_chemical_formula_structural   Li4Ti11O24
_chemical_formula_sum   'Li4 Ti11 O24'
_cell_volume   451.18143682
_cell_formula_units_Z   1
loop_
 _symmetry_equiv_pos_site_id
 _symmetry_equiv_pos_as_xyz
  1  'x, y, z'
loop_
 _atom_site_type_symbol
 _atom_site_label
 _atom_site_symmetry_multiplicity
 _atom_site_fract_x
 _atom_site_fract_y
 _atom_site_fract_z
 _atom_site_occupancy
  Li  Li0  1  0.00214400  0.00214400  0.99938800  1
  Li  Li1  1  0.33427500  0.33427500  0.67125700  1
  Li  Li2  1  0.83116100  0.83116100  0.41570600  1
  Li  Li3  1  0.41669100  0.41669100  0.20827200  1
  Ti  Ti0  1  0.25351400  0.25351400  0.37113900  1
  Ti  Ti1  1  0.08495600  0.08495600  0.52714700  1
  Ti  Ti2  1  0.09565500  0.57683500  0.04605200  1
  Ti  Ti3  1  0.57683500  0.09565500  0.04605200  1
  Ti  Ti4  1  0.74695300  0.74695300  0.89245300  1
  Ti  Ti5  1  0.91847100  0.91847100  0.70764900  1
  Ti  Ti6  1  0.57826300  0.57826300  0.04391700  1
  Ti  Ti7  1  0.25594700  0.74046700  0.37141500  1
  Ti  Ti8  1  0.91361800  0.41815300  0.70833000  1
  Ti  Ti9  1  0.41815300  0.91361800  0.70833000  1
  Ti  Ti10  1  0.74046700  0.25594700  0.37141500  1
  O  O0  1  0.59336700  0.59336700  0.79530200  1
  O  O1  1  0.09314600  0.09314600  0.77283900  1
  O  O2  1  0.38245800  0.94913900  0.47853400  1
  O  O3  1  0.94913900  0.38245800  0.47853400  1
  O  O4  1  0.56015700  0.09385800  0.28041900  1
  O  O5  1  0.09385800  0.56015700  0.28041900  1
  O  O6  1  0.40279200  0.40279200  0.97307700  1
  O  O7  1  0.26004000  0.26004000  0.13221000  1
  O  O8  1  0.07304900  0.07304900  0.31951700  1
  O  O9  1  0.90929900  0.90929900  0.95347400  1
  O  O10  1  0.76061100  0.76061100  0.09541400  1
  O  O11  1  0.57232400  0.57232400  0.28547000  1
  O  O12  1  0.05388700  0.61361700  0.80329100  1
  O  O13  1  0.61361700  0.05388700  0.80329100  1
  O  O14  1  0.78425000  0.21429200  0.60972600  1
  O  O15  1  0.88554400  0.45027900  0.93803800  1
  O  O16  1  0.45027900  0.88554400  0.93803800  1
  O  O17  1  0.21429200  0.78425000  0.60972600  1
  O  O18  1  0.92370200  0.92370200  0.46168000  1
  O  O19  1  0.74048300  0.74048300  0.64242100  1
  O  O20  1  0.24247400  0.24247400  0.62134000  1
  O  O21  1  0.42839600  0.42839600  0.44844600  1
  O  O22  1  0.73970300  0.27267800  0.13679900  1
  O  O23  1  0.27267800  0.73970300  0.13679900  1
loop_
_geom_bond_atom_site_label_1
_geom_bond_atom_site_label_2
_geom_bond_distance
_geom_bond_site_symmetry_2
Li0 O1 1.989708 1_555
Li0 O23 1.994246 1_546
Li0 O22 1.994246 1_456
Li0 O9 2.027083 1_445
Li1 O21 2.003256 1_555
Li1 O12 2.009978 1_555
Li1 O13 2.009978 1_555
Li1 O20 2.026554 1_555
Li2 O5 1.985882 1_655
Li2 O4 1.985882 1_565
Li2 O19 1.987389 1_555
Li2 O18 2.021471 1_555
Li3 O6 2.119699 1_554
Li3 O22 2.126799 1_555
Li3 O23 2.126799 1_555
Li3 O4 2.127555 1_555
Li3 O5 2.127555 1_555
Li3 O21 2.139014 1_555
O0 Ti9 1.971420 1_555
O0 Ti8 1.971420 1_555
O0 Ti6 1.993114 1_556
O1 Ti8 1.991593 1_455
O1 Ti9 1.991593 1_545
O1 Ti1 2.150869 1_555
O2 Ti9 1.955051 1_555
O2 Ti1 1.957689 1_565
O2 Ti0 2.039181 1_565
O3 Ti8 1.955051 1_555
O3 Ti1 1.957689 1_655
O3 Ti0 2.039181 1_655
O4 Ti3 1.911313 1_555
O4 Ti0 1.920215 1_555
O5 Ti2 1.911313 1_555
O5 Ti0 1.920215 1_555
O6 Ti2 1.866776 1_556
O6 Ti3 1.866776 1_556
O7 Ti0 1.968478 1_555
O7 Ti2 1.981931 1_555
O7 Ti3 1.981931 1_555
O8 Ti1 1.867491 1_555
O8 Ti7 2.048652 1_545
O8 Ti10 2.048652 1_455
O9 Ti5 2.007769 1_555
O9 Ti3 2.033698 1_566
O9 Ti2 2.033698 1_656
O10 Ti4 1.846761 1_554
O10 Ti2 2.068165 1_655
O10 Ti3 2.068165 1_565
O11 Ti7 1.964697 1_555
O11 Ti10 1.964697 1_555
O11 Ti6 1.994965 1_555
O12 Ti5 2.007073 1_455
O12 Ti4 2.033020 1_455
O12 Ti2 2.086985 1_556
O13 Ti5 2.007073 1_545
O13 Ti4 2.033020 1_545
O13 Ti3 2.086985 1_556
O14 Ti5 1.937790 1_545
O14 Ti1 1.998063 1_655
O14 Ti10 2.039771 1_555
O15 Ti4 1.939525 1_555
O15 Ti8 1.967555 1_555
O15 Ti6 2.067228 1_556
O16 Ti4 1.939525 1_555
O16 Ti9 1.967555 1_555
O16 Ti6 2.067228 1_556
O17 Ti5 1.937790 1_455
O17 Ti1 1.998063 1_565
O17 Ti7 2.039771 1_555
O18 Ti5 2.037571 1_555
O18 Ti10 2.040455 1_565
O18 Ti7 2.040455 1_655
O19 Ti9 1.993217 1_555
O19 Ti8 1.993217 1_555
O19 Ti4 2.171203 1_555
O20 Ti0 2.031951 1_555
O20 Ti9 2.037992 1_545
O20 Ti8 2.037992 1_455
O21 Ti7 1.912121 1_555
O21 Ti10 1.912121 1_555
O22 Ti6 1.907194 1_555
O22 Ti10 1.922318 1_555
O23 Ti6 1.907194 1_555
O23 Ti7 1.922318 1_555
