# generated using pymatgen
data_FeH8(ClO2)2
_symmetry_space_group_name_H-M   'P 1'
_cell_length_a   7.48173308
_cell_length_b   8.51375951
_cell_length_c   11.77147916
_cell_angle_alpha   111.20875410
_cell_angle_beta   90.01681245
_cell_angle_gamma   89.99173443
_symmetry_Int_Tables_number   1
_chemical_formula_structural   FeH8(ClO2)2
_chemical_formula_sum   'Fe4 H32 Cl8 O16'
_cell_volume   699.02971246
_cell_formula_units_Z   4
loop_
 _symmetry_equiv_pos_site_id
 _symmetry_equiv_pos_as_xyz
  1  'x, y, z'
loop_
 _atom_site_type_symbol
 _atom_site_label
 _atom_site_symmetry_multiplicity
 _atom_site_fract_x
 _atom_site_fract_y
 _atom_site_fract_z
 _atom_site_occupancy
  Fe  Fe0  1  0.49975100  0.50023300  0.50001700  1
  Fe  Fe1  1  0.00051900  0.99971100  0.99967500  1
  Fe  Fe2  1  0.49996600  0.49997100  0.00001300  1
  Fe  Fe3  1  0.99967200  0.99995100  0.50018000  1
  H  H0  1  0.42548400  0.84744300  0.05336500  1
  H  H1  1  0.42557400  0.84761500  0.55350200  1
  H  H2  1  0.92535600  0.65258300  0.44666200  1
  H  H3  1  0.92559500  0.65244800  0.94654500  1
  H  H4  1  0.57439200  0.15262300  0.44658900  1
  H  H5  1  0.57451900  0.15244000  0.94683800  1
  H  H6  1  0.07443200  0.34739500  0.05343700  1
  H  H7  1  0.07447800  0.34753500  0.55342500  1
  H  H8  1  0.57421800  0.79695500  0.45142800  1
  H  H9  1  0.57440400  0.79684000  0.95150700  1
  H  H10  1  0.07426100  0.70312000  0.04863200  1
  H  H11  1  0.07429400  0.70313000  0.54858000  1
  H  H12  1  0.42557900  0.20289000  0.04864500  1
  H  H13  1  0.42579700  0.20325600  0.54863200  1
  H  H14  1  0.92557000  0.29693900  0.45154600  1
  H  H15  1  0.92579000  0.29681000  0.95138200  1
  H  H16  1  0.70294500  0.68869500  0.19567400  1
  H  H17  1  0.70298300  0.68899600  0.69587800  1
  H  H18  1  0.20283900  0.81112600  0.30424700  1
  H  H19  1  0.20312600  0.81039400  0.80382300  1
  H  H20  1  0.29700800  0.31106900  0.30423200  1
  H  H21  1  0.29695800  0.31123200  0.80435000  1
  H  H22  1  0.79755600  0.18947800  0.19567000  1
  H  H23  1  0.79697300  0.18898200  0.69584000  1
  H  H24  1  0.70899700  0.50473600  0.19493700  1
  H  H25  1  0.70885700  0.50480800  0.69469000  1
  H  H26  1  0.20877900  0.99524900  0.30535700  1
  H  H27  1  0.20926000  0.99480700  0.80526900  1
  H  H28  1  0.29097100  0.49526000  0.30530700  1
  H  H29  1  0.29103300  0.49530100  0.80523100  1
  H  H30  1  0.79122900  0.00524400  0.19422300  1
  H  H31  1  0.79103200  0.00482800  0.69477300  1
  Cl  Cl0  1  0.23587800  0.57452000  0.15227900  1
  Cl  Cl1  1  0.23584100  0.57441300  0.65211300  1
  Cl  Cl2  1  0.73583200  0.92558500  0.34776800  1
  Cl  Cl3  1  0.73608300  0.92547700  0.84781200  1
  Cl  Cl4  1  0.76405900  0.42564800  0.34799400  1
  Cl  Cl5  1  0.76409000  0.42550800  0.84787100  1
  Cl  Cl6  1  0.26421500  0.07441700  0.15213800  1
  Cl  Cl7  1  0.26411500  0.07455700  0.65232600  1
  O  O0  1  0.50019400  0.75271100  0.00229100  1
  O  O1  1  0.50013800  0.75285700  0.50234600  1
  O  O2  1  0.00015800  0.74724300  0.49769100  1
  O  O3  1  0.00017900  0.74720400  0.99769400  1
  O  O4  1  0.49981900  0.24737100  0.49772200  1
  O  O5  1  0.49939500  0.24698500  0.99760100  1
  O  O6  1  0.99989400  0.25265600  0.00228200  1
  O  O7  1  0.99984100  0.25276800  0.50234400  1
  O  O8  1  0.69192200  0.56958000  0.14106700  1
  O  O9  1  0.69164900  0.57000800  0.64107800  1
  O  O10  1  0.19166800  0.93015300  0.35904100  1
  O  O11  1  0.19195500  0.92932900  0.85867600  1
  O  O12  1  0.30810400  0.43009700  0.35895500  1
  O  O13  1  0.30801200  0.43029500  0.85901600  1
  O  O14  1  0.80863500  0.07058700  0.14072200  1
  O  O15  1  0.80812700  0.06993900  0.64107400  1
loop_
_geom_bond_atom_site_label_1
_geom_bond_atom_site_label_2
_geom_bond_distance
_geom_bond_site_symmetry_2
Fe0 O12 2.109792 1_555
Fe0 O9 2.111067 1_555
Fe0 O1 2.141017 1_555
Fe0 O4 2.143181 1_555
Fe1 O11 2.108754 1_555
Fe1 O14 2.111420 1_466
Fe1 O3 2.141460 1_555
Fe1 O6 2.142606 1_466
Fe2 O13 2.110839 1_554
Fe2 O8 2.111310 1_555
Fe2 O0 2.142213 1_555
Fe2 O5 2.143759 1_554
Fe3 O15 2.108466 1_565
Fe3 O10 2.112740 1_655
Fe3 O2 2.141072 1_655
Fe3 O7 2.143340 1_565
H0 O0 0.986716 1_555
H1 O1 0.986534 1_555
H2 O2 0.986507 1_655
H3 O3 0.986514 1_655
H4 O4 0.986436 1_555
H5 O5 0.986383 1_555
H6 O6 0.986255 1_455
H7 O7 0.986543 1_455
H8 O1 0.985126 1_555
H9 O0 0.984656 1_556
H10 O3 0.984980 1_554
H11 O2 0.984925 1_555
H12 O5 0.985109 1_554
H13 O4 0.984899 1_555
H14 O7 0.984993 1_555
H15 O6 0.985097 1_556
H16 O8 0.988316 1_555
H17 O9 0.988296 1_555
H18 O10 0.988442 1_555
H19 O11 0.988020 1_555
H20 O12 0.988159 1_555
H21 O13 0.988180 1_555
H22 O14 0.987983 1_555
H23 O15 0.988446 1_555
H24 O8 0.988153 1_555
H25 O9 0.988122 1_555
H26 O10 0.988108 1_555
H27 O11 0.988134 1_555
H28 O12 0.988156 1_555
H29 O13 0.988308 1_555
H30 O14 0.988252 1_555
H31 O15 0.988343 1_555
Cl0 Fe2 2.588060 1_555
Cl1 Fe0 2.585853 1_555
Cl2 Fe3 2.587028 1_555
Cl3 Fe1 2.586539 1_655
Cl4 Fe0 2.587590 1_555
Cl5 Fe2 2.587388 1_556
Cl6 Fe1 2.586553 1_544
Cl7 Fe3 2.588571 1_445
