# generated using pymatgen
data_BaYI5
_symmetry_space_group_name_H-M   'P 1'
_cell_length_a   27.05664900
_cell_length_b   8.27067000
_cell_length_c   14.11013991
_cell_angle_alpha   55.09819939
_cell_angle_beta   90.00000000
_cell_angle_gamma   90.00000000
_symmetry_Int_Tables_number   1
_chemical_formula_structural   BaYI5
_chemical_formula_sum   'Ba8 Y8 I40'
_cell_volume   2589.58864135
_cell_formula_units_Z   8
loop_
 _symmetry_equiv_pos_site_id
 _symmetry_equiv_pos_as_xyz
  1  'x, y, z'
loop_
 _atom_site_type_symbol
 _atom_site_label
 _atom_site_symmetry_multiplicity
 _atom_site_fract_x
 _atom_site_fract_y
 _atom_site_fract_z
 _atom_site_occupancy
  Ba  Ba0  1  0.97198300  0.15724300  0.25053600  1
  Ba  Ba1  1  0.24005700  0.14924500  0.01158000  1
  Ba  Ba2  1  0.47198300  0.84275700  0.24946400  1
  Ba  Ba3  1  0.74005700  0.85075500  0.48842000  1
  Ba  Ba4  1  0.25994300  0.14924500  0.51158000  1
  Ba  Ba5  1  0.52801700  0.15724300  0.75053600  1
  Ba  Ba6  1  0.75994300  0.85075500  0.98842000  1
  Ba  Ba7  1  0.02801700  0.84275700  0.74946400  1
  Y  Y0  1  0.12849600  0.80346000  0.44300900  1
  Y  Y1  1  0.62849600  0.19654000  0.05699100  1
  Y  Y2  1  0.38693200  0.65579900  0.60917800  1
  Y  Y3  1  0.88693200  0.34420100  0.89082200  1
  Y  Y4  1  0.11306800  0.65579900  0.10917800  1
  Y  Y5  1  0.61306800  0.34420100  0.39082200  1
  Y  Y6  1  0.37150400  0.80346000  0.94300900  1
  Y  Y7  1  0.87150400  0.19654000  0.55699100  1
  I  I0  1  0.37500600  0.05945200  0.39608800  1
  I  I1  1  0.14368400  0.46670700  0.99076600  1
  I  I2  1  0.33822700  0.39436700  0.05187000  1
  I  I3  1  0.57552400  0.14774500  0.26537000  1
  I  I4  1  0.90944700  0.75895500  0.67515200  1
  I  I5  1  0.14972100  0.83061500  0.64460300  1
  I  I6  1  0.22619900  0.99653600  0.32845800  1
  I  I7  1  0.28685400  0.63243600  0.70710500  1
  I  I8  1  0.52390900  0.28871800  0.96179400  1
  I  I9  1  0.99652600  0.32669200  0.94505800  1
  I  I10  1  0.72619900  0.00346400  0.17154200  1
  I  I11  1  0.49652600  0.67330800  0.55494200  1
  I  I12  1  0.02390900  0.71128200  0.53820600  1
  I  I13  1  0.78685400  0.36756400  0.79289500  1
  I  I14  1  0.07552400  0.85225500  0.23463000  1
  I  I15  1  0.83822700  0.60563300  0.44813000  1
  I  I16  1  0.64972100  0.16938500  0.85539700  1
  I  I17  1  0.40944700  0.24104500  0.82484800  1
  I  I18  1  0.64368400  0.53329300  0.50923400  1
  I  I19  1  0.87500600  0.94054800  0.10391200  1
  I  I20  1  0.12499400  0.05945200  0.89608800  1
  I  I21  1  0.35631600  0.46670700  0.49076600  1
  I  I22  1  0.59055300  0.75895500  0.17515200  1
  I  I23  1  0.35027900  0.83061500  0.14460300  1
  I  I24  1  0.16177300  0.39436700  0.55187000  1
  I  I25  1  0.92447600  0.14774500  0.76537000  1
  I  I26  1  0.21314600  0.63243600  0.20710500  1
  I  I27  1  0.97609100  0.28871800  0.46179400  1
  I  I28  1  0.50347400  0.32669200  0.44505800  1
  I  I29  1  0.27380100  0.99653600  0.82845800  1
  I  I30  1  0.00347400  0.67330800  0.05494200  1
  I  I31  1  0.47609100  0.71128200  0.03820600  1
  I  I32  1  0.71314600  0.36756400  0.29289500  1
  I  I33  1  0.77380100  0.00346400  0.67154200  1
  I  I34  1  0.85027900  0.16938500  0.35539700  1
  I  I35  1  0.09055300  0.24104500  0.32484800  1
  I  I36  1  0.42447600  0.85225500  0.73463000  1
  I  I37  1  0.66177300  0.60563300  0.94813000  1
  I  I38  1  0.85631600  0.53329300  0.00923400  1
  I  I39  1  0.62499400  0.94054800  0.60391200  1
loop_
_geom_bond_atom_site_label_1
_geom_bond_atom_site_label_2
_geom_bond_distance
_geom_bond_site_symmetry_2
Ba0 I35 3.564190 1_655
Ba0 I30 3.616684 1_655
Ba0 I34 3.634907 1_555
Ba0 I27 3.713441 1_555
Ba0 I9 3.751181 1_554
Ba0 I14 3.861249 1_645
Ba0 I12 3.862858 1_645
Ba1 I2 3.578723 1_555
Ba1 I29 3.583250 1_544
Ba1 I1 3.591232 1_554
Ba1 I26 3.594038 1_545
Ba1 I23 3.701508 1_545
Ba1 I20 3.779444 1_554
Ba1 I6 3.907054 1_545
Ba1 I7 4.047690 1_554
Ba2 I22 3.564190 1_555
Ba2 I28 3.616684 1_555
Ba2 I23 3.634907 1_555
Ba2 I31 3.713441 1_555
Ba2 I11 3.751181 1_555
Ba2 I3 3.861249 1_565
Ba2 I8 3.862858 1_564
Ba3 I15 3.578723 1_555
Ba3 I33 3.583250 1_565
Ba3 I18 3.591232 1_555
Ba3 I32 3.594038 1_565
Ba3 I34 3.701508 1_565
Ba3 I39 3.779444 1_555
Ba3 I10 3.907054 1_565
Ba3 I13 4.047690 1_555
Ba4 I24 3.578723 1_555
Ba4 I6 3.583250 1_545
Ba4 I21 3.591232 1_555
Ba4 I7 3.594038 1_545
Ba4 I5 3.701508 1_545
Ba4 I0 3.779444 1_555
Ba4 I29 3.907054 1_545
Ba4 I26 4.047690 1_555
Ba5 I17 3.564190 1_555
Ba5 I11 3.616684 1_555
Ba5 I16 3.634907 1_555
Ba5 I8 3.713441 1_555
Ba5 I28 3.751181 1_555
Ba5 I36 3.861249 1_545
Ba5 I31 3.862858 1_546
Ba6 I37 3.578723 1_555
Ba6 I10 3.583250 1_566
Ba6 I38 3.591232 1_556
Ba6 I13 3.594038 1_565
Ba6 I16 3.701508 1_565
Ba6 I19 3.779444 1_556
Ba6 I33 3.907054 1_565
Ba6 I32 4.047690 1_556
Ba7 I4 3.564190 1_455
Ba7 I9 3.616684 1_455
Ba7 I5 3.634907 1_555
Ba7 I12 3.713441 1_555
Ba7 I30 3.751181 1_556
Ba7 I25 3.861249 1_465
Ba7 I27 3.862858 1_465
I0 Y2 2.967016 1_545
I1 Y4 2.985601 1_556
I2 Y6 2.944595 1_554
I3 Y1 3.082904 1_555
I3 Y5 3.177526 1_555
I4 Y3 3.074583 1_555
I4 Y7 3.166501 1_565
I5 Y0 3.033577 1_555
I6 Y0 3.032666 1_555
I7 Y2 2.995517 1_555
I8 Y1 3.036654 1_556
I9 Y3 3.045076 1_555
I10 Y1 3.032666 1_555
I11 Y2 3.045076 1_555
I12 Y0 3.036654 1_555
I13 Y3 2.995517 1_555
I14 Y0 3.082904 1_555
I14 Y4 3.177526 1_555
I15 Y7 2.944595 1_555
I16 Y1 3.033577 1_556
I17 Y2 3.074583 1_555
I17 Y6 3.166501 1_545
I18 Y5 2.985601 1_555
I19 Y3 2.967016 1_564
I20 Y4 2.967016 1_546
I21 Y2 2.985601 1_555
I22 Y5 3.074583 1_555
I22 Y1 3.166501 1_565
I23 Y6 3.033577 1_554
I24 Y0 2.944595 1_555
I25 Y7 3.082904 1_555
I25 Y3 3.177526 1_555
I26 Y4 2.995517 1_555
I27 Y7 3.036654 1_555
I28 Y5 3.045076 1_555
I29 Y6 3.032666 1_555
I30 Y4 3.045076 1_555
I31 Y6 3.036654 1_554
I32 Y5 2.995517 1_555
I33 Y7 3.032666 1_555
I34 Y7 3.033577 1_555
I35 Y4 3.074583 1_555
I35 Y0 3.166501 1_545
I36 Y6 3.082904 1_555
I36 Y2 3.177526 1_555
I37 Y1 2.944595 1_556
I38 Y3 2.985601 1_554
I39 Y5 2.967016 1_565
