# generated using pymatgen
data_Li4MnFe3(BO3)4
_symmetry_space_group_name_H-M   'P 1'
_cell_length_a   5.22779600
_cell_length_b   5.23009534
_cell_length_c   10.40636921
_cell_angle_alpha   90.77013617
_cell_angle_beta   91.23040703
_cell_angle_gamma   119.89854167
_symmetry_Int_Tables_number   1
_chemical_formula_structural   Li4MnFe3(BO3)4
_chemical_formula_sum   'Li4 Mn1 Fe3 B4 O12'
_cell_volume   246.50882268
_cell_formula_units_Z   1
loop_
 _symmetry_equiv_pos_site_id
 _symmetry_equiv_pos_as_xyz
  1  'x, y, z'
loop_
 _atom_site_type_symbol
 _atom_site_label
 _atom_site_symmetry_multiplicity
 _atom_site_fract_x
 _atom_site_fract_y
 _atom_site_fract_z
 _atom_site_occupancy
  Li  Li0  1  0.35171400  0.33307800  0.33142400  1
  Li  Li1  1  0.31999600  0.34072700  0.83434300  1
  Li  Li2  1  0.67203800  0.65463900  0.58158900  1
  Li  Li3  1  0.63925400  0.65665200  0.08370100  1
  Mn  Mn0  1  0.99857100  0.67165400  0.86592800  1
  Fe  Fe0  1  0.98538800  0.31814000  0.11951400  1
  Fe  Fe1  1  0.68162600  0.01769400  0.36936200  1
  Fe  Fe2  1  0.33248500  0.00015400  0.61699100  1
  B  B0  1  0.66045300  0.99807600  0.87381000  1
  B  B1  1  0.00155300  0.33144400  0.62204400  1
  B  B2  1  0.00715100  0.66965300  0.37349300  1
  B  B3  1  0.31987800  0.98839800  0.12556000  1
  O  O0  1  0.75344600  0.06698500  0.58378500  1
  O  O1  1  0.93310400  0.24943800  0.90572000  1
  O  O2  1  0.42305100  0.03042800  0.83177400  1
  O  O3  1  0.97995900  0.58266900  0.65033200  1
  O  O4  1  0.33571200  0.26194100  0.13939600  1
  O  O5  1  0.27676300  0.35180300  0.63554600  1
  O  O6  1  0.73447800  0.64660000  0.38556900  1
  O  O7  1  0.62946500  0.72138900  0.88721600  1
  O  O8  1  0.02965700  0.42261900  0.33489800  1
  O  O9  1  0.57094400  0.96810100  0.15583700  1
  O  O10  1  0.05871200  0.73938600  0.08410200  1
  O  O11  1  0.26400200  0.93773100  0.40426400  1
loop_
_geom_bond_atom_site_label_1
_geom_bond_atom_site_label_2
_geom_bond_distance
_geom_bond_site_symmetry_2
Li0 O6 1.914670 1_555
Li0 O8 1.960484 1_555
Li0 O4 2.020022 1_555
Li0 O11 2.042562 1_545
Li1 O7 1.898703 1_555
Li1 O2 1.948295 1_555
Li1 O1 1.995466 1_455
Li1 O5 2.080956 1_555
Li2 O3 1.951043 1_555
Li2 O5 1.976066 1_555
Li2 O0 1.978853 1_565
Li2 O6 2.075887 1_555
Li3 O9 1.975585 1_555
Li3 O4 1.980284 1_555
Li3 O10 2.012316 1_655
Li3 O7 2.080727 1_554
Mn0 O7 2.087422 1_555
Mn0 O1 2.107631 1_555
Mn0 O2 2.114777 1_665
Mn0 O3 2.275322 1_555
Mn0 O10 2.283800 1_656
Fe0 O4 2.001330 1_655
Fe0 O9 2.070791 1_545
Fe0 O10 2.079086 1_655
Fe0 O1 2.237884 1_554
Fe0 O8 2.279166 1_655
Fe1 O8 2.032512 1_655
Fe1 O11 2.049704 1_545
Fe1 O6 2.100743 1_545
Fe1 O0 2.244656 1_555
Fe1 O9 2.262548 1_545
Fe2 O5 2.007890 1_555
Fe2 O3 2.078594 1_445
Fe2 O0 2.086553 1_555
Fe2 O11 2.228297 1_545
Fe2 O2 2.261694 1_555
B0 O7 1.382928 1_555
B0 O2 1.395821 1_565
B0 O1 1.403590 1_565
B1 O0 1.388691 1_455
B1 O5 1.392569 1_555
B1 O3 1.401684 1_455
B2 O6 1.378070 1_455
B2 O11 1.401411 1_555
B2 O8 1.408571 1_555
B3 O10 1.390427 1_555
B3 O4 1.396513 1_565
B3 O9 1.398319 1_555
