# generated using pymatgen
data_LiSb(PO3)4
_symmetry_space_group_name_H-M   'P 1'
_cell_length_a   8.81690200
_cell_length_b   7.24605800
_cell_length_c   16.82995378
_cell_angle_alpha   65.05630134
_cell_angle_beta   90.00000000
_cell_angle_gamma   90.00000000
_symmetry_Int_Tables_number   1
_chemical_formula_structural   LiSb(PO3)4
_chemical_formula_sum   'Li4 Sb4 P16 O48'
_cell_volume   974.93396151
_cell_formula_units_Z   4
loop_
 _symmetry_equiv_pos_site_id
 _symmetry_equiv_pos_as_xyz
  1  'x, y, z'
loop_
 _atom_site_type_symbol
 _atom_site_label
 _atom_site_symmetry_multiplicity
 _atom_site_fract_x
 _atom_site_fract_y
 _atom_site_fract_z
 _atom_site_occupancy
  Li  Li0  1  0.59877000  0.34837900  0.63637700  1
  Li  Li1  1  0.90123000  0.34837900  0.13637700  1
  Li  Li2  1  0.09877000  0.65162100  0.86362300  1
  Li  Li3  1  0.40123000  0.65162100  0.36362300  1
  Sb  Sb0  1  0.66354400  0.80440800  0.10336500  1
  Sb  Sb1  1  0.16354400  0.19559200  0.39663500  1
  Sb  Sb2  1  0.83645600  0.80440800  0.60336500  1
  Sb  Sb3  1  0.33645600  0.19559200  0.89663500  1
  P  P0  1  0.25274000  0.34368000  0.56935100  1
  P  P1  1  0.03570000  0.65491300  0.21318100  1
  P  P2  1  0.25961400  0.76560400  0.06347800  1
  P  P3  1  0.03507000  0.03979200  0.70310100  1
  P  P4  1  0.75961400  0.23439600  0.43652200  1
  P  P5  1  0.53570000  0.34508700  0.28681900  1
  P  P6  1  0.53507000  0.96020800  0.79689900  1
  P  P7  1  0.24726000  0.34368000  0.06935100  1
  P  P8  1  0.75274000  0.65632000  0.93064900  1
  P  P9  1  0.46493000  0.03979200  0.20310100  1
  P  P10  1  0.46430000  0.65491300  0.71318100  1
  P  P11  1  0.24038600  0.76560400  0.56347800  1
  P  P12  1  0.96493000  0.96020800  0.29689900  1
  P  P13  1  0.74038600  0.23439600  0.93652200  1
  P  P14  1  0.96430000  0.34508700  0.78681900  1
  P  P15  1  0.74726000  0.65632000  0.43064900  1
  O  O0  1  0.41283700  0.86645200  0.06155700  1
  O  O1  1  0.17277900  0.76026300  0.14840600  1
  O  O2  1  0.01575300  0.17030800  0.76011200  1
  O  O3  1  0.23482800  0.40366900  0.47176000  1
  O  O4  1  0.09620100  0.47513900  0.29292700  1
  O  O5  1  0.79845000  0.46634600  0.40983200  1
  O  O6  1  0.39953600  0.26380300  0.61286400  1
  O  O7  1  0.40755200  0.39119800  0.33480000  1
  O  O8  1  0.10897800  0.20218400  0.61386000  1
  O  O9  1  0.63436700  0.13465900  0.74760800  1
  O  O10  1  0.90755200  0.60880200  0.16520000  1
  O  O11  1  0.88067700  0.99667400  0.67285800  1
  O  O12  1  0.66783200  0.13275400  0.51809800  1
  O  O13  1  0.29845000  0.53365400  0.09016800  1
  O  O14  1  0.59620100  0.52486100  0.20707300  1
  O  O15  1  0.73482800  0.59633100  0.02824000  1
  O  O16  1  0.16783200  0.86724600  0.98190200  1
  O  O17  1  0.38067700  0.00332600  0.82714200  1
  O  O18  1  0.67277900  0.23973700  0.35159400  1
  O  O19  1  0.13436700  0.86534100  0.75239200  1
  O  O20  1  0.91283700  0.13354800  0.43844300  1
  O  O21  1  0.60897800  0.79781600  0.88614000  1
  O  O22  1  0.48424700  0.17030800  0.26011200  1
  O  O23  1  0.89953600  0.73619700  0.88713600  1
  O  O24  1  0.10046400  0.26380300  0.11286400  1
  O  O25  1  0.51575300  0.82969200  0.73988800  1
  O  O26  1  0.39102200  0.20218400  0.11386000  1
  O  O27  1  0.08716300  0.86645200  0.56155700  1
  O  O28  1  0.86563300  0.13465900  0.24760800  1
  O  O29  1  0.32722100  0.76026300  0.64840600  1
  O  O30  1  0.61932300  0.99667400  0.17285800  1
  O  O31  1  0.83216800  0.13275400  0.01809800  1
  O  O32  1  0.26517200  0.40366900  0.97176000  1
  O  O33  1  0.40379900  0.47513900  0.79292700  1
  O  O34  1  0.70155000  0.46634600  0.90983200  1
  O  O35  1  0.33216800  0.86724600  0.48190200  1
  O  O36  1  0.11932300  0.00332600  0.32714200  1
  O  O37  1  0.09244800  0.39119800  0.83480000  1
  O  O38  1  0.36563300  0.86534100  0.25239200  1
  O  O39  1  0.89102200  0.79781600  0.38614000  1
  O  O40  1  0.59244800  0.60880200  0.66520000  1
  O  O41  1  0.60046400  0.73619700  0.38713600  1
  O  O42  1  0.20155000  0.53365400  0.59016800  1
  O  O43  1  0.90379900  0.52486100  0.70707300  1
  O  O44  1  0.76517200  0.59633100  0.52824000  1
  O  O45  1  0.98424700  0.82969200  0.23988800  1
  O  O46  1  0.82722100  0.23973700  0.85159400  1
  O  O47  1  0.58716300  0.13354800  0.93844300  1
loop_
_geom_bond_atom_site_label_1
_geom_bond_atom_site_label_2
_geom_bond_distance
_geom_bond_site_symmetry_2
Li0 O9 1.885727 1_555
Li0 O6 1.955111 1_555
Li0 O40 2.138089 1_555
Li0 O44 2.436142 1_555
Li1 O28 1.885727 1_555
Li1 O24 1.955111 1_655
Li1 O10 2.138089 1_555
Li1 O15 2.436142 1_555
Li2 O19 1.885727 1_555
Li2 O23 1.955111 1_455
Li2 O37 2.138089 1_555
Li2 O32 2.436142 1_555
Li3 O38 1.885727 1_555
Li3 O41 1.955111 1_555
Li3 O7 2.138089 1_555
Li3 O3 2.436142 1_555
O0 P2 1.529767 1_555
O0 Sb0 2.305759 1_555
O1 P1 1.590600 1_555
O1 P2 1.607484 1_555
O2 P14 1.578570 1_455
O2 P3 1.615363 1_555
O3 P0 1.519657 1_555
O3 Sb1 2.423790 1_555
O4 P1 1.519248 1_555
O4 Sb1 2.126039 1_555
O5 P4 1.583373 1_555
O5 P15 1.621158 1_555
O6 P0 1.479515 1_555
O7 P5 1.505954 1_555
O7 Sb1 2.544865 1_555
O8 P0 1.603494 1_555
O8 P3 1.604488 1_555
O9 P6 1.472443 1_545
O10 P1 1.505954 1_655
O10 Sb0 2.544865 1_555
O11 P3 1.530969 1_665
O11 Sb2 2.198897 1_555
O12 P4 1.493096 1_555
O12 Sb2 2.655300 1_545
O13 P2 1.583373 1_555
O13 P7 1.621158 1_555
O14 P5 1.519248 1_555
O14 Sb0 2.126039 1_555
O15 P8 1.519657 1_554
O15 Sb0 2.423790 1_555
O16 P2 1.493096 1_556
O16 Sb3 2.655300 1_565
O17 P6 1.530969 1_545
O17 Sb3 2.198897 1_555
O18 P5 1.590600 1_555
O18 P4 1.607484 1_555
O19 P3 1.472443 1_565
O20 P4 1.529767 1_555
O20 Sb1 2.305759 1_655
O21 P8 1.603494 1_555
O21 P6 1.604488 1_555
O22 P5 1.578570 1_555
O22 P9 1.615363 1_555
O23 P8 1.479515 1_555
O24 P7 1.479515 1_555
O25 P10 1.578570 1_555
O25 P6 1.615363 1_555
O26 P7 1.603494 1_555
O26 P9 1.604488 1_555
O27 P11 1.529767 1_555
O27 Sb2 2.305759 1_455
O28 P12 1.472443 1_545
O29 P10 1.590600 1_555
O29 P11 1.607484 1_555
O30 P9 1.530969 1_565
O30 Sb0 2.198897 1_555
O31 P13 1.493096 1_554
O31 Sb0 2.655300 1_545
O32 P7 1.519657 1_556
O32 Sb3 2.423790 1_555
O33 P10 1.519248 1_555
O33 Sb3 2.126039 1_555
O34 P13 1.583373 1_555
O34 P8 1.621158 1_555
O35 P11 1.493096 1_555
O35 Sb1 2.655300 1_565
O36 P12 1.530969 1_445
O36 Sb1 2.198897 1_555
O37 P14 1.505954 1_455
O37 Sb3 2.544865 1_555
O38 P9 1.472443 1_565
O39 P15 1.603494 1_555
O39 P12 1.604488 1_555
O40 P10 1.505954 1_555
O40 Sb2 2.544865 1_555
O41 P15 1.479515 1_555
O42 P11 1.583373 1_555
O42 P0 1.621158 1_555
O43 P14 1.519248 1_555
O43 Sb2 2.126039 1_555
O44 P15 1.519657 1_555
O44 Sb2 2.423790 1_555
O45 P1 1.578570 1_655
O45 P12 1.615363 1_555
O46 P14 1.590600 1_555
O46 P13 1.607484 1_555
O47 P13 1.529767 1_555
O47 Sb3 2.305759 1_555
