# generated using pymatgen
data_Li3Fe4(BO3)4
_symmetry_space_group_name_H-M   'P 1'
_cell_length_a   5.24686300
_cell_length_b   5.25396078
_cell_length_c   20.27961704
_cell_angle_alpha   89.98070386
_cell_angle_beta   91.39106035
_cell_angle_gamma   119.83720918
_symmetry_Int_Tables_number   1
_chemical_formula_structural   Li3Fe4(BO3)4
_chemical_formula_sum   'Li6 Fe8 B8 O24'
_cell_volume   484.75152803
_cell_formula_units_Z   2
loop_
 _symmetry_equiv_pos_site_id
 _symmetry_equiv_pos_as_xyz
  1  'x, y, z'
loop_
 _atom_site_type_symbol
 _atom_site_label
 _atom_site_symmetry_multiplicity
 _atom_site_fract_x
 _atom_site_fract_y
 _atom_site_fract_z
 _atom_site_occupancy
  Li  Li0  1  0.32489900  0.34343000  0.91887100  1
  Li  Li1  1  0.34716300  0.32608200  0.16962100  1
  Li  Li2  1  0.32972800  0.35205100  0.41878500  1
  Li  Li3  1  0.65839600  0.64950200  0.79026700  1
  Li  Li4  1  0.65894800  0.66160800  0.54644000  1
  Li  Li5  1  0.65685900  0.66849500  0.04769500  1
  Fe  Fe0  1  0.32346200  0.99847200  0.80898100  1
  Fe  Fe1  1  0.32492100  0.98797300  0.30840300  1
  Fe  Fe2  1  0.99233400  0.67374400  0.93512100  1
  Fe  Fe3  1  0.99616700  0.68371700  0.43455900  1
  Fe  Fe4  1  0.01062800  0.32379200  0.56084100  1
  Fe  Fe5  1  0.99378600  0.32432200  0.05953600  1
  Fe  Fe6  1  0.67022000  0.00753800  0.68237500  1
  Fe  Fe7  1  0.67898900  0.99135400  0.18683400  1
  B  B0  1  0.66239300  0.00094300  0.93640400  1
  B  B1  1  0.66697600  0.00782800  0.43620100  1
  B  B2  1  0.99537600  0.33316600  0.81018500  1
  B  B3  1  0.99287600  0.32833400  0.31272700  1
  B  B4  1  0.00064400  0.66681300  0.68588200  1
  B  B5  1  0.99991800  0.65827300  0.18595500  1
  B  B6  1  0.33290400  0.99528900  0.56094900  1
  B  B7  1  0.32860400  0.99686700  0.06156800  1
  O  O0  1  0.74643500  0.07303400  0.78737800  1
  O  O1  1  0.72482000  0.09722400  0.29101700  1
  O  O2  1  0.93038900  0.25450600  0.95082300  1
  O  O3  1  0.41529200  0.01912200  0.91663300  1
  O  O4  1  0.92883700  0.26272100  0.45254000  1
  O  O5  1  0.42166700  0.02653400  0.41347700  1
  O  O6  1  0.96849600  0.57738500  0.82549500  1
  O  O7  1  0.35599300  0.26524000  0.55767300  1
  O  O8  1  0.01818100  0.59761600  0.32896700  1
  O  O9  1  0.34264100  0.26671100  0.06761400  1
  O  O10  1  0.26443000  0.34649100  0.81849300  1
  O  O11  1  0.23381900  0.29245600  0.32049400  1
  O  O12  1  0.75461600  0.69522100  0.69018400  1
  O  O13  1  0.73465500  0.64748800  0.18147300  1
  O  O14  1  0.64137900  0.72774600  0.94282000  1
  O  O15  1  0.97684500  0.40237700  0.66648000  1
  O  O16  1  0.64484700  0.73606200  0.44458800  1
  O  O17  1  0.02752400  0.41660700  0.16909200  1
  O  O18  1  0.58058800  0.96919300  0.58160500  1
  O  O19  1  0.57947100  0.97864100  0.07723800  1
  O  O20  1  0.07334300  0.74092000  0.54280400  1
  O  O21  1  0.06806600  0.74653200  0.04196500  1
  O  O22  1  0.27457900  0.90145400  0.70395400  1
  O  O23  1  0.25394500  0.92373900  0.20747100  1
loop_
_geom_bond_atom_site_label_1
_geom_bond_atom_site_label_2
_geom_bond_distance
_geom_bond_site_symmetry_2
Li0 O14 1.922352 1_555
Li0 O3 1.983816 1_555
Li0 O2 2.006340 1_455
Li0 O10 2.053874 1_555
Li1 O13 1.898187 1_555
Li1 O17 1.957510 1_555
Li1 O23 2.070090 1_545
Li1 O9 2.089957 1_555
Li2 O16 1.928062 1_555
Li2 O5 1.998212 1_555
Li2 O11 2.029646 1_555
Li2 O4 2.049534 1_455
Li3 O6 1.964200 1_555
Li3 O10 1.979195 1_555
Li3 O0 2.036372 1_565
Li3 O12 2.088249 1_555
Li4 O7 1.907542 1_555
Li4 O18 1.991318 1_555
Li4 O20 2.003184 1_655
Li4 O16 2.108483 1_555
Li5 O19 1.962123 1_555
Li5 O9 1.976372 1_555
Li5 O21 1.992112 1_655
Li5 O14 2.154812 1_554
Fe0 O10 2.010763 1_565
Fe0 O6 2.098840 1_455
Fe0 O0 2.110115 1_565
Fe0 O22 2.169384 1_555
Fe0 O3 2.215197 1_565
Fe1 O11 1.901222 1_565
Fe1 O1 1.921883 1_565
Fe1 O8 1.928186 1_555
Fe1 O23 2.068966 1_555
Fe1 O5 2.164422 1_565
Fe2 O14 2.007373 1_555
Fe2 O2 2.085886 1_555
Fe2 O3 2.095475 1_665
Fe2 O21 2.192377 1_656
Fe2 O6 2.266869 1_555
Fe3 O16 2.009366 1_555
Fe3 O4 2.092466 1_555
Fe3 O5 2.110841 1_665
Fe3 O8 2.206373 1_655
Fe3 O20 2.215681 1_655
Fe4 O7 1.985643 1_555
Fe4 O20 2.081532 1_555
Fe4 O18 2.145233 1_445
Fe4 O15 2.209814 1_455
Fe4 O4 2.220036 1_455
Fe5 O9 2.001378 1_655
Fe5 O19 2.064420 1_545
Fe5 O21 2.084595 1_655
Fe5 O2 2.224688 1_554
Fe5 O17 2.258061 1_655
Fe6 O12 1.906089 1_545
Fe6 O15 1.923369 1_555
Fe6 O22 1.924588 1_545
Fe6 O18 2.072993 1_545
Fe6 O0 2.152900 1_555
Fe7 O13 1.971773 1_555
Fe7 O17 2.105061 1_665
Fe7 O23 2.128797 1_555
Fe7 O1 2.161975 1_565
Fe7 O19 2.264057 1_555
B0 O14 1.390127 1_545
B0 O3 1.395981 1_555
B0 O2 1.397772 1_555
B1 O16 1.384553 1_545
B1 O4 1.392209 1_555
B1 O5 1.405598 1_555
B2 O10 1.384294 1_655
B2 O6 1.394685 1_555
B2 O0 1.408061 1_555
B3 O11 1.373307 1_655
B3 O1 1.384653 1_555
B3 O8 1.392485 1_655
B4 O12 1.376025 1_455
B4 O15 1.387809 1_455
B4 O22 1.389781 1_555
B5 O13 1.365269 1_555
B5 O17 1.391322 1_655
B5 O23 1.426371 1_655
B6 O7 1.363837 1_565
B6 O20 1.393232 1_555
B6 O18 1.426174 1_555
B7 O9 1.387893 1_565
B7 O21 1.393376 1_555
B7 O19 1.395637 1_555
