# generated using pymatgen
data_K3VC5N5O
_symmetry_space_group_name_H-M   'P 1'
_cell_length_a   8.61473700
_cell_length_b   9.88745000
_cell_length_c   13.55932900
_cell_angle_alpha   90.00000000
_cell_angle_beta   90.00000000
_cell_angle_gamma   90.00000000
_symmetry_Int_Tables_number   1
_chemical_formula_structural   K3VC5N5O
_chemical_formula_sum   'K12 V4 C20 N20 O4'
_cell_volume   1154.95356082
_cell_formula_units_Z   4
loop_
 _symmetry_equiv_pos_site_id
 _symmetry_equiv_pos_as_xyz
  1  'x, y, z'
loop_
 _atom_site_type_symbol
 _atom_site_label
 _atom_site_symmetry_multiplicity
 _atom_site_fract_x
 _atom_site_fract_y
 _atom_site_fract_z
 _atom_site_occupancy
  K  K0  1  0.63028200  0.71739200  0.97902600  1
  K  K1  1  0.37539800  0.00085000  0.75239500  1
  K  K2  1  0.87539800  0.50085000  0.74760500  1
  K  K3  1  0.36512900  0.74245400  0.49029900  1
  K  K4  1  0.36971800  0.21739200  0.02097400  1
  K  K5  1  0.13487100  0.74245400  0.99029900  1
  K  K6  1  0.86512900  0.24245400  0.00970100  1
  K  K7  1  0.13028200  0.21739200  0.52097400  1
  K  K8  1  0.86971800  0.71739200  0.47902600  1
  K  K9  1  0.12460200  0.00085000  0.25239500  1
  K  K10  1  0.63487100  0.24245400  0.50970100  1
  K  K11  1  0.62460200  0.50085000  0.24760500  1
  V  V0  1  0.87284200  0.92043400  0.77462400  1
  V  V1  1  0.62715800  0.92043400  0.27462400  1
  V  V2  1  0.37284200  0.42043400  0.72537600  1
  V  V3  1  0.12715800  0.42043400  0.22537600  1
  C  C0  1  0.79875300  0.01335900  0.36498700  1
  C  C1  1  0.80026100  0.89877900  0.16281700  1
  C  C2  1  0.45413900  0.90489000  0.16249100  1
  C  C3  1  0.95317900  0.51249200  0.13556900  1
  C  C4  1  0.04682100  0.01249200  0.86443100  1
  C  C5  1  0.69973900  0.89877900  0.66281700  1
  C  C6  1  0.19973900  0.39877900  0.83718300  1
  C  C7  1  0.12961300  0.63143700  0.29385800  1
  C  C8  1  0.54682100  0.51249200  0.63556900  1
  C  C9  1  0.70124700  0.01335900  0.86498700  1
  C  C10  1  0.29875300  0.51335900  0.13501300  1
  C  C11  1  0.04586100  0.90489000  0.66249100  1
  C  C12  1  0.30026100  0.39877900  0.33718300  1
  C  C13  1  0.37038700  0.63143700  0.79385800  1
  C  C14  1  0.87038700  0.13143700  0.70614200  1
  C  C15  1  0.95413900  0.40489000  0.33750900  1
  C  C16  1  0.54586100  0.40489000  0.83750900  1
  C  C17  1  0.20124700  0.51335900  0.63501300  1
  C  C18  1  0.45317900  0.01249200  0.36443100  1
  C  C19  1  0.62961300  0.13143700  0.20614200  1
  N  N0  1  0.63021600  0.23616700  0.16500700  1
  N  N1  1  0.36978400  0.73616700  0.83499300  1
  N  N2  1  0.64499000  0.55851300  0.58574700  1
  N  N3  1  0.85501000  0.55851300  0.08574700  1
  N  N4  1  0.13021600  0.73616700  0.33499300  1
  N  N5  1  0.89647900  0.06074000  0.41458300  1
  N  N6  1  0.86978400  0.23616700  0.66500700  1
  N  N7  1  0.64439300  0.40047800  0.89723800  1
  N  N8  1  0.60153100  0.88738100  0.60336400  1
  N  N9  1  0.60352100  0.06074000  0.91458300  1
  N  N10  1  0.10352100  0.56074000  0.58541700  1
  N  N11  1  0.10153100  0.38738100  0.89663600  1
  N  N12  1  0.35501000  0.05851300  0.41425300  1
  N  N13  1  0.89846900  0.88738100  0.10336400  1
  N  N14  1  0.39647900  0.56074000  0.08541700  1
  N  N15  1  0.85560700  0.40047800  0.39723800  1
  N  N16  1  0.14439300  0.90047800  0.60276200  1
  N  N17  1  0.14499000  0.05851300  0.91425300  1
  N  N18  1  0.35560700  0.90047800  0.10276200  1
  N  N19  1  0.39846900  0.38738100  0.39663600  1
  O  O0  1  0.86965500  0.76563300  0.82573400  1
  O  O1  1  0.13034500  0.26563300  0.17426600  1
  O  O2  1  0.63034500  0.76563300  0.32573400  1
  O  O3  1  0.36965500  0.26563300  0.67426600  1
loop_
_geom_bond_atom_site_label_1
_geom_bond_atom_site_label_2
_geom_bond_distance
_geom_bond_site_symmetry_2
K0 N3 2.882662 1_556
K0 N14 2.921802 1_556
K0 O0 2.966518 1_555
K0 N1 2.980724 1_555
K1 O3 2.824677 1_555
K1 N1 2.847030 1_545
K1 N9 3.008164 1_555
K1 N16 3.010269 1_545
K1 N17 3.013561 1_555
K1 N8 3.022776 1_545
K2 O0 2.824677 1_555
K2 N6 2.847030 1_555
K2 N10 3.008164 1_655
K2 N7 3.010269 1_555
K2 N2 3.013561 1_555
K2 N11 3.022776 1_655
K3 N16 2.895284 1_555
K3 N4 2.921278 1_555
K3 N8 2.924247 1_555
K3 N10 3.157626 1_555
K3 O2 3.201841 1_555
K3 N2 3.285614 1_555
K3 N12 3.291894 1_565
K4 N17 2.882662 1_554
K4 N9 2.921802 1_554
K4 O1 2.966518 1_555
K4 N0 2.980724 1_555
K5 N18 2.895284 1_556
K5 N1 2.921278 1_555
K5 N13 2.924247 1_456
K5 N14 3.157626 1_556
K5 O0 3.201841 1_455
K5 N3 3.285614 1_456
K5 N17 3.291894 1_565
K6 N7 2.895284 1_554
K6 N0 2.921278 1_555
K6 N11 2.924247 1_654
K6 N9 3.157626 1_554
K6 O1 3.201841 1_655
K6 N17 3.285614 1_654
K6 N3 3.291894 1_555
K7 N12 2.882662 1_555
K7 N5 2.921802 1_455
K7 O3 2.966518 1_555
K7 N6 2.980724 1_455
K8 N2 2.882662 1_555
K8 N10 2.921802 1_655
K8 O2 2.966518 1_555
K8 N4 2.980724 1_655
K9 O1 2.824677 1_555
K9 N4 2.847030 1_545
K9 N5 3.008164 1_455
K9 N18 3.010269 1_545
K9 N12 3.013561 1_555
K9 N13 3.022776 1_445
K10 N15 2.895284 1_555
K10 N6 2.921278 1_555
K10 N19 2.924247 1_555
K10 N5 3.157626 1_555
K10 O3 3.201841 1_555
K10 N12 3.285614 1_555
K10 N2 3.291894 1_555
K11 O2 2.824677 1_555
K11 N0 2.847030 1_555
K11 N14 3.008164 1_555
K11 N15 3.010269 1_555
K11 N3 3.013561 1_555
K11 N19 3.022776 1_555
C0 N5 1.174938 1_555
C0 V1 2.128533 1_545
C0 K10 3.312775 1_555
C1 N13 1.174029 1_555
C1 V1 2.137281 1_555
C2 N18 1.174021 1_555
C2 V1 2.134716 1_555
C3 N3 1.174152 1_555
C3 V3 2.134877 1_655
C3 K6 3.258369 1_555
C3 K5 3.391135 1_654
C4 N17 1.174152 1_555
C4 V0 2.134877 1_445
C4 K5 3.258369 1_545
C4 K6 3.391135 1_456
C5 N8 1.174029 1_555
C5 V0 2.137281 1_555
C6 N11 1.174029 1_555
C6 V2 2.137281 1_555
C7 N4 1.176186 1_555
C7 V3 2.283694 1_555
C8 N2 1.174152 1_555
C8 V2 2.134877 1_555
C8 K10 3.258369 1_555
C8 K3 3.391135 1_555
C9 N9 1.174938 1_555
C9 V0 2.128533 1_545
C9 K6 3.312775 1_556
C10 N14 1.174938 1_555
C10 V3 2.128533 1_555
C10 K5 3.312775 1_554
C11 N16 1.174021 1_555
C11 V0 2.134716 1_455
C12 N19 1.174029 1_555
C12 V3 2.137281 1_555
C13 N1 1.176186 1_555
C13 V2 2.283694 1_555
C14 N6 1.176186 1_555
C14 V0 2.283694 1_545
C15 N15 1.174021 1_555
C15 V3 2.134716 1_655
C16 N7 1.174021 1_555
C16 V2 2.134716 1_555
C17 N10 1.174938 1_555
C17 V2 2.128533 1_555
C17 K3 3.312775 1_555
C18 N12 1.174152 1_555
C18 V1 2.134877 1_545
C18 K3 3.258369 1_545
C18 K10 3.391135 1_555
C19 N0 1.176186 1_555
C19 V1 2.283694 1_545
O0 V0 1.680394 1_555
O1 V3 1.680394 1_555
O2 V1 1.680394 1_555
O3 V2 1.680394 1_555
