# generated using pymatgen
data_Li3Mn4(BO3)4
_symmetry_space_group_name_H-M   'P 1'
_cell_length_a   9.08460100
_cell_length_b   9.10942145
_cell_length_c   10.42094665
_cell_angle_alpha   88.17693017
_cell_angle_beta   88.41529021
_cell_angle_gamma   60.14299312
_symmetry_Int_Tables_number   1
_chemical_formula_structural   Li3Mn4(BO3)4
_chemical_formula_sum   'Li9 Mn12 B12 O36'
_cell_volume   747.47760622
_cell_formula_units_Z   3
loop_
 _symmetry_equiv_pos_site_id
 _symmetry_equiv_pos_as_xyz
  1  'x, y, z'
loop_
 _atom_site_type_symbol
 _atom_site_label
 _atom_site_symmetry_multiplicity
 _atom_site_fract_x
 _atom_site_fract_y
 _atom_site_fract_z
 _atom_site_occupancy
  Li  Li0  1  0.61398000  0.61133700  0.11035300  1
  Li  Li1  1  0.72310000  0.71439100  0.33240600  1
  Li  Li2  1  0.05978700  0.04548500  0.83085900  1
  Li  Li3  1  0.74597200  0.69606400  0.84937200  1
  Li  Li4  1  0.93363400  0.95494500  0.07823400  1
  Li  Li5  1  0.28311000  0.28355100  0.58133500  1
  Li  Li6  1  0.93658900  0.96571600  0.58187000  1
  Li  Li7  1  0.35934700  0.40494500  0.32881000  1
  Li  Li8  1  0.40080100  0.37818100  0.83049700  1
  Mn  Mn0  1  0.25913600  0.96629800  0.12001000  1
  Mn  Mn1  1  0.39927500  0.72313500  0.86820400  1
  Mn  Mn2  1  0.72367300  0.36056400  0.36996800  1
  Mn  Mn3  1  0.60997100  0.91577400  0.62293900  1
  Mn  Mn4  1  0.93560000  0.30539500  0.62087400  1
  Mn  Mn5  1  0.98135800  0.59413300  0.12168600  1
  Mn  Mn6  1  0.07331700  0.36737100  0.87710900  1
  Mn  Mn7  1  0.38296200  0.04207800  0.36744900  1
  Mn  Mn8  1  0.05325800  0.75263300  0.36804500  1
  Mn  Mn9  1  0.29747600  0.61309100  0.61296100  1
  Mn  Mn10  1  0.57988200  0.28378800  0.11099000  1
  Mn  Mn11  1  0.71641900  0.04563900  0.86477600  1
  B  B0  1  0.27053500  0.95181300  0.61819900  1
  B  B1  1  0.40066100  0.71078300  0.36628500  1
  B  B2  1  0.72543200  0.38665300  0.87869100  1
  B  B3  1  0.91950800  0.28527200  0.12799100  1
  B  B4  1  0.61665400  0.93525800  0.13458400  1
  B  B5  1  0.05310700  0.40036400  0.36869800  1
  B  B6  1  0.96921200  0.60754300  0.63380400  1
  B  B7  1  0.39290800  0.04843200  0.87324800  1
  B  B8  1  0.07014000  0.71625500  0.88133200  1
  B  B9  1  0.26709100  0.63079500  0.12473400  1
  B  B10  1  0.70644100  0.06119400  0.37845400  1
  B  B11  1  0.61565900  0.25721500  0.61590600  1
  O  O0  1  0.35956000  0.70682200  0.08481500  1
  O  O1  1  0.29734500  0.88464100  0.33767000  1
  O  O2  1  0.37320000  0.78627900  0.65941300  1
  O  O3  1  0.28626300  0.98347200  0.90900400  1
  O  O4  1  0.70790600  0.32726900  0.55600800  1
  O  O5  1  0.57257600  0.62776000  0.35932200  1
  O  O6  1  0.75199000  0.37231300  0.17914600  1
  O  O7  1  0.65468200  0.55544800  0.90591600  1
  O  O8  1  0.88986100  0.29538100  0.82695700  1
  O  O9  1  0.00083700  0.11556100  0.11537000  1
  O  O10  1  0.56080600  0.93541900  0.83579000  1
  O  O11  1  0.70784500  0.76218100  0.14224600  1
  O  O12  1  0.63253500  0.96009300  0.40702000  1
  O  O13  1  0.09863000  0.03916200  0.63764100  1
  O  O14  1  0.94430600  0.34568800  0.41473700  1
  O  O15  1  0.80064100  0.68233600  0.66482200  1
  O  O16  1  0.99451900  0.37932400  0.08394800  1
  O  O17  1  0.97957100  0.56540400  0.31215600  1
  O  O18  1  0.07068200  0.43383800  0.66365800  1
  O  O19  1  0.98949300  0.62483500  0.93057400  1
  O  O20  1  0.35583900  0.03434900  0.56001500  1
  O  O21  1  0.87548300  0.99942400  0.39226800  1
  O  O22  1  0.22510600  0.30568800  0.38409100  1
  O  O23  1  0.03974400  0.69963000  0.57641800  1
  O  O24  1  0.33268200  0.21834800  0.87396000  1
  O  O25  1  0.44556600  0.02718300  0.18131600  1
  O  O26  1  0.98109500  0.89002400  0.88489800  1
  O  O27  1  0.08881900  0.73506900  0.15050100  1
  O  O28  1  0.23480000  0.62403000  0.83445700  1
  O  O29  1  0.33283900  0.46129100  0.14335300  1
  O  O30  1  0.44412600  0.35305800  0.63648800  1
  O  O31  1  0.31367900  0.62416000  0.40275900  1
  O  O32  1  0.68833500  0.02708900  0.08049700  1
  O  O33  1  0.60166000  0.23157400  0.33872200  1
  O  O34  1  0.70503800  0.08855200  0.65717300  1
  O  O35  1  0.63283000  0.30349100  0.90621000  1
loop_
_geom_bond_atom_site_label_1
_geom_bond_atom_site_label_2
_geom_bond_distance
_geom_bond_site_symmetry_2
Li0 O11 1.984226 1_555
Li0 O6 2.014719 1_555
Li0 O0 2.046244 1_555
Li0 O7 2.184639 1_554
Li1 O5 1.900141 1_555
Li1 O11 2.008950 1_555
Li1 O17 2.039029 1_555
Li1 O12 2.129057 1_555
Li2 O26 1.941313 1_445
Li2 O8 2.016283 1_455
Li2 O3 2.030153 1_545
Li2 O13 2.032221 1_555
Li3 O7 1.912708 1_555
Li3 O15 1.965089 1_555
Li3 O10 1.986307 1_555
Li3 O19 2.161172 1_555
Li4 O9 1.897811 1_665
Li4 O27 1.928127 1_655
Li4 O32 1.984520 1_565
Li4 O26 2.090149 1_554
Li5 O18 1.920163 1_555
Li5 O30 1.965387 1_555
Li5 O20 2.042003 1_555
Li5 O22 2.114479 1_555
Li6 O34 1.978320 1_565
Li6 O13 2.001278 1_665
Li6 O21 2.039291 1_555
Li6 O23 2.121516 1_655
Li7 O22 1.913776 1_555
Li7 O33 1.972653 1_555
Li7 O29 1.973852 1_555
Li7 O31 2.002251 1_555
Li8 O24 1.883520 1_555
Li8 O28 1.982719 1_555
Li8 O35 2.039242 1_555
Li8 O30 2.047079 1_555
Mn0 O9 2.045162 1_565
Mn0 O0 2.107929 1_555
Mn0 O25 2.145193 1_565
Mn0 O3 2.215134 1_554
Mn0 O1 2.344728 1_555
Mn1 O7 2.086801 1_555
Mn1 O3 2.115350 1_555
Mn1 O28 2.136276 1_555
Mn1 O2 2.221326 1_555
Mn1 O0 2.287928 1_556
Mn2 O4 1.965095 1_555
Mn2 O6 2.004376 1_555
Mn2 O14 2.007672 1_555
Mn2 O33 2.014065 1_555
Mn2 O5 2.117900 1_555
Mn3 O15 2.007013 1_555
Mn3 O20 2.117184 1_565
Mn3 O34 2.180946 1_565
Mn3 O10 2.245529 1_555
Mn3 O12 2.294986 1_555
Mn4 O4 2.105645 1_555
Mn4 O13 2.125273 1_655
Mn4 O18 2.137006 1_655
Mn4 O14 2.173669 1_555
Mn4 O8 2.183803 1_555
Mn5 O16 1.952275 1_555
Mn5 O17 1.994465 1_555
Mn5 O27 1.995027 1_655
Mn5 O19 2.006744 1_554
Mn5 O11 2.183459 1_555
Mn6 O24 2.051709 1_555
Mn6 O8 2.153844 1_455
Mn6 O19 2.161568 1_455
Mn6 O16 2.241044 1_456
Mn6 O18 2.284246 1_555
Mn7 O1 1.977476 1_545
Mn7 O25 1.995778 1_555
Mn7 O20 2.018299 1_555
Mn7 O12 2.052923 1_545
Mn7 O22 2.106417 1_555
Mn8 O21 2.030902 1_455
Mn8 O31 2.088356 1_555
Mn8 O17 2.217605 1_455
Mn8 O23 2.222820 1_555
Mn8 O27 2.280444 1_555
Mn9 O30 2.070019 1_555
Mn9 O2 2.084258 1_555
Mn9 O23 2.107372 1_555
Mn9 O31 2.193862 1_555
Mn9 O28 2.355283 1_555
Mn10 O29 2.035859 1_555
Mn10 O32 2.067789 1_555
Mn10 O35 2.195988 1_554
Mn10 O6 2.225455 1_555
Mn10 O33 2.399547 1_555
Mn11 O26 2.109545 1_545
Mn11 O35 2.133252 1_555
Mn11 O10 2.134011 1_545
Mn11 O34 2.182248 1_555
Mn11 O32 2.265891 1_556
B0 O13 1.366951 1_565
B0 O2 1.381592 1_555
B0 O20 1.434787 1_565
B1 O5 1.355570 1_555
B1 O31 1.405944 1_555
B1 O1 1.408366 1_555
B2 O7 1.375336 1_555
B2 O8 1.400237 1_555
B2 O35 1.403999 1_555
B3 O9 1.350364 1_655
B3 O16 1.395725 1_555
B3 O6 1.417543 1_555
B4 O11 1.368798 1_555
B4 O32 1.390540 1_565
B4 O25 1.429094 1_565
B5 O22 1.369074 1_555
B5 O14 1.379835 1_455
B5 O17 1.420963 1_455
B6 O15 1.364419 1_555
B6 O23 1.397835 1_655
B6 O18 1.408042 1_655
B7 O24 1.361068 1_555
B7 O3 1.401591 1_545
B7 O10 1.402811 1_545
B8 O26 1.374252 1_455
B8 O28 1.384365 1_555
B8 O19 1.432875 1_455
B9 O29 1.359289 1_555
B9 O0 1.378395 1_555
B9 O27 1.434476 1_555
B10 O21 1.357333 1_545
B10 O12 1.405263 1_545
B10 O33 1.412918 1_555
B11 O30 1.369446 1_555
B11 O34 1.392827 1_555
B11 O4 1.406180 1_555
