# generated using pymatgen
data_Li4Mn8O9F7
_symmetry_space_group_name_H-M   'P 1'
_cell_length_a   5.84151400
_cell_length_b   6.22150445
_cell_length_c   10.93902017
_cell_angle_alpha   75.12956536
_cell_angle_beta   74.83204611
_cell_angle_gamma   62.49477807
_symmetry_Int_Tables_number   1
_chemical_formula_structural   Li4Mn8O9F7
_chemical_formula_sum   'Li4 Mn8 O9 F7'
_cell_volume   336.02706977
_cell_formula_units_Z   1
loop_
 _symmetry_equiv_pos_site_id
 _symmetry_equiv_pos_as_xyz
  1  'x, y, z'
loop_
 _atom_site_type_symbol
 _atom_site_label
 _atom_site_symmetry_multiplicity
 _atom_site_fract_x
 _atom_site_fract_y
 _atom_site_fract_z
 _atom_site_occupancy
  Li  Li0  1  0.69993300  0.64076000  0.44915800  1
  Li  Li1  1  0.82042200  0.84515000  0.05608000  1
  Li  Li2  1  0.20148700  0.13551200  0.95157000  1
  Li  Li3  1  0.29320400  0.36492700  0.55000200  1
  Mn  Mn0  1  0.48675000  0.50917200  0.00244900  1
  Mn  Mn1  1  0.24011400  0.27094200  0.24241800  1
  Mn  Mn2  1  0.74864700  0.24833000  0.75254700  1
  Mn  Mn3  1  0.24673800  0.74833100  0.24579000  1
  Mn  Mn4  1  0.99834400  0.00193600  0.49912400  1
  Mn  Mn5  1  0.25113800  0.74819600  0.74878700  1
  Mn  Mn6  1  0.75121300  0.74769500  0.74940100  1
  Mn  Mn7  1  0.74721800  0.25312700  0.24909400  1
  O  O0  1  0.14153100  0.64445900  0.13304400  1
  O  O1  1  0.90852900  0.32550500  0.36036100  1
  O  O2  1  0.61191400  0.61612000  0.65554600  1
  O  O3  1  0.11536000  0.09907600  0.16122800  1
  O  O4  1  0.59081800  0.17421100  0.14024300  1
  O  O5  1  0.40863800  0.82503900  0.85970900  1
  O  O6  1  0.38106300  0.40593100  0.33958000  1
  O  O7  1  0.09238500  0.67613600  0.63585300  1
  O  O8  1  0.89171600  0.87886300  0.84224900  1
  F  F0  1  0.61521900  0.14408600  0.61698900  1
  F  F1  1  0.12313000  0.14455000  0.61710600  1
  F  F2  1  0.64236100  0.63301900  0.12246300  1
  F  F3  1  0.86506800  0.86508600  0.38174100  1
  F  F4  1  0.37357000  0.35483600  0.88083300  1
  F  F5  1  0.37672100  0.84131300  0.37102800  1
  F  F6  1  0.87677100  0.35769000  0.88560400  1
loop_
_geom_bond_atom_site_label_1
_geom_bond_atom_site_label_2
_geom_bond_distance
_geom_bond_site_symmetry_2
Li0 O1 2.103860 1_555
Li0 O2 2.161643 1_555
Li1 O0 1.977340 1_655
Li1 O4 2.150068 1_565
Li1 O8 2.237839 1_554
Li2 O5 2.099084 1_545
Li2 O3 2.190689 1_556
Li3 O7 2.065375 1_555
Li3 O6 2.197305 1_555
Mn0 O0 2.087534 1_555
Mn0 O5 2.116084 1_554
Mn0 O4 2.163694 1_555
Mn1 O4 1.953611 1_555
Mn1 O1 1.959933 1_455
Mn1 O3 2.002265 1_555
Mn1 O6 2.016853 1_555
Mn1 O0 2.204711 1_555
Mn2 O8 2.107629 1_545
Mn2 O2 2.123427 1_555
Mn3 O0 1.867885 1_555
Mn3 O6 1.990433 1_555
Mn3 O3 1.998766 1_565
Mn4 O7 2.119630 1_645
Mn4 O1 2.122426 1_555
Mn5 O5 1.958448 1_555
Mn5 O8 1.959874 1_455
Mn5 O7 1.963408 1_555
Mn5 O2 1.965397 1_555
Mn6 O5 1.958872 1_555
Mn6 O8 1.962515 1_555
Mn6 O2 1.967259 1_555
Mn6 O7 1.970230 1_655
Mn7 O4 1.943509 1_555
Mn7 O1 1.961015 1_555
Mn7 O3 1.988597 1_655
Mn7 O6 1.988807 1_555
F0 Li3 1.944338 1_555
F0 Mn4 2.168030 1_555
F0 Mn2 2.189150 1_555
F0 Mn6 2.402109 1_545
F1 Li3 1.940532 1_555
F1 Mn4 2.159104 1_455
F1 Mn2 2.210820 1_455
F1 Mn5 2.398369 1_545
F2 Li1 1.931793 1_555
F2 Mn0 2.221293 1_555
F2 Mn3 2.238175 1_555
F2 Mn7 2.303596 1_555
F3 Li0 1.940408 1_555
F3 Mn4 2.162483 1_565
F3 Mn3 2.243573 1_655
F3 Mn7 2.365877 1_565
F4 Li2 1.946567 1_555
F4 Mn2 2.176291 1_555
F4 Mn0 2.198010 1_556
F4 Mn5 2.386779 1_555
F5 Li0 1.993277 1_555
F5 Mn3 2.035894 1_555
F5 Mn4 2.214800 1_465
F5 Mn1 2.539268 1_565
F6 Li2 1.952409 1_655
F6 Mn2 2.165711 1_555
F6 Mn0 2.196308 1_556
F6 Mn6 2.391199 1_555
