# generated using pymatgen
data_Ti3FeCu2(PO4)6
_symmetry_space_group_name_H-M   'P 1'
_cell_length_a   8.61701406
_cell_length_b   8.61701406
_cell_length_c   8.61701392
_cell_angle_alpha   60.08534781
_cell_angle_beta   60.08534781
_cell_angle_gamma   60.08534867
_symmetry_Int_Tables_number   1
_chemical_formula_structural   Ti3FeCu2(PO4)6
_chemical_formula_sum   'Ti3 Fe1 Cu2 P6 O24'
_cell_volume   453.30918503
_cell_formula_units_Z   1
loop_
 _symmetry_equiv_pos_site_id
 _symmetry_equiv_pos_as_xyz
  1  'x, y, z'
loop_
 _atom_site_type_symbol
 _atom_site_label
 _atom_site_symmetry_multiplicity
 _atom_site_fract_x
 _atom_site_fract_y
 _atom_site_fract_z
 _atom_site_occupancy
  Ti  Ti0  1  0.14281700  0.14281700  0.14281700  1
  Ti  Ti1  1  0.35666800  0.35666800  0.35666800  1
  Ti  Ti2  1  0.64354500  0.64354500  0.64354500  1
  Fe  Fe0  1  0.85633000  0.85633000  0.85633000  1
  Cu  Cu0  1  0.99812500  0.99812500  0.99812500  1
  Cu  Cu1  1  0.49968000  0.49968000  0.49968000  1
  P  P0  1  0.54312200  0.24916700  0.95820500  1
  P  P1  1  0.95820500  0.54312200  0.24916700  1
  P  P2  1  0.24916700  0.95820500  0.54312200  1
  P  P3  1  0.75121500  0.04202900  0.45849100  1
  P  P4  1  0.04202900  0.45849100  0.75121500  1
  P  P5  1  0.45849100  0.75121500  0.04203000  1
  O  O0  1  0.31220300  0.12082300  0.49499400  1
  O  O1  1  0.49499400  0.31220300  0.12082300  1
  O  O2  1  0.91532600  0.05734000  0.26428000  1
  O  O3  1  0.12082300  0.49499400  0.31220300  1
  O  O4  1  0.80765700  0.00725300  0.61671200  1
  O  O5  1  0.58446500  0.23400600  0.43748200  1
  O  O6  1  0.05734000  0.26428000  0.91532600  1
  O  O7  1  0.23400600  0.43748200  0.58446500  1
  O  O8  1  0.37801800  0.19132600  0.00174900  1
  O  O9  1  0.43748200  0.58446500  0.23400600  1
  O  O10  1  0.73415100  0.08667200  0.94583300  1
  O  O11  1  0.00174900  0.37801800  0.19132600  1
  O  O12  1  0.00725300  0.61671200  0.80765700  1
  O  O13  1  0.26428000  0.91532600  0.05734000  1
  O  O14  1  0.55559900  0.41650000  0.76665200  1
  O  O15  1  0.61671200  0.80765700  0.00725300  1
  O  O16  1  0.76665200  0.55559900  0.41650000  1
  O  O17  1  0.94583300  0.73415100  0.08667200  1
  O  O18  1  0.41650000  0.76665200  0.55559900  1
  O  O19  1  0.19132600  0.00174900  0.37801800  1
  O  O20  1  0.87703600  0.50180900  0.69271700  1
  O  O21  1  0.08667200  0.94583300  0.73415100  1
  O  O22  1  0.50180900  0.69271700  0.87703600  1
  O  O23  1  0.69271700  0.87703600  0.50180900  1
loop_
_geom_bond_atom_site_label_1
_geom_bond_atom_site_label_2
_geom_bond_distance
_geom_bond_site_symmetry_2
Fe0 O4 1.942157 1_565
Fe0 O15 1.942157 1_556
Fe0 O12 1.942157 1_655
Fe0 O17 2.067752 1_556
Fe0 O21 2.067752 1_655
Fe0 O10 2.067752 1_565
Cu0 O21 2.215315 1_655
Cu0 O17 2.215315 1_556
Cu0 O10 2.215315 1_565
Cu0 O2 2.280653 1_566
Cu0 O6 2.280653 1_665
Cu0 O13 2.280653 1_656
Cu1 O14 2.270406 1_555
Cu1 O16 2.270406 1_555
Cu1 O18 2.270406 1_555
Cu1 O9 2.286265 1_555
Cu1 O7 2.286265 1_555
Cu1 O5 2.286265 1_555
O0 P2 1.544503 1_545
O0 Ti1 1.898087 1_555
O1 P0 1.544503 1_554
O1 Ti1 1.898087 1_555
O2 P3 1.556682 1_555
O2 Ti0 2.026206 1_655
O3 P1 1.544503 1_455
O3 Ti1 1.898088 1_555
O4 P3 1.514497 1_555
O5 P3 1.556891 1_555
O5 Ti1 2.003764 1_555
O6 P4 1.556682 1_555
O6 Ti0 2.026206 1_556
O7 P4 1.556891 1_555
O7 Ti1 2.003764 1_555
O8 P0 1.549704 1_554
O8 Ti0 1.908112 1_555
O9 P5 1.556886 1_555
O9 Ti1 2.003764 1_555
O10 P0 1.535099 1_555
O11 P1 1.549704 1_455
O11 Ti0 1.908112 1_555
O12 P4 1.514497 1_555
O13 P5 1.556682 1_555
O13 Ti0 2.026206 1_565
O14 P0 1.555287 1_555
O14 Ti2 2.033285 1_555
O15 P5 1.514493 1_555
O16 P1 1.555287 1_555
O16 Ti2 2.033285 1_555
O17 P1 1.535099 1_555
O18 P2 1.555287 1_555
O18 Ti2 2.033285 1_555
O19 P2 1.549704 1_545
O19 Ti0 1.908112 1_555
O20 P4 1.553259 1_655
O20 Ti2 1.898023 1_555
O21 P2 1.535099 1_555
O22 P5 1.553267 1_556
O22 Ti2 1.898023 1_555
O23 P3 1.553259 1_565
O23 Ti2 1.898023 1_555
