# generated using pymatgen
data_Os4C12SO12
_symmetry_space_group_name_H-M   'P 1'
_cell_length_a   17.25247900
_cell_length_b   7.39192000
_cell_length_c   8.24733649
_cell_angle_alpha   75.17962160
_cell_angle_beta   90.00000000
_cell_angle_gamma   90.00000000
_symmetry_Int_Tables_number   1
_chemical_formula_structural   Os4C12SO12
_chemical_formula_sum   'Os8 C24 S2 O24'
_cell_volume   1016.78419413
_cell_formula_units_Z   2
loop_
 _symmetry_equiv_pos_site_id
 _symmetry_equiv_pos_as_xyz
  1  'x, y, z'
loop_
 _atom_site_type_symbol
 _atom_site_label
 _atom_site_symmetry_multiplicity
 _atom_site_fract_x
 _atom_site_fract_y
 _atom_site_fract_z
 _atom_site_occupancy
  Os  Os0  1  0.63352400  0.32313600  0.82985600  1
  Os  Os1  1  0.13352400  0.67686400  0.17014400  1
  Os  Os2  1  0.36647600  0.67686400  0.17014400  1
  Os  Os3  1  0.86647600  0.32313600  0.82985600  1
  Os  Os4  1  0.75000000  0.06443500  0.78261000  1
  Os  Os5  1  0.25000000  0.93556500  0.21739000  1
  Os  Os6  1  0.75000000  0.42771100  0.54169200  1
  Os  Os7  1  0.25000000  0.57228900  0.45830800  1
  C  C0  1  0.58750800  0.14435700  0.00868600  1
  C  C1  1  0.08750800  0.85564300  0.99131400  1
  C  C2  1  0.41249200  0.85564300  0.99131400  1
  C  C3  1  0.91249200  0.14435700  0.00868600  1
  C  C4  1  0.59396200  0.53105800  0.90000400  1
  C  C5  1  0.09396200  0.46894200  0.09999600  1
  C  C6  1  0.40603800  0.46894200  0.09999600  1
  C  C7  1  0.90603800  0.53105800  0.90000400  1
  C  C8  1  0.54720200  0.31469800  0.68315300  1
  C  C9  1  0.04720200  0.68530200  0.31684700  1
  C  C10  1  0.45279800  0.68530200  0.31684700  1
  C  C11  1  0.95279800  0.31469800  0.68315300  1
  C  C12  1  0.75000000  0.83662900  0.95593100  1
  C  C13  1  0.25000000  0.16337100  0.04406900  1
  C  C14  1  0.83403100  0.98851300  0.66442400  1
  C  C15  1  0.33403100  0.01148700  0.33557600  1
  C  C16  1  0.16596900  0.01148700  0.33557600  1
  C  C17  1  0.66596900  0.98851300  0.66442400  1
  C  C18  1  0.82881000  0.37779100  0.40207700  1
  C  C19  1  0.32881000  0.62220900  0.59792300  1
  C  C20  1  0.17119000  0.62220900  0.59792300  1
  C  C21  1  0.67119000  0.37779100  0.40207700  1
  C  C22  1  0.75000000  0.69163800  0.43457900  1
  C  C23  1  0.25000000  0.30836200  0.56542100  1
  S  S0  1  0.75000000  0.25225500  0.98761100  1
  S  S1  1  0.25000000  0.74774500  0.01238900  1
  O  O0  1  0.43572700  0.97158000  0.87929100  1
  O  O1  1  0.93572700  0.02842000  0.12070900  1
  O  O2  1  0.56427300  0.02842000  0.12070900  1
  O  O3  1  0.06427300  0.97158000  0.87929100  1
  O  O4  1  0.56969200  0.65226600  0.95179800  1
  O  O5  1  0.06969200  0.34773400  0.04820200  1
  O  O6  1  0.43030800  0.34773400  0.04820200  1
  O  O7  1  0.93030800  0.65226600  0.95179800  1
  O  O8  1  0.49315500  0.30097300  0.60361800  1
  O  O9  1  0.99315500  0.69902700  0.39638200  1
  O  O10  1  0.50684500  0.69902700  0.39638200  1
  O  O11  1  0.00684500  0.30097300  0.60361800  1
  O  O12  1  0.75000000  0.69288300  0.05590500  1
  O  O13  1  0.25000000  0.30711700  0.94409500  1
  O  O14  1  0.88351000  0.93581200  0.59184300  1
  O  O15  1  0.38351000  0.06418800  0.40815700  1
  O  O16  1  0.11649000  0.06418800  0.40815700  1
  O  O17  1  0.61649000  0.93581200  0.59184300  1
  O  O18  1  0.87567000  0.34465100  0.31189800  1
  O  O19  1  0.37567000  0.65534900  0.68810200  1
  O  O20  1  0.12433000  0.65534900  0.68810200  1
  O  O21  1  0.62433000  0.34465100  0.31189800  1
  O  O22  1  0.75000000  0.84890100  0.36209200  1
  O  O23  1  0.25000000  0.15109900  0.63790800  1
loop_
_geom_bond_atom_site_label_1
_geom_bond_atom_site_label_2
_geom_bond_distance
_geom_bond_site_symmetry_2
Os0 S0 2.378366 1_555
Os1 S1 2.378366 1_555
Os2 S1 2.378366 1_555
Os3 S0 2.378366 1_555
Os4 S0 2.446805 1_555
Os5 S1 2.446805 1_555
C0 O2 1.159161 1_555
C0 Os0 1.885422 1_554
C1 O3 1.159161 1_555
C1 Os1 1.885422 1_556
C2 O0 1.159161 1_555
C2 Os2 1.885422 1_556
C3 O1 1.159161 1_555
C3 Os3 1.885422 1_554
C4 O4 1.164615 1_555
C4 Os0 1.902010 1_555
C5 O5 1.164615 1_555
C5 Os1 1.902010 1_555
C6 O6 1.164615 1_555
C6 Os2 1.902010 1_555
C7 O7 1.164615 1_555
C7 Os3 1.902010 1_555
C8 O8 1.159338 1_555
C8 Os0 1.929844 1_555
C9 O9 1.159338 1_455
C9 Os1 1.929844 1_555
C10 O10 1.159338 1_555
C10 Os2 1.929844 1_555
C11 O11 1.159338 1_655
C11 Os3 1.929844 1_555
C12 O12 1.166477 1_556
C12 Os4 1.909839 1_565
C13 O13 1.166477 1_554
C13 Os5 1.909839 1_545
C14 O14 1.165362 1_555
C14 Os4 1.909616 1_565
C15 O15 1.165362 1_555
C15 Os5 1.909616 1_545
C16 O16 1.165362 1_555
C16 Os5 1.909616 1_545
C17 O17 1.165362 1_555
C17 Os4 1.909616 1_565
C18 O18 1.166170 1_555
C18 Os6 1.878315 1_555
C19 O19 1.166170 1_555
C19 Os7 1.878315 1_555
C20 O20 1.166170 1_555
C20 Os7 1.878315 1_555
C21 O21 1.166170 1_555
C21 Os6 1.878315 1_555
C22 O22 1.163279 1_555
C22 Os6 1.924793 1_555
C23 O23 1.163279 1_555
C23 Os7 1.924793 1_555
