# generated using pymatgen
data_Fe3(OF)2
_symmetry_space_group_name_H-M   'P 1'
_cell_length_a   6.44475400
_cell_length_b   6.39906700
_cell_length_c   8.59487683
_cell_angle_alpha   89.91335844
_cell_angle_beta   90.00000000
_cell_angle_gamma   90.00000000
_symmetry_Int_Tables_number   1
_chemical_formula_structural   Fe3(OF)2
_chemical_formula_sum   'Fe12 O8 F8'
_cell_volume   354.45586170
_cell_formula_units_Z   4
loop_
 _symmetry_equiv_pos_site_id
 _symmetry_equiv_pos_as_xyz
  1  'x, y, z'
loop_
 _atom_site_type_symbol
 _atom_site_label
 _atom_site_symmetry_multiplicity
 _atom_site_fract_x
 _atom_site_fract_y
 _atom_site_fract_z
 _atom_site_occupancy
  Fe  Fe0  1  0.75214800  0.74992700  0.81906100  1
  Fe  Fe1  1  0.24785200  0.74992700  0.81906100  1
  Fe  Fe2  1  0.00000000  0.24977400  0.77942800  1
  Fe  Fe3  1  0.50000000  0.24987800  0.76959400  1
  Fe  Fe4  1  0.75256800  0.00005700  0.49991700  1
  Fe  Fe5  1  0.75248200  0.49984100  0.49969800  1
  Fe  Fe6  1  0.24743200  0.00005700  0.49991700  1
  Fe  Fe7  1  0.24751800  0.49984100  0.49969800  1
  Fe  Fe8  1  0.50000000  0.75008700  0.22101100  1
  Fe  Fe9  1  0.00000000  0.75007600  0.22110200  1
  Fe  Fe10  1  0.25440500  0.25129700  0.18072500  1
  Fe  Fe11  1  0.74559500  0.25129700  0.18072500  1
  O  O0  1  0.25120000  0.46799600  0.73020600  1
  O  O1  1  0.25581800  0.03375000  0.72989300  1
  O  O2  1  0.74418200  0.03375000  0.72989300  1
  O  O3  1  0.74880000  0.46799600  0.73020600  1
  O  O4  1  0.75427400  0.96625700  0.27116200  1
  O  O5  1  0.24572600  0.96625700  0.27116200  1
  O  O6  1  0.75223200  0.53231900  0.27077600  1
  O  O7  1  0.24776800  0.53231900  0.27077600  1
  F  F0  1  0.50000000  0.74424900  0.98173500  1
  F  F1  1  0.00000000  0.75563300  0.98101700  1
  F  F2  1  0.00000000  0.74983600  0.51285200  1
  F  F3  1  0.50000000  0.75003000  0.51176500  1
  F  F4  1  0.50000000  0.25013200  0.48625900  1
  F  F5  1  0.00000000  0.24993200  0.49208300  1
  F  F6  1  0.50000000  0.24406700  0.02188600  1
  F  F7  1  0.00000000  0.25673500  0.01837200  1
loop_
_geom_bond_atom_site_label_1
_geom_bond_atom_site_label_2
_geom_bond_distance
_geom_bond_site_symmetry_2
Fe0 O3 1.960262 1_555
Fe0 O2 1.970880 1_565
Fe1 O0 1.960262 1_555
Fe1 O1 1.970880 1_565
Fe2 O3 2.179009 1_455
Fe2 O0 2.179009 1_555
Fe2 O2 2.193649 1_455
Fe2 O1 2.193649 1_555
Fe3 O2 2.122995 1_555
Fe3 O1 2.122995 1_555
Fe3 O3 2.152293 1_555
Fe3 O0 2.152293 1_555
Fe4 O4 1.978338 1_545
Fe4 O2 1.989398 1_555
Fe5 O6 1.978190 1_555
Fe5 O3 1.991475 1_555
Fe6 O5 1.978338 1_545
Fe6 O1 1.989398 1_555
Fe7 O7 1.978190 1_555
Fe7 O0 1.991475 1_555
Fe8 O7 2.183005 1_555
Fe8 O6 2.183005 1_555
Fe8 O5 2.187814 1_555
Fe8 O4 2.187814 1_555
Fe9 O5 2.146748 1_555
Fe9 O4 2.146748 1_455
Fe9 O7 2.161468 1_555
Fe9 O6 2.161468 1_455
Fe10 O7 1.959307 1_555
Fe10 O5 1.982415 1_545
Fe11 O6 1.959307 1_555
Fe11 O4 1.982415 1_545
F0 Fe8 2.056944 1_556
F0 Fe0 2.144004 1_555
F0 Fe1 2.144004 1_555
F1 Fe9 2.063754 1_556
F1 Fe1 2.119113 1_555
F1 Fe0 2.119113 1_455
F2 Fe5 2.262105 1_455
F2 Fe7 2.262105 1_555
F2 Fe6 2.262404 1_565
F2 Fe4 2.262404 1_465
F2 Fe9 2.507553 1_555
F3 Fe4 2.284560 1_565
F3 Fe6 2.284560 1_565
F3 Fe7 2.285194 1_555
F3 Fe5 2.285194 1_555
F3 Fe8 2.498994 1_555
F4 Fe5 2.283622 1_555
F4 Fe7 2.283622 1_555
F4 Fe4 2.285505 1_555
F4 Fe6 2.285505 1_555
F4 Fe3 2.435228 1_555
F5 Fe6 2.259154 1_555
F5 Fe4 2.259154 1_455
F5 Fe7 2.259786 1_555
F5 Fe5 2.259786 1_455
F5 Fe2 2.469694 1_555
F6 Fe11 2.090780 1_555
F6 Fe10 2.090780 1_555
F6 Fe3 2.168681 1_554
F7 Fe2 2.054245 1_554
F7 Fe10 2.153237 1_555
F7 Fe11 2.153237 1_455
