# generated using pymatgen
data_Li7FeO5F
_symmetry_space_group_name_H-M   'P 1'
_cell_length_a   5.45175800
_cell_length_b   5.53134446
_cell_length_c   5.66842215
_cell_angle_alpha   90.54681278
_cell_angle_beta   117.63632779
_cell_angle_gamma   116.23418877
_symmetry_Int_Tables_number   1
_chemical_formula_structural   Li7FeO5F
_chemical_formula_sum   'Li7 Fe1 O5 F1'
_cell_volume   130.78779624
_cell_formula_units_Z   1
loop_
 _symmetry_equiv_pos_site_id
 _symmetry_equiv_pos_as_xyz
  1  'x, y, z'
loop_
 _atom_site_type_symbol
 _atom_site_label
 _atom_site_symmetry_multiplicity
 _atom_site_fract_x
 _atom_site_fract_y
 _atom_site_fract_z
 _atom_site_occupancy
  Li  Li0  1  0.59336600  0.11936300  0.31390300  1
  Li  Li1  1  0.87357400  0.75550500  0.35583100  1
  Li  Li2  1  0.73426700  0.49099100  0.68596200  1
  Li  Li3  1  0.19972700  0.47446200  0.32299400  1
  Li  Li4  1  0.16414000  0.23358700  0.67307000  1
  Li  Li5  1  0.42078700  0.92737200  0.65074300  1
  Li  Li6  1  0.30320900  0.66347200  0.96405200  1
  Fe  Fe0  1  0.94670500  0.95799000  0.97349800  1
  O  O0  1  0.88511600  0.08374000  0.24232800  1
  O  O1  1  0.86292000  0.21703700  0.76829300  1
  O  O2  1  0.49948700  0.62328500  0.75575400  1
  O  O3  1  0.18048600  0.80694400  0.23806000  1
  O  O4  1  0.10339400  0.87864200  0.76109900  1
  F  F0  1  0.51252200  0.42550100  0.27958500  1
loop_
_geom_bond_atom_site_label_1
_geom_bond_atom_site_label_2
_geom_bond_distance
_geom_bond_site_symmetry_2
Li0 O0 1.899343 1_555
Li0 O3 1.971536 1_545
Li0 O1 2.201274 1_555
Li1 O0 1.916530 1_565
Li1 O4 1.963790 1_655
Li1 O3 1.986262 1_655
Li2 O2 1.903311 1_555
Li2 O1 1.911920 1_555
Li2 O4 2.049739 1_655
Li3 O3 1.940510 1_555
Li3 O0 1.948888 1_455
Li3 O2 2.102119 1_555
Li4 O1 1.920112 1_455
Li4 O4 1.952044 1_545
Li4 O2 1.977437 1_555
Li4 O0 2.088909 1_455
Li5 O2 1.946217 1_555
Li5 O1 1.973941 1_565
Li5 O3 1.996953 1_555
Li5 O4 2.013236 1_555
Li6 O4 1.984039 1_555
Li6 O2 1.991466 1_555
Li6 O3 2.213544 1_556
Li6 O1 2.308084 1_455
Fe0 O0 1.891974 1_566
Fe0 O4 1.909812 1_655
Fe0 O1 1.931924 1_565
Fe0 O3 1.939983 1_656
Fe0 O2 2.017279 1_555
F0 Li1 1.847280 1_555
F0 Li0 1.919925 1_555
F0 Li3 1.959125 1_555
F0 Li2 1.977962 1_555
F0 Li6 2.390237 1_554
