# generated using pymatgen
data_Co6O7F5
_symmetry_space_group_name_H-M   'P 1'
_cell_length_a   8.94499100
_cell_length_b   4.53667300
_cell_length_c   4.55432801
_cell_angle_alpha   85.80115766
_cell_angle_beta   90.00000000
_cell_angle_gamma   90.00000000
_symmetry_Int_Tables_number   1
_chemical_formula_structural   Co6O7F5
_chemical_formula_sum   'Co6 O7 F5'
_cell_volume   184.32084753
_cell_formula_units_Z   1
loop_
 _symmetry_equiv_pos_site_id
 _symmetry_equiv_pos_as_xyz
  1  'x, y, z'
loop_
 _atom_site_type_symbol
 _atom_site_label
 _atom_site_symmetry_multiplicity
 _atom_site_fract_x
 _atom_site_fract_y
 _atom_site_fract_z
 _atom_site_occupancy
  Co  Co0  1  0.17368300  0.98415200  0.99194900  1
  Co  Co1  1  0.82631700  0.98415200  0.99194900  1
  Co  Co2  1  0.50000000  0.01014100  0.96225400  1
  Co  Co3  1  0.00000000  0.48656700  0.49583700  1
  Co  Co4  1  0.32858800  0.51404900  0.52570900  1
  Co  Co5  1  0.67141200  0.51404900  0.52570900  1
  O  O0  1  0.33971600  0.81457800  0.80765800  1
  O  O1  1  0.66028400  0.81457800  0.80765800  1
  O  O2  1  0.83470500  0.30075700  0.69749700  1
  O  O3  1  0.16529500  0.30075700  0.69749700  1
  O  O4  1  0.50000000  0.31728100  0.69579100  1
  O  O5  1  0.16549300  0.68653200  0.31058400  1
  O  O6  1  0.83450700  0.68653200  0.31058400  1
  F  F0  1  0.00000000  0.78991500  0.79986100  1
  F  F1  1  0.50000000  0.71361100  0.30096400  1
  F  F2  1  0.00000000  0.17584300  0.18567300  1
  F  F3  1  0.34282400  0.20325300  0.19641300  1
  F  F4  1  0.65717600  0.20325300  0.19641300  1
loop_
_geom_bond_atom_site_label_1
_geom_bond_atom_site_label_2
_geom_bond_distance
_geom_bond_site_symmetry_2
Co0 O3 1.893406 1_565
Co0 O0 1.896457 1_555
Co0 O5 1.909813 1_556
Co0 F2 2.015118 1_566
Co0 F0 2.017018 1_555
Co0 F3 2.068754 1_566
Co1 O2 1.893406 1_565
Co1 O1 1.896457 1_555
Co1 O6 1.909813 1_556
Co1 F2 2.015118 1_666
Co1 F0 2.017018 1_655
Co1 F4 2.068754 1_566
Co2 O4 1.779510 1_555
Co2 O1 1.852011 1_545
Co2 O0 1.852011 1_545
Co2 F1 1.971153 1_546
Co2 F4 2.004567 1_556
Co2 F3 2.004567 1_556
Co3 O5 1.901081 1_555
Co3 O6 1.901081 1_455
Co3 O3 1.904432 1_555
Co3 O2 1.904432 1_455
Co3 F0 2.022405 1_555
Co3 F2 2.067395 1_555
Co4 O3 1.889732 1_555
Co4 O5 1.894278 1_555
Co4 O4 1.909600 1_555
Co4 O0 1.942685 1_555
Co4 F1 2.020539 1_555
Co4 F3 2.136136 1_555
Co5 O2 1.889732 1_555
Co5 O6 1.894278 1_555
Co5 O4 1.909600 1_555
Co5 O1 1.942685 1_555
Co5 F1 2.020539 1_555
Co5 F4 2.136136 1_555
