# generated using pymatgen
data_Li2Ti3MnO8
_symmetry_space_group_name_H-M   'P 1'
_cell_length_a   5.97654419
_cell_length_b   5.97665888
_cell_length_c   10.76712653
_cell_angle_alpha   90.00122515
_cell_angle_beta   106.11156628
_cell_angle_gamma   119.99907158
_symmetry_Int_Tables_number   1
_chemical_formula_structural   Li2Ti3MnO8
_chemical_formula_sum   'Li4 Ti6 Mn2 O16'
_cell_volume   315.51136568
_cell_formula_units_Z   2
loop_
 _symmetry_equiv_pos_site_id
 _symmetry_equiv_pos_as_xyz
  1  'x, y, z'
loop_
 _atom_site_type_symbol
 _atom_site_label
 _atom_site_symmetry_multiplicity
 _atom_site_fract_x
 _atom_site_fract_y
 _atom_site_fract_z
 _atom_site_occupancy
  Li  Li0  1  0.11660900  0.05824800  0.17485200  1
  Li  Li1  1  0.11651000  0.55828300  0.67486200  1
  Li  Li2  1  0.88346700  0.44168700  0.32517300  1
  Li  Li3  1  0.88338200  0.94172200  0.82520400  1
  Ti  Ti0  1  0.50014500  0.00024600  0.49987200  1
  Ti  Ti1  1  0.49988000  0.49979300  0.99983700  1
  Ti  Ti2  1  0.49999300  0.50014900  0.50010700  1
  Ti  Ti3  1  0.50040900  0.00009700  0.00013400  1
  Ti  Ti4  1  0.00015900  0.99984000  0.50006800  1
  Ti  Ti5  1  0.00028700  0.50020200  0.00006300  1
  Mn  Mn0  1  0.50019700  0.75008000  0.25006700  1
  Mn  Mn1  1  0.49991900  0.24995600  0.75001200  1
  O  O0  1  0.26311500  0.13151700  0.39470800  1
  O  O1  1  0.26308000  0.63152000  0.89469000  1
  O  O2  1  0.73676400  0.36835300  0.10527400  1
  O  O3  1  0.73679200  0.86835800  0.60528200  1
  O  O4  1  0.70871700  0.35434000  0.60426500  1
  O  O5  1  0.70878200  0.85445800  0.10423500  1
  O  O6  1  0.24978800  0.89551000  0.60427200  1
  O  O7  1  0.24979600  0.39548800  0.10424800  1
  O  O8  1  0.24978700  0.35440700  0.60423800  1
  O  O9  1  0.24983500  0.85428700  0.10427000  1
  O  O10  1  0.74995600  0.14559500  0.89566400  1
  O  O11  1  0.75017300  0.64561400  0.39575900  1
  O  O12  1  0.75004700  0.60451800  0.89570800  1
  O  O13  1  0.75001400  0.10447000  0.39570600  1
  O  O14  1  0.29114500  0.14564900  0.89572200  1
  O  O15  1  0.29125000  0.64561300  0.39570700  1
loop_
_geom_bond_atom_site_label_1
_geom_bond_atom_site_label_2
_geom_bond_distance
_geom_bond_site_symmetry_2
Li0 O9 2.000973 1_545
Li0 O5 2.001312 1_445
Li0 O7 2.001402 1_555
Li0 O0 2.242384 1_555
Li1 O8 2.001031 1_555
Li1 O4 2.001139 1_455
Li1 O6 2.001265 1_555
Li1 O1 2.242099 1_555
Li2 O13 2.000916 1_555
Li2 O15 2.001062 1_655
Li2 O11 2.001158 1_555
Li2 O2 2.242823 1_555
Li3 O12 2.000700 1_555
Li3 O10 2.000870 1_565
Li3 O14 2.000959 1_665
Li3 O3 2.243057 1_555
Mn0 O13 2.170832 1_565
Mn0 O11 2.171329 1_555
Mn0 O15 2.171526 1_555
Mn0 O5 2.171984 1_555
Mn0 O9 2.172409 1_555
Mn0 O7 2.172624 1_555
Mn1 O10 2.170934 1_555
Mn1 O14 2.171538 1_555
Mn1 O6 2.171621 1_545
Mn1 O12 2.171807 1_555
Mn1 O4 2.171980 1_555
Mn1 O8 2.172330 1_555
O0 Ti0 2.031167 1_555
O0 Ti4 2.031960 1_545
O0 Ti2 2.033556 1_555
O1 Ti5 2.031352 1_556
O1 Ti1 2.032093 1_555
O1 Ti3 2.033492 1_566
O2 Ti3 2.030889 1_555
O2 Ti1 2.032339 1_554
O2 Ti5 2.033212 1_655
O3 Ti2 2.030818 1_555
O3 Ti4 2.032552 1_655
O3 Ti0 2.033161 1_565
O4 Ti0 1.969837 1_555
O4 Ti2 1.970764 1_555
O5 Ti3 1.968292 1_565
O5 Ti1 1.972322 1_554
O6 Ti4 1.968426 1_555
O6 Ti0 1.972606 1_565
O7 Ti5 1.969407 1_555
O7 Ti1 1.971623 1_554
O8 Ti2 1.969771 1_555
O8 Ti4 1.970840 1_545
O9 Ti5 1.968948 1_555
O9 Ti3 1.971370 1_565
O10 Ti3 1.969790 1_556
O10 Ti5 1.972154 1_656
O11 Ti4 1.970092 1_655
O11 Ti2 1.971383 1_555
O12 Ti1 1.969473 1_555
O12 Ti5 1.971722 1_656
O13 Ti0 1.968620 1_555
O13 Ti4 1.972624 1_645
O14 Ti1 1.968823 1_555
O14 Ti3 1.972923 1_556
O15 Ti2 1.970307 1_555
O15 Ti0 1.971192 1_565
