# generated using pymatgen
data_Li8Mn5Fe3(BO3)8
_symmetry_space_group_name_H-M   'P 1'
_cell_length_a   6.07072800
_cell_length_b   9.72061059
_cell_length_c   9.82842440
_cell_angle_alpha   64.90888438
_cell_angle_beta   79.48339920
_cell_angle_gamma   78.03171014
_symmetry_Int_Tables_number   1
_chemical_formula_structural   Li8Mn5Fe3(BO3)8
_chemical_formula_sum   'Li8 Mn5 Fe3 B8 O24'
_cell_volume   510.90184469
_cell_formula_units_Z   1
loop_
 _symmetry_equiv_pos_site_id
 _symmetry_equiv_pos_as_xyz
  1  'x, y, z'
loop_
 _atom_site_type_symbol
 _atom_site_label
 _atom_site_symmetry_multiplicity
 _atom_site_fract_x
 _atom_site_fract_y
 _atom_site_fract_z
 _atom_site_occupancy
  Li  Li0  1  0.04669700  0.46769000  0.81583400  1
  Li  Li1  1  0.04725300  0.96669500  0.31470600  1
  Li  Li2  1  0.45232700  0.03210900  0.18556900  1
  Li  Li3  1  0.54510300  0.46609000  0.31507800  1
  Li  Li4  1  0.45425200  0.53409800  0.68635600  1
  Li  Li5  1  0.54582000  0.96603900  0.81574200  1
  Li  Li6  1  0.95433200  0.03318200  0.68420100  1
  Li  Li7  1  0.95370800  0.53364000  0.18439100  1
  Mn  Mn0  1  0.31325200  0.29221300  0.62468800  1
  Mn  Mn1  1  0.81285700  0.29253100  0.12708600  1
  Mn  Mn2  1  0.68640400  0.20587700  0.87359100  1
  Mn  Mn3  1  0.68582500  0.70709600  0.37269400  1
  Mn  Mn4  1  0.81411000  0.79351700  0.62706200  1
  Fe  Fe0  1  0.18496700  0.20968500  0.37050900  1
  Fe  Fe1  1  0.31239400  0.78863700  0.12746300  1
  Fe  Fe2  1  0.18595300  0.71190600  0.87573500  1
  B  B0  1  0.33415900  0.36834900  0.03817000  1
  B  B1  1  0.16798000  0.13109300  0.96312400  1
  B  B2  1  0.16561600  0.63449400  0.46102600  1
  B  B3  1  0.33402800  0.86721900  0.53939000  1
  B  B4  1  0.66507600  0.13292200  0.46212900  1
  B  B5  1  0.83453900  0.36605000  0.53573900  1
  B  B6  1  0.83549800  0.86672600  0.03609300  1
  B  B7  1  0.66454700  0.63323300  0.96373700  1
  O  O0  1  0.17777900  0.01161600  0.10442000  1
  O  O1  1  0.01526000  0.24422900  0.56251600  1
  O  O2  1  0.01632600  0.74413500  0.06388000  1
  O  O3  1  0.16323900  0.36364100  0.15635900  1
  O  O4  1  0.17894800  0.51778400  0.60277700  1
  O  O5  1  0.51336200  0.24625900  0.06425100  1
  O  O6  1  0.16381100  0.86065500  0.65779200  1
  O  O7  1  0.34070700  0.13547100  0.84753100  1
  O  O8  1  0.33555300  0.63866400  0.34254000  1
  O  O9  1  0.48367000  0.25392000  0.43248800  1
  O  O10  1  0.32099100  0.48717900  0.89744500  1
  O  O11  1  0.32004600  0.98604700  0.39872800  1
  O  O12  1  0.67411300  0.01747700  0.60561700  1
  O  O13  1  0.67438600  0.51650400  0.10622400  1
  O  O14  1  0.51455400  0.74615600  0.56400100  1
  O  O15  1  0.66304700  0.36447900  0.65126300  1
  O  O16  1  0.66274200  0.86515300  0.15124100  1
  O  O17  1  0.84006200  0.13436300  0.34839000  1
  O  O18  1  0.48378400  0.75554900  0.93592800  1
  O  O19  1  0.82464100  0.48334500  0.39340300  1
  O  O20  1  0.83654700  0.63543000  0.84839700  1
  O  O21  1  0.98766900  0.25295700  0.93635400  1
  O  O22  1  0.98468200  0.75517800  0.43469000  1
  O  O23  1  0.82738700  0.98271100  0.89365300  1
loop_
_geom_bond_atom_site_label_1
_geom_bond_atom_site_label_2
_geom_bond_distance
_geom_bond_site_symmetry_2
Li0 O20 1.954341 1_455
Li0 O21 1.986650 1_455
Li0 O4 1.987519 1_555
Li0 O10 2.049222 1_555
Li1 O17 1.950236 1_465
Li1 O22 1.966314 1_455
Li1 O0 1.967333 1_565
Li1 O11 2.054269 1_555
Li2 O16 1.956182 1_545
Li2 O5 1.986421 1_555
Li2 O11 1.993456 1_545
Li2 O0 2.052171 1_555
Li3 O13 1.946277 1_555
Li3 O9 1.966651 1_555
Li3 O8 1.969477 1_555
Li3 O19 2.050606 1_555
Li4 O14 1.969553 1_555
Li4 O15 1.974868 1_555
Li4 O10 1.976001 1_555
Li4 O4 2.052978 1_555
Li5 O7 1.950515 1_565
Li5 O12 1.954536 1_565
Li5 O18 1.957295 1_555
Li5 O23 2.057262 1_555
Li6 O23 1.947688 1_545
Li6 O1 1.961674 1_655
Li6 O6 1.965017 1_645
Li6 O12 2.049640 1_555
Li7 O19 1.947421 1_555
Li7 O3 1.952195 1_655
Li7 O2 1.958795 1_655
Li7 O13 2.048061 1_555
Mn0 O7 2.084204 1_555
Mn0 O4 2.107409 1_555
Mn0 O9 2.121443 1_555
Mn0 O1 2.204253 1_555
Mn0 O15 2.459213 1_555
Mn1 O17 2.076455 1_555
Mn1 O13 2.100942 1_555
Mn1 O21 2.122354 1_554
Mn1 O5 2.207719 1_555
Mn1 O3 2.467160 1_655
Mn2 O15 2.082558 1_555
Mn2 O23 2.099071 1_545
Mn2 O5 2.122102 1_556
Mn2 O21 2.221085 1_555
Mn2 O7 2.424627 1_555
Mn3 O16 2.074461 1_555
Mn3 O19 2.099806 1_555
Mn3 O14 2.118644 1_555
Mn3 O22 2.208643 1_555
Mn3 O8 2.456791 1_555
Mn4 O20 2.073267 1_555
Mn4 O12 2.101201 1_565
Mn4 O22 2.123396 1_555
Mn4 O14 2.214447 1_555
Mn4 O6 2.449460 1_655
Fe0 O3 2.008748 1_555
Fe0 O11 2.075459 1_545
Fe0 O1 2.102295 1_555
Fe0 O9 2.189279 1_555
Fe0 O17 2.429901 1_455
Fe1 O8 2.005827 1_555
Fe1 O0 2.081766 1_565
Fe1 O18 2.095114 1_554
Fe1 O2 2.184003 1_555
Fe1 O16 2.473125 1_555
Fe2 O6 2.023556 1_555
Fe2 O2 2.059223 1_556
Fe2 O10 2.101274 1_555
Fe2 O18 2.172663 1_555
Fe2 O20 2.481035 1_455
B0 O10 1.378665 1_554
B0 O3 1.400961 1_555
B0 O5 1.402142 1_555
B1 O0 1.383663 1_556
B1 O7 1.390927 1_555
B1 O21 1.404879 1_455
B2 O4 1.377380 1_555
B2 O8 1.400291 1_555
B2 O22 1.400548 1_455
B3 O11 1.378590 1_555
B3 O6 1.396955 1_555
B3 O14 1.401747 1_555
B4 O12 1.382627 1_555
B4 O17 1.392016 1_555
B4 O9 1.403690 1_555
B5 O19 1.382077 1_555
B5 O15 1.390556 1_555
B5 O1 1.406217 1_655
B6 O23 1.377293 1_554
B6 O16 1.392704 1_555
B6 O2 1.410882 1_655
B7 O13 1.380937 1_556
B7 O20 1.390121 1_555
B7 O18 1.409020 1_555
