# generated using pymatgen
data_Li2Mn3CrO8
_symmetry_space_group_name_H-M   'P 1'
_cell_length_a   8.30672300
_cell_length_b   8.30672300
_cell_length_c   8.50183100
_cell_angle_alpha   90.00000000
_cell_angle_beta   90.00000000
_cell_angle_gamma   90.00000000
_symmetry_Int_Tables_number   1
_chemical_formula_structural   Li2Mn3CrO8
_chemical_formula_sum   'Li8 Mn12 Cr4 O32'
_cell_volume   586.64034150
_cell_formula_units_Z   4
loop_
 _symmetry_equiv_pos_site_id
 _symmetry_equiv_pos_as_xyz
  1  'x, y, z'
loop_
 _atom_site_type_symbol
 _atom_site_label
 _atom_site_symmetry_multiplicity
 _atom_site_fract_x
 _atom_site_fract_y
 _atom_site_fract_z
 _atom_site_occupancy
  Li  Li0  1  0.25230100  0.50096200  0.62718700  1
  Li  Li1  1  0.49903800  0.74769900  0.87281300  1
  Li  Li2  1  0.00096200  0.24769900  0.87718700  1
  Li  Li3  1  0.24769900  0.00096200  0.12281300  1
  Li  Li4  1  0.74769900  0.49903800  0.12718700  1
  Li  Li5  1  0.50096200  0.25230100  0.37281300  1
  Li  Li6  1  0.99903800  0.75230100  0.37718700  1
  Li  Li7  1  0.75230100  0.99903800  0.62281300  1
  Mn  Mn0  1  0.37688800  0.12309600  0.75278000  1
  Mn  Mn1  1  0.62723200  0.37276800  0.75000000  1
  Mn  Mn2  1  0.87690400  0.62311200  0.74722000  1
  Mn  Mn3  1  0.62309600  0.12311200  0.00278000  1
  Mn  Mn4  1  0.87276800  0.87276800  0.00000000  1
  Mn  Mn5  1  0.12311200  0.62309600  0.99722000  1
  Mn  Mn6  1  0.62311200  0.87690400  0.25278000  1
  Mn  Mn7  1  0.37276800  0.62723200  0.25000000  1
  Mn  Mn8  1  0.12309600  0.37688800  0.24722000  1
  Mn  Mn9  1  0.37690400  0.87688800  0.50278000  1
  Mn  Mn10  1  0.12723200  0.12723200  0.50000000  1
  Mn  Mn11  1  0.87688800  0.37690400  0.49722000  1
  Cr  Cr0  1  0.12646300  0.87353700  0.75000000  1
  Cr  Cr1  1  0.37353700  0.37353700  0.00000000  1
  Cr  Cr2  1  0.87353700  0.12646300  0.25000000  1
  Cr  Cr3  1  0.62646300  0.62646300  0.50000000  1
  O  O0  1  0.37064200  0.89067300  0.73229500  1
  O  O1  1  0.14813700  0.11234800  0.75312200  1
  O  O2  1  0.86572300  0.38671800  0.73011000  1
  O  O3  1  0.39115700  0.35621400  0.76274700  1
  O  O4  1  0.64378600  0.60884300  0.73725300  1
  O  O5  1  0.61328200  0.13427700  0.76989000  1
  O  O6  1  0.88765200  0.85186300  0.74687800  1
  O  O7  1  0.10932700  0.62935800  0.76770500  1
  O  O8  1  0.39067300  0.12935800  0.98229500  1
  O  O9  1  0.61234800  0.35186300  0.00312200  1
  O  O10  1  0.88671800  0.63427700  0.98011000  1
  O  O11  1  0.85621400  0.10884300  0.01274700  1
  O  O12  1  0.10884300  0.85621400  0.98725300  1
  O  O13  1  0.63427700  0.88671800  0.01989000  1
  O  O14  1  0.35186300  0.61234800  0.99687800  1
  O  O15  1  0.12935800  0.39067300  0.01770500  1
  O  O16  1  0.62935800  0.10932700  0.23229500  1
  O  O17  1  0.85186300  0.88765200  0.25312200  1
  O  O18  1  0.13427700  0.61328200  0.23011000  1
  O  O19  1  0.60884300  0.64378600  0.26274700  1
  O  O20  1  0.35621400  0.39115700  0.23725300  1
  O  O21  1  0.38671800  0.86572300  0.26989000  1
  O  O22  1  0.11234800  0.14813700  0.24687800  1
  O  O23  1  0.89067300  0.37064200  0.26770500  1
  O  O24  1  0.60932700  0.87064200  0.48229500  1
  O  O25  1  0.38765200  0.64813700  0.50312200  1
  O  O26  1  0.11328200  0.36572300  0.48011000  1
  O  O27  1  0.14378600  0.89115700  0.51274700  1
  O  O28  1  0.89115700  0.14378600  0.48725300  1
  O  O29  1  0.36572300  0.11328200  0.51989000  1
  O  O30  1  0.64813700  0.38765200  0.49687800  1
  O  O31  1  0.87064200  0.60932700  0.51770500  1
loop_
_geom_bond_atom_site_label_1
_geom_bond_atom_site_label_2
_geom_bond_distance
_geom_bond_site_symmetry_2
Li0 O25 1.967555 1_555
Li0 O7 1.993801 1_555
Li0 O3 2.025936 1_555
Li0 O26 2.039391 1_555
Li1 O14 1.967555 1_555
Li1 O0 1.993801 1_555
Li1 O4 2.025936 1_555
Li1 O13 2.039391 1_556
Li2 O1 1.967555 1_555
Li2 O15 1.993801 1_556
Li2 O11 2.025936 1_456
Li2 O2 2.039391 1_455
Li3 O22 1.967555 1_555
Li3 O8 1.993801 1_554
Li3 O12 2.025936 1_544
Li3 O21 2.039391 1_545
Li4 O9 1.967555 1_555
Li4 O23 1.993801 1_555
Li4 O19 2.025936 1_555
Li4 O10 2.039391 1_554
Li5 O30 1.967555 1_555
Li5 O16 1.993801 1_555
Li5 O20 2.025936 1_555
Li5 O29 2.039391 1_555
Li6 O17 1.967555 1_555
Li6 O31 1.993801 1_555
Li6 O27 2.025936 1_655
Li6 O18 2.039391 1_655
Li7 O6 1.967555 1_555
Li7 O24 1.993801 1_555
Li7 O28 2.025936 1_565
Li7 O5 2.039391 1_565
Mn0 O1 1.902270 1_555
Mn0 O0 1.939207 1_545
Mn0 O3 1.941920 1_555
Mn0 O8 1.955347 1_555
Mn0 O5 1.971229 1_555
Mn0 O29 1.983838 1_555
Mn1 O3 1.968810 1_555
Mn1 O4 1.968810 1_555
Mn1 O2 1.991657 1_555
Mn1 O5 1.991657 1_555
Mn1 O9 2.162533 1_556
Mn1 O30 2.162533 1_555
Mn2 O6 1.902270 1_555
Mn2 O7 1.939207 1_655
Mn2 O4 1.941920 1_555
Mn2 O31 1.955347 1_555
Mn2 O2 1.971229 1_555
Mn2 O10 1.983838 1_555
Mn3 O9 1.902270 1_555
Mn3 O8 1.939207 1_554
Mn3 O11 1.941920 1_555
Mn3 O16 1.955347 1_555
Mn3 O13 1.971229 1_545
Mn3 O5 1.983838 1_554
Mn4 O11 1.968810 1_565
Mn4 O12 1.968810 1_654
Mn4 O10 1.991657 1_554
Mn4 O13 1.991657 1_555
Mn4 O17 2.162533 1_555
Mn4 O6 2.162533 1_554
Mn5 O14 1.902270 1_555
Mn5 O15 1.939207 1_556
Mn5 O12 1.941920 1_555
Mn5 O7 1.955347 1_555
Mn5 O10 1.971229 1_455
Mn5 O18 1.983838 1_556
Mn6 O17 1.902270 1_555
Mn6 O16 1.939207 1_565
Mn6 O19 1.941920 1_555
Mn6 O24 1.955347 1_555
Mn6 O21 1.971229 1_555
Mn6 O13 1.983838 1_555
Mn7 O20 1.968810 1_555
Mn7 O19 1.968810 1_555
Mn7 O21 1.991657 1_555
Mn7 O18 1.991657 1_555
Mn7 O25 2.162533 1_555
Mn7 O14 2.162533 1_554
Mn8 O22 1.902270 1_555
Mn8 O23 1.939207 1_455
Mn8 O20 1.941920 1_555
Mn8 O15 1.955347 1_555
Mn8 O18 1.971229 1_555
Mn8 O26 1.983838 1_555
Mn9 O25 1.902270 1_555
Mn9 O24 1.939207 1_555
Mn9 O27 1.941920 1_555
Mn9 O0 1.955347 1_555
Mn9 O29 1.971229 1_565
Mn9 O21 1.983838 1_555
Mn10 O27 1.968810 1_545
Mn10 O28 1.968810 1_455
Mn10 O29 1.991657 1_555
Mn10 O26 1.991657 1_555
Mn10 O1 2.162533 1_555
Mn10 O22 2.162533 1_555
Mn11 O30 1.902270 1_555
Mn11 O31 1.939207 1_555
Mn11 O28 1.941920 1_555
Mn11 O23 1.955347 1_555
Mn11 O26 1.971229 1_655
Mn11 O2 1.983838 1_555
Cr0 O1 1.992067 1_565
Cr0 O6 1.992067 1_455
Cr0 O12 2.027501 1_555
Cr0 O27 2.027501 1_555
Cr0 O0 2.038880 1_555
Cr0 O7 2.038880 1_555
Cr1 O9 1.992067 1_555
Cr1 O14 1.992067 1_554
Cr1 O20 2.027501 1_555
Cr1 O3 2.027501 1_554
Cr1 O15 2.038880 1_555
Cr1 O8 2.038880 1_554
Cr2 O22 1.992067 1_655
Cr2 O17 1.992067 1_545
Cr2 O28 2.027501 1_555
Cr2 O11 2.027501 1_555
Cr2 O23 2.038880 1_555
Cr2 O16 2.038880 1_555
Cr3 O25 1.992067 1_555
Cr3 O30 1.992067 1_555
Cr3 O4 2.027501 1_555
Cr3 O19 2.027501 1_555
Cr3 O24 2.038880 1_555
Cr3 O31 2.038880 1_555
