# generated using pymatgen
data_Li5Fe3(NiO5)2
_symmetry_space_group_name_H-M   'P 1'
_cell_length_a   5.09453501
_cell_length_b   4.99508626
_cell_length_c   7.73903111
_cell_angle_alpha   110.70173753
_cell_angle_beta   102.85705281
_cell_angle_gamma   98.15612533
_symmetry_Int_Tables_number   1
_chemical_formula_structural   Li5Fe3(NiO5)2
_chemical_formula_sum   'Li5 Fe3 Ni2 O10'
_cell_volume   174.27514694
_cell_formula_units_Z   1
loop_
 _symmetry_equiv_pos_site_id
 _symmetry_equiv_pos_as_xyz
  1  'x, y, z'
loop_
 _atom_site_type_symbol
 _atom_site_label
 _atom_site_symmetry_multiplicity
 _atom_site_fract_x
 _atom_site_fract_y
 _atom_site_fract_z
 _atom_site_occupancy
  Li  Li0  1  0.21786981  0.89760814  0.41300320  1
  Li  Li1  1  0.37783298  0.29030092  0.77014433  1
  Li  Li2  1  0.50000000  0.50000000  0.50000000  1
  Li  Li3  1  0.62216702  0.70969908  0.22985567  1
  Li  Li4  1  0.78213019  0.10239186  0.58699680  1
  Fe  Fe0  1  0.00000000  0.50000000  -0.00000000  1
  Fe  Fe1  1  0.68229288  0.88969966  0.87784987  1
  Fe  Fe2  1  0.31770712  0.11030034  0.12215013  1
  Ni  Ni0  1  0.09639131  0.70052227  0.69151756  1
  Ni  Ni1  1  0.90360869  0.29947773  0.30848244  1
  O  O0  1  0.04704271  0.09060202  0.85147265  1
  O  O1  1  0.32148870  0.70524802  0.92960254  1
  O  O2  1  0.12863222  0.32277590  0.54234046  1
  O  O3  1  0.24767656  0.49664562  0.23283584  1
  O  O4  1  0.45367326  0.90380620  0.65781304  1
  O  O5  1  0.54632674  0.09619380  0.34218696  1
  O  O6  1  0.75232344  0.50335438  0.76716416  1
  O  O7  1  0.87136778  0.67722410  0.45765954  1
  O  O8  1  0.67851130  0.29475198  0.07039746  1
  O  O9  1  0.95295729  0.90939798  0.14852735  1
loop_
_geom_bond_atom_site_label_1
_geom_bond_atom_site_label_2
_geom_bond_distance
_geom_bond_site_symmetry_2
Li0 O4 1.992147 1_555
Li0 O3 2.045654 1_555
Li0 O5 2.099022 1_565
Li0 O7 2.106310 1_455
Li0 O2 2.166203 1_565
Li0 O9 2.211935 1_455
Li1 O4 1.951075 1_545
Li1 O2 2.002683 1_555
Li1 O6 2.057630 1_555
Li1 O1 2.102242 1_555
Li1 O0 2.161043 1_555
Li1 O8 2.473078 1_556
Li2 O4 2.034079 1_555
Li2 O5 2.034079 1_555
Li2 O7 2.115716 1_555
Li2 O2 2.115716 1_555
Li2 O6 2.171223 1_555
Li2 O3 2.171223 1_555
Li3 O5 1.951075 1_565
Li3 O7 2.002683 1_555
Li3 O3 2.057630 1_555
Li3 O8 2.102242 1_555
Li3 O9 2.161043 1_555
Li3 O1 2.473078 1_554
Li4 O5 1.992147 1_555
Li4 O6 2.045654 1_555
Li4 O4 2.099022 1_545
Li4 O2 2.106310 1_655
Li4 O7 2.166203 1_545
Li4 O0 2.211935 1_655
Fe0 O3 1.963369 1_555
Fe0 O6 1.963369 1_454
Fe0 O9 2.039703 1_455
Fe0 O0 2.039703 1_554
Fe0 O8 2.084703 1_455
Fe0 O1 2.084703 1_554
Fe1 O4 1.867281 1_555
Fe1 O6 1.935952 1_555
Fe1 O8 2.051035 1_566
Fe1 O0 2.070335 1_665
Fe1 O1 2.120382 1_555
Fe1 O9 2.197603 1_556
Fe2 O5 1.867281 1_555
Fe2 O3 1.935952 1_555
Fe2 O1 2.051035 1_544
Fe2 O9 2.070335 1_445
Fe2 O8 2.120382 1_555
Fe2 O0 2.197603 1_554
Ni0 O7 1.868993 1_455
Ni0 O2 1.884761 1_555
Ni0 O1 1.931793 1_555
Ni0 O0 1.991071 1_565
Ni0 O4 2.070343 1_555
Ni0 O6 2.181682 1_455
Ni1 O2 1.868993 1_655
Ni1 O7 1.884761 1_555
Ni1 O8 1.931793 1_555
Ni1 O9 1.991071 1_545
Ni1 O5 2.070343 1_555
Ni1 O3 2.181682 1_655
