# generated using pymatgen
data_Na5Li3V8O24
_symmetry_space_group_name_H-M   'P 1'
_cell_length_a   7.03230943
_cell_length_b   7.03230943
_cell_length_c   11.82896017
_cell_angle_alpha   75.68210378
_cell_angle_beta   75.68210378
_cell_angle_gamma   83.09624047
_symmetry_Int_Tables_number   1
_chemical_formula_structural   Na5Li3V8O24
_chemical_formula_sum   'Na5 Li3 V8 O24'
_cell_volume   548.11844034
_cell_formula_units_Z   1
loop_
 _symmetry_equiv_pos_site_id
 _symmetry_equiv_pos_as_xyz
  1  'x, y, z'
loop_
 _atom_site_type_symbol
 _atom_site_label
 _atom_site_symmetry_multiplicity
 _atom_site_fract_x
 _atom_site_fract_y
 _atom_site_fract_z
 _atom_site_occupancy
  Na  Na0  1  0.28727900  0.71272100  0.50000000  1
  Na  Na1  1  0.71173400  0.28929900  0.25125300  1
  Na  Na2  1  0.28990800  0.71009200  0.00000000  1
  Na  Na3  1  0.91677200  0.08322800  0.00000000  1
  Na  Na4  1  0.71070100  0.28826600  0.74874700  1
  Li  Li0  1  0.91255500  0.08744500  0.50000000  1
  Li  Li1  1  0.08836800  0.91136100  0.25167500  1
  Li  Li2  1  0.08863900  0.91163200  0.74832500  1
  V  V0  1  0.80332300  0.61918600  0.49896600  1
  V  V1  1  0.61615500  0.80188700  0.25193500  1
  V  V2  1  0.80280800  0.62201000  0.99830600  1
  V  V3  1  0.61931300  0.80326700  0.74864600  1
  V  V4  1  0.38081400  0.19667700  0.50103400  1
  V  V5  1  0.19673300  0.38068700  0.25135400  1
  V  V6  1  0.37799000  0.19719200  0.00169400  1
  V  V7  1  0.19811300  0.38384500  0.74806500  1
  O  O0  1  0.97642100  0.78648200  0.44928800  1
  O  O1  1  0.78239800  0.97463600  0.20878400  1
  O  O2  1  0.98244000  0.78122400  0.94366300  1
  O  O3  1  0.90406200  0.38938700  0.52577100  1
  O  O4  1  0.64577000  0.64120900  0.39384200  1
  O  O5  1  0.78625300  0.97648900  0.69932300  1
  O  O6  1  0.38633700  0.90271300  0.27831800  1
  O  O7  1  0.64470500  0.65399100  0.14104300  1
  O  O8  1  0.90507000  0.39528900  0.03114300  1
  O  O9  1  0.64767700  0.64291000  0.89170700  1
  O  O10  1  0.35879100  0.35423000  0.60615800  1
  O  O11  1  0.38939000  0.90412900  0.77570600  1
  O  O12  1  0.61061300  0.09593800  0.47422900  1
  O  O13  1  0.64469900  0.64796500  0.64205100  1
  O  O14  1  0.35203500  0.35530100  0.35794900  1
  O  O15  1  0.09587100  0.61061000  0.22429400  1
  O  O16  1  0.35709000  0.35232300  0.10829300  1
  O  O17  1  0.60471100  0.09493000  0.96885700  1
  O  O18  1  0.21351800  0.02357900  0.55071200  1
  O  O19  1  0.34600900  0.35529500  0.85895700  1
  O  O20  1  0.09728700  0.61366300  0.72168200  1
  O  O21  1  0.02351100  0.21374700  0.30067700  1
  O  O22  1  0.21877600  0.01756000  0.05633700  1
  O  O23  1  0.02536400  0.21760200  0.79121600  1
loop_
_geom_bond_atom_site_label_1
_geom_bond_atom_site_label_2
_geom_bond_distance
_geom_bond_site_symmetry_2
Na0 O18 2.372723 1_565
Na0 O0 2.372723 1_455
Na0 O4 2.574314 1_555
Na0 O10 2.574314 1_555
Na0 O6 2.595005 1_555
Na0 O20 2.595005 1_555
Na1 O1 2.357503 1_545
Na1 O21 2.373080 1_655
Na1 O14 2.575897 1_555
Na1 O8 2.591537 1_555
Na1 O12 2.615787 1_555
Na1 O7 2.618912 1_555
Na2 O2 2.378500 1_454
Na2 O22 2.378500 1_565
Na2 O9 2.571698 1_554
Na2 O16 2.571698 1_555
Na2 O11 2.628967 1_554
Na2 O15 2.628967 1_555
Na3 O8 2.302129 1_555
Na3 O17 2.302129 1_554
Na3 O2 2.340907 1_544
Na3 O22 2.340907 1_655
Na3 O1 2.379474 1_545
Na3 O23 2.379474 1_654
Na4 O23 2.357503 1_655
Na4 O5 2.373080 1_545
Na4 O13 2.575897 1_555
Na4 O17 2.591537 1_555
Na4 O3 2.615787 1_555
Na4 O19 2.618912 1_555
Li0 O3 2.210378 1_555
Li0 O12 2.210378 1_555
Li0 O21 2.275469 1_655
Li0 O5 2.275469 1_545
Li0 O0 2.303727 1_545
Li0 O18 2.303727 1_655
Li1 O6 2.186386 1_555
Li1 O15 2.210053 1_555
Li1 O22 2.236271 1_565
Li1 O0 2.257394 1_455
Li1 O1 2.298527 1_455
Li1 O21 2.304694 1_565
Li2 O20 2.186386 1_555
Li2 O11 2.210053 1_555
Li2 O2 2.236271 1_455
Li2 O18 2.257394 1_565
Li2 O23 2.298527 1_565
Li2 O5 2.304694 1_455
O0 V0 1.691073 1_555
O1 V1 1.686017 1_555
O2 V2 1.686819 1_555
O3 V0 1.672233 1_555
O4 V1 1.821011 1_555
O4 V0 1.828336 1_555
O5 V3 1.689972 1_555
O6 V1 1.672297 1_555
O7 V2 1.826678 1_554
O7 V1 1.826741 1_555
O8 V2 1.663211 1_554
O9 V3 1.828719 1_555
O9 V2 1.830822 1_555
O10 V7 1.821011 1_555
O10 V4 1.828336 1_555
O11 V3 1.673467 1_555
O12 V4 1.672233 1_555
O13 V0 1.825192 1_555
O13 V3 1.826858 1_555
O14 V4 1.825192 1_555
O14 V5 1.826858 1_555
O15 V5 1.673467 1_555
O16 V5 1.828719 1_555
O16 V6 1.830822 1_555
O17 V6 1.663211 1_556
O18 V4 1.691073 1_555
O19 V6 1.826678 1_556
O19 V7 1.826741 1_555
O20 V7 1.672297 1_555
O21 V5 1.689972 1_555
O22 V6 1.686819 1_555
O23 V7 1.686017 1_555
