# generated using pymatgen
data_Ti2V3Cr(PO4)6
_symmetry_space_group_name_H-M   'P 1'
_cell_length_a   8.44284859
_cell_length_b   8.44284859
_cell_length_c   8.44284892
_cell_angle_alpha   61.98404630
_cell_angle_beta   61.98404630
_cell_angle_gamma   61.98404787
_symmetry_Int_Tables_number   1
_chemical_formula_structural   Ti2V3Cr(PO4)6
_chemical_formula_sum   'Ti2 V3 Cr1 P6 O24'
_cell_volume   444.43883023
_cell_formula_units_Z   1
loop_
 _symmetry_equiv_pos_site_id
 _symmetry_equiv_pos_as_xyz
  1  'x, y, z'
loop_
 _atom_site_type_symbol
 _atom_site_label
 _atom_site_symmetry_multiplicity
 _atom_site_fract_x
 _atom_site_fract_y
 _atom_site_fract_z
 _atom_site_occupancy
  Ti  Ti0  1  0.00243400  0.00243400  0.00243400  1
  Ti  Ti1  1  0.50066900  0.50066900  0.50066900  1
  V  V0  1  0.35741500  0.35741500  0.35741500  1
  V  V1  1  0.14158600  0.14158600  0.14158600  1
  V  V2  1  0.64107700  0.64107700  0.64107700  1
  Cr  Cr0  1  0.85805700  0.85805700  0.85805700  1
  P  P0  1  0.74887700  0.04377000  0.45847400  1
  P  P1  1  0.04377000  0.45847400  0.74887700  1
  P  P2  1  0.45847400  0.74887700  0.04377000  1
  P  P3  1  0.54561300  0.24760000  0.95526400  1
  P  P4  1  0.95526400  0.54561300  0.24760000  1
  P  P5  1  0.24760000  0.95526400  0.54561300  1
  O  O0  1  0.89223000  0.49622300  0.67678500  1
  O  O1  1  0.49622300  0.67678500  0.89223000  1
  O  O2  1  0.67678500  0.89223000  0.49622300  1
  O  O3  1  0.90168200  0.06074000  0.25290400  1
  O  O4  1  0.82077100  0.00682900  0.61005800  1
  O  O5  1  0.59761900  0.24962500  0.43847700  1
  O  O6  1  0.06074000  0.25290400  0.90168200  1
  O  O7  1  0.24962500  0.43847700  0.59761900  1
  O  O8  1  0.39238900  0.17737100  0.99436400  1
  O  O9  1  0.43847700  0.59761900  0.24962500  1
  O  O10  1  0.75048600  0.09478700  0.93823400  1
  O  O11  1  0.99436400  0.39238900  0.17737100  1
  O  O12  1  0.00682900  0.61005800  0.82077100  1
  O  O13  1  0.25290400  0.90168200  0.06074000  1
  O  O14  1  0.56331700  0.39983700  0.74976100  1
  O  O15  1  0.61005800  0.82077100  0.00682900  1
  O  O16  1  0.74976100  0.56331700  0.39983700  1
  O  O17  1  0.93823400  0.75048600  0.09478700  1
  O  O18  1  0.39983700  0.74976100  0.56331700  1
  O  O19  1  0.17737100  0.99436400  0.39238900  1
  O  O20  1  0.09478700  0.93823400  0.75048600  1
  O  O21  1  0.32111500  0.10643100  0.50714200  1
  O  O22  1  0.50714300  0.32111500  0.10643100  1
  O  O23  1  0.10643100  0.50714300  0.32111500  1
loop_
_geom_bond_atom_site_label_1
_geom_bond_atom_site_label_2
_geom_bond_distance
_geom_bond_site_symmetry_2
Cr0 O15 1.959065 1_556
Cr0 O12 1.959065 1_655
Cr0 O4 1.959065 1_565
Cr0 O20 2.065418 1_655
Cr0 O10 2.065418 1_565
Cr0 O17 2.065418 1_556
O0 P1 1.508394 1_655
O0 V2 1.975054 1_555
O1 P2 1.508394 1_556
O1 V2 1.975054 1_555
O2 P0 1.508394 1_565
O2 V2 1.975054 1_555
O3 P0 1.591775 1_555
O3 Ti0 2.081459 1_655
O3 V1 2.087955 1_655
O4 P0 1.510150 1_555
O5 P0 1.588021 1_555
O5 V0 2.096274 1_555
O5 Ti1 2.109506 1_555
O6 P1 1.591775 1_555
O6 Ti0 2.081459 1_556
O6 V1 2.087955 1_556
O7 P1 1.588021 1_555
O7 V0 2.096274 1_555
O7 Ti1 2.109506 1_555
O8 P3 1.506515 1_555
O8 V1 1.973745 1_556
O9 P2 1.588021 1_555
O9 V0 2.096274 1_555
O9 Ti1 2.109506 1_555
O10 P3 1.587856 1_555
O10 Ti0 2.134139 1_656
O11 P4 1.506515 1_555
O11 V1 1.973745 1_655
O12 P1 1.510150 1_555
O13 P2 1.591775 1_555
O13 Ti0 2.081459 1_565
O13 V1 2.087955 1_565
O14 P3 1.589516 1_555
O14 V2 2.087073 1_555
O14 Ti1 2.089824 1_555
O15 P2 1.510150 1_555
O16 P4 1.589516 1_555
O16 V2 2.087073 1_555
O16 Ti1 2.089824 1_555
O17 P4 1.587856 1_555
O17 Ti0 2.134138 1_665
O18 P5 1.589516 1_555
O18 V2 2.087073 1_555
O18 Ti1 2.089824 1_555
O19 P5 1.506515 1_555
O19 V1 1.973745 1_565
O20 P5 1.587857 1_555
O20 Ti0 2.134139 1_566
O21 P5 1.511616 1_545
O21 V0 1.977840 1_555
O22 P3 1.511619 1_554
O22 V0 1.977840 1_555
O23 P4 1.511619 1_455
O23 V0 1.977840 1_555
