# generated using pymatgen
data_Li3VF6
_symmetry_space_group_name_H-M   'P 1'
_cell_length_a   5.15419492
_cell_length_b   5.15419492
_cell_length_c   9.70422700
_cell_angle_alpha   90.00000000
_cell_angle_beta   90.00000000
_cell_angle_gamma   120.00001178
_symmetry_Int_Tables_number   1
_chemical_formula_structural   Li3VF6
_chemical_formula_sum   'Li6 V2 F12'
_cell_volume   223.26117386
_cell_formula_units_Z   2
loop_
 _symmetry_equiv_pos_site_id
 _symmetry_equiv_pos_as_xyz
  1  'x, y, z'
loop_
 _atom_site_type_symbol
 _atom_site_label
 _atom_site_symmetry_multiplicity
 _atom_site_fract_x
 _atom_site_fract_y
 _atom_site_fract_z
 _atom_site_occupancy
  Li  Li0  1  0.33333300  0.66666700  0.94704600  1
  Li  Li1  1  0.00000000  0.00000000  0.25000000  1
  Li  Li2  1  0.00000000  0.00000000  0.75000000  1
  Li  Li3  1  0.33333300  0.66666700  0.55295400  1
  Li  Li4  1  0.66666700  0.33333300  0.05295400  1
  Li  Li5  1  0.66666700  0.33333300  0.44704600  1
  V  V0  1  0.33333300  0.66666700  0.25000000  1
  V  V1  1  0.66666700  0.33333300  0.75000000  1
  F  F0  1  0.02778600  0.67249400  0.36910600  1
  F  F1  1  0.32750600  0.97221400  0.13089400  1
  F  F2  1  0.02778600  0.35529300  0.13089400  1
  F  F3  1  0.32750600  0.35529300  0.36910600  1
  F  F4  1  0.64470700  0.97221400  0.36910600  1
  F  F5  1  0.35529300  0.32750600  0.86910600  1
  F  F6  1  0.64470700  0.67249400  0.13089400  1
  F  F7  1  0.35529300  0.02778600  0.63089400  1
  F  F8  1  0.67249400  0.64470700  0.63089400  1
  F  F9  1  0.97221400  0.64470700  0.86910600  1
  F  F10  1  0.67249400  0.02778600  0.86910600  1
  F  F11  1  0.97221400  0.32750600  0.63089400  1
loop_
_geom_bond_atom_site_label_1
_geom_bond_atom_site_label_2
_geom_bond_distance
_geom_bond_site_symmetry_2
F0 Li5 1.959227 1_455
F0 V0 1.965781 1_555
F0 Li1 2.108946 1_565
F0 Li3 2.389848 1_555
F1 Li4 1.959227 1_565
F1 V0 1.965781 1_555
F1 Li1 2.108946 1_565
F1 Li0 2.389848 1_554
F2 Li4 1.959223 1_455
F2 V0 1.965781 1_555
F2 Li1 2.108950 1_555
F2 Li0 2.389847 1_554
F3 Li5 1.959233 1_555
F3 V0 1.965781 1_555
F3 Li1 2.108948 1_555
F3 Li3 2.389848 1_555
F4 Li5 1.959223 1_565
F4 V0 1.965781 1_555
F4 Li1 2.108950 1_665
F4 Li3 2.389847 1_555
F5 Li0 1.959233 1_555
F5 V1 1.965781 1_555
F5 Li2 2.108948 1_555
F5 Li4 2.389848 1_556
F6 Li4 1.959233 1_555
F6 V0 1.965781 1_555
F6 Li1 2.108948 1_665
F6 Li0 2.389848 1_554
F7 Li3 1.959223 1_545
F7 V1 1.965781 1_555
F7 Li2 2.108950 1_555
F7 Li5 2.389847 1_555
F8 Li3 1.959233 1_555
F8 V1 1.965781 1_555
F8 Li2 2.108948 1_665
F8 Li5 2.389848 1_555
F9 Li0 1.959223 1_655
F9 V1 1.965781 1_555
F9 Li2 2.108950 1_665
F9 Li4 2.389847 1_556
F10 Li0 1.959227 1_545
F10 V1 1.965781 1_555
F10 Li2 2.108946 1_655
F10 Li4 2.389848 1_556
F11 Li3 1.959227 1_655
F11 V1 1.965781 1_555
F11 Li2 2.108946 1_655
F11 Li5 2.389848 1_555
