# generated using pymatgen
data_Li2TiCo3O8
_symmetry_space_group_name_H-M   'P 1'
_cell_length_a   5.71601926
_cell_length_b   5.71601926
_cell_length_c   9.24316216
_cell_angle_alpha   89.96972567
_cell_angle_beta   89.96972567
_cell_angle_gamma   119.98693503
_symmetry_Int_Tables_number   1
_chemical_formula_structural   Li2TiCo3O8
_chemical_formula_sum   'Li4 Ti2 Co6 O16'
_cell_volume   261.57455075
_cell_formula_units_Z   2
loop_
 _symmetry_equiv_pos_site_id
 _symmetry_equiv_pos_as_xyz
  1  'x, y, z'
loop_
 _atom_site_type_symbol
 _atom_site_label
 _atom_site_symmetry_multiplicity
 _atom_site_fract_x
 _atom_site_fract_y
 _atom_site_fract_z
 _atom_site_occupancy
  Li  Li0  1  0.66869500  0.33423300  0.11185300  1
  Li  Li1  1  0.00039800  0.00136800  0.00240400  1
  Li  Li2  1  0.00136800  0.00039800  0.50240400  1
  Li  Li3  1  0.33423300  0.66869500  0.61185300  1
  Ti  Ti0  1  0.66016900  0.32686000  0.50315400  1
  Ti  Ti1  1  0.32686000  0.66016900  0.00315400  1
  Co  Co0  1  0.82921000  0.65891400  0.78428200  1
  Co  Co1  1  0.34035400  0.17006700  0.78485100  1
  Co  Co2  1  0.82941500  0.16988300  0.78495400  1
  Co  Co3  1  0.16988300  0.82941500  0.28495400  1
  Co  Co4  1  0.65891400  0.82921000  0.28428200  1
  Co  Co5  1  0.17006700  0.34035400  0.28485100  1
  O  O0  1  0.83324100  0.67046300  0.39923700  1
  O  O1  1  0.52160900  0.48303000  0.66477700  1
  O  O2  1  0.66739700  0.33566800  0.88945100  1
  O  O3  1  0.99872500  0.99724900  0.69278100  1
  O  O4  1  0.99724900  0.99872500  0.19278100  1
  O  O5  1  0.33348300  0.16728000  0.40097500  1
  O  O6  1  0.96165200  0.48309700  0.66467800  1
  O  O7  1  0.52035900  0.04004200  0.66332600  1
  O  O8  1  0.16360500  0.83383400  0.89935800  1
  O  O9  1  0.83383400  0.16360500  0.39935800  1
  O  O10  1  0.48309700  0.96165200  0.16467800  1
  O  O11  1  0.04004200  0.52035900  0.16332600  1
  O  O12  1  0.33566800  0.66739700  0.38945100  1
  O  O13  1  0.67046300  0.83324100  0.89923700  1
  O  O14  1  0.48303000  0.52160900  0.16477700  1
  O  O15  1  0.16728000  0.33348300  0.90097500  1
loop_
_geom_bond_atom_site_label_1
_geom_bond_atom_site_label_2
_geom_bond_distance
_geom_bond_site_symmetry_2
Li0 O11 1.899479 1_655
Li0 O10 1.907701 1_545
Li0 O14 1.910220 1_555
Li0 O2 2.055742 1_554
Li1 O4 1.759748 1_445
Li1 O15 1.892019 1_554
Li1 O13 1.892287 1_444
Li1 O8 1.894091 1_544
Li2 O3 1.759748 1_445
Li2 O5 1.892019 1_555
Li2 O0 1.892287 1_445
Li2 O9 1.894091 1_455
Li3 O7 1.899479 1_565
Li3 O6 1.907701 1_455
Li3 O1 1.910220 1_555
Li3 O12 2.055742 1_555
Co0 O2 1.871694 1_555
Co0 O3 1.875772 1_555
Co0 O1 1.886425 1_555
Co0 O6 1.888399 1_555
Co0 O13 1.961947 1_555
Co0 O8 1.969130 1_655
Co1 O2 1.886646 1_555
Co1 O3 1.894127 1_445
Co1 O7 1.907056 1_555
Co1 O1 1.910340 1_555
Co1 O8 1.972426 1_545
Co1 O15 1.981659 1_555
Co2 O2 1.888350 1_555
Co2 O3 1.894943 1_545
Co2 O7 1.904698 1_555
Co2 O6 1.912295 1_555
Co2 O13 1.973145 1_545
Co2 O15 1.988016 1_655
Co3 O12 1.888350 1_555
Co3 O4 1.894943 1_455
Co3 O11 1.904698 1_555
Co3 O10 1.912295 1_555
Co3 O0 1.973145 1_455
Co3 O5 1.988016 1_565
Co4 O12 1.871694 1_555
Co4 O4 1.875772 1_555
Co4 O14 1.886425 1_555
Co4 O10 1.888399 1_555
Co4 O0 1.961947 1_555
Co4 O9 1.969130 1_565
Co5 O12 1.886646 1_555
Co5 O4 1.894127 1_445
Co5 O11 1.907056 1_555
Co5 O14 1.910340 1_555
Co5 O9 1.972426 1_455
Co5 O5 1.981659 1_555
O0 Ti0 1.952823 1_555
O1 Ti0 2.088729 1_555
O5 Ti0 1.873803 1_555
O6 Ti0 2.112351 1_555
O7 Ti0 2.050575 1_555
O8 Ti1 1.924204 1_556
O9 Ti0 1.924204 1_555
O10 Ti1 2.112351 1_555
O11 Ti1 2.050575 1_555
O13 Ti1 1.952823 1_556
O14 Ti1 2.088729 1_555
O15 Ti1 1.873803 1_556
