# generated using pymatgen
data_Li2Mn3CoO8
_symmetry_space_group_name_H-M   'P 1'
_cell_length_a   8.30293900
_cell_length_b   8.30293900
_cell_length_c   8.30293900
_cell_angle_alpha   90.00000000
_cell_angle_beta   90.00000000
_cell_angle_gamma   90.00000000
_symmetry_Int_Tables_number   1
_chemical_formula_structural   Li2Mn3CoO8
_chemical_formula_sum   'Li8 Mn12 Co4 O32'
_cell_volume   572.39461823
_cell_formula_units_Z   4
loop_
 _symmetry_equiv_pos_site_id
 _symmetry_equiv_pos_as_xyz
  1  'x, y, z'
loop_
 _atom_site_type_symbol
 _atom_site_label
 _atom_site_symmetry_multiplicity
 _atom_site_fract_x
 _atom_site_fract_y
 _atom_site_fract_z
 _atom_site_occupancy
  Li  Li0  1  0.12444200  0.87555800  0.37555800  1
  Li  Li1  1  0.25161000  0.75161000  0.74839000  1
  Li  Li2  1  0.24839000  0.24839000  0.24839000  1
  Li  Li3  1  0.37555800  0.12444200  0.87555800  1
  Li  Li4  1  0.62444200  0.62444200  0.62444200  1
  Li  Li5  1  0.75161000  0.74839000  0.25161000  1
  Li  Li6  1  0.74839000  0.25161000  0.75161000  1
  Li  Li7  1  0.87555800  0.37555800  0.12444200  1
  Mn  Mn0  1  0.12419900  0.62301600  0.12199000  1
  Mn  Mn1  1  0.12301600  0.37801000  0.87580100  1
  Mn  Mn2  1  0.12199000  0.12419900  0.62301600  1
  Mn  Mn3  1  0.37801000  0.87580100  0.12301600  1
  Mn  Mn4  1  0.37698400  0.62199000  0.37580100  1
  Mn  Mn5  1  0.37580100  0.37698400  0.62199000  1
  Mn  Mn6  1  0.62419900  0.87698400  0.87801000  1
  Mn  Mn7  1  0.62301600  0.12199000  0.12419900  1
  Mn  Mn8  1  0.62199000  0.37580100  0.37698400  1
  Mn  Mn9  1  0.87801000  0.62419900  0.87698400  1
  Mn  Mn10  1  0.87698400  0.87801000  0.62419900  1
  Mn  Mn11  1  0.87580100  0.12301600  0.37801000  1
  Co  Co0  1  0.99703300  0.50296700  0.49703300  1
  Co  Co1  1  0.50296700  0.49703300  0.99703300  1
  Co  Co2  1  0.49703300  0.99703300  0.50296700  1
  Co  Co3  1  0.00296700  0.00296700  0.00296700  1
  O  O0  1  0.10154100  0.12785400  0.39330400  1
  O  O1  1  0.10669600  0.89845900  0.62785400  1
  O  O2  1  0.11395600  0.61395600  0.88604400  1
  O  O3  1  0.12785400  0.39330400  0.10154100  1
  O  O4  1  0.12159000  0.14733000  0.85972000  1
  O  O5  1  0.13585900  0.36414100  0.63585900  1
  O  O6  1  0.14028000  0.62159000  0.35267000  1
  O  O7  1  0.14733000  0.85972000  0.12159000  1
  O  O8  1  0.35267000  0.14028000  0.62159000  1
  O  O9  1  0.35972000  0.37841000  0.85267000  1
  O  O10  1  0.36414100  0.63585900  0.13585900  1
  O  O11  1  0.37841000  0.85267000  0.35972000  1
  O  O12  1  0.37214600  0.60669600  0.60154100  1
  O  O13  1  0.38604400  0.38604400  0.38604400  1
  O  O14  1  0.39330400  0.10154100  0.12785400  1
  O  O15  1  0.39845900  0.87214600  0.89330400  1
  O  O16  1  0.60154100  0.37214600  0.60669600  1
  O  O17  1  0.60669600  0.60154100  0.37214600  1
  O  O18  1  0.61395600  0.88604400  0.11395600  1
  O  O19  1  0.62785400  0.10669600  0.89845900  1
  O  O20  1  0.62159000  0.35267000  0.14028000  1
  O  O21  1  0.63585900  0.13585900  0.36414100  1
  O  O22  1  0.64028000  0.87841000  0.64733000  1
  O  O23  1  0.64733000  0.64028000  0.87841000  1
  O  O24  1  0.85267000  0.35972000  0.37841000  1
  O  O25  1  0.85972000  0.12159000  0.14733000  1
  O  O26  1  0.86414100  0.86414100  0.86414100  1
  O  O27  1  0.87841000  0.64733000  0.64028000  1
  O  O28  1  0.87214600  0.89330400  0.39845900  1
  O  O29  1  0.88604400  0.11395600  0.61395600  1
  O  O30  1  0.89330400  0.39845900  0.87214600  1
  O  O31  1  0.89845900  0.62785400  0.10669600  1
loop_
_geom_bond_atom_site_label_1
_geom_bond_atom_site_label_2
_geom_bond_distance
_geom_bond_site_symmetry_2
Li0 O1 2.108565 1_555
Li0 O0 2.108565 1_565
Li0 O28 2.108565 1_455
Li0 O6 2.121307 1_555
Li0 O7 2.121307 1_555
Li0 O11 2.121307 1_555
Li1 O2 1.979618 1_555
Li1 O15 1.983927 1_555
Li1 O1 1.983927 1_555
Li1 O12 1.983927 1_555
Li2 O13 1.979618 1_555
Li2 O3 1.983927 1_555
Li2 O14 1.983927 1_555
Li2 O0 1.983927 1_555
Li3 O15 2.108565 1_545
Li3 O19 2.108565 1_555
Li3 O14 2.108565 1_556
Li3 O8 2.121307 1_555
Li3 O4 2.121307 1_555
Li3 O9 2.121307 1_555
Li4 O12 2.108565 1_555
Li4 O17 2.108565 1_555
Li4 O16 2.108565 1_555
Li4 O23 2.121307 1_555
Li4 O27 2.121307 1_555
Li4 O22 2.121307 1_555
Li5 O18 1.979618 1_555
Li5 O28 1.983927 1_555
Li5 O31 1.983927 1_555
Li5 O17 1.983927 1_555
Li6 O29 1.979618 1_555
Li6 O30 1.983927 1_555
Li6 O19 1.983927 1_555
Li6 O16 1.983927 1_555
Li7 O30 2.108565 1_554
Li7 O3 2.108565 1_655
Li7 O31 2.108565 1_555
Li7 O20 2.121307 1_555
Li7 O25 2.121307 1_555
Li7 O24 2.121307 1_555
Mn0 O31 1.879032 1_455
Mn0 O3 1.915067 1_555
Mn0 O6 1.920007 1_555
Mn0 O2 1.962333 1_554
Mn0 O7 1.974703 1_555
Mn0 O10 1.998396 1_555
Mn1 O3 1.879032 1_556
Mn1 O30 1.915067 1_455
Mn1 O4 1.920007 1_555
Mn1 O2 1.962333 1_555
Mn1 O9 1.974703 1_555
Mn1 O5 1.998396 1_555
Mn2 O1 1.879032 1_545
Mn2 O0 1.915067 1_555
Mn2 O8 1.920007 1_555
Mn2 O29 1.962333 1_455
Mn2 O4 1.974703 1_555
Mn2 O5 1.998396 1_555
Mn3 O14 1.879032 1_565
Mn3 O15 1.915067 1_554
Mn3 O7 1.920007 1_555
Mn3 O18 1.962333 1_555
Mn3 O11 1.974703 1_555
Mn3 O10 1.998396 1_555
Mn4 O12 1.879032 1_555
Mn4 O17 1.915067 1_555
Mn4 O11 1.920007 1_555
Mn4 O13 1.962333 1_555
Mn4 O6 1.974703 1_555
Mn4 O10 1.998396 1_555
Mn5 O16 1.879032 1_555
Mn5 O12 1.915067 1_555
Mn5 O9 1.920007 1_555
Mn5 O13 1.962333 1_555
Mn5 O8 1.974703 1_555
Mn5 O5 1.998396 1_555
Mn6 O15 1.879032 1_555
Mn6 O19 1.915067 1_565
Mn6 O22 1.920007 1_555
Mn6 O18 1.962333 1_556
Mn6 O23 1.974703 1_555
Mn6 O26 1.998396 1_555
Mn7 O19 1.879032 1_554
Mn7 O14 1.915067 1_555
Mn7 O20 1.920007 1_555
Mn7 O18 1.962333 1_545
Mn7 O25 1.974703 1_555
Mn7 O21 1.998396 1_555
Mn8 O17 1.879032 1_555
Mn8 O16 1.915067 1_555
Mn8 O24 1.920007 1_555
Mn8 O13 1.962333 1_555
Mn8 O20 1.974703 1_555
Mn8 O21 1.998396 1_555
Mn9 O30 1.879032 1_555
Mn9 O31 1.915067 1_556
Mn9 O23 1.920007 1_555
Mn9 O2 1.962333 1_655
Mn9 O27 1.974703 1_555
Mn9 O26 1.998396 1_555
Mn10 O28 1.879032 1_555
Mn10 O1 1.915067 1_655
Mn10 O27 1.920007 1_555
Mn10 O29 1.962333 1_565
Mn10 O22 1.974703 1_555
Mn10 O26 1.998396 1_555
Mn11 O0 1.879032 1_655
Mn11 O28 1.915067 1_545
Mn11 O25 1.920007 1_555
Mn11 O29 1.962333 1_555
Mn11 O24 1.974703 1_555
Mn11 O21 1.998396 1_555
Co0 O24 1.954840 1_555
Co0 O6 1.954840 1_655
Co0 O27 1.954840 1_555
Co0 O5 1.996472 1_655
Co1 O9 1.954840 1_555
Co1 O20 1.954840 1_556
Co1 O23 1.954840 1_555
Co1 O10 1.996472 1_556
Co2 O11 1.954840 1_555
Co2 O8 1.954840 1_565
Co2 O22 1.954840 1_555
Co2 O21 1.996472 1_565
Co3 O4 1.954840 1_554
Co3 O7 1.954840 1_545
Co3 O25 1.954840 1_455
Co3 O26 1.996472 1_444
