# generated using pymatgen
data_Tb2C3
_symmetry_space_group_name_H-M   'P 1'
_cell_length_a   7.15565282
_cell_length_b   7.15565247
_cell_length_c   7.15565216
_cell_angle_alpha   109.47121978
_cell_angle_beta   109.47121880
_cell_angle_gamma   109.47121925
_symmetry_Int_Tables_number   1
_chemical_formula_structural   Tb2C3
_chemical_formula_sum   'Tb8 C12'
_cell_volume   282.04983708
_cell_formula_units_Z   4
loop_
 _symmetry_equiv_pos_site_id
 _symmetry_equiv_pos_as_xyz
  1  'x, y, z'
loop_
 _atom_site_type_symbol
 _atom_site_label
 _atom_site_symmetry_multiplicity
 _atom_site_fract_x
 _atom_site_fract_y
 _atom_site_fract_z
 _atom_site_occupancy
  Tb  Tb0  1  0.60064511  0.60064511  0.60064511  1
  Tb  Tb1  1  0.39935489  0.50000000  0.00000000  1
  Tb  Tb2  1  0.50000000  -0.00000000  0.39935489  1
  Tb  Tb3  1  0.00000000  0.39935489  0.50000000  1
  Tb  Tb4  1  0.50000000  -0.00000000  0.89935489  1
  Tb  Tb5  1  0.00000000  0.89935489  0.50000000  1
  Tb  Tb6  1  0.89935489  0.50000000  0.00000000  1
  Tb  Tb7  1  0.10064511  0.10064511  0.10064511  1
  C  C0  1  0.75000000  0.79437778  0.04437778  1
  C  C1  1  0.75000000  0.95562222  0.20562222  1
  C  C2  1  0.29437778  0.25000000  0.54437778  1
  C  C3  1  0.54437778  0.29437778  0.25000000  1
  C  C4  1  0.20562222  0.75000000  0.95562222  1
  C  C5  1  0.95562222  0.20562222  0.75000000  1
  C  C6  1  0.25000000  0.70562222  0.45562222  1
  C  C7  1  0.70562222  0.45562222  0.25000000  1
  C  C8  1  0.25000000  0.54437778  0.29437778  1
  C  C9  1  0.45562222  0.25000000  0.70562222  1
  C  C10  1  0.04437778  0.75000000  0.79437778  1
  C  C11  1  0.79437778  0.04437778  0.75000000  1
loop_
_geom_bond_atom_site_label_1
_geom_bond_atom_site_label_2
_geom_bond_distance
_geom_bond_site_symmetry_2
C0 C1 1.332304 1_555
C0 Tb1 2.516530 1_555
C0 Tb7 2.516530 1_665
C0 Tb0 2.638439 1_554
C0 Tb6 2.638440 1_555
C1 Tb4 2.516530 1_564
C1 Tb5 2.516530 1_655
C1 Tb2 2.638440 1_565
C1 Tb3 2.638440 1_665
C2 C9 1.332304 1_555
C2 Tb5 2.516530 1_545
C2 Tb0 2.516530 1_555
C2 Tb7 2.638439 1_555
C2 Tb3 2.638440 1_555
C3 C7 1.332304 1_555
C3 Tb4 2.516530 1_554
C3 Tb0 2.516530 1_555
C3 Tb2 2.638439 1_555
C3 Tb7 2.638440 1_555
C4 Tb4 2.516530 1_565
C4 Tb6 2.516530 1_456
C4 Tb1 2.638440 1_556
C4 Tb2 2.638440 1_566
C5 Tb6 2.516530 1_556
C5 Tb5 2.516530 1_645
C5 Tb3 2.638439 1_655
C5 Tb1 2.638440 1_656
C6 C8 1.332304 1_555
C6 Tb2 2.516530 1_565
C6 Tb3 2.516530 1_555
C6 Tb4 2.638440 1_565
C6 Tb5 2.638440 1_555
C7 Tb3 2.516530 1_655
C7 Tb1 2.516530 1_555
C7 Tb6 2.638439 1_555
C7 Tb5 2.638440 1_655
C8 Tb0 2.516530 1_555
C8 Tb6 2.516530 1_455
C8 Tb1 2.638439 1_555
C8 Tb7 2.638440 1_555
C9 Tb2 2.516530 1_555
C9 Tb1 2.516530 1_556
C9 Tb4 2.638439 1_555
C9 Tb6 2.638440 1_556
C10 C4 1.332304 1_555
C10 Tb3 2.516530 1_555
C10 Tb7 2.516530 1_566
C10 Tb5 2.638439 1_555
C10 Tb0 2.638440 1_455
C11 C5 1.332304 1_555
C11 Tb2 2.516530 1_555
C11 Tb7 2.516530 1_656
C11 Tb4 2.638440 1_555
C11 Tb0 2.638440 1_545
