# generated using pymatgen
data_Li5Fe(SiO4)2
_symmetry_space_group_name_H-M   'P 1'
_cell_length_a   9.81325100
_cell_length_b   9.84877800
_cell_length_c   14.22353800
_cell_angle_alpha   90.00000000
_cell_angle_beta   90.00000000
_cell_angle_gamma   90.00000000
_symmetry_Int_Tables_number   1
_chemical_formula_structural   Li5Fe(SiO4)2
_chemical_formula_sum   'Li40 Fe8 Si16 O64'
_cell_volume   1374.68404703
_cell_formula_units_Z   8
loop_
 _symmetry_equiv_pos_site_id
 _symmetry_equiv_pos_as_xyz
  1  'x, y, z'
loop_
 _atom_site_type_symbol
 _atom_site_label
 _atom_site_symmetry_multiplicity
 _atom_site_fract_x
 _atom_site_fract_y
 _atom_site_fract_z
 _atom_site_occupancy
  Li  Li0  1  0.72370600  0.02461800  0.50698500  1
  Li  Li1  1  0.72370600  0.02461800  0.99301500  1
  Li  Li2  1  0.52233500  0.00482400  0.10946000  1
  Li  Li3  1  0.52233500  0.00482400  0.39054000  1
  Li  Li4  1  0.98087800  0.25746900  0.75000000  1
  Li  Li5  1  0.55918100  0.18921900  0.75000000  1
  Li  Li6  1  0.25150200  0.21790100  0.63508400  1
  Li  Li7  1  0.25150200  0.21790100  0.86491600  1
  Li  Li8  1  0.74707100  0.22882500  0.62007400  1
  Li  Li9  1  0.74707100  0.22882500  0.87992600  1
  Li  Li10  1  0.24707100  0.27117500  0.12007400  1
  Li  Li11  1  0.24707100  0.27117500  0.37992600  1
  Li  Li12  1  0.75150200  0.28209900  0.36491600  1
  Li  Li13  1  0.75150200  0.28209900  0.13508400  1
  Li  Li14  1  0.05918100  0.31078100  0.25000000  1
  Li  Li15  1  0.48087800  0.24253100  0.25000000  1
  Li  Li16  1  0.02233500  0.49517600  0.60946000  1
  Li  Li17  1  0.02233500  0.49517600  0.89054000  1
  Li  Li18  1  0.22370600  0.47538200  0.00698500  1
  Li  Li19  1  0.22370600  0.47538200  0.49301500  1
  Li  Li20  1  0.77629400  0.52461800  0.50698500  1
  Li  Li21  1  0.77629400  0.52461800  0.99301500  1
  Li  Li22  1  0.97766500  0.50482400  0.10946000  1
  Li  Li23  1  0.97766500  0.50482400  0.39054000  1
  Li  Li24  1  0.51912200  0.75746900  0.75000000  1
  Li  Li25  1  0.94081900  0.68921900  0.75000000  1
  Li  Li26  1  0.24849800  0.71790100  0.63508400  1
  Li  Li27  1  0.24849800  0.71790100  0.86491600  1
  Li  Li28  1  0.75292900  0.72882500  0.87992600  1
  Li  Li29  1  0.75292900  0.72882500  0.62007400  1
  Li  Li30  1  0.25292900  0.77117500  0.12007400  1
  Li  Li31  1  0.25292900  0.77117500  0.37992600  1
  Li  Li32  1  0.74849800  0.78209900  0.13508400  1
  Li  Li33  1  0.74849800  0.78209900  0.36491600  1
  Li  Li34  1  0.44081900  0.81078100  0.25000000  1
  Li  Li35  1  0.01912200  0.74253100  0.25000000  1
  Li  Li36  1  0.47766500  0.99517600  0.89054000  1
  Li  Li37  1  0.47766500  0.99517600  0.60946000  1
  Li  Li38  1  0.27629400  0.97538200  0.00698500  1
  Li  Li39  1  0.27629400  0.97538200  0.49301500  1
  Fe  Fe0  1  0.00728800  0.00659200  0.13058800  1
  Fe  Fe1  1  0.00728800  0.00659200  0.36941200  1
  Fe  Fe2  1  0.50728800  0.49340800  0.63058800  1
  Fe  Fe3  1  0.50728800  0.49340800  0.86941200  1
  Fe  Fe4  1  0.49271200  0.50659200  0.13058800  1
  Fe  Fe5  1  0.49271200  0.50659200  0.36941200  1
  Fe  Fe6  1  0.99271200  0.99340800  0.63058800  1
  Fe  Fe7  1  0.99271200  0.99340800  0.86941200  1
  Si  Si0  1  0.72335500  0.01642800  0.25000000  1
  Si  Si1  1  0.27533300  0.02176900  0.25000000  1
  Si  Si2  1  0.99782900  0.25918000  0.00581400  1
  Si  Si3  1  0.99782900  0.25918000  0.49418600  1
  Si  Si4  1  0.49782900  0.24082000  0.50581400  1
  Si  Si5  1  0.49782900  0.24082000  0.99418600  1
  Si  Si6  1  0.77533300  0.47823100  0.75000000  1
  Si  Si7  1  0.22335500  0.48357200  0.75000000  1
  Si  Si8  1  0.77664500  0.51642800  0.25000000  1
  Si  Si9  1  0.22466700  0.52176900  0.25000000  1
  Si  Si10  1  0.50217100  0.75918000  0.00581400  1
  Si  Si11  1  0.50217100  0.75918000  0.49418600  1
  Si  Si12  1  0.00217100  0.74082000  0.99418600  1
  Si  Si13  1  0.00217100  0.74082000  0.50581400  1
  Si  Si14  1  0.72466700  0.97823100  0.75000000  1
  Si  Si15  1  0.27664500  0.98357200  0.75000000  1
  O  O0  1  0.10246600  0.97702100  0.25000000  1
  O  O1  1  0.17662600  0.01193400  0.65547500  1
  O  O2  1  0.17662600  0.01193400  0.84452500  1
  O  O3  1  0.66534500  0.04690400  0.84606900  1
  O  O4  1  0.66534500  0.04690400  0.65393100  1
  O  O5  1  0.38703800  0.10641600  0.75000000  1
  O  O6  1  0.91904100  0.13223900  0.55325400  1
  O  O7  1  0.91904100  0.13223900  0.94674600  1
  O  O8  1  0.38144400  0.13060700  0.53134600  1
  O  O9  1  0.38144400  0.13060700  0.96865400  1
  O  O10  1  0.66091900  0.16790900  0.25000000  1
  O  O11  1  0.62410000  0.17583700  0.05073800  1
  O  O12  1  0.62410000  0.17583700  0.44926200  1
  O  O13  1  0.29138500  0.18737700  0.25000000  1
  O  O14  1  0.05951300  0.18512900  0.10374200  1
  O  O15  1  0.05951300  0.18512900  0.39625800  1
  O  O16  1  0.55951300  0.31487100  0.60374200  1
  O  O17  1  0.55951300  0.31487100  0.89625800  1
  O  O18  1  0.79138500  0.31262300  0.75000000  1
  O  O19  1  0.12410000  0.32416300  0.55073800  1
  O  O20  1  0.12410000  0.32416300  0.94926200  1
  O  O21  1  0.16091900  0.33209100  0.75000000  1
  O  O22  1  0.88144400  0.36939300  0.03134600  1
  O  O23  1  0.88144400  0.36939300  0.46865400  1
  O  O24  1  0.41904100  0.36776100  0.05325400  1
  O  O25  1  0.41904100  0.36776100  0.44674600  1
  O  O26  1  0.88703800  0.39358400  0.25000000  1
  O  O27  1  0.16534500  0.45309600  0.34606900  1
  O  O28  1  0.16534500  0.45309600  0.15393100  1
  O  O29  1  0.67662600  0.48806600  0.34452500  1
  O  O30  1  0.67662600  0.48806600  0.15547500  1
  O  O31  1  0.60246600  0.52297900  0.75000000  1
  O  O32  1  0.39753400  0.47702100  0.25000000  1
  O  O33  1  0.32337400  0.51193400  0.65547500  1
  O  O34  1  0.32337400  0.51193400  0.84452500  1
  O  O35  1  0.83465500  0.54690400  0.65393100  1
  O  O36  1  0.83465500  0.54690400  0.84606900  1
  O  O37  1  0.11296200  0.60641600  0.75000000  1
  O  O38  1  0.58095900  0.63223900  0.94674600  1
  O  O39  1  0.58095900  0.63223900  0.55325400  1
  O  O40  1  0.11855600  0.63060700  0.96865400  1
  O  O41  1  0.11855600  0.63060700  0.53134600  1
  O  O42  1  0.83908100  0.66790900  0.25000000  1
  O  O43  1  0.87590000  0.67583700  0.05073800  1
  O  O44  1  0.87590000  0.67583700  0.44926200  1
  O  O45  1  0.20861500  0.68737700  0.25000000  1
  O  O46  1  0.44048700  0.68512900  0.10374200  1
  O  O47  1  0.44048700  0.68512900  0.39625800  1
  O  O48  1  0.94048700  0.81487100  0.89625800  1
  O  O49  1  0.94048700  0.81487100  0.60374200  1
  O  O50  1  0.70861500  0.81262300  0.75000000  1
  O  O51  1  0.37590000  0.82416300  0.55073800  1
  O  O52  1  0.37590000  0.82416300  0.94926200  1
  O  O53  1  0.33908100  0.83209100  0.75000000  1
  O  O54  1  0.61855600  0.86939300  0.03134600  1
  O  O55  1  0.61855600  0.86939300  0.46865400  1
  O  O56  1  0.08095900  0.86776100  0.05325400  1
  O  O57  1  0.08095900  0.86776100  0.44674600  1
  O  O58  1  0.61296200  0.89358400  0.25000000  1
  O  O59  1  0.33465500  0.95309600  0.15393100  1
  O  O60  1  0.33465500  0.95309600  0.34606900  1
  O  O61  1  0.82337400  0.98806600  0.15547500  1
  O  O62  1  0.82337400  0.98806600  0.34452500  1
  O  O63  1  0.89753400  0.02297900  0.75000000  1
loop_
_geom_bond_atom_site_label_1
_geom_bond_atom_site_label_2
_geom_bond_distance
_geom_bond_site_symmetry_2
Li0 O55 1.923316 1_545
Li0 O12 1.961527 1_555
Li0 O4 2.178224 1_555
Li0 O6 2.287131 1_555
Li0 O62 2.534917 1_545
Li1 O54 1.923316 1_546
Li1 O11 1.961527 1_556
Li1 O3 2.178224 1_555
Li1 O7 2.287131 1_555
Li1 O61 2.534917 1_546
Li2 O54 1.976143 1_545
Li2 O59 2.012882 1_545
Li2 O11 2.128772 1_555
Li2 O58 2.446862 1_545
Li3 O55 1.976143 1_545
Li3 O60 2.012882 1_545
Li3 O12 2.128772 1_555
Li3 O58 2.446862 1_545
Li4 O21 1.913549 1_655
Li4 O18 1.937257 1_555
Li4 O63 2.449986 1_555
Li5 O5 1.875828 1_555
Li5 O3 2.217454 1_555
Li5 O4 2.217454 1_555
Li5 O17 2.420565 1_555
Li5 O16 2.420565 1_555
Li5 O18 2.582539 1_555
Li6 O19 2.024257 1_555
Li6 O8 2.131275 1_555
Li6 O21 2.174073 1_555
Li6 O1 2.176907 1_555
Li6 O5 2.376183 1_555
Li7 O20 2.024257 1_555
Li7 O9 2.131275 1_555
Li7 O21 2.174073 1_555
Li7 O2 2.176907 1_555
Li7 O5 2.376183 1_555
Li8 O4 2.021211 1_555
Li8 O16 2.039551 1_555
Li8 O18 2.070114 1_555
Li8 O6 2.157804 1_555
Li9 O3 2.021211 1_555
Li9 O17 2.039551 1_555
Li9 O18 2.070114 1_555
Li9 O7 2.157804 1_555
Li10 O28 2.021211 1_555
Li10 O14 2.039551 1_555
Li10 O13 2.070114 1_555
Li10 O24 2.157804 1_555
Li11 O27 2.021211 1_555
Li11 O15 2.039551 1_555
Li11 O13 2.070114 1_555
Li11 O25 2.157804 1_555
Li12 O12 2.024257 1_555
Li12 O23 2.131275 1_555
Li12 O10 2.174073 1_555
Li12 O29 2.176907 1_555
Li12 O26 2.376183 1_555
Li13 O11 2.024257 1_555
Li13 O22 2.131275 1_555
Li13 O10 2.174073 1_555
Li13 O30 2.176907 1_555
Li13 O26 2.376183 1_555
Li14 O26 1.875828 1_455
Li14 O27 2.217454 1_555
Li14 O28 2.217454 1_555
Li14 O15 2.420565 1_555
Li14 O14 2.420565 1_555
Li14 O13 2.582539 1_555
Li15 O10 1.913549 1_555
Li15 O13 1.937257 1_555
Li15 O32 2.449986 1_555
Li16 O41 1.976143 1_555
Li16 O35 2.012882 1_455
Li16 O19 2.128772 1_555
Li16 O37 2.446862 1_555
Li17 O40 1.976143 1_555
Li17 O36 2.012882 1_455
Li17 O20 2.128772 1_555
Li17 O37 2.446862 1_555
Li18 O40 1.923316 1_554
Li18 O20 1.961527 1_554
Li18 O28 2.178224 1_555
Li18 O24 2.287131 1_555
Li18 O34 2.534917 1_554
Li19 O41 1.923316 1_555
Li19 O19 1.961527 1_555
Li19 O27 2.178224 1_555
Li19 O25 2.287131 1_555
Li19 O33 2.534917 1_555
Li20 O23 1.923316 1_555
Li20 O44 1.961527 1_555
Li20 O35 2.178224 1_555
Li20 O39 2.287131 1_555
Li20 O29 2.534917 1_555
Li21 O22 1.923316 1_556
Li21 O43 1.961527 1_556
Li21 O36 2.178224 1_555
Li21 O38 2.287131 1_555
Li21 O30 2.534917 1_556
Li22 O22 1.976143 1_555
Li22 O28 2.012882 1_655
Li22 O43 2.128772 1_555
Li22 O26 2.446862 1_555
Li23 O23 1.976143 1_555
Li23 O27 2.012882 1_655
Li23 O44 2.128772 1_555
Li23 O26 2.446862 1_555
Li24 O53 1.913549 1_555
Li24 O50 1.937257 1_555
Li24 O31 2.449986 1_555
Li25 O37 1.875828 1_655
Li25 O36 2.217454 1_555
Li25 O35 2.217454 1_555
Li25 O48 2.420565 1_555
Li25 O49 2.420565 1_555
Li25 O50 2.582539 1_555
Li26 O51 2.024257 1_555
Li26 O41 2.131275 1_555
Li26 O53 2.174073 1_555
Li26 O33 2.176907 1_555
Li26 O37 2.376183 1_555
Li27 O52 2.024257 1_555
Li27 O40 2.131275 1_555
Li27 O53 2.174073 1_555
Li27 O34 2.176907 1_555
Li27 O37 2.376183 1_555
Li28 O36 2.021211 1_555
Li28 O48 2.039551 1_555
Li28 O50 2.070114 1_555
Li28 O38 2.157804 1_555
Li29 O35 2.021211 1_555
Li29 O49 2.039551 1_555
Li29 O50 2.070114 1_555
Li29 O39 2.157804 1_555
Li30 O59 2.021211 1_555
Li30 O46 2.039551 1_555
Li30 O45 2.070114 1_555
Li30 O56 2.157804 1_555
Li31 O60 2.021211 1_555
Li31 O47 2.039551 1_555
Li31 O45 2.070114 1_555
Li31 O57 2.157804 1_555
Li32 O43 2.024257 1_555
Li32 O54 2.131275 1_555
Li32 O42 2.174073 1_555
Li32 O61 2.176907 1_555
Li32 O58 2.376183 1_555
Li33 O44 2.024257 1_555
Li33 O55 2.131275 1_555
Li33 O42 2.174073 1_555
Li33 O62 2.176907 1_555
Li33 O58 2.376183 1_555
Li34 O58 1.875828 1_555
Li34 O60 2.217454 1_555
Li34 O59 2.217454 1_555
Li34 O46 2.420565 1_555
Li34 O47 2.420565 1_555
Li34 O45 2.582539 1_555
Li35 O42 1.913549 1_455
Li35 O45 1.937257 1_555
Li35 O0 2.449986 1_555
Li36 O9 1.976143 1_565
Li36 O3 2.012882 1_565
Li36 O52 2.128772 1_555
Li36 O5 2.446862 1_565
Li37 O8 1.976143 1_565
Li37 O4 2.012882 1_565
Li37 O51 2.128772 1_555
Li37 O5 2.446862 1_565
Li38 O9 1.923316 1_564
Li38 O52 1.961527 1_554
Li38 O59 2.178224 1_555
Li38 O56 2.287131 1_555
Li38 O2 2.534917 1_564
Li39 O8 1.923316 1_565
Li39 O51 1.961527 1_555
Li39 O60 2.178224 1_555
Li39 O57 2.287131 1_555
Li39 O1 2.534917 1_565
Fe0 O61 1.848209 1_445
Fe0 O14 1.870916 1_555
Fe0 O56 1.897928 1_545
Fe0 O0 1.960091 1_545
Fe1 O62 1.848209 1_445
Fe1 O15 1.870916 1_555
Fe1 O57 1.897928 1_545
Fe1 O0 1.960091 1_545
Fe2 O33 1.848209 1_555
Fe2 O16 1.870916 1_555
Fe2 O39 1.897928 1_555
Fe2 O31 1.960091 1_555
Fe3 O34 1.848209 1_555
Fe3 O17 1.870916 1_555
Fe3 O38 1.897928 1_555
Fe3 O31 1.960091 1_555
Fe4 O30 1.848209 1_555
Fe4 O46 1.870916 1_555
Fe4 O24 1.897928 1_555
Fe4 O32 1.960091 1_555
Fe5 O29 1.848209 1_555
Fe5 O47 1.870916 1_555
Fe5 O25 1.897928 1_555
Fe5 O32 1.960091 1_555
Fe6 O1 1.848209 1_665
Fe6 O49 1.870916 1_555
Fe6 O6 1.897928 1_565
Fe6 O63 1.960091 1_565
Fe7 O2 1.848209 1_665
Fe7 O48 1.870916 1_555
Fe7 O7 1.897928 1_565
Fe7 O63 1.960091 1_565
O0 Si1 1.752700 1_565
O1 Si15 1.687903 1_545
O2 Si15 1.687903 1_545
O3 Si14 1.632021 1_545
O4 Si14 1.632021 1_545
O5 Si15 1.623989 1_545
O6 Si3 1.693128 1_555
O7 Si2 1.693128 1_556
O8 Si4 1.616954 1_555
O9 Si5 1.616954 1_555
O10 Si0 1.612816 1_555
O11 Si5 1.609986 1_554
O12 Si4 1.609986 1_555
O13 Si1 1.638625 1_555
O14 Si2 1.684764 1_455
O15 Si3 1.684764 1_455
O16 Si4 1.684764 1_555
O17 Si5 1.684764 1_555
O18 Si6 1.638625 1_555
O19 Si3 1.609986 1_455
O20 Si2 1.609986 1_456
O21 Si7 1.612816 1_555
O22 Si2 1.616954 1_555
O23 Si3 1.616954 1_555
O24 Si5 1.693128 1_554
O25 Si4 1.693128 1_555
O26 Si8 1.623989 1_555
O27 Si9 1.632021 1_555
O28 Si9 1.632021 1_555
O29 Si8 1.687903 1_555
O30 Si8 1.687903 1_555
O31 Si6 1.752700 1_555
O32 Si9 1.752700 1_555
O33 Si7 1.687903 1_555
O34 Si7 1.687903 1_555
O35 Si6 1.632021 1_555
O36 Si6 1.632021 1_555
O37 Si7 1.623989 1_555
O38 Si10 1.693128 1_556
O39 Si11 1.693128 1_555
O40 Si12 1.616954 1_555
O41 Si13 1.616954 1_555
O42 Si8 1.612816 1_555
O43 Si12 1.609986 1_654
O44 Si13 1.609986 1_655
O45 Si9 1.638625 1_555
O46 Si10 1.684764 1_555
O47 Si11 1.684764 1_555
O48 Si12 1.684764 1_655
O49 Si13 1.684764 1_655
O50 Si14 1.638625 1_555
O51 Si11 1.609986 1_555
O52 Si10 1.609986 1_556
O53 Si15 1.612816 1_555
O54 Si10 1.616954 1_555
O55 Si11 1.616954 1_555
O56 Si12 1.693128 1_554
O57 Si13 1.693128 1_555
O58 Si0 1.623989 1_565
O59 Si1 1.632021 1_565
O60 Si1 1.632021 1_565
O61 Si0 1.687903 1_565
O62 Si0 1.687903 1_565
O63 Si14 1.752700 1_545
