# generated using pymatgen
data_NaMn3O4
_symmetry_space_group_name_H-M   'P 1'
_cell_length_a   5.32664951
_cell_length_b   5.32659876
_cell_length_c   6.31916378
_cell_angle_alpha   92.36016299
_cell_angle_beta   92.35987494
_cell_angle_gamma   107.24067992
_symmetry_Int_Tables_number   1
_chemical_formula_structural   NaMn3O4
_chemical_formula_sum   'Na2 Mn6 O8'
_cell_volume   170.82401852
_cell_formula_units_Z   2
loop_
 _symmetry_equiv_pos_site_id
 _symmetry_equiv_pos_as_xyz
  1  'x, y, z'
loop_
 _atom_site_type_symbol
 _atom_site_label
 _atom_site_symmetry_multiplicity
 _atom_site_fract_x
 _atom_site_fract_y
 _atom_site_fract_z
 _atom_site_occupancy
  Na  Na0  1  0.00011955  0.00003785  0.49992588  1
  Na  Na1  1  0.00011974  0.00003204  0.99992411  1
  Mn  Mn0  1  0.50016118  0.50007211  0.49990876  1
  Mn  Mn1  1  0.00204374  0.49904222  0.75266664  1
  Mn  Mn2  1  0.99817261  0.50102729  0.24728395  1
  Mn  Mn3  1  0.50016223  0.50005825  0.99991070  1
  Mn  Mn4  1  0.49911432  0.00194842  0.25264809  1
  Mn  Mn5  1  0.50113588  0.99809572  0.74726455  1
  O  O0  1  0.72857262  0.27067590  0.99892477  1
  O  O1  1  0.72963511  0.27174704  0.50079555  1
  O  O2  1  0.27183046  0.72953675  0.00080031  1
  O  O3  1  0.27076470  0.72848889  0.49892330  1
  O  O4  1  0.27536332  0.27478428  0.77624614  1
  O  O5  1  0.27486897  0.27527141  0.27625042  1
  O  O6  1  0.72547845  0.72491100  0.72350390  1
  O  O7  1  0.72499411  0.72538784  0.22350893  1
loop_
_geom_bond_atom_site_label_1
_geom_bond_atom_site_label_2
_geom_bond_distance
_geom_bond_site_symmetry_2
Na0 O6 2.313820 1_445
Na0 O5 2.314767 1_555
Na0 O1 2.325200 1_455
Na0 O3 2.325203 1_545
Na0 O7 2.376301 1_445
Na0 O4 2.376344 1_555
Na1 O7 2.313853 1_446
Na1 O4 2.314810 1_555
Na1 O0 2.325190 1_455
Na1 O2 2.325253 1_546
Na1 O6 2.376286 1_445
Na1 O5 2.376367 1_556
Mn0 O6 1.933929 1_555
Mn0 O5 1.934064 1_555
Mn0 O1 1.963276 1_555
Mn0 O3 1.963339 1_555
Mn0 O4 2.327264 1_555
Mn0 O7 2.327709 1_555
Mn1 O4 2.143914 1_555
Mn1 O2 2.154333 1_556
Mn1 O6 2.167529 1_455
Mn1 O1 2.171236 1_455
Mn1 O0 2.305518 1_455
Mn1 O3 2.329595 1_555
Mn2 O7 2.143779 1_555
Mn2 O0 2.154572 1_554
Mn2 O5 2.167561 1_655
Mn2 O3 2.170991 1_655
Mn2 O2 2.307329 1_655
Mn2 O1 2.327714 1_555
Mn3 O7 1.933954 1_556
Mn3 O4 1.934047 1_555
Mn3 O0 1.963250 1_555
Mn3 O2 1.963325 1_556
Mn3 O5 2.327264 1_556
Mn3 O6 2.327786 1_555
Mn4 O5 2.143884 1_555
Mn4 O1 2.154466 1_555
Mn4 O7 2.167537 1_545
Mn4 O2 2.171120 1_545
Mn4 O3 2.305530 1_545
Mn4 O0 2.329541 1_554
Mn5 O6 2.143724 1_555
Mn5 O3 2.154545 1_555
Mn5 O4 2.167597 1_565
Mn5 O0 2.171004 1_565
Mn5 O1 2.307223 1_565
Mn5 O2 2.327930 1_556
