# generated using pymatgen
data_Na6P2H2O9
_symmetry_space_group_name_H-M   'P 1'
_cell_length_a   5.58354970
_cell_length_b   5.58354970
_cell_length_c   17.15030785
_cell_angle_alpha   78.94979295
_cell_angle_beta   78.94979295
_cell_angle_gamma   58.77129790
_symmetry_Int_Tables_number   1
_chemical_formula_structural   Na6P2H2O9
_chemical_formula_sum   'Na12 P4 H4 O18'
_cell_volume   446.00738997
_cell_formula_units_Z   2
loop_
 _symmetry_equiv_pos_site_id
 _symmetry_equiv_pos_as_xyz
  1  'x, y, z'
loop_
 _atom_site_type_symbol
 _atom_site_label
 _atom_site_symmetry_multiplicity
 _atom_site_fract_x
 _atom_site_fract_y
 _atom_site_fract_z
 _atom_site_occupancy
  Na  Na0  1  0.34797300  0.28913700  0.95198900  1
  Na  Na1  1  0.71086300  0.65202700  0.54801100  1
  Na  Na2  1  0.65202700  0.71086300  0.04801100  1
  Na  Na3  1  0.28913700  0.34797300  0.45198900  1
  Na  Na4  1  0.09651200  0.90163300  0.59712000  1
  Na  Na5  1  0.09836700  0.90348800  0.90288000  1
  Na  Na6  1  0.90348800  0.09836700  0.40288000  1
  Na  Na7  1  0.90163300  0.09651200  0.09712000  1
  Na  Na8  1  0.51745200  0.18240000  0.78469300  1
  Na  Na9  1  0.81760000  0.48254800  0.71530700  1
  Na  Na10  1  0.48254800  0.81760000  0.21530700  1
  Na  Na11  1  0.18240000  0.51745200  0.28469300  1
  P  P0  1  0.22954200  0.45606300  0.11320200  1
  P  P1  1  0.54393700  0.77045800  0.38679800  1
  P  P2  1  0.77045800  0.54393700  0.88679800  1
  P  P3  1  0.45606300  0.22954200  0.61320200  1
  H  H0  1  0.93447600  0.23010000  0.22660000  1
  H  H1  1  0.76990000  0.06552400  0.27340000  1
  H  H2  1  0.06552400  0.76990000  0.77340000  1
  H  H3  1  0.23010000  0.93447600  0.72660000  1
  O  O0  1  0.95923300  0.04076700  0.25000000  1
  O  O1  1  0.04076700  0.95923300  0.75000000  1
  O  O2  1  0.13213000  0.66438400  0.03565600  1
  O  O3  1  0.33561600  0.86787000  0.46434400  1
  O  O4  1  0.86787000  0.33561600  0.96434400  1
  O  O5  1  0.66438400  0.13213000  0.53565600  1
  O  O6  1  0.49337100  0.44247300  0.64905000  1
  O  O7  1  0.55752700  0.50662900  0.85095000  1
  O  O8  1  0.50662900  0.55752700  0.35095000  1
  O  O9  1  0.44247300  0.49337100  0.14905000  1
  O  O10  1  0.52125100  0.96293100  0.67486100  1
  O  O11  1  0.03706900  0.47874900  0.82513900  1
  O  O12  1  0.47874900  0.03706900  0.32513900  1
  O  O13  1  0.96293100  0.52125100  0.17486100  1
  O  O14  1  0.37167100  0.14510300  0.09327700  1
  O  O15  1  0.85489700  0.62832900  0.40672300  1
  O  O16  1  0.62832900  0.85489700  0.90672300  1
  O  O17  1  0.14510300  0.37167100  0.59327700  1
loop_
_geom_bond_atom_site_label_1
_geom_bond_atom_site_label_2
_geom_bond_distance
_geom_bond_site_symmetry_2
Na0 O16 2.291718 1_545
Na0 O7 2.394983 1_555
Na0 O2 2.402625 1_556
Na0 O14 2.408608 1_556
Na0 O4 2.525918 1_455
Na0 O11 2.743418 1_555
Na1 O17 2.291718 1_655
Na1 O6 2.394983 1_555
Na1 O3 2.402625 1_555
Na1 O15 2.408608 1_555
Na1 O5 2.525918 1_565
Na1 O10 2.743418 1_555
Na2 O14 2.291718 1_565
Na2 O9 2.394983 1_555
Na2 O4 2.402625 1_554
Na2 O16 2.408608 1_554
Na2 O2 2.525918 1_655
Na2 O13 2.743418 1_555
Na3 O15 2.291718 1_455
Na3 O8 2.394983 1_555
Na3 O5 2.402625 1_555
Na3 O17 2.408608 1_555
Na3 O3 2.525918 1_545
Na3 O12 2.743418 1_555
Na4 O3 2.396144 1_555
Na4 O5 2.413342 1_465
Na4 O6 2.503338 1_555
Na4 O1 2.642251 1_555
Na4 O17 2.762430 1_565
Na4 O17 2.840685 1_555
Na5 O2 2.396144 1_556
Na5 O4 2.413342 1_465
Na5 O7 2.503338 1_555
Na5 O1 2.642251 1_555
Na5 O16 2.762430 1_455
Na5 O16 2.840685 1_555
Na6 O5 2.396144 1_555
Na6 O3 2.413342 1_645
Na6 O8 2.503338 1_555
Na6 O0 2.642251 1_555
Na6 O15 2.762430 1_545
Na6 O15 2.840685 1_555
Na7 O4 2.396144 1_554
Na7 O2 2.413342 1_645
Na7 O9 2.503338 1_555
Na7 O0 2.642251 1_555
Na7 O14 2.762430 1_655
Na7 O14 2.840685 1_555
Na8 O11 2.353348 1_555
Na8 O10 2.427512 1_545
Na8 O7 2.434084 1_555
Na8 O16 2.441913 1_545
Na8 O6 2.482138 1_555
Na8 O1 2.507377 1_645
Na9 O10 2.353348 1_555
Na9 O11 2.427512 1_655
Na9 O6 2.434084 1_555
Na9 O17 2.441913 1_655
Na9 O7 2.482138 1_555
Na9 O1 2.507377 1_645
Na10 O13 2.353348 1_555
Na10 O12 2.427512 1_565
Na10 O9 2.434084 1_555
Na10 O14 2.441913 1_565
Na10 O8 2.482138 1_555
Na10 O0 2.507377 1_465
Na11 O12 2.353348 1_555
Na11 O13 2.427512 1_455
Na11 O8 2.434084 1_555
Na11 O15 2.441913 1_455
Na11 O9 2.482138 1_555
Na11 O0 2.507377 1_465
H0 O0 1.002416 1_555
H0 Na7 2.540478 1_555
H1 O0 1.002416 1_555
H1 Na6 2.540478 1_555
H2 O1 1.002416 1_555
H2 Na5 2.540478 1_555
H3 O1 1.002416 1_555
H3 Na4 2.540478 1_555
O2 P0 1.563910 1_555
O3 P1 1.563910 1_555
O4 P2 1.563910 1_555
O5 P3 1.563910 1_555
O6 P3 1.555952 1_555
O7 P2 1.555952 1_555
O8 P1 1.555952 1_555
O9 P0 1.555952 1_555
O10 P3 1.564937 1_565
O11 P2 1.564937 1_455
O12 P1 1.564937 1_545
O13 P0 1.564937 1_655
O14 P0 1.567133 1_555
O15 P1 1.567133 1_555
O16 P2 1.567133 1_555
O17 P3 1.567133 1_555
