# generated using pymatgen
data_Li5La4TiNb7O28
_symmetry_space_group_name_H-M   'P 1'
_cell_length_a   5.59165700
_cell_length_b   5.59493855
_cell_length_c   19.00613017
_cell_angle_alpha   89.88540377
_cell_angle_beta   89.95384052
_cell_angle_gamma   89.97460320
_symmetry_Int_Tables_number   1
_chemical_formula_structural   Li5La4TiNb7O28
_chemical_formula_sum   'Li5 La4 Ti1 Nb7 O28'
_cell_volume   594.60491077
_cell_formula_units_Z   1
loop_
 _symmetry_equiv_pos_site_id
 _symmetry_equiv_pos_as_xyz
  1  'x, y, z'
loop_
 _atom_site_type_symbol
 _atom_site_label
 _atom_site_symmetry_multiplicity
 _atom_site_fract_x
 _atom_site_fract_y
 _atom_site_fract_z
 _atom_site_occupancy
  Li  Li0  1  0.00570100  0.99683500  0.75470900  1
  Li  Li1  1  0.00099400  0.99864700  0.24341000  1
  Li  Li2  1  0.00261800  0.50307500  0.74203400  1
  Li  Li3  1  0.49298400  0.51011300  0.72942200  1
  Li  Li4  1  0.49818700  0.50146300  0.26704400  1
  La  La0  1  0.23532200  0.76350100  0.00114000  1
  La  La1  1  0.73628300  0.73780500  0.50489500  1
  La  La2  1  0.25948200  0.26471300  0.50483600  1
  La  La3  1  0.76473700  0.23666700  0.00117800  1
  Ti  Ti0  1  0.24514700  0.75208200  0.61704900  1
  Nb  Nb0  1  0.24601400  0.75453600  0.38278200  1
  Nb  Nb1  1  0.74668700  0.74726100  0.88159400  1
  Nb  Nb2  1  0.74588000  0.74587100  0.12040500  1
  Nb  Nb3  1  0.25350500  0.25333000  0.88161700  1
  Nb  Nb4  1  0.25418400  0.25376300  0.12042400  1
  Nb  Nb5  1  0.74977600  0.24452400  0.61742000  1
  Nb  Nb6  1  0.75377700  0.24629600  0.38120400  1
  O  O0  1  0.00081000  0.99976300  0.87855700  1
  O  O1  1  0.50012700  0.00010800  0.90370700  1
  O  O2  1  0.00052300  0.99807500  0.58584600  1
  O  O3  1  0.49838300  0.99719700  0.59733300  1
  O  O4  1  0.99982200  0.00031700  0.41680000  1
  O  O5  1  0.50079500  0.00064300  0.40591000  1
  O  O6  1  0.00003200  0.99974800  0.11925800  1
  O  O7  1  0.50004800  0.99989000  0.09366100  1
  O  O8  1  0.80683800  0.80576700  0.99833100  1
  O  O9  1  0.20669900  0.75726500  0.70966900  1
  O  O10  1  0.22042600  0.78007900  0.28776600  1
  O  O11  1  0.73729500  0.70363300  0.78659500  1
  O  O12  1  0.71789200  0.71783000  0.21373100  1
  O  O13  1  0.30589200  0.69284500  0.50046800  1
  O  O14  1  0.50004800  0.50020800  0.91656400  1
  O  O15  1  0.00005800  0.50015800  0.90550100  1
  O  O16  1  0.00122500  0.49988100  0.59570300  1
  O  O17  1  0.49879500  0.50009900  0.62044500  1
  O  O18  1  0.00005100  0.49985300  0.09398800  1
  O  O19  1  0.50005100  0.49991400  0.08382600  1
  O  O20  1  0.99949300  0.49939900  0.40571300  1
  O  O21  1  0.50097900  0.49922300  0.37779900  1
  O  O22  1  0.69712500  0.30350700  0.50200700  1
  O  O23  1  0.26403400  0.29806500  0.78662100  1
  O  O24  1  0.28207000  0.28156600  0.21371100  1
  O  O25  1  0.79508900  0.24084100  0.71445600  1
  O  O26  1  0.78092600  0.21932900  0.28655900  1
  O  O27  1  0.19319500  0.19431500  0.99830900  1
loop_
_geom_bond_atom_site_label_1
_geom_bond_atom_site_label_2
_geom_bond_distance
_geom_bond_site_symmetry_2
Li0 O9 1.947895 1_555
Li0 O25 1.957506 1_465
Li0 O23 2.302735 1_565
Li0 O11 2.303819 1_455
Li0 O0 2.354098 1_555
Li1 O10 1.925577 1_555
Li1 O26 1.926750 1_465
Li1 O24 2.300352 1_565
Li1 O12 2.302134 1_455
Li1 O6 2.359655 1_555
Li2 O9 1.923541 1_555
Li2 O25 1.944100 1_455
Li2 O23 2.041351 1_555
Li2 O11 2.043962 1_455
Li3 O23 2.054817 1_555
Li3 O11 2.056147 1_555
Li3 O17 2.072329 1_555
Li3 O9 2.147696 1_555
Li3 O25 2.280996 1_555
Li4 O12 1.998958 1_555
Li4 O24 2.002447 1_555
Li4 O21 2.105107 1_555
Li4 O10 2.235324 1_555
Li4 O26 2.263888 1_555
La0 O8 2.408097 1_454
La0 O27 2.422252 1_564
La0 O19 2.613119 1_555
La0 O14 2.636067 1_554
La0 O18 2.647311 1_555
La0 O7 2.654773 1_555
La0 O15 2.687354 1_554
La0 O1 2.713243 1_564
La1 O13 2.421368 1_555
La1 O22 2.440543 1_555
La1 O2 2.585603 1_655
La1 O16 2.634140 1_655
La1 O3 2.639541 1_555
La1 O4 2.668386 1_565
La1 O5 2.725254 1_565
La1 O20 2.739098 1_555
La1 O17 2.887995 1_555
La1 O21 3.060672 1_555
La1 O22 3.172904 1_565
La1 O13 3.195918 1_655
La2 O13 2.410760 1_555
La2 O22 2.457388 1_555
La2 O2 2.584964 1_545
La2 O16 2.608179 1_555
La2 O3 2.665859 1_545
La2 O4 2.666789 1_455
La2 O20 2.716547 1_455
La2 O5 2.746635 1_555
La2 O17 2.893266 1_555
La2 O21 3.059148 1_555
La2 O22 3.152388 1_455
La2 O13 3.211192 1_545
La3 O27 2.407960 1_654
La3 O8 2.422929 1_544
La3 O19 2.613587 1_555
La3 O14 2.635025 1_554
La3 O7 2.650172 1_545
La3 O18 2.650849 1_655
La3 O15 2.683027 1_654
La3 O1 2.718248 1_554
Nb0 O10 1.816999 1_555
Nb0 O21 2.020035 1_555
Nb0 O5 2.030768 1_565
Nb0 O20 2.031275 1_455
Nb0 O4 2.050497 1_465
Nb0 O13 2.287428 1_555
Nb1 O11 1.823274 1_555
Nb1 O0 2.004899 1_655
Nb1 O1 2.019500 1_565
Nb1 O15 2.030233 1_655
Nb1 O14 2.061764 1_555
Nb1 O8 2.268743 1_555
Nb2 O12 1.787124 1_555
Nb2 O6 2.009805 1_655
Nb2 O7 2.040659 1_555
Nb2 O18 2.041204 1_655
Nb2 O19 2.067262 1_555
Nb2 O8 2.367978 1_554
Nb3 O23 1.823184 1_555
Nb3 O0 2.003704 1_545
Nb3 O1 2.020400 1_555
Nb3 O15 2.030111 1_555
Nb3 O14 2.063104 1_555
Nb3 O27 2.266634 1_555
Nb4 O24 1.787092 1_555
Nb4 O6 2.010442 1_545
Nb4 O18 2.040625 1_555
Nb4 O7 2.041165 1_545
Nb4 O19 2.065650 1_555
Nb4 O27 2.370259 1_554
Nb5 O25 1.861877 1_555
Nb5 O17 2.003982 1_555
Nb5 O3 2.010299 1_545
Nb5 O16 2.046201 1_655
Nb5 O2 2.056087 1_645
Nb5 O22 2.237257 1_555
Nb6 O26 1.811696 1_555
Nb6 O21 2.000721 1_555
Nb6 O5 2.026977 1_555
Nb6 O20 2.028664 1_555
Nb6 O4 2.059286 1_555
Nb6 O22 2.340105 1_555
O2 Ti0 2.028139 1_555
O3 Ti0 2.006255 1_555
O9 Ti0 1.773548 1_555
O13 Ti0 2.266364 1_555
O16 Ti0 2.005204 1_555
O17 Ti0 2.000352 1_555
