# generated using pymatgen
data_Li2Mn2OF6
_symmetry_space_group_name_H-M   'P 1'
_cell_length_a   7.42273654
_cell_length_b   5.72697792
_cell_length_c   7.03408311
_cell_angle_alpha   78.82416209
_cell_angle_beta   117.20230603
_cell_angle_gamma   108.86522813
_symmetry_Int_Tables_number   1
_chemical_formula_structural   Li2Mn2OF6
_chemical_formula_sum   'Li4 Mn4 O2 F12'
_cell_volume   251.28335762
_cell_formula_units_Z   2
loop_
 _symmetry_equiv_pos_site_id
 _symmetry_equiv_pos_as_xyz
  1  'x, y, z'
loop_
 _atom_site_type_symbol
 _atom_site_label
 _atom_site_symmetry_multiplicity
 _atom_site_fract_x
 _atom_site_fract_y
 _atom_site_fract_z
 _atom_site_occupancy
  Li  Li0  1  0.78792100  0.31041600  0.39402700  1
  Li  Li1  1  0.91929500  0.78972400  0.13018100  1
  Li  Li2  1  0.08070500  0.21027500  0.86982000  1
  Li  Li3  1  0.21207900  0.68958300  0.60597400  1
  Mn  Mn0  1  0.59163200  0.22222500  0.86197300  1
  Mn  Mn1  1  0.27807300  0.34128700  0.41667000  1
  Mn  Mn2  1  0.72192700  0.65871900  0.58332800  1
  Mn  Mn3  1  0.40836700  0.77777600  0.13802200  1
  O  O0  1  0.50058200  0.50118200  0.31934500  1
  O  O1  1  0.49941700  0.49881900  0.68065500  1
  F  F0  1  0.38690800  0.02696200  0.61918400  1
  F  F1  1  0.75575300  0.41939300  0.10152100  1
  F  F2  1  0.09383800  0.15914500  0.17057900  1
  F  F3  1  0.80822000  0.31547000  0.71782600  1
  F  F4  1  0.33864800  0.07109700  0.97553000  1
  F  F5  1  0.07916400  0.28942700  0.53794600  1
  F  F6  1  0.92083700  0.71057100  0.46205600  1
  F  F7  1  0.66135200  0.92890300  0.02447000  1
  F  F8  1  0.19178100  0.68452900  0.28217500  1
  F  F9  1  0.90616200  0.84085300  0.82942200  1
  F  F10  1  0.24424700  0.58060600  0.89847800  1
  F  F11  1  0.61309200  0.97303700  0.38081700  1
loop_
_geom_bond_atom_site_label_1
_geom_bond_atom_site_label_2
_geom_bond_distance
_geom_bond_site_symmetry_2
Li0 O0 2.505713 1_555
Li3 O1 2.505701 1_555
Mn0 O1 1.929834 1_555
Mn1 O0 1.961569 1_555
Mn1 O1 1.965431 1_555
Mn2 O1 1.961588 1_555
Mn2 O0 1.965434 1_555
Mn3 O0 1.929846 1_555
F0 Mn0 1.935198 1_555
F0 Li3 1.940050 1_545
F0 Mn1 2.194674 1_555
F1 Mn0 1.889335 1_554
F1 Li0 1.956863 1_555
F1 Li1 2.071093 1_555
F2 Mn1 1.888879 1_555
F2 Li2 2.039762 1_554
F2 Li1 2.087870 1_445
F3 Li2 2.039149 1_655
F3 Mn0 2.150145 1_555
F3 Mn2 2.170007 1_555
F3 Li0 2.218132 1_555
F4 Mn3 1.916560 1_546
F4 Li2 2.075962 1_555
F4 Mn0 2.228389 1_555
F5 Mn1 1.940508 1_555
F5 Li0 1.957741 1_455
F5 Li3 2.232822 1_555
F5 Li2 2.285588 1_555
F6 Mn2 1.940501 1_555
F6 Li3 1.957733 1_655
F6 Li0 2.232818 1_555
F6 Li1 2.285592 1_555
F7 Mn0 1.916578 1_564
F7 Li1 2.075965 1_555
F7 Mn3 2.228372 1_555
F8 Li1 2.039155 1_455
F8 Mn3 2.150163 1_555
F8 Mn1 2.169965 1_555
F8 Li3 2.218135 1_555
F9 Mn2 1.888871 1_555
F9 Li1 2.039762 1_556
F9 Li2 2.087875 1_665
F10 Mn3 1.889322 1_556
F10 Li3 1.956850 1_555
F10 Li2 2.071093 1_555
F11 Mn3 1.935220 1_555
F11 Li0 1.940050 1_565
F11 Mn2 2.194634 1_555
