# generated using pymatgen
data_Li3MnCr3O8
_symmetry_space_group_name_H-M   'P 1'
_cell_length_a   5.91056748
_cell_length_b   5.91056748
_cell_length_c   5.93094271
_cell_angle_alpha   60.32021580
_cell_angle_beta   60.32021580
_cell_angle_gamma   59.67829851
_symmetry_Int_Tables_number   1
_chemical_formula_structural   Li3MnCr3O8
_chemical_formula_sum   'Li3 Mn1 Cr3 O8'
_cell_volume   146.85041913
_cell_formula_units_Z   1
loop_
 _symmetry_equiv_pos_site_id
 _symmetry_equiv_pos_as_xyz
  1  'x, y, z'
loop_
 _atom_site_type_symbol
 _atom_site_label
 _atom_site_symmetry_multiplicity
 _atom_site_fract_x
 _atom_site_fract_y
 _atom_site_fract_z
 _atom_site_occupancy
  Li  Li0  1  0.50000000  0.50000000  0.00000000  1
  Li  Li1  1  0.50000000  0.00000000  0.00000000  1
  Li  Li2  1  0.00000000  0.50000000  0.00000000  1
  Mn  Mn0  1  0.00000000  0.00000000  0.50000000  1
  Cr  Cr0  1  0.50000000  0.50000000  0.50000000  1
  Cr  Cr1  1  0.00000000  0.50000000  0.50000000  1
  Cr  Cr2  1  0.50000000  0.00000000  0.50000000  1
  O  O0  1  0.73492900  0.73492900  0.28510000  1
  O  O1  1  0.74372400  0.23746800  0.28694600  1
  O  O2  1  0.23746800  0.74372400  0.28694600  1
  O  O3  1  0.76375100  0.76375100  0.72219500  1
  O  O4  1  0.23624900  0.23624900  0.27780500  1
  O  O5  1  0.76253200  0.25627600  0.71305400  1
  O  O6  1  0.25627600  0.76253200  0.71305400  1
  O  O7  1  0.26507100  0.26507100  0.71490000  1
loop_
_geom_bond_atom_site_label_1
_geom_bond_atom_site_label_2
_geom_bond_distance
_geom_bond_site_symmetry_2
Li0 O1 2.221473 1_555
Li0 O2 2.221473 1_555
Li0 O6 2.221473 1_554
Li0 O5 2.221473 1_554
Li0 O3 2.223000 1_554
Li0 O4 2.223000 1_555
Li1 O4 2.152118 1_555
Li1 O3 2.152118 1_544
Li1 O0 2.178753 1_545
Li1 O7 2.178753 1_554
Li1 O5 2.191747 1_554
Li1 O2 2.191747 1_545
Li2 O4 2.152118 1_555
Li2 O3 2.152118 1_454
Li2 O0 2.178753 1_455
Li2 O7 2.178753 1_554
Li2 O6 2.191747 1_554
Li2 O1 2.191747 1_455
Mn0 O6 1.963053 1_545
Mn0 O5 1.963053 1_455
Mn0 O1 1.963053 1_455
Mn0 O2 1.963053 1_545
Mn0 O4 1.990090 1_555
Mn0 O3 1.990090 1_445
Cr0 O0 1.980468 1_555
Cr0 O7 1.980468 1_555
Cr0 O5 1.990425 1_555
Cr0 O6 1.990425 1_555
Cr0 O1 1.990425 1_555
Cr0 O2 1.990425 1_555
Cr1 O7 2.008850 1_555
Cr1 O0 2.008850 1_455
Cr1 O2 2.030868 1_555
Cr1 O5 2.030868 1_455
Cr1 O3 2.032464 1_455
Cr1 O4 2.032464 1_555
Cr2 O7 2.008850 1_555
Cr2 O0 2.008850 1_545
Cr2 O1 2.030868 1_555
Cr2 O6 2.030868 1_545
Cr2 O3 2.032464 1_545
Cr2 O4 2.032464 1_555
