# generated using pymatgen
data_LiMn10(PO4)7
_symmetry_space_group_name_H-M   'P 1'
_cell_length_a   13.10836254
_cell_length_b   13.10836254
_cell_length_c   13.10836268
_cell_angle_alpha   46.02380790
_cell_angle_beta   46.02380790
_cell_angle_gamma   46.02380682
_symmetry_Int_Tables_number   1
_chemical_formula_structural   LiMn10(PO4)7
_chemical_formula_sum   'Li2 Mn20 P14 O56'
_cell_volume   1063.99327229
_cell_formula_units_Z   2
loop_
 _symmetry_equiv_pos_site_id
 _symmetry_equiv_pos_as_xyz
  1  'x, y, z'
loop_
 _atom_site_type_symbol
 _atom_site_label
 _atom_site_symmetry_multiplicity
 _atom_site_fract_x
 _atom_site_fract_y
 _atom_site_fract_z
 _atom_site_occupancy
  Li  Li0  1  0.18411600  0.18411600  0.18411600  1
  Li  Li1  1  0.68411600  0.68411600  0.68411600  1
  Mn  Mn0  1  0.06592200  0.65804500  0.07401500  1
  Mn  Mn1  1  0.06564700  0.44465300  0.47302900  1
  Mn  Mn2  1  0.44465300  0.47302900  0.06564700  1
  Mn  Mn3  1  0.00254800  0.00254800  0.00254800  1
  Mn  Mn4  1  0.07401500  0.06592200  0.65804500  1
  Mn  Mn5  1  0.47302900  0.06564700  0.44465300  1
  Mn  Mn6  1  0.40933500  0.85216400  0.44620000  1
  Mn  Mn7  1  0.65804500  0.07401500  0.06592200  1
  Mn  Mn8  1  0.15804500  0.56592200  0.57401500  1
  Mn  Mn9  1  0.56592200  0.57401500  0.15804500  1
  Mn  Mn10  1  0.50254800  0.50254800  0.50254800  1
  Mn  Mn11  1  0.44620000  0.40933500  0.85216400  1
  Mn  Mn12  1  0.85216400  0.44620000  0.40933500  1
  Mn  Mn13  1  0.57401500  0.15804500  0.56592200  1
  Mn  Mn14  1  0.35216400  0.90933500  0.94620000  1
  Mn  Mn15  1  0.56564700  0.97302900  0.94465300  1
  Mn  Mn16  1  0.90933500  0.94620000  0.35216400  1
  Mn  Mn17  1  0.97302900  0.94465300  0.56564700  1
  Mn  Mn18  1  0.94465300  0.56564700  0.97302900  1
  Mn  Mn19  1  0.94620000  0.35216400  0.90933500  1
  P  P0  1  0.26843800  0.26843800  0.26843800  1
  P  P1  1  0.27001400  0.83036000  0.31145700  1
  P  P2  1  0.18453700  0.68498900  0.23064100  1
  P  P3  1  0.18498900  0.68453700  0.73064100  1
  P  P4  1  0.33036000  0.77001400  0.81145700  1
  P  P5  1  0.68453700  0.73064100  0.18498900  1
  P  P6  1  0.77001400  0.81145700  0.33036000  1
  P  P7  1  0.31145700  0.27001400  0.83036000  1
  P  P8  1  0.23064100  0.18453700  0.68498900  1
  P  P9  1  0.68498900  0.23064100  0.18453700  1
  P  P10  1  0.81145700  0.33036000  0.77001400  1
  P  P11  1  0.83036000  0.31145700  0.27001400  1
  P  P12  1  0.73064100  0.18498900  0.68453700  1
  P  P13  1  0.76843800  0.76843800  0.76843800  1
  O  O0  1  0.16417100  0.62050000  0.18467000  1
  O  O1  1  0.10880900  0.39688700  0.25686600  1
  O  O2  1  0.31326100  0.31326100  0.31326100  1
  O  O3  1  0.18467000  0.16417100  0.62050000  1
  O  O4  1  0.39688700  0.25686600  0.10880900  1
  O  O5  1  0.25686600  0.10880900  0.39688700  1
  O  O6  1  0.09924700  0.84425700  0.40364700  1
  O  O7  1  0.11931500  0.86585700  0.15000000  1
  O  O8  1  0.11849900  0.86019200  0.67757100  1
  O  O9  1  0.14956400  0.86877700  0.87147600  1
  O  O10  1  0.26640800  0.91623000  0.35608400  1
  O  O11  1  0.62050000  0.18467000  0.16417100  1
  O  O12  1  0.09025600  0.63431100  0.40945400  1
  O  O13  1  0.33448600  0.90022200  0.13338100  1
  O  O14  1  0.12050000  0.66417100  0.68467000  1
  O  O15  1  0.40022200  0.83448600  0.63338100  1
  O  O16  1  0.13431100  0.59025600  0.90945400  1
  O  O17  1  0.59025600  0.90945400  0.13431100  1
  O  O18  1  0.59924700  0.90364700  0.34425700  1
  O  O19  1  0.36877700  0.64956400  0.37147600  1
  O  O20  1  0.36019200  0.61849900  0.17757100  1
  O  O21  1  0.36585700  0.61931500  0.65000000  1
  O  O22  1  0.34425700  0.59924700  0.90364700  1
  O  O23  1  0.13338100  0.33448600  0.90022200  1
  O  O24  1  0.17757100  0.36019200  0.61849900  1
  O  O25  1  0.66417100  0.68467000  0.12050000  1
  O  O26  1  0.61931500  0.65000000  0.36585700  1
  O  O27  1  0.86877700  0.87147600  0.14956400  1
  O  O28  1  0.37147600  0.36877700  0.64956400  1
  O  O29  1  0.15000000  0.11931500  0.86585700  1
  O  O30  1  0.35608400  0.26640800  0.91623000  1
  O  O31  1  0.86019200  0.67757100  0.11849900  1
  O  O32  1  0.83448600  0.63338100  0.40022200  1
  O  O33  1  0.63431100  0.40945400  0.09025600  1
  O  O34  1  0.63338100  0.40022200  0.83448600  1
  O  O35  1  0.65000000  0.36585700  0.61931500  1
  O  O36  1  0.64956400  0.37147600  0.36877700  1
  O  O37  1  0.40364700  0.09924700  0.84425700  1
  O  O38  1  0.40945400  0.09025600  0.63431100  1
  O  O39  1  0.84425700  0.40364700  0.09924700  1
  O  O40  1  0.61849900  0.17757100  0.36019200  1
  O  O41  1  0.91623000  0.35608400  0.26640800  1
  O  O42  1  0.67757100  0.11849900  0.86019200  1
  O  O43  1  0.90364700  0.34425700  0.59924700  1
  O  O44  1  0.68467000  0.12050000  0.66417100  1
  O  O45  1  0.41623000  0.76640800  0.85608400  1
  O  O46  1  0.87147600  0.14956400  0.86877700  1
  O  O47  1  0.86585700  0.15000000  0.11931500  1
  O  O48  1  0.90022200  0.13338100  0.33448600  1
  O  O49  1  0.90945400  0.13431100  0.59025600  1
  O  O50  1  0.60880900  0.75686600  0.89688700  1
  O  O51  1  0.75686600  0.89688700  0.60880900  1
  O  O52  1  0.76640800  0.85608400  0.41623000  1
  O  O53  1  0.81326100  0.81326100  0.81326100  1
  O  O54  1  0.89688700  0.60880900  0.75686600  1
  O  O55  1  0.85608400  0.41623000  0.76640800  1
loop_
_geom_bond_atom_site_label_1
_geom_bond_atom_site_label_2
_geom_bond_distance
_geom_bond_site_symmetry_2
Li0 O41 2.387417 1_455
Li0 O10 2.387417 1_545
Li0 O30 2.387417 1_554
Li1 O55 2.387417 1_555
Li1 O45 2.387417 1_555
Li1 O52 2.387417 1_555
Mn0 O0 2.174277 1_555
Mn0 O31 2.177860 1_455
Mn0 O16 2.261999 1_554
Mn0 O1 2.363070 1_555
Mn0 O27 2.395725 1_455
Mn0 O9 2.420797 1_554
Mn0 O22 2.462305 1_554
Mn1 O12 2.200563 1_555
Mn1 O43 2.226399 1_455
Mn1 O2 2.386103 1_555
Mn1 O24 2.389978 1_555
Mn1 O3 2.457861 1_555
Mn1 O0 2.554217 1_555
Mn1 O32 2.557302 1_455
Mn1 O55 2.689836 1_455
Mn2 O33 2.200563 1_555
Mn2 O22 2.226399 1_554
Mn2 O2 2.386103 1_555
Mn2 O20 2.389978 1_555
Mn2 O0 2.457861 1_555
Mn2 O11 2.554217 1_555
Mn2 O34 2.557302 1_554
Mn2 O45 2.689836 1_554
Mn3 O9 2.152574 1_544
Mn3 O46 2.152574 1_454
Mn3 O27 2.152574 1_445
Mn3 O47 2.186225 1_455
Mn3 O7 2.186225 1_545
Mn3 O29 2.186225 1_554
Mn4 O3 2.174277 1_555
Mn4 O8 2.177860 1_545
Mn4 O49 2.261999 1_455
Mn4 O5 2.363070 1_555
Mn4 O9 2.395725 1_545
Mn4 O46 2.420797 1_455
Mn4 O43 2.462305 1_455
Mn5 O38 2.200563 1_555
Mn5 O18 2.226399 1_545
Mn5 O2 2.386103 1_555
Mn5 O40 2.389978 1_555
Mn5 O11 2.457861 1_555
Mn5 O3 2.554217 1_555
Mn5 O15 2.557302 1_545
Mn5 O52 2.689836 1_545
Mn6 O18 2.213449 1_555
Mn6 O15 2.220384 1_555
Mn6 O10 2.263098 1_555
Mn6 O5 2.273079 1_565
Mn6 O26 2.329941 1_555
Mn6 O21 2.399090 1_555
Mn6 O8 2.751861 1_555
Mn6 O17 2.765458 1_555
Mn7 O11 2.174277 1_555
Mn7 O42 2.177860 1_554
Mn7 O17 2.261999 1_545
Mn7 O4 2.363070 1_555
Mn7 O46 2.395725 1_554
Mn7 O27 2.420797 1_545
Mn7 O18 2.462305 1_545
Mn8 O14 2.174277 1_555
Mn8 O24 2.177860 1_555
Mn8 O12 2.261999 1_555
Mn8 O54 2.363070 1_455
Mn8 O28 2.395725 1_555
Mn8 O19 2.420797 1_555
Mn8 O6 2.462305 1_555
Mn9 O25 2.174277 1_555
Mn9 O20 2.177860 1_555
Mn9 O33 2.261999 1_555
Mn9 O50 2.363070 1_554
Mn9 O19 2.395725 1_555
Mn9 O36 2.420797 1_555
Mn9 O39 2.462305 1_555
Mn10 O19 2.152574 1_555
Mn10 O36 2.152574 1_555
Mn10 O28 2.152574 1_555
Mn10 O35 2.186225 1_555
Mn10 O21 2.186225 1_555
Mn10 O26 2.186225 1_555
Mn11 O22 2.213449 1_555
Mn11 O34 2.220384 1_555
Mn11 O30 2.263098 1_555
Mn11 O4 2.273079 1_556
Mn11 O21 2.329941 1_555
Mn11 O35 2.399090 1_555
Mn11 O42 2.751861 1_555
Mn11 O16 2.765458 1_555
Mn12 O43 2.213449 1_555
Mn12 O32 2.220384 1_555
Mn12 O41 2.263098 1_555
Mn12 O1 2.273079 1_655
Mn12 O35 2.329941 1_555
Mn12 O26 2.399090 1_555
Mn12 O31 2.751861 1_555
Mn12 O49 2.765458 1_555
Mn13 O44 2.174277 1_555
Mn13 O40 2.177860 1_555
Mn13 O38 2.261999 1_555
Mn13 O51 2.363070 1_545
Mn13 O36 2.395725 1_555
Mn13 O28 2.420797 1_555
Mn13 O37 2.462305 1_555
Mn14 O37 2.213449 1_565
Mn14 O13 2.220384 1_556
Mn14 O45 2.263098 1_555
Mn14 O50 2.273079 1_555
Mn14 O29 2.329941 1_565
Mn14 O7 2.399090 1_556
Mn14 O20 2.751861 1_556
Mn14 O38 2.765458 1_565
Mn15 O17 2.200563 1_556
Mn15 O37 2.226399 1_565
Mn15 O53 2.386103 1_555
Mn15 O42 2.389978 1_565
Mn15 O44 2.457861 1_565
Mn15 O25 2.554217 1_556
Mn15 O13 2.557302 1_556
Mn15 O30 2.689836 1_565
Mn16 O6 2.213449 1_655
Mn16 O48 2.220384 1_565
Mn16 O52 2.263098 1_555
Mn16 O51 2.273079 1_555
Mn16 O7 2.329941 1_655
Mn16 O47 2.399090 1_565
Mn16 O40 2.751861 1_565
Mn16 O12 2.765458 1_655
Mn17 O49 2.200563 1_565
Mn17 O6 2.226399 1_655
Mn17 O53 2.386103 1_555
Mn17 O8 2.389978 1_655
Mn17 O14 2.457861 1_655
Mn17 O44 2.554217 1_565
Mn17 O48 2.557302 1_565
Mn17 O10 2.689836 1_655
Mn18 O16 2.200563 1_655
Mn18 O39 2.226399 1_556
Mn18 O53 2.386103 1_555
Mn18 O31 2.389978 1_556
Mn18 O25 2.457861 1_556
Mn18 O14 2.554217 1_655
Mn18 O23 2.557302 1_655
Mn18 O41 2.689836 1_556
Mn19 O39 2.213449 1_556
Mn19 O23 2.220384 1_655
Mn19 O55 2.263098 1_555
Mn19 O54 2.273079 1_555
Mn19 O47 2.329941 1_556
Mn19 O29 2.399090 1_655
Mn19 O24 2.751861 1_655
Mn19 O33 2.765458 1_556
O0 P2 1.547013 1_555
O1 P0 1.558793 1_555
O2 P0 1.572869 1_555
O3 P8 1.547013 1_555
O4 P0 1.558793 1_555
O5 P0 1.558793 1_555
O6 P1 1.577063 1_555
O7 P2 1.558576 1_555
O8 P3 1.541410 1_555
O9 P4 1.573511 1_555
O10 P1 1.553575 1_555
O11 P9 1.547013 1_555
O12 P2 1.554884 1_555
O13 P1 1.538931 1_555
O14 P3 1.547013 1_555
O15 P4 1.538931 1_555
O16 P3 1.554884 1_555
O17 P5 1.554884 1_555
O18 P6 1.577063 1_555
O19 P1 1.573511 1_555
O20 P2 1.541410 1_555
O21 P3 1.558576 1_555
O22 P4 1.577063 1_555
O23 P7 1.538931 1_555
O24 P8 1.541410 1_555
O25 P5 1.547013 1_555
O26 P5 1.558576 1_555
O27 P6 1.573511 1_555
O28 P7 1.573511 1_555
O29 P8 1.558576 1_555
O30 P7 1.553575 1_555
O31 P5 1.541410 1_555
O32 P6 1.538931 1_555
O33 P9 1.554884 1_555
O34 P10 1.538931 1_555
O35 P12 1.558576 1_555
O36 P11 1.573511 1_555
O37 P7 1.577063 1_555
O38 P8 1.554884 1_555
O39 P11 1.577063 1_555
O40 P9 1.541410 1_555
O41 P11 1.553575 1_555
O42 P12 1.541410 1_555
O43 P10 1.577063 1_555
O44 P12 1.547013 1_555
O45 P4 1.553575 1_555
O46 P10 1.573511 1_555
O47 P9 1.558576 1_555
O48 P11 1.538931 1_555
O49 P12 1.554884 1_555
O50 P13 1.558793 1_555
O51 P13 1.558793 1_555
O52 P6 1.553575 1_555
O53 P13 1.572869 1_555
O54 P13 1.558793 1_555
O55 P10 1.553575 1_555
