# generated using pymatgen
data_Li3V3CrO8
_symmetry_space_group_name_H-M   'P 1'
_cell_length_a   5.21721800
_cell_length_b   5.97288538
_cell_length_c   10.70777397
_cell_angle_alpha   73.80652233
_cell_angle_beta   75.96538170
_cell_angle_gamma   73.11347277
_symmetry_Int_Tables_number   1
_chemical_formula_structural   Li3V3CrO8
_chemical_formula_sum   'Li6 V6 Cr2 O16'
_cell_volume   301.84650907
_cell_formula_units_Z   2
loop_
 _symmetry_equiv_pos_site_id
 _symmetry_equiv_pos_as_xyz
  1  'x, y, z'
loop_
 _atom_site_type_symbol
 _atom_site_label
 _atom_site_symmetry_multiplicity
 _atom_site_fract_x
 _atom_site_fract_y
 _atom_site_fract_z
 _atom_site_occupancy
  Li  Li0  1  0.00672200  0.37453200  0.74594000  1
  Li  Li1  1  0.00252200  0.11302200  0.25230700  1
  Li  Li2  1  0.99811700  0.50480400  0.00198500  1
  Li  Li3  1  0.99451300  0.87767100  0.75203100  1
  Li  Li4  1  0.99854400  0.26114800  0.49896900  1
  Li  Li5  1  0.00104100  0.63587500  0.24999600  1
  V  V0  1  0.49728300  0.18468300  0.87778700  1
  V  V1  1  0.50250600  0.55957100  0.62315400  1
  V  V2  1  0.49301800  0.93054000  0.38194200  1
  V  V3  1  0.51386700  0.30834700  0.11942800  1
  V  V4  1  0.47949300  0.69648300  0.87659900  1
  V  V5  1  0.52209800  0.05759600  0.62052600  1
  Cr  Cr0  1  0.49295000  0.43965700  0.37259800  1
  Cr  Cr1  1  0.50030800  0.81131600  0.12569900  1
  O  O0  1  0.28321200  0.77874900  0.30777400  1
  O  O1  1  0.28412000  0.15233900  0.07012800  1
  O  O2  1  0.26564300  0.52437800  0.81315100  1
  O  O3  1  0.28192000  0.90770000  0.55277500  1
  O  O4  1  0.28138700  0.27251600  0.30650200  1
  O  O5  1  0.28123400  0.63387400  0.06926300  1
  O  O6  1  0.28220300  0.03735900  0.80091500  1
  O  O7  1  0.29122300  0.39072900  0.55979500  1
  O  O8  1  0.71529200  0.59926300  0.43175100  1
  O  O9  1  0.70816300  0.97239300  0.20101900  1
  O  O10  1  0.71666200  0.35347400  0.94808900  1
  O  O11  1  0.71600900  0.71903400  0.69458900  1
  O  O12  1  0.71903400  0.10670800  0.43065800  1
  O  O13  1  0.72397600  0.47190800  0.18625900  1
  O  O14  1  0.70918700  0.84802000  0.93895100  1
  O  O15  1  0.73775500  0.22630800  0.68942100  1
loop_
_geom_bond_atom_site_label_1
_geom_bond_atom_site_label_2
_geom_bond_distance
_geom_bond_site_symmetry_2
Li0 O6 2.129680 1_555
Li0 O15 2.133467 1_455
Li0 O2 2.162627 1_555
Li0 O7 2.174006 1_555
Li0 O11 2.190227 1_455
Li0 O10 2.315436 1_455
Li1 O12 2.111473 1_455
Li1 O0 2.131999 1_545
Li1 O1 2.138651 1_555
Li1 O9 2.186635 1_445
Li1 O4 2.209989 1_555
Li1 O13 2.247261 1_455
Li2 O13 2.134444 1_555
Li2 O2 2.155077 1_654
Li2 O10 2.186166 1_554
Li2 O5 2.186886 1_655
Li2 O14 2.203810 1_554
Li2 O1 2.244375 1_655
Li3 O15 2.148604 1_565
Li3 O14 2.182586 1_555
Li3 O2 2.196979 1_655
Li3 O6 2.219855 1_665
Li3 O11 2.223901 1_555
Li3 O3 2.285581 1_655
Li4 O15 2.152987 1_555
Li4 O8 2.179839 1_555
Li4 O7 2.192031 1_655
Li4 O3 2.212682 1_645
Li4 O4 2.221394 1_655
Li4 O12 2.277645 1_555
Li5 O5 2.124361 1_555
Li5 O8 2.145413 1_455
Li5 O9 2.160168 1_455
Li5 O0 2.178137 1_555
Li5 O4 2.251272 1_555
Li5 O13 2.277749 1_455
Cr0 O8 1.997799 1_555
Cr0 O12 2.008961 1_555
Cr0 O7 2.009900 1_555
Cr0 O0 2.019401 1_555
Cr0 O4 2.031987 1_555
Cr0 O13 2.055502 1_555
Cr1 O0 1.991775 1_555
Cr1 O14 2.017828 1_554
Cr1 O1 2.022364 1_565
Cr1 O13 2.037497 1_555
Cr1 O5 2.047135 1_555
Cr1 O9 2.053087 1_555
O0 V2 2.012615 1_555
O1 V3 1.952903 1_555
O1 V0 2.075533 1_554
O2 V4 2.046103 1_555
O2 V0 2.062551 1_555
O2 V1 2.098398 1_555
O3 V2 1.883790 1_555
O3 V5 2.086380 1_565
O3 V1 2.091030 1_555
O4 V2 2.060546 1_545
O4 V3 2.064657 1_555
O5 V3 1.976044 1_555
O5 V4 2.055522 1_554
O6 V5 2.024141 1_555
O6 V4 2.031835 1_545
O6 V0 2.033868 1_555
O7 V1 2.020526 1_555
O7 V5 2.024536 1_555
O8 V2 1.980590 1_555
O8 V1 2.065780 1_555
O9 V2 1.978304 1_555
O9 V3 2.021721 1_565
O10 V3 1.872545 1_556
O10 V0 2.098719 1_555
O10 V4 2.103890 1_555
O11 V5 2.011916 1_565
O11 V4 2.030473 1_555
O11 V1 2.041804 1_555
O12 V2 2.023626 1_545
O12 V5 2.025927 1_555
O13 V3 2.015107 1_555
O14 V0 2.004943 1_565
O14 V4 2.014028 1_555
O15 V1 2.046313 1_555
O15 V5 2.074001 1_555
O15 V0 2.092418 1_555
