# generated using pymatgen
data_Li4Co5CuO12
_symmetry_space_group_name_H-M   'P 1'
_cell_length_a   4.92101639
_cell_length_b   4.92101639
_cell_length_c   9.92282370
_cell_angle_alpha   89.53499245
_cell_angle_beta   89.53499245
_cell_angle_gamma   119.83365679
_symmetry_Int_Tables_number   1
_chemical_formula_structural   Li4Co5CuO12
_chemical_formula_sum   'Li4 Co5 Cu1 O12'
_cell_volume   208.42226852
_cell_formula_units_Z   1
loop_
 _symmetry_equiv_pos_site_id
 _symmetry_equiv_pos_as_xyz
  1  'x, y, z'
loop_
 _atom_site_type_symbol
 _atom_site_label
 _atom_site_symmetry_multiplicity
 _atom_site_fract_x
 _atom_site_fract_y
 _atom_site_fract_z
 _atom_site_occupancy
  Li  Li0  1  0.33876500  0.83072900  0.74846100  1
  Li  Li1  1  0.16927100  0.66123500  0.25153900  1
  Li  Li2  1  0.83072900  0.33876500  0.74846100  1
  Li  Li3  1  0.66123500  0.16927100  0.25153900  1
  Co  Co0  1  0.16498300  0.83501700  0.50000000  1
  Co  Co1  1  0.66436000  0.33564000  0.00000000  1
  Co  Co2  1  0.33564000  0.66436000  0.00000000  1
  Co  Co3  1  0.83501700  0.16498300  0.50000000  1
  Co  Co4  1  0.50000000  0.50000000  0.50000000  1
  Cu  Cu0  1  0.00000000  0.00000000  0.00000000  1
  O  O0  1  0.33924900  0.99106900  0.10504600  1
  O  O1  1  0.00893100  0.66075100  0.89495400  1
  O  O2  1  0.49619400  0.83176900  0.39871500  1
  O  O3  1  0.83176900  0.49619400  0.39871500  1
  O  O4  1  0.16823100  0.50380600  0.60128500  1
  O  O5  1  0.82020800  0.82020800  0.59771500  1
  O  O6  1  0.50380600  0.16823100  0.60128500  1
  O  O7  1  0.99106900  0.33924900  0.10504600  1
  O  O8  1  0.66583400  0.66583400  0.09759200  1
  O  O9  1  0.66075100  0.00893100  0.89495400  1
  O  O10  1  0.33416600  0.33416600  0.90240800  1
  O  O11  1  0.17979200  0.17979200  0.40228500  1
loop_
_geom_bond_atom_site_label_1
_geom_bond_atom_site_label_2
_geom_bond_distance
_geom_bond_site_symmetry_2
Li0 O1 2.009559 1_555
Li0 O9 2.016988 1_565
Li0 O4 2.034692 1_555
Li0 O6 2.037179 1_565
Li1 O0 2.009559 1_555
Li1 O7 2.016988 1_455
Li1 O2 2.034692 1_555
Li1 O3 2.037179 1_455
Li2 O9 2.009559 1_555
Li2 O1 2.016988 1_655
Li2 O6 2.034692 1_555
Li2 O4 2.037179 1_655
Li3 O7 2.009559 1_555
Li3 O0 2.016988 1_545
Li3 O3 2.034692 1_555
Li3 O2 2.037179 1_545
Co0 O2 1.914810 1_555
Co0 O4 1.914810 1_555
Co0 O11 1.916554 1_565
Co0 O5 1.916554 1_455
Co0 O6 1.952590 1_565
Co0 O3 1.952590 1_455
Co1 O8 1.895264 1_555
Co1 O10 1.895264 1_554
Co1 O7 1.915917 1_555
Co1 O9 1.915917 1_554
Co1 O0 1.940716 1_545
Co1 O1 1.940716 1_654
Co2 O8 1.895264 1_555
Co2 O10 1.895264 1_554
Co2 O0 1.915917 1_555
Co2 O1 1.915917 1_554
Co2 O7 1.940716 1_455
Co2 O9 1.940716 1_564
Co3 O3 1.914810 1_555
Co3 O6 1.914810 1_555
Co3 O11 1.916554 1_655
Co3 O5 1.916554 1_545
Co3 O4 1.952590 1_655
Co3 O2 1.952590 1_545
Co4 O5 1.866875 1_555
Co4 O11 1.866875 1_555
Co4 O6 1.918347 1_555
Co4 O4 1.918347 1_555
Co4 O3 1.918347 1_555
Co4 O2 1.918347 1_555
Cu0 O10 1.898383 1_554
Cu0 O8 1.898383 1_445
Cu0 O7 1.993991 1_455
Cu0 O0 1.993991 1_545
Cu0 O1 1.993991 1_544
Cu0 O9 1.993991 1_454
