# generated using pymatgen
data_Li6MnCr3(PO4)6
_symmetry_space_group_name_H-M   'P 1'
_cell_length_a   8.48463300
_cell_length_b   8.50940058
_cell_length_c   8.63222748
_cell_angle_alpha   61.28766410
_cell_angle_beta   62.04829061
_cell_angle_gamma   62.03776111
_symmetry_Int_Tables_number   1
_chemical_formula_structural   Li6MnCr3(PO4)6
_chemical_formula_sum   'Li6 Mn1 Cr3 P6 O24'
_cell_volume   458.33004918
_cell_formula_units_Z   1
loop_
 _symmetry_equiv_pos_site_id
 _symmetry_equiv_pos_as_xyz
  1  'x, y, z'
loop_
 _atom_site_type_symbol
 _atom_site_label
 _atom_site_symmetry_multiplicity
 _atom_site_fract_x
 _atom_site_fract_y
 _atom_site_fract_z
 _atom_site_occupancy
  Li  Li0  1  0.98804600  0.02348600  0.01663700  1
  Li  Li1  1  0.35329500  0.75287200  0.14447500  1
  Li  Li2  1  0.49281400  0.47531900  0.50374600  1
  Li  Li3  1  0.65125800  0.24025200  0.85115200  1
  Li  Li4  1  0.84492600  0.66397200  0.25270900  1
  Li  Li5  1  0.24852200  0.84348000  0.64775300  1
  Mn  Mn0  1  0.85655300  0.85343700  0.84956600  1
  Cr  Cr0  1  0.13919100  0.14045200  0.14523800  1
  Cr  Cr1  1  0.35403800  0.35878200  0.36269700  1
  Cr  Cr2  1  0.64538700  0.64289400  0.64597800  1
  P  P0  1  0.45000300  0.04850400  0.75224900  1
  P  P1  1  0.74929400  0.45173200  0.04721400  1
  P  P2  1  0.05105300  0.74950900  0.44903000  1
  P  P3  1  0.95519200  0.24917000  0.54017200  1
  P  P4  1  0.25016800  0.54400400  0.96270000  1
  P  P5  1  0.53788900  0.95803300  0.25414800  1
  O  O0  1  0.49005900  0.12698800  0.30297400  1
  O  O1  1  0.11655000  0.30015000  0.51514600  1
  O  O2  1  0.26722000  0.04637200  0.92204300  1
  O  O3  1  0.29572000  0.53225400  0.12121200  1
  O  O4  1  0.42911600  0.24049600  0.59416500  1
  O  O5  1  0.61120500  0.01967900  0.81190800  1
  O  O6  1  0.90808500  0.26224000  0.06938600  1
  O  O7  1  0.58038400  0.45315000  0.22948100  1
  O  O8  1  0.24658200  0.59368900  0.42409000  1
  O  O9  1  0.98389900  0.20357100  0.37751000  1
  O  O10  1  0.93363900  0.08316200  0.73390700  1
  O  O11  1  0.20869300  0.37163000  0.00248300  1
  O  O12  1  0.80955000  0.61647500  0.00984400  1
  O  O13  1  0.06823300  0.90610700  0.25350900  1
  O  O14  1  0.02912200  0.81132000  0.59864000  1
  O  O15  1  0.75892900  0.40689100  0.57145800  1
  O  O16  1  0.41000000  0.56684400  0.77033500  1
  O  O17  1  0.08718300  0.73604700  0.93118000  1
  O  O18  1  0.38167300  0.96954500  0.20136700  1
  O  O19  1  0.56240200  0.76389300  0.41802500  1
  O  O20  1  0.69283900  0.48106700  0.88728900  1
  O  O21  1  0.73260700  0.93979800  0.09981700  1
  O  O22  1  0.89066100  0.68635900  0.48516100  1
  O  O23  1  0.48901600  0.88637400  0.69260900  1
loop_
_geom_bond_atom_site_label_1
_geom_bond_atom_site_label_2
_geom_bond_distance
_geom_bond_site_symmetry_2
Li0 O6 2.025314 1_555
Li0 O13 2.084709 1_645
Li0 O2 2.186774 1_654
Li0 O21 2.284106 1_545
Li0 O10 2.464342 1_554
Li0 O17 2.541039 1_644
Li1 O8 2.107261 1_555
Li1 O13 2.126869 1_555
Li1 O18 2.257381 1_555
Li1 O3 2.262193 1_555
Li1 O2 2.335412 1_564
Li1 O7 2.382133 1_555
Li2 O4 2.003216 1_555
Li2 O8 2.135391 1_555
Li2 O7 2.200322 1_555
Li2 O15 2.335813 1_555
Li2 O16 2.467609 1_555
Li2 O19 2.475942 1_555
Li3 O15 2.128889 1_555
Li3 O10 2.138881 1_555
Li3 O5 2.251707 1_555
Li3 O20 2.411699 1_555
Li3 O21 2.466103 1_546
Li3 O16 2.557599 1_555
Li4 O21 2.064975 1_555
Li4 O19 2.133822 1_555
Li4 O22 2.319433 1_555
Li4 O12 2.483227 1_555
Li4 O17 2.550105 1_654
Li4 O15 2.592337 1_555
Li5 O16 2.116463 1_555
Li5 O17 2.140178 1_555
Li5 O14 2.246991 1_555
Li5 O23 2.453922 1_555
Li5 O19 2.476233 1_555
Li5 O10 2.517032 1_465
Mn0 O12 1.922368 1_556
Mn0 O5 1.967540 1_565
Mn0 O10 1.989349 1_565
Mn0 O17 2.026426 1_655
Mn0 O14 2.060267 1_655
Mn0 O21 2.232364 1_556
Cr0 O11 1.952836 1_555
Cr0 O9 1.984730 1_455
Cr0 O6 1.998402 1_455
Cr0 O13 2.005041 1_545
Cr0 O18 2.008511 1_545
Cr0 O2 2.058503 1_554
Cr1 O0 1.942350 1_555
Cr1 O1 1.966475 1_555
Cr1 O8 1.990877 1_555
Cr1 O4 2.017620 1_555
Cr1 O3 2.023517 1_555
Cr1 O7 2.035692 1_555
Cr2 O20 1.976781 1_555
Cr2 O22 1.978625 1_555
Cr2 O23 1.984385 1_555
Cr2 O16 2.023505 1_555
Cr2 O19 2.024895 1_555
Cr2 O15 2.054487 1_555
O0 P5 1.511310 1_545
O1 P3 1.516195 1_455
O2 P0 1.556812 1_555
O3 P4 1.536139 1_554
O4 P0 1.541360 1_555
O5 P0 1.555773 1_555
O6 P1 1.536156 1_555
O7 P1 1.554903 1_555
O8 P2 1.559908 1_555
O9 P3 1.515166 1_555
O10 P3 1.584752 1_555
O11 P4 1.509980 1_554
O12 P1 1.553595 1_555
O13 P2 1.560809 1_555
O14 P2 1.521436 1_555
O15 P3 1.574157 1_555
O16 P4 1.568519 1_555
O17 P4 1.569441 1_555
O18 P5 1.541246 1_555
O19 P5 1.575356 1_555
O20 P1 1.540852 1_556
O21 P5 1.556682 1_555
O22 P2 1.537809 1_655
O23 P0 1.540267 1_565
