# generated using pymatgen
data_LiP4WO13
_symmetry_space_group_name_H-M   'P 1'
_cell_length_a   7.20909400
_cell_length_b   8.18607700
_cell_length_c   17.26634600
_cell_angle_alpha   90.00000000
_cell_angle_beta   90.00000000
_cell_angle_gamma   90.00000000
_symmetry_Int_Tables_number   1
_chemical_formula_structural   LiP4WO13
_chemical_formula_sum   'Li4 P16 W4 O52'
_cell_volume   1018.95957167
_cell_formula_units_Z   4
loop_
 _symmetry_equiv_pos_site_id
 _symmetry_equiv_pos_as_xyz
  1  'x, y, z'
loop_
 _atom_site_type_symbol
 _atom_site_label
 _atom_site_symmetry_multiplicity
 _atom_site_fract_x
 _atom_site_fract_y
 _atom_site_fract_z
 _atom_site_occupancy
  Li  Li0  1  0.21853000  0.73701500  0.49501900  1
  Li  Li1  1  0.28147000  0.26298500  0.99501900  1
  Li  Li2  1  0.71853000  0.76298500  0.50498100  1
  Li  Li3  1  0.78147000  0.23701500  0.00498100  1
  P  P0  1  0.07285800  0.32341700  0.42692000  1
  P  P1  1  0.09079200  0.90388000  0.92385700  1
  P  P2  1  0.09791900  0.89330700  0.65977500  1
  P  P3  1  0.09731500  0.34323700  0.16640700  1
  P  P4  1  0.40268500  0.65676300  0.66640700  1
  P  P5  1  0.40208100  0.10669300  0.15977500  1
  P  P6  1  0.40920800  0.09612000  0.42385700  1
  P  P7  1  0.42714200  0.67658300  0.92692000  1
  P  P8  1  0.57285800  0.17658300  0.57308000  1
  P  P9  1  0.59079200  0.59612000  0.07614300  1
  P  P10  1  0.59791900  0.60669300  0.34022500  1
  P  P11  1  0.59731500  0.15676300  0.83359300  1
  P  P12  1  0.90268500  0.84323700  0.33359300  1
  P  P13  1  0.90208100  0.39330700  0.84022500  1
  P  P14  1  0.90920800  0.40388000  0.57614300  1
  P  P15  1  0.92714200  0.82341700  0.07308000  1
  W  W0  1  0.23262300  0.27655200  0.71304800  1
  W  W1  1  0.26737700  0.72344800  0.21304800  1
  W  W2  1  0.73262300  0.22344800  0.28695200  1
  W  W3  1  0.76737700  0.77655200  0.78695200  1
  O  O0  1  0.99981800  0.78200200  0.98634900  1
  O  O1  1  0.01308600  0.36300000  0.65139400  1
  O  O2  1  0.09770700  0.07811600  0.94628600  1
  O  O3  1  0.09098700  0.34506900  0.08058600  1
  O  O4  1  0.08202000  0.80050800  0.29074600  1
  O  O5  1  0.08721600  0.32859100  0.80774100  1
  O  O6  1  0.09548400  0.78941100  0.12462900  1
  O  O7  1  0.11569000  0.89823500  0.57469800  1
  O  O8  1  0.12729400  0.06147900  0.70243200  1
  O  O9  1  0.16576600  0.48365300  0.42211400  1
  O  O10  1  0.15998700  0.50927300  0.20485600  1
  O  O11  1  0.20289600  0.16626300  0.41212200  1
  O  O12  1  0.24651300  0.21788300  0.20209700  1
  O  O13  1  0.25348700  0.78211700  0.70209700  1
  O  O14  1  0.29710400  0.83373700  0.91212200  1
  O  O15  1  0.34001300  0.49072700  0.70485600  1
  O  O16  1  0.33423400  0.51634700  0.92211400  1
  O  O17  1  0.37270600  0.93852100  0.20243200  1
  O  O18  1  0.38431000  0.10176500  0.07469800  1
  O  O19  1  0.40451600  0.21058900  0.62462900  1
  O  O20  1  0.41278400  0.67140900  0.30774100  1
  O  O21  1  0.40901300  0.65493100  0.58058600  1
  O  O22  1  0.41798000  0.19949200  0.79074600  1
  O  O23  1  0.40229300  0.92188400  0.44628600  1
  O  O24  1  0.48691400  0.63700000  0.15139400  1
  O  O25  1  0.50018200  0.21799800  0.48634900  1
  O  O26  1  0.49981800  0.71799800  0.01365100  1
  O  O27  1  0.51308600  0.13700000  0.34860600  1
  O  O28  1  0.59770700  0.42188400  0.05371400  1
  O  O29  1  0.59098700  0.15493100  0.91941400  1
  O  O30  1  0.58202000  0.69949200  0.70925400  1
  O  O31  1  0.58721600  0.17140900  0.19225900  1
  O  O32  1  0.59548400  0.71058900  0.87537100  1
  O  O33  1  0.61569000  0.60176500  0.42530200  1
  O  O34  1  0.62729400  0.43852100  0.29756800  1
  O  O35  1  0.66576600  0.01634700  0.57788600  1
  O  O36  1  0.65998700  0.99072700  0.79514400  1
  O  O37  1  0.70289600  0.33373700  0.58787800  1
  O  O38  1  0.74651300  0.28211700  0.79790300  1
  O  O39  1  0.75348700  0.71788300  0.29790300  1
  O  O40  1  0.79710400  0.66626300  0.08787800  1
  O  O41  1  0.84001300  0.00927300  0.29514400  1
  O  O42  1  0.83423400  0.98365300  0.07788600  1
  O  O43  1  0.87270600  0.56147900  0.79756800  1
  O  O44  1  0.88431000  0.39823500  0.92530200  1
  O  O45  1  0.90451600  0.28941100  0.37537100  1
  O  O46  1  0.91278400  0.82859100  0.69225900  1
  O  O47  1  0.90901300  0.84506900  0.41941400  1
  O  O48  1  0.91798000  0.30050800  0.20925400  1
  O  O49  1  0.90229300  0.57811600  0.55371400  1
  O  O50  1  0.98691400  0.86300000  0.84860600  1
  O  O51  1  0.00018200  0.28200200  0.51365100  1
loop_
_geom_bond_atom_site_label_1
_geom_bond_atom_site_label_2
_geom_bond_distance
_geom_bond_site_symmetry_2
Li0 O7 2.045518 1_555
Li0 O21 2.126033 1_555
Li0 O23 2.180197 1_555
Li0 O9 2.455793 1_555
Li1 O18 2.045518 1_556
Li1 O3 2.126033 1_556
Li1 O2 2.180197 1_555
Li1 O16 2.455793 1_555
Li2 O33 2.045518 1_555
Li2 O47 2.126033 1_555
Li2 O49 2.180197 1_555
Li2 O35 2.455793 1_565
Li3 O44 2.045518 1_554
Li3 O29 2.126033 1_554
Li3 O28 2.180197 1_555
Li3 O42 2.455793 1_545
O0 P1 1.609284 1_655
O0 P15 1.622353 1_556
O1 P14 1.536553 1_455
O1 W0 2.034419 1_555
O2 P1 1.478790 1_545
O3 P3 1.482593 1_555
O4 P12 1.530069 1_455
O4 W1 1.995820 1_555
O5 P13 1.541606 1_455
O5 W0 1.988350 1_555
O6 P15 1.530527 1_455
O6 W1 2.039094 1_555
O7 P2 1.475097 1_555
O8 P2 1.575608 1_545
O8 W0 1.926111 1_555
O9 P0 1.475148 1_555
O10 P3 1.578683 1_555
O10 W1 1.921787 1_555
O11 P6 1.607136 1_555
O11 P0 1.612180 1_555
O12 P3 1.609231 1_555
O12 P5 1.618717 1_555
O13 P4 1.609231 1_555
O13 P2 1.618717 1_555
O14 P1 1.607136 1_555
O14 P7 1.612180 1_555
O15 P4 1.578683 1_555
O15 W0 1.921787 1_555
O16 P7 1.475148 1_555
O17 P5 1.575608 1_565
O17 W1 1.926111 1_555
O18 P5 1.475097 1_555
O19 P8 1.530527 1_555
O19 W0 2.039094 1_555
O20 P10 1.541606 1_555
O20 W1 1.988350 1_555
O21 P4 1.482593 1_555
O22 P11 1.530069 1_555
O22 W0 1.995820 1_555
O23 P6 1.478790 1_565
O24 P9 1.536553 1_555
O24 W1 2.034419 1_555
O25 P6 1.609284 1_555
O25 P8 1.622353 1_555
O26 P9 1.609284 1_555
O26 P7 1.622353 1_554
O27 P6 1.536553 1_555
O27 W2 2.034419 1_555
O28 P9 1.478790 1_555
O29 P11 1.482593 1_555
O30 P4 1.530069 1_555
O30 W3 1.995820 1_555
O31 P5 1.541606 1_555
O31 W2 1.988350 1_555
O32 P7 1.530527 1_555
O32 W3 2.039094 1_555
O33 P10 1.475097 1_555
O34 P10 1.575608 1_555
O34 W2 1.926111 1_555
O35 P8 1.475148 1_555
O36 P11 1.578683 1_565
O36 W3 1.921787 1_555
O37 P14 1.607136 1_555
O37 P8 1.612180 1_555
O38 P11 1.609231 1_555
O38 P13 1.618717 1_555
O39 P12 1.609231 1_555
O39 P10 1.618717 1_555
O40 P9 1.607136 1_555
O40 P15 1.612180 1_555
O41 P12 1.578683 1_545
O41 W2 1.921787 1_555
O42 P15 1.475148 1_555
O43 P13 1.575608 1_555
O43 W3 1.926111 1_555
O44 P13 1.475097 1_555
O45 P0 1.530527 1_655
O45 W2 2.039094 1_555
O46 P2 1.541606 1_655
O46 W3 1.988350 1_555
O47 P12 1.482593 1_555
O48 P3 1.530069 1_655
O48 W2 1.995820 1_555
O49 P14 1.478790 1_555
O50 P1 1.536553 1_655
O50 W3 2.034419 1_555
O51 P14 1.609284 1_455
O51 P0 1.622353 1_555
