# generated using pymatgen
data_CaBe3O4
_symmetry_space_group_name_H-M   'P 1'
_cell_length_a   4.57656117
_cell_length_b   4.57656117
_cell_length_c   8.78688600
_cell_angle_alpha   90.00000000
_cell_angle_beta   90.00000000
_cell_angle_gamma   119.99998806
_symmetry_Int_Tables_number   1
_chemical_formula_structural   CaBe3O4
_chemical_formula_sum   'Ca2 Be6 O8'
_cell_volume   159.38381565
_cell_formula_units_Z   2
loop_
 _symmetry_equiv_pos_site_id
 _symmetry_equiv_pos_as_xyz
  1  'x, y, z'
loop_
 _atom_site_type_symbol
 _atom_site_label
 _atom_site_symmetry_multiplicity
 _atom_site_fract_x
 _atom_site_fract_y
 _atom_site_fract_z
 _atom_site_occupancy
  Ca  Ca0  1  0.33333300  0.66666700  0.75000000  1
  Ca  Ca1  1  0.66666700  0.33333300  0.25000000  1
  Be  Be0  1  0.33333300  0.66666700  0.07075400  1
  Be  Be1  1  0.00000000  0.00000000  0.50000000  1
  Be  Be2  1  0.00000000  0.00000000  0.00000000  1
  Be  Be3  1  0.33333300  0.66666700  0.42924600  1
  Be  Be4  1  0.66666700  0.33333300  0.57075400  1
  Be  Be5  1  0.66666700  0.33333300  0.92924600  1
  O  O0  1  0.00000000  0.66516500  0.50000000  1
  O  O1  1  0.00000000  0.66516500  0.00000000  1
  O  O2  1  0.33333300  0.66666700  0.25000000  1
  O  O3  1  0.33483500  0.33483500  0.50000000  1
  O  O4  1  0.33483500  0.33483500  0.00000000  1
  O  O5  1  0.66666700  0.33333300  0.75000000  1
  O  O6  1  0.66516500  0.00000000  0.50000000  1
  O  O7  1  0.66516500  0.00000000  0.00000000  1
loop_
_geom_bond_atom_site_label_1
_geom_bond_atom_site_label_2
_geom_bond_distance
_geom_bond_site_symmetry_2
Ca0 O5 2.642277 1_455
Ca0 O5 2.642277 1_565
Ca0 O5 2.642284 1_555
Ca0 O1 2.672518 1_556
Ca0 O0 2.672518 1_555
Ca0 O6 2.672520 1_565
Ca0 O7 2.672520 1_566
Ca0 O3 2.672521 1_555
Ca0 O4 2.672521 1_556
Ca1 O2 2.642277 1_545
Ca1 O2 2.642277 1_655
Ca1 O2 2.642284 1_555
Ca1 O6 2.672518 1_555
Ca1 O7 2.672518 1_555
Ca1 O0 2.672520 1_655
Ca1 O1 2.672520 1_655
Ca1 O4 2.672521 1_555
Ca1 O3 2.672521 1_555
Be0 O2 1.575014 1_555
Be0 O1 1.644168 1_555
Be0 O7 1.644170 1_565
Be0 O4 1.644172 1_555
Be1 O0 1.532393 1_545
Be1 O6 1.532393 1_455
Be1 O3 1.532393 1_555
Be2 O1 1.532393 1_545
Be2 O7 1.532393 1_455
Be2 O4 1.532393 1_555
Be3 O2 1.575014 1_555
Be3 O0 1.644168 1_555
Be3 O6 1.644170 1_565
Be3 O3 1.644172 1_555
Be4 O5 1.575014 1_555
Be4 O6 1.644168 1_555
Be4 O0 1.644170 1_655
Be4 O3 1.644172 1_555
Be5 O5 1.575014 1_555
Be5 O7 1.644168 1_556
Be5 O1 1.644170 1_656
Be5 O4 1.644172 1_556
