# generated using pymatgen
data_Li3FeF6
_symmetry_space_group_name_H-M   'P 1'
_cell_length_a   4.97125771
_cell_length_b   8.37993507
_cell_length_c   9.49628122
_cell_angle_alpha   90.00000000
_cell_angle_beta   90.00000000
_cell_angle_gamma   90.00000000
_symmetry_Int_Tables_number   1
_chemical_formula_structural   Li3FeF6
_chemical_formula_sum   'Li12 Fe4 F24'
_cell_volume   395.60383987
_cell_formula_units_Z   4
loop_
 _symmetry_equiv_pos_site_id
 _symmetry_equiv_pos_as_xyz
  1  'x, y, z'
loop_
 _atom_site_type_symbol
 _atom_site_label
 _atom_site_symmetry_multiplicity
 _atom_site_fract_x
 _atom_site_fract_y
 _atom_site_fract_z
 _atom_site_occupancy
  Li  Li0  1  0.49667038  0.44885770  0.10542783  1
  Li  Li1  1  0.00722770  0.86101116  0.12419156  1
  Li  Li2  1  0.50024919  0.04975744  0.14582698  1
  Li  Li3  1  0.00024919  0.54975744  0.35417302  1
  Li  Li4  1  0.50722770  0.36101116  0.37580844  1
  Li  Li5  1  0.99667038  0.94885770  0.39457217  1
  Li  Li6  1  0.49667038  0.05114230  0.60542783  1
  Li  Li7  1  0.00722770  0.63898884  0.62419156  1
  Li  Li8  1  0.50024919  0.45024256  0.64582698  1
  Li  Li9  1  0.00024919  0.95024256  0.85417302  1
  Li  Li10  1  0.50722770  0.13898884  0.87580844  1
  Li  Li11  1  0.99667038  0.55114230  0.89457217  1
  Fe  Fe0  1  0.99918000  0.24150223  0.12910973  1
  Fe  Fe1  1  0.49918000  0.74150223  0.37089027  1
  Fe  Fe2  1  0.99918000  0.25849777  0.62910973  1
  Fe  Fe3  1  0.49918000  0.75849777  0.87089027  1
  F  F0  1  0.82251267  0.08079255  0.00860914  1
  F  F1  1  0.33106065  0.24502428  0.02318549  1
  F  F2  1  0.84092826  0.40898545  0.02101853  1
  F  F3  1  0.14742321  0.05741902  0.22993392  1
  F  F4  1  0.67813195  0.23145573  0.24187717  1
  F  F5  1  0.18382699  0.38990321  0.25269931  1
  F  F6  1  0.68382699  0.88990321  0.24730069  1
  F  F7  1  0.17813195  0.73145573  0.25812283  1
  F  F8  1  0.64742321  0.55741902  0.27006608  1
  F  F9  1  0.34092826  0.90898545  0.47898147  1
  F  F10  1  0.83106065  0.74502428  0.47681451  1
  F  F11  1  0.32251267  0.58079255  0.49139086  1
  F  F12  1  0.82251267  0.41920745  0.50860914  1
  F  F13  1  0.33106065  0.25497572  0.52318549  1
  F  F14  1  0.84092826  0.09101455  0.52101853  1
  F  F15  1  0.14742321  0.44258098  0.72993392  1
  F  F16  1  0.67813195  0.26854427  0.74187717  1
  F  F17  1  0.18382699  0.11009679  0.75269931  1
  F  F18  1  0.68382699  0.61009679  0.74730069  1
  F  F19  1  0.17813195  0.76854427  0.75812283  1
  F  F20  1  0.64742321  0.94258098  0.77006608  1
  F  F21  1  0.34092826  0.59101455  0.97898147  1
  F  F22  1  0.83106065  0.75497572  0.97681451  1
  F  F23  1  0.32251267  0.91920745  0.99139086  1
loop_
_geom_bond_atom_site_label_1
_geom_bond_atom_site_label_2
_geom_bond_distance
_geom_bond_site_symmetry_2
F0 Fe0 1.973443 1_555
F0 Li9 2.031838 1_644
F0 Li10 2.069991 1_554
F0 Li2 2.081389 1_555
F0 Li1 2.332381 1_645
F1 Li10 1.874894 1_554
F1 Fe0 1.932545 1_455
F1 Li0 2.050708 1_555
F1 Li2 2.177464 1_555
F2 Li11 1.860215 1_554
F2 Fe0 1.908494 1_555
F2 Li0 1.919123 1_555
F3 Li2 1.928348 1_555
F3 Li5 1.957970 1_445
F3 Fe0 1.959452 1_455
F3 Li1 2.050124 1_545
F4 Li4 1.875662 1_555
F4 Fe0 1.923827 1_555
F4 Li2 1.983008 1_555
F4 Li0 2.410762 1_555
F5 Li3 1.885702 1_555
F5 Fe0 1.940758 1_455
F5 Li4 2.002521 1_555
F5 Li0 2.149113 1_555
F6 Li2 1.885702 1_565
F6 Fe1 1.940758 1_555
F6 Li1 2.002521 1_655
F6 Li5 2.149113 1_555
F7 Li1 1.875662 1_555
F7 Fe1 1.923827 1_555
F7 Li3 1.983008 1_555
F7 Li5 2.410762 1_455
F8 Li3 1.928348 1_655
F8 Li0 1.957970 1_555
F8 Fe1 1.959452 1_555
F8 Li4 2.050124 1_555
F9 Li6 1.860215 1_565
F9 Fe1 1.908494 1_555
F9 Li5 1.919123 1_455
F10 Li7 1.874894 1_655
F10 Fe1 1.932545 1_555
F10 Li5 2.050708 1_555
F10 Li3 2.177464 1_655
F11 Fe1 1.973443 1_555
F11 Li8 2.031838 1_555
F11 Li7 2.069991 1_555
F11 Li3 2.081389 1_555
F11 Li4 2.332381 1_555
F12 Fe2 1.973443 1_555
F12 Li3 2.031838 1_655
F12 Li4 2.069991 1_555
F12 Li8 2.081389 1_555
F12 Li7 2.332381 1_655
F13 Li4 1.874894 1_555
F13 Fe2 1.932545 1_455
F13 Li6 2.050708 1_555
F13 Li8 2.177464 1_555
F14 Li5 1.860215 1_545
F14 Fe2 1.908494 1_555
F14 Li6 1.919123 1_555
F15 Li8 1.928348 1_555
F15 Li11 1.957970 1_455
F15 Fe2 1.959452 1_455
F15 Li7 2.050124 1_555
F16 Li10 1.875662 1_555
F16 Fe2 1.923827 1_555
F16 Li8 1.983008 1_555
F16 Li6 2.410762 1_555
F17 Li9 1.885702 1_545
F17 Fe2 1.940758 1_455
F17 Li10 2.002521 1_555
F17 Li6 2.149113 1_555
F18 Li8 1.885702 1_555
F18 Fe3 1.940758 1_555
F18 Li7 2.002521 1_655
F18 Li11 2.149113 1_555
F19 Li7 1.875662 1_555
F19 Fe3 1.923827 1_555
F19 Li9 1.983008 1_555
F19 Li11 2.410762 1_455
F20 Li9 1.928348 1_655
F20 Li6 1.957970 1_565
F20 Fe3 1.959452 1_555
F20 Li10 2.050124 1_565
F21 Li0 1.860215 1_556
F21 Fe3 1.908494 1_555
F21 Li11 1.919123 1_455
F22 Li1 1.874894 1_656
F22 Fe3 1.932545 1_555
F22 Li11 2.050708 1_555
F22 Li9 2.177464 1_655
F23 Fe3 1.973443 1_555
F23 Li2 2.031838 1_566
F23 Li1 2.069991 1_556
F23 Li9 2.081389 1_555
F23 Li10 2.332381 1_565
