# generated using pymatgen
data_V4(OF3)3
_symmetry_space_group_name_H-M   'P 1'
_cell_length_a   5.08965812
_cell_length_b   5.28264805
_cell_length_c   16.92010550
_cell_angle_alpha   83.47148775
_cell_angle_beta   81.77600098
_cell_angle_gamma   61.01841218
_symmetry_Int_Tables_number   1
_chemical_formula_structural   V4(OF3)3
_chemical_formula_sum   'V8 O6 F18'
_cell_volume   393.34999868
_cell_formula_units_Z   2
loop_
 _symmetry_equiv_pos_site_id
 _symmetry_equiv_pos_as_xyz
  1  'x, y, z'
loop_
 _atom_site_type_symbol
 _atom_site_label
 _atom_site_symmetry_multiplicity
 _atom_site_fract_x
 _atom_site_fract_y
 _atom_site_fract_z
 _atom_site_occupancy
  V  V0  1  0.38184543  0.33594357  0.86993479  1
  V  V1  1  0.89270936  0.88507109  0.38123355  1
  V  V2  1  0.74992324  0.74242583  0.74939499  1
  V  V3  1  0.24309192  0.26421237  0.24751800  1
  V  V4  1  0.11722133  0.14888046  0.62893358  1
  V  V5  1  0.66816410  0.61083091  0.12316307  1
  V  V6  1  -0.00105796  0.96745418  0.00070640  1
  V  V7  1  0.50385477  0.49691025  0.49352964  1
  O  O0  1  0.75139512  0.21821452  0.43729296  1
  O  O1  1  0.47240140  0.06630185  0.81181873  1
  O  O2  1  0.23034445  0.69562702  0.41785413  1
  O  O3  1  0.02453033  0.41864142  0.68757274  1
  O  O4  1  0.99207403  0.42379205  0.16681858  1
  O  O5  1  0.81185324  0.78613446  0.03879878  1
  F  F0  1  0.77884281  0.15730232  0.90874887  1
  F  F1  1  0.30284921  0.66974163  0.93369264  1
  F  F2  1  0.97719254  0.94033661  0.71265232  1
  F  F3  1  0.45330011  0.47556252  0.21274717  1
  F  F4  1  0.21842108  0.19846972  0.96373450  1
  F  F5  1  0.97489150  0.58471545  0.84062593  1
  F  F6  1  0.49963738  0.08021249  0.33686946  1
  F  F7  1  0.26464724  0.30225405  0.53471170  1
  F  F8  1  0.96225922  0.56606260  0.31645415  1
  F  F9  1  0.52542217  0.90580892  0.65872687  1
  F  F10  1  0.69619333  0.73614218  0.46702753  1
  F  F11  1  0.72414282  0.32758338  0.58834881  1
  F  F12  1  0.52326074  0.54416350  0.78618833  1
  F  F13  1  0.03341156  0.04498610  0.28668531  1
  F  F14  1  0.53485082  0.94766465  0.18741269  1
  F  F15  1  0.71428872  0.31246500  0.05941137  1
  F  F16  1  0.22058779  0.81013142  0.56519156  1
  F  F17  1  0.25745024  0.83595649  0.08620085  1
loop_
_geom_bond_atom_site_label_1
_geom_bond_atom_site_label_2
_geom_bond_distance
_geom_bond_site_symmetry_2
O0 V7 1.684747 1_555
O0 V1 1.863330 1_545
O1 V0 1.661623 1_555
O1 V2 1.918388 1_545
O2 V1 1.683922 1_455
O2 V7 1.862134 1_555
O3 V4 1.665496 1_555
O3 V2 1.909241 1_455
O4 V5 1.686310 1_555
O4 V3 1.844173 1_655
O5 V6 1.675560 1_655
O5 V5 1.867381 1_555
F0 V6 1.933066 1_646
F0 V0 1.948206 1_555
F1 V6 1.923024 1_556
F1 V0 2.014012 1_555
F2 V2 1.906818 1_555
F2 V4 1.960953 1_665
F3 V3 1.888239 1_555
F3 V5 2.010188 1_555
F4 V0 1.919309 1_555
F4 V6 2.018922 1_546
F5 V2 1.917488 1_555
F5 V0 1.941900 1_655
F6 V1 1.970708 1_545
F6 V3 1.983950 1_555
F7 V4 1.927245 1_555
F7 V7 1.957747 1_555
F8 V3 1.919241 1_655
F8 V1 1.974224 1_555
F9 V2 1.910174 1_555
F9 V4 1.945914 1_565
F10 V7 1.923788 1_555
F10 V1 1.952970 1_555
F11 V4 1.944401 1_655
F11 V7 1.961515 1_555
F12 V2 1.905917 1_555
F12 V0 1.963880 1_555
F13 V1 1.933110 1_445
F13 V3 1.933937 1_555
F14 V3 1.893143 1_565
F14 V5 1.966528 1_555
F15 V5 1.912736 1_555
F15 V6 1.961769 1_645
F16 V7 1.982678 1_555
F16 V4 2.001624 1_565
F17 V6 1.933016 1_555
F17 V5 1.992737 1_555
