# generated using pymatgen
data_Sm3Bi5O12
_symmetry_space_group_name_H-M   'P 1'
_cell_length_a   9.62744800
_cell_length_b   9.63233951
_cell_length_c   9.64375439
_cell_angle_alpha   109.48017207
_cell_angle_beta   109.41592825
_cell_angle_gamma   109.40316711
_symmetry_Int_Tables_number   1
_chemical_formula_structural   Sm3Bi5O12
_chemical_formula_sum   'Sm6 Bi10 O24'
_cell_volume   689.41171960
_cell_formula_units_Z   2
loop_
 _symmetry_equiv_pos_site_id
 _symmetry_equiv_pos_as_xyz
  1  'x, y, z'
loop_
 _atom_site_type_symbol
 _atom_site_label
 _atom_site_symmetry_multiplicity
 _atom_site_fract_x
 _atom_site_fract_y
 _atom_site_fract_z
 _atom_site_occupancy
  Sm  Sm0  1  0.03365300  0.78390000  0.75075700  1
  Sm  Sm1  1  0.99855000  0.00078300  0.49984600  1
  Sm  Sm2  1  0.21890500  0.24968000  0.96851700  1
  Sm  Sm3  1  0.49914700  0.99770800  0.99961900  1
  Sm  Sm4  1  0.50194100  0.50107200  0.50061300  1
  Sm  Sm5  1  0.99923400  0.50082300  0.99913300  1
  Bi  Bi0  1  0.27824600  0.75057400  0.52927300  1
  Bi  Bi1  1  0.24834300  0.96936500  0.21714600  1
  Bi  Bi2  1  0.24976000  0.47041600  0.72031900  1
  Bi  Bi3  1  0.52756100  0.27838100  0.74994700  1
  Bi  Bi4  1  0.46961500  0.71840800  0.24977400  1
  Bi  Bi5  1  0.74851400  0.52805100  0.28218000  1
  Bi  Bi6  1  0.75174000  0.02995200  0.78069400  1
  Bi  Bi7  1  0.78086700  0.74823500  0.03030500  1
  Bi  Bi8  1  0.71866200  0.25040800  0.47063200  1
  Bi  Bi9  1  0.97109700  0.22118900  0.24923600  1
  O  O0  1  0.98801800  0.72388900  0.95167500  1
  O  O1  1  0.23513100  0.50696700  0.96450900  1
  O  O2  1  0.25879900  0.73031300  0.77500000  1
  O  O3  1  0.01828900  0.27771100  0.04557200  1
  O  O4  1  0.48523500  0.03214800  0.76326700  1
  O  O5  1  0.23070000  0.46797000  0.45163600  1
  O  O6  1  0.26751700  0.22362700  0.73977400  1
  O  O7  1  0.54982500  0.77188200  0.53355100  1
  O  O8  1  0.53466800  0.54904600  0.77162600  1
  O  O9  1  0.21973500  0.73872500  0.26896400  1
  O  O10  1  0.27270700  0.04127100  0.00355500  1
  O  O11  1  0.76386500  0.48456200  0.03264900  1
  O  O12  1  0.51359400  0.96476300  0.23591700  1
  O  O13  1  0.77153800  0.53552300  0.54740300  1
  O  O14  1  0.72865500  0.77854100  0.26500600  1
  O  O15  1  0.45155200  0.23074600  0.46815600  1
  O  O16  1  0.03394100  0.76639400  0.49343500  1
  O  O17  1  0.46548900  0.44948000  0.22942100  1
  O  O18  1  0.72401100  0.95229000  0.98649800  1
  O  O19  1  0.77799600  0.26301500  0.72895500  1
  O  O20  1  0.96247600  0.99125400  0.73127800  1
  O  O21  1  0.96603600  0.23726100  0.51383800  1
  O  O22  1  0.73561000  0.26887400  0.21964100  1
  O  O23  1  0.04877800  0.01480800  0.28068700  1
loop_
_geom_bond_atom_site_label_1
_geom_bond_atom_site_label_2
_geom_bond_distance
_geom_bond_site_symmetry_2
Bi0 O16 2.325413 1_555
Bi0 O9 2.336290 1_555
Bi0 O4 2.399284 1_565
Bi0 O5 2.401049 1_555
Bi0 O2 2.503581 1_555
Bi0 O7 2.538918 1_555
Bi1 O23 2.328329 1_565
Bi1 O15 2.353695 1_565
Bi1 O9 2.384638 1_555
Bi1 O10 2.437708 1_565
Bi1 O0 2.487123 1_454
Bi1 O12 2.515808 1_555
Bi2 O1 2.321607 1_555
Bi2 O2 2.344571 1_555
Bi2 O21 2.407339 1_455
Bi2 O8 2.410305 1_555
Bi2 O6 2.502289 1_555
Bi2 O5 2.527527 1_555
Bi3 O4 2.324613 1_555
Bi3 O6 2.341043 1_555
Bi3 O15 2.398773 1_555
Bi3 O11 2.411591 1_556
Bi3 O8 2.520711 1_555
Bi3 O19 2.533315 1_555
Bi4 O14 2.305754 1_555
Bi4 O12 2.325874 1_555
Bi4 O7 2.396156 1_555
Bi4 O1 2.427269 1_554
Bi4 O17 2.517467 1_555
Bi4 O9 2.538626 1_555
Bi5 O22 2.313330 1_555
Bi5 O11 2.365039 1_555
Bi5 O17 2.389039 1_555
Bi5 O16 2.437040 1_655
Bi5 O13 2.466994 1_555
Bi5 O14 2.537241 1_555
Bi6 O7 2.322963 1_545
Bi6 O20 2.347146 1_545
Bi6 O18 2.404124 1_545
Bi6 O19 2.409671 1_555
Bi6 O3 2.512497 1_656
Bi6 O4 2.522613 1_555
Bi7 O8 2.318938 1_554
Bi7 O18 2.335877 1_554
Bi7 O0 2.409346 1_554
Bi7 O14 2.423655 1_555
Bi7 O11 2.498471 1_555
Bi7 O23 2.529829 1_665
Bi8 O19 2.313693 1_555
Bi8 O21 2.331825 1_555
Bi8 O13 2.411222 1_555
Bi8 O12 2.420248 1_545
Bi8 O15 2.506404 1_555
Bi8 O22 2.539193 1_555
Bi9 O5 2.328435 1_655
Bi9 O3 2.345762 1_655
Bi9 O22 2.404471 1_555
Bi9 O23 2.417090 1_655
Bi9 O18 2.511831 1_544
Bi9 O21 2.522301 1_555
O0 Sm0 2.329317 1_655
O0 Sm5 2.369596 1_555
O1 Sm5 2.387651 1_455
O1 Sm2 2.445081 1_555
O2 Sm0 2.346582 1_555
O2 Sm3 2.380546 1_555
O3 Sm2 2.349972 1_554
O3 Sm5 2.387900 1_454
O4 Sm3 2.377848 1_545
O5 Sm4 2.381230 1_555
O6 Sm2 2.354441 1_555
O6 Sm1 2.382744 1_455
O7 Sm4 2.380941 1_555
O8 Sm4 2.386186 1_555
O9 Sm5 2.376370 1_454
O10 Sm2 2.332236 1_554
O10 Sm3 2.362685 1_544
O10 Sm0 2.415342 1_544
O11 Sm5 2.355560 1_554
O12 Sm3 2.369365 1_554
O13 Sm0 2.346682 1_655
O13 Sm4 2.366370 1_555
O14 Sm1 2.370991 1_565
O15 Sm4 2.372682 1_555
O16 Sm1 2.376808 1_465
O16 Sm0 2.431528 1_555
O17 Sm2 2.331059 1_554
O17 Sm4 2.370030 1_555
O18 Sm3 2.380866 1_555
O19 Sm5 2.379183 1_555
O20 Sm0 2.359685 1_655
O20 Sm1 2.396058 1_565
O20 Sm2 2.426676 1_665
O21 Sm1 2.366763 1_555
O22 Sm3 2.376641 1_544
O23 Sm1 2.354900 1_455
