# generated using pymatgen
data_LiNiBO3
_symmetry_space_group_name_H-M   'P 1'
_cell_length_a   6.12392700
_cell_length_b   8.07594180
_cell_length_c   8.07613269
_cell_angle_alpha   60.00406951
_cell_angle_beta   89.99694643
_cell_angle_gamma   89.99750858
_symmetry_Int_Tables_number   1
_chemical_formula_structural   LiNiBO3
_chemical_formula_sum   'Li6 Ni6 B6 O18'
_cell_volume   345.91952011
_cell_formula_units_Z   6
loop_
 _symmetry_equiv_pos_site_id
 _symmetry_equiv_pos_as_xyz
  1  'x, y, z'
loop_
 _atom_site_type_symbol
 _atom_site_label
 _atom_site_symmetry_multiplicity
 _atom_site_fract_x
 _atom_site_fract_y
 _atom_site_fract_z
 _atom_site_occupancy
  Li  Li0  1  0.25012100  0.27452200  0.70085500  1
  Li  Li1  1  0.74992800  0.27446700  0.70085300  1
  Li  Li2  1  0.25005200  0.02479900  0.27447400  1
  Li  Li3  1  0.75001800  0.02476600  0.27451400  1
  Li  Li4  1  0.25019200  0.70064400  0.02490800  1
  Li  Li5  1  0.74989800  0.70070900  0.02487200  1
  Ni  Ni0  1  0.99986600  0.63488800  0.38064900  1
  Ni  Ni1  1  0.50005100  0.63508700  0.38093400  1
  Ni  Ni2  1  0.49983400  0.98433200  0.63486100  1
  Ni  Ni3  1  0.99990300  0.38073000  0.98456700  1
  Ni  Ni4  1  0.49996800  0.38057300  0.98436200  1
  Ni  Ni5  1  0.00007500  0.98458000  0.63466200  1
  B  B0  1  0.25057400  0.33336400  0.33327700  1
  B  B1  1  0.74942100  0.33334800  0.33330000  1
  B  B2  1  0.00001500  0.99999500  0.00003000  1
  B  B3  1  0.50002300  0.99996200  0.00004900  1
  B  B4  1  0.24994200  0.66665600  0.66672400  1
  B  B5  1  0.75005600  0.66668600  0.66670900  1
  O  O0  1  0.00002000  0.10139100  0.80145300  1
  O  O1  1  0.50000500  0.10140600  0.80149400  1
  O  O2  1  0.00000300  0.09713300  0.10143100  1
  O  O3  1  0.50002900  0.09707400  0.10144000  1
  O  O4  1  0.00001000  0.80143000  0.09720100  1
  O  O5  1  0.50001600  0.80145900  0.09717200  1
  O  O6  1  0.25015800  0.13634000  0.44881600  1
  O  O7  1  0.74980500  0.13629900  0.44885300  1
  O  O8  1  0.25086000  0.44933700  0.41433400  1
  O  O9  1  0.74911900  0.44931600  0.41433900  1
  O  O10  1  0.25087600  0.41434300  0.13629400  1
  O  O11  1  0.74915700  0.41436000  0.13631500  1
  O  O12  1  0.24995700  0.46821900  0.78045200  1
  O  O13  1  0.75006600  0.46823200  0.78041900  1
  O  O14  1  0.24997800  0.78039600  0.75139900  1
  O  O15  1  0.75001800  0.78041900  0.75139700  1
  O  O16  1  0.24994100  0.75136900  0.46829100  1
  O  O17  1  0.75004500  0.75136800  0.46830900  1
loop_
_geom_bond_atom_site_label_1
_geom_bond_atom_site_label_2
_geom_bond_distance
_geom_bond_site_symmetry_2
Li0 O1 1.954664 1_555
Li0 O0 1.955774 1_555
Li0 O12 1.966134 1_555
Li0 O8 2.020206 1_555
Li1 O1 1.954654 1_555
Li1 O0 1.955480 1_655
Li1 O13 1.966480 1_555
Li1 O9 2.020197 1_555
Li2 O3 1.954814 1_555
Li2 O2 1.955249 1_555
Li2 O16 1.967294 1_545
Li2 O6 2.015466 1_555
Li3 O2 1.955032 1_655
Li3 O3 1.955115 1_555
Li3 O17 1.967065 1_545
Li3 O7 2.015393 1_555
Li4 O5 1.954329 1_555
Li4 O4 1.955928 1_555
Li4 O14 1.967622 1_554
Li4 O10 2.018811 1_555
Li5 O5 1.954354 1_555
Li5 O4 1.955547 1_655
Li5 O15 1.967437 1_554
Li5 O11 2.019111 1_555
Ni0 O4 1.992672 1_655
Ni0 O9 2.066497 1_555
Ni0 O8 2.067444 1_655
Ni0 O17 2.095776 1_555
Ni0 O16 2.096950 1_655
Ni1 O5 1.994594 1_555
Ni1 O9 2.060393 1_555
Ni1 O8 2.060923 1_555
Ni1 O17 2.094380 1_555
Ni1 O16 2.094708 1_555
Ni2 O1 1.994294 1_565
Ni2 O6 2.063548 1_565
Ni2 O7 2.064643 1_565
Ni2 O14 2.095163 1_555
Ni2 O15 2.096494 1_555
Ni3 O2 1.993729 1_656
Ni3 O11 2.065476 1_556
Ni3 O10 2.066453 1_656
Ni3 O13 2.096126 1_555
Ni3 O12 2.096854 1_655
Ni4 O3 1.992834 1_556
Ni4 O10 2.059426 1_556
Ni4 O11 2.060152 1_556
Ni4 O12 2.095653 1_555
Ni4 O13 2.096117 1_555
Ni5 O0 1.993735 1_565
Ni5 O6 2.064203 1_565
Ni5 O7 2.064888 1_465
Ni5 O14 2.096557 1_555
Ni5 O15 2.097172 1_455
B0 O6 1.384895 1_555
B0 O10 1.385015 1_555
B0 O8 1.385202 1_555
B1 O11 1.385003 1_555
B1 O9 1.385048 1_555
B1 O7 1.385069 1_555
B2 O2 1.388671 1_565
B2 O4 1.388918 1_555
B2 O0 1.389037 1_564
B3 O3 1.388420 1_565
B3 O5 1.388486 1_555
B3 O1 1.388889 1_564
B4 O14 1.392648 1_555
B4 O16 1.392851 1_555
B4 O12 1.392867 1_555
B5 O17 1.392631 1_555
B5 O15 1.392683 1_555
B5 O13 1.392968 1_555
