# generated using pymatgen
data_Li2FeP2O7
_symmetry_space_group_name_H-M   'P 1'
_cell_length_a   6.54358942
_cell_length_b   10.82319528
_cell_length_c   8.95354107
_cell_angle_alpha   103.79141798
_cell_angle_beta   75.43645352
_cell_angle_gamma   73.93505034
_symmetry_Int_Tables_number   1
_chemical_formula_structural   Li2FeP2O7
_chemical_formula_sum   'Li8 Fe4 P8 O28'
_cell_volume   556.49964140
_cell_formula_units_Z   4
loop_
 _symmetry_equiv_pos_site_id
 _symmetry_equiv_pos_as_xyz
  1  'x, y, z'
loop_
 _atom_site_type_symbol
 _atom_site_label
 _atom_site_symmetry_multiplicity
 _atom_site_fract_x
 _atom_site_fract_y
 _atom_site_fract_z
 _atom_site_occupancy
  Li  Li0  1  0.83489200  0.37697200  0.96041100  1
  Li  Li1  1  0.83386200  0.87737400  0.95888100  1
  Li  Li2  1  0.16627000  0.62239900  0.04111700  1
  Li  Li3  1  0.16452500  0.12298100  0.03996800  1
  Li  Li4  1  0.45718100  0.72155600  0.76060100  1
  Li  Li5  1  0.45930100  0.22130900  0.75902200  1
  Li  Li6  1  0.54039200  0.27890200  0.24078700  1
  Li  Li7  1  0.54292200  0.77822300  0.23943200  1
  Fe  Fe0  1  0.23971800  0.63002800  0.36527100  1
  Fe  Fe1  1  0.75993300  0.87018600  0.63495800  1
  Fe  Fe2  1  0.23851700  0.13049200  0.36579300  1
  Fe  Fe3  1  0.76160800  0.36949000  0.63408100  1
  P  P0  1  0.75231900  0.58159500  0.39763700  1
  P  P1  1  0.75145200  0.08147800  0.39864300  1
  P  P2  1  0.24855000  0.41866500  0.60118400  1
  P  P3  1  0.24783200  0.91851600  0.60242800  1
  P  P4  1  0.82918400  0.62809700  0.87408200  1
  P  P5  1  0.82908000  0.12886000  0.87413300  1
  P  P6  1  0.17104900  0.37112800  0.12573200  1
  P  P7  1  0.17068400  0.87168500  0.12608200  1
  O  O0  1  0.55165900  0.64264000  0.34609000  1
  O  O1  1  0.55266600  0.14108800  0.34464900  1
  O  O2  1  0.44732300  0.35912700  0.65523800  1
  O  O3  1  0.44841000  0.85727200  0.65400400  1
  O  O4  1  0.89130800  0.67589300  0.41380700  1
  O  O5  1  0.88978400  0.17612200  0.41465300  1
  O  O6  1  0.11041500  0.32393700  0.58491500  1
  O  O7  1  0.10857100  0.82441300  0.58613300  1
  O  O8  1  0.72498100  0.74624000  0.81765300  1
  O  O9  1  0.72988900  0.24523600  0.81371600  1
  O  O10  1  0.27024800  0.25448000  0.18580000  1
  O  O11  1  0.27446700  0.75379300  0.18300600  1
  O  O12  1  0.28010600  0.47993700  0.13869300  1
  O  O13  1  0.27803700  0.98126600  0.13920600  1
  O  O14  1  0.72199100  0.51844300  0.86075300  1
  O  O15  1  0.72045700  0.01983900  0.86125900  1
  O  O16  1  0.16019700  0.81474000  0.95518100  1
  O  O17  1  0.16374500  0.31254300  0.95422600  1
  O  O18  1  0.83593400  0.18783300  0.04569600  1
  O  O19  1  0.84000600  0.68466400  0.04494900  1
  O  O20  1  0.31705000  0.45943200  0.45004200  1
  O  O21  1  0.31372800  0.96091900  0.45239300  1
  O  O22  1  0.68665400  0.53930300  0.54780100  1
  O  O23  1  0.68305100  0.04079800  0.54986100  1
  O  O24  1  0.09411700  0.55648500  0.75626800  1
  O  O25  1  0.09592300  0.05480800  0.76051700  1
  O  O26  1  0.90442000  0.44523200  0.23974000  1
  O  O27  1  0.90559100  0.94358200  0.24351000  1
loop_
_geom_bond_atom_site_label_1
_geom_bond_atom_site_label_2
_geom_bond_distance
_geom_bond_site_symmetry_2
Li0 O14 2.010797 1_555
Li0 O17 2.052092 1_655
Li0 O9 2.081666 1_555
Li0 O18 2.348165 1_556
Li1 O15 2.006910 1_565
Li1 O16 2.042824 1_655
Li1 O8 2.068334 1_555
Li1 O19 2.383539 1_556
Li2 O12 2.007346 1_555
Li2 O19 2.041848 1_455
Li2 O11 2.070214 1_555
Li2 O16 2.379188 1_554
Li3 O13 2.011197 1_545
Li3 O18 2.051977 1_455
Li3 O10 2.079013 1_555
Li3 O17 2.354961 1_554
Li3 O25 2.621888 1_554
Li4 O3 1.929020 1_555
Li4 O8 2.011799 1_555
Li4 O16 2.050316 1_555
Li4 O22 2.214938 1_555
Li5 O2 1.930635 1_555
Li5 O9 2.017754 1_555
Li5 O17 2.047046 1_555
Li5 O23 2.182035 1_555
Li6 O1 1.930969 1_555
Li6 O10 2.017744 1_555
Li6 O18 2.046454 1_555
Li6 O20 2.181988 1_555
Li7 O0 1.928153 1_555
Li7 O11 2.012637 1_555
Li7 O19 2.050392 1_555
Li7 O21 2.217626 1_555
Fe0 O0 2.050310 1_555
Fe0 O4 2.098934 1_455
Fe0 O20 2.141384 1_555
Fe0 O12 2.178485 1_555
Fe0 O7 2.288435 1_555
Fe0 O11 2.352318 1_555
Fe1 O3 2.048962 1_555
Fe1 O7 2.100177 1_655
Fe1 O23 2.143091 1_565
Fe1 O15 2.176280 1_565
Fe1 O4 2.289111 1_555
Fe1 O8 2.357016 1_555
Fe2 O1 2.054228 1_555
Fe2 O5 2.100919 1_455
Fe2 O21 2.140633 1_545
Fe2 O13 2.175787 1_545
Fe2 O6 2.275633 1_555
Fe2 O10 2.336265 1_555
Fe3 O2 2.054201 1_555
Fe3 O6 2.101155 1_655
Fe3 O22 2.140994 1_555
Fe3 O14 2.174698 1_555
Fe3 O5 2.276581 1_555
Fe3 O9 2.335881 1_555
O0 P0 1.530886 1_555
O1 P1 1.530508 1_555
O2 P2 1.530574 1_555
O3 P3 1.531186 1_555
O4 P0 1.548956 1_555
O5 P1 1.548429 1_555
O6 P2 1.548329 1_555
O7 P3 1.548778 1_555
O8 P4 1.534262 1_555
O9 P5 1.532762 1_555
O10 P6 1.533056 1_555
O11 P7 1.534145 1_555
O12 P6 1.533372 1_555
O13 P7 1.532999 1_555
O14 P4 1.532987 1_555
O15 P5 1.533405 1_555
O16 P7 1.533806 1_556
O17 P6 1.533564 1_556
O18 P5 1.533634 1_554
O19 P4 1.533703 1_554
O20 P2 1.521837 1_555
O21 P3 1.520947 1_555
O22 P0 1.521042 1_555
O23 P1 1.521792 1_555
O24 P2 1.626913 1_555
O24 P4 1.632705 1_455
O25 P3 1.628791 1_545
O25 P5 1.633873 1_455
O26 P0 1.628518 1_555
O26 P6 1.633649 1_655
O27 P1 1.627276 1_565
O27 P7 1.632682 1_655
