# generated using pymatgen
data_Li4Cr3Fe3(SnO8)2
_symmetry_space_group_name_H-M   'P 1'
_cell_length_a   5.98626971
_cell_length_b   5.98624395
_cell_length_c   9.74699286
_cell_angle_alpha   89.90853671
_cell_angle_beta   90.47348045
_cell_angle_gamma   120.21728686
_symmetry_Int_Tables_number   1
_chemical_formula_structural   Li4Cr3Fe3(SnO8)2
_chemical_formula_sum   'Li4 Cr3 Fe3 Sn2 O16'
_cell_volume   301.81454261
_cell_formula_units_Z   1
loop_
 _symmetry_equiv_pos_site_id
 _symmetry_equiv_pos_as_xyz
  1  'x, y, z'
loop_
 _atom_site_type_symbol
 _atom_site_label
 _atom_site_symmetry_multiplicity
 _atom_site_fract_x
 _atom_site_fract_y
 _atom_site_fract_z
 _atom_site_occupancy
  Li  Li0  1  0.32891200  0.66000300  0.89615500  1
  Li  Li1  1  0.00245300  0.00323800  0.99343600  1
  Li  Li2  1  0.00027300  0.00024900  0.49351600  1
  Li  Li3  1  0.66730900  0.33066100  0.39466900  1
  Cr  Cr0  1  0.17006000  0.83151000  0.21451700  1
  Cr  Cr1  1  0.17659200  0.34299300  0.21769000  1
  Cr  Cr2  1  0.34440000  0.16796200  0.71710000  1
  Fe  Fe0  1  0.66364000  0.83458100  0.21247000  1
  Fe  Fe1  1  0.83030200  0.66060600  0.71507400  1
  Fe  Fe2  1  0.83631200  0.17334800  0.71301800  1
  Sn  Sn0  1  0.33480300  0.67057700  0.49168300  1
  Sn  Sn1  1  0.66658000  0.33660300  0.99310400  1
  O  O0  1  0.16148500  0.83992300  0.59970000  1
  O  O1  1  0.03536600  0.51430700  0.33747800  1
  O  O2  1  0.31999700  0.64904300  0.10859500  1
  O  O3  1  0.01020800  0.01519000  0.30669900  1
  O  O4  1  0.01465100  0.00847200  0.80631200  1
  O  O5  1  0.16812400  0.32226300  0.59977200  1
  O  O6  1  0.48677400  0.96478000  0.33735400  1
  O  O7  1  0.47356900  0.50673800  0.33621200  1
  O  O8  1  0.32118600  0.16314900  0.10084900  1
  O  O9  1  0.67993400  0.84301500  0.59979600  1
  O  O10  1  0.51275900  0.47893900  0.83929600  1
  O  O11  1  0.50231500  0.03230700  0.83701800  1
  O  O12  1  0.64889700  0.32597700  0.60723600  1
  O  O13  1  0.83740100  0.68208100  0.09978300  1
  O  O14  1  0.96228500  0.47651700  0.83985000  1
  O  O15  1  0.84341400  0.16526900  0.09945400  1
loop_
_geom_bond_atom_site_label_1
_geom_bond_atom_site_label_2
_geom_bond_distance
_geom_bond_site_symmetry_2
Li0 O14 1.969774 1_455
Li0 O10 1.976337 1_555
Li0 O11 2.013458 1_565
Li0 O2 2.071863 1_556
Li1 O4 1.825548 1_555
Li1 O8 1.945439 1_556
Li1 O13 1.960958 1_446
Li1 O15 1.965708 1_456
Li2 O3 1.822949 1_555
Li2 O0 1.958634 1_545
Li2 O5 1.958994 1_555
Li2 O9 1.961961 1_445
Li3 O6 1.971953 1_545
Li3 O1 1.988480 1_655
Li3 O7 1.999594 1_555
Li3 O12 2.075123 1_555
Cr0 O3 2.002113 1_565
Cr0 O2 2.017514 1_555
Cr0 O6 2.026721 1_555
Cr0 O1 2.039554 1_555
Cr0 O8 2.046696 1_565
Cr0 O13 2.046893 1_455
Cr1 O3 1.907069 1_555
Cr1 O2 1.910494 1_555
Cr1 O7 1.916124 1_555
Cr1 O1 2.005614 1_555
Cr1 O8 2.040452 1_555
Cr1 O15 2.065933 1_455
Cr2 O12 1.912476 1_555
Cr2 O11 1.915900 1_555
Cr2 O4 1.921696 1_555
Cr2 O10 1.999643 1_555
Cr2 O0 2.046148 1_545
Cr2 O5 2.057257 1_555
Fe0 O3 2.007626 1_665
Fe0 O6 2.016207 1_555
Fe0 O13 2.024761 1_555
Fe0 O15 2.039268 1_565
Fe0 O2 2.039578 1_555
Fe0 O7 2.090067 1_555
Fe1 O4 2.005412 1_665
Fe1 O12 2.023616 1_555
Fe1 O14 2.043035 1_555
Fe1 O10 2.053078 1_555
Fe1 O9 2.057628 1_555
Fe1 O0 2.058707 1_655
Fe2 O4 1.995613 1_655
Fe2 O14 2.001197 1_555
Fe2 O9 2.032519 1_545
Fe2 O12 2.041137 1_555
Fe2 O5 2.051659 1_655
Fe2 O11 2.123375 1_555
O0 Sn0 2.071901 1_555
O1 Sn0 2.149286 1_555
O5 Sn0 2.090305 1_555
O6 Sn0 2.143254 1_555
O7 Sn0 2.189511 1_555
O8 Sn1 2.080272 1_554
O9 Sn0 2.065274 1_555
O10 Sn1 2.141084 1_555
O11 Sn1 2.186513 1_555
O13 Sn1 2.065080 1_554
O14 Sn1 2.147953 1_555
O15 Sn1 2.078071 1_554
