# generated using pymatgen
data_LiV4(PO4)3
_symmetry_space_group_name_H-M   'P 1'
_cell_length_a   6.52351200
_cell_length_b   10.03811400
_cell_length_c   14.41937400
_cell_angle_alpha   90.00000000
_cell_angle_beta   90.00000000
_cell_angle_gamma   90.00000000
_symmetry_Int_Tables_number   1
_chemical_formula_structural   LiV4(PO4)3
_chemical_formula_sum   'Li4 V16 P12 O48'
_cell_volume   944.23478507
_cell_formula_units_Z   4
loop_
 _symmetry_equiv_pos_site_id
 _symmetry_equiv_pos_as_xyz
  1  'x, y, z'
loop_
 _atom_site_type_symbol
 _atom_site_label
 _atom_site_symmetry_multiplicity
 _atom_site_fract_x
 _atom_site_fract_y
 _atom_site_fract_z
 _atom_site_occupancy
  Li  Li0  1  0.05541000  0.73995700  0.25000000  1
  Li  Li1  1  0.44459000  0.23995700  0.75000000  1
  Li  Li2  1  0.55541000  0.76004300  0.25000000  1
  Li  Li3  1  0.94459000  0.26004300  0.75000000  1
  V  V0  1  0.14986500  0.45183500  0.59809400  1
  V  V1  1  0.14986500  0.45183500  0.90190600  1
  V  V2  1  0.15340000  0.84688300  0.60934600  1
  V  V3  1  0.15340000  0.84688300  0.89065400  1
  V  V4  1  0.34660000  0.34688300  0.10934600  1
  V  V5  1  0.34660000  0.34688300  0.39065400  1
  V  V6  1  0.35013500  0.95183500  0.09809400  1
  V  V7  1  0.35013500  0.95183500  0.40190600  1
  V  V8  1  0.64986500  0.04816500  0.59809400  1
  V  V9  1  0.64986500  0.04816500  0.90190600  1
  V  V10  1  0.65340000  0.65311700  0.60934600  1
  V  V11  1  0.65340000  0.65311700  0.89065400  1
  V  V12  1  0.84660000  0.15311700  0.10934600  1
  V  V13  1  0.84660000  0.15311700  0.39065400  1
  V  V14  1  0.85013500  0.54816500  0.40190600  1
  V  V15  1  0.85013500  0.54816500  0.09809400  1
  P  P0  1  0.99395100  0.40392900  0.25000000  1
  P  P1  1  0.14654200  0.13085400  0.57469600  1
  P  P2  1  0.14654200  0.13085400  0.92530400  1
  P  P3  1  0.35345800  0.63085400  0.07469600  1
  P  P4  1  0.35345800  0.63085400  0.42530400  1
  P  P5  1  0.50604900  0.90392900  0.75000000  1
  P  P6  1  0.49395100  0.09607100  0.25000000  1
  P  P7  1  0.64654200  0.36914600  0.57469600  1
  P  P8  1  0.64654200  0.36914600  0.92530400  1
  P  P9  1  0.85345800  0.86914600  0.42530400  1
  P  P10  1  0.85345800  0.86914600  0.07469600  1
  P  P11  1  0.00604900  0.59607100  0.75000000  1
  O  O0  1  0.02384000  0.96289700  0.11452900  1
  O  O1  1  0.02384000  0.96289700  0.38547100  1
  O  O2  1  0.06338800  0.44502500  0.75000000  1
  O  O3  1  0.09826300  0.65189600  0.65886700  1
  O  O4  1  0.09826300  0.65189600  0.84113300  1
  O  O5  1  0.08312000  0.20753200  0.01374100  1
  O  O6  1  0.08312000  0.20753200  0.48625900  1
  O  O7  1  0.17773300  0.52493500  0.05156500  1
  O  O8  1  0.17773300  0.52493500  0.44843500  1
  O  O9  1  0.21746900  0.23464300  0.64614200  1
  O  O10  1  0.21746900  0.23464300  0.85385800  1
  O  O11  1  0.22723400  0.38176900  0.25000000  1
  O  O12  1  0.27276600  0.88176900  0.75000000  1
  O  O13  1  0.28253100  0.73464300  0.35385800  1
  O  O14  1  0.28253100  0.73464300  0.14614200  1
  O  O15  1  0.32226700  0.02493500  0.55156500  1
  O  O16  1  0.32226700  0.02493500  0.94843500  1
  O  O17  1  0.41688000  0.70753200  0.51374100  1
  O  O18  1  0.41688000  0.70753200  0.98625900  1
  O  O19  1  0.40173700  0.15189600  0.15886700  1
  O  O20  1  0.40173700  0.15189600  0.34113300  1
  O  O21  1  0.43661200  0.94502500  0.25000000  1
  O  O22  1  0.47616000  0.46289700  0.61452900  1
  O  O23  1  0.47616000  0.46289700  0.88547100  1
  O  O24  1  0.52384000  0.53710300  0.11452900  1
  O  O25  1  0.52384000  0.53710300  0.38547100  1
  O  O26  1  0.56338800  0.05497500  0.75000000  1
  O  O27  1  0.59826300  0.84810400  0.65886700  1
  O  O28  1  0.59826300  0.84810400  0.84113300  1
  O  O29  1  0.58312000  0.29246800  0.01374100  1
  O  O30  1  0.58312000  0.29246800  0.48625900  1
  O  O31  1  0.67773300  0.97506500  0.44843500  1
  O  O32  1  0.67773300  0.97506500  0.05156500  1
  O  O33  1  0.71746900  0.26535700  0.64614200  1
  O  O34  1  0.71746900  0.26535700  0.85385800  1
  O  O35  1  0.72723400  0.11823100  0.25000000  1
  O  O36  1  0.77276600  0.61823100  0.75000000  1
  O  O37  1  0.78253100  0.76535700  0.14614200  1
  O  O38  1  0.78253100  0.76535700  0.35385800  1
  O  O39  1  0.82226700  0.47506500  0.55156500  1
  O  O40  1  0.82226700  0.47506500  0.94843500  1
  O  O41  1  0.91688000  0.79246800  0.51374100  1
  O  O42  1  0.91688000  0.79246800  0.98625900  1
  O  O43  1  0.90173700  0.34810400  0.15886700  1
  O  O44  1  0.90173700  0.34810400  0.34113300  1
  O  O45  1  0.93661200  0.55497500  0.25000000  1
  O  O46  1  0.97616000  0.03710300  0.61452900  1
  O  O47  1  0.97616000  0.03710300  0.88547100  1
loop_
_geom_bond_atom_site_label_1
_geom_bond_atom_site_label_2
_geom_bond_distance
_geom_bond_site_symmetry_2
Li0 O45 2.012104 1_455
Li0 O14 2.107314 1_555
Li0 O13 2.107314 1_555
Li0 O37 2.340209 1_455
Li0 O38 2.340209 1_455
Li1 O26 2.012104 1_555
Li1 O9 2.107314 1_555
Li1 O10 2.107314 1_555
Li1 O33 2.340209 1_555
Li1 O34 2.340209 1_555
Li2 O21 2.012104 1_555
Li2 O37 2.107314 1_555
Li2 O38 2.107314 1_555
Li2 O14 2.340209 1_555
Li2 O13 2.340209 1_555
Li3 O2 2.012104 1_655
Li3 O33 2.107314 1_555
Li3 O34 2.107314 1_555
Li3 O9 2.340209 1_655
Li3 O10 2.340209 1_655
O0 P10 1.565549 1_455
O0 V6 2.144617 1_555
O0 V12 2.233483 1_465
O1 P9 1.565549 1_455
O1 V7 2.144617 1_555
O1 V13 2.233483 1_465
O2 P11 1.561675 1_555
O2 V0 2.262902 1_555
O2 V1 2.262902 1_555
O3 P11 1.550066 1_555
O3 V2 2.114306 1_555
O3 V0 2.216809 1_555
O4 P11 1.550066 1_555
O4 V3 2.114306 1_555
O4 V1 2.216809 1_555
O5 P2 1.545888 1_554
O5 V12 2.139969 1_455
O5 V4 2.609878 1_555
O6 P1 1.545888 1_555
O6 V13 2.139969 1_455
O6 V5 2.609878 1_555
O7 P3 1.598688 1_555
O7 V15 2.252034 1_455
O7 V4 2.258797 1_555
O7 V1 2.286572 1_554
O8 P4 1.598688 1_555
O8 V14 2.252034 1_455
O8 V5 2.258797 1_555
O8 V0 2.286572 1_555
O9 P1 1.536507 1_555
O9 V0 2.329755 1_555
O10 P2 1.536507 1_555
O10 V1 2.329755 1_555
O11 P0 1.537996 1_455
O11 V5 2.200533 1_555
O11 V4 2.200533 1_555
O12 P5 1.537996 1_555
O12 V3 2.200533 1_555
O12 V2 2.200533 1_555
O13 P4 1.536507 1_555
O13 V7 2.329755 1_555
O14 P3 1.536507 1_555
O14 V6 2.329755 1_555
O15 P1 1.598688 1_555
O15 V8 2.252034 1_555
O15 V2 2.258797 1_545
O15 V7 2.286572 1_545
O16 P2 1.598688 1_555
O16 V9 2.252034 1_555
O16 V3 2.258797 1_545
O16 V6 2.286572 1_546
O17 P4 1.545888 1_555
O17 V10 2.139969 1_555
O17 V2 2.609878 1_555
O18 P3 1.545888 1_556
O18 V11 2.139969 1_555
O18 V3 2.609878 1_555
O19 P6 1.550066 1_555
O19 V4 2.114306 1_555
O19 V6 2.216809 1_545
O20 P6 1.550066 1_555
O20 V5 2.114306 1_555
O20 V7 2.216809 1_545
O21 P6 1.561675 1_565
O21 V6 2.262902 1_555
O21 V7 2.262902 1_555
O22 P7 1.565549 1_555
O22 V0 2.144617 1_555
O22 V10 2.233483 1_555
O23 P8 1.565549 1_555
O23 V1 2.144617 1_555
O23 V11 2.233483 1_555
O24 P3 1.565549 1_555
O24 V15 2.144617 1_555
O24 V4 2.233483 1_555
O25 P4 1.565549 1_555
O25 V14 2.144617 1_555
O25 V5 2.233483 1_555
O26 P5 1.561675 1_545
O26 V8 2.262902 1_555
O26 V9 2.262902 1_555
O27 P5 1.550066 1_555
O27 V10 2.114306 1_555
O27 V8 2.216809 1_565
O28 P5 1.550066 1_555
O28 V11 2.114306 1_555
O28 V9 2.216809 1_565
O29 P8 1.545888 1_554
O29 V4 2.139969 1_555
O29 V12 2.609878 1_555
O30 P7 1.545888 1_555
O30 V5 2.139969 1_555
O30 V13 2.609878 1_555
O31 P9 1.598688 1_555
O31 V7 2.252034 1_555
O31 V13 2.258797 1_565
O31 V8 2.286572 1_565
O32 P10 1.598688 1_555
O32 V6 2.252034 1_555
O32 V12 2.258797 1_565
O32 V9 2.286572 1_564
O33 P7 1.536507 1_555
O33 V8 2.329755 1_555
O34 P8 1.536507 1_555
O34 V9 2.329755 1_555
O35 P6 1.537996 1_555
O35 V12 2.200533 1_555
O35 V13 2.200533 1_555
O36 P11 1.537996 1_655
O36 V11 2.200533 1_555
O36 V10 2.200533 1_555
O37 P10 1.536507 1_555
O37 V15 2.329755 1_555
O38 P9 1.536507 1_555
O38 V14 2.329755 1_555
O39 P7 1.598688 1_555
O39 V0 2.252034 1_655
O39 V10 2.258797 1_555
O39 V14 2.286572 1_555
O40 P8 1.598688 1_555
O40 V1 2.252034 1_655
O40 V11 2.258797 1_555
O40 V15 2.286572 1_556
O41 P9 1.545888 1_555
O41 V2 2.139969 1_655
O41 V10 2.609878 1_555
O42 P10 1.545888 1_556
O42 V3 2.139969 1_655
O42 V11 2.609878 1_555
O43 P0 1.550066 1_555
O43 V12 2.114306 1_555
O43 V15 2.216809 1_555
O44 P0 1.550066 1_555
O44 V13 2.114306 1_555
O44 V14 2.216809 1_555
O45 P0 1.561675 1_555
O45 V15 2.262902 1_555
O45 V14 2.262902 1_555
O46 P1 1.565549 1_655
O46 V8 2.144617 1_555
O46 V2 2.233483 1_645
O47 P2 1.565549 1_655
O47 V9 2.144617 1_555
O47 V3 2.233483 1_645
