# generated using pymatgen
data_Mg2Mn3O7
_symmetry_space_group_name_H-M   'P 1'
_cell_length_a   6.64009945
_cell_length_b   6.08594252
_cell_length_c   7.84978406
_cell_angle_alpha   98.98901032
_cell_angle_beta   114.89664714
_cell_angle_gamma   103.73668193
_symmetry_Int_Tables_number   1
_chemical_formula_structural   Mg2Mn3O7
_chemical_formula_sum   'Mg4 Mn6 O14'
_cell_volume   267.43241259
_cell_formula_units_Z   2
loop_
 _symmetry_equiv_pos_site_id
 _symmetry_equiv_pos_as_xyz
  1  'x, y, z'
loop_
 _atom_site_type_symbol
 _atom_site_label
 _atom_site_symmetry_multiplicity
 _atom_site_fract_x
 _atom_site_fract_y
 _atom_site_fract_z
 _atom_site_occupancy
  Mg  Mg0  1  0.30597700  0.67548700  0.46427400  1
  Mg  Mg1  1  0.34189100  0.84324800  0.06464300  1
  Mg  Mg2  1  0.65810400  0.15674400  0.93534600  1
  Mg  Mg3  1  0.69401200  0.32453600  0.53572400  1
  Mn  Mn0  1  0.21602900  0.22207400  0.64168700  1
  Mn  Mn1  1  0.08061300  0.07096600  0.22197700  1
  Mn  Mn2  1  0.63725200  0.64147900  0.92210300  1
  Mn  Mn3  1  0.36275700  0.35851500  0.07789700  1
  Mn  Mn4  1  0.91940500  0.92901900  0.77801100  1
  Mn  Mn5  1  0.78397400  0.77794900  0.35835200  1
  O  O0  1  0.11634600  0.89151000  0.41058600  1
  O  O1  1  0.31744800  0.53638100  0.88408800  1
  O  O2  1  0.13900100  0.34212400  0.42202400  1
  O  O3  1  0.02002900  0.22209800  0.00690900  1
  O  O4  1  0.30406300  0.08508600  0.87660100  1
  O  O5  1  0.56958300  0.82832300  0.74266900  1
  O  O6  1  0.43725800  0.65405500  0.26993900  1
  O  O7  1  0.56272900  0.34595000  0.73005600  1
  O  O8  1  0.43042600  0.17166600  0.25733300  1
  O  O9  1  0.69593400  0.91491800  0.12339500  1
  O  O10  1  0.97997100  0.77786200  0.99307200  1
  O  O11  1  0.86099000  0.65787900  0.57797000  1
  O  O12  1  0.68256100  0.46361800  0.11592300  1
  O  O13  1  0.88364700  0.10851400  0.58942100  1
loop_
_geom_bond_atom_site_label_1
_geom_bond_atom_site_label_2
_geom_bond_distance
_geom_bond_site_symmetry_2
Mg0 O2 1.966536 1_555
Mg0 O0 2.001025 1_555
Mg0 O5 2.018817 1_555
Mg0 O6 2.053164 1_555
Mg1 O1 2.087627 1_554
Mg1 O8 2.092119 1_565
Mg1 O6 2.095397 1_555
Mg1 O9 2.113499 1_555
Mg1 O10 2.142072 1_454
Mg1 O4 2.224962 1_564
Mg2 O12 2.087708 1_556
Mg2 O5 2.092110 1_545
Mg2 O7 2.095427 1_555
Mg2 O4 2.113509 1_555
Mg2 O3 2.142143 1_656
Mg2 O9 2.224944 1_546
Mg3 O11 1.966440 1_555
Mg3 O13 2.001042 1_555
Mg3 O8 2.018775 1_555
Mg3 O7 2.053148 1_555
Mn0 O2 1.896637 1_555
Mn0 O13 1.985352 1_455
Mn0 O7 2.004266 1_555
Mn0 O4 2.059482 1_555
Mn0 O1 2.214742 1_555
Mn0 O0 2.234390 1_545
Mn1 O2 1.926995 1_555
Mn1 O0 1.942600 1_545
Mn1 O3 1.986735 1_555
Mn1 O10 2.068452 1_444
Mn1 O8 2.139156 1_555
Mn1 O9 2.231425 1_445
Mn2 O5 1.920717 1_555
Mn2 O1 1.941468 1_555
Mn2 O9 1.941609 1_556
Mn2 O7 1.963239 1_555
Mn2 O12 1.964921 1_556
Mn2 O10 2.017194 1_555
Mn3 O8 1.920752 1_555
Mn3 O12 1.941439 1_555
Mn3 O4 1.941559 1_554
Mn3 O6 1.963310 1_555
Mn3 O1 1.964874 1_554
Mn3 O3 2.017230 1_555
Mn4 O11 1.926830 1_555
Mn4 O13 1.942639 1_565
Mn4 O10 1.986793 1_555
Mn4 O3 2.068350 1_666
Mn4 O5 2.139254 1_555
Mn4 O4 2.231299 1_665
Mn5 O11 1.896409 1_555
Mn5 O0 1.985369 1_655
Mn5 O6 2.004301 1_555
Mn5 O9 2.059694 1_555
Mn5 O12 2.214979 1_555
Mn5 O13 2.234274 1_565
