# generated using pymatgen
data_Hf2N2O
_symmetry_space_group_name_H-M   'P 1'
_cell_length_a   8.64876209
_cell_length_b   8.66889732
_cell_length_c   8.67194493
_cell_angle_alpha   109.40571256
_cell_angle_beta   109.33451991
_cell_angle_gamma   109.37598965
_symmetry_Int_Tables_number   1
_chemical_formula_structural   Hf2N2O
_chemical_formula_sum   'Hf16 N16 O8'
_cell_volume   502.33834744
_cell_formula_units_Z   8
loop_
 _symmetry_equiv_pos_site_id
 _symmetry_equiv_pos_as_xyz
  1  'x, y, z'
loop_
 _atom_site_type_symbol
 _atom_site_label
 _atom_site_symmetry_multiplicity
 _atom_site_fract_x
 _atom_site_fract_y
 _atom_site_fract_z
 _atom_site_occupancy
  Hf  Hf0  1  0.00987559  0.49748456  0.99639880  1
  Hf  Hf1  1  0.74830518  0.53163819  0.28837697  1
  Hf  Hf2  1  0.22380851  0.75337353  0.47302165  1
  Hf  Hf3  1  0.70500078  0.74253147  0.95853413  1
  Hf  Hf4  1  0.25436215  0.96358110  0.21292347  1
  Hf  Hf5  1  0.04224844  0.29241527  0.25702907  1
  Hf  Hf6  1  0.99777863  0.00513767  0.50839014  1
  Hf  Hf7  1  0.49165344  0.99809290  0.99689491  1
  Hf  Hf8  1  0.96553572  0.71340898  0.74080935  1
  Hf  Hf9  1  0.52893847  0.79264218  0.24915422  1
  Hf  Hf10  1  0.51137094  0.50944833  0.51648281  1
  Hf  Hf11  1  0.46478160  0.21698028  0.75753493  1
  Hf  Hf12  1  0.75168936  0.03207256  0.78234750  1
  Hf  Hf13  1  0.28252561  0.24513556  0.02656395  1
  Hf  Hf14  1  0.78811561  0.24997105  0.53077793  1
  Hf  Hf15  1  0.24865409  0.46440839  0.71336168  1
  N  N0  1  0.03398234  0.26352598  0.99301547  1
  N  N1  1  0.54964622  0.27643178  0.03587613  1
  N  N2  1  0.26833653  0.72528471  0.23597242  1
  N  N3  1  0.46879982  0.95828560  0.72565011  1
  N  N4  1  0.01355609  0.77109115  0.54015534  1
  N  N5  1  0.45843442  0.72942129  0.96742006  1
  N  N6  1  0.27049057  0.54198403  0.50465551  1
  N  N7  1  0.98415827  0.22066062  0.44592080  1
  N  N8  1  0.22478299  0.23262439  0.76913414  1
  N  N9  1  0.76077134  0.98781021  0.53452026  1
  N  N10  1  0.53027880  0.04645308  0.27252142  1
  N  N11  1  0.74006824  0.77370576  0.73368754  1
  N  N12  1  0.51616453  0.46421326  0.73859519  1
  N  N13  1  0.22353416  0.96727462  0.95755157  1
  N  N14  1  0.72272032  0.45218652  0.48261986  1
  N  N15  1  0.04403222  0.51166794  0.77492888  1
  O  O0  1  0.94868591  0.48374477  0.22356888  1
  O  O1  1  0.96165235  0.73570106  0.01911804  1
  O  O2  1  0.77177852  0.75833096  0.22565943  1
  O  O3  1  0.23728098  0.01591977  0.46081157  1
  O  O4  1  0.26292275  0.22795155  0.27598565  1
  O  O5  1  0.73005429  0.27713708  0.76520200  1
  O  O6  1  0.77355380  0.03490900  0.04787444  1
  O  O7  1  0.48966544  0.53535885  0.26095580  1
loop_
_geom_bond_atom_site_label_1
_geom_bond_atom_site_label_2
_geom_bond_distance
_geom_bond_site_symmetry_2
Hf0 N15 2.073524 1_555
Hf0 N0 2.098300 1_555
Hf0 N2 2.117155 1_556
Hf0 O5 2.167991 1_455
Hf0 O1 2.198371 1_456
Hf0 O0 2.231507 1_456
Hf1 N14 2.068190 1_555
Hf1 N1 2.099700 1_555
Hf1 O0 2.111635 1_555
Hf1 O2 2.171999 1_555
Hf1 O7 2.182227 1_555
Hf1 N4 2.202443 1_655
Hf2 N3 2.070594 1_555
Hf2 N6 2.085188 1_555
Hf2 N4 2.120399 1_555
Hf2 N2 2.165001 1_555
Hf2 O3 2.279747 1_565
Hf2 O0 2.312158 1_455
Hf3 N12 2.095504 1_555
Hf3 N5 2.126077 1_555
Hf3 O1 2.131278 1_556
Hf3 O2 2.137581 1_556
Hf3 N11 2.157388 1_555
Hf3 O6 2.183974 1_566
Hf4 N10 2.068066 1_565
Hf4 O3 2.110784 1_565
Hf4 O4 2.141181 1_565
Hf4 N13 2.153658 1_554
Hf4 N2 2.178531 1_555
Hf4 O1 2.189534 1_455
Hf5 N7 2.082606 1_455
Hf5 N6 2.112062 1_555
Hf5 O4 2.131409 1_555
Hf5 O0 2.131877 1_455
Hf5 O6 2.179371 1_455
Hf5 N0 2.192809 1_554
Hf6 N8 2.093959 1_655
Hf6 N9 2.097988 1_545
Hf6 N7 2.138790 1_555
Hf6 N4 2.177441 1_645
Hf6 O3 2.220980 1_655
Hf6 O2 2.230585 1_545
Hf7 N13 2.137651 1_555
Hf7 N5 2.164322 1_555
Hf7 N10 2.170937 1_566
Hf7 N1 2.174989 1_566
Hf7 N3 2.190566 1_555
Hf7 O6 2.217609 1_566
Hf8 N4 2.090278 1_655
Hf8 N13 2.137947 1_655
Hf8 N15 2.146081 1_655
Hf8 N11 2.167401 1_555
Hf8 N14 2.216558 1_555
Hf8 O1 2.368840 1_556
Hf9 N2 2.084658 1_555
Hf9 N5 2.131507 1_554
Hf9 N10 2.137191 1_565
Hf9 N9 2.165193 1_555
Hf9 O7 2.184580 1_555
Hf9 O2 2.280064 1_555
Hf10 N12 2.079749 1_555
Hf10 N11 2.089777 1_555
Hf10 N14 2.129446 1_555
Hf10 N6 2.167465 1_555
Hf10 O7 2.253720 1_555
Hf10 O4 2.256787 1_555
Hf11 N1 2.092798 1_556
Hf11 N12 2.113812 1_555
Hf11 O5 2.149922 1_555
Hf11 N8 2.157075 1_555
Hf11 N3 2.180121 1_545
Hf11 O3 2.218605 1_555
Hf12 N9 2.087108 1_545
Hf12 N11 2.097420 1_545
Hf12 N3 2.143127 1_545
Hf12 N0 2.164367 1_655
Hf12 O6 2.238181 1_556
Hf12 O5 2.241786 1_555
Hf13 N8 2.076003 1_554
Hf13 N13 2.108310 1_544
Hf13 N0 2.138903 1_554
Hf13 N1 2.205324 1_555
Hf13 O7 2.206961 1_555
Hf13 O4 2.273666 1_555
Hf14 N7 2.113925 1_555
Hf14 N14 2.134292 1_555
Hf14 N10 2.134952 1_555
Hf14 O5 2.208316 1_555
Hf14 N15 2.213986 1_655
Hf14 N9 2.217964 1_545
Hf15 N15 2.132188 1_555
Hf15 N5 2.155848 1_555
Hf15 N6 2.171285 1_555
Hf15 N8 2.179570 1_555
Hf15 N12 2.251309 1_555
Hf15 N7 2.258276 1_455
