# generated using pymatgen
data_LiMn(SiO3)2
_symmetry_space_group_name_H-M   'P 1'
_cell_length_a   5.22175200
_cell_length_b   8.92372960
_cell_length_c   18.41524472
_cell_angle_alpha   89.80266925
_cell_angle_beta   89.23607905
_cell_angle_gamma   89.91170375
_symmetry_Int_Tables_number   1
_chemical_formula_structural   LiMn(SiO3)2
_chemical_formula_sum   'Li8 Mn8 Si16 O48'
_cell_volume   858.02210020
_cell_formula_units_Z   8
loop_
 _symmetry_equiv_pos_site_id
 _symmetry_equiv_pos_as_xyz
  1  'x, y, z'
loop_
 _atom_site_type_symbol
 _atom_site_label
 _atom_site_symmetry_multiplicity
 _atom_site_fract_x
 _atom_site_fract_y
 _atom_site_fract_z
 _atom_site_occupancy
  Li  Li0  1  0.62749200  0.98802300  0.12327800  1
  Li  Li1  1  0.12737900  0.51114400  0.12422800  1
  Li  Li2  1  0.62253200  0.84124100  0.37537300  1
  Li  Li3  1  0.62549600  0.50617000  0.37467000  1
  Li  Li4  1  0.87359100  0.00197500  0.62272600  1
  Li  Li5  1  0.87544700  0.34511800  0.62320900  1
  Li  Li6  1  0.37679100  0.65962700  0.87662600  1
  Li  Li7  1  0.87484400  0.84055000  0.87694500  1
  Mn  Mn0  1  0.61261800  0.35216000  0.12556600  1
  Mn  Mn1  1  0.11086300  0.14678900  0.12584100  1
  Mn  Mn2  1  0.11994500  0.64792300  0.37506900  1
  Mn  Mn3  1  0.12920000  0.00853900  0.37315400  1
  Mn  Mn4  1  0.37090200  0.51150600  0.62369600  1
  Mn  Mn5  1  0.37920300  0.14772100  0.62252700  1
  Mn  Mn6  1  0.37202600  0.99766200  0.87516000  1
  Mn  Mn7  1  0.87161100  0.50133300  0.87612800  1
  Si  Si0  1  0.69574700  0.65944800  0.02895300  1
  Si  Si1  1  0.19534300  0.84024100  0.02898300  1
  Si  Si2  1  0.43013900  0.65705800  0.22840200  1
  Si  Si3  1  0.93672800  0.83696700  0.22784800  1
  Si  Si4  1  0.44142000  0.16390300  0.27190000  1
  Si  Si5  1  0.93807500  0.34032700  0.27187200  1
  Si  Si6  1  0.70452600  0.16351900  0.47324300  1
  Si  Si7  1  0.20813200  0.33965300  0.47332100  1
  Si  Si8  1  0.79747300  0.66418500  0.52533600  1
  Si  Si9  1  0.29318000  0.84053100  0.52548100  1
  Si  Si10  1  0.06789000  0.66165800  0.72698800  1
  Si  Si11  1  0.57082600  0.84472700  0.72663500  1
  Si  Si12  1  0.08205200  0.15687200  0.77129200  1
  Si  Si13  1  0.57565400  0.33956500  0.77237300  1
  Si  Si14  1  0.78784600  0.16388200  0.97232400  1
  Si  Si15  1  0.28791000  0.33516800  0.97241200  1
  O  O0  1  0.40183500  0.70831100  0.05391800  1
  O  O1  1  0.90064200  0.79141900  0.05407100  1
  O  O2  1  0.79172600  0.16184800  0.06131100  1
  O  O3  1  0.29272200  0.33673500  0.06112900  1
  O  O4  1  0.78099800  0.50670600  0.07196600  1
  O  O5  1  0.27979600  0.99224800  0.07199400  1
  O  O6  1  0.45122600  0.17623500  0.18244100  1
  O  O7  1  0.95497500  0.32050800  0.18212500  1
  O  O8  1  0.93758100  0.00468400  0.19503800  1
  O  O9  1  0.44127200  0.49157800  0.19378800  1
  O  O10  1  0.66232000  0.76795500  0.20072500  1
  O  O11  1  0.16374800  0.72841600  0.19496900  1
  O  O12  1  0.16350300  0.22780600  0.30568100  1
  O  O13  1  0.67123000  0.26496400  0.30375700  1
  O  O14  1  0.94041700  0.50611800  0.30282200  1
  O  O15  1  0.42629100  0.99848300  0.30941500  1
  O  O16  1  0.42654000  0.65959800  0.31742600  1
  O  O17  1  0.95738400  0.83473300  0.31737500  1
  O  O18  1  0.81758700  0.01880500  0.42989700  1
  O  O19  1  0.29799000  0.49073200  0.43293600  1
  O  O20  1  0.81587600  0.65126400  0.43694200  1
  O  O21  1  0.28466800  0.84736100  0.43632900  1
  O  O22  1  0.40555900  0.20092100  0.44557300  1
  O  O23  1  0.90853100  0.29991900  0.45261300  1
  O  O24  1  0.09789600  0.69936000  0.55285200  1
  O  O25  1  0.59326700  0.80013800  0.54721300  1
  O  O26  1  0.68333400  0.15189900  0.56197700  1
  O  O27  1  0.22291600  0.34266700  0.56305300  1
  O  O28  1  0.68433400  0.51850000  0.56830300  1
  O  O29  1  0.19568600  0.98908100  0.56576100  1
  O  O30  1  0.07607300  0.15810400  0.68338400  1
  O  O31  1  0.54793200  0.34387300  0.68486800  1
  O  O32  1  0.56009300  0.00890900  0.69084400  1
  O  O33  1  0.07313000  0.50016000  0.68477700  1
  O  O34  1  0.35046800  0.72455800  0.69439500  1
  O  O35  1  0.84393800  0.77264000  0.69647400  1
  O  O36  1  0.35015600  0.22730700  0.80614200  1
  O  O37  1  0.85082400  0.26846200  0.80109300  1
  O  O38  1  0.58185400  0.50132900  0.81273800  1
  O  O39  1  0.08034400  0.99527400  0.81237300  1
  O  O40  1  0.05832200  0.65014100  0.81417100  1
  O  O41  1  0.55378600  0.84490300  0.81453700  1
  O  O42  1  0.67545900  0.01717700  0.93246700  1
  O  O43  1  0.17564600  0.48289800  0.93283800  1
  O  O44  1  0.70090400  0.64602200  0.94091100  1
  O  O45  1  0.19973100  0.85381600  0.94092000  1
  O  O46  1  0.09272300  0.19551500  0.94615400  1
  O  O47  1  0.59388800  0.30473200  0.94595600  1
loop_
_geom_bond_atom_site_label_1
_geom_bond_atom_site_label_2
_geom_bond_distance
_geom_bond_site_symmetry_2
Li0 O5 2.057895 1_555
Li0 O2 2.099901 1_565
Li0 O8 2.109359 1_565
Li0 O6 2.199131 1_565
Li0 O10 2.431106 1_555
Li0 O1 2.587650 1_555
Li1 O4 2.060623 1_455
Li1 O9 2.100351 1_555
Li1 O3 2.121205 1_555
Li1 O7 2.192685 1_455
Li1 O11 2.348936 1_555
Li1 O0 2.601664 1_555
Li2 O17 2.037576 1_555
Li2 O21 2.079159 1_555
Li2 O15 2.123990 1_555
Li2 O18 2.144647 1_565
Li2 O16 2.204469 1_555
Li2 O20 2.278347 1_555
Li3 O20 2.006081 1_555
Li3 O19 2.011388 1_555
Li3 O16 2.019905 1_555
Li3 O14 2.096844 1_555
Li3 O13 2.530788 1_555
Li4 O29 1.973745 1_645
Li4 O26 2.010884 1_555
Li4 O32 2.050033 1_555
Li4 O30 2.086522 1_655
Li4 O35 2.456188 1_545
Li5 O31 2.040193 1_555
Li5 O33 2.076453 1_655
Li5 O28 2.103206 1_555
Li5 O27 2.113328 1_655
Li5 O30 2.263494 1_655
Li5 O26 2.302108 1_555
Li6 O40 2.036544 1_555
Li6 O44 2.081424 1_555
Li6 O38 2.121185 1_555
Li6 O43 2.150999 1_555
Li6 O41 2.204224 1_555
Li6 O45 2.289009 1_555
Li7 O41 2.045428 1_555
Li7 O45 2.082039 1_655
Li7 O39 2.105010 1_655
Li7 O42 2.142744 1_565
Li7 O40 2.262822 1_655
Li7 O44 2.277755 1_555
Mn0 O4 1.902775 1_555
Mn0 O9 1.975881 1_555
Mn0 O6 2.059375 1_555
Mn0 O3 2.066883 1_555
Mn0 O7 2.099179 1_555
Mn0 O2 2.266820 1_555
Mn1 O5 1.909356 1_545
Mn1 O8 2.003065 1_455
Mn1 O7 2.030954 1_455
Mn1 O2 2.063561 1_455
Mn1 O6 2.089720 1_555
Mn1 O3 2.270658 1_555
Mn2 O16 1.911852 1_555
Mn2 O20 1.942165 1_455
Mn2 O19 1.994915 1_555
Mn2 O14 2.073336 1_455
Mn2 O17 2.153106 1_455
Mn2 O21 2.285686 1_555
Mn3 O18 1.924270 1_455
Mn3 O15 1.934986 1_545
Mn3 O21 2.022695 1_545
Mn3 O17 2.074963 1_445
Mn3 O12 2.320121 1_555
Mn3 O22 2.623548 1_555
Mn4 O33 1.909510 1_555
Mn4 O28 1.917936 1_555
Mn4 O27 2.037777 1_555
Mn4 O31 2.091213 1_555
Mn4 O34 2.309499 1_555
Mn4 O24 2.563512 1_555
Mn5 O26 1.928585 1_555
Mn5 O30 1.929503 1_555
Mn5 O32 2.006670 1_555
Mn5 O29 2.014016 1_545
Mn5 O27 2.213195 1_555
Mn5 O31 2.281167 1_555
Mn6 O42 1.923856 1_565
Mn6 O39 1.924675 1_555
Mn6 O45 1.971663 1_555
Mn6 O41 1.995902 1_555
Mn6 O36 2.411066 1_565
Mn6 O46 2.628824 1_565
Mn7 O43 1.918428 1_655
Mn7 O38 1.923297 1_555
Mn7 O44 1.965611 1_555
Mn7 O40 1.994891 1_655
Mn7 O37 2.502799 1_555
Mn7 O47 2.603299 1_555
O0 Si0 1.654511 1_555
O0 Si1 1.662857 1_555
O1 Si1 1.659234 1_655
O1 Si0 1.663254 1_555
O2 Si14 1.639150 1_554
O3 Si15 1.634382 1_554
O4 Si0 1.638146 1_555
O5 Si1 1.637192 1_555
O6 Si4 1.650821 1_555
O7 Si5 1.663912 1_555
O8 Si3 1.612078 1_545
O9 Si2 1.611074 1_555
O10 Si2 1.640960 1_555
O10 Si3 1.644944 1_555
O11 Si3 1.640602 1_455
O11 Si2 1.654361 1_555
O12 Si5 1.671254 1_455
O12 Si4 1.671532 1_555
O13 Si4 1.619648 1_555
O13 Si5 1.648321 1_555
O14 Si5 1.587416 1_555
O15 Si4 1.629248 1_565
O16 Si2 1.639490 1_555
O17 Si3 1.653670 1_555
O18 Si6 1.626524 1_555
O19 Si7 1.605180 1_555
O20 Si8 1.633812 1_555
O21 Si9 1.643868 1_555
O22 Si6 1.681251 1_555
O22 Si7 1.686099 1_555
O23 Si7 1.654441 1_655
O23 Si6 1.658524 1_555
O24 Si8 1.685237 1_455
O24 Si9 1.693164 1_555
O25 Si8 1.661062 1_555
O25 Si9 1.661175 1_555
O26 Si6 1.639265 1_555
O27 Si7 1.655580 1_555
O28 Si8 1.627284 1_555
O29 Si9 1.600400 1_555
O30 Si12 1.619564 1_555
O31 Si13 1.620155 1_555
O32 Si11 1.605677 1_545
O33 Si10 1.639807 1_555
O34 Si10 1.682017 1_555
O34 Si11 1.689037 1_555
O35 Si10 1.635317 1_655
O35 Si11 1.653677 1_555
O36 Si13 1.660287 1_555
O36 Si12 1.672216 1_555
O37 Si12 1.653188 1_655
O37 Si13 1.661942 1_555
O38 Si13 1.626521 1_555
O39 Si12 1.626121 1_565
O40 Si10 1.608545 1_555
O41 Si11 1.620002 1_555
O42 Si14 1.617864 1_555
O43 Si15 1.617115 1_555
O44 Si0 1.626009 1_556
O45 Si1 1.625663 1_556
O46 Si14 1.681180 1_455
O46 Si15 1.687279 1_555
O47 Si15 1.686037 1_555
O47 Si14 1.687112 1_555
