# generated using pymatgen
data_Li2CoSn3(PO4)6
_symmetry_space_group_name_H-M   'P 1'
_cell_length_a   8.79101966
_cell_length_b   8.79101966
_cell_length_c   8.79101915
_cell_angle_alpha   59.06873758
_cell_angle_beta   59.06873758
_cell_angle_gamma   59.06873684
_symmetry_Int_Tables_number   1
_chemical_formula_structural   Li2CoSn3(PO4)6
_chemical_formula_sum   'Li2 Co1 Sn3 P6 O24'
_cell_volume   470.19890000
_cell_formula_units_Z   1
loop_
 _symmetry_equiv_pos_site_id
 _symmetry_equiv_pos_as_xyz
  1  'x, y, z'
loop_
 _atom_site_type_symbol
 _atom_site_label
 _atom_site_symmetry_multiplicity
 _atom_site_fract_x
 _atom_site_fract_y
 _atom_site_fract_z
 _atom_site_occupancy
  Li  Li0  1  0.01684000  0.01684000  0.01684000  1
  Li  Li1  1  0.50143300  0.50143300  0.50143300  1
  Co  Co0  1  0.14318200  0.14318200  0.14318200  1
  Sn  Sn0  1  0.85777500  0.85777500  0.85777500  1
  Sn  Sn1  1  0.64287500  0.64287500  0.64287500  1
  Sn  Sn2  1  0.35590600  0.35590600  0.35590600  1
  P  P0  1  0.25004400  0.53215300  0.95882300  1
  P  P1  1  0.95882300  0.25004400  0.53215300  1
  P  P2  1  0.53215300  0.95882300  0.25004400  1
  P  P3  1  0.44915600  0.04540400  0.75843600  1
  P  P4  1  0.04540400  0.75843600  0.44915600  1
  P  P5  1  0.75843600  0.44915600  0.04540400  1
  O  O0  1  0.70754900  0.47994200  0.88575500  1
  O  O1  1  0.47994200  0.88575500  0.70754900  1
  O  O2  1  0.08872600  0.72594700  0.93804100  1
  O  O3  1  0.88575500  0.70754900  0.47994200  1
  O  O4  1  0.41560500  0.55101000  0.76589700  1
  O  O5  1  0.19851700  0.37207900  0.99656700  1
  O  O6  1  0.93804100  0.08872600  0.72594700  1
  O  O7  1  0.76589700  0.41560500  0.55101000  1
  O  O8  1  0.55101000  0.76589700  0.41560500  1
  O  O9  1  0.61445600  0.01142400  0.79990600  1
  O  O10  1  0.26218300  0.06267000  0.92735700  1
  O  O11  1  0.01142400  0.79990600  0.61445600  1
  O  O12  1  0.99656700  0.19851700  0.37207900  1
  O  O13  1  0.72594700  0.93804100  0.08872600  1
  O  O14  1  0.37207900  0.99656700  0.19851700  1
  O  O15  1  0.43001600  0.23520500  0.59206100  1
  O  O16  1  0.23520500  0.59206100  0.43001600  1
  O  O17  1  0.06267000  0.92735700  0.26218300  1
  O  O18  1  0.79990600  0.61445600  0.01142400  1
  O  O19  1  0.59206100  0.43001600  0.23520500  1
  O  O20  1  0.10824100  0.30814400  0.51067300  1
  O  O21  1  0.92735700  0.26218300  0.06267000  1
  O  O22  1  0.51067300  0.10824100  0.30814400  1
  O  O23  1  0.30814400  0.51067300  0.10824100  1
loop_
_geom_bond_atom_site_label_1
_geom_bond_atom_site_label_2
_geom_bond_distance
_geom_bond_site_symmetry_2
Li0 O17 2.063079 1_545
Li0 O21 2.063079 1_455
Li0 O10 2.063079 1_554
Li1 O4 2.250493 1_555
Li1 O7 2.250493 1_555
Li1 O8 2.250493 1_555
Li1 O19 2.363454 1_555
Li1 O16 2.363454 1_555
Li1 O15 2.363454 1_555
Co0 O12 1.908529 1_455
Co0 O14 1.908529 1_545
Co0 O5 1.908530 1_554
Co0 O10 1.942691 1_554
Co0 O21 1.942691 1_455
Co0 O17 1.942691 1_545
O0 P5 1.540652 1_556
O0 Sn1 2.049533 1_555
O1 P3 1.540652 1_565
O1 Sn1 2.049533 1_555
O2 P0 1.552288 1_555
O2 Sn0 2.043603 1_455
O3 P4 1.540652 1_655
O3 Sn1 2.049533 1_555
O4 P0 1.563221 1_555
O4 Sn1 2.086413 1_555
O5 P0 1.521942 1_555
O6 P1 1.552288 1_555
O6 Sn0 2.043603 1_545
O7 P1 1.563221 1_555
O7 Sn1 2.086413 1_555
O8 P2 1.563221 1_555
O8 Sn1 2.086413 1_555
O9 P3 1.523224 1_555
O9 Sn0 2.025033 1_545
O10 P3 1.547876 1_555
O11 P4 1.523224 1_555
O11 Sn0 2.025033 1_455
O12 P1 1.521941 1_555
O13 P2 1.552288 1_555
O13 Sn0 2.043603 1_554
O14 P2 1.521941 1_555
O15 P3 1.551498 1_555
O15 Sn2 2.067730 1_555
O16 P4 1.551498 1_555
O16 Sn2 2.067730 1_555
O17 P4 1.547876 1_555
O18 P5 1.523224 1_555
O18 Sn0 2.025033 1_554
O19 P5 1.551498 1_555
O19 Sn2 2.067730 1_555
O20 P1 1.535406 1_455
O20 Sn2 2.018663 1_555
O21 P5 1.547876 1_555
O22 P2 1.535406 1_545
O22 Sn2 2.018663 1_555
O23 P0 1.535406 1_554
O23 Sn2 2.018663 1_555
