# generated using pymatgen
data_CBrN
_symmetry_space_group_name_H-M   'P 1'
_cell_length_a   5.47786900
_cell_length_b   5.47786900
_cell_length_c   5.65664700
_cell_angle_alpha   90.00000000
_cell_angle_beta   90.00000000
_cell_angle_gamma   90.00000000
_symmetry_Int_Tables_number   1
_chemical_formula_structural   CBrN
_chemical_formula_sum   'C2 Br2 N2'
_cell_volume   169.73928247
_cell_formula_units_Z   2
loop_
 _symmetry_equiv_pos_site_id
 _symmetry_equiv_pos_as_xyz
  1  'x, y, z'
loop_
 _atom_site_type_symbol
 _atom_site_label
 _atom_site_symmetry_multiplicity
 _atom_site_fract_x
 _atom_site_fract_y
 _atom_site_fract_z
 _atom_site_occupancy
  C  C0  1  0.00000000  0.50000000  0.42456100  1
  C  C1  1  0.50000000  0.00000000  0.57543900  1
  Br  Br0  1  0.00000000  0.50000000  0.74297500  1
  Br  Br1  1  0.50000000  0.00000000  0.25702500  1
  N  N0  1  0.00000000  0.50000000  0.21820500  1
  N  N1  1  0.50000000  0.00000000  0.78179500  1
loop_
_geom_bond_atom_site_label_1
_geom_bond_atom_site_label_2
_geom_bond_distance
_geom_bond_site_symmetry_2
C0 N0 1.167283 1_555
C1 N1 1.167283 1_555
Br0 C0 1.801156 1_555
Br1 C1 1.801156 1_555
