# generated using pymatgen
data_KLi2Mn2O4
_symmetry_space_group_name_H-M   'P 1'
_cell_length_a   3.26071569
_cell_length_b   5.47574100
_cell_length_c   12.74926000
_cell_angle_alpha   89.99979064
_cell_angle_beta   89.99820069
_cell_angle_gamma   86.91743889
_symmetry_Int_Tables_number   1
_chemical_formula_structural   KLi2Mn2O4
_chemical_formula_sum   'K2 Li4 Mn4 O8'
_cell_volume   227.30655874
_cell_formula_units_Z   2
loop_
 _symmetry_equiv_pos_site_id
 _symmetry_equiv_pos_as_xyz
  1  'x, y, z'
loop_
 _atom_site_type_symbol
 _atom_site_label
 _atom_site_symmetry_multiplicity
 _atom_site_fract_x
 _atom_site_fract_y
 _atom_site_fract_z
 _atom_site_occupancy
  K  K0  1  0.05042300  0.34279900  0.75001300  1
  K  K1  1  0.94959300  0.65720800  0.25000900  1
  Li  Li0  1  0.47495400  0.14864700  0.35749800  1
  Li  Li1  1  0.47496600  0.14865100  0.14251700  1
  Li  Li2  1  0.52504300  0.85136300  0.64252300  1
  Li  Li3  1  0.52503800  0.85136000  0.85750700  1
  Mn  Mn0  1  0.99964800  0.99961900  0.99983900  1
  Mn  Mn1  1  0.50021400  0.49992500  0.50008400  1
  Mn  Mn2  1  0.00021200  0.00006200  0.49992000  1
  Mn  Mn3  1  0.49994300  0.50027700  0.00000800  1
  O  O0  1  0.96830900  0.28922400  0.40239500  1
  O  O1  1  0.96832400  0.28921700  0.09763000  1
  O  O2  1  0.03168400  0.71082000  0.90239500  1
  O  O3  1  0.03168500  0.71079200  0.59762300  1
  O  O4  1  0.42860400  0.83640800  0.41067800  1
  O  O5  1  0.42861300  0.83643500  0.08935000  1
  O  O6  1  0.57137800  0.16359700  0.58933700  1
  O  O7  1  0.57137100  0.16359300  0.91067600  1
loop_
_geom_bond_atom_site_label_1
_geom_bond_atom_site_label_2
_geom_bond_distance
_geom_bond_site_symmetry_2
K0 O7 2.786259 1_455
K0 O6 2.786437 1_455
K0 O3 2.797416 1_555
K0 O2 2.797463 1_555
K0 O7 2.804458 1_555
K0 O6 2.804513 1_555
K1 O5 2.786205 1_655
K1 O4 2.786303 1_655
K1 O1 2.797319 1_555
K1 O0 2.797347 1_555
K1 O4 2.804509 1_555
K1 O5 2.804518 1_555
Li0 O4 1.852976 1_545
Li0 O0 1.874178 1_455
Li0 O0 1.908221 1_555
Li1 O5 1.852808 1_545
Li1 O1 1.874139 1_455
Li1 O1 1.908132 1_555
Li2 O6 1.852972 1_565
Li2 O3 1.874170 1_655
Li2 O3 1.908226 1_555
Li3 O7 1.852895 1_565
Li3 O2 1.874103 1_655
Li3 O2 1.908061 1_555
Mn0 O7 1.978342 1_565
Mn0 O5 1.980631 1_656
Mn0 O2 2.009315 1_655
Mn0 O1 2.015461 1_566
Mn0 O5 2.397196 1_556
Mn0 O7 2.398674 1_665
Mn1 O6 2.166652 1_555
Mn1 O4 2.168483 1_555
Mn1 O0 2.241086 1_555
Mn1 O3 2.241384 1_555
Mn1 O3 2.469453 1_655
Mn1 O0 2.470986 1_455
Mn2 O4 1.978402 1_545
Mn2 O6 1.980398 1_455
Mn2 O0 2.011505 1_455
Mn2 O3 2.013360 1_545
Mn2 O6 2.397823 1_555
Mn2 O4 2.398183 1_445
Mn3 O5 2.166495 1_555
Mn3 O7 2.168879 1_554
Mn3 O2 2.240532 1_554
Mn3 O1 2.242210 1_555
Mn3 O2 2.469613 1_654
Mn3 O1 2.470812 1_455
