# generated using pymatgen
data_Cr3NiTe2(PO4)6
_symmetry_space_group_name_H-M   'P 1'
_cell_length_a   8.82402944
_cell_length_b   8.82402894
_cell_length_c   8.82402907
_cell_angle_alpha   58.53971074
_cell_angle_beta   58.53971147
_cell_angle_gamma   58.53971545
_symmetry_Int_Tables_number   1
_chemical_formula_structural   Cr3NiTe2(PO4)6
_chemical_formula_sum   'Cr3 Ni1 Te2 P6 O24'
_cell_volume   469.60590678
_cell_formula_units_Z   1
loop_
 _symmetry_equiv_pos_site_id
 _symmetry_equiv_pos_as_xyz
  1  'x, y, z'
loop_
 _atom_site_type_symbol
 _atom_site_label
 _atom_site_symmetry_multiplicity
 _atom_site_fract_x
 _atom_site_fract_y
 _atom_site_fract_z
 _atom_site_occupancy
  Cr  Cr0  1  0.14373300  0.14373300  0.14373300  1
  Cr  Cr1  1  0.35369200  0.35369200  0.35369200  1
  Cr  Cr2  1  0.64726700  0.64726700  0.64726700  1
  Ni  Ni0  1  0.84685700  0.84685700  0.84685700  1
  Te  Te0  1  0.98747100  0.98747100  0.98747100  1
  Te  Te1  1  0.49593100  0.49593100  0.49593100  1
  P  P0  1  0.04091200  0.75151200  0.45852100  1
  P  P1  1  0.45852100  0.04091200  0.75151200  1
  P  P2  1  0.75151200  0.45852100  0.04091200  1
  P  P3  1  0.25435000  0.53732600  0.96370000  1
  P  P4  1  0.53732600  0.96370000  0.25435000  1
  P  P5  1  0.96370000  0.25435000  0.53732600  1
  O  O0  1  0.12082100  0.29866500  0.51180700  1
  O  O1  1  0.29866500  0.51180700  0.12082100  1
  O  O2  1  0.06586300  0.91422800  0.26033900  1
  O  O3  1  0.51180700  0.12082100  0.29866500  1
  O  O4  1  0.23652700  0.57927500  0.43202800  1
  O  O5  1  0.02236600  0.79789500  0.61019000  1
  O  O6  1  0.26033900  0.06586300  0.91422800  1
  O  O7  1  0.43202800  0.23652700  0.57927500  1
  O  O8  1  0.57927500  0.43202800  0.23652700  1
  O  O9  1  0.19363100  0.38925300  0.99375000  1
  O  O10  1  0.08426700  0.74132900  0.93918700  1
  O  O11  1  0.38925300  0.99375000  0.19363100  1
  O  O12  1  0.61019000  0.02236600  0.79789500  1
  O  O13  1  0.91422800  0.26033900  0.06586300  1
  O  O14  1  0.79789500  0.61019000  0.02236600  1
  O  O15  1  0.41826300  0.56531700  0.76970300  1
  O  O16  1  0.56531700  0.76970300  0.41826300  1
  O  O17  1  0.74132900  0.93918700  0.08426700  1
  O  O18  1  0.99375000  0.19363100  0.38925300  1
  O  O19  1  0.76970300  0.41826300  0.56531700  1
  O  O20  1  0.48934500  0.88438500  0.70028800  1
  O  O21  1  0.93918700  0.08426700  0.74132900  1
  O  O22  1  0.70028800  0.48934500  0.88438500  1
  O  O23  1  0.88438500  0.70028800  0.48934500  1
loop_
_geom_bond_atom_site_label_1
_geom_bond_atom_site_label_2
_geom_bond_distance
_geom_bond_site_symmetry_2
Cr0 O9 2.008383 1_554
Cr0 O18 2.008383 1_455
Cr0 O11 2.008383 1_545
Cr0 O2 2.042447 1_545
Cr0 O6 2.042447 1_554
Cr0 O13 2.042447 1_455
Cr1 O1 1.935610 1_555
Cr1 O0 1.935610 1_555
Cr1 O3 1.935610 1_555
Cr1 O8 2.012740 1_555
Cr1 O7 2.012740 1_555
Cr1 O4 2.012740 1_555
Cr2 O22 1.958690 1_555
Cr2 O23 1.958690 1_555
Cr2 O20 1.958690 1_555
Cr2 O15 2.050486 1_555
Cr2 O16 2.050486 1_555
Cr2 O19 2.050486 1_555
Ni0 O14 1.952892 1_556
Ni0 O5 1.952892 1_655
Ni0 O12 1.952892 1_565
Ni0 O21 2.207481 1_565
Ni0 O17 2.207482 1_556
Ni0 O10 2.207482 1_655
O0 P5 1.507961 1_455
O1 P3 1.507961 1_554
O2 P0 1.573331 1_555
O2 Te0 2.518176 1_454
O3 P4 1.507961 1_545
O4 P0 1.598534 1_555
O4 Te1 2.292498 1_555
O5 P0 1.502883 1_555
O6 P1 1.573331 1_555
O6 Te0 2.518176 1_445
O7 P1 1.598534 1_555
O7 Te1 2.292498 1_555
O8 P2 1.598534 1_555
O8 Te1 2.292498 1_555
O9 P3 1.511747 1_555
O10 P3 1.628523 1_555
O10 Te0 2.068368 1_455
O11 P4 1.511747 1_555
O12 P1 1.502883 1_555
O13 P2 1.573331 1_555
O13 Te0 2.518176 1_544
O14 P2 1.502883 1_555
O15 P3 1.559007 1_555
O15 Te1 2.461349 1_555
O16 P4 1.559007 1_555
O16 Te1 2.461349 1_555
O17 P4 1.628523 1_555
O17 Te0 2.068368 1_554
O18 P5 1.511747 1_555
O19 P5 1.559008 1_555
O19 Te1 2.461350 1_555
O20 P1 1.522232 1_565
O21 P5 1.628523 1_555
O21 Te0 2.068368 1_545
O22 P2 1.522232 1_556
O23 P0 1.522232 1_655
