# generated using pymatgen
data_UH12(NO7)2
_symmetry_space_group_name_H-M   'P 1'
_cell_length_a   7.76348939
_cell_length_b   7.76348939
_cell_length_c   11.53909500
_cell_angle_alpha   90.00000000
_cell_angle_beta   90.00000000
_cell_angle_gamma   117.19766112
_symmetry_Int_Tables_number   1
_chemical_formula_structural   UH12(NO7)2
_chemical_formula_sum   'U2 H24 N4 O28'
_cell_volume   618.58574463
_cell_formula_units_Z   2
loop_
 _symmetry_equiv_pos_site_id
 _symmetry_equiv_pos_as_xyz
  1  'x, y, z'
loop_
 _atom_site_type_symbol
 _atom_site_label
 _atom_site_symmetry_multiplicity
 _atom_site_fract_x
 _atom_site_fract_y
 _atom_site_fract_z
 _atom_site_occupancy
  U  U0  1  0.87206800  0.87206800  0.74960900  1
  U  U1  1  0.12793200  0.12793200  0.24960900  1
  H  H0  1  0.59960300  0.05020700  0.68339700  1
  H  H1  1  0.05020700  0.59960300  0.68339700  1
  H  H2  1  0.40039700  0.94979300  0.18339700  1
  H  H3  1  0.94979300  0.40039700  0.18339700  1
  H  H4  1  0.70119100  0.15237100  0.80588500  1
  H  H5  1  0.15237100  0.70119100  0.80588500  1
  H  H6  1  0.29880900  0.84762900  0.30588500  1
  H  H7  1  0.84762900  0.29880900  0.30588500  1
  H  H8  1  0.57144600  0.29971500  0.91764900  1
  H  H9  1  0.29971500  0.57144600  0.91764900  1
  H  H10  1  0.42855400  0.70028500  0.41764900  1
  H  H11  1  0.70028500  0.42855400  0.41764900  1
  H  H12  1  0.38129300  0.78609100  0.96483800  1
  H  H13  1  0.78609100  0.38129300  0.96483800  1
  H  H14  1  0.61870700  0.21390900  0.46483800  1
  H  H15  1  0.21390900  0.61870700  0.46483800  1
  H  H16  1  0.37232600  0.10467500  0.58842200  1
  H  H17  1  0.10467500  0.37232600  0.58842200  1
  H  H18  1  0.62767400  0.89532500  0.08842200  1
  H  H19  1  0.89532500  0.62767400  0.08842200  1
  H  H20  1  0.38681100  0.92438900  0.52934500  1
  H  H21  1  0.92438900  0.38681100  0.52934500  1
  H  H22  1  0.61318900  0.07561100  0.02934500  1
  H  H23  1  0.07561100  0.61318900  0.02934500  1
  N  N0  1  0.52805500  0.52805500  0.65912000  1
  N  N1  1  0.47194500  0.47194500  0.15912000  1
  N  N2  1  0.20741800  0.20741800  0.85907800  1
  N  N3  1  0.79258200  0.79258200  0.35907800  1
  O  O0  1  0.38215200  0.38215200  0.62667900  1
  O  O1  1  0.61784800  0.61784800  0.12667900  1
  O  O2  1  0.34853200  0.34853200  0.90324900  1
  O  O3  1  0.65146800  0.65146800  0.40324900  1
  O  O4  1  0.52680800  0.69039400  0.67722400  1
  O  O5  1  0.69039400  0.52680800  0.67722400  1
  O  O6  1  0.47319200  0.30960600  0.17722400  1
  O  O7  1  0.30960600  0.47319200  0.17722400  1
  O  O8  1  0.21453300  0.05081800  0.83452200  1
  O  O9  1  0.05081800  0.21453300  0.83452200  1
  O  O10  1  0.78546700  0.94918200  0.33452200  1
  O  O11  1  0.94918200  0.78546700  0.33452200  1
  O  O12  1  0.95851100  0.95851100  0.60557800  1
  O  O13  1  0.04148900  0.04148900  0.10557800  1
  O  O14  1  0.78646600  0.78646600  0.89402900  1
  O  O15  1  0.21353400  0.21353400  0.39402900  1
  O  O16  1  0.69701100  0.06060500  0.74373500  1
  O  O17  1  0.06060500  0.69701100  0.74373500  1
  O  O18  1  0.30298900  0.93939500  0.24373500  1
  O  O19  1  0.93939500  0.30298900  0.24373500  1
  O  O20  1  0.67961400  0.26767500  0.92630300  1
  O  O21  1  0.26767500  0.67961400  0.92630300  1
  O  O22  1  0.32038600  0.73232500  0.42630300  1
  O  O23  1  0.73232500  0.32038600  0.42630300  1
  O  O24  1  0.46010200  0.04913400  0.57131000  1
  O  O25  1  0.04913400  0.46010200  0.57131000  1
  O  O26  1  0.53989800  0.95086600  0.07131000  1
  O  O27  1  0.95086600  0.53989800  0.07131000  1
loop_
_geom_bond_atom_site_label_1
_geom_bond_atom_site_label_2
_geom_bond_distance
_geom_bond_site_symmetry_2
H0 O16 1.003668 1_555
H1 O17 1.003668 1_555
H2 O18 1.003668 1_555
H3 O19 1.003668 1_555
H4 O16 1.000889 1_555
H5 O17 1.000889 1_555
H6 O18 1.000889 1_555
H7 O19 1.000889 1_555
H8 O20 0.983864 1_555
H9 O21 0.983864 1_555
H10 O22 0.983864 1_555
H11 O23 0.983864 1_555
H12 O21 0.996274 1_555
H13 O20 0.996274 1_555
H14 O23 0.996274 1_555
H15 O22 0.996274 1_555
H16 O24 0.978718 1_555
H17 O25 0.978718 1_555
H18 O26 0.978718 1_555
H19 O27 0.978718 1_555
H20 O24 0.996205 1_565
H21 O25 0.996205 1_655
H22 O26 0.996205 1_545
H23 O27 0.996205 1_455
N0 O0 1.238289 1_555
N0 O4 1.281908 1_555
N0 O5 1.281908 1_555
N1 O1 1.238289 1_555
N1 O6 1.281908 1_555
N1 O7 1.281908 1_555
N2 O2 1.250223 1_555
N2 O8 1.273895 1_555
N2 O9 1.273895 1_555
N3 O3 1.250223 1_555
N3 O10 1.273895 1_555
N3 O11 1.273895 1_555
O4 U0 2.532932 1_555
O5 U0 2.532932 1_555
O6 U1 2.532932 1_555
O7 U1 2.532932 1_555
O8 U0 2.565523 1_445
O9 U0 2.565523 1_445
O10 U1 2.565523 1_665
O11 U1 2.565523 1_665
O12 U0 1.803123 1_555
O13 U1 1.803123 1_555
O14 U0 1.804640 1_555
O15 U1 1.804640 1_555
O16 U0 2.410907 1_545
O17 U0 2.410907 1_455
O18 U1 2.410907 1_565
O19 U1 2.410907 1_655
