# generated using pymatgen
data_Li6V3P8O29
_symmetry_space_group_name_H-M   'P 1'
_cell_length_a   9.80002800
_cell_length_b   9.80540025
_cell_length_c   13.99803428
_cell_angle_alpha   90.58506335
_cell_angle_beta   90.07799462
_cell_angle_gamma   119.89437992
_symmetry_Int_Tables_number   1
_chemical_formula_structural   Li6V3P8O29
_chemical_formula_sum   'Li12 V6 P16 O58'
_cell_volume   1166.04925783
_cell_formula_units_Z   2
loop_
 _symmetry_equiv_pos_site_id
 _symmetry_equiv_pos_as_xyz
  1  'x, y, z'
loop_
 _atom_site_type_symbol
 _atom_site_label
 _atom_site_symmetry_multiplicity
 _atom_site_fract_x
 _atom_site_fract_y
 _atom_site_fract_z
 _atom_site_occupancy
  Li  Li0  1  0.33792400  0.68295000  0.39233400  1
  Li  Li1  1  0.66864000  0.76505600  0.05816200  1
  Li  Li2  1  0.09701800  0.33183200  0.05835800  1
  Li  Li3  1  0.76285900  0.66386000  0.44351100  1
  Li  Li4  1  0.23019700  0.32561200  0.56572000  1
  Li  Li5  1  0.90374900  0.66165000  0.93449700  1
  Li  Li6  1  0.34093800  0.23718300  0.93796300  1
  Li  Li7  1  0.33037500  0.09605400  0.44135500  1
  Li  Li8  1  0.89871700  0.23005400  0.44660900  1
  Li  Li9  1  0.76281300  0.09982800  0.93594600  1
  Li  Li10  1  0.03214100  0.98217900  0.99828300  1
  Li  Li11  1  0.97513400  0.95788200  0.51333500  1
  V  V0  1  0.56594000  0.56464500  0.25071800  1
  V  V1  1  0.43595700  0.43503100  0.75243200  1
  V  V2  1  0.00200300  0.56702600  0.74852300  1
  V  V3  1  0.99709100  0.43595900  0.24913400  1
  V  V4  1  0.43525400  0.99915700  0.24733000  1
  V  V5  1  0.55979700  0.99728700  0.74562500  1
  P  P0  1  0.22202900  0.91800300  0.83875300  1
  P  P1  1  0.08619200  0.78178900  0.34003700  1
  P  P2  1  0.69333300  0.91385700  0.34140200  1
  P  P3  1  0.33573900  0.66472600  0.12991300  1
  P  P4  1  0.33024400  0.66291100  0.63172800  1
  P  P5  1  0.68869200  0.77704200  0.84127300  1
  P  P6  1  0.77404200  0.68409800  0.65855100  1
  P  P7  1  0.08753900  0.31527600  0.84243200  1
  P  P8  1  0.91505200  0.68890500  0.15315300  1
  P  P9  1  0.22589500  0.32046000  0.34240000  1
  P  P10  1  0.31100600  0.22542200  0.15857600  1
  P  P11  1  0.66531800  0.33099500  0.37154700  1
  P  P12  1  0.66872600  0.33344400  0.86936700  1
  P  P13  1  0.30981500  0.08584200  0.65477100  1
  P  P14  1  0.91073000  0.22236400  0.65905300  1
  P  P15  1  0.77097300  0.08394700  0.15540800  1
  O  O0  1  0.22477200  0.01608600  0.56207000  1
  O  O1  1  0.25543800  0.92281200  0.34337000  1
  O  O2  1  0.98655000  0.76756300  0.06110200  1
  O  O3  1  0.08390900  0.74724800  0.84117100  1
  O  O4  1  0.38207300  0.92627000  0.83258200  1
  O  O5  1  0.33377800  0.80991200  0.17926800  1
  O  O6  1  0.53028900  0.90367200  0.33444100  1
  O  O7  1  0.76963700  0.99989400  0.06427400  1
  O  O8  1  0.66279100  0.91850400  0.84235600  1
  O  O9  1  0.18998000  0.67152100  0.67527400  1
  O  O10  1  0.09943600  0.63008600  0.32969800  1
  O  O11  1  0.48040500  0.81052900  0.67594300  1
  O  O12  1  0.33830200  0.66525100  0.02396700  1
  O  O13  1  0.33084700  0.66073000  0.52429600  1
  O  O14  1  0.49158700  0.67482300  0.17070200  1
  O  O15  1  0.08691700  0.46998400  0.82979400  1
  O  O16  1  0.18860700  0.51179000  0.16993000  1
  O  O17  1  0.66386500  0.74230500  0.34224300  1
  O  O18  1  0.79402000  0.79682500  0.74910600  1
  O  O19  1  0.78826100  0.77114000  0.56806700  1
  O  O20  1  0.77702800  0.77516000  0.92996200  1
  O  O21  1  0.53127300  0.62062800  0.82821700  1
  O  O22  1  0.32490600  0.51084600  0.66951400  1
  O  O23  1  0.74617100  0.66182500  0.16160300  1
  O  O24  1  0.37210200  0.48545500  0.32813900  1
  O  O25  1  0.07859600  0.34081600  0.34278700  1
  O  O26  1  0.01379100  0.80217300  0.24038000  1
  O  O27  1  0.98665200  0.78523100  0.41959000  1
  O  O28  1  0.99846100  0.21763400  0.57052200  1
  O  O29  1  0.91321700  0.65384300  0.66799000  1
  O  O30  1  0.61691100  0.53153300  0.66960000  1
  O  O31  1  0.25747100  0.34243200  0.84438500  1
  O  O32  1  0.66939200  0.48282600  0.33147000  1
  O  O33  1  0.46585100  0.38409200  0.17198800  1
  O  O34  1  0.22303300  0.22310200  0.06925200  1
  O  O35  1  0.23487800  0.23877900  0.43059200  1
  O  O36  1  0.20362700  0.21185100  0.25029800  1
  O  O37  1  0.33586300  0.25620300  0.66536100  1
  O  O38  1  0.81279400  0.48779000  0.83147900  1
  O  O39  1  0.91643600  0.53254200  0.17006600  1
  O  O40  1  0.51223600  0.32389000  0.83041100  1
  O  O41  1  0.66715500  0.33272100  0.97630300  1
  O  O42  1  0.66087000  0.32871800  0.47773300  1
  O  O43  1  0.51477900  0.18343100  0.32781500  1
  O  O44  1  0.91367400  0.37878100  0.67043200  1
  O  O45  1  0.81286200  0.32671500  0.33071900  1
  O  O46  1  0.33939700  0.08691200  0.16241300  1
  O  O47  1  0.19579800  0.98926600  0.74052400  1
  O  O48  1  0.20720900  0.01301900  0.91927800  1
  O  O49  1  0.46807400  0.09129500  0.66728700  1
  O  O50  1  0.67543300  0.18775300  0.82680900  1
  O  O51  1  0.62065500  0.09306600  0.17025100  1
  O  O52  1  0.91982600  0.24984200  0.16058900  1
  O  O53  1  0.00048900  0.22777800  0.93131900  1
  O  O54  1  0.00414800  0.20514900  0.75055500  1
  O  O55  1  0.74418800  0.08276400  0.66193000  1
  O  O56  1  0.79848300  0.00822700  0.42230300  1
  O  O57  1  0.78623600  0.98598300  0.24243500  1
loop_
_geom_bond_atom_site_label_1
_geom_bond_atom_site_label_2
_geom_bond_distance
_geom_bond_site_symmetry_2
Li0 O13 1.859560 1_555
Li0 O6 2.206279 1_555
Li0 O10 2.297261 1_555
Li0 O24 2.298176 1_555
Li1 O7 2.003298 1_555
Li1 O20 2.064563 1_554
Li1 O23 2.119455 1_555
Li1 O14 2.186502 1_555
Li2 O34 2.000062 1_555
Li2 O53 2.023485 1_554
Li2 O52 2.085246 1_455
Li2 O16 2.172472 1_555
Li3 O27 1.935681 1_555
Li3 O19 1.977062 1_555
Li3 O17 2.074763 1_555
Li3 O32 2.183628 1_555
Li4 O28 1.971828 1_455
Li4 O37 2.049119 1_555
Li4 O35 2.076341 1_555
Li4 O22 2.129170 1_555
Li5 O2 1.999056 1_556
Li5 O3 2.019867 1_655
Li5 O20 2.040610 1_555
Li5 O38 2.052279 1_555
Li6 O48 1.932136 1_555
Li6 O31 2.077533 1_555
Li6 O40 2.101872 1_555
Li6 O34 2.140930 1_556
Li7 O0 1.940138 1_555
Li7 O1 2.003088 1_545
Li7 O35 2.041215 1_555
Li7 O43 2.240121 1_555
Li8 O56 1.914666 1_555
Li8 O28 2.024181 1_555
Li8 O25 2.128368 1_655
Li8 O45 2.249552 1_555
Li9 O8 2.012453 1_545
Li9 O53 2.023039 1_655
Li9 O7 2.071821 1_546
Li9 O50 2.137688 1_555
Li10 O48 1.937229 1_565
Li10 O2 2.122023 1_456
Li10 O34 2.368343 1_566
Li10 O20 2.486116 1_455
Li11 O19 1.995876 1_555
Li11 O27 2.178577 1_555
Li11 O0 2.317758 1_665
Li11 O56 2.392315 1_565
Li11 O28 2.560783 1_565
O0 P13 1.502325 1_555
O1 P1 1.541937 1_555
O1 V4 2.045758 1_555
O2 P8 1.493385 1_555
O3 P0 1.542359 1_555
O3 V2 1.996365 1_555
O4 P0 1.532254 1_555
O4 V5 1.952995 1_555
O5 P3 1.584788 1_555
O5 V4 1.860607 1_555
O6 P2 1.553339 1_555
O6 V4 2.029859 1_555
O7 P15 1.508165 1_565
O8 P5 1.529453 1_555
O8 V5 2.060056 1_555
O9 P4 1.544376 1_555
O9 V2 1.907850 1_555
O10 P1 1.561594 1_555
O10 V3 1.987728 1_455
O11 P4 1.581052 1_555
O11 V5 1.857803 1_555
O12 P3 1.483301 1_555
O13 P4 1.503832 1_555
O14 P3 1.585635 1_555
O14 V0 1.939022 1_555
O15 P7 1.532070 1_555
O15 V2 1.923786 1_555
O16 P3 1.582920 1_555
O16 V3 1.983964 1_455
O17 P2 1.558623 1_555
O17 V0 1.970194 1_555
O18 P5 1.605227 1_555
O18 P6 1.619221 1_555
O19 P6 1.502041 1_555
O20 P5 1.518054 1_555
O21 P5 1.549389 1_555
O21 V1 1.890284 1_555
O22 P4 1.563390 1_555
O22 V1 1.976077 1_555
O23 P8 1.544916 1_555
O23 V0 1.984034 1_555
O24 P9 1.551437 1_555
O24 V0 1.984553 1_555
O25 P9 1.552697 1_555
O25 V3 1.997963 1_455
O26 P8 1.599540 1_455
O26 P1 1.622892 1_555
O27 P1 1.492585 1_655
O28 P14 1.522692 1_555
O29 P6 1.539280 1_555
O29 V2 1.872919 1_655
O30 P6 1.530423 1_555
O30 V1 1.933884 1_555
O31 P7 1.550067 1_555
O31 V1 1.996913 1_555
O32 P11 1.578163 1_555
O32 V0 1.943037 1_555
O33 P10 1.548695 1_555
O33 V0 1.880740 1_555
O34 P10 1.511335 1_555
O35 P9 1.504467 1_555
O36 P9 1.607310 1_555
O36 P10 1.625156 1_555
O37 P13 1.564401 1_555
O37 V1 1.939329 1_555
O38 P12 1.566400 1_555
O38 V2 1.994636 1_655
O39 P8 1.560473 1_555
O39 V3 1.873988 1_555
O40 P12 1.584788 1_555
O40 V1 1.942175 1_555
O41 P12 1.497047 1_555
O42 P11 1.487163 1_555
O43 P11 1.580014 1_555
O43 V4 1.921938 1_545
O44 P14 1.526245 1_555
O44 V2 1.927381 1_655
O45 P11 1.575235 1_555
O45 V3 1.952977 1_555
O46 P10 1.517558 1_555
O46 V4 1.964541 1_545
O47 P13 1.599466 1_565
O47 P0 1.625646 1_555
O48 P0 1.507827 1_545
O49 P13 1.534726 1_555
O49 V5 1.924595 1_545
O50 P12 1.573632 1_555
O50 V5 1.976629 1_545
O51 P15 1.533950 1_555
O51 V4 1.916039 1_545
O52 P15 1.552822 1_555
O52 V3 2.003463 1_555
O53 P7 1.518916 1_555
O54 P7 1.605330 1_555
O54 P14 1.631707 1_455
O55 P14 1.521012 1_555
O55 V5 1.963806 1_545
O56 P2 1.491814 1_545
O57 P15 1.611128 1_565
O57 P2 1.621688 1_555
