# generated using pymatgen
data_Fe3OF5
_symmetry_space_group_name_H-M   'P 1'
_cell_length_a   4.81394652
_cell_length_b   4.81394652
_cell_length_c   9.67113000
_cell_angle_alpha   90.00000000
_cell_angle_beta   90.00000000
_cell_angle_gamma   92.00920712
_symmetry_Int_Tables_number   1
_chemical_formula_structural   Fe3OF5
_chemical_formula_sum   'Fe6 O2 F10'
_cell_volume   223.98176322
_cell_formula_units_Z   2
loop_
 _symmetry_equiv_pos_site_id
 _symmetry_equiv_pos_as_xyz
  1  'x, y, z'
loop_
 _atom_site_type_symbol
 _atom_site_label
 _atom_site_symmetry_multiplicity
 _atom_site_fract_x
 _atom_site_fract_y
 _atom_site_fract_z
 _atom_site_occupancy
  Fe  Fe0  1  0.00766500  0.00766500  0.82451400  1
  Fe  Fe1  1  0.02961600  0.02961600  0.50000000  1
  Fe  Fe2  1  0.00766500  0.00766500  0.17548600  1
  Fe  Fe3  1  0.48274400  0.48274400  0.66227700  1
  Fe  Fe4  1  0.50543900  0.50543900  0.00000000  1
  Fe  Fe5  1  0.48274400  0.48274400  0.33772300  1
  O  O0  1  0.19582200  0.19582200  0.65688400  1
  O  O1  1  0.19582200  0.19582200  0.34311600  1
  F  F0  1  0.20258200  0.20258200  0.00000000  1
  F  F1  1  0.69660700  0.30579300  0.82736700  1
  F  F2  1  0.70257100  0.29529600  0.50000000  1
  F  F3  1  0.69660700  0.30579300  0.17263300  1
  F  F4  1  0.30579300  0.69660700  0.82736700  1
  F  F5  1  0.29529600  0.70257100  0.50000000  1
  F  F6  1  0.30579300  0.69660700  0.17263300  1
  F  F7  1  0.78926500  0.78926500  0.65139700  1
  F  F8  1  0.80870600  0.80870600  0.00000000  1
  F  F9  1  0.78926500  0.78926500  0.34860300  1
loop_
_geom_bond_atom_site_label_1
_geom_bond_atom_site_label_2
_geom_bond_distance
_geom_bond_site_symmetry_2
Fe0 O0 2.052202 1_555
Fe1 O1 1.880821 1_555
Fe1 O0 1.880821 1_555
Fe2 O1 2.052202 1_555
Fe3 O0 1.919511 1_555
Fe5 O1 1.919511 1_555
F0 Fe4 2.025368 1_555
F0 Fe0 2.139968 1_554
F0 Fe2 2.139968 1_555
F1 Fe3 2.096709 1_555
F1 Fe0 2.110315 1_655
F1 Fe4 2.149424 1_556
F2 Fe1 2.062915 1_655
F2 Fe3 2.112843 1_555
F2 Fe5 2.112843 1_555
F3 Fe5 2.096709 1_555
F3 Fe2 2.110315 1_655
F3 Fe4 2.149424 1_555
F4 Fe3 2.096709 1_555
F4 Fe0 2.110315 1_565
F4 Fe4 2.149424 1_556
F5 Fe1 2.062915 1_565
F5 Fe3 2.112843 1_555
F5 Fe5 2.112843 1_555
F6 Fe5 2.096709 1_555
F6 Fe2 2.110315 1_565
F6 Fe4 2.149424 1_555
F7 Fe3 2.052570 1_555
F7 Fe1 2.174263 1_665
F7 Fe0 2.221779 1_665
F8 Fe4 2.028110 1_555
F8 Fe2 2.156540 1_665
F8 Fe0 2.156540 1_664
F9 Fe5 2.052570 1_555
F9 Fe1 2.174263 1_665
F9 Fe2 2.221779 1_665
