# generated using pymatgen
data_Rb3NaV4H2O13
_symmetry_space_group_name_H-M   'P 1'
_cell_length_a   8.44491500
_cell_length_b   11.41226500
_cell_length_c   16.08618300
_cell_angle_alpha   90.00000000
_cell_angle_beta   90.00000000
_cell_angle_gamma   90.00000000
_symmetry_Int_Tables_number   1
_chemical_formula_structural   Rb3NaV4H2O13
_chemical_formula_sum   'Rb12 Na4 V16 H8 O52'
_cell_volume   1550.31566513
_cell_formula_units_Z   4
loop_
 _symmetry_equiv_pos_site_id
 _symmetry_equiv_pos_as_xyz
  1  'x, y, z'
loop_
 _atom_site_type_symbol
 _atom_site_label
 _atom_site_symmetry_multiplicity
 _atom_site_fract_x
 _atom_site_fract_y
 _atom_site_fract_z
 _atom_site_occupancy
  Rb  Rb0  1  0.25000000  0.01477400  0.12113000  1
  Rb  Rb1  1  0.75000000  0.01887800  0.19632600  1
  Rb  Rb2  1  0.75000000  0.02609300  0.60168400  1
  Rb  Rb3  1  0.25000000  0.47390700  0.10168400  1
  Rb  Rb4  1  0.25000000  0.48112200  0.69632600  1
  Rb  Rb5  1  0.75000000  0.48522600  0.62113000  1
  Rb  Rb6  1  0.25000000  0.51477400  0.37887000  1
  Rb  Rb7  1  0.75000000  0.51887800  0.30367400  1
  Rb  Rb8  1  0.75000000  0.52609300  0.89831600  1
  Rb  Rb9  1  0.25000000  0.97390700  0.39831600  1
  Rb  Rb10  1  0.25000000  0.98112200  0.80367400  1
  Rb  Rb11  1  0.75000000  0.98522600  0.87887000  1
  Na  Na0  1  0.25000000  0.18410100  0.58449200  1
  Na  Na1  1  0.75000000  0.31589900  0.08449200  1
  Na  Na2  1  0.25000000  0.68410100  0.91550800  1
  Na  Na3  1  0.75000000  0.81589900  0.41550800  1
  V  V0  1  0.03997200  0.21487900  0.97346600  1
  V  V1  1  0.46002800  0.21487900  0.97346600  1
  V  V2  1  0.95016300  0.24213100  0.76774200  1
  V  V3  1  0.54983700  0.24213100  0.76774200  1
  V  V4  1  0.04983700  0.25786900  0.26774200  1
  V  V5  1  0.45016300  0.25786900  0.26774200  1
  V  V6  1  0.96002800  0.28512100  0.47346600  1
  V  V7  1  0.53997200  0.28512100  0.47346600  1
  V  V8  1  0.03997200  0.71487900  0.52653400  1
  V  V9  1  0.46002800  0.71487900  0.52653400  1
  V  V10  1  0.54983700  0.74213100  0.73225800  1
  V  V11  1  0.95016300  0.74213100  0.73225800  1
  V  V12  1  0.04983700  0.75786900  0.23225800  1
  V  V13  1  0.45016300  0.75786900  0.23225800  1
  V  V14  1  0.53997200  0.78512100  0.02653400  1
  V  V15  1  0.96002800  0.78512100  0.02653400  1
  H  H0  1  0.65645100  0.06611200  0.41466600  1
  H  H1  1  0.84354900  0.06611200  0.41466600  1
  H  H2  1  0.15645100  0.43388800  0.91466600  1
  H  H3  1  0.34354900  0.43388800  0.91466600  1
  H  H4  1  0.65645100  0.56611200  0.08533400  1
  H  H5  1  0.84354900  0.56611200  0.08533400  1
  H  H6  1  0.15645100  0.93388800  0.58533400  1
  H  H7  1  0.34354900  0.93388800  0.58533400  1
  O  O0  1  0.75000000  0.02491000  0.39328200  1
  O  O1  1  0.04738000  0.11104400  0.27226600  1
  O  O2  1  0.45262000  0.11104400  0.27226600  1
  O  O3  1  0.56525000  0.12818300  0.03579900  1
  O  O4  1  0.93475000  0.12818300  0.03579900  1
  O  O5  1  0.02183000  0.14551200  0.48490400  1
  O  O6  1  0.47817000  0.14551200  0.48490400  1
  O  O7  1  0.00993600  0.16988000  0.86564400  1
  O  O8  1  0.49006400  0.16988000  0.86564400  1
  O  O9  1  0.75000000  0.19031700  0.74354700  1
  O  O10  1  0.43033500  0.19589200  0.69251200  1
  O  O11  1  0.06966500  0.19589200  0.69251200  1
  O  O12  1  0.25000000  0.20382100  0.00099300  1
  O  O13  1  0.75000000  0.29617900  0.50099300  1
  O  O14  1  0.93033500  0.30410800  0.19251200  1
  O  O15  1  0.56966500  0.30410800  0.19251200  1
  O  O16  1  0.25000000  0.30968300  0.24354700  1
  O  O17  1  0.99006400  0.33012000  0.36564400  1
  O  O18  1  0.50993600  0.33012000  0.36564400  1
  O  O19  1  0.97817000  0.35448800  0.98490400  1
  O  O20  1  0.52183000  0.35448800  0.98490400  1
  O  O21  1  0.06525000  0.37181700  0.53579900  1
  O  O22  1  0.43475000  0.37181700  0.53579900  1
  O  O23  1  0.54738000  0.38895600  0.77226600  1
  O  O24  1  0.95262000  0.38895600  0.77226600  1
  O  O25  1  0.25000000  0.47509000  0.89328200  1
  O  O26  1  0.75000000  0.52491000  0.10671800  1
  O  O27  1  0.04738000  0.61104400  0.22773400  1
  O  O28  1  0.45262000  0.61104400  0.22773400  1
  O  O29  1  0.56525000  0.62818300  0.46420100  1
  O  O30  1  0.93475000  0.62818300  0.46420100  1
  O  O31  1  0.02183000  0.64551200  0.01509600  1
  O  O32  1  0.47817000  0.64551200  0.01509600  1
  O  O33  1  0.00993600  0.66988000  0.63435600  1
  O  O34  1  0.49006400  0.66988000  0.63435600  1
  O  O35  1  0.75000000  0.69031700  0.75645300  1
  O  O36  1  0.06966500  0.69589200  0.80748800  1
  O  O37  1  0.43033500  0.69589200  0.80748800  1
  O  O38  1  0.25000000  0.70382100  0.49900700  1
  O  O39  1  0.75000000  0.79617900  0.99900700  1
  O  O40  1  0.56966500  0.80410800  0.30748800  1
  O  O41  1  0.93033500  0.80410800  0.30748800  1
  O  O42  1  0.25000000  0.80968300  0.25645300  1
  O  O43  1  0.50993600  0.83012000  0.13435600  1
  O  O44  1  0.99006400  0.83012000  0.13435600  1
  O  O45  1  0.52183000  0.85448800  0.51509600  1
  O  O46  1  0.97817000  0.85448800  0.51509600  1
  O  O47  1  0.06525000  0.87181700  0.96420100  1
  O  O48  1  0.43475000  0.87181700  0.96420100  1
  O  O49  1  0.54738000  0.88895600  0.72773400  1
  O  O50  1  0.95262000  0.88895600  0.72773400  1
  O  O51  1  0.25000000  0.97509000  0.60671800  1
loop_
_geom_bond_atom_site_label_1
_geom_bond_atom_site_label_2
_geom_bond_distance
_geom_bond_site_symmetry_2
Na0 O11 2.314461 1_555
Na0 O10 2.314461 1_555
Na0 O51 2.411935 1_545
Na0 O6 2.544242 1_555
Na0 O5 2.544242 1_555
Na0 O21 2.763521 1_555
Na0 O22 2.763521 1_555
Na1 O15 2.314461 1_555
Na1 O14 2.314461 1_555
Na1 O26 2.411935 1_555
Na1 O19 2.544242 1_554
Na1 O20 2.544242 1_554
Na1 O3 2.763521 1_555
Na1 O4 2.763521 1_555
Na2 O37 2.314461 1_555
Na2 O36 2.314461 1_555
Na2 O25 2.411935 1_555
Na2 O32 2.544242 1_556
Na2 O31 2.544242 1_556
Na2 O47 2.763521 1_555
Na2 O48 2.763521 1_555
Na3 O40 2.314461 1_555
Na3 O41 2.314461 1_555
Na3 O0 2.411935 1_565
Na3 O45 2.544242 1_555
Na3 O46 2.544242 1_555
Na3 O29 2.763521 1_555
Na3 O30 2.763521 1_555
H0 O0 0.981603 1_555
H1 O0 0.981603 1_555
H2 O25 0.981603 1_555
H3 O25 0.981603 1_555
H4 O26 0.981603 1_555
H5 O26 0.981603 1_555
H6 O51 0.981603 1_555
H7 O51 0.981603 1_555
O0 Rb1 3.169018 1_555
O1 V4 1.677314 1_555
O1 Rb1 2.984204 1_455
O1 Rb9 3.080369 1_545
O1 Rb0 3.169493 1_555
O2 V5 1.677314 1_555
O2 Rb1 2.984204 1_555
O2 Rb9 3.080369 1_545
O2 Rb0 3.169493 1_555
O3 V1 1.665506 1_554
O3 Rb0 3.262957 1_555
O3 Rb1 3.264716 1_555
O3 Rb11 3.386507 1_544
O4 V0 1.665506 1_654
O4 Rb0 3.262957 1_655
O4 Rb1 3.264716 1_555
O4 Rb11 3.386507 1_544
O5 V6 1.686626 1_455
O5 Rb9 3.080305 1_545
O6 V7 1.686626 1_555
O6 Rb9 3.080305 1_545
O7 V0 1.826571 1_555
O7 V2 1.847943 1_455
O7 Rb11 3.050359 1_445
O7 Rb10 3.121562 1_545
O8 V1 1.826571 1_555
O8 V3 1.847943 1_555
O8 Rb11 3.050359 1_545
O8 Rb10 3.121562 1_545
O9 V2 1.832607 1_555
O9 V3 1.832607 1_555
O9 Rb2 2.952996 1_555
O9 Rb11 3.196370 1_545
O10 V3 1.661748 1_555
O10 Rb10 3.394744 1_545
O11 V2 1.661748 1_455
O11 Rb10 3.394744 1_545
O12 V1 1.832458 1_554
O12 V0 1.832458 1_554
O12 Rb0 2.896436 1_555
O13 V7 1.832458 1_555
O13 V6 1.832458 1_555
O13 Rb5 2.896436 1_555
O14 V4 1.661748 1_655
O14 Rb7 3.394744 1_555
O15 V5 1.661748 1_555
O15 Rb7 3.394744 1_555
O16 V4 1.832607 1_555
O16 V5 1.832607 1_555
O16 Rb3 2.952996 1_555
O16 Rb6 3.196370 1_555
O17 V6 1.826571 1_555
O17 V4 1.847943 1_655
O17 Rb6 3.050359 1_655
O17 Rb7 3.121562 1_555
O18 V7 1.826571 1_555
O18 V5 1.847943 1_555
O18 Rb6 3.050359 1_555
O18 Rb7 3.121562 1_555
O19 V0 1.686626 1_655
O19 Rb8 3.080305 1_555
O20 V1 1.686626 1_555
O20 Rb8 3.080305 1_555
O21 V6 1.665506 1_455
O21 Rb5 3.262957 1_455
O21 Rb4 3.264716 1_555
O21 Rb6 3.386507 1_555
O22 V7 1.665506 1_555
O22 Rb5 3.262957 1_555
O22 Rb4 3.264716 1_555
O22 Rb6 3.386507 1_555
O23 V3 1.677314 1_555
O23 Rb4 2.984204 1_555
O23 Rb8 3.080369 1_555
O23 Rb5 3.169493 1_555
O24 V2 1.677314 1_555
O24 Rb4 2.984204 1_655
O24 Rb8 3.080369 1_555
O24 Rb5 3.169493 1_555
O25 Rb4 3.169018 1_555
O26 Rb7 3.169018 1_555
O27 V12 1.677314 1_555
O27 Rb7 2.984204 1_455
O27 Rb3 3.080369 1_555
O27 Rb6 3.169493 1_555
O28 V13 1.677314 1_555
O28 Rb7 2.984204 1_555
O28 Rb3 3.080369 1_555
O28 Rb6 3.169493 1_555
O29 V9 1.665506 1_555
O29 Rb6 3.262957 1_555
O29 Rb7 3.264716 1_555
O29 Rb5 3.386507 1_555
O30 V8 1.665506 1_655
O30 Rb6 3.262957 1_655
O30 Rb7 3.264716 1_555
O30 Rb5 3.386507 1_555
O31 V15 1.686626 1_455
O31 Rb3 3.080305 1_555
O32 V14 1.686626 1_555
O32 Rb3 3.080305 1_555
O33 V8 1.826571 1_555
O33 V11 1.847943 1_455
O33 Rb5 3.050359 1_455
O33 Rb4 3.121562 1_555
O34 V9 1.826571 1_555
O34 V10 1.847943 1_555
O34 Rb5 3.050359 1_555
O34 Rb4 3.121562 1_555
O35 V11 1.832607 1_555
O35 V10 1.832607 1_555
O35 Rb8 2.952996 1_555
O35 Rb5 3.196370 1_555
O36 V11 1.661748 1_455
O36 Rb4 3.394744 1_555
O37 V10 1.661748 1_555
O37 Rb4 3.394744 1_555
O38 V8 1.832458 1_555
O38 V9 1.832458 1_555
O38 Rb6 2.896436 1_555
O39 V15 1.832458 1_556
O39 V14 1.832458 1_556
O39 Rb11 2.896436 1_555
O40 V13 1.661748 1_555
O40 Rb1 3.394744 1_565
O41 V12 1.661748 1_655
O41 Rb1 3.394744 1_565
O42 V12 1.832607 1_555
O42 V13 1.832607 1_555
O42 Rb9 2.952996 1_555
O42 Rb0 3.196370 1_565
O43 V14 1.826571 1_555
O43 V13 1.847943 1_555
O43 Rb0 3.050359 1_565
O43 Rb1 3.121562 1_565
O44 V15 1.826571 1_555
O44 V12 1.847943 1_655
O44 Rb0 3.050359 1_665
O44 Rb1 3.121562 1_565
O45 V9 1.686626 1_555
O45 Rb2 3.080305 1_565
O46 V8 1.686626 1_655
O46 Rb2 3.080305 1_565
O47 V15 1.665506 1_456
O47 Rb11 3.262957 1_455
O47 Rb10 3.264716 1_555
O47 Rb0 3.386507 1_566
O48 V14 1.665506 1_556
O48 Rb11 3.262957 1_555
O48 Rb10 3.264716 1_555
O48 Rb0 3.386507 1_566
O49 V10 1.677314 1_555
O49 Rb10 2.984204 1_555
O49 Rb2 3.080369 1_565
O49 Rb11 3.169493 1_555
O50 V11 1.677314 1_555
O50 Rb10 2.984204 1_655
O50 Rb2 3.080369 1_565
O50 Rb11 3.169493 1_555
O51 Rb10 3.169018 1_555
