# generated using pymatgen
data_LiMn2(PO4)2
_symmetry_space_group_name_H-M   'P 1'
_cell_length_a   12.34530500
_cell_length_b   6.71417000
_cell_length_c   10.91738894
_cell_angle_alpha   84.15542290
_cell_angle_beta   90.00000000
_cell_angle_gamma   90.00000000
_symmetry_Int_Tables_number   1
_chemical_formula_structural   LiMn2(PO4)2
_chemical_formula_sum   'Li6 Mn12 P12 O48'
_cell_volume   900.22173733
_cell_formula_units_Z   6
loop_
 _symmetry_equiv_pos_site_id
 _symmetry_equiv_pos_as_xyz
  1  'x, y, z'
loop_
 _atom_site_type_symbol
 _atom_site_label
 _atom_site_symmetry_multiplicity
 _atom_site_fract_x
 _atom_site_fract_y
 _atom_site_fract_z
 _atom_site_occupancy
  Li  Li0  1  0.25022000  0.25148100  0.25092800  1
  Li  Li1  1  0.74978000  0.25148100  0.75092800  1
  Li  Li2  1  0.76143100  0.00000000  0.25000000  1
  Li  Li3  1  0.23856900  0.00000000  0.75000000  1
  Li  Li4  1  0.25022000  0.74851900  0.24907200  1
  Li  Li5  1  0.74978000  0.74851900  0.74907200  1
  Mn  Mn0  1  0.40821800  0.66353700  0.97192800  1
  Mn  Mn1  1  0.59178200  0.66353700  0.47192800  1
  Mn  Mn2  1  0.01447000  0.50000000  0.25000000  1
  Mn  Mn3  1  0.98553000  0.50000000  0.75000000  1
  Mn  Mn4  1  0.59178200  0.33646300  0.02807200  1
  Mn  Mn5  1  0.40821800  0.33646300  0.52807200  1
  Mn  Mn6  1  0.09110500  0.17308100  0.97487800  1
  Mn  Mn7  1  0.90889500  0.17308100  0.47487800  1
  Mn  Mn8  1  0.48015300  0.00000000  0.25000000  1
  Mn  Mn9  1  0.51984700  0.00000000  0.75000000  1
  Mn  Mn10  1  0.90889500  0.82691900  0.02512200  1
  Mn  Mn11  1  0.09110500  0.82691900  0.52512200  1
  P  P0  1  0.14166000  0.64250100  0.98791700  1
  P  P1  1  0.85834000  0.64250100  0.48791700  1
  P  P2  1  0.45926000  0.50000000  0.25000000  1
  P  P3  1  0.54074000  0.50000000  0.75000000  1
  P  P4  1  0.85834000  0.35749900  0.01208300  1
  P  P5  1  0.14166000  0.35749900  0.51208300  1
  P  P6  1  0.35739500  0.14032700  0.98606000  1
  P  P7  1  0.64260500  0.14032700  0.48606000  1
  P  P8  1  0.04019300  0.00000000  0.25000000  1
  P  P9  1  0.95980700  0.00000000  0.75000000  1
  P  P10  1  0.64260500  0.85967300  0.01394000  1
  P  P11  1  0.35739500  0.85967300  0.51394000  1
  O  O0  1  0.24965300  0.70530500  0.92610800  1
  O  O1  1  0.75034700  0.70530500  0.42610800  1
  O  O2  1  0.46996500  0.66694500  0.79751400  1
  O  O3  1  0.53003500  0.66694500  0.29751400  1
  O  O4  1  0.57310700  0.66407500  0.02697700  1
  O  O5  1  0.42689300  0.66407500  0.52697700  1
  O  O6  1  0.37973100  0.60864000  0.15437200  1
  O  O7  1  0.62026900  0.60864000  0.65437200  1
  O  O8  1  0.15318100  0.56677100  0.12533500  1
  O  O9  1  0.84681900  0.56677100  0.62533500  1
  O  O10  1  0.91475500  0.51536100  0.08519300  1
  O  O11  1  0.08524500  0.51536100  0.58519300  1
  O  O12  1  0.08524500  0.48463900  0.91480700  1
  O  O13  1  0.91475500  0.48463900  0.41480700  1
  O  O14  1  0.84681900  0.43322900  0.87466500  1
  O  O15  1  0.15318100  0.43322900  0.37466500  1
  O  O16  1  0.62026900  0.39136000  0.84562800  1
  O  O17  1  0.37973100  0.39136000  0.34562800  1
  O  O18  1  0.42689300  0.33592500  0.97302300  1
  O  O19  1  0.57310700  0.33592500  0.47302300  1
  O  O20  1  0.53003500  0.33305500  0.20248600  1
  O  O21  1  0.46996500  0.33305500  0.70248600  1
  O  O22  1  0.75034700  0.29469500  0.07389200  1
  O  O23  1  0.24965300  0.29469500  0.57389200  1
  O  O24  1  0.24455200  0.17724300  0.92197100  1
  O  O25  1  0.75544800  0.17724300  0.42197100  1
  O  O26  1  0.03391600  0.16374600  0.79708700  1
  O  O27  1  0.96608400  0.16374600  0.29708700  1
  O  O28  1  0.93359500  0.16468900  0.02469300  1
  O  O29  1  0.06640500  0.16468900  0.52469300  1
  O  O30  1  0.11983100  0.10922000  0.15504700  1
  O  O31  1  0.88016900  0.10922000  0.65504700  1
  O  O32  1  0.34471600  0.06653300  0.12347700  1
  O  O33  1  0.65528400  0.06653300  0.62347700  1
  O  O34  1  0.58540500  0.01356300  0.08937600  1
  O  O35  1  0.41459500  0.01356300  0.58937600  1
  O  O36  1  0.41459500  0.98643700  0.91062400  1
  O  O37  1  0.58540500  0.98643700  0.41062400  1
  O  O38  1  0.65528400  0.93346700  0.87652300  1
  O  O39  1  0.34471600  0.93346700  0.37652300  1
  O  O40  1  0.88016900  0.89078000  0.84495300  1
  O  O41  1  0.11983100  0.89078000  0.34495300  1
  O  O42  1  0.06640500  0.83531100  0.97530700  1
  O  O43  1  0.93359500  0.83531100  0.47530700  1
  O  O44  1  0.96608400  0.83625400  0.20291300  1
  O  O45  1  0.03391600  0.83625400  0.70291300  1
  O  O46  1  0.75544800  0.82275700  0.07802900  1
  O  O47  1  0.24455200  0.82275700  0.57802900  1
loop_
_geom_bond_atom_site_label_1
_geom_bond_atom_site_label_2
_geom_bond_distance
_geom_bond_site_symmetry_2
Li0 O17 2.169107 1_555
Li0 O30 2.191530 1_555
Li0 O15 2.254965 1_555
Li0 O32 2.278352 1_555
Li1 O16 2.169107 1_555
Li1 O31 2.191530 1_555
Li1 O14 2.254965 1_555
Li1 O33 2.278352 1_555
Li2 O25 2.324133 1_555
Li2 O46 2.324133 1_545
Li2 O22 2.618299 1_555
Li2 O1 2.618299 1_545
Li3 O24 2.324133 1_555
Li3 O47 2.324133 1_545
Li3 O0 2.618299 1_545
Li3 O23 2.618299 1_555
Li4 O6 2.169107 1_555
Li4 O41 2.191530 1_555
Li4 O8 2.254965 1_555
Li4 O39 2.278352 1_555
Li5 O7 2.169107 1_555
Li5 O40 2.191530 1_555
Li5 O9 2.254965 1_555
Li5 O38 2.278352 1_555
Mn0 O6 2.019241 1_556
Mn0 O0 2.032793 1_555
Mn0 O2 2.049024 1_555
Mn0 O4 2.122577 1_556
Mn0 O36 2.204284 1_555
Mn0 O18 2.210513 1_555
Mn1 O7 2.019241 1_555
Mn1 O1 2.032793 1_555
Mn1 O3 2.049024 1_555
Mn1 O5 2.122577 1_555
Mn1 O37 2.204284 1_555
Mn1 O19 2.210513 1_555
Mn2 O13 2.173840 1_455
Mn2 O10 2.173840 1_455
Mn2 O15 2.204881 1_555
Mn2 O8 2.204881 1_555
Mn2 O44 2.341318 1_455
Mn2 O27 2.341318 1_455
Mn3 O12 2.173840 1_655
Mn3 O11 2.173840 1_655
Mn3 O14 2.204881 1_555
Mn3 O9 2.204881 1_555
Mn3 O45 2.341318 1_655
Mn3 O26 2.341318 1_655
Mn4 O16 2.019241 1_554
Mn4 O22 2.032793 1_555
Mn4 O20 2.049024 1_555
Mn4 O18 2.122577 1_554
Mn4 O34 2.204284 1_555
Mn4 O4 2.210513 1_555
Mn5 O17 2.019241 1_555
Mn5 O23 2.032793 1_555
Mn5 O21 2.049024 1_555
Mn5 O19 2.122577 1_555
Mn5 O35 2.204284 1_555
Mn5 O5 2.210513 1_555
Mn6 O24 1.979819 1_555
Mn6 O30 2.001708 1_556
Mn6 O28 2.018371 1_456
Mn6 O26 2.072365 1_555
Mn6 O12 2.128799 1_555
Mn6 O42 2.287785 1_545
Mn7 O25 1.979819 1_555
Mn7 O31 2.001708 1_555
Mn7 O29 2.018371 1_655
Mn7 O27 2.072365 1_555
Mn7 O13 2.128799 1_555
Mn7 O43 2.287785 1_545
Mn8 O37 2.176975 1_545
Mn8 O34 2.176975 1_555
Mn8 O39 2.185749 1_545
Mn8 O32 2.185749 1_555
Mn8 O3 2.326498 1_545
Mn8 O20 2.326498 1_555
Mn9 O36 2.176975 1_545
Mn9 O35 2.176975 1_555
Mn9 O38 2.185749 1_545
Mn9 O33 2.185749 1_555
Mn9 O2 2.326498 1_545
Mn9 O21 2.326498 1_555
Mn10 O46 1.979819 1_555
Mn10 O40 2.001708 1_554
Mn10 O42 2.018371 1_654
Mn10 O44 2.072365 1_555
Mn10 O10 2.128799 1_555
Mn10 O28 2.287785 1_565
Mn11 O47 1.979819 1_555
Mn11 O41 2.001708 1_555
Mn11 O43 2.018371 1_455
Mn11 O45 2.072365 1_555
Mn11 O11 2.128799 1_555
Mn11 O29 2.287785 1_565
O0 P0 1.533834 1_555
O1 P1 1.533834 1_555
O2 P3 1.551556 1_555
O3 P2 1.551556 1_555
O4 P10 1.563013 1_555
O5 P11 1.563013 1_555
O6 P2 1.559126 1_555
O7 P3 1.559126 1_555
O8 P0 1.540826 1_554
O9 P1 1.540826 1_555
O10 P4 1.554941 1_555
O11 P5 1.554941 1_555
O12 P0 1.554941 1_555
O13 P1 1.554941 1_555
O14 P4 1.540826 1_556
O15 P5 1.540826 1_555
O16 P3 1.559126 1_555
O17 P2 1.559126 1_555
O18 P6 1.563013 1_555
O19 P7 1.563013 1_555
O20 P2 1.551556 1_555
O21 P3 1.551556 1_555
O22 P4 1.533834 1_555
O23 P5 1.533834 1_555
O24 P6 1.567274 1_555
O25 P7 1.567274 1_555
O26 P9 1.557282 1_455
O27 P8 1.557282 1_655
O28 P4 1.587975 1_555
O29 P5 1.587975 1_555
O30 P8 1.556970 1_555
O31 P9 1.556970 1_555
O32 P6 1.539255 1_554
O33 P7 1.539255 1_555
O34 P10 1.554929 1_545
O35 P11 1.554929 1_545
O36 P6 1.554929 1_565
O37 P7 1.554929 1_565
O38 P10 1.539255 1_556
O39 P11 1.539255 1_555
O40 P9 1.556970 1_565
O41 P8 1.556970 1_565
O42 P0 1.587975 1_555
O43 P1 1.587975 1_555
O44 P8 1.557282 1_665
O45 P9 1.557282 1_465
O46 P10 1.567274 1_555
O47 P11 1.567274 1_555
