# generated using pymatgen
data_K2CaS2O9
_symmetry_space_group_name_H-M   'P 1'
_cell_length_a   7.16992500
_cell_length_b   6.23310900
_cell_length_c   10.01009242
_cell_angle_alpha   74.75519561
_cell_angle_beta   90.00000000
_cell_angle_gamma   90.00000000
_symmetry_Int_Tables_number   1
_chemical_formula_structural   K2CaS2O9
_chemical_formula_sum   'K4 Ca2 S4 O18'
_cell_volume   431.61819611
_cell_formula_units_Z   2
loop_
 _symmetry_equiv_pos_site_id
 _symmetry_equiv_pos_as_xyz
  1  'x, y, z'
loop_
 _atom_site_type_symbol
 _atom_site_label
 _atom_site_symmetry_multiplicity
 _atom_site_fract_x
 _atom_site_fract_y
 _atom_site_fract_z
 _atom_site_occupancy
  K  K0  1  0.48920100  0.68932800  0.65665200  1
  K  K1  1  0.98920100  0.31067200  0.34334800  1
  K  K2  1  0.00004400  0.69051000  0.66511300  1
  K  K3  1  0.50004400  0.30949000  0.33488700  1
  Ca  Ca0  1  0.74373200  0.15752500  0.96281900  1
  Ca  Ca1  1  0.24373200  0.84247500  0.03718100  1
  S  S0  1  0.74188200  0.65241200  0.99226800  1
  S  S1  1  0.24188200  0.34758800  0.00773200  1
  S  S2  1  0.74650600  0.22010800  0.64171800  1
  S  S3  1  0.24650600  0.77989200  0.35828200  1
  O  O0  1  0.57642700  0.79729000  0.99134800  1
  O  O1  1  0.07642700  0.20271000  0.00865200  1
  O  O2  1  0.73595700  0.55474000  0.87064800  1
  O  O3  1  0.23595700  0.44526000  0.12935200  1
  O  O4  1  0.58239300  0.18449800  0.73739900  1
  O  O5  1  0.08239300  0.81550200  0.26260100  1
  O  O6  1  0.72968300  0.43785400  0.53610700  1
  O  O7  1  0.22968300  0.56214600  0.46389300  1
  O  O8  1  0.90876600  0.80017700  0.97906900  1
  O  O9  1  0.40876600  0.19982300  0.02093100  1
  O  O10  1  0.24791600  0.53414900  0.88029200  1
  O  O11  1  0.74791600  0.46585100  0.11970800  1
  O  O12  1  0.91573700  0.22313600  0.73083200  1
  O  O13  1  0.41573700  0.77686400  0.26916800  1
  O  O14  1  0.76244100  0.04005200  0.56963600  1
  O  O15  1  0.26244100  0.95994800  0.43036400  1
  O  O16  1  0.22131600  0.98528600  0.77866300  1
  O  O17  1  0.72131600  0.01471400  0.22133700  1
loop_
_geom_bond_atom_site_label_1
_geom_bond_atom_site_label_2
_geom_bond_distance
_geom_bond_site_symmetry_2
K0 O2 2.734510 1_555
K0 O10 2.793083 1_555
K0 O6 2.807250 1_555
K0 O14 2.893869 1_565
K0 O15 2.934334 1_555
K0 O7 2.935685 1_555
K0 O4 3.108652 1_555
K0 O16 3.125498 1_555
K1 O3 2.734510 1_655
K1 O11 2.793083 1_555
K1 O7 2.807250 1_655
K1 O15 2.893869 1_645
K1 O14 2.934334 1_555
K1 O6 2.935685 1_555
K1 O5 3.108652 1_655
K1 O17 3.125498 1_555
K2 O14 2.732672 1_465
K2 O2 2.760219 1_455
K2 O10 2.764772 1_555
K2 O7 2.873284 1_555
K2 O12 2.876980 1_455
K2 O16 2.878050 1_555
K2 O6 2.995807 1_455
K2 O15 3.131534 1_555
K3 O15 2.732672 1_545
K3 O3 2.760219 1_555
K3 O11 2.764772 1_555
K3 O6 2.873284 1_555
K3 O13 2.876980 1_555
K3 O17 2.878050 1_555
K3 O7 2.995807 1_555
K3 O14 3.131534 1_555
Ca0 O2 2.404800 1_555
Ca0 O1 2.459246 1_656
Ca0 O8 2.489446 1_545
Ca0 O0 2.495004 1_545
Ca0 O9 2.501323 1_556
Ca0 O4 2.501719 1_555
Ca0 O17 2.510669 1_556
Ca0 O12 2.565428 1_555
Ca0 O11 2.783512 1_556
Ca1 O3 2.404800 1_555
Ca1 O0 2.459246 1_554
Ca1 O9 2.489446 1_565
Ca1 O1 2.495004 1_565
Ca1 O8 2.501323 1_454
Ca1 O5 2.501719 1_555
Ca1 O16 2.510669 1_554
Ca1 O13 2.565428 1_555
Ca1 O10 2.783512 1_554
O0 S0 1.489463 1_555
O1 S1 1.489463 1_555
O2 S0 1.498113 1_555
O3 S1 1.498113 1_555
O4 S2 1.496454 1_555
O5 S3 1.496454 1_555
O6 S2 1.489864 1_555
O7 S3 1.489864 1_555
O8 S0 1.494486 1_555
O9 S1 1.494486 1_555
O10 S1 1.483697 1_556
O11 S0 1.483697 1_554
O12 S2 1.509046 1_555
O13 S3 1.509046 1_555
O14 S2 1.489673 1_555
O15 S3 1.489673 1_555
