# generated using pymatgen
data_Li6Cr3Cu(PO4)6
_symmetry_space_group_name_H-M   'P 1'
_cell_length_a   8.50907800
_cell_length_b   8.53902121
_cell_length_c   8.54965991
_cell_angle_alpha   61.44214675
_cell_angle_beta   61.58280562
_cell_angle_gamma   61.60235859
_symmetry_Int_Tables_number   1
_chemical_formula_structural   Li6Cr3Cu(PO4)6
_chemical_formula_sum   'Li6 Cr3 Cu1 P6 O24'
_cell_volume   454.46519395
_cell_formula_units_Z   1
loop_
 _symmetry_equiv_pos_site_id
 _symmetry_equiv_pos_as_xyz
  1  'x, y, z'
loop_
 _atom_site_type_symbol
 _atom_site_label
 _atom_site_symmetry_multiplicity
 _atom_site_fract_x
 _atom_site_fract_y
 _atom_site_fract_z
 _atom_site_occupancy
  Li  Li0  1  0.02068400  0.99922500  0.98906800  1
  Li  Li1  1  0.75634700  0.14464100  0.34940700  1
  Li  Li2  1  0.47542200  0.50926600  0.49957500  1
  Li  Li3  1  0.21529400  0.85010300  0.66160000  1
  Li  Li4  1  0.66576100  0.21063400  0.84903600  1
  Li  Li5  1  0.84788500  0.66800200  0.20993600  1
  Cr  Cr0  1  0.13976900  0.14382500  0.13798700  1
  Cr  Cr1  1  0.36002900  0.36187500  0.35589700  1
  Cr  Cr2  1  0.64232800  0.64562000  0.64522400  1
  Cu  Cu0  1  0.85363800  0.85089400  0.84868100  1
  P  P0  1  0.04954900  0.75035800  0.45230100  1
  P  P1  1  0.45073300  0.05090800  0.75115900  1
  P  P2  1  0.75049300  0.45651700  0.04661200  1
  P  P3  1  0.25372300  0.53800500  0.95924500  1
  P  P4  1  0.54073200  0.96407300  0.25365100  1
  P  P5  1  0.95634600  0.25287900  0.53443900  1
  O  O0  1  0.11885900  0.31658600  0.48100300  1
  O  O1  1  0.33041100  0.49430800  0.10862300  1
  O  O2  1  0.04140900  0.92480700  0.27034400  1
  O  O3  1  0.52326700  0.11266200  0.31904100  1
  O  O4  1  0.24385500  0.59788600  0.41675100  1
  O  O5  1  0.03539300  0.79720500  0.61399400  1
  O  O6  1  0.26177300  0.06233800  0.91356700  1
  O  O7  1  0.43635200  0.24078500  0.58609100  1
  O  O8  1  0.59811000  0.42283700  0.24544100  1
  O  O9  1  0.20033800  0.37798700  0.98773900  1
  O  O10  1  0.08293600  0.72654700  0.96088100  1
  O  O11  1  0.36629600  0.00452100  0.21526100  1
  O  O12  1  0.61408700  0.02984600  0.80155300  1
  O  O13  1  0.90847100  0.26117100  0.06396200  1
  O  O14  1  0.80381000  0.61534400  0.02773600  1
  O  O15  1  0.40093400  0.58014400  0.75694800  1
  O  O16  1  0.57746200  0.76259200  0.40298100  1
  O  O17  1  0.72555700  0.95879700  0.07881500  1
  O  O18  1  0.96503400  0.20648700  0.37701900  1
  O  O19  1  0.75847000  0.40294700  0.58248400  1
  O  O20  1  0.49088600  0.88704500  0.69415600  1
  O  O21  1  0.96138300  0.07940600  0.72099300  1
  O  O22  1  0.69209400  0.49719600  0.88497700  1
  O  O23  1  0.88407900  0.69273100  0.49682100  1
loop_
_geom_bond_atom_site_label_1
_geom_bond_atom_site_label_2
_geom_bond_distance
_geom_bond_site_symmetry_2
Li0 O6 2.091451 1_565
Li0 O10 2.236506 1_555
Li0 O2 2.248116 1_556
Li0 O13 2.254064 1_466
Li0 O21 2.290901 1_465
Li0 O17 2.398273 1_456
Li1 O8 2.079436 1_555
Li1 O13 2.125614 1_555
Li1 O18 2.213149 1_555
Li1 O3 2.269013 1_555
Li1 O2 2.277265 1_645
Li1 O7 2.529963 1_555
Li2 O4 2.086632 1_555
Li2 O7 2.187029 1_555
Li2 O8 2.235353 1_555
Li2 O15 2.278377 1_555
Li2 O16 2.347590 1_555
Li2 O19 2.461150 1_555
Li3 O5 2.034575 1_555
Li3 O15 2.106901 1_555
Li3 O21 2.154583 1_465
Li3 O10 2.176030 1_555
Li4 O12 2.038637 1_555
Li4 O19 2.110830 1_555
Li4 O17 2.148065 1_546
Li4 O21 2.156953 1_555
Li5 O14 2.038514 1_555
Li5 O17 2.120548 1_555
Li5 O16 2.136196 1_555
Li5 O10 2.159657 1_654
Cr0 O9 1.951448 1_554
Cr0 O11 1.961279 1_555
Cr0 O6 1.984161 1_554
Cr0 O13 1.995379 1_455
Cr0 O2 2.010642 1_545
Cr0 O18 2.017470 1_455
Cr1 O1 1.939600 1_555
Cr1 O0 1.942968 1_555
Cr1 O4 1.981762 1_555
Cr1 O3 1.992527 1_555
Cr1 O8 1.994758 1_555
Cr1 O7 1.999101 1_555
Cr2 O23 1.954026 1_555
Cr2 O22 1.954262 1_555
Cr2 O20 1.967265 1_555
Cr2 O15 2.039220 1_555
Cr2 O19 2.041731 1_555
Cr2 O16 2.043902 1_555
Cu0 O14 1.954064 1_556
Cu0 O5 1.969674 1_655
Cu0 O12 1.970435 1_565
Cu0 O21 2.133571 1_565
Cu0 O17 2.155283 1_556
Cu0 O10 2.165983 1_655
O0 P5 1.514431 1_455
O1 P3 1.517265 1_554
O2 P0 1.559708 1_555
O3 P4 1.537617 1_545
O4 P0 1.540660 1_555
O5 P0 1.552424 1_555
O6 P1 1.542139 1_555
O7 P1 1.556735 1_555
O8 P2 1.563042 1_555
O9 P3 1.516425 1_555
O10 P3 1.575068 1_555
O11 P4 1.515853 1_545
O12 P1 1.551834 1_555
O13 P2 1.559437 1_555
O14 P2 1.541922 1_555
O15 P3 1.568961 1_555
O16 P4 1.567126 1_555
O17 P4 1.571400 1_555
O18 P5 1.536556 1_555
O19 P5 1.561575 1_555
O20 P1 1.533254 1_565
O21 P5 1.576640 1_555
O22 P2 1.519134 1_556
O23 P0 1.529488 1_655
