# generated using pymatgen
data_Li2Ti4VO8
_symmetry_space_group_name_H-M   'P 1'
_cell_length_a   5.93547482
_cell_length_b   5.93547482
_cell_length_c   5.92734349
_cell_angle_alpha   60.10089930
_cell_angle_beta   60.10089930
_cell_angle_gamma   59.25681651
_symmetry_Int_Tables_number   1
_chemical_formula_structural   Li2Ti4VO8
_chemical_formula_sum   'Li2 Ti4 V1 O8'
_cell_volume   147.03157835
_cell_formula_units_Z   1
loop_
 _symmetry_equiv_pos_site_id
 _symmetry_equiv_pos_as_xyz
  1  'x, y, z'
loop_
 _atom_site_type_symbol
 _atom_site_label
 _atom_site_symmetry_multiplicity
 _atom_site_fract_x
 _atom_site_fract_y
 _atom_site_fract_z
 _atom_site_occupancy
  Li  Li0  1  0.00000000  0.50000000  0.00000000  1
  Li  Li1  1  0.50000000  0.00000000  0.00000000  1
  Ti  Ti0  1  0.00000000  0.00000000  0.00000000  1
  Ti  Ti1  1  0.50000000  0.00000000  0.50000000  1
  Ti  Ti2  1  0.00000000  0.50000000  0.50000000  1
  Ti  Ti3  1  0.50000000  0.50000000  0.50000000  1
  V  V0  1  0.50000000  0.50000000  0.00000000  1
  O  O0  1  0.25226000  0.75043900  0.74900500  1
  O  O1  1  0.74428400  0.74428400  0.73411300  1
  O  O2  1  0.24961400  0.24961400  0.75598900  1
  O  O3  1  0.75043900  0.25226000  0.74900500  1
  O  O4  1  0.24956100  0.74774000  0.25099500  1
  O  O5  1  0.75038600  0.75038600  0.24401100  1
  O  O6  1  0.25571600  0.25571600  0.26588700  1
  O  O7  1  0.74774000  0.24956100  0.25099500  1
loop_
_geom_bond_atom_site_label_1
_geom_bond_atom_site_label_2
_geom_bond_distance
_geom_bond_site_symmetry_2
Li0 O5 2.061819 1_455
Li0 O2 2.061819 1_554
Li0 O0 2.124808 1_554
Li0 O7 2.124808 1_455
Li0 O6 2.178638 1_555
Li0 O1 2.178638 1_454
Li1 O5 2.061819 1_545
Li1 O2 2.061819 1_554
Li1 O3 2.124808 1_554
Li1 O4 2.124808 1_545
Li1 O1 2.178638 1_544
Li1 O6 2.178638 1_555
O0 V0 2.080077 1_556
O0 Ti3 2.083049 1_555
O0 Ti0 2.087601 1_566
O0 Ti1 2.101997 1_565
O1 Ti1 1.996951 1_565
O1 Ti2 1.996951 1_655
O1 V0 2.069191 1_556
O2 Ti1 2.109022 1_555
O2 Ti2 2.109022 1_555
O2 Ti0 2.110354 1_556
O2 Ti3 2.116958 1_555
O3 V0 2.080077 1_556
O3 Ti3 2.083049 1_555
O3 Ti0 2.087601 1_656
O3 Ti2 2.101997 1_655
O4 V0 2.080077 1_555
O4 Ti3 2.083049 1_555
O4 Ti0 2.087601 1_565
O4 Ti2 2.101997 1_555
O5 Ti1 2.109022 1_565
O5 Ti2 2.109022 1_655
O5 Ti0 2.110354 1_665
O5 Ti3 2.116958 1_555
O6 Ti2 1.996951 1_555
O6 Ti1 1.996951 1_555
O6 V0 2.069191 1_555
O7 V0 2.080077 1_555
O7 Ti3 2.083049 1_555
O7 Ti0 2.087601 1_655
O7 Ti1 2.101997 1_555
