# generated using pymatgen
data_Li4NbV3O8
_symmetry_space_group_name_H-M   'P 1'
_cell_length_a   10.57866778
_cell_length_b   10.59538098
_cell_length_c   14.99564377
_cell_angle_alpha   19.14461592
_cell_angle_beta   19.15166633
_cell_angle_gamma   33.04452314
_symmetry_Int_Tables_number   1
_chemical_formula_structural   Li4NbV3O8
_chemical_formula_sum   'Li4 Nb1 V3 O8'
_cell_volume   156.25479407
_cell_formula_units_Z   1
loop_
 _symmetry_equiv_pos_site_id
 _symmetry_equiv_pos_as_xyz
  1  'x, y, z'
loop_
 _atom_site_type_symbol
 _atom_site_label
 _atom_site_symmetry_multiplicity
 _atom_site_fract_x
 _atom_site_fract_y
 _atom_site_fract_z
 _atom_site_occupancy
  Li  Li0  1  0.99991900  0.00003400  0.50001500  1
  Li  Li1  1  0.00003900  0.49998500  0.49994000  1
  Li  Li2  1  0.50000800  0.99996800  0.50007500  1
  Li  Li3  1  0.50004500  0.49996300  0.49998800  1
  Nb  Nb0  1  0.99976600  0.00010200  0.00009900  1
  V  V0  1  0.00015400  0.50027700  0.99969800  1
  V  V1  1  0.49981200  0.00004700  0.00012900  1
  V  V2  1  0.50019500  0.49965300  0.00009400  1
  O  O0  1  0.02014000  0.02121700  0.23067200  1
  O  O1  1  0.98445800  0.49742300  0.26578500  1
  O  O2  1  0.49653700  0.98515600  0.26567600  1
  O  O3  1  0.97977400  0.97880700  0.76942200  1
  O  O4  1  0.49951700  0.50068700  0.25283300  1
  O  O5  1  0.01567700  0.50246700  0.73435600  1
  O  O6  1  0.50354700  0.01461600  0.73418900  1
  O  O7  1  0.50041000  0.49959900  0.74702800  1
loop_
_geom_bond_atom_site_label_1
_geom_bond_atom_site_label_2
_geom_bond_distance
_geom_bond_site_symmetry_2
Li0 O4 2.158138 1_546
Li0 O7 2.158243 1_654
Li0 O2 2.180011 1_645
Li0 O6 2.180670 1_555
Li0 O5 2.190964 1_645
Li0 O1 2.191738 1_555
Li1 O4 2.161514 1_555
Li1 O7 2.161558 1_455
Li1 O2 2.188903 1_446
Li1 O6 2.189899 1_564
Li1 O3 2.248472 1_445
Li1 O0 2.250127 1_565
Li2 O7 2.172199 1_555
Li2 O4 2.172268 1_565
Li2 O5 2.189619 1_664
Li2 O1 2.189862 1_456
Li2 O0 2.237924 1_665
Li2 O3 2.238917 1_455
Li3 O5 2.129023 1_555
Li3 O1 2.130764 1_555
Li3 O2 2.138572 1_555
Li3 O6 2.140986 1_555
Li3 O3 2.150306 1_554
Li3 O0 2.151041 1_556
Nb0 O2 2.095681 1_545
Nb0 O6 2.095682 1_654
Nb0 O5 2.097354 1_654
Nb0 O1 2.097910 1_545
Nb0 O7 2.106060 1_545
Nb0 O4 2.106898 1_654
O0 V1 2.040660 1_555
O0 V0 2.042786 1_554
O0 V2 2.122741 1_446
O1 V1 2.075172 1_556
O1 V2 2.147224 1_655
O2 V0 2.075651 1_555
O2 V2 2.150007 1_565
O3 V1 2.041463 1_566
O3 V0 2.042540 1_655
O3 V2 2.122915 1_665
O4 V0 2.113852 1_654
O4 V1 2.115997 1_565
O5 V1 2.075532 1_565
O5 V2 2.147085 1_456
O6 V0 2.075309 1_654
O6 V2 2.149978 1_546
O7 V0 2.113426 1_555
O7 V1 2.115536 1_556
