# generated using pymatgen
data_LiMnB2O5
_symmetry_space_group_name_H-M   'P 1'
_cell_length_a   11.45566300
_cell_length_b   5.47050600
_cell_length_c   11.76305447
_cell_angle_alpha   78.67418558
_cell_angle_beta   90.00000000
_cell_angle_gamma   90.00000000
_symmetry_Int_Tables_number   1
_chemical_formula_structural   LiMnB2O5
_chemical_formula_sum   'Li8 Mn8 B16 O40'
_cell_volume   722.81486011
_cell_formula_units_Z   8
loop_
 _symmetry_equiv_pos_site_id
 _symmetry_equiv_pos_as_xyz
  1  'x, y, z'
loop_
 _atom_site_type_symbol
 _atom_site_label
 _atom_site_symmetry_multiplicity
 _atom_site_fract_x
 _atom_site_fract_y
 _atom_site_fract_z
 _atom_site_occupancy
  Li  Li0  1  0.63901200  0.36783300  0.07903400  1
  Li  Li1  1  0.86098800  0.86783300  0.07903400  1
  Li  Li2  1  0.12138400  0.13078500  0.42211700  1
  Li  Li3  1  0.37861600  0.63078500  0.42211700  1
  Li  Li4  1  0.62138400  0.36921500  0.57788300  1
  Li  Li5  1  0.87861600  0.86921500  0.57788300  1
  Li  Li6  1  0.13901200  0.13216700  0.92096600  1
  Li  Li7  1  0.36098800  0.63216700  0.92096600  1
  Mn  Mn0  1  0.37683400  0.26410800  0.23458500  1
  Mn  Mn1  1  0.87625000  0.25361000  0.26335800  1
  Mn  Mn2  1  0.12316600  0.76410800  0.23458500  1
  Mn  Mn3  1  0.62375000  0.75361000  0.26335800  1
  Mn  Mn4  1  0.37625000  0.24639000  0.73664200  1
  Mn  Mn5  1  0.87683400  0.23589200  0.76541500  1
  Mn  Mn6  1  0.12375000  0.74639000  0.73664200  1
  Mn  Mn7  1  0.62316600  0.73589200  0.76541500  1
  B  B0  1  0.36905000  0.13698000  0.00425500  1
  B  B1  1  0.13095000  0.63698000  0.00425500  1
  B  B2  1  0.11580000  0.29927700  0.17042800  1
  B  B3  1  0.38420000  0.79927700  0.17042800  1
  B  B4  1  0.62855600  0.21003500  0.33108200  1
  B  B5  1  0.87144400  0.71003500  0.33108200  1
  B  B6  1  0.38492100  0.14986800  0.50664500  1
  B  B7  1  0.88492100  0.35013200  0.49335500  1
  B  B8  1  0.11507900  0.64986800  0.50664500  1
  B  B9  1  0.61507900  0.85013200  0.49335500  1
  B  B10  1  0.12855600  0.28996500  0.66891800  1
  B  B11  1  0.37144400  0.78996500  0.66891800  1
  B  B12  1  0.61580000  0.20072300  0.82957200  1
  B  B13  1  0.88420000  0.70072300  0.82957200  1
  B  B14  1  0.86905000  0.36302000  0.99574500  1
  B  B15  1  0.63095000  0.86302000  0.99574500  1
  O  O0  1  0.38767000  0.31635000  0.06876600  1
  O  O1  1  0.11176100  0.38010300  0.04981500  1
  O  O2  1  0.82609200  0.28948500  0.10431400  1
  O  O3  1  0.11233000  0.81635000  0.06876600  1
  O  O4  1  0.38823900  0.88010300  0.04981500  1
  O  O5  1  0.67390800  0.78948500  0.10431400  1
  O  O6  1  0.05275600  0.09643100  0.22409500  1
  O  O7  1  0.56963100  0.10223600  0.24996000  1
  O  O8  1  0.18134700  0.42777000  0.23786500  1
  O  O9  1  0.44724400  0.59643100  0.22409500  1
  O  O10  1  0.69383500  0.41874900  0.29283700  1
  O  O11  1  0.93036900  0.60223600  0.24996000  1
  O  O12  1  0.31865300  0.92777000  0.23786500  1
  O  O13  1  0.80616500  0.91874900  0.29283700  1
  O  O14  1  0.35288300  0.25354900  0.39738600  1
  O  O15  1  0.62663100  0.10987400  0.45112400  1
  O  O16  1  0.92219800  0.19171800  0.42332800  1
  O  O17  1  0.14711700  0.75354900  0.39738600  1
  O  O18  1  0.87336900  0.60987400  0.45112400  1
  O  O19  1  0.57780200  0.69171800  0.42332800  1
  O  O20  1  0.42219800  0.30828200  0.57667200  1
  O  O21  1  0.12663100  0.39012600  0.54887600  1
  O  O22  1  0.85288300  0.24645100  0.60261400  1
  O  O23  1  0.07780200  0.80828200  0.57667200  1
  O  O24  1  0.37336900  0.89012600  0.54887600  1
  O  O25  1  0.64711700  0.74645100  0.60261400  1
  O  O26  1  0.19383500  0.08125100  0.70716300  1
  O  O27  1  0.68134700  0.07223000  0.76213500  1
  O  O28  1  0.06963100  0.39776400  0.75004000  1
  O  O29  1  0.30616500  0.58125100  0.70716300  1
  O  O30  1  0.55275600  0.40356900  0.77590500  1
  O  O31  1  0.81865300  0.57223000  0.76213500  1
  O  O32  1  0.43036900  0.89776400  0.75004000  1
  O  O33  1  0.94724400  0.90356900  0.77590500  1
  O  O34  1  0.32609200  0.21051500  0.89568600  1
  O  O35  1  0.61176100  0.11989700  0.95018500  1
  O  O36  1  0.88767000  0.18365000  0.93123400  1
  O  O37  1  0.17390800  0.71051500  0.89568600  1
  O  O38  1  0.88823900  0.61989700  0.95018500  1
  O  O39  1  0.61233000  0.68365000  0.93123400  1
loop_
_geom_bond_atom_site_label_1
_geom_bond_atom_site_label_2
_geom_bond_distance
_geom_bond_site_symmetry_2
Li0 O2 2.194323 1_555
Li0 O39 2.218373 1_554
Li0 O35 2.245387 1_554
Li0 O7 2.374430 1_555
Li0 O5 2.416254 1_555
Li1 O5 2.194323 1_555
Li1 O36 2.218373 1_564
Li1 O38 2.245387 1_554
Li1 O11 2.374430 1_555
Li1 O2 2.416254 1_565
Li2 O17 2.160110 1_545
Li2 O21 2.251796 1_555
Li2 O16 2.306475 1_455
Li2 O23 2.325360 1_545
Li2 O6 2.500236 1_555
Li2 O8 2.534914 1_555
Li3 O14 2.160110 1_555
Li3 O24 2.251796 1_555
Li3 O19 2.306475 1_555
Li3 O20 2.325360 1_555
Li3 O9 2.500236 1_555
Li3 O12 2.534914 1_555
Li4 O25 2.160110 1_555
Li4 O15 2.251796 1_555
Li4 O20 2.306475 1_555
Li4 O19 2.325360 1_555
Li4 O30 2.500236 1_555
Li4 O27 2.534914 1_555
Li5 O22 2.160110 1_565
Li5 O18 2.251796 1_555
Li5 O23 2.306475 1_655
Li5 O16 2.325360 1_565
Li5 O33 2.500236 1_555
Li5 O31 2.534914 1_555
Li6 O34 2.194323 1_555
Li6 O3 2.218373 1_546
Li6 O1 2.245387 1_556
Li6 O28 2.374430 1_555
Li6 O37 2.416254 1_545
Li7 O37 2.194323 1_555
Li7 O0 2.218373 1_556
Li7 O4 2.245387 1_556
Li7 O32 2.374430 1_555
Li7 O34 2.416254 1_555
Mn0 O0 1.919045 1_555
Mn0 O14 1.924198 1_555
Mn0 O12 1.950181 1_545
Mn0 O9 1.970467 1_555
Mn0 O7 2.373172 1_555
Mn0 O8 2.414892 1_555
Mn1 O16 1.918953 1_555
Mn1 O2 1.929900 1_555
Mn1 O13 1.967499 1_545
Mn1 O11 1.982020 1_555
Mn1 O6 2.279712 1_655
Mn1 O10 2.329418 1_555
Mn2 O3 1.919045 1_555
Mn2 O17 1.924198 1_555
Mn2 O8 1.950181 1_555
Mn2 O6 1.970467 1_565
Mn2 O11 2.373172 1_455
Mn2 O12 2.414892 1_555
Mn3 O19 1.918953 1_555
Mn3 O5 1.929900 1_555
Mn3 O10 1.967499 1_555
Mn3 O7 1.982020 1_565
Mn3 O9 2.279712 1_555
Mn3 O13 2.329418 1_555
Mn4 O20 1.918953 1_555
Mn4 O34 1.929900 1_555
Mn4 O29 1.967499 1_555
Mn4 O32 1.982020 1_545
Mn4 O30 2.279712 1_555
Mn4 O26 2.329418 1_555
Mn5 O36 1.919045 1_555
Mn5 O22 1.924198 1_555
Mn5 O31 1.950181 1_555
Mn5 O33 1.970467 1_545
Mn5 O28 2.373172 1_655
Mn5 O27 2.414892 1_555
Mn6 O23 1.918953 1_555
Mn6 O37 1.929900 1_555
Mn6 O26 1.967499 1_565
Mn6 O28 1.982020 1_555
Mn6 O33 2.279712 1_455
Mn6 O29 2.329418 1_555
Mn7 O39 1.919045 1_555
Mn7 O25 1.924198 1_555
Mn7 O27 1.950181 1_565
Mn7 O30 1.970467 1_555
Mn7 O32 2.373172 1_555
Mn7 O31 2.414892 1_555
B0 O34 1.353959 1_554
B0 O0 1.369910 1_555
B0 O4 1.419315 1_545
B1 O37 1.353959 1_554
B1 O3 1.369910 1_555
B1 O1 1.419315 1_555
B2 O6 1.369793 1_555
B2 O8 1.380655 1_555
B2 O1 1.401491 1_555
B3 O9 1.369793 1_555
B3 O12 1.380655 1_555
B3 O4 1.401491 1_555
B4 O10 1.365103 1_555
B4 O7 1.391053 1_555
B4 O15 1.410934 1_555
B5 O13 1.365103 1_555
B5 O11 1.391053 1_555
B5 O18 1.410934 1_555
B6 O14 1.349768 1_555
B6 O20 1.375601 1_555
B6 O24 1.416353 1_545
B7 O22 1.349768 1_555
B7 O16 1.375601 1_555
B7 O18 1.416353 1_555
B8 O17 1.349768 1_555
B8 O23 1.375601 1_555
B8 O21 1.416353 1_555
B9 O25 1.349768 1_555
B9 O19 1.375601 1_555
B9 O15 1.416353 1_565
B10 O26 1.365103 1_555
B10 O28 1.391053 1_555
B10 O21 1.410934 1_555
B11 O29 1.365103 1_555
B11 O32 1.391053 1_555
B11 O24 1.410934 1_555
B12 O30 1.369793 1_555
B12 O27 1.380655 1_555
B12 O35 1.401491 1_555
B13 O33 1.369793 1_555
B13 O31 1.380655 1_555
B13 O38 1.401491 1_555
B14 O2 1.353959 1_556
B14 O36 1.369910 1_555
B14 O38 1.419315 1_555
B15 O5 1.353959 1_556
B15 O39 1.369910 1_555
B15 O35 1.419315 1_565
