# generated using pymatgen
data_Li2CoSiO4
_symmetry_space_group_name_H-M   'P 1'
_cell_length_a   6.33611297
_cell_length_b   7.36615908
_cell_length_c   7.36643974
_cell_angle_alpha   94.28144938
_cell_angle_beta   90.43581019
_cell_angle_gamma   89.55449137
_symmetry_Int_Tables_number   1
_chemical_formula_structural   Li2CoSiO4
_chemical_formula_sum   'Li8 Co4 Si4 O16'
_cell_volume   342.83415570
_cell_formula_units_Z   4
loop_
 _symmetry_equiv_pos_site_id
 _symmetry_equiv_pos_as_xyz
  1  'x, y, z'
loop_
 _atom_site_type_symbol
 _atom_site_label
 _atom_site_symmetry_multiplicity
 _atom_site_fract_x
 _atom_site_fract_y
 _atom_site_fract_z
 _atom_site_occupancy
  Li  Li0  1  0.26863600  0.67120000  0.32835300  1
  Li  Li1  1  0.26862900  0.17120900  0.82837200  1
  Li  Li2  1  0.73133400  0.57835600  0.92121000  1
  Li  Li3  1  0.73134400  0.07835800  0.42118200  1
  Li  Li4  1  0.50038100  0.33192300  0.16680600  1
  Li  Li5  1  0.50037700  0.83189800  0.66680500  1
  Li  Li6  1  0.49961900  0.91681100  0.08191000  1
  Li  Li7  1  0.49961700  0.41682500  0.58190300  1
  Co  Co0  1  0.00655200  0.84018200  0.65856900  1
  Co  Co1  1  0.99339700  0.40851900  0.59027100  1
  Co  Co2  1  0.00656100  0.34014100  0.15859600  1
  Co  Co3  1  0.99341800  0.90848100  0.09023000  1
  Si  Si0  1  0.74263600  0.65920800  0.33406500  1
  Si  Si1  1  0.74266500  0.15925600  0.83412100  1
  Si  Si2  1  0.25740400  0.58401800  0.90920100  1
  Si  Si3  1  0.25735800  0.08407300  0.40921000  1
  O  O0  1  0.96765900  0.13832600  0.95742200  1
  O  O1  1  0.96765600  0.63827000  0.45731600  1
  O  O2  1  0.03233700  0.70744200  0.88818300  1
  O  O3  1  0.03224600  0.20746500  0.38816100  1
  O  O4  1  0.53626900  0.14406500  0.96066600  1
  O  O5  1  0.53628100  0.64405000  0.46065800  1
  O  O6  1  0.46371500  0.71066800  0.89406500  1
  O  O7  1  0.46370100  0.21067600  0.39406500  1
  O  O8  1  0.75096700  0.49197300  0.17099700  1
  O  O9  1  0.75100100  0.99199000  0.67108000  1
  O  O10  1  0.24915400  0.42094600  0.74196100  1
  O  O11  1  0.24907800  0.92098200  0.24198700  1
  O  O12  1  0.75069400  0.35788300  0.74250800  1
  O  O13  1  0.75065800  0.85782100  0.24241500  1
  O  O14  1  0.24932100  0.49245500  0.10782600  1
  O  O15  1  0.24933600  0.99246000  0.60781300  1
loop_
_geom_bond_atom_site_label_1
_geom_bond_atom_site_label_2
_geom_bond_distance
_geom_bond_site_symmetry_2
Li0 O5 1.965807 1_555
Li0 O11 1.993869 1_555
Li0 O14 2.016852 1_555
Li0 O1 2.160396 1_455
Li1 O4 1.965733 1_555
Li1 O10 1.993656 1_555
Li1 O15 2.017040 1_545
Li1 O0 2.160579 1_455
Li2 O6 1.965556 1_555
Li2 O8 1.994047 1_556
Li2 O12 2.016333 1_555
Li2 O2 2.161137 1_655
Li3 O7 1.965681 1_555
Li3 O9 1.994786 1_545
Li3 O13 2.016957 1_545
Li3 O3 2.160633 1_655
Li4 O7 1.971460 1_555
Li4 O8 1.983617 1_555
Li4 O4 1.989747 1_554
Li4 O14 2.038258 1_555
Li5 O6 1.971387 1_555
Li5 O9 1.983975 1_555
Li5 O5 1.989748 1_555
Li5 O15 2.038317 1_555
Li6 O4 1.971369 1_564
Li6 O11 1.983375 1_555
Li6 O6 1.989762 1_554
Li6 O13 2.038177 1_555
Li7 O5 1.971195 1_555
Li7 O10 1.982906 1_555
Li7 O7 1.989769 1_555
Li7 O12 2.038710 1_555
Co0 O9 1.959462 1_455
Co0 O15 1.965351 1_555
Co0 O2 2.020883 1_555
Co0 O1 2.035097 1_455
Co1 O10 1.960235 1_655
Co1 O12 1.964480 1_555
Co1 O1 2.022563 1_555
Co1 O3 2.035003 1_655
Co2 O8 1.959777 1_455
Co2 O14 1.965413 1_555
Co2 O3 2.020266 1_555
Co2 O0 2.034226 1_454
Co3 O11 1.960012 1_655
Co3 O13 1.964581 1_555
Co3 O0 2.022584 1_564
Co3 O2 2.034668 1_654
O0 Si1 1.696718 1_555
O1 Si0 1.696666 1_555
O2 Si2 1.697545 1_555
O3 Si3 1.697686 1_555
O4 Si1 1.621140 1_555
O5 Si0 1.621107 1_555
O6 Si2 1.621200 1_555
O7 Si3 1.621169 1_555
O8 Si0 1.655982 1_555
O9 Si1 1.656007 1_565
O10 Si2 1.656025 1_555
O11 Si3 1.656039 1_565
O12 Si1 1.657664 1_555
O13 Si0 1.657697 1_555
O14 Si2 1.657525 1_554
O15 Si3 1.657536 1_565
