# generated using pymatgen
data_Li4Ti3Nb2Ni3O16
_symmetry_space_group_name_H-M   'P 1'
_cell_length_a   5.96585523
_cell_length_b   9.79634601
_cell_length_c   10.37173835
_cell_angle_alpha   90.00546074
_cell_angle_beta   90.00361510
_cell_angle_gamma   89.99683456
_symmetry_Int_Tables_number   1
_chemical_formula_structural   Li4Ti3Nb2Ni3O16
_chemical_formula_sum   'Li8 Ti6 Nb4 Ni6 O32'
_cell_volume   606.16153646
_cell_formula_units_Z   2
loop_
 _symmetry_equiv_pos_site_id
 _symmetry_equiv_pos_as_xyz
  1  'x, y, z'
loop_
 _atom_site_type_symbol
 _atom_site_label
 _atom_site_symmetry_multiplicity
 _atom_site_fract_x
 _atom_site_fract_y
 _atom_site_fract_z
 _atom_site_occupancy
  Li  Li0  1  0.49999400  0.90309700  0.16563300  1
  Li  Li1  1  0.99999200  0.90312100  0.66553400  1
  Li  Li2  1  0.49998700  0.98539900  0.49837300  1
  Li  Li3  1  0.99998800  0.98533800  0.99845000  1
  Li  Li4  1  0.99998900  0.49558400  0.00124200  1
  Li  Li5  1  0.49999100  0.49555700  0.50121300  1
  Li  Li6  1  0.99999100  0.40840100  0.33239300  1
  Li  Li7  1  0.49999100  0.40842200  0.83233400  1
  Ti  Ti0  1  0.99998500  0.73383300  0.17782200  1
  Ti  Ti1  1  0.49998700  0.73383700  0.67780000  1
  Ti  Ti2  1  0.74850400  0.22020000  0.09477300  1
  Ti  Ti3  1  0.24849300  0.22024800  0.59478400  1
  Ti  Ti4  1  0.25147600  0.22020200  0.09477600  1
  Ti  Ti5  1  0.75146900  0.22026200  0.59478900  1
  Nb  Nb0  1  0.50001000  0.50092300  0.16668500  1
  Nb  Nb1  1  0.99999400  0.50088800  0.66672100  1
  Nb  Nb2  1  0.00001400  0.98785100  0.35217400  1
  Nb  Nb3  1  0.50001300  0.98782900  0.85218300  1
  Ni  Ni0  1  0.00000000  0.20956700  0.83148700  1
  Ni  Ni1  1  0.74674400  0.70879700  0.91316500  1
  Ni  Ni2  1  0.25327200  0.70880600  0.91317300  1
  Ni  Ni3  1  0.50000000  0.20962000  0.33148200  1
  Ni  Ni4  1  0.24674600  0.70875500  0.41318000  1
  Ni  Ni5  1  0.75326200  0.70876500  0.41318200  1
  O  O0  1  0.49998700  0.33314300  0.01794700  1
  O  O1  1  0.99998400  0.33316200  0.51795300  1
  O  O2  1  0.49996400  0.10665700  0.15503900  1
  O  O3  1  0.99998800  0.10667100  0.65505500  1
  O  O4  1  0.99998600  0.30577000  0.00503500  1
  O  O5  1  0.49998500  0.30580600  0.50499400  1
  O  O6  1  0.00001600  0.79772200  0.00540400  1
  O  O7  1  0.50001400  0.79770200  0.50541100  1
  O  O8  1  0.99999200  0.10128200  0.16418800  1
  O  O9  1  0.49999100  0.10152600  0.66421700  1
  O  O10  1  0.49998700  0.58330100  0.33170700  1
  O  O11  1  0.99994600  0.58329300  0.83172600  1
  O  O12  1  0.99998200  0.60820000  0.31936400  1
  O  O13  1  0.49998100  0.60823300  0.81941800  1
  O  O14  1  0.00058800  0.84936100  0.48056300  1
  O  O15  1  0.50055300  0.84947700  0.98064100  1
  O  O16  1  0.74719100  0.58908100  0.08615800  1
  O  O17  1  0.24721100  0.58905900  0.58617300  1
  O  O18  1  0.25276400  0.58906800  0.08616000  1
  O  O19  1  0.75275800  0.58906600  0.58617100  1
  O  O20  1  0.72927700  0.33778500  0.23430800  1
  O  O21  1  0.22926500  0.33778700  0.73430900  1
  O  O22  1  0.27069700  0.33778500  0.23430700  1
  O  O23  1  0.77070700  0.33778900  0.73431000  1
  O  O24  1  0.21935200  0.84906900  0.25062900  1
  O  O25  1  0.71927600  0.84921200  0.75051000  1
  O  O26  1  0.78057900  0.84906200  0.25066000  1
  O  O27  1  0.28070300  0.84921500  0.75054000  1
  O  O28  1  0.24923300  0.09378500  0.41843300  1
  O  O29  1  0.74925300  0.09378300  0.91844000  1
  O  O30  1  0.75075400  0.09376300  0.41843900  1
  O  O31  1  0.25073400  0.09376200  0.91844500  1
loop_
_geom_bond_atom_site_label_1
_geom_bond_atom_site_label_2
_geom_bond_distance
_geom_bond_site_symmetry_2
Li0 O26 1.964627 1_555
Li0 O24 1.964899 1_555
Li0 O15 1.989247 1_554
Li0 O2 1.997180 1_565
Li1 O27 1.964830 1_655
Li1 O25 1.964868 1_555
Li1 O14 1.989400 1_655
Li1 O3 1.997016 1_565
Li2 O7 1.840200 1_555
Li2 O28 2.013098 1_565
Li2 O30 2.013181 1_565
Li2 O9 2.062164 1_565
Li3 O6 1.839373 1_656
Li3 O29 2.013618 1_565
Li3 O31 2.013702 1_665
Li3 O8 2.060258 1_566
Li4 O4 1.859903 1_555
Li4 O11 1.956973 1_554
Li4 O18 1.971893 1_655
Li4 O16 1.972055 1_555
Li5 O5 1.859284 1_555
Li5 O10 1.957030 1_555
Li5 O19 1.972155 1_555
Li5 O17 1.972200 1_555
Li6 O12 1.961972 1_555
Li6 O20 2.030177 1_555
Li6 O22 2.030186 1_655
Li6 O1 2.060958 1_555
Li7 O13 1.962009 1_555
Li7 O23 2.029968 1_555
Li7 O21 2.029986 1_555
Li7 O0 2.061611 1_556
Nb0 O10 1.892207 1_555
Nb0 O16 1.902218 1_555
Nb0 O18 1.902296 1_555
Nb0 O20 2.217358 1_555
Nb0 O22 2.217688 1_555
Nb0 O0 2.254080 1_555
Nb1 O11 1.892160 1_555
Nb1 O19 1.902510 1_555
Nb1 O17 1.902538 1_655
Nb1 O21 2.216997 1_655
Nb1 O23 2.217208 1_555
Nb1 O1 2.253907 1_555
Nb2 O14 1.901100 1_555
Nb2 O28 1.939001 1_565
Nb2 O30 1.939074 1_465
Nb2 O24 2.160925 1_555
Nb2 O26 2.161173 1_455
Nb2 O8 2.244257 1_465
Nb3 O15 1.900637 1_555
Nb3 O29 1.939194 1_565
Nb3 O31 1.939260 1_565
Nb3 O25 2.160286 1_555
Nb3 O27 2.160295 1_555
Nb3 O9 2.245369 1_565
Ni0 O4 2.031710 1_456
Ni0 O31 2.082746 1_555
Ni0 O29 2.082839 1_455
Ni0 O3 2.089086 1_455
Ni0 O23 2.112999 1_455
Ni0 O21 2.113056 1_555
Ni1 O6 1.989220 1_656
Ni1 O13 2.020637 1_555
Ni1 O11 2.122887 1_555
Ni1 O15 2.132134 1_555
Ni1 O16 2.143621 1_556
Ni1 O25 2.182981 1_555
Ni2 O6 1.989088 1_556
Ni2 O13 2.020495 1_555
Ni2 O11 2.123518 1_455
Ni2 O15 2.136579 1_555
Ni2 O18 2.143687 1_556
Ni2 O27 2.182778 1_555
Ni3 O5 2.031302 1_555
Ni3 O30 2.083104 1_555
Ni3 O28 2.083187 1_555
Ni3 O2 2.089503 1_555
Ni3 O22 2.112695 1_555
Ni3 O20 2.112762 1_555
Ni4 O7 1.989256 1_555
Ni4 O12 2.020943 1_455
Ni4 O10 2.122909 1_555
Ni4 O14 2.131214 1_555
Ni4 O17 2.143513 1_555
Ni4 O24 2.181490 1_555
Ni5 O7 1.989131 1_555
Ni5 O12 2.020820 1_555
Ni5 O10 2.123139 1_555
Ni5 O14 2.135995 1_655
Ni5 O19 2.143496 1_555
Ni5 O26 2.181146 1_555
O0 Ti2 2.014223 1_555
O0 Ti4 2.014362 1_555
O1 Ti3 2.014052 1_655
O1 Ti5 2.014188 1_555
O2 Ti4 1.955865 1_555
O2 Ti2 1.956251 1_555
O3 Ti5 1.956271 1_555
O3 Ti3 1.956299 1_655
O4 Ti4 1.954455 1_655
O4 Ti2 1.954573 1_555
O5 Ti5 1.954594 1_555
O5 Ti3 1.954826 1_555
O6 Ti0 1.894693 1_455
O7 Ti1 1.894332 1_555
O8 Ti2 2.031335 1_555
O8 Ti4 2.031480 1_655
O9 Ti3 2.030345 1_555
O9 Ti5 2.030479 1_555
O12 Ti0 1.915779 1_555
O13 Ti1 1.916200 1_555
O16 Ti0 2.277929 1_555
O17 Ti1 2.277856 1_555
O18 Ti0 2.277916 1_455
O19 Ti1 2.277778 1_555
O20 Ti2 1.853153 1_555
O21 Ti3 1.852792 1_555
O22 Ti4 1.853102 1_555
O23 Ti5 1.852687 1_555
O24 Ti0 1.886062 1_455
O25 Ti1 1.886152 1_555
O26 Ti0 1.886290 1_555
O27 Ti1 1.886253 1_555
O28 Ti3 2.209046 1_555
O29 Ti2 2.208639 1_556
O30 Ti5 2.209235 1_555
O31 Ti4 2.208748 1_556
