# generated using pymatgen
data_LiNbPO5
_symmetry_space_group_name_H-M   'P 1'
_cell_length_a   6.68805900
_cell_length_b   7.49876800
_cell_length_c   7.62284200
_cell_angle_alpha   90.00000000
_cell_angle_beta   90.00000000
_cell_angle_gamma   90.00000000
_symmetry_Int_Tables_number   1
_chemical_formula_structural   LiNbPO5
_chemical_formula_sum   'Li4 Nb4 P4 O20'
_cell_volume   382.30231798
_cell_formula_units_Z   4
loop_
 _symmetry_equiv_pos_site_id
 _symmetry_equiv_pos_as_xyz
  1  'x, y, z'
loop_
 _atom_site_type_symbol
 _atom_site_label
 _atom_site_symmetry_multiplicity
 _atom_site_fract_x
 _atom_site_fract_y
 _atom_site_fract_z
 _atom_site_occupancy
  Li  Li0  1  0.00000000  0.00000000  0.00000000  1
  Li  Li1  1  0.50000000  0.00000000  0.00000000  1
  Li  Li2  1  0.00000000  0.50000000  0.50000000  1
  Li  Li3  1  0.50000000  0.50000000  0.50000000  1
  Nb  Nb0  1  0.25000000  0.72141700  0.16148200  1
  Nb  Nb1  1  0.75000000  0.22141700  0.33851800  1
  Nb  Nb2  1  0.25000000  0.77858300  0.66148200  1
  Nb  Nb3  1  0.75000000  0.27858300  0.83851800  1
  P  P0  1  0.75000000  0.63297300  0.12778100  1
  P  P1  1  0.25000000  0.13297300  0.37221900  1
  P  P2  1  0.75000000  0.86702700  0.62778100  1
  P  P3  1  0.25000000  0.36702700  0.87221900  1
  O  O0  1  0.25000000  0.48021700  0.04147900  1
  O  O1  1  0.75000000  0.16251600  0.09667600  1
  O  O2  1  0.56388800  0.75582100  0.12962200  1
  O  O3  1  0.93611200  0.75582100  0.12962200  1
  O  O4  1  0.25000000  0.00896800  0.20906100  1
  O  O5  1  0.75000000  0.50896800  0.29093900  1
  O  O6  1  0.06388800  0.25582100  0.37037800  1
  O  O7  1  0.43611200  0.25582100  0.37037800  1
  O  O8  1  0.25000000  0.66251600  0.40332400  1
  O  O9  1  0.75000000  0.98021700  0.45852100  1
  O  O10  1  0.25000000  0.01978300  0.54147900  1
  O  O11  1  0.75000000  0.33748400  0.59667600  1
  O  O12  1  0.56388800  0.74417900  0.62962200  1
  O  O13  1  0.93611200  0.74417900  0.62962200  1
  O  O14  1  0.25000000  0.49103200  0.70906100  1
  O  O15  1  0.75000000  0.99103200  0.79093900  1
  O  O16  1  0.06388800  0.24417900  0.87037800  1
  O  O17  1  0.43611200  0.24417900  0.87037800  1
  O  O18  1  0.25000000  0.83748400  0.90332400  1
  O  O19  1  0.75000000  0.51978300  0.95852100  1
loop_
_geom_bond_atom_site_label_1
_geom_bond_atom_site_label_2
_geom_bond_distance
_geom_bond_site_symmetry_2
Li0 O16 2.124054 1_554
Li0 O3 2.124054 1_445
Li0 O1 2.196333 1_455
Li0 O18 2.196333 1_544
Li0 O4 2.310810 1_555
Li0 O15 2.310810 1_444
Li1 O2 2.124054 1_545
Li1 O17 2.124054 1_554
Li1 O1 2.196333 1_555
Li1 O18 2.196333 1_544
Li1 O4 2.310810 1_555
Li1 O15 2.310810 1_544
Li2 O6 2.124054 1_555
Li2 O13 2.124054 1_455
Li2 O11 2.196333 1_455
Li2 O8 2.196333 1_555
Li2 O5 2.310810 1_455
Li2 O14 2.310810 1_555
Li3 O7 2.124054 1_555
Li3 O12 2.124054 1_555
Li3 O8 2.196333 1_555
Li3 O11 2.196333 1_555
Li3 O5 2.310810 1_555
Li3 O14 2.310810 1_555
Nb0 O8 1.895696 1_555
Nb0 O0 2.026869 1_555
Nb0 O2 2.128992 1_555
Nb0 O3 2.128992 1_455
Nb0 O18 2.151778 1_554
Nb0 O4 2.186568 1_565
Nb1 O1 1.895696 1_555
Nb1 O9 2.026869 1_545
Nb1 O6 2.128992 1_655
Nb1 O7 2.128992 1_555
Nb1 O11 2.151778 1_555
Nb1 O5 2.186568 1_555
Nb2 O18 1.895696 1_555
Nb2 O10 2.026869 1_565
Nb2 O13 2.128992 1_455
Nb2 O12 2.128992 1_555
Nb2 O8 2.151778 1_555
Nb2 O14 2.186568 1_555
Nb3 O11 1.895696 1_555
Nb3 O19 2.026869 1_555
Nb3 O16 2.128992 1_655
Nb3 O17 2.128992 1_555
Nb3 O1 2.151778 1_556
Nb3 O15 2.186568 1_545
O0 P3 1.544397 1_554
O2 P0 1.548603 1_555
O3 P0 1.548603 1_555
O4 P1 1.552915 1_555
O5 P0 1.552915 1_555
O6 P1 1.548603 1_555
O7 P1 1.548603 1_555
O9 P2 1.544397 1_555
O10 P1 1.544397 1_555
O12 P2 1.548603 1_555
O13 P2 1.548603 1_555
O14 P3 1.552915 1_555
O15 P2 1.552915 1_555
O16 P3 1.548603 1_555
O17 P3 1.548603 1_555
O19 P0 1.544397 1_556
