# generated using pymatgen
data_Li2Mn4OF8
_symmetry_space_group_name_H-M   'P 1'
_cell_length_a   8.27541900
_cell_length_b   10.09071036
_cell_length_c   10.46824604
_cell_angle_alpha   66.76277975
_cell_angle_beta   89.49596340
_cell_angle_gamma   89.35450880
_symmetry_Int_Tables_number   1
_chemical_formula_structural   Li2Mn4OF8
_chemical_formula_sum   'Li8 Mn16 O4 F32'
_cell_volume   803.17772970
_cell_formula_units_Z   4
loop_
 _symmetry_equiv_pos_site_id
 _symmetry_equiv_pos_as_xyz
  1  'x, y, z'
loop_
 _atom_site_type_symbol
 _atom_site_label
 _atom_site_symmetry_multiplicity
 _atom_site_fract_x
 _atom_site_fract_y
 _atom_site_fract_z
 _atom_site_occupancy
  Li  Li0  1  0.53458300  0.77344100  0.71625100  1
  Li  Li1  1  0.02769000  0.72176400  0.76665200  1
  Li  Li2  1  0.93648900  0.89772300  0.26155700  1
  Li  Li3  1  0.53792200  0.41513300  0.77383900  1
  Li  Li4  1  0.46783300  0.59348600  0.23967800  1
  Li  Li5  1  0.02309300  0.06656000  0.72251700  1
  Li  Li6  1  0.96824500  0.25571900  0.21048300  1
  Li  Li7  1  0.47302000  0.22354500  0.28621100  1
  Mn  Mn0  1  0.76060800  0.84119500  0.92736000  1
  Mn  Mn1  1  0.77593400  0.95503000  0.48599600  1
  Mn  Mn2  1  0.51668000  0.92477200  0.19139900  1
  Mn  Mn3  1  0.70212000  0.50545600  0.03299900  1
  Mn  Mn4  1  0.27718000  0.69815600  0.49326600  1
  Mn  Mn5  1  0.63867800  0.68606800  0.44693000  1
  Mn  Mn6  1  0.18285500  0.82146300  0.02710300  1
  Mn  Mn7  1  0.97134800  0.43023100  0.67347800  1
  Mn  Mn8  1  0.04312600  0.55062500  0.30432900  1
  Mn  Mn9  1  0.84332000  0.18398600  0.96782100  1
  Mn  Mn10  1  0.35768800  0.30664900  0.54317500  1
  Mn  Mn11  1  0.75582500  0.30957800  0.46212500  1
  Mn  Mn12  1  0.30984800  0.50099300  0.99214200  1
  Mn  Mn13  1  0.46045000  0.03157500  0.82495400  1
  Mn  Mn14  1  0.17989100  0.01307200  0.49088300  1
  Mn  Mn15  1  0.23818100  0.16230000  0.03255000  1
  O  O0  1  0.61605500  0.91973900  0.76573900  1
  O  O1  1  0.71930800  0.89325300  0.32539000  1
  O  O2  1  0.33954500  0.97927700  0.01155000  1
  O  O3  1  0.42622600  0.72869900  0.32691800  1
  F  F0  1  0.98401200  0.95050100  0.90845900  1
  F  F1  1  0.99270700  0.92111500  0.64622900  1
  F  F2  1  0.20954200  0.71172900  0.89048600  1
  F  F3  1  0.35832200  0.85276600  0.57381700  1
  F  F4  1  0.87911600  0.65088500  0.92095900  1
  F  F5  1  0.71970300  0.73956500  0.61509700  1
  F  F6  1  0.09373200  0.86015000  0.40880200  1
  F  F7  1  0.52703800  0.58639400  0.87289600  1
  F  F8  1  0.10004000  0.60414900  0.67079700  1
  F  F9  1  0.99533900  0.76080200  0.18392500  1
  F  F10  1  0.46351500  0.55108900  0.60704800  1
  F  F11  1  0.76680400  0.38353000  0.80561200  1
  F  F12  1  0.38057200  0.33944600  0.91309900  1
  F  F13  1  0.84534200  0.53050000  0.46888700  1
  F  F14  1  0.16802100  0.46252700  0.49588300  1
  F  F15  1  0.64645100  0.67560500  0.10398400  1
  F  F16  1  0.24263500  0.59015000  0.16773000  1
  F  F17  1  0.54157600  0.42809000  0.40639500  1
  F  F18  1  0.06248500  0.25687200  0.85335600  1
  F  F19  1  0.52639000  0.25134100  0.69916400  1
  F  F20  1  0.88485600  0.41442200  0.26929600  1
  F  F21  1  0.68195100  0.02027700  0.99915700  1
  F  F22  1  0.49103500  0.41566800  0.15107100  1
  F  F23  1  0.91306100  0.24396200  0.62530500  1
  F  F24  1  0.24685200  0.10448300  0.67642600  1
  F  F25  1  0.28921500  0.21884900  0.40167900  1
  F  F26  1  0.13970800  0.34306100  0.08862100  1
  F  F27  1  0.63067900  0.14745300  0.43559100  1
  F  F28  1  0.77944600  0.29262400  0.09460800  1
  F  F29  1  0.95855500  0.12514800  0.39799300  1
  F  F30  1  0.38950400  0.09840500  0.21406800  1
  F  F31  1  0.00805600  0.07896000  0.13026200  1
loop_
_geom_bond_atom_site_label_1
_geom_bond_atom_site_label_2
_geom_bond_distance
_geom_bond_site_symmetry_2
Li0 O0 1.879973 1_555
Li2 O1 1.906731 1_555
Li4 O3 1.944544 1_555
Mn0 O0 1.969207 1_555
Mn1 O1 2.069365 1_555
Mn2 O3 2.070578 1_555
Mn2 O1 2.134876 1_555
Mn2 O2 2.282356 1_555
Mn4 O3 2.048406 1_555
Mn5 O1 2.086234 1_555
Mn5 O3 2.109448 1_555
Mn6 O2 2.020400 1_555
Mn13 O0 1.954772 1_545
Mn13 O2 2.063782 1_546
Mn15 O2 2.108308 1_545
F0 Li5 1.861082 1_665
F0 Mn0 2.130945 1_555
F0 Mn6 2.158072 1_656
F1 Li1 1.926601 1_655
F1 Li5 1.947221 1_665
F1 Mn14 2.168502 1_665
F1 Mn1 2.394751 1_555
F2 Li1 1.970470 1_555
F2 Mn12 2.129206 1_555
F2 Mn6 2.135107 1_556
F3 Li0 2.015368 1_555
F3 Mn14 2.100302 1_565
F3 Mn4 2.160450 1_555
F4 Li1 1.925032 1_655
F4 Mn3 2.081966 1_556
F4 Mn0 2.170717 1_555
F5 Li0 1.957107 1_555
F5 Mn1 2.112643 1_555
F5 Mn5 2.149151 1_555
F6 Li2 1.943178 1_455
F6 Mn4 2.141426 1_555
F6 Mn14 2.170162 1_565
F7 Li0 1.952921 1_555
F7 Mn3 2.123959 1_556
F7 Mn12 2.162842 1_555
F7 Li3 2.340673 1_555
F8 Li1 1.920161 1_555
F8 Mn7 2.053670 1_455
F8 Mn4 2.257176 1_555
F9 Li2 1.915822 1_555
F9 Mn8 2.030650 1_655
F9 Mn6 2.159018 1_655
F10 Li3 1.849205 1_555
F10 Mn4 2.141202 1_555
F10 Mn5 2.228476 1_555
F11 Li3 1.927095 1_555
F11 Mn7 2.112574 1_555
F11 Mn9 2.151956 1_555
F12 Li3 1.874706 1_555
F12 Mn15 2.098845 1_556
F12 Mn12 2.172285 1_555
F13 Mn7 2.236870 1_555
F13 Mn5 2.259133 1_555
F13 Mn8 2.317215 1_655
F13 Mn11 2.384540 1_555
F14 Mn8 2.118639 1_555
F14 Mn10 2.127515 1_555
F14 Mn7 2.385802 1_455
F14 Mn4 2.542954 1_555
F15 Li4 1.987752 1_555
F15 Mn0 2.161029 1_554
F15 Mn3 2.166823 1_555
F16 Li4 2.021768 1_555
F16 Mn8 2.110208 1_555
F16 Mn6 2.266142 1_555
F16 Mn12 2.402700 1_554
F17 Li4 1.975123 1_555
F17 Mn11 2.081802 1_555
F17 Mn10 2.118189 1_555
F18 Mn9 2.136020 1_455
F18 Mn7 2.137918 1_455
F18 Mn15 2.268846 1_556
F19 Mn10 2.056797 1_555
F19 Li3 2.091941 1_555
F19 Mn13 2.158674 1_555
F20 Li6 2.040940 1_555
F20 Mn8 2.045875 1_655
F20 Mn11 2.153254 1_555
F21 Mn9 2.057717 1_555
F21 Mn0 2.300142 1_545
F21 Mn2 2.302203 1_546
F21 Mn13 2.566809 1_555
F22 Li7 1.902795 1_555
F22 Mn3 2.124614 1_555
F22 Mn12 2.154512 1_554
F22 Li4 2.327911 1_555
F23 Li5 1.900351 1_655
F23 Mn11 2.043698 1_555
F23 Mn7 2.189166 1_555
F24 Li5 1.913787 1_555
F24 Mn10 2.173219 1_555
F24 Mn13 2.280271 1_555
F24 Mn14 2.524799 1_555
F25 Li7 1.923806 1_555
F25 Mn10 2.088445 1_555
F25 Mn14 2.121206 1_555
F26 Li6 1.877936 1_455
F26 Mn12 2.073075 1_554
F26 Mn15 2.266827 1_555
F27 Li7 1.950122 1_555
F27 Mn11 2.056173 1_555
F27 Mn1 2.154903 1_545
F28 Li6 1.927414 1_555
F28 Mn3 2.078720 1_555
F28 Mn9 2.089347 1_554
F29 Li6 1.885268 1_555
F29 Mn14 2.167116 1_655
F29 Mn1 2.205779 1_545
F30 Li7 1.850376 1_555
F30 Mn2 2.125055 1_545
F30 Mn15 2.156727 1_555
F31 Li2 1.900273 1_445
F31 Mn9 2.111738 1_454
F31 Mn15 2.168686 1_555
F31 Li6 2.271316 1_455
