# generated using pymatgen
data_Li3MnPCO7
_symmetry_space_group_name_H-M   'P 1'
_cell_length_a   6.48311300
_cell_length_b   8.60349800
_cell_length_c   9.84660508
_cell_angle_alpha   85.41329881
_cell_angle_beta   90.00000000
_cell_angle_gamma   90.00000000
_symmetry_Int_Tables_number   1
_chemical_formula_structural   Li3MnPCO7
_chemical_formula_sum   'Li12 Mn4 P4 C4 O28'
_cell_volume   547.45962929
_cell_formula_units_Z   4
loop_
 _symmetry_equiv_pos_site_id
 _symmetry_equiv_pos_as_xyz
  1  'x, y, z'
loop_
 _atom_site_type_symbol
 _atom_site_label
 _atom_site_symmetry_multiplicity
 _atom_site_fract_x
 _atom_site_fract_y
 _atom_site_fract_z
 _atom_site_occupancy
  Li  Li0  1  0.74937800  0.89711100  0.61349200  1
  Li  Li1  1  0.75062200  0.89711100  0.11349200  1
  Li  Li2  1  0.98826700  0.71362700  0.88255600  1
  Li  Li3  1  0.51173300  0.71362700  0.38255600  1
  Li  Li4  1  0.25527500  0.64674100  0.61038500  1
  Li  Li5  1  0.24472500  0.64674100  0.11038500  1
  Li  Li6  1  0.75527500  0.35325900  0.88961500  1
  Li  Li7  1  0.74472500  0.35325900  0.38961500  1
  Li  Li8  1  0.48826700  0.28637300  0.61744400  1
  Li  Li9  1  0.01173300  0.28637300  0.11744400  1
  Li  Li10  1  0.24937800  0.10288900  0.88650800  1
  Li  Li11  1  0.25062200  0.10288900  0.38650800  1
  Mn  Mn0  1  0.50188600  0.73165100  0.87069800  1
  Mn  Mn1  1  0.99811400  0.73165100  0.37069800  1
  Mn  Mn2  1  0.00188600  0.26834900  0.62930200  1
  Mn  Mn3  1  0.49811400  0.26834900  0.12930200  1
  P  P0  1  0.74811800  0.59287300  0.63993800  1
  P  P1  1  0.75188200  0.59287300  0.13993800  1
  P  P2  1  0.24811800  0.40712700  0.86006200  1
  P  P3  1  0.25188200  0.40712700  0.36006200  1
  C  C0  1  0.25215700  0.95788600  0.64795000  1
  C  C1  1  0.24784300  0.95788600  0.14795000  1
  C  C2  1  0.75215700  0.04211400  0.85205000  1
  C  C3  1  0.74784300  0.04211400  0.35205000  1
  O  O0  1  0.23957400  0.93013400  0.52221700  1
  O  O1  1  0.75029800  0.89655700  0.81714700  1
  O  O2  1  0.26042600  0.93013400  0.02221700  1
  O  O3  1  0.26472800  0.84639700  0.74426300  1
  O  O4  1  0.74970200  0.89655700  0.31714700  1
  O  O5  1  0.23527200  0.84639700  0.24426300  1
  O  O6  1  0.94141200  0.68735000  0.58670300  1
  O  O7  1  0.56103200  0.69315400  0.58934000  1
  O  O8  1  0.93896800  0.69315400  0.08934000  1
  O  O9  1  0.55858800  0.68735000  0.08670300  1
  O  O10  1  0.24456000  0.57367000  0.91001800  1
  O  O11  1  0.74944400  0.57775800  0.79952000  1
  O  O12  1  0.25544000  0.57367000  0.41001800  1
  O  O13  1  0.75055600  0.57775800  0.29952000  1
  O  O14  1  0.24944400  0.42224200  0.70048000  1
  O  O15  1  0.74456000  0.42633000  0.58998200  1
  O  O16  1  0.25055600  0.42224200  0.20048000  1
  O  O17  1  0.75544000  0.42633000  0.08998200  1
  O  O18  1  0.06103200  0.30684600  0.91066000  1
  O  O19  1  0.44141200  0.31265000  0.91329700  1
  O  O20  1  0.43896800  0.30684600  0.41066000  1
  O  O21  1  0.05858800  0.31265000  0.41329700  1
  O  O22  1  0.76472800  0.15360300  0.75573700  1
  O  O23  1  0.25029800  0.10344300  0.68285300  1
  O  O24  1  0.73527200  0.15360300  0.25573700  1
  O  O25  1  0.73957400  0.06986600  0.97778300  1
  O  O26  1  0.24970200  0.10344300  0.18285300  1
  O  O27  1  0.76042600  0.06986600  0.47778300  1
loop_
_geom_bond_atom_site_label_1
_geom_bond_atom_site_label_2
_geom_bond_distance
_geom_bond_site_symmetry_2
Li0 O27 1.918903 1_565
Li0 O1 2.004944 1_555
Li0 O7 2.166433 1_555
Li0 O6 2.225433 1_555
Li1 O25 1.918903 1_564
Li1 O4 2.004944 1_555
Li1 O8 2.166433 1_555
Li1 O9 2.225433 1_555
Li2 O8 2.054654 1_556
Li2 O10 2.057130 1_655
Li2 O11 2.141283 1_555
Li2 O1 2.260493 1_555
Li2 O3 2.474420 1_655
Li3 O7 2.054654 1_555
Li3 O12 2.057130 1_555
Li3 O13 2.141283 1_555
Li3 O4 2.260493 1_555
Li3 O5 2.474420 1_555
Li4 O7 2.029409 1_555
Li4 O14 2.060337 1_555
Li4 O6 2.074575 1_455
Li4 O12 2.118033 1_555
Li4 O3 2.248179 1_555
Li4 O0 2.523925 1_555
Li5 O8 2.029409 1_455
Li5 O16 2.060337 1_555
Li5 O9 2.074575 1_555
Li5 O10 2.118033 1_554
Li5 O5 2.248179 1_555
Li5 O2 2.523925 1_555
Li6 O18 2.029409 1_655
Li6 O11 2.060337 1_555
Li6 O19 2.074575 1_555
Li6 O17 2.118033 1_556
Li6 O22 2.248179 1_555
Li6 O25 2.523925 1_555
Li7 O20 2.029409 1_555
Li7 O13 2.060337 1_555
Li7 O21 2.074575 1_655
Li7 O15 2.118033 1_555
Li7 O24 2.248179 1_555
Li7 O27 2.523925 1_555
Li8 O20 2.054654 1_555
Li8 O15 2.057130 1_555
Li8 O14 2.141283 1_555
Li8 O23 2.260493 1_555
Li8 O22 2.474420 1_555
Li9 O18 2.054654 1_554
Li9 O17 2.057130 1_455
Li9 O16 2.141283 1_555
Li9 O26 2.260493 1_555
Li9 O24 2.474420 1_455
Li10 O2 1.918903 1_546
Li10 O23 2.004944 1_555
Li10 O18 2.166433 1_555
Li10 O19 2.225433 1_555
Li11 O0 1.918903 1_545
Li11 O26 2.004944 1_555
Li11 O20 2.166433 1_555
Li11 O21 2.225433 1_555
Mn0 O9 2.162064 1_556
Mn0 O3 2.166084 1_555
Mn0 O10 2.167087 1_555
Mn0 O1 2.182877 1_555
Mn0 O11 2.229012 1_555
Mn1 O6 2.162064 1_555
Mn1 O5 2.166084 1_655
Mn1 O12 2.167087 1_655
Mn1 O4 2.182877 1_555
Mn1 O13 2.229012 1_555
Mn2 O21 2.162064 1_555
Mn2 O22 2.166084 1_455
Mn2 O15 2.167087 1_455
Mn2 O23 2.182877 1_555
Mn2 O14 2.229012 1_555
Mn3 O19 2.162064 1_554
Mn3 O24 2.166084 1_555
Mn3 O17 2.167087 1_555
Mn3 O26 2.182877 1_555
Mn3 O16 2.229012 1_555
C0 O0 1.282065 1_555
C0 O3 1.296376 1_555
C0 O23 1.324895 1_565
C1 O2 1.282065 1_555
C1 O5 1.296376 1_555
C1 O26 1.324895 1_565
C2 O25 1.282065 1_555
C2 O22 1.296376 1_555
C2 O1 1.324895 1_545
C3 O27 1.282065 1_555
C3 O24 1.296376 1_555
C3 O4 1.324895 1_545
O6 P0 1.561313 1_555
O7 P0 1.547568 1_555
O8 P1 1.547568 1_555
O9 P1 1.561313 1_555
O10 P2 1.551865 1_555
O11 P0 1.566338 1_555
O12 P3 1.551865 1_555
O13 P1 1.566338 1_555
O14 P2 1.566338 1_555
O15 P0 1.551865 1_555
O16 P3 1.566338 1_555
O17 P1 1.551865 1_555
O18 P2 1.547568 1_555
O19 P2 1.561313 1_555
O20 P3 1.547568 1_555
O21 P3 1.561313 1_555
