# generated using pymatgen
data_Li5V6O5F19
_symmetry_space_group_name_H-M   'P 1'
_cell_length_a   5.19919300
_cell_length_b   5.40585973
_cell_length_c   16.27618149
_cell_angle_alpha   80.61862514
_cell_angle_beta   89.73042037
_cell_angle_gamma   89.55679497
_symmetry_Int_Tables_number   1
_chemical_formula_structural   Li5V6O5F19
_chemical_formula_sum   'Li5 V6 O5 F19'
_cell_volume   451.32542610
_cell_formula_units_Z   1
loop_
 _symmetry_equiv_pos_site_id
 _symmetry_equiv_pos_as_xyz
  1  'x, y, z'
loop_
 _atom_site_type_symbol
 _atom_site_label
 _atom_site_symmetry_multiplicity
 _atom_site_fract_x
 _atom_site_fract_y
 _atom_site_fract_z
 _atom_site_occupancy
  Li  Li0  1  0.45643600  0.62610500  0.55755200  1
  Li  Li1  1  0.04793600  0.69973400  0.87046700  1
  Li  Li2  1  0.28052700  0.19277600  0.15141700  1
  Li  Li3  1  0.03686000  0.12363900  0.56251900  1
  Li  Li4  1  0.76291300  0.64010300  0.17050000  1
  V  V0  1  0.96829000  0.62812100  0.66734500  1
  V  V1  1  0.51757600  0.80648500  0.33552700  1
  V  V2  1  0.02879300  0.02766500  0.00380200  1
  V  V3  1  0.53401800  0.52005500  0.99668700  1
  V  V4  1  0.52129700  0.12904400  0.67238100  1
  V  V5  1  0.99492100  0.33224500  0.33808300  1
  O  O0  1  0.80623000  0.37630600  0.63962000  1
  O  O1  1  0.79835400  0.70350600  0.98528600  1
  O  O2  1  0.69217900  0.88510500  0.63781800  1
  O  O3  1  0.21643400  0.26064400  0.02715100  1
  O  O4  1  0.71340200  0.56530000  0.31211400  1
  F  F0  1  0.71278700  0.21730600  0.97264800  1
  F  F1  1  0.30380600  0.46052700  0.68853900  1
  F  F2  1  0.91176900  0.93331900  0.11867300  1
  F  F3  1  0.57672300  0.76913900  0.44981200  1
  F  F4  1  0.89664600  0.60051600  0.77996200  1
  F  F5  1  0.38253600  0.56531700  0.89204900  1
  F  F6  1  0.41084400  0.90393800  0.22289500  1
  F  F7  1  0.11200700  0.76468800  0.55839100  1
  F  F8  1  0.79071200  0.05815200  0.31395100  1
  F  F9  1  0.29204600  0.10534600  0.35439900  1
  F  F10  1  0.19135900  0.95008700  0.68957700  1
  F  F11  1  0.57393000  0.41372600  0.11976100  1
  F  F12  1  0.08541900  0.02820300  0.89091000  1
  F  F13  1  0.92171400  0.25795300  0.44788100  1
  F  F14  1  0.57682400  0.11068700  0.78054600  1
  F  F15  1  0.07625600  0.39693600  0.22453300  1
  F  F16  1  0.37973300  0.26359300  0.56136100  1
  F  F17  1  0.29352400  0.76450000  0.03163500  1
  F  F18  1  0.20472600  0.60773000  0.35941500  1
loop_
_geom_bond_atom_site_label_1
_geom_bond_atom_site_label_2
_geom_bond_distance
_geom_bond_site_symmetry_2
Li0 O2 2.409831 1_555
Li0 O0 2.512380 1_555
Li1 O1 2.272864 1_455
Li2 O3 2.024598 1_555
Li3 O0 2.323264 1_455
Li3 O2 2.424081 1_445
Li4 O4 2.287941 1_555
O0 V0 1.728652 1_555
O0 V4 2.014062 1_555
O1 V3 1.692752 1_555
O1 V2 2.192046 1_666
O2 V4 1.750370 1_565
O2 V0 1.994917 1_555
O3 V2 1.691431 1_555
O3 V3 2.177209 1_554
O4 V1 1.737682 1_555
O4 V5 1.926637 1_555
F0 V2 1.954425 1_656
F0 V3 1.969086 1_555
F1 V0 1.965226 1_455
F1 V4 2.162961 1_555
F1 Li0 2.312822 1_555
F2 Li4 1.843898 1_555
F2 V2 1.951708 1_665
F2 Li2 2.494398 1_665
F3 V1 1.864773 1_555
F3 Li0 1.902421 1_555
F4 Li1 1.830672 1_655
F4 V0 1.850966 1_555
F5 V3 1.858633 1_555
F5 Li1 1.892290 1_555
F6 V1 1.906925 1_555
F6 Li2 1.910342 1_565
F6 Li4 2.540382 1_555
F7 Li0 1.936640 1_555
F7 V0 1.953816 1_455
F7 Li3 1.988214 1_565
F8 V5 1.922233 1_555
F8 V1 1.964766 1_545
F9 V5 1.956994 1_455
F9 V1 2.051471 1_545
F10 V4 1.972245 1_565
F10 V0 2.178503 1_455
F10 Li3 2.274556 1_565
F11 Li4 1.871026 1_555
F11 Li2 1.959415 1_555
F11 V3 2.003211 1_554
F12 V2 1.859056 1_556
F12 Li1 1.870889 1_545
F13 V5 1.806057 1_555
F13 Li3 1.982216 1_655
F14 V4 1.772000 1_555
F15 V5 1.871108 1_455
F15 Li2 2.039701 1_555
F15 Li4 2.181500 1_455
F16 Li3 1.940758 1_555
F16 V4 1.977802 1_555
F16 Li0 1.993868 1_555
F17 V3 1.961117 1_554
F17 V2 1.972060 1_565
F18 V5 1.930159 1_455
F18 V1 1.958625 1_555
