# generated using pymatgen
data_LiFePCO7
_symmetry_space_group_name_H-M   'P 1'
_cell_length_a   8.26365100
_cell_length_b   8.28513172
_cell_length_c   8.43286739
_cell_angle_alpha   93.50379410
_cell_angle_beta   93.23349895
_cell_angle_gamma   102.35090392
_symmetry_Int_Tables_number   1
_chemical_formula_structural   LiFePCO7
_chemical_formula_sum   'Li4 Fe4 P4 C4 O28'
_cell_volume   561.51223625
_cell_formula_units_Z   4
loop_
 _symmetry_equiv_pos_site_id
 _symmetry_equiv_pos_as_xyz
  1  'x, y, z'
loop_
 _atom_site_type_symbol
 _atom_site_label
 _atom_site_symmetry_multiplicity
 _atom_site_fract_x
 _atom_site_fract_y
 _atom_site_fract_z
 _atom_site_occupancy
  Li  Li0  1  0.23753200  0.98760700  0.10733700  1
  Li  Li1  1  0.60548100  0.15590700  0.28256700  1
  Li  Li2  1  0.26114900  0.51173800  0.89297600  1
  Li  Li3  1  0.76877900  0.01018600  0.88696500  1
  Fe  Fe0  1  0.47433300  0.71895300  0.33430600  1
  Fe  Fe1  1  0.97948200  0.22550700  0.33753400  1
  Fe  Fe2  1  0.02485300  0.77227600  0.66078400  1
  Fe  Fe3  1  0.52345400  0.27658300  0.66703600  1
  P  P0  1  0.75487300  0.50431300  0.42345600  1
  P  P1  1  0.26311000  0.00843500  0.42157600  1
  P  P2  1  0.73718600  0.98901800  0.57607100  1
  P  P3  1  0.23851200  0.49228500  0.57903100  1
  C  C0  1  0.52842600  0.77708900  0.04646500  1
  C  C1  1  0.01988900  0.27784400  0.04730300  1
  C  C2  1  0.97795600  0.73066400  0.95498400  1
  C  C3  1  0.48045900  0.21699700  0.95397800  1
  O  O0  1  0.40868300  0.65510300  0.07400700  1
  O  O1  1  0.90242200  0.15362100  0.07676800  1
  O  O2  1  0.94852100  0.69913200  0.09693200  1
  O  O3  1  0.60776500  0.86235800  0.17466700  1
  O  O4  1  0.45600100  0.17048600  0.09206200  1
  O  O5  1  0.10187100  0.36192400  0.17414700  1
  O  O6  1  0.62554000  0.56723800  0.31964300  1
  O  O7  1  0.79837100  0.36005700  0.31935400  1
  O  O8  1  0.32120600  0.88290800  0.30470900  1
  O  O9  1  0.13544200  0.07368200  0.31364400  1
  O  O10  1  0.90838800  0.64399300  0.47432600  1
  O  O11  1  0.80100100  0.06602100  0.42173500  1
  O  O12  1  0.30884700  0.56529400  0.42791500  1
  O  O13  1  0.41946600  0.15208600  0.46897300  1
  O  O14  1  0.58730900  0.84538700  0.52220400  1
  O  O15  1  0.68294800  0.43804200  0.57918700  1
  O  O16  1  0.19060100  0.93641900  0.57071700  1
  O  O17  1  0.09017300  0.34636500  0.52445500  1
  O  O18  1  0.86951600  0.92822400  0.67936300  1
  O  O19  1  0.18044300  0.61916200  0.69289800  1
  O  O20  1  0.68073200  0.11636900  0.69097300  1
  O  O21  1  0.36545300  0.42872500  0.68764300  1
  O  O22  1  0.88986800  0.64231300  0.83660600  1
  O  O23  1  0.57045200  0.81949200  0.91170700  1
  O  O24  1  0.38768800  0.14184500  0.82857100  1
  O  O25  1  0.06105500  0.31733500  0.91164900  1
  O  O26  1  0.59482400  0.33792200  0.91524800  1
  O  O27  1  0.09670100  0.85184900  0.92171100  1
loop_
_geom_bond_atom_site_label_1
_geom_bond_atom_site_label_2
_geom_bond_distance
_geom_bond_site_symmetry_2
Li0 O27 2.022164 1_554
Li0 O8 2.074625 1_555
Li0 O4 2.109865 1_565
Li0 O9 2.125643 1_565
Li1 O4 1.996239 1_555
Li1 O7 2.055377 1_555
Li1 O11 2.224879 1_555
Li1 O13 2.256703 1_555
Li1 O3 2.548420 1_545
Li2 O0 2.043691 1_556
Li2 O25 2.067400 1_555
Li2 O19 2.096239 1_555
Li2 O21 2.119108 1_555
Li3 O23 2.048624 1_545
Li3 O1 2.049491 1_556
Li3 O20 2.085878 1_555
Li3 O18 2.116582 1_545
Fe0 O12 1.901007 1_555
Fe0 O14 1.921321 1_555
Fe0 O6 1.956254 1_555
Fe0 O3 2.059675 1_555
Fe0 O8 2.061521 1_555
Fe0 O0 2.234600 1_555
Fe1 O17 1.891190 1_655
Fe1 O11 1.955663 1_555
Fe1 O9 1.993921 1_655
Fe1 O5 2.014259 1_655
Fe1 O7 2.053015 1_555
Fe1 O1 2.261759 1_555
Fe2 O10 1.927610 1_455
Fe2 O16 1.936264 1_555
Fe2 O19 2.009032 1_555
Fe2 O18 2.012253 1_455
Fe2 O22 2.114220 1_455
Fe2 O27 2.266409 1_555
Fe3 O15 1.884791 1_555
Fe3 O13 1.959692 1_555
Fe3 O21 2.006678 1_555
Fe3 O24 2.045232 1_555
Fe3 O20 2.057452 1_555
Fe3 O26 2.142389 1_555
C0 O23 1.255608 1_554
C0 O0 1.296660 1_555
C0 O3 1.313880 1_555
C1 O25 1.254367 1_554
C1 O1 1.301670 1_455
C1 O5 1.309079 1_555
C2 O2 1.266562 1_556
C2 O22 1.289573 1_555
C2 O27 1.301429 1_655
C3 O4 1.262280 1_556
C3 O26 1.293581 1_555
C3 O24 1.310591 1_555
O6 P0 1.539172 1_555
O7 P0 1.555464 1_555
O8 P1 1.557256 1_565
O9 P1 1.558677 1_555
O10 P0 1.543535 1_555
O11 P2 1.553702 1_545
O12 P3 1.534610 1_555
O13 P1 1.572081 1_555
O14 P2 1.548018 1_555
O15 P0 1.554339 1_555
O16 P1 1.523352 1_565
O17 P3 1.552551 1_555
O18 P2 1.545972 1_555
O19 P3 1.549743 1_555
O20 P2 1.551255 1_545
O21 P3 1.550316 1_555
