# generated using pymatgen
data_Dy2P4O13
_symmetry_space_group_name_H-M   'P 1'
_cell_length_a   6.88380870
_cell_length_b   6.88380870
_cell_length_c   13.00046559
_cell_angle_alpha   76.07037680
_cell_angle_beta   76.07037680
_cell_angle_gamma   59.08743314
_symmetry_Int_Tables_number   1
_chemical_formula_structural   Dy2P4O13
_chemical_formula_sum   'Dy4 P8 O26'
_cell_volume   507.90477764
_cell_formula_units_Z   2
loop_
 _symmetry_equiv_pos_site_id
 _symmetry_equiv_pos_as_xyz
  1  'x, y, z'
loop_
 _atom_site_type_symbol
 _atom_site_label
 _atom_site_symmetry_multiplicity
 _atom_site_fract_x
 _atom_site_fract_y
 _atom_site_fract_z
 _atom_site_occupancy
  Dy  Dy0  1  0.68955500  0.69400700  0.45002000  1
  Dy  Dy1  1  0.69400700  0.68955500  0.95002000  1
  Dy  Dy2  1  0.30599300  0.31044500  0.04998000  1
  Dy  Dy3  1  0.31044500  0.30599300  0.54998000  1
  P  P0  1  0.76019600  0.77327000  0.15966200  1
  P  P1  1  0.77327000  0.76019600  0.65966200  1
  P  P2  1  0.83986000  0.13709100  0.36603800  1
  P  P3  1  0.86290900  0.16014000  0.13396200  1
  P  P4  1  0.13709100  0.83986000  0.86603800  1
  P  P5  1  0.16014000  0.86290900  0.63396200  1
  P  P6  1  0.22673000  0.23980400  0.34033800  1
  P  P7  1  0.23980400  0.22673000  0.84033800  1
  O  O0  1  0.87681100  0.89792100  0.39708300  1
  O  O1  1  0.89830700  0.90774700  0.15319600  1
  O  O2  1  0.89792100  0.87681100  0.89708300  1
  O  O3  1  0.90774700  0.89830700  0.65319600  1
  O  O4  1  0.69339200  0.70532300  0.27591100  1
  O  O5  1  0.92399900  0.57463400  0.09492300  1
  O  O6  1  0.56265100  0.92548900  0.09329800  1
  O  O7  1  0.67481100  0.31644000  0.43975900  1
  O  O8  1  0.70532300  0.69339200  0.77591100  1
  O  O9  1  0.57463400  0.92399900  0.59492300  1
  O  O10  1  0.92548900  0.56265100  0.59329800  1
  O  O11  1  0.75507000  0.24493000  0.25000000  1
  O  O12  1  0.68356000  0.32518900  0.06024100  1
  O  O13  1  0.31644000  0.67481100  0.93975900  1
  O  O14  1  0.24493000  0.75507000  0.75000000  1
  O  O15  1  0.07451100  0.43734900  0.40670200  1
  O  O16  1  0.42536600  0.07600100  0.40507700  1
  O  O17  1  0.29467700  0.30660800  0.22408900  1
  O  O18  1  0.32518900  0.68356000  0.56024100  1
  O  O19  1  0.43734900  0.07451100  0.90670200  1
  O  O20  1  0.07600100  0.42536600  0.90507700  1
  O  O21  1  0.30660800  0.29467700  0.72408900  1
  O  O22  1  0.09225300  0.10169300  0.34680400  1
  O  O23  1  0.10207900  0.12318900  0.10291700  1
  O  O24  1  0.10169300  0.09225300  0.84680400  1
  O  O25  1  0.12318900  0.10207900  0.60291700  1
loop_
_geom_bond_atom_site_label_1
_geom_bond_atom_site_label_2
_geom_bond_distance
_geom_bond_site_symmetry_2
Dy0 O4 2.240229 1_555
Dy0 O0 2.252224 1_555
Dy0 O15 2.326164 1_655
Dy0 O16 2.328474 1_565
Dy0 O10 2.462050 1_555
Dy0 O9 2.472391 1_555
Dy0 O18 2.599028 1_555
Dy0 O7 2.688475 1_555
Dy1 O8 2.240229 1_555
Dy1 O2 2.252224 1_555
Dy1 O19 2.326164 1_565
Dy1 O20 2.328474 1_655
Dy1 O6 2.462050 1_556
Dy1 O5 2.472391 1_556
Dy1 O12 2.599028 1_556
Dy1 O13 2.688475 1_555
Dy2 O17 2.240229 1_555
Dy2 O23 2.252224 1_555
Dy2 O6 2.326164 1_545
Dy2 O5 2.328474 1_455
Dy2 O19 2.462050 1_554
Dy2 O20 2.472391 1_554
Dy2 O13 2.599028 1_554
Dy2 O12 2.688475 1_555
Dy3 O21 2.240229 1_555
Dy3 O25 2.252224 1_555
Dy3 O10 2.326164 1_455
Dy3 O9 2.328474 1_545
Dy3 O15 2.462050 1_555
Dy3 O16 2.472391 1_555
Dy3 O7 2.599028 1_555
Dy3 O18 2.688475 1_555
O0 P2 1.495810 1_565
O1 P3 1.589254 1_565
O1 P0 1.611281 1_555
O2 P4 1.495810 1_655
O3 P5 1.589254 1_655
O3 P1 1.611281 1_555
O4 P0 1.503432 1_555
O5 P0 1.537046 1_555
O6 P0 1.535291 1_555
O7 P2 1.529005 1_555
O8 P1 1.503432 1_555
O9 P1 1.537046 1_555
O10 P1 1.535291 1_555
O11 P2 1.614634 1_555
O11 P3 1.614634 1_555
O12 P3 1.529005 1_555
O13 P4 1.529005 1_555
O14 P5 1.614634 1_555
O14 P4 1.614634 1_555
O15 P6 1.535291 1_555
O16 P6 1.537046 1_555
O17 P6 1.503432 1_555
O18 P5 1.529005 1_555
O19 P7 1.535291 1_555
O20 P7 1.537046 1_555
O21 P7 1.503432 1_555
O22 P2 1.589254 1_455
O22 P6 1.611281 1_555
O23 P3 1.495810 1_455
O24 P4 1.589254 1_545
O24 P7 1.611281 1_555
O25 P5 1.495810 1_545
