# generated using pymatgen
data_Mn2O3F
_symmetry_space_group_name_H-M   'P 1'
_cell_length_a   4.63231854
_cell_length_b   4.63231854
_cell_length_c   3.01198600
_cell_angle_alpha   90.00000000
_cell_angle_beta   90.00000000
_cell_angle_gamma   94.25596117
_symmetry_Int_Tables_number   1
_chemical_formula_structural   Mn2O3F
_chemical_formula_sum   'Mn2 O3 F1'
_cell_volume   64.45409968
_cell_formula_units_Z   1
loop_
 _symmetry_equiv_pos_site_id
 _symmetry_equiv_pos_as_xyz
  1  'x, y, z'
loop_
 _atom_site_type_symbol
 _atom_site_label
 _atom_site_symmetry_multiplicity
 _atom_site_fract_x
 _atom_site_fract_y
 _atom_site_fract_z
 _atom_site_occupancy
  Mn  Mn0  1  0.01639300  0.98360700  0.00000000  1
  Mn  Mn1  1  0.48795900  0.51204100  0.50000000  1
  O  O0  1  0.19388800  0.80611200  0.50000000  1
  O  O1  1  0.30217700  0.30767200  0.00000000  1
  O  O2  1  0.69232800  0.69782300  0.00000000  1
  F  F0  1  0.80725600  0.19274400  0.50000000  1
loop_
_geom_bond_atom_site_label_1
_geom_bond_atom_site_label_2
_geom_bond_distance
_geom_bond_site_symmetry_2
Mn0 O2 1.926424 1_455
Mn0 O1 1.926424 1_565
Mn0 O0 1.928840 1_554
Mn0 O0 1.928840 1_555
Mn1 O2 1.945243 1_556
Mn1 O2 1.945243 1_555
Mn1 O1 1.945243 1_556
Mn1 O1 1.945243 1_555
Mn1 O0 1.996690 1_555
F0 Mn0 2.069885 1_645
F0 Mn0 2.069885 1_646
F0 Mn1 2.167970 1_555
