# generated using pymatgen
data_K2AgSb
_symmetry_space_group_name_H-M   'P 1'
_cell_length_a   6.28888665
_cell_length_b   6.70144041
_cell_length_c   6.70144054
_cell_angle_alpha   103.23840551
_cell_angle_beta   90.00000000
_cell_angle_gamma   90.00000000
_symmetry_Int_Tables_number   1
_chemical_formula_structural   K2AgSb
_chemical_formula_sum   'K4 Ag2 Sb2'
_cell_volume   274.92413557
_cell_formula_units_Z   2
loop_
 _symmetry_equiv_pos_site_id
 _symmetry_equiv_pos_as_xyz
  1  'x, y, z'
loop_
 _atom_site_type_symbol
 _atom_site_label
 _atom_site_symmetry_multiplicity
 _atom_site_fract_x
 _atom_site_fract_y
 _atom_site_fract_z
 _atom_site_occupancy
  K  K0  1  0.25017325  0.67917210  0.02162552  1
  K  K1  1  0.75017325  0.32082790  0.97837448  1
  K  K2  1  0.24982675  0.02162552  0.67917210  1
  K  K3  1  0.74982675  0.97837448  0.32082790  1
  Ag  Ag0  1  -0.00000000  0.50005760  0.49994240  1
  Ag  Ag1  1  0.50000000  0.49994240  0.50005760  1
  Sb  Sb0  1  0.25000000  0.23628908  0.23628908  1
  Sb  Sb1  1  0.75000000  0.76371092  0.76371092  1
loop_
_geom_bond_atom_site_label_1
_geom_bond_atom_site_label_2
_geom_bond_distance
_geom_bond_site_symmetry_2
K0 Sb0 3.582413 1_555
K0 Sb0 3.680827 1_565
K0 Sb1 3.692895 1_554
K0 Sb1 3.694750 1_454
K1 Sb1 3.582413 1_555
K1 Sb1 3.680827 1_545
K1 Sb0 3.692895 1_656
K1 Sb0 3.694750 1_556
K2 Sb0 3.582413 1_555
K2 Sb0 3.680827 1_556
K2 Sb1 3.692895 1_445
K2 Sb1 3.694750 1_545
K3 Sb1 3.582413 1_555
K3 Sb1 3.680827 1_554
K3 Sb0 3.692895 1_565
K3 Sb0 3.694750 1_665
Ag0 Sb0 2.699584 1_555
Ag0 Sb1 2.699584 1_455
Ag0 Ag1 3.144444 1_555
Ag0 Ag1 3.144444 1_455
Ag0 K2 3.768969 1_565
Ag0 K1 3.768969 1_454
Ag0 K3 3.770456 1_445
Ag0 K0 3.770456 1_556
Ag0 K3 3.994115 1_455
Ag0 K0 3.994115 1_555
Ag0 K2 3.994304 1_555
Ag0 K1 3.994304 1_455
Ag1 Sb1 2.699584 1_555
Ag1 Sb0 2.699584 1_555
Ag1 K3 3.768969 1_545
Ag1 K0 3.768969 1_556
Ag1 K2 3.770456 1_565
Ag1 K1 3.770456 1_554
Ag1 K2 3.994115 1_555
Ag1 K1 3.994115 1_555
Ag1 K3 3.994304 1_555
Ag1 K0 3.994304 1_555
