# generated using pymatgen
data_LiVP3HO10
_symmetry_space_group_name_H-M   'P 1'
_cell_length_a   7.31256842
_cell_length_b   7.31256842
_cell_length_c   9.59376695
_cell_angle_alpha   72.13366931
_cell_angle_beta   72.13366931
_cell_angle_gamma   68.63362093
_symmetry_Int_Tables_number   1
_chemical_formula_structural   LiVP3HO10
_chemical_formula_sum   'Li2 V2 P6 H2 O20'
_cell_volume   443.57127880
_cell_formula_units_Z   2
loop_
 _symmetry_equiv_pos_site_id
 _symmetry_equiv_pos_as_xyz
  1  'x, y, z'
loop_
 _atom_site_type_symbol
 _atom_site_label
 _atom_site_symmetry_multiplicity
 _atom_site_fract_x
 _atom_site_fract_y
 _atom_site_fract_z
 _atom_site_occupancy
  Li  Li0  1  0.42410300  0.57589700  0.75000000  1
  Li  Li1  1  0.57589700  0.42410300  0.25000000  1
  V  V0  1  0.00000000  0.50000000  0.50000000  1
  V  V1  1  0.50000000  0.00000000  0.00000000  1
  P  P0  1  0.86261000  0.71778000  0.79636800  1
  P  P1  1  0.71778000  0.86261000  0.29636800  1
  P  P2  1  0.86807000  0.13193000  0.75000000  1
  P  P3  1  0.13193000  0.86807000  0.25000000  1
  P  P4  1  0.28222000  0.13739000  0.70363200  1
  P  P5  1  0.13739000  0.28222000  0.20363200  1
  H  H0  1  0.00000000  0.50000000  0.00000000  1
  H  H1  1  0.50000000  0.00000000  0.50000000  1
  O  O0  1  0.90243400  0.93006400  0.70019800  1
  O  O1  1  0.93006400  0.90243400  0.20019800  1
  O  O2  1  0.65876500  0.76104200  0.90690600  1
  O  O3  1  0.85489700  0.61975800  0.68098300  1
  O  O4  1  0.39510700  0.95907300  0.62458300  1
  O  O5  1  0.76104200  0.65876500  0.40690600  1
  O  O6  1  0.61975800  0.85489700  0.18098300  1
  O  O7  1  0.84137300  0.29517700  0.61067700  1
  O  O8  1  0.95907300  0.39510700  0.12458300  1
  O  O9  1  0.70482300  0.15862700  0.88932300  1
  O  O10  1  0.29517700  0.84137300  0.11067700  1
  O  O11  1  0.04092700  0.60489300  0.87541700  1
  O  O12  1  0.15862700  0.70482300  0.38932300  1
  O  O13  1  0.38024200  0.14510300  0.81901700  1
  O  O14  1  0.23895800  0.34123500  0.59309400  1
  O  O15  1  0.60489300  0.04092700  0.37541700  1
  O  O16  1  0.14510300  0.38024200  0.31901700  1
  O  O17  1  0.34123500  0.23895800  0.09309400  1
  O  O18  1  0.06993600  0.09756600  0.79980200  1
  O  O19  1  0.09756600  0.06993600  0.29980200  1
loop_
_geom_bond_atom_site_label_1
_geom_bond_atom_site_label_2
_geom_bond_distance
_geom_bond_site_symmetry_2
Li0 O4 2.645534 1_555
Li0 O11 2.645534 1_555
Li1 O8 2.645534 1_555
Li1 O15 2.645534 1_555
H0 O11 1.221360 1_554
H0 O8 1.221360 1_455
H1 O15 1.221360 1_555
H1 O4 1.221360 1_545
O0 P2 1.599774 1_565
O0 P0 1.622204 1_555
O1 P3 1.599774 1_655
O1 P1 1.622204 1_555
O2 P0 1.529363 1_555
O2 V1 2.010491 1_566
O3 P0 1.515589 1_555
O3 V0 2.008238 1_655
O4 P4 1.547639 1_565
O5 P1 1.529363 1_555
O5 V0 2.010491 1_655
O6 P1 1.515589 1_555
O6 V1 2.008238 1_565
O7 P2 1.503659 1_555
O7 V0 2.061724 1_655
O8 P5 1.547639 1_655
O9 P2 1.503659 1_555
O9 V1 2.061724 1_556
O10 P3 1.503659 1_555
O10 V1 2.061724 1_565
O11 P0 1.547639 1_455
O12 P3 1.503659 1_555
O12 V0 2.061724 1_555
O13 P4 1.515589 1_555
O13 V1 2.008238 1_556
O14 P4 1.529363 1_555
O14 V0 2.010491 1_555
O15 P1 1.547639 1_545
O16 P5 1.515589 1_555
O16 V0 2.008238 1_555
O17 P5 1.529363 1_555
O17 V1 2.010491 1_555
O18 P2 1.599774 1_455
O18 P4 1.622204 1_555
O19 P3 1.599774 1_545
O19 P5 1.622204 1_555
