# generated using pymatgen
data_VOF2
_symmetry_space_group_name_H-M   'P 1'
_cell_length_a   5.05901416
_cell_length_b   5.05928714
_cell_length_c   13.13206444
_cell_angle_alpha   89.99883645
_cell_angle_beta   89.99380494
_cell_angle_gamma   120.00143186
_symmetry_Int_Tables_number   1
_chemical_formula_structural   VOF2
_chemical_formula_sum   'V6 O6 F12'
_cell_volume   291.08014977
_cell_formula_units_Z   6
loop_
 _symmetry_equiv_pos_site_id
 _symmetry_equiv_pos_as_xyz
  1  'x, y, z'
loop_
 _atom_site_type_symbol
 _atom_site_label
 _atom_site_symmetry_multiplicity
 _atom_site_fract_x
 _atom_site_fract_y
 _atom_site_fract_z
 _atom_site_occupancy
  V  V0  1  0.02366445  0.64272013  0.49408726  1
  V  V1  1  0.97761051  0.67825215  0.99291598  1
  V  V2  1  0.35720802  0.38088609  0.82741251  1
  V  V3  1  0.70059323  0.02226878  0.65953382  1
  V  V4  1  0.32174521  0.29940528  0.32628552  1
  V  V5  1  0.61919083  0.97642110  0.16081655  1
  O  O0  1  0.67912636  0.60329136  0.91794649  1
  O  O1  1  0.39661250  0.07575540  0.25133203  1
  O  O2  1  0.92429891  0.32069676  0.58453752  1
  O  O3  1  0.41489089  0.66015289  0.75027800  1
  O  O4  1  0.24521814  0.58512334  0.41690493  1
  O  O5  1  0.34001520  0.75506517  0.08363414  1
  F  F0  1  0.01574600  0.05675219  0.75175963  1
  F  F1  1  0.61706143  0.26097785  0.75678026  1
  F  F2  1  0.64367883  0.38276352  0.42363462  1
  F  F3  1  0.94322406  0.95918126  0.08504879  1
  F  F4  1  0.73688177  0.72180245  0.58386652  1
  F  F5  1  0.98515801  0.26315669  0.25055000  1
  F  F6  1  0.27795785  0.01476788  0.91704740  1
  F  F7  1  0.60215634  0.67186912  0.25230716  1
  F  F8  1  0.04082809  0.98417146  0.41846808  1
  F  F9  1  0.73929553  0.35652230  0.09038124  1
  F  F10  1  0.06963708  0.39786935  0.91892964  1
  F  F11  1  0.32820177  0.93012649  0.58554290  1
loop_
_geom_bond_atom_site_label_1
_geom_bond_atom_site_label_2
_geom_bond_distance
_geom_bond_site_symmetry_2
O0 V1 1.679559 1_555
O0 V2 1.870767 1_555
O1 V4 1.679628 1_555
O1 V5 1.870578 1_545
O2 V3 1.679658 1_555
O2 V0 1.870469 1_655
O3 V2 1.641648 1_555
O3 V3 2.053530 1_565
O4 V0 1.641617 1_555
O4 V4 2.053101 1_555
O5 V5 1.641593 1_555
O5 V1 2.054170 1_454
F0 V3 1.939455 1_455
F0 V2 1.956482 1_555
F1 V2 1.937484 1_555
F1 V3 1.943782 1_555
F2 V0 1.937320 1_655
F2 V4 1.943782 1_555
F3 V1 1.939456 1_554
F3 V5 1.956403 1_555
F4 V3 1.900271 1_565
F4 V0 2.057954 1_655
F5 V4 1.900104 1_655
F5 V5 2.058022 1_545
F6 V1 1.900676 1_445
F6 V2 2.057773 1_555
F7 V5 1.921500 1_555
F7 V4 1.957930 1_555
F8 V4 1.939485 1_565
F8 V0 1.956482 1_555
F9 V5 1.937557 1_545
F9 V1 1.943784 1_554
F10 V2 1.921687 1_555
F10 V1 1.957906 1_455
F11 V0 1.921068 1_555
F11 V3 1.957746 1_565
