# generated using pymatgen
data_V(CO3)2
_symmetry_space_group_name_H-M   'P 1'
_cell_length_a   7.13412600
_cell_length_b   7.60594300
_cell_length_c   9.23795800
_cell_angle_alpha   90.00000000
_cell_angle_beta   90.00000000
_cell_angle_gamma   90.00000000
_symmetry_Int_Tables_number   1
_chemical_formula_structural   V(CO3)2
_chemical_formula_sum   'V4 C8 O24'
_cell_volume   501.26782026
_cell_formula_units_Z   4
loop_
 _symmetry_equiv_pos_site_id
 _symmetry_equiv_pos_as_xyz
  1  'x, y, z'
loop_
 _atom_site_type_symbol
 _atom_site_label
 _atom_site_symmetry_multiplicity
 _atom_site_fract_x
 _atom_site_fract_y
 _atom_site_fract_z
 _atom_site_occupancy
  V  V0  1  0.73666800  0.14452400  0.37059100  1
  V  V1  1  0.23666800  0.35547600  0.87059100  1
  V  V2  1  0.76333200  0.64452400  0.37059100  1
  V  V3  1  0.26333200  0.85547600  0.87059100  1
  C  C0  1  0.07501500  0.21946800  0.59486700  1
  C  C1  1  0.92132500  0.24637100  0.09882400  1
  C  C2  1  0.42132500  0.25362900  0.59882400  1
  C  C3  1  0.57501500  0.28053200  0.09486700  1
  C  C4  1  0.42498500  0.71946800  0.59486700  1
  C  C5  1  0.57867500  0.74637100  0.09882400  1
  C  C6  1  0.07867500  0.75362900  0.59882400  1
  C  C7  1  0.92498500  0.78053200  0.09486700  1
  O  O0  1  0.28686700  0.07443300  0.86831700  1
  O  O1  1  0.95232400  0.15427900  0.51620600  1
  O  O2  1  0.92580200  0.15513800  0.21323900  1
  O  O3  1  0.54954900  0.20558900  0.21582700  1
  O  O4  1  0.56537100  0.20727200  0.53292700  1
  O  O5  1  0.25558000  0.19622200  0.53662900  1
  O  O6  1  0.75558000  0.30377800  0.03662900  1
  O  O7  1  0.06537100  0.29272800  0.03292700  1
  O  O8  1  0.04954900  0.29441100  0.71582700  1
  O  O9  1  0.42580200  0.34486200  0.71323900  1
  O  O10  1  0.45232400  0.34572100  0.01620600  1
  O  O11  1  0.78686700  0.42556700  0.36831700  1
  O  O12  1  0.21313300  0.57443300  0.86831700  1
  O  O13  1  0.54767600  0.65427900  0.51620600  1
  O  O14  1  0.57419800  0.65513800  0.21323900  1
  O  O15  1  0.95045100  0.70558900  0.21582700  1
  O  O16  1  0.93462900  0.70727200  0.53292700  1
  O  O17  1  0.24442000  0.69622200  0.53662900  1
  O  O18  1  0.74442000  0.80377800  0.03662900  1
  O  O19  1  0.43462900  0.79272800  0.03292700  1
  O  O20  1  0.45045100  0.79441100  0.71582700  1
  O  O21  1  0.07419800  0.84486200  0.71323900  1
  O  O22  1  0.04767600  0.84572100  0.01620600  1
  O  O23  1  0.71313300  0.92556700  0.36831700  1
loop_
_geom_bond_atom_site_label_1
_geom_bond_atom_site_label_2
_geom_bond_distance
_geom_bond_site_symmetry_2
C0 O1 1.240977 1_455
C0 O8 1.267500 1_555
C0 O5 1.407159 1_555
C1 O7 1.245371 1_655
C1 O2 1.264793 1_555
C1 O6 1.385258 1_555
C2 O4 1.245371 1_555
C2 O9 1.264793 1_555
C2 O5 1.385258 1_555
C3 O10 1.240977 1_555
C3 O3 1.267500 1_555
C3 O6 1.407159 1_555
C4 O13 1.240977 1_555
C4 O20 1.267500 1_555
C4 O17 1.407159 1_555
C5 O19 1.245371 1_555
C5 O14 1.264793 1_555
C5 O18 1.385258 1_555
C6 O16 1.245371 1_455
C6 O21 1.264793 1_555
C6 O17 1.385258 1_555
C7 O22 1.240977 1_655
C7 O15 1.267500 1_555
C7 O18 1.407159 1_555
O0 V3 1.673949 1_545
O0 V1 2.167491 1_555
O1 V0 2.045009 1_555
O2 V0 1.984976 1_555
O3 V0 2.010426 1_555
O4 V0 1.992524 1_555
O7 V1 1.992524 1_554
O8 V1 2.010426 1_555
O9 V1 1.984976 1_555
O10 V1 2.045009 1_554
O11 V2 1.673949 1_555
O11 V0 2.167491 1_555
O12 V1 1.673949 1_555
O12 V3 2.167491 1_555
O13 V2 2.045009 1_555
O14 V2 1.984976 1_555
O15 V2 2.010426 1_555
O16 V2 1.992524 1_555
O19 V3 1.992524 1_554
O20 V3 2.010426 1_555
O21 V3 1.984976 1_555
O22 V3 2.045009 1_554
O23 V0 1.673949 1_565
O23 V2 2.167491 1_555
