# generated using pymatgen
data_LiBi2BO5
_symmetry_space_group_name_H-M   'P 1'
_cell_length_a   5.77945600
_cell_length_b   7.11817500
_cell_length_c   11.30195200
_cell_angle_alpha   90.00000000
_cell_angle_beta   90.00000000
_cell_angle_gamma   90.00000000
_symmetry_Int_Tables_number   1
_chemical_formula_structural   LiBi2BO5
_chemical_formula_sum   'Li4 Bi8 B4 O20'
_cell_volume   464.95302878
_cell_formula_units_Z   4
loop_
 _symmetry_equiv_pos_site_id
 _symmetry_equiv_pos_as_xyz
  1  'x, y, z'
loop_
 _atom_site_type_symbol
 _atom_site_label
 _atom_site_symmetry_multiplicity
 _atom_site_fract_x
 _atom_site_fract_y
 _atom_site_fract_z
 _atom_site_occupancy
  Li  Li0  1  0.22354400  0.75000000  0.34593700  1
  Li  Li1  1  0.27645600  0.25000000  0.84593700  1
  Li  Li2  1  0.72354400  0.75000000  0.15406300  1
  Li  Li3  1  0.77645600  0.25000000  0.65406300  1
  Bi  Bi0  1  0.22918700  0.99251900  0.10110000  1
  Bi  Bi1  1  0.22918700  0.50748100  0.10110000  1
  Bi  Bi2  1  0.27081300  0.00748100  0.60110000  1
  Bi  Bi3  1  0.27081300  0.49251900  0.60110000  1
  Bi  Bi4  1  0.72918700  0.99251900  0.39890000  1
  Bi  Bi5  1  0.72918700  0.50748100  0.39890000  1
  Bi  Bi6  1  0.77081300  0.00748100  0.89890000  1
  Bi  Bi7  1  0.77081300  0.49251900  0.89890000  1
  B  B0  1  0.18983300  0.25000000  0.35765300  1
  B  B1  1  0.31016700  0.75000000  0.85765300  1
  B  B2  1  0.68983300  0.25000000  0.14234700  1
  B  B3  1  0.81016700  0.75000000  0.64234700  1
  O  O0  1  0.03636200  0.25000000  0.96755400  1
  O  O1  1  0.12610200  0.07922700  0.41306700  1
  O  O2  1  0.12610200  0.42077300  0.41306700  1
  O  O3  1  0.18472500  0.75000000  0.75547400  1
  O  O4  1  0.11006400  0.25000000  0.69258600  1
  O  O5  1  0.38993600  0.75000000  0.19258600  1
  O  O6  1  0.31527500  0.25000000  0.25547400  1
  O  O7  1  0.37389800  0.57922700  0.91306700  1
  O  O8  1  0.37389800  0.92077300  0.91306700  1
  O  O9  1  0.46363800  0.75000000  0.46755400  1
  O  O10  1  0.53636200  0.25000000  0.53244600  1
  O  O11  1  0.62610200  0.07922700  0.08693300  1
  O  O12  1  0.62610200  0.42077300  0.08693300  1
  O  O13  1  0.68472500  0.75000000  0.74452600  1
  O  O14  1  0.61006400  0.25000000  0.80741400  1
  O  O15  1  0.88993600  0.75000000  0.30741400  1
  O  O16  1  0.81527500  0.25000000  0.24452600  1
  O  O17  1  0.87389800  0.92077300  0.58693300  1
  O  O18  1  0.87389800  0.57922700  0.58693300  1
  O  O19  1  0.96363800  0.75000000  0.03244600  1
loop_
_geom_bond_atom_site_label_1
_geom_bond_atom_site_label_2
_geom_bond_distance
_geom_bond_site_symmetry_2
Li0 O9 1.953137 1_555
Li0 O15 1.976620 1_455
Li0 O5 1.982081 1_555
Li0 O2 2.526806 1_555
Li0 O1 2.526806 1_565
Li1 O0 1.953137 1_555
Li1 O14 1.976620 1_555
Li1 O4 1.982081 1_555
Li1 O8 2.526806 1_545
Li1 O7 2.526806 1_555
Li2 O19 1.953137 1_555
Li2 O5 1.976620 1_555
Li2 O15 1.982081 1_555
Li2 O11 2.526806 1_565
Li2 O12 2.526806 1_555
Li3 O10 1.953137 1_555
Li3 O4 1.976620 1_655
Li3 O14 1.982081 1_555
Li3 O18 2.526806 1_555
Li3 O17 2.526806 1_545
Bi0 O5 2.216371 1_555
Bi0 O8 2.340196 1_554
Bi0 O11 2.380923 1_565
Bi0 O19 2.436706 1_455
Bi0 O6 2.578907 1_565
Bi0 O0 2.622814 1_564
Bi1 O5 2.216371 1_555
Bi1 O7 2.340196 1_554
Bi1 O12 2.380923 1_555
Bi1 O19 2.436706 1_455
Bi1 O6 2.578907 1_555
Bi1 O0 2.622814 1_554
Bi2 O4 2.216371 1_555
Bi2 O1 2.340196 1_555
Bi2 O17 2.380923 1_445
Bi2 O10 2.436706 1_555
Bi2 O3 2.578907 1_545
Bi2 O9 2.622814 1_545
Bi3 O4 2.216371 1_555
Bi3 O2 2.340196 1_555
Bi3 O18 2.380923 1_455
Bi3 O10 2.436706 1_555
Bi3 O3 2.578907 1_555
Bi3 O9 2.622814 1_555
Bi4 O15 2.216371 1_555
Bi4 O17 2.340196 1_555
Bi4 O1 2.380923 1_665
Bi4 O9 2.436706 1_555
Bi4 O16 2.578907 1_565
Bi4 O10 2.622814 1_565
Bi5 O15 2.216371 1_555
Bi5 O18 2.340196 1_555
Bi5 O2 2.380923 1_655
Bi5 O9 2.436706 1_555
Bi5 O16 2.578907 1_555
Bi5 O10 2.622814 1_555
Bi6 O14 2.216371 1_555
Bi6 O11 2.340196 1_556
Bi6 O8 2.380923 1_545
Bi6 O0 2.436706 1_655
Bi6 O13 2.578907 1_545
Bi6 O19 2.622814 1_546
Bi7 O14 2.216371 1_555
Bi7 O12 2.340196 1_556
Bi7 O7 2.380923 1_555
Bi7 O0 2.436706 1_655
Bi7 O13 2.578907 1_555
Bi7 O19 2.622814 1_556
B0 O6 1.363532 1_555
B0 O2 1.416180 1_555
B0 O1 1.416180 1_555
B1 O3 1.363532 1_555
B1 O8 1.416180 1_555
B1 O7 1.416180 1_555
B2 O16 1.363532 1_555
B2 O11 1.416180 1_555
B2 O12 1.416180 1_555
B3 O13 1.363532 1_555
B3 O17 1.416180 1_555
B3 O18 1.416180 1_555
