# generated using pymatgen
data_Fe3Ni2Te(PO4)6
_symmetry_space_group_name_H-M   'P 1'
_cell_length_a   8.52810856
_cell_length_b   8.52810856
_cell_length_c   8.52810877
_cell_angle_alpha   61.13950541
_cell_angle_beta   61.13950541
_cell_angle_gamma   61.13951028
_symmetry_Int_Tables_number   1
_chemical_formula_structural   Fe3Ni2Te(PO4)6
_chemical_formula_sum   'Fe3 Ni2 Te1 P6 O24'
_cell_volume   449.82061514
_cell_formula_units_Z   1
loop_
 _symmetry_equiv_pos_site_id
 _symmetry_equiv_pos_as_xyz
  1  'x, y, z'
loop_
 _atom_site_type_symbol
 _atom_site_label
 _atom_site_symmetry_multiplicity
 _atom_site_fract_x
 _atom_site_fract_y
 _atom_site_fract_z
 _atom_site_occupancy
  Fe  Fe0  1  0.85512900  0.85512900  0.85512900  1
  Fe  Fe1  1  0.64482900  0.64482900  0.64482900  1
  Fe  Fe2  1  0.35650500  0.35650500  0.35650500  1
  Ni  Ni0  1  0.99465400  0.99465400  0.99465400  1
  Ni  Ni1  1  0.50083900  0.50083900  0.50083900  1
  Te  Te0  1  0.14402600  0.14402600  0.14402600  1
  P  P0  1  0.04714800  0.74396300  0.46105200  1
  P  P1  1  0.74396300  0.46105200  0.04714800  1
  P  P2  1  0.46105200  0.04714800  0.74396300  1
  P  P3  1  0.55444200  0.94866100  0.25402500  1
  P  P4  1  0.25402500  0.55444200  0.94866100  1
  P  P5  1  0.94866100  0.25402500  0.55444200  1
  O  O0  1  0.49621400  0.89104400  0.68134100  1
  O  O1  1  0.89104400  0.68134100  0.49621400  1
  O  O2  1  0.74602700  0.93932900  0.09137800  1
  O  O3  1  0.68134100  0.49621400  0.89104400  1
  O  O4  1  0.39859000  0.97526500  0.18569600  1
  O  O5  1  0.56537400  0.75323800  0.41027100  1
  O  O6  1  0.09137800  0.74602700  0.93932900  1
  O  O7  1  0.41027100  0.56537400  0.75323800  1
  O  O8  1  0.00455100  0.82119200  0.60934700  1
  O  O9  1  0.75323800  0.41027100  0.56537400  1
  O  O10  1  0.05639800  0.90811300  0.25637100  1
  O  O11  1  0.82119200  0.60934700  0.00455100  1
  O  O12  1  0.18569600  0.39859000  0.97526500  1
  O  O13  1  0.93932900  0.09137800  0.74602700  1
  O  O14  1  0.24570800  0.59208300  0.43972800  1
  O  O15  1  0.97526500  0.18569600  0.39859000  1
  O  O16  1  0.59208300  0.43972800  0.24570800  1
  O  O17  1  0.90811300  0.25637100  0.05639800  1
  O  O18  1  0.43972800  0.24570800  0.59208300  1
  O  O19  1  0.60934700  0.00455100  0.82119200  1
  O  O20  1  0.31694700  0.49881000  0.11171100  1
  O  O21  1  0.25637100  0.05639800  0.90811300  1
  O  O22  1  0.11171100  0.31694700  0.49881000  1
  O  O23  1  0.49881000  0.11171100  0.31694700  1
loop_
_geom_bond_atom_site_label_1
_geom_bond_atom_site_label_2
_geom_bond_distance
_geom_bond_site_symmetry_2
Fe0 O11 1.937052 1_556
Fe0 O8 1.937052 1_655
Fe0 O19 1.937052 1_565
Fe0 O13 2.093456 1_565
Fe0 O2 2.093456 1_556
Fe0 O6 2.093456 1_655
Fe1 O1 1.947658 1_555
Fe1 O3 1.947658 1_555
Fe1 O0 1.947658 1_555
Fe1 O7 2.057585 1_555
Fe1 O5 2.057586 1_555
Fe1 O9 2.057586 1_555
Fe2 O22 1.945172 1_555
Fe2 O20 1.945173 1_555
Fe2 O23 1.945173 1_555
Fe2 O16 2.080698 1_555
Fe2 O18 2.080698 1_555
Fe2 O14 2.080698 1_555
Ni0 O2 2.073744 1_556
Ni0 O13 2.073744 1_565
Ni0 O6 2.073744 1_655
Ni0 O21 2.229969 1_665
Ni0 O17 2.229969 1_566
Ni0 O10 2.229969 1_656
Ni1 O5 2.158929 1_555
Ni1 O9 2.158929 1_555
Ni1 O7 2.158929 1_555
Ni1 O18 2.163308 1_555
Ni1 O14 2.163309 1_555
Ni1 O16 2.163309 1_555
O0 P2 1.514522 1_565
O1 P0 1.514521 1_655
O2 P3 1.546953 1_555
O3 P1 1.514522 1_556
O4 P3 1.576876 1_555
O4 Te0 2.036037 1_565
O5 P3 1.545277 1_555
O6 P4 1.546953 1_555
O7 P4 1.545277 1_555
O8 P0 1.514845 1_555
O9 P5 1.545277 1_555
O10 P0 1.620985 1_555
O10 Te0 2.103219 1_565
O11 P1 1.514845 1_555
O12 P4 1.576876 1_555
O12 Te0 2.036037 1_556
O13 P5 1.546953 1_555
O14 P0 1.546267 1_555
O15 P5 1.576876 1_555
O15 Te0 2.036037 1_655
O16 P1 1.546267 1_555
O17 P1 1.620985 1_555
O17 Te0 2.103220 1_655
O18 P2 1.546267 1_555
O19 P2 1.514845 1_555
O20 P4 1.511369 1_554
O21 P2 1.620985 1_555
O21 Te0 2.103220 1_556
O22 P5 1.511369 1_455
O23 P3 1.511369 1_545
