# generated using pymatgen
data_NaNi5O6
_symmetry_space_group_name_H-M   'P 1'
_cell_length_a   5.21111723
_cell_length_b   5.21101758
_cell_length_c   5.21124982
_cell_angle_alpha   119.82876955
_cell_angle_beta   80.25912774
_cell_angle_gamma   80.26101164
_symmetry_Int_Tables_number   1
_chemical_formula_structural   NaNi5O6
_chemical_formula_sum   'Na1 Ni5 O6'
_cell_volume   115.56222481
_cell_formula_units_Z   1
loop_
 _symmetry_equiv_pos_site_id
 _symmetry_equiv_pos_as_xyz
  1  'x, y, z'
loop_
 _atom_site_type_symbol
 _atom_site_label
 _atom_site_symmetry_multiplicity
 _atom_site_fract_x
 _atom_site_fract_y
 _atom_site_fract_z
 _atom_site_occupancy
  Na  Na0  1  0.50000100  0.16666700  0.83331800  1
  Ni  Ni0  1  0.50001400  0.83423300  0.16575500  1
  Ni  Ni1  1  0.00000900  0.66684800  0.33315200  1
  Ni  Ni2  1  0.99996600  0.00235900  0.99773600  1
  Ni  Ni3  1  0.00002000  0.33067600  0.66922100  1
  Ni  Ni4  1  0.49998100  0.49870900  0.50131000  1
  O  O0  1  0.76622000  0.43085700  0.09824400  1
  O  O1  1  0.23377700  0.90178200  0.56919300  1
  O  O2  1  0.24041100  0.25763000  0.28019600  1
  O  O3  1  0.75766900  0.08121800  0.39075700  1
  O  O4  1  0.24231500  0.60926100  0.91879600  1
  O  O5  1  0.75961700  0.71976000  0.74232300  1
loop_
_geom_bond_atom_site_label_1
_geom_bond_atom_site_label_2
_geom_bond_distance
_geom_bond_site_symmetry_2
Na0 O3 2.246870 1_555
Na0 O4 2.246930 1_555
Na0 O2 2.257611 1_556
Na0 O5 2.257663 1_545
Na0 O1 2.264610 1_545
Na0 O0 2.264815 1_556
Ni0 O3 2.109545 1_565
Ni0 O4 2.109629 1_554
Ni0 O2 2.112315 1_565
Ni0 O5 2.112456 1_554
Ni0 O0 2.139912 1_555
Ni0 O1 2.140199 1_555
Ni1 O0 2.002262 1_455
Ni1 O1 2.002336 1_555
Ni1 O5 2.141580 1_455
Ni1 O2 2.141648 1_555
Ni1 O4 2.156761 1_554
Ni1 O3 2.156798 1_465
Ni2 O3 2.017437 1_556
Ni2 O4 2.017655 1_645
Ni2 O0 2.108173 1_556
Ni2 O1 2.108415 1_645
Ni2 O2 2.178591 1_656
Ni2 O5 2.178798 1_545
Ni3 O2 2.008919 1_555
Ni3 O5 2.009026 1_455
Ni3 O1 2.110865 1_545
Ni3 O0 2.111268 1_456
Ni3 O3 2.165541 1_455
Ni3 O4 2.165815 1_555
Ni4 O4 2.090708 1_555
Ni4 O3 2.090723 1_555
Ni4 O2 2.097109 1_555
Ni4 O5 2.097138 1_555
Ni4 O1 2.137818 1_555
Ni4 O0 2.137986 1_555
