# generated using pymatgen
data_Na4(NiO2)9
_symmetry_space_group_name_H-M   'P 1'
_cell_length_a   7.08716800
_cell_length_b   7.10909410
_cell_length_c   7.51280728
_cell_angle_alpha   103.80079936
_cell_angle_beta   90.66573992
_cell_angle_gamma   105.81586556
_symmetry_Int_Tables_number   1
_chemical_formula_structural   Na4(NiO2)9
_chemical_formula_sum   'Na4 Ni9 O18'
_cell_volume   352.48513711
_cell_formula_units_Z   1
loop_
 _symmetry_equiv_pos_site_id
 _symmetry_equiv_pos_as_xyz
  1  'x, y, z'
loop_
 _atom_site_type_symbol
 _atom_site_label
 _atom_site_symmetry_multiplicity
 _atom_site_fract_x
 _atom_site_fract_y
 _atom_site_fract_z
 _atom_site_occupancy
  Na  Na0  1  0.10277600  0.09840400  0.69779200  1
  Na  Na1  1  0.20160000  0.19982800  0.30170500  1
  Na  Na2  1  0.58143400  0.58120800  0.36509200  1
  Na  Na3  1  0.67138600  0.67504800  0.97003500  1
  Ni  Ni0  1  0.05719200  0.54760400  0.83496700  1
  Ni  Ni1  1  0.50265600  0.00288000  0.49537600  1
  Ni  Ni2  1  0.16933700  0.66600300  0.50234900  1
  Ni  Ni3  1  0.60994300  0.11583300  0.16503800  1
  Ni  Ni4  1  0.71652300  0.22756700  0.83224400  1
  Ni  Ni5  1  0.27630700  0.77433700  0.16728200  1
  Ni  Ni6  1  0.83542000  0.32972800  0.49879900  1
  Ni  Ni7  1  0.38759300  0.88780000  0.83364500  1
  Ni  Ni8  1  0.94355000  0.44879300  0.17018700  1
  O  O0  1  0.98433600  0.31825500  0.93043600  1
  O  O1  1  0.09620200  0.40176600  0.59908700  1
  O  O2  1  0.32994300  0.00260000  0.07435200  1
  O  O3  1  0.45655900  0.14301800  0.72590400  1
  O  O4  1  0.31849800  0.62964900  0.93595900  1
  O  O5  1  0.56556200  0.23913300  0.40458600  1
  O  O6  1  0.77259000  0.08786000  0.57100500  1
  O  O7  1  0.11941100  0.78145400  0.74417600  1
  O  O8  1  0.21626800  0.54009900  0.26161000  1
  O  O9  1  0.79211400  0.46214700  0.73551400  1
  O  O10  1  0.67995200  0.38405500  0.09329600  1
  O  O11  1  0.44260800  0.77248100  0.58931400  1
  O  O12  1  0.88896200  0.21689100  0.25886300  1
  O  O13  1  0.23754200  0.92418300  0.40397200  1
  O  O14  1  0.89932000  0.56810700  0.41249800  1
  O  O15  1  0.65375200  0.99255300  0.92773000  1
  O  O16  1  0.53879500  0.85506100  0.25706300  1
  O  O17  1  0.00742600  0.68121300  0.07345200  1
loop_
_geom_bond_atom_site_label_1
_geom_bond_atom_site_label_2
_geom_bond_distance
_geom_bond_site_symmetry_2
Na0 O0 2.376585 1_455
Na0 O7 2.393914 1_545
Na0 O3 2.440104 1_555
Na0 O1 2.453585 1_555
Na0 O6 2.491474 1_455
Na0 O13 2.590050 1_545
Na1 O12 2.275143 1_455
Na1 O2 2.302050 1_555
Na1 O13 2.341155 1_545
Na1 O8 2.482840 1_555
Na1 O1 2.589118 1_555
Na1 O5 2.605159 1_555
Na2 O14 2.307094 1_555
Na2 O11 2.308599 1_555
Na2 O16 2.368344 1_555
Na2 O10 2.413012 1_555
Na2 O5 2.492081 1_555
Na2 O8 2.611532 1_555
Na3 O9 2.365557 1_555
Na3 O15 2.388843 1_555
Na3 O4 2.435221 1_555
Na3 O10 2.474237 1_556
Na3 O17 2.482200 1_656
Na3 O16 2.560614 1_556
Ni0 O4 1.874275 1_555
Ni0 O0 1.883372 1_455
Ni0 O7 1.889941 1_555
Ni0 O1 1.892834 1_555
Ni0 O9 1.893508 1_455
Ni0 O17 1.903187 1_556
Ni1 O3 1.861759 1_555
Ni1 O13 1.878453 1_545
Ni1 O6 1.878463 1_555
Ni1 O11 1.881622 1_545
Ni1 O5 1.905346 1_555
Ni1 O16 1.906612 1_545
Ni2 O7 1.887172 1_555
Ni2 O8 1.893888 1_555
Ni2 O14 1.903151 1_455
Ni2 O11 1.919963 1_555
Ni2 O13 2.078601 1_555
Ni2 O1 2.110670 1_555
Ni3 O15 1.859777 1_544
Ni3 O5 1.875349 1_555
Ni3 O12 1.968488 1_555
Ni3 O2 1.971353 1_555
Ni3 O10 2.038005 1_555
Ni3 O16 2.068588 1_545
Ni4 O3 1.878048 1_555
Ni4 O0 1.906810 1_555
Ni4 O15 1.917803 1_545
Ni4 O9 1.922610 1_555
Ni4 O10 2.068642 1_556
Ni4 O6 2.073530 1_555
Ni5 O16 1.857211 1_555
Ni5 O2 1.864316 1_565
Ni5 O4 1.869373 1_554
Ni5 O17 1.903942 1_555
Ni5 O13 1.907730 1_555
Ni5 O8 1.907881 1_555
Ni6 O6 1.866113 1_555
Ni6 O1 1.874414 1_655
Ni6 O9 1.874708 1_555
Ni6 O12 1.878498 1_555
Ni6 O14 1.900007 1_555
Ni6 O5 1.911330 1_555
Ni7 O15 1.888002 1_555
Ni7 O7 1.892208 1_555
Ni7 O2 1.896853 1_566
Ni7 O11 1.914810 1_555
Ni7 O4 2.095370 1_555
Ni7 O3 2.100592 1_565
Ni8 O10 1.847962 1_555
Ni8 O12 1.869158 1_555
Ni8 O0 1.884125 1_554
Ni8 O14 1.884998 1_555
Ni8 O17 1.906831 1_655
Ni8 O8 1.923897 1_655
