# generated using pymatgen
data_Li4Ti3V2Sn3O16
_symmetry_space_group_name_H-M   'P 1'
_cell_length_a   6.16382745
_cell_length_b   6.16382745
_cell_length_c   9.91370520
_cell_angle_alpha   89.52438463
_cell_angle_beta   89.52438463
_cell_angle_gamma   59.73369292
_symmetry_Int_Tables_number   1
_chemical_formula_structural   Li4Ti3V2Sn3O16
_chemical_formula_sum   'Li4 Ti3 V2 Sn3 O16'
_cell_volume   325.29395245
_cell_formula_units_Z   1
loop_
 _symmetry_equiv_pos_site_id
 _symmetry_equiv_pos_as_xyz
  1  'x, y, z'
loop_
 _atom_site_type_symbol
 _atom_site_label
 _atom_site_symmetry_multiplicity
 _atom_site_fract_x
 _atom_site_fract_y
 _atom_site_fract_z
 _atom_site_occupancy
  Li  Li0  1  0.66968400  0.66968400  0.88619800  1
  Li  Li1  1  0.99135000  0.99135000  0.99520500  1
  Li  Li2  1  0.99200300  0.99200300  0.50140700  1
  Li  Li3  1  0.33586900  0.33586900  0.39398100  1
  Ti  Ti0  1  0.83245400  0.83245400  0.21676700  1
  Ti  Ti1  1  0.66296200  0.16767600  0.71528100  1
  Ti  Ti2  1  0.16767600  0.66296200  0.71528100  1
  V  V0  1  0.67057100  0.67057100  0.49182200  1
  V  V1  1  0.33698300  0.33698300  0.98519700  1
  Sn  Sn0  1  0.83297300  0.33891200  0.21561300  1
  Sn  Sn1  1  0.33891200  0.83297300  0.21561300  1
  Sn  Sn2  1  0.16908600  0.16908600  0.71032600  1
  O  O0  1  0.83146000  0.31524700  0.60313100  1
  O  O1  1  0.51942300  0.51942300  0.34168000  1
  O  O2  1  0.67481000  0.67481000  0.09939100  1
  O  O3  1  0.99436800  0.99436800  0.31939400  1
  O  O4  1  0.99421400  0.99421400  0.81250000  1
  O  O5  1  0.31524700  0.83146000  0.60313100  1
  O  O6  1  0.96534400  0.52710300  0.33583300  1
  O  O7  1  0.52710300  0.96534400  0.33583300  1
  O  O8  1  0.15579700  0.15579700  0.09581600  1
  O  O9  1  0.84086000  0.84086000  0.61068600  1
  O  O10  1  0.49056100  0.03781600  0.83158000  1
  O  O11  1  0.03781600  0.49056100  0.83158000  1
  O  O12  1  0.34238800  0.34238800  0.60295100  1
  O  O13  1  0.68242900  0.14943600  0.10731200  1
  O  O14  1  0.48098900  0.48098900  0.82680700  1
  O  O15  1  0.14943600  0.68242900  0.10731200  1
loop_
_geom_bond_atom_site_label_1
_geom_bond_atom_site_label_2
_geom_bond_distance
_geom_bond_site_symmetry_2
Li0 O11 2.031039 1_655
Li0 O10 2.031039 1_565
Li0 O14 2.106792 1_555
Li0 O2 2.114767 1_556
Li1 O4 1.811249 1_555
Li1 O15 1.980638 1_656
Li1 O13 1.980638 1_566
Li1 O8 2.029529 1_666
Li2 O3 1.804358 1_555
Li2 O9 1.936718 1_555
Li2 O5 1.998820 1_655
Li2 O0 1.998820 1_565
Li3 O1 2.024800 1_555
Li3 O7 2.057810 1_545
Li3 O6 2.057810 1_455
Li3 O12 2.073505 1_555
O0 Ti1 2.014582 1_555
O0 Sn2 2.098263 1_655
O0 V0 2.187815 1_555
O1 Sn0 2.085781 1_555
O1 Sn1 2.085781 1_555
O1 V0 2.207366 1_555
O2 Ti0 2.057114 1_555
O2 Sn0 2.123433 1_555
O2 Sn1 2.123433 1_555
O3 Ti0 2.016166 1_555
O3 Sn0 2.099851 1_565
O3 Sn1 2.099851 1_655
O4 Ti1 2.013928 1_565
O4 Ti2 2.013928 1_655
O4 Sn2 2.117683 1_665
O5 Ti2 2.014582 1_555
O5 Sn2 2.098263 1_565
O5 V0 2.187815 1_555
O6 Ti0 2.007926 1_555
O6 Sn0 2.103533 1_555
O6 V0 2.197974 1_555
O7 Ti0 2.007926 1_555
O7 Sn1 2.103533 1_555
O7 V0 2.197974 1_555
O8 Sn0 2.088756 1_455
O8 Sn1 2.088756 1_545
O8 V1 2.216689 1_554
O9 Ti1 2.030936 1_565
O9 Ti2 2.030936 1_655
O9 V0 2.178002 1_555
O10 Ti1 1.980147 1_555
O10 Sn2 2.105538 1_555
O10 V1 2.208804 1_555
O11 Ti2 1.980147 1_555
O11 Sn2 2.105538 1_555
O11 V1 2.208804 1_555
O12 Ti2 2.043492 1_555
O12 Ti1 2.043492 1_555
O12 Sn2 2.127844 1_555
O13 Ti0 2.002543 1_545
O13 Sn0 2.123107 1_555
O13 V1 2.207724 1_554
O14 Ti2 2.010323 1_555
O14 Ti1 2.010323 1_555
O14 V1 2.188455 1_555
O15 Ti0 2.002543 1_455
O15 Sn1 2.123107 1_555
O15 V1 2.207724 1_554
