# generated using pymatgen
data_FeOF
_symmetry_space_group_name_H-M   'P 1'
_cell_length_a   3.09956900
_cell_length_b   14.20217700
_cell_length_c   14.21651511
_cell_angle_alpha   89.99273753
_cell_angle_beta   90.00000000
_cell_angle_gamma   90.00000000
_symmetry_Int_Tables_number   1
_chemical_formula_structural   FeOF
_chemical_formula_sum   'Fe18 O18 F18'
_cell_volume   625.81991204
_cell_formula_units_Z   18
loop_
 _symmetry_equiv_pos_site_id
 _symmetry_equiv_pos_as_xyz
  1  'x, y, z'
loop_
 _atom_site_type_symbol
 _atom_site_label
 _atom_site_symmetry_multiplicity
 _atom_site_fract_x
 _atom_site_fract_y
 _atom_site_fract_z
 _atom_site_occupancy
  Fe  Fe0  1  0.00000000  0.00672800  0.01630400  1
  Fe  Fe1  1  0.00000000  0.99116400  0.32804900  1
  Fe  Fe2  1  0.00000000  0.98421300  0.65840100  1
  Fe  Fe3  1  0.50000000  0.84751500  0.16357500  1
  Fe  Fe4  1  0.50000000  0.84142500  0.48642100  1
  Fe  Fe5  1  0.50000000  0.84543800  0.82858500  1
  Fe  Fe6  1  0.00000000  0.65196400  0.99973900  1
  Fe  Fe7  1  0.00000000  0.66621800  0.34207000  1
  Fe  Fe8  1  0.00000000  0.66108700  0.66791500  1
  Fe  Fe9  1  0.50000000  0.50034400  0.48417800  1
  Fe  Fe10  1  0.50000000  0.51849900  0.17232200  1
  Fe  Fe11  1  0.50000000  0.51373400  0.82927600  1
  Fe  Fe12  1  0.00000000  0.32317100  0.99536200  1
  Fe  Fe13  1  0.00000000  0.33369800  0.34471300  1
  Fe  Fe14  1  0.00000000  0.31996800  0.66358000  1
  Fe  Fe15  1  0.50000000  0.15073500  0.17650000  1
  Fe  Fe16  1  0.50000000  0.17814900  0.49617600  1
  Fe  Fe17  1  0.50000000  0.17691000  0.82943200  1
  O  O0  1  0.50000000  0.93493100  0.26678100  1
  O  O1  1  0.50000000  0.92934200  0.60064500  1
  O  O2  1  0.00000000  0.89744300  0.09577600  1
  O  O3  1  0.00000000  0.90101300  0.43380900  1
  O  O4  1  0.00000000  0.89982500  0.77131900  1
  O  O5  1  0.50000000  0.73383900  0.39783300  1
  O  O6  1  0.50000000  0.60509600  0.27425000  1
  O  O7  1  0.50000000  0.60197300  0.93351100  1
  O  O8  1  0.00000000  0.56474000  0.10380000  1
  O  O9  1  0.00000000  0.56531400  0.43994300  1
  O  O10  1  0.00000000  0.56416000  0.76492200  1
  O  O11  1  0.50000000  0.39549600  0.39733900  1
  O  O12  1  0.50000000  0.26819300  0.60100200  1
  O  O13  1  0.50000000  0.26474400  0.93858000  1
  O  O14  1  0.00000000  0.22740900  0.43109400  1
  O  O15  1  0.00000000  0.23185200  0.76977000  1
  O  O16  1  0.00000000  0.10289700  0.23961800  1
  O  O17  1  0.50000000  0.07215300  0.06323000  1
  F  F0  1  0.50000000  0.93795900  0.93510800  1
  F  F1  1  0.00000000  0.76826800  0.22369800  1
  F  F2  1  0.00000000  0.76226400  0.56977600  1
  F  F3  1  0.00000000  0.77229200  0.89978800  1
  F  F4  1  0.50000000  0.73145200  0.06190600  1
  F  F5  1  0.50000000  0.73301200  0.73568400  1
  F  F6  1  0.50000000  0.59737000  0.60044000  1
  F  F7  1  0.00000000  0.43255700  0.22992700  1
  F  F8  1  0.00000000  0.43537300  0.57055600  1
  F  F9  1  0.00000000  0.43369800  0.89921200  1
  F  F10  1  0.50000000  0.39526800  0.06432300  1
  F  F11  1  0.50000000  0.39762700  0.73564100  1
  F  F12  1  0.50000000  0.27172200  0.26290600  1
  F  F13  1  0.00000000  0.23460000  0.10723800  1
  F  F14  1  0.00000000  0.10117800  0.56761400  1
  F  F15  1  0.00000000  0.09644600  0.89429300  1
  F  F16  1  0.50000000  0.06337800  0.40544200  1
  F  F17  1  0.50000000  0.06415800  0.73063100  1
loop_
_geom_bond_atom_site_label_1
_geom_bond_atom_site_label_2
_geom_bond_distance
_geom_bond_site_symmetry_2
Fe0 O2 1.919637 1_545
Fe0 O17 1.926244 1_555
Fe0 O17 1.926244 1_455
Fe1 O0 1.948972 1_555
Fe1 O0 1.948972 1_455
Fe1 O3 1.974693 1_555
Fe1 O16 2.024376 1_565
Fe2 O1 1.919237 1_455
Fe2 O1 1.919237 1_555
Fe2 O4 2.003219 1_555
Fe3 O0 1.922119 1_555
Fe3 O2 1.957932 1_655
Fe3 O2 1.957932 1_555
Fe4 O3 1.917630 1_655
Fe4 O3 1.917630 1_555
Fe4 O5 1.980216 1_555
Fe4 O1 2.048534 1_555
Fe5 O4 1.913398 1_555
Fe5 O4 1.913398 1_655
Fe6 O8 1.929422 1_556
Fe6 O7 1.947449 1_455
Fe6 O7 1.947449 1_555
Fe7 O5 1.988162 1_455
Fe7 O5 1.988162 1_555
Fe7 O9 1.997292 1_555
Fe7 O6 2.021186 1_455
Fe7 O6 2.021186 1_555
Fe8 O10 1.948434 1_555
Fe9 O9 1.910121 1_555
Fe9 O9 1.910121 1_655
Fe9 O11 1.934400 1_555
Fe10 O6 1.900737 1_555
Fe10 O8 1.944714 1_555
Fe10 O8 1.944714 1_655
Fe11 O10 1.936898 1_655
Fe11 O10 1.936898 1_555
Fe11 O7 1.940837 1_555
Fe12 O13 1.934475 1_555
Fe12 O13 1.934475 1_455
Fe13 O11 1.931848 1_455
Fe13 O11 1.931848 1_555
Fe13 O14 1.945842 1_555
Fe14 O12 1.932395 1_455
Fe14 O12 1.932395 1_555
Fe14 O15 1.960783 1_555
Fe15 O16 1.915319 1_655
Fe15 O16 1.915319 1_555
Fe15 O17 1.959355 1_555
Fe16 O14 1.935762 1_655
Fe16 O14 1.935762 1_555
Fe16 O12 1.963859 1_555
Fe17 O15 1.931307 1_655
Fe17 O15 1.931307 1_555
Fe17 O13 1.991072 1_555
F0 Fe5 2.005109 1_555
F0 Fe0 2.165286 1_666
F0 Fe0 2.165286 1_566
F1 Fe3 2.097349 1_555
F1 Fe3 2.097349 1_455
F1 Fe7 2.220785 1_555
F2 Fe8 2.002708 1_555
F2 Fe4 2.251603 1_455
F2 Fe4 2.251603 1_555
F3 Fe5 2.122594 1_555
F3 Fe5 2.122594 1_455
F3 Fe6 2.222364 1_555
F4 Fe6 2.111304 1_654
F4 Fe6 2.111304 1_554
F4 Fe3 2.192435 1_555
F5 Fe5 2.072267 1_555
F5 Fe8 2.091349 1_555
F5 Fe8 2.091349 1_655
F6 Fe8 2.034972 1_555
F6 Fe8 2.034972 1_655
F6 Fe9 2.152043 1_555
F7 Fe10 2.135889 1_455
F7 Fe10 2.135889 1_555
F7 Fe13 2.152587 1_555
F8 Fe14 2.105879 1_555
F8 Fe9 2.181959 1_555
F8 Fe9 2.181959 1_455
F9 Fe12 2.081335 1_555
F9 Fe11 2.163822 1_555
F9 Fe11 2.163822 1_455
F10 Fe12 2.100401 1_654
F10 Fe12 2.100401 1_554
F10 Fe10 2.328317 1_555
F11 Fe11 2.119354 1_555
F11 Fe14 2.160573 1_555
F11 Fe14 2.160573 1_655
F12 Fe15 2.112336 1_555
F12 Fe13 2.128245 1_555
F12 Fe13 2.128245 1_655
F13 Fe12 2.027673 1_554
F13 Fe15 2.188546 1_555
F13 Fe15 2.188546 1_455
F14 Fe2 2.103507 1_545
F14 Fe16 2.151275 1_555
F14 Fe16 2.151275 1_455
F15 Fe17 2.134886 1_455
F15 Fe17 2.134886 1_555
F15 Fe0 2.152148 1_556
F16 Fe16 2.078779 1_555
F16 Fe1 2.159753 1_545
F16 Fe1 2.159753 1_645
F17 Fe17 2.130194 1_555
F17 Fe2 2.178459 1_545
F17 Fe2 2.178459 1_645
