# generated using pymatgen
data_Li14Co2S9
_symmetry_space_group_name_H-M   'P 1'
_cell_length_a   6.98559635
_cell_length_b   6.98559635
_cell_length_c   9.80189200
_cell_angle_alpha   90.00000000
_cell_angle_beta   90.00000000
_cell_angle_gamma   120.00000331
_symmetry_Int_Tables_number   1
_chemical_formula_structural   Li14Co2S9
_chemical_formula_sum   'Li14 Co2 S9'
_cell_volume   414.23568043
_cell_formula_units_Z   1
loop_
 _symmetry_equiv_pos_site_id
 _symmetry_equiv_pos_as_xyz
  1  'x, y, z'
loop_
 _atom_site_type_symbol
 _atom_site_label
 _atom_site_symmetry_multiplicity
 _atom_site_fract_x
 _atom_site_fract_y
 _atom_site_fract_z
 _atom_site_occupancy
  Li  Li0  1  0.01899600  0.67238300  0.90995600  1
  Li  Li1  1  0.32433100  0.95820700  0.59151200  1
  Li  Li2  1  0.04179300  0.36612400  0.59151200  1
  Li  Li3  1  0.00000000  0.00000000  0.25030900  1
  Li  Li4  1  0.00000000  0.00000000  0.74969100  1
  Li  Li5  1  0.32761700  0.34661300  0.90995600  1
  Li  Li6  1  0.65338700  0.98100400  0.90995600  1
  Li  Li7  1  0.36612400  0.32433100  0.40848800  1
  Li  Li8  1  0.63387600  0.67566900  0.59151200  1
  Li  Li9  1  0.34661300  0.01899600  0.09004400  1
  Li  Li10  1  0.67238300  0.65338700  0.09004400  1
  Li  Li11  1  0.95820700  0.63387600  0.40848800  1
  Li  Li12  1  0.67566900  0.04179300  0.40848800  1
  Li  Li13  1  0.98100400  0.32761700  0.09004400  1
  Co  Co0  1  0.33333300  0.66666700  0.25579800  1
  Co  Co1  1  0.66666700  0.33333300  0.74420200  1
  S  S0  1  0.30840900  0.96346900  0.33758800  1
  S  S1  1  0.03653100  0.34494000  0.33758800  1
  S  S2  1  0.33333300  0.66666700  0.02089900  1
  S  S3  1  0.00000000  0.00000000  0.00000000  1
  S  S4  1  0.34494000  0.30840900  0.66241200  1
  S  S5  1  0.65506000  0.69159100  0.33758800  1
  S  S6  1  0.66666700  0.33333300  0.97910100  1
  S  S7  1  0.96346900  0.65506000  0.66241200  1
  S  S8  1  0.69159100  0.03653100  0.66241200  1
loop_
_geom_bond_atom_site_label_1
_geom_bond_atom_site_label_2
_geom_bond_distance
_geom_bond_site_symmetry_2
Li0 S7 2.450628 1_455
Li0 S2 2.468501 1_556
Li0 S6 2.509440 1_455
Li0 S3 2.517534 1_566
Li1 S8 2.441427 1_565
Li1 S7 2.446179 1_455
Li1 S4 2.477139 1_565
Li1 S0 2.492511 1_555
Li2 S7 2.441427 1_455
Li2 S4 2.446179 1_555
Li2 S8 2.477139 1_455
Li2 S1 2.492511 1_555
Li3 S5 2.447104 1_445
Li3 S1 2.447104 1_555
Li3 S0 2.447104 1_545
Li3 S3 2.453502 1_555
Li4 S4 2.447104 1_555
Li4 S7 2.447104 1_445
Li4 S8 2.447104 1_455
Li4 S3 2.453502 1_556
Li5 S4 2.450628 1_555
Li5 S2 2.468508 1_556
Li5 S6 2.509443 1_555
Li5 S3 2.517534 1_556
Li6 S8 2.450628 1_565
Li6 S2 2.468505 1_556
Li6 S6 2.509437 1_565
Li6 S3 2.517534 1_666
Li7 S5 2.441427 1_555
Li7 S0 2.446179 1_545
Li7 S1 2.477139 1_555
Li7 S4 2.492511 1_555
Li8 S4 2.441427 1_555
Li8 S8 2.446179 1_565
Li8 S7 2.477139 1_555
Li8 S5 2.492511 1_555
Li9 S0 2.450628 1_545
Li9 S6 2.468505 1_554
Li9 S2 2.509437 1_545
Li9 S3 2.517534 1_555
Li10 S5 2.450628 1_555
Li10 S6 2.468508 1_554
Li10 S2 2.509443 1_555
Li10 S3 2.517534 1_665
Li11 S1 2.441427 1_655
Li11 S5 2.446179 1_555
Li11 S0 2.477139 1_655
Li11 S7 2.492511 1_555
Li12 S0 2.441427 1_545
Li12 S1 2.446179 1_655
Li12 S5 2.477139 1_545
Li12 S8 2.492511 1_555
Li13 S1 2.450628 1_655
Li13 S6 2.468501 1_554
Li13 S2 2.509440 1_655
Li13 S3 2.517534 1_655
Co0 S2 2.302455 1_555
Co0 S0 2.309275 1_555
Co0 S1 2.309279 1_555
Co0 S5 2.309282 1_555
Co1 S6 2.302455 1_555
Co1 S8 2.309275 1_555
Co1 S7 2.309279 1_555
Co1 S4 2.309282 1_555
