# generated using pymatgen
data_PH9C2N4O5
_symmetry_space_group_name_H-M   'P 1'
_cell_length_a   6.74465900
_cell_length_b   8.35282608
_cell_length_c   8.53843202
_cell_angle_alpha   66.37590106
_cell_angle_beta   75.58174881
_cell_angle_gamma   81.34266259
_symmetry_Int_Tables_number   1
_chemical_formula_structural   PH9C2N4O5
_chemical_formula_sum   'P2 H18 C4 N8 O10'
_cell_volume   426.13698956
_cell_formula_units_Z   2
loop_
 _symmetry_equiv_pos_site_id
 _symmetry_equiv_pos_as_xyz
  1  'x, y, z'
loop_
 _atom_site_type_symbol
 _atom_site_label
 _atom_site_symmetry_multiplicity
 _atom_site_fract_x
 _atom_site_fract_y
 _atom_site_fract_z
 _atom_site_occupancy
  P  P0  1  0.04999400  0.97315600  0.25044400  1
  P  P1  1  0.95000600  0.02684400  0.74955600  1
  H  H0  1  0.99414900  0.16243500  0.98755800  1
  H  H1  1  0.00585100  0.83756500  0.01244200  1
  H  H2  1  0.82059400  0.97848000  0.49066300  1
  H  H3  1  0.17940600  0.02152000  0.50933700  1
  H  H4  1  0.62255200  0.30515300  0.23557300  1
  H  H5  1  0.37744800  0.69484700  0.76442700  1
  H  H6  1  0.43371800  0.18002900  0.22977800  1
  H  H7  1  0.56628200  0.81997100  0.77022200  1
  H  H8  1  0.11301200  0.33190400  0.16807000  1
  H  H9  1  0.88698800  0.66809600  0.83193000  1
  H  H10  1  0.03898600  0.51516100  0.22012600  1
  H  H11  1  0.96101400  0.48483900  0.77987400  1
  H  H12  1  0.27426500  0.67101600  0.22783000  1
  H  H13  1  0.72573500  0.32898400  0.77217000  1
  H  H14  1  0.70392600  0.75710900  0.33485300  1
  H  H15  1  0.29607400  0.24289100  0.66514700  1
  H  H16  1  0.44613600  0.81355700  0.32264400  1
  H  H17  1  0.55386400  0.18644300  0.67735600  1
  C  C0  1  0.34233400  0.42694400  0.22065100  1
  C  C1  1  0.65766600  0.57305600  0.77934900  1
  C  C2  1  0.57525600  0.58968100  0.27509700  1
  C  C3  1  0.42474400  0.41031900  0.72490300  1
  N  N0  1  0.48105700  0.29627500  0.21666400  1
  N  N1  1  0.51894300  0.70372500  0.78333600  1
  N  N2  1  0.15317800  0.42594000  0.20054000  1
  N  N3  1  0.84682200  0.57406000  0.79946000  1
  N  N4  1  0.38795400  0.56876600  0.24344000  1
  N  N5  1  0.61204600  0.43123400  0.75656000  1
  N  N6  1  0.57383000  0.73167300  0.31135600  1
  N  N7  1  0.42617000  0.26832700  0.68864400  1
  O  O0  1  0.07988300  0.82986300  0.17709500  1
  O  O1  1  0.92011700  0.17013700  0.82290500  1
  O  O2  1  0.03938800  0.15970600  0.09472200  1
  O  O3  1  0.96061200  0.84029400  0.90527800  1
  O  O4  1  0.83245600  0.95103300  0.38186100  1
  O  O5  1  0.16754400  0.04896700  0.61813900  1
  O  O6  1  0.21714700  0.97774600  0.34023900  1
  O  O7  1  0.78285300  0.02225400  0.65976100  1
  O  O8  1  0.72707700  0.48458600  0.26875100  1
  O  O9  1  0.27292300  0.51541400  0.73124900  1
loop_
_geom_bond_atom_site_label_1
_geom_bond_atom_site_label_2
_geom_bond_distance
_geom_bond_site_symmetry_2
H0 O2 1.025228 1_656
H0 O1 1.580310 1_555
H1 O3 1.025228 1_454
H1 O0 1.580310 1_555
H2 O4 1.024774 1_555
H2 O7 1.579620 1_565
H3 O5 1.024774 1_555
H3 O6 1.579620 1_545
H4 N0 1.024673 1_555
H5 N1 1.024673 1_555
H6 N0 1.022584 1_555
H7 N1 1.022584 1_555
H8 N2 1.021374 1_555
H9 N3 1.021374 1_555
H10 N2 1.019557 1_555
H11 N3 1.019557 1_555
H12 N4 1.047706 1_555
H12 O0 1.722042 1_555
H13 N5 1.047706 1_555
H13 O1 1.722042 1_555
H14 N6 1.016499 1_555
H15 N7 1.016499 1_555
H16 N6 1.026162 1_555
H17 N7 1.026162 1_555
C0 N2 1.330668 1_555
C0 N0 1.332043 1_555
C0 N4 1.363869 1_555
C1 N3 1.330668 1_555
C1 N1 1.332043 1_555
C1 N5 1.363869 1_555
C2 O8 1.249783 1_555
C2 N6 1.338654 1_555
C2 N4 1.404926 1_555
C3 O9 1.249783 1_555
C3 N7 1.338654 1_555
C3 N5 1.404926 1_555
O0 P0 1.526668 1_555
O1 P1 1.526668 1_555
O2 P0 1.598234 1_545
O3 P1 1.598234 1_565
O4 P0 1.594219 1_655
O5 P1 1.594219 1_455
O6 P0 1.525565 1_555
O7 P1 1.525565 1_555
