# generated using pymatgen
data_Li3Mn3FeO8
_symmetry_space_group_name_H-M   'P 1'
_cell_length_a   5.73448639
_cell_length_b   5.73448639
_cell_length_c   9.52085200
_cell_angle_alpha   90.00000000
_cell_angle_beta   90.00000000
_cell_angle_gamma   120.00000446
_symmetry_Int_Tables_number   1
_chemical_formula_structural   Li3Mn3FeO8
_chemical_formula_sum   'Li6 Mn6 Fe2 O16'
_cell_volume   271.14117797
_cell_formula_units_Z   2
loop_
 _symmetry_equiv_pos_site_id
 _symmetry_equiv_pos_as_xyz
  1  'x, y, z'
loop_
 _atom_site_type_symbol
 _atom_site_label
 _atom_site_symmetry_multiplicity
 _atom_site_fract_x
 _atom_site_fract_y
 _atom_site_fract_z
 _atom_site_occupancy
  Li  Li0  1  0.16785000  0.83215000  0.44604400  1
  Li  Li1  1  0.66430000  0.83215000  0.44604400  1
  Li  Li2  1  0.16785000  0.33570000  0.44604400  1
  Li  Li3  1  0.83215000  0.66430000  0.94604400  1
  Li  Li4  1  0.33570000  0.16785000  0.94604400  1
  Li  Li5  1  0.83215000  0.16785000  0.94604400  1
  Mn  Mn0  1  0.16602400  0.83397600  0.71525200  1
  Mn  Mn1  1  0.66795200  0.83397600  0.71525200  1
  Mn  Mn2  1  0.16602400  0.33204800  0.71525200  1
  Mn  Mn3  1  0.83397600  0.66795200  0.21525200  1
  Mn  Mn4  1  0.33204800  0.16602400  0.21525200  1
  Mn  Mn5  1  0.83397600  0.16602400  0.21525200  1
  Fe  Fe0  1  0.33333300  0.66666700  0.99642100  1
  Fe  Fe1  1  0.66666700  0.33333300  0.49642100  1
  O  O0  1  0.00000000  0.00000000  0.82317200  1
  O  O1  1  0.00000000  0.00000000  0.32317200  1
  O  O2  1  0.15640500  0.84359500  0.09811500  1
  O  O3  1  0.48640000  0.97279900  0.83545200  1
  O  O4  1  0.68719000  0.84359500  0.09811500  1
  O  O5  1  0.33333300  0.66666700  0.60256200  1
  O  O6  1  0.02720100  0.51360000  0.83545200  1
  O  O7  1  0.48640000  0.51360000  0.83545200  1
  O  O8  1  0.84359500  0.68719000  0.59811500  1
  O  O9  1  0.15640500  0.31281000  0.09811500  1
  O  O10  1  0.51360000  0.48640000  0.33545200  1
  O  O11  1  0.97279900  0.48640000  0.33545200  1
  O  O12  1  0.66666700  0.33333300  0.10256200  1
  O  O13  1  0.31281000  0.15640500  0.59811500  1
  O  O14  1  0.51360000  0.02720100  0.33545200  1
  O  O15  1  0.84359500  0.15640500  0.59811500  1
loop_
_geom_bond_atom_site_label_1
_geom_bond_atom_site_label_2
_geom_bond_distance
_geom_bond_site_symmetry_2
Li0 O11 2.018206 1_455
Li0 O14 2.018206 1_565
Li0 O1 2.036652 1_565
Li0 O13 2.167735 1_565
Li0 O8 2.167735 1_455
Li0 O5 2.218609 1_555
Li1 O10 2.018205 1_555
Li1 O14 2.018210 1_565
Li1 O1 2.036652 1_665
Li1 O15 2.167735 1_565
Li1 O8 2.167735 1_555
Li1 O5 2.218613 1_555
Li2 O10 2.018205 1_555
Li2 O11 2.018210 1_455
Li2 O1 2.036652 1_555
Li2 O15 2.167735 1_455
Li2 O13 2.167735 1_555
Li2 O5 2.218613 1_555
Li3 O7 2.018205 1_555
Li3 O6 2.018210 1_655
Li3 O0 2.036652 1_665
Li3 O2 2.167735 1_656
Li3 O4 2.167735 1_556
Li3 O12 2.218613 1_556
Li4 O7 2.018205 1_555
Li4 O3 2.018210 1_545
Li4 O0 2.036652 1_555
Li4 O2 2.167735 1_546
Li4 O9 2.167735 1_556
Li4 O12 2.218613 1_556
Li5 O6 2.018206 1_655
Li5 O3 2.018206 1_545
Li5 O0 2.036652 1_655
Li5 O9 2.167735 1_656
Li5 O4 2.167735 1_546
Li5 O12 2.218609 1_556
Mn0 O0 1.942937 1_565
Mn0 O13 1.953105 1_565
Mn0 O8 1.953105 1_455
Mn0 O3 1.963704 1_555
Mn0 O6 1.963704 1_555
Mn0 O5 1.978042 1_555
Mn1 O0 1.942937 1_665
Mn1 O15 1.953105 1_565
Mn1 O8 1.953105 1_555
Mn1 O3 1.963699 1_555
Mn1 O7 1.963703 1_555
Mn1 O5 1.978046 1_555
Mn2 O0 1.942937 1_555
Mn2 O15 1.953105 1_455
Mn2 O13 1.953105 1_555
Mn2 O6 1.963699 1_555
Mn2 O7 1.963703 1_555
Mn2 O5 1.978046 1_555
Mn3 O1 1.942937 1_665
Mn3 O2 1.953105 1_655
Mn3 O4 1.953105 1_555
Mn3 O11 1.963699 1_555
Mn3 O10 1.963703 1_555
Mn3 O12 1.978046 1_555
Mn4 O1 1.942937 1_555
Mn4 O2 1.953105 1_545
Mn4 O9 1.953105 1_555
Mn4 O14 1.963699 1_555
Mn4 O10 1.963703 1_555
Mn4 O12 1.978046 1_555
Mn5 O1 1.942937 1_655
Mn5 O9 1.953105 1_655
Mn5 O4 1.953105 1_545
Mn5 O11 1.963704 1_555
Mn5 O14 1.963704 1_555
Mn5 O12 1.978042 1_555
Fe0 O2 2.006396 1_556
Fe0 O4 2.006400 1_556
Fe0 O9 2.006400 1_556
Fe0 O6 2.158728 1_555
Fe0 O3 2.158728 1_555
Fe0 O7 2.158735 1_555
Fe1 O15 2.006396 1_555
Fe1 O8 2.006400 1_555
Fe1 O13 2.006400 1_555
Fe1 O14 2.158728 1_555
Fe1 O11 2.158728 1_555
Fe1 O10 2.158735 1_555
