# generated using pymatgen
data_Li6Mn2C4SO16
_symmetry_space_group_name_H-M   'P 1'
_cell_length_a   9.52052247
_cell_length_b   9.52052247
_cell_length_c   9.52052247
_cell_angle_alpha   60.00000000
_cell_angle_beta   60.00000000
_cell_angle_gamma   60.00000000
_symmetry_Int_Tables_number   1
_chemical_formula_structural   Li6Mn2C4SO16
_chemical_formula_sum   'Li12 Mn4 C8 S2 O32'
_cell_volume   610.19318026
_cell_formula_units_Z   2
loop_
 _symmetry_equiv_pos_site_id
 _symmetry_equiv_pos_as_xyz
  1  'x, y, z'
loop_
 _atom_site_type_symbol
 _atom_site_label
 _atom_site_symmetry_multiplicity
 _atom_site_fract_x
 _atom_site_fract_y
 _atom_site_fract_z
 _atom_site_occupancy
  Li  Li0  1  0.71681100  0.71681100  0.28318900  1
  Li  Li1  1  0.96681100  0.96681100  0.53318900  1
  Li  Li2  1  0.28318900  0.71681100  0.71681100  1
  Li  Li3  1  0.71681100  0.28318900  0.28318900  1
  Li  Li4  1  0.96681100  0.53318900  0.96681100  1
  Li  Li5  1  0.53318900  0.96681100  0.53318900  1
  Li  Li6  1  0.28318900  0.71681100  0.28318900  1
  Li  Li7  1  0.71681100  0.28318900  0.71681100  1
  Li  Li8  1  0.53318900  0.96681100  0.96681100  1
  Li  Li9  1  0.53318900  0.53318900  0.96681100  1
  Li  Li10  1  0.96681100  0.53318900  0.53318900  1
  Li  Li11  1  0.28318900  0.28318900  0.71681100  1
  Mn  Mn0  1  0.62500000  0.12500000  0.12500000  1
  Mn  Mn1  1  0.12500000  0.12500000  0.12500000  1
  Mn  Mn2  1  0.12500000  0.62500000  0.12500000  1
  Mn  Mn3  1  0.12500000  0.12500000  0.62500000  1
  C  C0  1  0.35130600  0.94608200  0.35130600  1
  C  C1  1  0.89869400  0.89869400  0.89869400  1
  C  C2  1  0.30391800  0.89869400  0.89869400  1
  C  C3  1  0.35130600  0.35130600  0.94608200  1
  C  C4  1  0.89869400  0.89869400  0.30391800  1
  C  C5  1  0.94608200  0.35130600  0.35130600  1
  C  C6  1  0.35130600  0.35130600  0.35130600  1
  C  C7  1  0.89869400  0.30391800  0.89869400  1
  S  S0  1  0.75000000  0.75000000  0.75000000  1
  S  S1  1  0.50000000  0.50000000  0.50000000  1
  O  O0  1  0.68582700  0.68582700  0.68582700  1
  O  O1  1  0.94251800  0.68582700  0.68582700  1
  O  O2  1  0.68582700  0.68582700  0.94251800  1
  O  O3  1  0.68582700  0.94251800  0.68582700  1
  O  O4  1  0.90519700  0.03191300  0.30403000  1
  O  O5  1  0.75886000  0.30403000  0.03191300  1
  O  O6  1  0.90519700  0.75886000  0.03191300  1
  O  O7  1  0.21808700  0.94597000  0.34480300  1
  O  O8  1  0.03191300  0.90519700  0.75886000  1
  O  O9  1  0.30403000  0.75886000  0.90519700  1
  O  O10  1  0.75886000  0.03191300  0.90519700  1
  O  O11  1  0.34480300  0.94597000  0.49114000  1
  O  O12  1  0.94597000  0.34480300  0.21808700  1
  O  O13  1  0.03191300  0.75886000  0.30403000  1
  O  O14  1  0.94597000  0.21808700  0.49114000  1
  O  O15  1  0.75886000  0.90519700  0.30403000  1
  O  O16  1  0.30403000  0.03191300  0.75886000  1
  O  O17  1  0.49114000  0.34480300  0.94597000  1
  O  O18  1  0.21808700  0.49114000  0.94597000  1
  O  O19  1  0.30403000  0.90519700  0.03191300  1
  O  O20  1  0.90519700  0.30403000  0.75886000  1
  O  O21  1  0.49114000  0.21808700  0.34480300  1
  O  O22  1  0.94597000  0.49114000  0.34480300  1
  O  O23  1  0.21808700  0.34480300  0.49114000  1
  O  O24  1  0.34480300  0.49114000  0.21808700  1
  O  O25  1  0.03191300  0.30403000  0.90519700  1
  O  O26  1  0.49114000  0.94597000  0.21808700  1
  O  O27  1  0.34480300  0.21808700  0.94597000  1
  O  O28  1  0.56417300  0.30748200  0.56417300  1
  O  O29  1  0.56417300  0.56417300  0.30748200  1
  O  O30  1  0.30748200  0.56417300  0.56417300  1
  O  O31  1  0.56417300  0.56417300  0.56417300  1
loop_
_geom_bond_atom_site_label_1
_geom_bond_atom_site_label_2
_geom_bond_distance
_geom_bond_site_symmetry_2
Li0 O6 2.137685 1_555
Li0 O15 2.137685 1_555
Li0 O22 2.247688 1_555
Li0 O26 2.247688 1_555
Li0 O29 2.390943 1_555
Li0 O31 2.390948 1_555
Li1 O14 2.137685 1_565
Li1 O7 2.137685 1_655
Li1 O4 2.247688 1_565
Li1 O8 2.247688 1_655
Li1 O3 2.390952 1_555
Li1 O1 2.390952 1_555
Li2 O8 2.137685 1_555
Li2 O9 2.137685 1_555
Li2 O18 2.247688 1_555
Li2 O11 2.247688 1_555
Li2 O30 2.390943 1_555
Li2 O31 2.390948 1_555
Li3 O4 2.137685 1_555
Li3 O5 2.137685 1_555
Li3 O12 2.247688 1_555
Li3 O21 2.247688 1_555
Li3 O28 2.390952 1_555
Li3 O29 2.390952 1_555
Li4 O18 2.137685 1_655
Li4 O12 2.137685 1_556
Li4 O25 2.247688 1_655
Li4 O6 2.247688 1_556
Li4 O2 2.390952 1_555
Li4 O1 2.390952 1_555
Li5 O21 2.137685 1_565
Li5 O11 2.137685 1_555
Li5 O15 2.247688 1_555
Li5 O16 2.247688 1_565
Li5 O3 2.390943 1_555
Li5 O0 2.390948 1_555
Li6 O19 2.137685 1_555
Li6 O13 2.137685 1_555
Li6 O24 2.247688 1_555
Li6 O7 2.247688 1_555
Li6 O30 2.390952 1_555
Li6 O29 2.390952 1_555
Li7 O10 2.137685 1_555
Li7 O20 2.137685 1_555
Li7 O17 2.247688 1_555
Li7 O14 2.247688 1_555
Li7 O28 2.390943 1_555
Li7 O31 2.390948 1_555
Li8 O26 2.137685 1_556
Li8 O27 2.137685 1_565
Li8 O19 2.247688 1_556
Li8 O10 2.247688 1_565
Li8 O3 2.390952 1_555
Li8 O2 2.390952 1_555
Li9 O24 2.137685 1_556
Li9 O17 2.137685 1_555
Li9 O9 2.247688 1_555
Li9 O5 2.247688 1_556
Li9 O2 2.390943 1_555
Li9 O0 2.390948 1_555
Li10 O23 2.137685 1_655
Li10 O22 2.137685 1_555
Li10 O13 2.247688 1_655
Li10 O20 2.247688 1_555
Li10 O1 2.390943 1_555
Li10 O0 2.390948 1_555
Li11 O25 2.137685 1_555
Li11 O16 2.137685 1_555
Li11 O23 2.247688 1_555
Li11 O27 2.247688 1_555
Li11 O30 2.390952 1_555
Li11 O28 2.390952 1_555
Mn0 O26 2.201576 1_545
Mn0 O15 2.201576 1_545
Mn0 O10 2.201576 1_554
Mn0 O5 2.201576 1_555
Mn0 O17 2.201576 1_554
Mn0 O21 2.201576 1_555
Mn1 O25 2.201576 1_554
Mn1 O4 2.201576 1_455
Mn1 O19 2.201576 1_545
Mn1 O27 2.201576 1_554
Mn1 O12 2.201576 1_455
Mn1 O7 2.201576 1_545
Mn2 O9 2.201576 1_554
Mn2 O18 2.201576 1_554
Mn2 O13 2.201576 1_555
Mn2 O6 2.201576 1_455
Mn2 O22 2.201576 1_455
Mn2 O24 2.201576 1_555
Mn3 O20 2.201576 1_455
Mn3 O11 2.201576 1_545
Mn3 O8 2.201576 1_545
Mn3 O16 2.201576 1_555
Mn3 O14 2.201576 1_455
Mn3 O23 2.201576 1_555
C0 O7 1.300922 1_555
C0 O26 1.300922 1_555
C0 O11 1.300922 1_555
C1 O10 1.300922 1_565
C1 O8 1.300922 1_655
C1 O6 1.300922 1_556
C2 O9 1.300922 1_555
C2 O16 1.300922 1_565
C2 O19 1.300922 1_556
C3 O27 1.300922 1_555
C3 O18 1.300922 1_555
C3 O17 1.300922 1_555
C4 O15 1.300922 1_555
C4 O13 1.300922 1_655
C4 O4 1.300922 1_565
C5 O12 1.300922 1_555
C5 O14 1.300922 1_555
C5 O22 1.300922 1_555
C6 O23 1.300922 1_555
C6 O24 1.300922 1_555
C6 O21 1.300922 1_555
C7 O20 1.300922 1_555
C7 O5 1.300922 1_556
C7 O25 1.300922 1_655
O0 S0 1.496541 1_555
O1 S0 1.496534 1_555
O2 S0 1.496534 1_555
O3 S0 1.496534 1_555
O28 S1 1.496534 1_555
O29 S1 1.496534 1_555
O30 S1 1.496534 1_555
O31 S1 1.496541 1_555
