# generated using pymatgen
data_Li4FeOF5
_symmetry_space_group_name_H-M   'P 1'
_cell_length_a   5.21054764
_cell_length_b   8.87636004
_cell_length_c   10.59441346
_cell_angle_alpha   114.77004345
_cell_angle_beta   84.36016863
_cell_angle_gamma   89.98972457
_symmetry_Int_Tables_number   1
_chemical_formula_structural   Li4FeOF5
_chemical_formula_sum   'Li16 Fe4 O4 F20'
_cell_volume   442.29982431
_cell_formula_units_Z   4
loop_
 _symmetry_equiv_pos_site_id
 _symmetry_equiv_pos_as_xyz
  1  'x, y, z'
loop_
 _atom_site_type_symbol
 _atom_site_label
 _atom_site_symmetry_multiplicity
 _atom_site_fract_x
 _atom_site_fract_y
 _atom_site_fract_z
 _atom_site_occupancy
  Li  Li0  1  0.90071200  0.68809300  0.73763600  1
  Li  Li1  1  0.40076700  0.18802700  0.73756500  1
  Li  Li2  1  0.65073300  0.79959600  0.23763500  1
  Li  Li3  1  0.15072600  0.29963600  0.23765800  1
  Li  Li4  1  0.60766000  0.45128900  0.24803400  1
  Li  Li5  1  0.10763600  0.95129600  0.24808000  1
  Li  Li6  1  0.85764400  0.04680800  0.74801900  1
  Li  Li7  1  0.35763300  0.54684300  0.74803300  1
  Li  Li8  1  0.76804100  0.42391500  0.50479000  1
  Li  Li9  1  0.26817300  0.92391200  0.50477800  1
  Li  Li10  1  0.51814100  0.83084800  0.00479000  1
  Li  Li11  1  0.01808400  0.33082600  0.00478400  1
  Li  Li12  1  0.87681200  0.38303500  0.75441400  1
  Li  Li13  1  0.37685600  0.88303000  0.75439500  1
  Li  Li14  1  0.62691300  0.12146100  0.25441400  1
  Li  Li15  1  0.12697900  0.62145400  0.25435900  1
  Fe  Fe0  1  0.23229900  0.27118000  0.50933000  1
  Fe  Fe1  1  0.98263600  0.98810500  0.00931200  1
  Fe  Fe2  1  0.73256200  0.77123400  0.50941000  1
  Fe  Fe3  1  0.48252500  0.48809000  0.00934400  1
  O  O0  1  0.06008300  0.46423000  0.62944700  1
  O  O1  1  0.56018900  0.96414700  0.62938900  1
  O  O2  1  0.81009600  0.91515200  0.12942000  1
  O  O3  1  0.31001500  0.41509900  0.12940800  1
  F  F0  1  0.21388300  0.41436900  0.87213000  1
  F  F1  1  0.71395200  0.91439300  0.87217700  1
  F  F2  1  0.96388300  0.20792700  0.37218100  1
  F  F3  1  0.46396600  0.70789200  0.37214900  1
  F  F4  1  0.84483300  0.22779700  0.12579100  1
  F  F5  1  0.34478900  0.72776000  0.12578100  1
  F  F6  1  0.09475000  0.14790600  0.62572400  1
  F  F7  1  0.59477000  0.64790500  0.62571400  1
  F  F8  1  0.64091400  0.58987900  0.87484100  1
  F  F9  1  0.14097700  0.08990500  0.87484000  1
  F  F10  1  0.39096400  0.03501000  0.37484200  1
  F  F11  1  0.89105100  0.53498400  0.37481600  1
  F  F12  1  0.44589000  0.33535900  0.36693700  1
  F  F13  1  0.94596700  0.83532400  0.36691300  1
  F  F14  1  0.69579200  0.28158500  0.86679600  1
  F  F15  1  0.19586900  0.78161700  0.86683400  1
  F  F16  1  0.54292500  0.31949900  0.61744700  1
  F  F17  1  0.04302800  0.81949300  0.61745400  1
  F  F18  1  0.29299000  0.04773200  0.11743800  1
  F  F19  1  0.79288400  0.54766900  0.11736800  1
loop_
_geom_bond_atom_site_label_1
_geom_bond_atom_site_label_2
_geom_bond_distance
_geom_bond_site_symmetry_2
Li0 O0 1.963588 1_655
Li1 O1 1.963785 1_545
Li2 O2 1.963314 1_555
Li3 O3 1.962822 1_555
Li4 O3 2.032958 1_555
Li5 O2 2.032775 1_455
Li6 O1 2.032410 1_545
Li7 O0 2.032521 1_555
Li8 O0 2.046207 1_655
Li9 O1 2.045851 1_555
Li10 O2 2.045684 1_555
Li11 O3 2.045521 1_555
Li12 O0 1.932748 1_655
Li13 O1 1.932757 1_555
Li14 O2 1.933151 1_545
Li15 O3 1.932985 1_555
Fe0 O0 1.818991 1_555
Fe1 O2 1.820056 1_555
Fe2 O1 1.818175 1_555
Fe3 O3 1.819836 1_555
F0 Fe3 2.025827 1_556
F0 Li11 2.039029 1_556
F0 Li1 2.084097 1_555
F0 Li7 2.185060 1_555
F0 Li12 2.203952 1_455
F1 Fe1 2.025448 1_556
F1 Li10 2.038723 1_556
F1 Li0 2.083526 1_555
F1 Li6 2.185073 1_565
F1 Li13 2.204448 1_555
F2 Fe0 2.024511 1_655
F2 Li8 2.037449 1_555
F2 Li3 2.083599 1_655
F2 Li5 2.185153 1_645
F2 Li14 2.203908 1_555
F3 Fe2 2.026001 1_555
F3 Li9 2.037576 1_555
F3 Li2 2.083334 1_555
F3 Li4 2.184889 1_555
F3 Li15 2.204078 1_555
F4 Li11 2.012476 1_655
F4 Li3 2.022382 1_655
F4 Fe1 2.047017 1_545
F4 Li4 2.161386 1_555
F4 Li14 2.193440 1_555
F5 Li10 2.012924 1_555
F5 Li2 2.022531 1_555
F5 Fe3 2.046702 1_555
F5 Li5 2.161687 1_555
F5 Li15 2.192637 1_555
F6 Li9 2.012092 1_545
F6 Li1 2.022679 1_555
F6 Fe0 2.046664 1_555
F6 Li6 2.161108 1_455
F6 Li12 2.194252 1_455
F7 Li8 2.011719 1_555
F7 Li0 2.022813 1_555
F7 Fe2 2.046662 1_555
F7 Li7 2.161161 1_555
F7 Li13 2.194154 1_555
F8 Li7 2.022237 1_555
F8 Li12 2.058557 1_555
F8 Li10 2.058760 1_556
F8 Fe3 2.091889 1_556
F8 Li0 2.319698 1_555
F9 Li6 2.022494 1_455
F9 Li11 2.058579 1_556
F9 Li13 2.058714 1_545
F9 Fe1 2.091607 1_446
F9 Li1 2.319694 1_555
F10 Li5 2.022135 1_545
F10 Li14 2.059275 1_555
F10 Li9 2.059493 1_545
F10 Fe0 2.091213 1_555
F10 Li2 2.319173 1_545
F11 Li4 2.022504 1_555
F11 Li15 2.059543 1_655
F11 Li8 2.059915 1_555
F11 Fe2 2.091671 1_555
F11 Li3 2.318444 1_655
F12 Li14 1.948683 1_555
F12 Fe0 2.056524 1_555
F12 Li4 2.057697 1_555
F12 Li3 2.095725 1_555
F12 Li8 2.255845 1_555
F13 Li15 1.948532 1_655
F13 Fe2 2.056485 1_555
F13 Li5 2.057215 1_655
F13 Li2 2.096003 1_555
F13 Li9 2.256172 1_655
F14 Li12 1.948370 1_555
F14 Fe3 2.055550 1_556
F14 Li6 2.056930 1_555
F14 Li1 2.094911 1_555
F14 Li11 2.257359 1_656
F15 Li13 1.948518 1_555
F15 Fe1 2.055151 1_456
F15 Li7 2.056786 1_555
F15 Li0 2.095228 1_455
F15 Li10 2.257065 1_556
F16 Fe0 2.017075 1_555
F16 Li8 2.076439 1_555
F16 Li7 2.077440 1_555
F16 Li1 2.142306 1_555
F16 Li12 2.293724 1_555
F17 Fe2 2.015942 1_455
F17 Li9 2.076676 1_555
F17 Li6 2.077406 1_465
F17 Li0 2.142570 1_455
F17 Li13 2.293305 1_555
F18 Fe1 2.015883 1_445
F18 Li10 2.074979 1_545
F18 Li5 2.076417 1_545
F18 Li3 2.144477 1_555
F18 Li14 2.293995 1_555
F19 Fe3 2.015315 1_555
F19 Li11 2.074770 1_655
F19 Li4 2.076005 1_555
F19 Li2 2.144532 1_555
F19 Li15 2.294834 1_655
