# generated using pymatgen
data_MnFe(PO4)2
_symmetry_space_group_name_H-M   'P 1'
_cell_length_a   5.98917800
_cell_length_b   9.88322900
_cell_length_c   14.72173746
_cell_angle_alpha   89.95066216
_cell_angle_beta   90.00000000
_cell_angle_gamma   90.00000000
_symmetry_Int_Tables_number   1
_chemical_formula_structural   MnFe(PO4)2
_chemical_formula_sum   'Mn6 Fe6 P12 O48'
_cell_volume   871.41490975
_cell_formula_units_Z   6
loop_
 _symmetry_equiv_pos_site_id
 _symmetry_equiv_pos_as_xyz
  1  'x, y, z'
loop_
 _atom_site_type_symbol
 _atom_site_label
 _atom_site_symmetry_multiplicity
 _atom_site_fract_x
 _atom_site_fract_y
 _atom_site_fract_z
 _atom_site_occupancy
  Mn  Mn0  1  0.50000000  0.71669500  0.97872200  1
  Mn  Mn1  1  0.50000000  0.21807400  0.85354300  1
  Mn  Mn2  1  0.00000000  0.78286800  0.81334400  1
  Mn  Mn3  1  0.50000000  0.71867900  0.64525800  1
  Mn  Mn4  1  0.50000000  0.21969100  0.51986900  1
  Mn  Mn5  1  0.50000000  0.71689000  0.31164400  1
  Fe  Fe0  1  0.00000000  0.27515400  0.67922500  1
  Fe  Fe1  1  0.00000000  0.77710100  0.48604300  1
  Fe  Fe2  1  0.00000000  0.27603300  0.34564600  1
  Fe  Fe3  1  0.50000000  0.22617300  0.17971000  1
  Fe  Fe4  1  0.00000000  0.77609000  0.15340100  1
  Fe  Fe5  1  0.00000000  0.27400600  0.01271600  1
  P  P0  1  0.00000000  0.59775000  0.97189100  1
  P  P1  1  0.00000000  0.09518100  0.86125700  1
  P  P2  1  0.50000000  0.90127500  0.80649100  1
  P  P3  1  0.50000000  0.40083300  0.69342100  1
  P  P4  1  0.00000000  0.59908000  0.63914800  1
  P  P5  1  0.00000000  0.09718900  0.52845600  1
  P  P6  1  0.50000000  0.90151000  0.47307800  1
  P  P7  1  0.50000000  0.40258900  0.36095500  1
  P  P8  1  0.00000000  0.59698400  0.30507300  1
  P  P9  1  0.00000000  0.09762000  0.19579400  1
  P  P10  1  0.50000000  0.89974300  0.13945600  1
  P  P11  1  0.50000000  0.40168200  0.02671500  1
  O  O0  1  0.00000000  0.44563200  0.95014400  1
  O  O1  1  0.20092500  0.67041800  0.92376300  1
  O  O2  1  0.79907500  0.67041800  0.92376300  1
  O  O3  1  0.50000000  0.38107700  0.92304000  1
  O  O4  1  0.50000000  0.88129600  0.91002800  1
  O  O5  1  0.19853300  0.16960100  0.91084400  1
  O  O6  1  0.80146700  0.16960100  0.91084400  1
  O  O7  1  0.00000000  0.94407200  0.88505800  1
  O  O8  1  0.50000000  0.05431300  0.78583300  1
  O  O9  1  0.70080000  0.83052100  0.75829900  1
  O  O10  1  0.29920000  0.83052100  0.75829900  1
  O  O11  1  0.00000000  0.11756100  0.75911400  1
  O  O12  1  0.00000000  0.62056000  0.74225600  1
  O  O13  1  0.70313900  0.32947400  0.74013800  1
  O  O14  1  0.29686100  0.32947400  0.74013800  1
  O  O15  1  0.50000000  0.55390900  0.71357000  1
  O  O16  1  0.00000000  0.44881800  0.61721500  1
  O  O17  1  0.19844500  0.67364500  0.59006700  1
  O  O18  1  0.80155500  0.67364500  0.59006700  1
  O  O19  1  0.50000000  0.38239500  0.58928600  1
  O  O20  1  0.50000000  0.88247500  0.57752000  1
  O  O21  1  0.80157000  0.17274800  0.57791500  1
  O  O22  1  0.19843000  0.17274800  0.57791500  1
  O  O23  1  0.00000000  0.94709600  0.55264300  1
  O  O24  1  0.50000000  0.05456300  0.45312000  1
  O  O25  1  0.70372600  0.83082100  0.42713300  1
  O  O26  1  0.29627400  0.83082100  0.42713300  1
  O  O27  1  0.00000000  0.11967000  0.42635300  1
  O  O28  1  0.00000000  0.61977000  0.40751300  1
  O  O29  1  0.29641600  0.33101900  0.40751400  1
  O  O30  1  0.70358400  0.33101900  0.40751400  1
  O  O31  1  0.50000000  0.55557900  0.38295700  1
  O  O32  1  0.00000000  0.44714100  0.28120300  1
  O  O33  1  0.19854600  0.67232300  0.25616500  1
  O  O34  1  0.80145400  0.67232300  0.25616500  1
  O  O35  1  0.50000000  0.38311400  0.25751400  1
  O  O36  1  0.50000000  0.88045200  0.24384400  1
  O  O37  1  0.79926800  0.17320000  0.24318600  1
  O  O38  1  0.20073200  0.17320000  0.24318600  1
  O  O39  1  0.00000000  0.94725700  0.21876400  1
  O  O40  1  0.50000000  0.05223200  0.11995700  1
  O  O41  1  0.70348000  0.82821700  0.09346700  1
  O  O42  1  0.29652000  0.82821700  0.09346700  1
  O  O43  1  0.00000000  0.11990900  0.09285800  1
  O  O44  1  0.00000000  0.61863500  0.07462000  1
  O  O45  1  0.29969500  0.32823500  0.07477600  1
  O  O46  1  0.70030500  0.32823500  0.07477600  1
  O  O47  1  0.50000000  0.55314000  0.04819800  1
loop_
_geom_bond_atom_site_label_1
_geom_bond_atom_site_label_2
_geom_bond_distance
_geom_bond_site_symmetry_2
Mn0 O47 1.912120 1_556
Mn0 O4 1.914766 1_555
Mn0 O1 2.018142 1_555
Mn0 O2 2.018142 1_555
Mn0 O41 2.357281 1_556
Mn0 O42 2.357281 1_556
Mn1 O8 1.901554 1_555
Mn1 O3 1.909166 1_555
Mn1 O6 2.049487 1_555
Mn1 O5 2.049487 1_555
Mn1 O13 2.340195 1_555
Mn1 O14 2.340195 1_555
Mn2 O7 1.912028 1_555
Mn2 O12 1.916079 1_555
Mn2 O10 2.022118 1_555
Mn2 O9 2.022118 1_455
Mn2 O2 2.307073 1_455
Mn2 O1 2.307073 1_555
Mn3 O20 1.900603 1_555
Mn3 O15 1.913226 1_555
Mn3 O17 2.029967 1_555
Mn3 O18 2.029967 1_555
Mn3 O10 2.332537 1_555
Mn3 O9 2.332537 1_555
Mn4 O24 1.905729 1_555
Mn4 O19 1.906039 1_555
Mn4 O22 2.051098 1_555
Mn4 O21 2.051098 1_555
Mn4 O29 2.330256 1_555
Mn4 O30 2.330256 1_555
Mn5 O36 1.899113 1_555
Mn5 O31 1.908144 1_555
Mn5 O34 2.030123 1_555
Mn5 O33 2.030123 1_555
Mn5 O25 2.377106 1_555
Mn5 O26 2.377106 1_555
Fe0 O16 1.943341 1_555
Fe0 O11 1.950887 1_555
Fe0 O14 2.062599 1_555
Fe0 O13 2.062599 1_455
Fe0 O21 2.159577 1_455
Fe0 O22 2.159577 1_555
Fe1 O28 1.938425 1_555
Fe1 O23 1.945993 1_555
Fe1 O26 2.044959 1_555
Fe1 O25 2.044959 1_455
Fe1 O17 2.191023 1_555
Fe1 O18 2.191023 1_455
Fe2 O32 1.938327 1_555
Fe2 O27 1.948513 1_555
Fe2 O30 2.068186 1_455
Fe2 O29 2.068186 1_555
Fe2 O38 2.180853 1_555
Fe2 O37 2.180853 1_455
Fe3 O35 1.928960 1_555
Fe3 O40 1.931766 1_555
Fe3 O38 2.087844 1_555
Fe3 O37 2.087844 1_555
Fe3 O45 2.200097 1_555
Fe3 O46 2.200097 1_555
Fe4 O44 1.941616 1_555
Fe4 O39 1.946929 1_555
Fe4 O42 2.048659 1_555
Fe4 O41 2.048659 1_455
Fe4 O33 2.179878 1_555
Fe4 O34 2.179878 1_455
Fe5 O43 1.925710 1_555
Fe5 O0 1.929513 1_554
Fe5 O46 2.084365 1_455
Fe5 O45 2.084365 1_555
Fe5 O6 2.174956 1_454
Fe5 O5 2.174956 1_554
O0 P0 1.537397 1_555
O1 P0 1.570048 1_555
O2 P0 1.570048 1_655
O3 P11 1.539976 1_556
O4 P2 1.536812 1_555
O5 P1 1.577545 1_555
O6 P1 1.577545 1_655
O7 P1 1.533705 1_565
O8 P2 1.542525 1_545
O9 P2 1.561891 1_555
O10 P2 1.561891 1_555
O11 P1 1.519714 1_555
O12 P4 1.532883 1_555
O13 P3 1.565172 1_555
O14 P3 1.565172 1_555
O15 P3 1.541941 1_555
O16 P4 1.520042 1_555
O17 P4 1.573799 1_555
O18 P4 1.573799 1_655
O19 P3 1.543996 1_555
O20 P6 1.548873 1_555
O21 P5 1.581497 1_655
O22 P5 1.581497 1_555
O23 P5 1.525243 1_565
O24 P6 1.540681 1_545
O25 P6 1.560506 1_555
O26 P6 1.560506 1_555
O27 P5 1.519277 1_555
O28 P8 1.525008 1_555
O29 P7 1.567165 1_555
O30 P7 1.567165 1_555
O31 P7 1.546612 1_555
O32 P8 1.522349 1_555
O33 P8 1.576685 1_555
O34 P8 1.576685 1_655
O35 P7 1.535111 1_555
O36 P10 1.548391 1_555
O37 P9 1.578282 1_655
O38 P9 1.578282 1_555
O39 P9 1.523777 1_565
O40 P10 1.533936 1_545
O41 P10 1.563362 1_555
O42 P10 1.563362 1_555
O43 P9 1.531136 1_555
O44 P0 1.526546 1_554
O45 P11 1.570300 1_555
O46 P11 1.570300 1_555
O47 P11 1.530207 1_555
