# generated using pymatgen
data_Na2NiPCO7
_symmetry_space_group_name_H-M   'P 1'
_cell_length_a   8.41318700
_cell_length_b   8.45412486
_cell_length_c   8.91174538
_cell_angle_alpha   90.96506096
_cell_angle_beta   91.65482798
_cell_angle_gamma   104.21347690
_symmetry_Int_Tables_number   1
_chemical_formula_structural   Na2NiPCO7
_chemical_formula_sum   'Na8 Ni4 P4 C4 O28'
_cell_volume   614.01044775
_cell_formula_units_Z   4
loop_
 _symmetry_equiv_pos_site_id
 _symmetry_equiv_pos_as_xyz
  1  'x, y, z'
loop_
 _atom_site_type_symbol
 _atom_site_label
 _atom_site_symmetry_multiplicity
 _atom_site_fract_x
 _atom_site_fract_y
 _atom_site_fract_z
 _atom_site_occupancy
  Na  Na0  1  0.88612700  0.86573400  0.26455400  1
  Na  Na1  1  0.38308800  0.37561000  0.24977200  1
  Na  Na2  1  0.61598900  0.13679400  0.26602400  1
  Na  Na3  1  0.12326300  0.63323700  0.24736100  1
  Na  Na4  1  0.89280100  0.38120800  0.73812100  1
  Na  Na5  1  0.59417500  0.63038800  0.73744400  1
  Na  Na6  1  0.12936900  0.13111200  0.74415400  1
  Na  Na7  1  0.75273800  0.01851000  0.91067900  1
  Ni  Ni0  1  0.98540400  0.23284100  0.34885800  1
  Ni  Ni1  1  0.48532100  0.73713700  0.35248800  1
  Ni  Ni2  1  0.02187300  0.76634000  0.65270600  1
  Ni  Ni3  1  0.51826800  0.26266700  0.65096300  1
  P  P0  1  0.76610300  0.51684200  0.42390500  1
  P  P1  1  0.26512700  0.01368000  0.42495400  1
  P  P2  1  0.73593100  0.98406100  0.57746700  1
  P  P3  1  0.23107500  0.47942300  0.57702100  1
  C  C0  1  0.52165900  0.76773400  0.07907800  1
  C  C1  1  0.01124900  0.26189300  0.07265000  1
  C  C2  1  0.98079900  0.73640300  0.92524100  1
  C  C3  1  0.48748100  0.23500000  0.92552700  1
  O  O0  1  0.96170600  0.72181200  0.06445800  1
  O  O1  1  0.47562700  0.22282400  0.06547100  1
  O  O2  1  0.40681800  0.65782900  0.13995500  1
  O  O3  1  0.89833600  0.15092600  0.13754800  1
  O  O4  1  0.61600500  0.86950400  0.17660500  1
  O  O5  1  0.11167100  0.36239800  0.16445000  1
  O  O6  1  0.32292900  0.88492800  0.32971800  1
  O  O7  1  0.82308500  0.38681600  0.32995100  1
  O  O8  1  0.63640900  0.57553200  0.32761300  1
  O  O9  1  0.13898800  0.07397100  0.32436900  1
  O  O10  1  0.80675300  0.05139600  0.42693100  1
  O  O11  1  0.29922700  0.55308500  0.42703800  1
  O  O12  1  0.91657800  0.66673700  0.45901300  1
  O  O13  1  0.41559500  0.16329400  0.46008000  1
  O  O14  1  0.58992800  0.83286500  0.54051500  1
  O  O15  1  0.08356300  0.32665700  0.54047500  1
  O  O16  1  0.19175900  0.94698000  0.57409600  1
  O  O17  1  0.69623600  0.44893400  0.57578000  1
  O  O18  1  0.86238400  0.92725500  0.68092900  1
  O  O19  1  0.16037200  0.59630000  0.67458900  1
  O  O20  1  0.68219400  0.11585400  0.67326700  1
  O  O21  1  0.36136600  0.42114800  0.67227600  1
  O  O22  1  0.88553400  0.64143100  0.82442500  1
  O  O23  1  0.39103800  0.13879200  0.82816900  1
  O  O24  1  0.60287100  0.34455700  0.86377400  1
  O  O25  1  0.09504100  0.84833400  0.86796200  1
  O  O26  1  0.54303000  0.77722000  0.94023400  1
  O  O27  1  0.01516100  0.26389800  0.93101600  1
loop_
_geom_bond_atom_site_label_1
_geom_bond_atom_site_label_2
_geom_bond_distance
_geom_bond_site_symmetry_2
Na0 O0 2.331718 1_555
Na0 O10 2.344703 1_565
Na0 O4 2.390295 1_555
Na0 O9 2.443936 1_665
Na0 O12 2.486628 1_555
Na0 O3 2.661166 1_565
Na0 O8 2.886577 1_555
Na1 O1 2.338461 1_555
Na1 O5 2.361468 1_555
Na1 O11 2.397697 1_555
Na1 O8 2.446683 1_555
Na1 O2 2.558564 1_555
Na1 O13 2.670969 1_555
Na2 O1 2.336985 1_555
Na2 O10 2.371550 1_555
Na2 O4 2.383437 1_545
Na2 O7 2.433452 1_555
Na2 O13 2.494835 1_555
Na2 O3 2.643899 1_555
Na2 O6 2.911807 1_545
Na3 O0 2.340515 1_455
Na3 O11 2.367913 1_555
Na3 O5 2.372215 1_555
Na3 O6 2.451337 1_555
Na3 O2 2.558423 1_555
Na3 O12 2.659868 1_455
Na4 O22 2.333852 1_555
Na4 O27 2.335586 1_655
Na4 O17 2.347433 1_555
Na4 O15 2.527894 1_655
Na4 O20 2.539952 1_555
Na4 O19 2.606312 1_655
Na4 O24 2.664225 1_555
Na5 O26 2.285548 1_555
Na5 O21 2.345433 1_555
Na5 O17 2.410403 1_555
Na5 O14 2.477698 1_555
Na5 O22 2.528573 1_555
Na5 O24 2.699215 1_555
Na6 O23 2.290031 1_555
Na6 O16 2.315872 1_545
Na6 O27 2.348551 1_555
Na6 O18 2.515205 1_445
Na6 O15 2.559240 1_555
Na6 O25 2.604639 1_545
Na6 O21 2.829696 1_555
Na7 O26 2.370847 1_545
Na7 O20 2.394139 1_555
Na7 O3 2.438991 1_556
Na7 O18 2.458382 1_545
Na7 O27 2.631735 1_655
Na7 O4 2.841279 1_546
Ni0 O15 1.943804 1_655
Ni0 O10 2.015031 1_555
Ni0 O3 2.046869 1_555
Ni0 O9 2.092802 1_655
Ni0 O7 2.110651 1_555
Ni0 O5 2.149186 1_655
Ni1 O14 1.938216 1_555
Ni1 O2 2.034859 1_555
Ni1 O11 2.052399 1_555
Ni1 O6 2.073568 1_555
Ni1 O8 2.095326 1_555
Ni1 O4 2.114792 1_555
Ni2 O16 1.971753 1_555
Ni2 O12 1.992434 1_455
Ni2 O25 2.053486 1_555
Ni2 O19 2.069099 1_555
Ni2 O22 2.081755 1_455
Ni2 O18 2.149129 1_455
Ni3 O13 1.963751 1_555
Ni3 O17 2.026364 1_555
Ni3 O24 2.053904 1_555
Ni3 O20 2.077287 1_555
Ni3 O23 2.083097 1_555
Ni3 O21 2.109061 1_555
C0 O26 1.256537 1_554
C0 O2 1.302904 1_555
C0 O4 1.313501 1_555
C1 O27 1.263875 1_554
C1 O5 1.299687 1_555
C1 O3 1.315057 1_455
C2 O0 1.259844 1_556
C2 O25 1.295289 1_655
C2 O22 1.308563 1_555
C3 O1 1.257927 1_556
C3 O23 1.297756 1_555
C3 O24 1.307534 1_555
O6 P1 1.547342 1_565
O7 P0 1.546032 1_555
O8 P0 1.548963 1_555
O9 P1 1.554221 1_555
O10 P2 1.544063 1_545
O11 P3 1.549212 1_555
O12 P0 1.575566 1_555
O13 P1 1.574123 1_555
O14 P2 1.562876 1_555
O15 P3 1.577859 1_555
O16 P1 1.538582 1_565
O17 P0 1.553512 1_555
O18 P2 1.556198 1_555
O19 P3 1.541347 1_555
O20 P2 1.553164 1_545
O21 P3 1.546106 1_555
