# generated using pymatgen
data_Sm3B5O12
_symmetry_space_group_name_H-M   'P 1'
_cell_length_a   6.53940100
_cell_length_b   8.07959700
_cell_length_c   17.59973100
_cell_angle_alpha   90.00000000
_cell_angle_beta   90.00000000
_cell_angle_gamma   90.00000000
_symmetry_Int_Tables_number   1
_chemical_formula_structural   Sm3B5O12
_chemical_formula_sum   'Sm12 B20 O48'
_cell_volume   929.89454193
_cell_formula_units_Z   4
loop_
 _symmetry_equiv_pos_site_id
 _symmetry_equiv_pos_as_xyz
  1  'x, y, z'
loop_
 _atom_site_type_symbol
 _atom_site_label
 _atom_site_symmetry_multiplicity
 _atom_site_fract_x
 _atom_site_fract_y
 _atom_site_fract_z
 _atom_site_occupancy
  Sm  Sm0  1  0.03992300  0.02098100  0.90037400  1
  Sm  Sm1  1  0.03992300  0.47901900  0.90037400  1
  Sm  Sm2  1  0.98979500  0.75000000  0.30850800  1
  Sm  Sm3  1  0.51020500  0.25000000  0.80850800  1
  Sm  Sm4  1  0.46007700  0.52098100  0.40037400  1
  Sm  Sm5  1  0.46007700  0.97901900  0.40037400  1
  Sm  Sm6  1  0.53992300  0.02098100  0.59962600  1
  Sm  Sm7  1  0.53992300  0.47901900  0.59962600  1
  Sm  Sm8  1  0.48979500  0.75000000  0.19149200  1
  Sm  Sm9  1  0.01020500  0.25000000  0.69149200  1
  Sm  Sm10  1  0.96007700  0.52098100  0.09962600  1
  Sm  Sm11  1  0.96007700  0.97901900  0.09962600  1
  B  B0  1  0.09413700  0.25000000  0.38609000  1
  B  B1  1  0.12729200  0.09977200  0.26008000  1
  B  B2  1  0.12729200  0.40022800  0.26008000  1
  B  B3  1  0.17166600  0.25000000  0.52471900  1
  B  B4  1  0.20380300  0.75000000  0.52070900  1
  B  B5  1  0.29619700  0.25000000  0.02070900  1
  B  B6  1  0.32833400  0.75000000  0.02471900  1
  B  B7  1  0.37270800  0.59977200  0.76008000  1
  B  B8  1  0.37270800  0.90022800  0.76008000  1
  B  B9  1  0.40586300  0.75000000  0.88609000  1
  B  B10  1  0.59413700  0.25000000  0.11391000  1
  B  B11  1  0.62729200  0.09977200  0.23992000  1
  B  B12  1  0.62729200  0.40022800  0.23992000  1
  B  B13  1  0.67166600  0.25000000  0.97528100  1
  B  B14  1  0.70380300  0.75000000  0.97929100  1
  B  B15  1  0.79619700  0.25000000  0.47929100  1
  B  B16  1  0.82833400  0.75000000  0.47528100  1
  B  B17  1  0.87270800  0.90022800  0.73992000  1
  B  B18  1  0.87270800  0.59977200  0.73992000  1
  B  B19  1  0.90586300  0.75000000  0.61391000  1
  O  O0  1  0.03196300  0.75000000  0.45880500  1
  O  O1  1  0.15459000  0.09874700  0.33803300  1
  O  O2  1  0.15459000  0.40125300  0.33803300  1
  O  O3  1  0.07867400  0.25000000  0.22352400  1
  O  O4  1  0.11024500  0.75000000  0.59624400  1
  O  O5  1  0.13902300  0.54340100  0.22092600  1
  O  O6  1  0.13902300  0.95659900  0.22092600  1
  O  O7  1  0.18402900  0.25000000  0.83583400  1
  O  O8  1  0.17422700  0.10030300  0.01058200  1
  O  O9  1  0.17422700  0.39969700  0.01058200  1
  O  O10  1  0.19863000  0.75000000  0.08643700  1
  O  O11  1  0.24529500  0.25000000  0.44919800  1
  O  O12  1  0.25470500  0.75000000  0.94919800  1
  O  O13  1  0.30137000  0.25000000  0.58643700  1
  O  O14  1  0.32577300  0.60030300  0.51058200  1
  O  O15  1  0.32577300  0.89969700  0.51058200  1
  O  O16  1  0.31597100  0.75000000  0.33583400  1
  O  O17  1  0.36097700  0.45659900  0.72092600  1
  O  O18  1  0.36097700  0.04340100  0.72092600  1
  O  O19  1  0.38975500  0.25000000  0.09624400  1
  O  O20  1  0.42132600  0.75000000  0.72352400  1
  O  O21  1  0.34541000  0.59874700  0.83803300  1
  O  O22  1  0.34541000  0.90125300  0.83803300  1
  O  O23  1  0.46803700  0.25000000  0.95880500  1
  O  O24  1  0.53196300  0.75000000  0.04119500  1
  O  O25  1  0.65459000  0.09874700  0.16196700  1
  O  O26  1  0.65459000  0.40125300  0.16196700  1
  O  O27  1  0.57867400  0.25000000  0.27647600  1
  O  O28  1  0.61024500  0.75000000  0.90375600  1
  O  O29  1  0.63902300  0.54340100  0.27907400  1
  O  O30  1  0.63902300  0.95659900  0.27907400  1
  O  O31  1  0.68402900  0.25000000  0.66416600  1
  O  O32  1  0.67422700  0.10030300  0.48941800  1
  O  O33  1  0.67422700  0.39969700  0.48941800  1
  O  O34  1  0.69863000  0.75000000  0.41356300  1
  O  O35  1  0.74529500  0.25000000  0.05080200  1
  O  O36  1  0.75470500  0.75000000  0.55080200  1
  O  O37  1  0.80137000  0.25000000  0.91356300  1
  O  O38  1  0.82577300  0.89969700  0.98941800  1
  O  O39  1  0.82577300  0.60030300  0.98941800  1
  O  O40  1  0.81597100  0.75000000  0.16416600  1
  O  O41  1  0.86097700  0.04340100  0.77907400  1
  O  O42  1  0.86097700  0.45659900  0.77907400  1
  O  O43  1  0.88975500  0.25000000  0.40375600  1
  O  O44  1  0.92132600  0.75000000  0.77647600  1
  O  O45  1  0.84541000  0.90125300  0.66196700  1
  O  O46  1  0.84541000  0.59874700  0.66196700  1
  O  O47  1  0.96803700  0.25000000  0.54119500  1
loop_
_geom_bond_atom_site_label_1
_geom_bond_atom_site_label_2
_geom_bond_distance
_geom_bond_site_symmetry_2
B0 O43 1.372224 1_455
B0 O11 1.486848 1_555
B0 O2 1.537883 1_555
B0 O1 1.537883 1_555
B1 O6 1.348660 1_545
B1 O1 1.383542 1_555
B1 O3 1.410064 1_555
B2 O5 1.348660 1_555
B2 O2 1.383542 1_555
B2 O3 1.410064 1_555
B3 O47 1.362818 1_455
B3 O13 1.378149 1_555
B3 O11 1.413673 1_555
B4 O15 1.459733 1_555
B4 O14 1.459733 1_555
B4 O4 1.463424 1_555
B4 O0 1.565173 1_555
B5 O9 1.459733 1_555
B5 O8 1.459733 1_555
B5 O19 1.463424 1_555
B5 O23 1.565173 1_554
B6 O24 1.362818 1_555
B6 O10 1.378149 1_555
B6 O12 1.413673 1_554
B7 O17 1.348660 1_555
B7 O21 1.383542 1_555
B7 O20 1.410064 1_555
B8 O18 1.348660 1_565
B8 O22 1.383542 1_555
B8 O20 1.410064 1_555
B9 O28 1.372224 1_555
B9 O12 1.486848 1_555
B9 O22 1.537883 1_555
B9 O21 1.537883 1_555
B10 O19 1.372224 1_555
B10 O35 1.486848 1_555
B10 O26 1.537883 1_555
B10 O25 1.537883 1_555
B11 O30 1.348660 1_545
B11 O25 1.383542 1_555
B11 O27 1.410064 1_555
B12 O29 1.348660 1_555
B12 O26 1.383542 1_555
B12 O27 1.410064 1_555
B13 O23 1.362818 1_555
B13 O37 1.378149 1_555
B13 O35 1.413673 1_556
B14 O38 1.459733 1_555
B14 O39 1.459733 1_555
B14 O28 1.463424 1_555
B14 O24 1.565173 1_556
B15 O33 1.459733 1_555
B15 O32 1.459733 1_555
B15 O43 1.463424 1_555
B15 O47 1.565173 1_555
B16 O0 1.362818 1_655
B16 O34 1.378149 1_555
B16 O36 1.413673 1_555
B17 O41 1.348660 1_565
B17 O45 1.383542 1_555
B17 O44 1.410064 1_555
B18 O42 1.348660 1_555
B18 O46 1.383542 1_555
B18 O44 1.410064 1_555
B19 O4 1.372224 1_655
B19 O36 1.486848 1_555
B19 O45 1.537883 1_555
B19 O46 1.537883 1_555
O0 Sm2 2.659521 1_455
O1 Sm5 2.475965 1_545
O1 Sm2 3.061209 1_445
O2 Sm4 2.475965 1_555
O2 Sm2 3.061209 1_455
O5 Sm10 2.441261 1_455
O5 Sm2 2.472778 1_455
O5 Sm8 2.883817 1_555
O6 Sm11 2.441261 1_455
O6 Sm2 2.472778 1_455
O6 Sm8 2.883817 1_555
O7 Sm3 2.186542 1_555
O7 Sm0 2.366898 1_555
O7 Sm1 2.366898 1_555
O7 Sm9 2.783097 1_555
O8 Sm0 2.223570 1_554
O8 Sm11 2.318916 1_445
O9 Sm1 2.223570 1_554
O9 Sm10 2.318916 1_455
O10 Sm11 2.431331 1_455
O10 Sm10 2.431331 1_455
O10 Sm8 2.654047 1_555
O11 Sm5 2.739466 1_545
O11 Sm4 2.739466 1_555
O12 Sm0 2.739466 1_565
O12 Sm1 2.739466 1_555
O13 Sm7 2.431331 1_555
O13 Sm6 2.431331 1_555
O13 Sm9 2.654047 1_555
O14 Sm4 2.223570 1_555
O14 Sm7 2.318916 1_555
O15 Sm5 2.223570 1_555
O15 Sm6 2.318916 1_565
O16 Sm2 2.186542 1_455
O16 Sm5 2.366898 1_555
O16 Sm4 2.366898 1_555
O16 Sm8 2.783097 1_555
O17 Sm7 2.441261 1_555
O17 Sm3 2.472778 1_555
O17 Sm9 2.883817 1_555
O18 Sm6 2.441261 1_555
O18 Sm3 2.472778 1_555
O18 Sm9 2.883817 1_555
O21 Sm1 2.475965 1_555
O21 Sm3 3.061209 1_555
O22 Sm0 2.475965 1_565
O22 Sm3 3.061209 1_565
O23 Sm3 2.659521 1_555
O24 Sm8 2.659521 1_555
O25 Sm11 2.475965 1_545
O25 Sm8 3.061209 1_545
O26 Sm10 2.475965 1_555
O26 Sm8 3.061209 1_555
O29 Sm4 2.441261 1_555
O29 Sm8 2.472778 1_555
O29 Sm2 2.883817 1_555
O30 Sm5 2.441261 1_555
O30 Sm8 2.472778 1_555
O30 Sm2 2.883817 1_555
O31 Sm9 2.186542 1_655
O31 Sm7 2.366898 1_555
O31 Sm6 2.366898 1_555
O31 Sm3 2.783097 1_555
O32 Sm6 2.223570 1_555
O32 Sm5 2.318916 1_545
O33 Sm7 2.223570 1_555
O33 Sm4 2.318916 1_555
O34 Sm4 2.431331 1_555
O34 Sm5 2.431331 1_555
O34 Sm2 2.654047 1_555
O35 Sm11 2.739466 1_545
O35 Sm10 2.739466 1_555
O36 Sm6 2.739466 1_565
O36 Sm7 2.739466 1_555
O37 Sm0 2.431331 1_655
O37 Sm1 2.431331 1_655
O37 Sm3 2.654047 1_555
O38 Sm11 2.223570 1_556
O38 Sm0 2.318916 1_665
O39 Sm10 2.223570 1_556
O39 Sm1 2.318916 1_655
O40 Sm8 2.186542 1_555
O40 Sm10 2.366898 1_555
O40 Sm11 2.366898 1_555
O40 Sm2 2.783097 1_555
O41 Sm0 2.441261 1_655
O41 Sm9 2.472778 1_655
O41 Sm3 2.883817 1_555
O42 Sm1 2.441261 1_655
O42 Sm9 2.472778 1_655
O42 Sm3 2.883817 1_555
O45 Sm6 2.475965 1_565
O45 Sm9 3.061209 1_665
O46 Sm7 2.475965 1_555
O46 Sm9 3.061209 1_655
O47 Sm9 2.659521 1_655
