# generated using pymatgen
data_Li2Co3SnO8
_symmetry_space_group_name_H-M   'P 1'
_cell_length_a   5.79326195
_cell_length_b   5.79326195
_cell_length_c   9.51964000
_cell_angle_alpha   90.00000000
_cell_angle_beta   90.00000000
_cell_angle_gamma   119.99999938
_symmetry_Int_Tables_number   1
_chemical_formula_structural   Li2Co3SnO8
_chemical_formula_sum   'Li4 Co6 Sn2 O16'
_cell_volume   276.69256617
_cell_formula_units_Z   2
loop_
 _symmetry_equiv_pos_site_id
 _symmetry_equiv_pos_as_xyz
  1  'x, y, z'
loop_
 _atom_site_type_symbol
 _atom_site_label
 _atom_site_symmetry_multiplicity
 _atom_site_fract_x
 _atom_site_fract_y
 _atom_site_fract_z
 _atom_site_occupancy
  Li  Li0  1  0.33333300  0.66666700  0.88968600  1
  Li  Li1  1  0.00000000  0.00000000  0.99676600  1
  Li  Li2  1  0.00000000  0.00000000  0.49676600  1
  Li  Li3  1  0.66666700  0.33333300  0.38968600  1
  Co  Co0  1  0.16981000  0.33962000  0.21492900  1
  Co  Co1  1  0.66038000  0.83019000  0.21492900  1
  Co  Co2  1  0.16981000  0.83019000  0.21492900  1
  Co  Co3  1  0.83019000  0.16981000  0.71492900  1
  Co  Co4  1  0.33962000  0.16981000  0.71492900  1
  Co  Co5  1  0.83019000  0.66038000  0.71492900  1
  Sn  Sn0  1  0.33333300  0.66666700  0.49323700  1
  Sn  Sn1  1  0.66666700  0.33333300  0.99323700  1
  O  O0  1  0.15758200  0.31516300  0.60597600  1
  O  O1  1  0.48394100  0.51605900  0.33011000  1
  O  O2  1  0.33333300  0.66666700  0.11330500  1
  O  O3  1  0.00000000  0.00000000  0.30715800  1
  O  O4  1  0.00000000  0.00000000  0.80715800  1
  O  O5  1  0.68483700  0.84241800  0.60597600  1
  O  O6  1  0.03211900  0.51605900  0.33011000  1
  O  O7  1  0.48394100  0.96788100  0.33011000  1
  O  O8  1  0.84241800  0.15758200  0.10597600  1
  O  O9  1  0.15758200  0.84241800  0.60597600  1
  O  O10  1  0.51605900  0.03211900  0.83011000  1
  O  O11  1  0.96788100  0.48394100  0.83011000  1
  O  O12  1  0.66666700  0.33333300  0.61330500  1
  O  O13  1  0.31516300  0.15758200  0.10597600  1
  O  O14  1  0.51605900  0.48394100  0.83011000  1
  O  O15  1  0.84241800  0.68483700  0.10597600  1
loop_
_geom_bond_atom_site_label_1
_geom_bond_atom_site_label_2
_geom_bond_distance
_geom_bond_site_symmetry_2
Li0 O14 1.919224 1_555
Li0 O10 1.919224 1_565
Li0 O11 1.919224 1_455
Li0 O2 2.128772 1_556
Li1 O4 1.805000 1_555
Li1 O13 1.892372 1_556
Li1 O15 1.892372 1_446
Li1 O8 1.892376 1_456
Li2 O3 1.805000 1_555
Li2 O0 1.892372 1_555
Li2 O5 1.892372 1_445
Li2 O9 1.892376 1_545
Li3 O1 1.919224 1_555
Li3 O6 1.919224 1_655
Li3 O7 1.919224 1_545
Li3 O12 2.128772 1_555
Co0 O2 1.904793 1_555
Co0 O3 1.916814 1_555
Co0 O6 1.923207 1_555
Co0 O1 1.923211 1_555
Co0 O13 1.945522 1_555
Co0 O8 1.945526 1_455
Co1 O2 1.904793 1_555
Co1 O3 1.916814 1_665
Co1 O7 1.923207 1_555
Co1 O1 1.923211 1_555
Co1 O15 1.945522 1_555
Co1 O8 1.945526 1_565
Co2 O2 1.904789 1_555
Co2 O3 1.916814 1_565
Co2 O7 1.923211 1_555
Co2 O6 1.923211 1_555
Co2 O15 1.945527 1_455
Co2 O13 1.945527 1_565
Co3 O12 1.904789 1_555
Co3 O4 1.916814 1_655
Co3 O11 1.923211 1_555
Co3 O10 1.923211 1_555
Co3 O5 1.945527 1_545
Co3 O0 1.945527 1_655
Co4 O12 1.904793 1_555
Co4 O4 1.916814 1_555
Co4 O10 1.923207 1_555
Co4 O14 1.923211 1_555
Co4 O0 1.945522 1_555
Co4 O9 1.945526 1_545
Co5 O12 1.904793 1_555
Co5 O4 1.916814 1_665
Co5 O11 1.923207 1_555
Co5 O14 1.923211 1_555
Co5 O5 1.945522 1_555
Co5 O9 1.945526 1_655
O0 Sn0 2.064434 1_555
O1 Sn0 2.166878 1_555
O5 Sn0 2.064434 1_555
O6 Sn0 2.166871 1_555
O7 Sn0 2.166871 1_555
O8 Sn1 2.064426 1_554
O9 Sn0 2.064426 1_555
O10 Sn1 2.166871 1_555
O11 Sn1 2.166871 1_555
O13 Sn1 2.064434 1_554
O14 Sn1 2.166878 1_555
O15 Sn1 2.064434 1_554
