# generated using pymatgen
data_Rb5(PO4)4
_symmetry_space_group_name_H-M   'P 1'
_cell_length_a   6.13057800
_cell_length_b   10.78314400
_cell_length_c   29.57579300
_cell_angle_alpha   90.00000000
_cell_angle_beta   90.00000000
_cell_angle_gamma   90.00000000
_symmetry_Int_Tables_number   1
_chemical_formula_structural   Rb5(PO4)4
_chemical_formula_sum   'Rb20 P16 O64'
_cell_volume   1955.16414931
_cell_formula_units_Z   4
loop_
 _symmetry_equiv_pos_site_id
 _symmetry_equiv_pos_as_xyz
  1  'x, y, z'
loop_
 _atom_site_type_symbol
 _atom_site_label
 _atom_site_symmetry_multiplicity
 _atom_site_fract_x
 _atom_site_fract_y
 _atom_site_fract_z
 _atom_site_occupancy
  Rb  Rb0  1  0.75000000  0.32572000  0.88098600  1
  Rb  Rb1  1  0.75000000  0.17428000  0.38098600  1
  Rb  Rb2  1  0.25000000  0.67428000  0.11901400  1
  Rb  Rb3  1  0.25000000  0.82572000  0.61901400  1
  Rb  Rb4  1  0.25000000  0.08677300  0.92082600  1
  Rb  Rb5  1  0.25000000  0.41322700  0.42082600  1
  Rb  Rb6  1  0.75000000  0.91322700  0.07917400  1
  Rb  Rb7  1  0.75000000  0.58677300  0.57917400  1
  Rb  Rb8  1  0.25000000  0.20662600  0.55771500  1
  Rb  Rb9  1  0.25000000  0.29337400  0.05771500  1
  Rb  Rb10  1  0.75000000  0.79337400  0.44228500  1
  Rb  Rb11  1  0.75000000  0.70662600  0.94228500  1
  Rb  Rb12  1  0.25000000  0.34756700  0.77943400  1
  Rb  Rb13  1  0.25000000  0.15243300  0.27943400  1
  Rb  Rb14  1  0.75000000  0.65243300  0.22056600  1
  Rb  Rb15  1  0.75000000  0.84756700  0.72056600  1
  Rb  Rb16  1  0.75000000  0.26748700  0.68980300  1
  Rb  Rb17  1  0.75000000  0.23251300  0.18980300  1
  Rb  Rb18  1  0.25000000  0.73251300  0.31019700  1
  Rb  Rb19  1  0.25000000  0.76748700  0.81019700  1
  P  P0  1  0.25000000  0.04678200  0.72073000  1
  P  P1  1  0.25000000  0.45321800  0.22073000  1
  P  P2  1  0.75000000  0.95321800  0.27927000  1
  P  P3  1  0.75000000  0.54678200  0.77927000  1
  P  P4  1  0.75000000  0.31844900  0.49704200  1
  P  P5  1  0.75000000  0.18155100  0.99704200  1
  P  P6  1  0.25000000  0.68155100  0.50295800  1
  P  P7  1  0.25000000  0.81844900  0.00295800  1
  P  P8  1  0.75000000  0.99191900  0.84542700  1
  P  P9  1  0.75000000  0.50808100  0.34542700  1
  P  P10  1  0.25000000  0.00808100  0.15457300  1
  P  P11  1  0.25000000  0.49191900  0.65457300  1
  P  P12  1  0.25000000  0.48624400  0.91363200  1
  P  P13  1  0.25000000  0.01375600  0.41363200  1
  P  P14  1  0.75000000  0.51375600  0.08636800  1
  P  P15  1  0.75000000  0.98624400  0.58636800  1
  O  O0  1  0.75000000  0.40414700  0.77627800  1
  O  O1  1  0.75000000  0.09585300  0.27627800  1
  O  O2  1  0.25000000  0.59585300  0.22372200  1
  O  O3  1  0.25000000  0.90414700  0.72372200  1
  O  O4  1  0.25000000  0.08549100  0.67011000  1
  O  O5  1  0.25000000  0.41450900  0.17011000  1
  O  O6  1  0.75000000  0.91450900  0.32989000  1
  O  O7  1  0.75000000  0.58549100  0.82989000  1
  O  O8  1  0.04019900  0.10301700  0.74143500  1
  O  O9  1  0.45980100  0.39698300  0.24143500  1
  O  O10  1  0.54019900  0.89698300  0.25856500  1
  O  O11  1  0.95980100  0.60301700  0.75856500  1
  O  O12  1  0.95980100  0.89698300  0.25856500  1
  O  O13  1  0.54019900  0.60301700  0.75856500  1
  O  O14  1  0.45980100  0.10301700  0.74143500  1
  O  O15  1  0.04019900  0.39698300  0.24143500  1
  O  O16  1  0.95668500  0.23764800  0.97586300  1
  O  O17  1  0.54331500  0.26235200  0.47586300  1
  O  O18  1  0.45668500  0.76235200  0.02413700  1
  O  O19  1  0.04331500  0.73764800  0.52413700  1
  O  O20  1  0.04331500  0.76235200  0.02413700  1
  O  O21  1  0.45668500  0.73764800  0.52413700  1
  O  O22  1  0.54331500  0.23764800  0.97586300  1
  O  O23  1  0.95668500  0.26235200  0.47586300  1
  O  O24  1  0.75000000  0.46078000  0.48822400  1
  O  O25  1  0.75000000  0.03922000  0.98822400  1
  O  O26  1  0.25000000  0.53922000  0.51177600  1
  O  O27  1  0.25000000  0.96078000  0.01177600  1
  O  O28  1  0.75000000  0.31490700  0.54961700  1
  O  O29  1  0.75000000  0.18509300  0.04961700  1
  O  O30  1  0.25000000  0.68509300  0.45038300  1
  O  O31  1  0.25000000  0.81490700  0.95038300  1
  O  O32  1  0.53989900  0.06956700  0.83815500  1
  O  O33  1  0.96010100  0.43043300  0.33815500  1
  O  O34  1  0.03989900  0.93043300  0.16184500  1
  O  O35  1  0.46010100  0.56956700  0.66184500  1
  O  O36  1  0.46010100  0.93043300  0.16184500  1
  O  O37  1  0.03989900  0.56956700  0.66184500  1
  O  O38  1  0.96010100  0.06956700  0.83815500  1
  O  O39  1  0.53989900  0.43043300  0.33815500  1
  O  O40  1  0.25000000  0.37283000  0.68283300  1
  O  O41  1  0.25000000  0.12717000  0.18283300  1
  O  O42  1  0.75000000  0.62717000  0.31716700  1
  O  O43  1  0.75000000  0.87283000  0.81716700  1
  O  O44  1  0.25000000  0.46049400  0.60323700  1
  O  O45  1  0.25000000  0.03950600  0.10323700  1
  O  O46  1  0.75000000  0.53950600  0.39676300  1
  O  O47  1  0.75000000  0.96049400  0.89676300  1
  O  O48  1  0.96170700  0.98551500  0.55795200  1
  O  O49  1  0.53829300  0.51448500  0.05795200  1
  O  O50  1  0.46170700  0.01448500  0.44204800  1
  O  O51  1  0.03829300  0.48551500  0.94204800  1
  O  O52  1  0.03829300  0.01448500  0.44204800  1
  O  O53  1  0.46170700  0.48551500  0.94204800  1
  O  O54  1  0.53829300  0.98551500  0.55795200  1
  O  O55  1  0.96170700  0.51448500  0.05795200  1
  O  O56  1  0.75000000  0.11366000  0.61108000  1
  O  O57  1  0.75000000  0.38634000  0.11108000  1
  O  O58  1  0.25000000  0.88634000  0.38892000  1
  O  O59  1  0.25000000  0.61366000  0.88892000  1
  O  O60  1  0.25000000  0.37806200  0.87946600  1
  O  O61  1  0.25000000  0.12193800  0.37946600  1
  O  O62  1  0.75000000  0.62193800  0.12053400  1
  O  O63  1  0.75000000  0.87806200  0.62053400  1
loop_
_geom_bond_atom_site_label_1
_geom_bond_atom_site_label_2
_geom_bond_distance
_geom_bond_site_symmetry_2
O0 P3 1.540597 1_555
O0 Rb16 2.951731 1_555
O0 Rb12 3.126810 1_555
O0 Rb12 3.126810 1_655
O0 Rb0 3.210218 1_555
O1 P2 1.540597 1_545
O1 Rb17 2.951731 1_555
O1 Rb13 3.126810 1_555
O1 Rb13 3.126810 1_655
O1 Rb1 3.210218 1_555
O2 P1 1.540597 1_555
O2 Rb18 2.951731 1_555
O2 Rb14 3.126810 1_555
O2 Rb14 3.126810 1_455
O2 Rb2 3.210218 1_555
O3 P0 1.540597 1_565
O3 Rb19 2.951731 1_555
O3 Rb15 3.126810 1_555
O3 Rb15 3.126810 1_455
O3 Rb3 3.210218 1_555
O4 P0 1.554225 1_555
O4 Rb3 3.182793 1_545
O5 P1 1.554225 1_555
O5 Rb2 3.182793 1_555
O6 P2 1.554225 1_555
O6 Rb1 3.182793 1_565
O7 P3 1.554225 1_555
O7 Rb0 3.182793 1_555
O8 P0 1.548230 1_555
O8 Rb16 2.939791 1_455
O8 Rb12 3.141849 1_555
O8 Rb15 3.336717 1_445
O9 P1 1.548230 1_555
O9 Rb17 2.939791 1_555
O9 Rb13 3.141849 1_555
O9 Rb14 3.336717 1_555
O10 P2 1.548230 1_555
O10 Rb18 2.939791 1_555
O10 Rb14 3.141849 1_555
O10 Rb13 3.336717 1_565
O11 P3 1.548230 1_555
O11 Rb19 2.939791 1_655
O11 Rb15 3.141849 1_555
O11 Rb12 3.336717 1_655
O12 P2 1.548230 1_555
O12 Rb18 2.939791 1_655
O12 Rb14 3.141849 1_555
O12 Rb13 3.336717 1_665
O13 P3 1.548230 1_555
O13 Rb19 2.939791 1_555
O13 Rb15 3.141849 1_555
O13 Rb12 3.336717 1_555
O14 P0 1.548230 1_555
O14 Rb16 2.939791 1_555
O14 Rb12 3.141849 1_555
O14 Rb15 3.336717 1_545
O15 P1 1.548230 1_555
O15 Rb17 2.939791 1_455
O15 Rb13 3.141849 1_555
O15 Rb14 3.336717 1_455
O16 P5 1.537467 1_555
O16 Rb4 2.920604 1_655
O16 Rb9 3.074903 1_656
O16 Rb0 3.222025 1_555
O17 P4 1.537467 1_555
O17 Rb5 2.920604 1_555
O17 Rb8 3.074903 1_555
O17 Rb1 3.222025 1_555
O18 P7 1.537467 1_555
O18 Rb6 2.920604 1_555
O18 Rb11 3.074903 1_554
O18 Rb2 3.222025 1_555
O19 P6 1.537467 1_555
O19 Rb7 2.920604 1_455
O19 Rb10 3.074903 1_455
O19 Rb3 3.222025 1_555
O20 P7 1.537467 1_555
O20 Rb6 2.920604 1_455
O20 Rb11 3.074903 1_454
O20 Rb2 3.222025 1_555
O21 P6 1.537467 1_555
O21 Rb7 2.920604 1_555
O21 Rb10 3.074903 1_555
O21 Rb3 3.222025 1_555
O22 P5 1.537467 1_555
O22 Rb4 2.920604 1_555
O22 Rb9 3.074903 1_556
O22 Rb0 3.222025 1_555
O23 P4 1.537467 1_555
O23 Rb5 2.920604 1_655
O23 Rb8 3.074903 1_655
O23 Rb1 3.222025 1_555
O24 P4 1.556776 1_555
O24 Rb7 3.013546 1_555
O25 P5 1.556776 1_555
O25 Rb6 3.013546 1_546
O26 P6 1.556776 1_555
O26 Rb5 3.013546 1_555
O27 P7 1.556776 1_555
O27 Rb4 3.013546 1_564
O28 P4 1.555416 1_555
O28 Rb7 3.059131 1_555
O28 Rb8 3.288871 1_655
O28 Rb8 3.288871 1_555
O29 P5 1.555416 1_554
O29 Rb6 3.059131 1_545
O29 Rb9 3.288871 1_655
O29 Rb9 3.288871 1_555
O30 P6 1.555416 1_555
O30 Rb5 3.059131 1_555
O30 Rb10 3.288871 1_555
O30 Rb10 3.288871 1_455
O31 P7 1.555416 1_556
O31 Rb4 3.059131 1_565
O31 Rb11 3.288871 1_555
O31 Rb11 3.288871 1_455
O32 P8 1.551245 1_545
O32 Rb4 3.028425 1_555
O32 Rb0 3.300473 1_555
O33 P9 1.551245 1_555
O33 Rb5 3.028425 1_655
O33 Rb1 3.300473 1_555
O34 P10 1.551245 1_565
O34 Rb6 3.028425 1_455
O34 Rb2 3.300473 1_555
O35 P11 1.551245 1_555
O35 Rb7 3.028425 1_555
O35 Rb3 3.300473 1_555
O36 P10 1.551245 1_565
O36 Rb6 3.028425 1_555
O36 Rb2 3.300473 1_555
O37 P11 1.551245 1_555
O37 Rb7 3.028425 1_455
O37 Rb3 3.300473 1_555
O38 P8 1.551245 1_545
O38 Rb4 3.028425 1_655
O38 Rb0 3.300473 1_555
O39 P9 1.551245 1_555
O39 Rb5 3.028425 1_555
O39 Rb1 3.300473 1_555
O40 P11 1.532199 1_555
O40 Rb12 2.870009 1_555
O40 Rb16 3.275489 1_455
O40 Rb16 3.275489 1_555
O41 P10 1.532199 1_555
O41 Rb13 2.870009 1_555
O41 Rb17 3.275489 1_455
O41 Rb17 3.275489 1_555
O42 P9 1.532199 1_555
O42 Rb14 2.870009 1_555
O42 Rb18 3.275489 1_655
O42 Rb18 3.275489 1_555
O43 P8 1.532199 1_555
O43 Rb15 2.870009 1_555
O43 Rb19 3.275489 1_655
O43 Rb19 3.275489 1_555
O44 P11 1.555657 1_555
O44 Rb8 3.050662 1_555
O44 Rb7 3.428801 1_555
O44 Rb7 3.428801 1_455
O45 P10 1.555657 1_555
O45 Rb9 3.050662 1_555
O45 Rb6 3.428801 1_545
O45 Rb6 3.428801 1_445
O46 P9 1.555657 1_555
O46 Rb10 3.050662 1_555
O46 Rb5 3.428801 1_655
O46 Rb5 3.428801 1_555
O47 P8 1.555657 1_555
O47 Rb11 3.050662 1_555
O47 Rb4 3.428801 1_565
O47 Rb4 3.428801 1_665
O48 P15 1.546249 1_555
O48 Rb8 2.967914 1_665
O48 Rb3 3.058470 1_655
O49 P14 1.546249 1_555
O49 Rb9 2.967914 1_555
O49 Rb2 3.058470 1_555
O50 P13 1.546249 1_555
O50 Rb10 2.967914 1_545
O50 Rb1 3.058470 1_555
O51 P12 1.546249 1_555
O51 Rb11 2.967914 1_455
O51 Rb0 3.058470 1_455
O52 P13 1.546249 1_555
O52 Rb10 2.967914 1_445
O52 Rb1 3.058470 1_455
O53 P12 1.546249 1_555
O53 Rb11 2.967914 1_555
O53 Rb0 3.058470 1_555
O54 P15 1.546249 1_555
O54 Rb8 2.967914 1_565
O54 Rb3 3.058470 1_555
O55 P14 1.546249 1_555
O55 Rb9 2.967914 1_655
O55 Rb2 3.058470 1_655
O56 P15 1.556247 1_545
O56 Rb16 2.858736 1_555
O57 P14 1.556247 1_555
O57 Rb17 2.858736 1_555
O58 P13 1.556247 1_565
O58 Rb18 2.858736 1_555
O59 P12 1.556247 1_555
O59 Rb19 2.858736 1_555
O60 P12 1.543342 1_555
O60 Rb12 2.976744 1_555
O60 Rb0 3.117143 1_455
O60 Rb0 3.117143 1_555
O60 Rb4 3.370802 1_555
O61 P13 1.543342 1_555
O61 Rb13 2.976744 1_555
O61 Rb1 3.117143 1_455
O61 Rb1 3.117143 1_555
O61 Rb5 3.370802 1_555
O62 P14 1.543342 1_555
O62 Rb14 2.976744 1_555
O62 Rb2 3.117143 1_555
O62 Rb2 3.117143 1_655
O62 Rb6 3.370802 1_555
O63 P15 1.543342 1_555
O63 Rb15 2.976744 1_555
O63 Rb3 3.117143 1_655
O63 Rb3 3.117143 1_555
O63 Rb7 3.370802 1_555
