# generated using pymatgen
data_Li4Ti5O12
_symmetry_space_group_name_H-M   'P 1'
_cell_length_a   5.28815800
_cell_length_b   9.53193925
_cell_length_c   9.93178568
_cell_angle_alpha   73.12225475
_cell_angle_beta   78.04218583
_cell_angle_gamma   78.91340042
_symmetry_Int_Tables_number   1
_chemical_formula_structural   Li4Ti5O12
_chemical_formula_sum   'Li8 Ti10 O24'
_cell_volume   463.97426372
_cell_formula_units_Z   2
loop_
 _symmetry_equiv_pos_site_id
 _symmetry_equiv_pos_as_xyz
  1  'x, y, z'
loop_
 _atom_site_type_symbol
 _atom_site_label
 _atom_site_symmetry_multiplicity
 _atom_site_fract_x
 _atom_site_fract_y
 _atom_site_fract_z
 _atom_site_occupancy
  Li  Li0  1  0.13212500  0.40806000  0.40437400  1
  Li  Li1  1  0.33845500  0.57680800  0.11093000  1
  Li  Li2  1  0.27327200  0.90707400  0.02262100  1
  Li  Li3  1  0.31033400  0.76998300  0.55579000  1
  Li  Li4  1  0.68966600  0.23001700  0.44421000  1
  Li  Li5  1  0.72672800  0.09292600  0.97737900  1
  Li  Li6  1  0.66154500  0.42319200  0.88907000  1
  Li  Li7  1  0.86787500  0.59194000  0.59562600  1
  Ti  Ti0  1  0.27312400  0.09941400  0.27540300  1
  Ti  Ti1  1  0.17682100  0.09918200  0.67499500  1
  Ti  Ti2  1  0.18825900  0.25902800  0.93212500  1
  Ti  Ti3  1  0.13704800  0.59423600  0.85061200  1
  Ti  Ti4  1  0.43305900  0.41233600  0.64600800  1
  Ti  Ti5  1  0.56694100  0.58766400  0.35399200  1
  Ti  Ti6  1  0.86295200  0.40576400  0.14938800  1
  Ti  Ti7  1  0.81174100  0.74097200  0.06787500  1
  Ti  Ti8  1  0.82317900  0.90081800  0.32500500  1
  Ti  Ti9  1  0.72687600  0.90058600  0.72459700  1
  O  O0  1  0.04668100  0.26304500  0.30311800  1
  O  O1  1  0.23592100  0.42277500  0.01086900  1
  O  O2  1  0.34340000  0.10240500  0.08799000  1
  O  O3  1  0.10417700  0.10174300  0.86154800  1
  O  O4  1  0.05858400  0.42570000  0.77854000  1
  O  O5  1  0.12016500  0.93042000  0.37774300  1
  O  O6  1  0.32245400  0.26183200  0.56756800  1
  O  O7  1  0.26246100  0.56697300  0.48593800  1
  O  O8  1  0.58465000  0.06892400  0.34279800  1
  O  O9  1  0.16111600  0.72734200  0.95191400  1
  O  O10  1  0.54276100  0.42526000  0.27094300  1
  O  O11  1  0.47401100  0.72883400  0.18613900  1
  O  O12  1  0.52598900  0.27116600  0.81386100  1
  O  O13  1  0.45723900  0.57474000  0.72905700  1
  O  O14  1  0.83888400  0.27265800  0.04808600  1
  O  O15  1  0.41535000  0.93107600  0.65720200  1
  O  O16  1  0.73753900  0.43302700  0.51406200  1
  O  O17  1  0.67754600  0.73816800  0.43243200  1
  O  O18  1  0.87983500  0.06958000  0.62225700  1
  O  O19  1  0.94141600  0.57430000  0.22146000  1
  O  O20  1  0.89582300  0.89825700  0.13845200  1
  O  O21  1  0.65660000  0.89759500  0.91201000  1
  O  O22  1  0.76407900  0.57722500  0.98913100  1
  O  O23  1  0.95331900  0.73695500  0.69688200  1
loop_
_geom_bond_atom_site_label_1
_geom_bond_atom_site_label_2
_geom_bond_distance
_geom_bond_site_symmetry_2
Li0 O0 2.088503 1_555
Li0 O6 2.099403 1_555
Li0 O16 2.148269 1_455
Li0 O7 2.184290 1_555
Li0 O19 2.302462 1_455
Li0 O10 2.305817 1_555
Li1 O9 2.052547 1_554
Li1 O11 2.102762 1_555
Li1 O10 2.134910 1_555
Li1 O19 2.159389 1_455
Li1 O1 2.194087 1_555
Li1 O22 2.324156 1_554
Li2 O20 2.090793 1_455
Li2 O21 2.094886 1_554
Li2 O3 2.243415 1_564
Li2 O9 2.245418 1_554
Li2 O11 2.251547 1_555
Li2 O2 2.256735 1_565
Li3 O17 2.089801 1_555
Li3 O23 2.122084 1_455
Li3 O5 2.247702 1_555
Li3 O15 2.266823 1_555
Li3 O13 2.273028 1_555
Li3 O7 2.308813 1_555
Li4 O6 2.089801 1_555
Li4 O0 2.122084 1_655
Li4 O18 2.247702 1_555
Li4 O8 2.266823 1_555
Li4 O10 2.273028 1_555
Li4 O16 2.308813 1_555
Li5 O3 2.090793 1_655
Li5 O2 2.094886 1_556
Li5 O20 2.243415 1_546
Li5 O14 2.245418 1_556
Li5 O12 2.251547 1_555
Li5 O21 2.256735 1_545
Li6 O14 2.052547 1_556
Li6 O12 2.102762 1_555
Li6 O13 2.134910 1_555
Li6 O4 2.159389 1_655
Li6 O22 2.194087 1_555
Li6 O1 2.324156 1_556
Li7 O23 2.088503 1_555
Li7 O17 2.099403 1_555
Li7 O7 2.148269 1_655
Li7 O16 2.184290 1_555
Li7 O4 2.302462 1_655
Li7 O13 2.305817 1_555
O0 Ti0 1.826701 1_555
O0 Ti6 2.006520 1_455
O1 Ti3 1.995881 1_554
O1 Ti2 2.013234 1_554
O1 Ti6 2.162886 1_455
O2 Ti0 1.813877 1_555
O2 Ti2 2.002879 1_554
O3 Ti1 1.819002 1_555
O3 Ti2 1.983046 1_555
O4 Ti2 1.981995 1_555
O4 Ti3 2.076643 1_555
O4 Ti4 2.142558 1_555
O5 Ti8 1.848670 1_455
O5 Ti0 1.868660 1_565
O6 Ti1 1.814747 1_555
O6 Ti4 2.041461 1_555
O7 Ti5 1.856460 1_555
O7 Ti4 2.058193 1_555
O8 Ti0 1.845607 1_555
O8 Ti8 1.866721 1_545
O9 Ti3 1.869382 1_555
O9 Ti7 1.967122 1_456
O10 Ti6 1.876486 1_555
O10 Ti5 1.988546 1_555
O11 Ti5 1.901040 1_555
O11 Ti7 1.927169 1_555
O12 Ti4 1.901040 1_555
O12 Ti2 1.927169 1_555
O13 Ti3 1.876486 1_555
O13 Ti4 1.988546 1_555
O14 Ti6 1.869382 1_555
O14 Ti2 1.967122 1_654
O15 Ti9 1.845607 1_555
O15 Ti1 1.866721 1_565
O16 Ti4 1.856460 1_555
O16 Ti5 2.058193 1_555
O17 Ti8 1.814747 1_555
O17 Ti5 2.041461 1_555
O18 Ti1 1.848670 1_655
O18 Ti9 1.868660 1_545
O19 Ti7 1.981995 1_555
O19 Ti6 2.076643 1_555
O19 Ti5 2.142558 1_555
O20 Ti8 1.819002 1_555
O20 Ti7 1.983046 1_555
O21 Ti9 1.813877 1_555
O21 Ti7 2.002879 1_556
O22 Ti6 1.995881 1_556
O22 Ti7 2.013234 1_556
O22 Ti3 2.162886 1_655
O23 Ti9 1.826701 1_555
O23 Ti3 2.006520 1_655
