# generated using pymatgen
data_Li2SiBSbO7
_symmetry_space_group_name_H-M   'P 1'
_cell_length_a   6.46768900
_cell_length_b   5.20318000
_cell_length_c   9.01038644
_cell_angle_alpha   86.60508550
_cell_angle_beta   90.00000000
_cell_angle_gamma   90.00000000
_symmetry_Int_Tables_number   1
_chemical_formula_structural   Li2SiBSbO7
_chemical_formula_sum   'Li4 Si2 B2 Sb2 O14'
_cell_volume   302.69035172
_cell_formula_units_Z   2
loop_
 _symmetry_equiv_pos_site_id
 _symmetry_equiv_pos_as_xyz
  1  'x, y, z'
loop_
 _atom_site_type_symbol
 _atom_site_label
 _atom_site_symmetry_multiplicity
 _atom_site_fract_x
 _atom_site_fract_y
 _atom_site_fract_z
 _atom_site_occupancy
  Li  Li0  1  0.48066700  0.76166700  0.82375000  1
  Li  Li1  1  0.01933300  0.76166700  0.82375000  1
  Li  Li2  1  0.51933300  0.23833300  0.17625000  1
  Li  Li3  1  0.98066700  0.23833300  0.17625000  1
  Si  Si0  1  0.75000000  0.27290300  0.56996000  1
  Si  Si1  1  0.25000000  0.72709700  0.43004000  1
  B  B0  1  0.25000000  0.26538000  0.94351300  1
  B  B1  1  0.75000000  0.73462000  0.05648700  1
  Sb  Sb0  1  0.25000000  0.21291200  0.66450800  1
  Sb  Sb1  1  0.75000000  0.78708800  0.33549200  1
  O  O0  1  0.75000000  0.70500100  0.91193000  1
  O  O1  1  0.25000000  0.02667600  0.87112400  1
  O  O2  1  0.25000000  0.47251900  0.82735200  1
  O  O3  1  0.94606700  0.18668400  0.67551900  1
  O  O4  1  0.55393300  0.18668400  0.67551900  1
  O  O5  1  0.25000000  0.85976500  0.59122600  1
  O  O6  1  0.75000000  0.58752400  0.52891200  1
  O  O7  1  0.25000000  0.41247600  0.47108800  1
  O  O8  1  0.75000000  0.14023500  0.40877400  1
  O  O9  1  0.44606700  0.81331600  0.32448100  1
  O  O10  1  0.05393300  0.81331600  0.32448100  1
  O  O11  1  0.75000000  0.52748100  0.17264800  1
  O  O12  1  0.75000000  0.97332400  0.12887600  1
  O  O13  1  0.25000000  0.29499900  0.08807000  1
loop_
_geom_bond_atom_site_label_1
_geom_bond_atom_site_label_2
_geom_bond_distance
_geom_bond_site_symmetry_2
Li0 O0 1.930002 1_555
Li0 O1 2.092598 1_565
Li0 O2 2.117657 1_555
Li0 O4 2.559116 1_565
Li1 O0 1.930002 1_455
Li1 O1 2.092598 1_565
Li1 O2 2.117657 1_555
Li1 O3 2.559116 1_465
Li2 O13 1.930002 1_555
Li2 O12 2.092598 1_545
Li2 O11 2.117657 1_555
Li2 O9 2.559116 1_545
Li3 O13 1.930002 1_655
Li3 O12 2.092598 1_545
Li3 O11 2.117657 1_555
Li3 O10 2.559116 1_645
B0 O13 1.320632 1_556
B0 O1 1.436660 1_555
B0 O2 1.457223 1_555
B1 O0 1.320632 1_554
B1 O12 1.436660 1_555
B1 O11 1.457223 1_555
O1 Sb0 2.047249 1_555
O2 Sb0 2.052384 1_555
O3 Si0 1.632005 1_555
O3 Sb0 1.972565 1_655
O4 Si0 1.632005 1_555
O4 Sb0 1.972565 1_555
O5 Si1 1.644555 1_555
O5 Sb0 1.988983 1_565
O6 Si0 1.656790 1_555
O6 Sb1 1.975144 1_555
O7 Si1 1.656790 1_555
O7 Sb0 1.975144 1_555
O8 Si0 1.644555 1_555
O8 Sb1 1.988983 1_545
O9 Si1 1.632005 1_555
O9 Sb1 1.972565 1_555
O10 Si1 1.632005 1_555
O10 Sb1 1.972565 1_455
O11 Sb1 2.052384 1_555
O12 Sb1 2.047249 1_555
