# generated using pymatgen
data_Li3Sb3P8O29
_symmetry_space_group_name_H-M   'P 1'
_cell_length_a   9.81431617
_cell_length_b   9.81431617
_cell_length_c   14.34933458
_cell_angle_alpha   89.75970408
_cell_angle_beta   89.75970408
_cell_angle_gamma   60.18746356
_symmetry_Int_Tables_number   1
_chemical_formula_structural   Li3Sb3P8O29
_chemical_formula_sum   'Li6 Sb6 P16 O58'
_cell_volume   1199.20842583
_cell_formula_units_Z   2
loop_
 _symmetry_equiv_pos_site_id
 _symmetry_equiv_pos_as_xyz
  1  'x, y, z'
loop_
 _atom_site_type_symbol
 _atom_site_label
 _atom_site_symmetry_multiplicity
 _atom_site_fract_x
 _atom_site_fract_y
 _atom_site_fract_z
 _atom_site_occupancy
  Li  Li0  1  0.05281600  0.96528800  0.49652400  1
  Li  Li1  1  0.96528800  0.05281600  0.99652400  1
  Li  Li2  1  0.32462300  0.90362700  0.05123300  1
  Li  Li3  1  0.90362700  0.32462300  0.55123300  1
  Li  Li4  1  0.77385900  0.89809600  0.55181100  1
  Li  Li5  1  0.89809600  0.77385900  0.05181100  1
  Sb  Sb0  1  0.43640500  0.56155700  0.74940300  1
  Sb  Sb1  1  0.56155700  0.43640500  0.24940300  1
  Sb  Sb2  1  0.43406100  0.00186000  0.25340200  1
  Sb  Sb3  1  0.56128400  0.00397200  0.74937000  1
  Sb  Sb4  1  0.00186000  0.43406100  0.75340200  1
  Sb  Sb5  1  0.00397200  0.56128400  0.24937000  1
  P  P0  1  0.30484000  0.77620300  0.34584400  1
  P  P1  1  0.30991100  0.91307100  0.84248000  1
  P  P2  1  0.77620300  0.30484000  0.84584400  1
  P  P3  1  0.66601200  0.66924500  0.12812400  1
  P  P4  1  0.66924500  0.66601200  0.62812400  1
  P  P5  1  0.91307100  0.30991100  0.34248000  1
  P  P6  1  0.08346600  0.21991600  0.15712800  1
  P  P7  1  0.77632400  0.91213600  0.34451300  1
  P  P8  1  0.21991600  0.08346600  0.65712800  1
  P  P9  1  0.91213600  0.77632400  0.84451300  1
  P  P10  1  0.08519400  0.69380000  0.66111200  1
  P  P11  1  0.33330800  0.33371100  0.87220000  1
  P  P12  1  0.33371100  0.33330800  0.37220000  1
  P  P13  1  0.22381800  0.69625600  0.15795700  1
  P  P14  1  0.69380000  0.08519400  0.16111200  1
  P  P15  1  0.69625600  0.22381800  0.65795700  1
  O  O0  1  0.20628200  0.78819500  0.25278600  1
  O  O1  1  0.21318100  0.79516200  0.07714900  1
  O  O2  1  0.33635100  0.74411700  0.83382300  1
  O  O3  1  0.20433400  0.01033000  0.75512700  1
  O  O4  1  0.19970900  0.00303900  0.57667400  1
  O  O5  1  0.33620100  0.91717300  0.33895100  1
  O  O6  1  0.46510100  0.61989000  0.33661800  1
  O  O7  1  0.51920100  0.67762800  0.67506100  1
  O  O8  1  0.61989000  0.46510100  0.83661800  1
  O  O9  1  0.79516200  0.21318100  0.57714900  1
  O  O10  1  0.78819500  0.20628200  0.75278600  1
  O  O11  1  0.74411700  0.33635100  0.33382300  1
  O  O12  1  0.51060800  0.81341500  0.16988100  1
  O  O13  1  0.47315900  0.90398200  0.83176200  1
  O  O14  1  0.67762800  0.51920100  0.17506100  1
  O  O15  1  0.66198000  0.67737400  0.02517100  1
  O  O16  1  0.67737400  0.66198000  0.52517100  1
  O  O17  1  0.81341500  0.51060800  0.66988100  1
  O  O18  1  0.62368200  0.90086700  0.33340800  1
  O  O19  1  0.68012100  0.81311400  0.66635900  1
  O  O20  1  0.91717300  0.33620100  0.83895100  1
  O  O21  1  0.01033000  0.20433400  0.25512700  1
  O  O22  1  0.00303900  0.19970900  0.07667400  1
  O  O23  1  0.98521700  0.22839900  0.43122600  1
  O  O24  1  0.90398200  0.47315900  0.33176200  1
  O  O25  1  0.81311400  0.68012100  0.16635900  1
  O  O26  1  0.07952200  0.25836500  0.66004800  1
  O  O27  1  0.90086700  0.62368200  0.83340800  1
  O  O28  1  0.74360400  0.91940500  0.83423500  1
  O  O29  1  0.22839900  0.98521700  0.93122600  1
  O  O30  1  0.79623900  0.99255100  0.08228600  1
  O  O31  1  0.78454000  0.01213200  0.25842400  1
  O  O32  1  0.25836500  0.07952200  0.16004800  1
  O  O33  1  0.08744000  0.37731800  0.16246100  1
  O  O34  1  0.91940500  0.74360400  0.33423500  1
  O  O35  1  0.19447400  0.31638800  0.82719400  1
  O  O36  1  0.08706500  0.53409200  0.66711000  1
  O  O37  1  0.99255100  0.79623900  0.58228600  1
  O  O38  1  0.98223100  0.78581100  0.93380900  1
  O  O39  1  0.01213200  0.78454000  0.75842400  1
  O  O40  1  0.08144900  0.66447900  0.15729200  1
  O  O41  1  0.31638800  0.19447400  0.32719400  1
  O  O42  1  0.37731800  0.08744000  0.66246100  1
  O  O43  1  0.19391200  0.48779800  0.32604600  1
  O  O44  1  0.33273800  0.33325500  0.97459100  1
  O  O45  1  0.33325500  0.33273800  0.47459100  1
  O  O46  1  0.31769900  0.48803400  0.82617500  1
  O  O47  1  0.53409200  0.08706500  0.16711000  1
  O  O48  1  0.48779800  0.19391200  0.82604600  1
  O  O49  1  0.25713500  0.66058700  0.66009200  1
  O  O50  1  0.20816800  0.79202400  0.42799900  1
  O  O51  1  0.37728500  0.53366700  0.16388500  1
  O  O52  1  0.48803400  0.31769900  0.32617500  1
  O  O53  1  0.53366700  0.37728500  0.66388500  1
  O  O54  1  0.66447900  0.08144900  0.65729200  1
  O  O55  1  0.78581100  0.98223100  0.43380900  1
  O  O56  1  0.66058700  0.25713500  0.16009200  1
  O  O57  1  0.79202400  0.20816800  0.92799900  1
loop_
_geom_bond_atom_site_label_1
_geom_bond_atom_site_label_2
_geom_bond_distance
_geom_bond_site_symmetry_2
Li0 O50 1.899098 1_555
Li0 O4 2.021621 1_565
Li0 O37 2.359953 1_455
Li0 O23 2.503517 1_465
Li1 O57 1.899098 1_555
Li1 O22 2.021621 1_656
Li1 O30 2.359953 1_546
Li1 O29 2.503517 1_645
Li2 O1 1.902277 1_555
Li2 O29 1.936118 1_554
Li2 O32 2.176895 1_565
Li2 O12 2.328249 1_555
Li3 O9 1.902277 1_555
Li3 O23 1.936118 1_555
Li3 O26 2.176895 1_655
Li3 O17 2.328249 1_555
Li4 O55 1.909345 1_555
Li4 O37 1.915202 1_555
Li4 O54 2.184010 1_565
Li4 O19 2.232139 1_555
Li5 O38 1.909345 1_554
Li5 O30 1.915202 1_555
Li5 O40 2.184010 1_655
Li5 O25 2.232139 1_555
O0 P13 1.596658 1_555
O0 P0 1.621382 1_555
O1 P13 1.479356 1_555
O2 P1 1.551099 1_555
O2 Sb0 1.975016 1_555
O3 P1 1.604164 1_545
O3 P8 1.617073 1_555
O4 P8 1.469822 1_555
O5 P0 1.562263 1_555
O5 Sb2 1.973686 1_565
O6 P0 1.563839 1_555
O6 Sb1 2.004764 1_555
O7 P4 1.568600 1_555
O7 Sb0 1.999725 1_555
O8 P2 1.563839 1_555
O8 Sb0 2.004764 1_555
O9 P15 1.479356 1_555
O10 P15 1.596658 1_555
O10 P2 1.621382 1_555
O11 P5 1.551099 1_555
O11 Sb1 1.975016 1_555
O12 P3 1.594018 1_555
O12 Sb2 2.012640 1_565
O13 P1 1.566682 1_555
O13 Sb3 1.983539 1_565
O14 P3 1.568600 1_555
O14 Sb1 1.999725 1_555
O15 P3 1.478759 1_555
O16 P4 1.478759 1_555
O17 P4 1.594018 1_555
O17 Sb4 2.012640 1_655
O18 P7 1.564849 1_555
O18 Sb2 1.984438 1_565
O19 P4 1.599080 1_555
O19 Sb3 2.030411 1_565
O20 P2 1.562263 1_555
O20 Sb4 1.973686 1_655
O21 P5 1.604164 1_455
O21 P6 1.617073 1_555
O22 P6 1.469822 1_555
O23 P5 1.482830 1_555
O24 P5 1.566682 1_555
O24 Sb5 1.983539 1_655
O25 P3 1.599080 1_555
O25 Sb5 2.030411 1_655
O26 P8 1.579590 1_555
O26 Sb4 2.013133 1_555
O27 P9 1.564849 1_555
O27 Sb4 1.984438 1_655
O28 P9 1.555725 1_555
O28 Sb3 1.976527 1_565
O29 P1 1.482830 1_555
O30 P14 1.485602 1_565
O31 P7 1.601040 1_545
O31 P14 1.619925 1_555
O32 P6 1.579590 1_555
O32 Sb2 2.013133 1_555
O33 P6 1.566744 1_555
O33 Sb5 2.006437 1_555
O34 P7 1.555725 1_555
O34 Sb5 1.976527 1_655
O35 P11 1.594109 1_555
O35 Sb4 1.965762 1_555
O36 P10 1.560394 1_555
O36 Sb4 1.998430 1_555
O37 P10 1.485602 1_655
O38 P9 1.481835 1_555
O39 P9 1.601040 1_455
O39 P10 1.619925 1_555
O40 P13 1.575785 1_555
O40 Sb5 2.023792 1_555
O41 P12 1.594109 1_555
O41 Sb2 1.965762 1_555
O42 P8 1.566744 1_555
O42 Sb3 2.006437 1_555
O43 P12 1.597089 1_555
O43 Sb5 1.969624 1_555
O44 P11 1.469226 1_555
O45 P12 1.469226 1_555
O46 P11 1.585977 1_555
O46 Sb0 1.977366 1_555
O47 P14 1.560394 1_555
O47 Sb2 1.998430 1_555
O48 P11 1.597089 1_555
O48 Sb3 1.969624 1_555
O49 P10 1.551439 1_555
O49 Sb0 1.997672 1_555
O50 P0 1.469584 1_555
O51 P13 1.559558 1_555
O51 Sb1 1.994985 1_555
O52 P12 1.585977 1_555
O52 Sb1 1.977366 1_555
O53 P15 1.559558 1_555
O53 Sb0 1.994985 1_555
O54 P15 1.575785 1_555
O54 Sb3 2.023792 1_555
O55 P7 1.481835 1_555
O56 P14 1.551439 1_555
O56 Sb1 1.997672 1_555
O57 P2 1.469584 1_555
