# generated using pymatgen
data_Li4Cr2Fe3Sb3O16
_symmetry_space_group_name_H-M   'P 1'
_cell_length_a   6.11979700
_cell_length_b   6.14625492
_cell_length_c   9.71154996
_cell_angle_alpha   91.35200666
_cell_angle_beta   90.45409721
_cell_angle_gamma   119.33916026
_symmetry_Int_Tables_number   1
_chemical_formula_structural   Li4Cr2Fe3Sb3O16
_chemical_formula_sum   'Li4 Cr2 Fe3 Sb3 O16'
_cell_volume   318.26647783
_cell_formula_units_Z   1
loop_
 _symmetry_equiv_pos_site_id
 _symmetry_equiv_pos_as_xyz
  1  'x, y, z'
loop_
 _atom_site_type_symbol
 _atom_site_label
 _atom_site_symmetry_multiplicity
 _atom_site_fract_x
 _atom_site_fract_y
 _atom_site_fract_z
 _atom_site_occupancy
  Li  Li0  1  0.34241700  0.67581700  0.11874000  1
  Li  Li1  1  0.01454900  0.02863800  0.01414400  1
  Li  Li2  1  0.01293500  0.02012400  0.49638200  1
  Li  Li3  1  0.67571800  0.35046100  0.59722400  1
  Cr  Cr0  1  0.32104300  0.65330500  0.50571700  1
  Cr  Cr1  1  0.65574100  0.30758600  0.02439500  1
  Fe  Fe0  1  0.16788800  0.33561700  0.78511800  1
  Fe  Fe1  1  0.33491400  0.16562900  0.28819800  1
  Fe  Fe2  1  0.82700000  0.16510000  0.28787000  1
  Sb  Sb0  1  0.16878600  0.83059500  0.78574800  1
  Sb  Sb1  1  0.66154200  0.82986800  0.78496000  1
  Sb  Sb2  1  0.82591600  0.65387300  0.28655100  1
  O  O0  1  0.14999000  0.81859600  0.40228800  1
  O  O1  1  0.48001700  0.96722500  0.66192000  1
  O  O2  1  0.34480700  0.68537500  0.89941900  1
  O  O3  1  0.98899800  0.98149500  0.68183500  1
  O  O4  1  0.97898700  0.97861500  0.19356400  1
  O  O5  1  0.66510500  0.82637200  0.40075100  1
  O  O6  1  0.04116300  0.53428000  0.65902000  1
  O  O7  1  0.49371600  0.53446500  0.65826400  1
  O  O8  1  0.84359000  0.68130200  0.89607700  1
  O  O9  1  0.15619400  0.32997300  0.40366000  1
  O  O10  1  0.53332500  0.48959100  0.15039300  1
  O  O11  1  0.95847500  0.47583800  0.15514100  1
  O  O12  1  0.68398700  0.34814400  0.39833300  1
  O  O13  1  0.31878900  0.14515000  0.90097500  1
  O  O14  1  0.52882100  0.04188800  0.15648500  1
  O  O15  1  0.82528700  0.14507600  0.89898800  1
loop_
_geom_bond_atom_site_label_1
_geom_bond_atom_site_label_2
_geom_bond_distance
_geom_bond_site_symmetry_2
Li0 O14 1.984256 1_565
Li0 O10 2.022600 1_555
Li0 O11 2.088086 1_455
Li0 O2 2.132110 1_554
Li1 O4 1.773057 1_445
Li1 O15 1.983411 1_454
Li1 O13 1.987542 1_554
Li1 O8 2.154876 1_444
Li2 O3 1.819846 1_445
Li2 O9 1.914038 1_555
Li2 O0 2.012358 1_545
Li2 O5 2.060141 1_445
Li3 O12 1.932503 1_555
Li3 O7 2.020950 1_555
Li3 O6 2.027054 1_655
Li3 O1 2.166709 1_545
Cr0 O9 1.968737 1_555
Cr0 O0 2.051947 1_555
Cr0 O5 2.120017 1_555
Cr0 O6 2.132922 1_555
Cr0 O7 2.151176 1_555
Cr0 O1 2.229219 1_555
Cr1 O14 1.946115 1_555
Cr1 O10 2.020171 1_555
Cr1 O11 2.034039 1_555
Cr1 O15 2.129728 1_554
Cr1 O13 2.138328 1_554
Cr1 O8 2.391786 1_554
Fe0 O3 2.118113 1_445
Fe0 O6 2.139045 1_555
Fe0 O13 2.143439 1_555
Fe0 O2 2.147826 1_555
Fe0 O15 2.163798 1_455
Fe0 O7 2.170084 1_555
Fe1 O4 2.091722 1_445
Fe1 O14 2.117873 1_555
Fe1 O9 2.126622 1_555
Fe1 O12 2.127151 1_555
Fe1 O0 2.196314 1_545
Fe1 O10 2.238826 1_555
Fe2 O4 2.006582 1_545
Fe2 O14 2.023540 1_555
Fe2 O12 2.026169 1_555
Fe2 O9 2.063913 1_655
Fe2 O11 2.140856 1_555
Fe2 O5 2.149721 1_545
O0 Sb2 2.040833 1_455
O1 Sb0 2.072601 1_555
O1 Sb1 2.078519 1_555
O2 Sb0 2.036061 1_555
O2 Sb1 2.043361 1_555
O3 Sb0 2.028734 1_655
O3 Sb1 2.033005 1_555
O4 Sb2 1.985708 1_555
O5 Sb2 2.075306 1_555
O6 Sb0 1.981573 1_555
O7 Sb1 1.977986 1_555
O8 Sb0 2.059444 1_655
O8 Sb1 2.064913 1_555
O10 Sb2 2.025331 1_555
O11 Sb2 2.074744 1_555
O12 Sb2 1.993907 1_555
O13 Sb0 1.993775 1_545
O15 Sb1 1.990602 1_545
