# generated using pymatgen
data_V3O7F
_symmetry_space_group_name_H-M   'P 1'
_cell_length_a   3.61397500
_cell_length_b   9.96265100
_cell_length_c   15.06636500
_cell_angle_alpha   90.00000000
_cell_angle_beta   90.00000000
_cell_angle_gamma   90.00000000
_symmetry_Int_Tables_number   1
_chemical_formula_structural   V3O7F
_chemical_formula_sum   'V12 O28 F4'
_cell_volume   542.46103139
_cell_formula_units_Z   4
loop_
 _symmetry_equiv_pos_site_id
 _symmetry_equiv_pos_as_xyz
  1  'x, y, z'
loop_
 _atom_site_type_symbol
 _atom_site_label
 _atom_site_symmetry_multiplicity
 _atom_site_fract_x
 _atom_site_fract_y
 _atom_site_fract_z
 _atom_site_occupancy
  V  V0  1  0.94598300  0.25000000  0.54785500  1
  V  V1  1  0.99541000  0.55755300  0.66483300  1
  V  V2  1  0.99541000  0.94244700  0.66483300  1
  V  V3  1  0.49541000  0.05755300  0.83516700  1
  V  V4  1  0.49541000  0.44244700  0.83516700  1
  V  V5  1  0.44598300  0.75000000  0.95214500  1
  V  V6  1  0.55401700  0.25000000  0.04785500  1
  V  V7  1  0.50459000  0.55755300  0.16483300  1
  V  V8  1  0.50459000  0.94244700  0.16483300  1
  V  V9  1  0.00459000  0.05755300  0.33516700  1
  V  V10  1  0.00459000  0.44244700  0.33516700  1
  V  V11  1  0.05401700  0.75000000  0.45214500  1
  O  O0  1  0.48779500  0.25000000  0.52754400  1
  O  O1  1  0.00129400  0.62408600  0.56432700  1
  O  O2  1  0.00129400  0.87591400  0.56432700  1
  O  O3  1  0.99021700  0.11490600  0.62271600  1
  O  O4  1  0.99021700  0.38509400  0.62271600  1
  O  O5  1  0.49520700  0.95144500  0.69960400  1
  O  O6  1  0.49520700  0.54855500  0.69960400  1
  O  O7  1  0.99520700  0.04855500  0.80039600  1
  O  O8  1  0.99520700  0.45144500  0.80039600  1
  O  O9  1  0.49021700  0.61490600  0.87728400  1
  O  O10  1  0.49021700  0.88509400  0.87728400  1
  O  O11  1  0.50129400  0.12408600  0.93567300  1
  O  O12  1  0.50129400  0.37591400  0.93567300  1
  O  O13  1  0.98779500  0.75000000  0.97245600  1
  O  O14  1  0.01220500  0.25000000  0.02754400  1
  O  O15  1  0.49870600  0.62408600  0.06432700  1
  O  O16  1  0.49870600  0.87591400  0.06432700  1
  O  O17  1  0.50978300  0.11490600  0.12271600  1
  O  O18  1  0.50978300  0.38509400  0.12271600  1
  O  O19  1  0.00479300  0.54855500  0.19960400  1
  O  O20  1  0.00479300  0.95144500  0.19960400  1
  O  O21  1  0.50479300  0.04855500  0.30039600  1
  O  O22  1  0.50479300  0.45144500  0.30039600  1
  O  O23  1  0.00978300  0.61490600  0.37728400  1
  O  O24  1  0.00978300  0.88509400  0.37728400  1
  O  O25  1  0.99870600  0.12408600  0.43567300  1
  O  O26  1  0.99870600  0.37591400  0.43567300  1
  O  O27  1  0.51220500  0.75000000  0.47245600  1
  F  F0  1  0.99471600  0.75000000  0.71731200  1
  F  F1  1  0.49471600  0.25000000  0.78268800  1
  F  F2  1  0.50528400  0.75000000  0.21731200  1
  F  F3  1  0.00528400  0.25000000  0.28268800  1
loop_
_geom_bond_atom_site_label_1
_geom_bond_atom_site_label_2
_geom_bond_distance
_geom_bond_site_symmetry_2
O0 V0 1.683919 1_555
O0 V0 1.981863 1_455
O1 V1 1.653118 1_455
O1 V11 2.113435 1_555
O2 V2 1.653118 1_455
O2 V11 2.113435 1_555
O3 V0 1.763266 1_555
O3 V2 1.831677 1_545
O4 V0 1.763266 1_555
O4 V1 1.831677 1_555
O5 V2 1.882825 1_455
O5 V2 1.884233 1_555
O5 V3 2.299797 1_565
O6 V1 1.882825 1_455
O6 V1 1.884233 1_555
O6 V4 2.299797 1_555
O7 V3 1.882825 1_555
O7 V3 1.884233 1_655
O7 V2 2.299797 1_545
O8 V4 1.882825 1_555
O8 V4 1.884233 1_655
O8 V1 2.299797 1_555
O9 V5 1.763266 1_555
O9 V4 1.831677 1_555
O10 V5 1.763266 1_555
O10 V3 1.831677 1_565
O11 V3 1.653118 1_555
O11 V6 2.113435 1_556
O12 V4 1.653118 1_555
O12 V6 2.113435 1_556
O13 V5 1.683919 1_655
O13 V5 1.981863 1_555
O14 V6 1.683919 1_455
O14 V6 1.981863 1_555
O15 V7 1.653118 1_555
O15 V5 2.113435 1_554
O16 V8 1.653118 1_555
O16 V5 2.113435 1_554
O17 V6 1.763266 1_555
O17 V8 1.831677 1_545
O18 V6 1.763266 1_555
O18 V7 1.831677 1_555
O19 V7 1.882825 1_555
O19 V7 1.884233 1_455
O19 V10 2.299797 1_555
O20 V8 1.882825 1_555
O20 V8 1.884233 1_455
O20 V9 2.299797 1_565
O21 V9 1.882825 1_655
O21 V9 1.884233 1_555
O21 V8 2.299797 1_545
O22 V10 1.882825 1_655
O22 V10 1.884233 1_555
O22 V7 2.299797 1_555
O23 V11 1.763266 1_555
O23 V10 1.831677 1_555
O24 V11 1.763266 1_555
O24 V9 1.831677 1_565
O25 V9 1.653118 1_655
O25 V0 2.113435 1_555
O26 V10 1.653118 1_655
O26 V0 2.113435 1_555
O27 V11 1.683919 1_555
O27 V11 1.981863 1_655
F0 V2 2.073917 1_555
F0 V1 2.073917 1_555
F1 V4 2.073917 1_555
F1 V3 2.073917 1_555
F2 V8 2.073917 1_555
F2 V7 2.073917 1_555
F3 V10 2.073917 1_555
F3 V9 2.073917 1_555
