# generated using pymatgen
data_Sr6Bi2O11
_symmetry_space_group_name_H-M   'P 1'
_cell_length_a   8.58263300
_cell_length_b   8.61755800
_cell_length_c   8.85599108
_cell_angle_alpha   89.87497257
_cell_angle_beta   90.00000000
_cell_angle_gamma   90.00000000
_symmetry_Int_Tables_number   1
_chemical_formula_structural   Sr6Bi2O11
_chemical_formula_sum   'Sr12 Bi4 O22'
_cell_volume   654.99938757
_cell_formula_units_Z   2
loop_
 _symmetry_equiv_pos_site_id
 _symmetry_equiv_pos_as_xyz
  1  'x, y, z'
loop_
 _atom_site_type_symbol
 _atom_site_label
 _atom_site_symmetry_multiplicity
 _atom_site_fract_x
 _atom_site_fract_y
 _atom_site_fract_z
 _atom_site_occupancy
  Sr  Sr0  1  0.25000000  0.25044600  0.00116800  1
  Sr  Sr1  1  0.48666600  0.98209800  0.28343700  1
  Sr  Sr2  1  0.01333400  0.98209800  0.28343700  1
  Sr  Sr3  1  0.75000000  0.24878000  0.42168600  1
  Sr  Sr4  1  0.48356700  0.51335300  0.28418200  1
  Sr  Sr5  1  0.01643300  0.51335300  0.28418200  1
  Sr  Sr6  1  0.98666600  0.01790200  0.71656300  1
  Sr  Sr7  1  0.75000000  0.74955400  0.99883200  1
  Sr  Sr8  1  0.51333400  0.01790200  0.71656300  1
  Sr  Sr9  1  0.98356700  0.48664700  0.71581800  1
  Sr  Sr10  1  0.25000000  0.75122000  0.57831400  1
  Sr  Sr11  1  0.51643300  0.48664700  0.71581800  1
  Bi  Bi0  1  0.75000000  0.25097800  0.03620800  1
  Bi  Bi1  1  0.25000000  0.25050100  0.50067700  1
  Bi  Bi2  1  0.25000000  0.74902200  0.96379200  1
  Bi  Bi3  1  0.75000000  0.74949900  0.49932300  1
  O  O0  1  0.25000000  0.00349700  0.48400300  1
  O  O1  1  0.75000000  0.99650300  0.51599700  1
  O  O2  1  0.98073400  0.24989000  0.11888500  1
  O  O3  1  0.51926600  0.24989000  0.11888500  1
  O  O4  1  0.75000000  0.75484600  0.26602000  1
  O  O5  1  0.75000000  0.01802300  0.11081600  1
  O  O6  1  0.75000000  0.50220700  0.50855800  1
  O  O7  1  0.25000000  0.74747800  0.20148700  1
  O  O8  1  0.25000000  0.49779300  0.49144200  1
  O  O9  1  0.25000000  0.98197700  0.88918400  1
  O  O10  1  0.25000000  0.24515400  0.73398000  1
  O  O11  1  0.00261500  0.24934400  0.51516800  1
  O  O12  1  0.48073400  0.75011000  0.88111500  1
  O  O13  1  0.01926600  0.75011000  0.88111500  1
  O  O14  1  0.49738500  0.24934400  0.51516800  1
  O  O15  1  0.25000000  0.25864400  0.26769200  1
  O  O16  1  0.25000000  0.51741800  0.88540500  1
  O  O17  1  0.75000000  0.74135600  0.73230800  1
  O  O18  1  0.75000000  0.48258200  0.11459500  1
  O  O19  1  0.99738500  0.75065600  0.48483200  1
  O  O20  1  0.50261500  0.75065600  0.48483200  1
  O  O21  1  0.75000000  0.25252200  0.79851300  1
loop_
_geom_bond_atom_site_label_1
_geom_bond_atom_site_label_2
_geom_bond_distance
_geom_bond_site_symmetry_2
Bi0 O21 2.105038 1_554
Bi0 O3 2.111342 1_555
Bi0 O2 2.111342 1_555
Bi0 O5 2.112070 1_555
Bi0 O18 2.114572 1_555
Bi1 O15 2.064353 1_555
Bi1 O10 2.066543 1_555
Bi1 O14 2.127112 1_555
Bi1 O11 2.127112 1_555
Bi1 O8 2.132444 1_555
Bi1 O0 2.134009 1_555
Bi2 O7 2.105038 1_556
Bi2 O13 2.111342 1_555
Bi2 O12 2.111342 1_555
Bi2 O9 2.112070 1_555
Bi2 O16 2.114572 1_555
Bi3 O17 2.064353 1_555
Bi3 O4 2.066543 1_555
Bi3 O19 2.127112 1_555
Bi3 O20 2.127112 1_555
Bi3 O6 2.132444 1_555
Bi3 O1 2.134009 1_555
O0 Sr10 2.327228 1_545
O0 Sr1 2.704848 1_545
O0 Sr2 2.704848 1_545
O0 Sr8 3.060444 1_555
O0 Sr6 3.060444 1_455
O1 Sr3 2.327228 1_565
O1 Sr6 2.704848 1_565
O1 Sr8 2.704848 1_565
O1 Sr2 3.060444 1_655
O1 Sr1 3.060444 1_555
O2 Sr0 2.535268 1_655
O2 Sr5 2.721405 1_655
O2 Sr2 2.740946 1_645
O3 Sr0 2.535268 1_555
O3 Sr4 2.721405 1_555
O3 Sr1 2.740946 1_545
O4 Sr7 2.366753 1_554
O4 Sr2 2.994715 1_655
O4 Sr1 2.994715 1_555
O4 Sr5 3.095850 1_655
O4 Sr4 3.095850 1_555
O5 Sr7 2.519135 1_544
O5 Sr2 2.745695 1_645
O5 Sr1 2.745695 1_545
O6 Sr3 2.317052 1_555
O6 Sr11 2.721110 1_555
O6 Sr9 2.721110 1_555
O6 Sr5 3.030813 1_655
O6 Sr4 3.030813 1_555
O7 Sr4 2.935819 1_555
O7 Sr5 2.935819 1_555
O7 Sr1 2.957506 1_555
O7 Sr2 2.957506 1_555
O8 Sr10 2.317052 1_555
O8 Sr4 2.721110 1_555
O8 Sr5 2.721110 1_555
O8 Sr11 3.030813 1_555
O8 Sr9 3.030813 1_455
O9 Sr0 2.519135 1_566
O9 Sr8 2.745695 1_565
O9 Sr6 2.745695 1_465
O10 Sr0 2.366753 1_556
O10 Sr8 2.994715 1_555
O10 Sr6 2.994715 1_455
O10 Sr11 3.095850 1_555
O10 Sr9 3.095850 1_455
O11 Sr3 2.320794 1_455
O11 Sr6 2.676222 1_455
O11 Sr9 2.716996 1_455
O11 Sr5 3.058498 1_555
O11 Sr2 3.089416 1_545
O12 Sr7 2.535268 1_555
O12 Sr11 2.721405 1_555
O12 Sr8 2.740946 1_565
O13 Sr7 2.535268 1_455
O13 Sr9 2.721405 1_455
O13 Sr6 2.740946 1_465
O14 Sr3 2.320794 1_555
O14 Sr8 2.676222 1_555
O14 Sr11 2.716996 1_555
O14 Sr4 3.058498 1_555
O14 Sr1 3.089416 1_545
O15 Sr0 2.361545 1_555
O15 Sr4 2.976427 1_555
O15 Sr5 2.976427 1_555
O15 Sr1 3.134206 1_545
O15 Sr2 3.134206 1_545
O16 Sr0 2.516686 1_556
O16 Sr11 2.748931 1_555
O16 Sr9 2.748931 1_455
O17 Sr7 2.361545 1_555
O17 Sr9 2.976427 1_555
O17 Sr11 2.976427 1_555
O17 Sr6 3.134206 1_565
O17 Sr8 3.134206 1_565
O18 Sr7 2.516686 1_554
O18 Sr5 2.748931 1_655
O18 Sr4 2.748931 1_555
O19 Sr10 2.320794 1_655
O19 Sr2 2.676222 1_655
O19 Sr5 2.716996 1_655
O19 Sr9 3.058498 1_555
O19 Sr6 3.089416 1_565
O20 Sr10 2.320794 1_555
O20 Sr1 2.676222 1_555
O20 Sr4 2.716996 1_555
O20 Sr11 3.058498 1_555
O20 Sr8 3.089416 1_565
O21 Sr9 2.935819 1_555
O21 Sr11 2.935819 1_555
O21 Sr6 2.957506 1_555
O21 Sr8 2.957506 1_555
