# generated using pymatgen
data_Na2NiPCO7
_symmetry_space_group_name_H-M   'P 1'
_cell_length_a   10.14242390
_cell_length_b   10.43543815
_cell_length_c   6.63833665
_cell_angle_alpha   90.26421422
_cell_angle_beta   90.51004679
_cell_angle_gamma   60.18395349
_symmetry_Int_Tables_number   1
_chemical_formula_structural   Na2NiPCO7
_chemical_formula_sum   'Na8 Ni4 P4 C4 O28'
_cell_volume   609.57504177
_cell_formula_units_Z   4
loop_
 _symmetry_equiv_pos_site_id
 _symmetry_equiv_pos_as_xyz
  1  'x, y, z'
loop_
 _atom_site_type_symbol
 _atom_site_label
 _atom_site_symmetry_multiplicity
 _atom_site_fract_x
 _atom_site_fract_y
 _atom_site_fract_z
 _atom_site_occupancy
  Na  Na0  1  0.00885800  0.25602300  0.48173600  1
  Na  Na1  1  0.01020800  0.25512100  0.01549600  1
  Na  Na2  1  0.48460800  0.25594200  0.97166900  1
  Na  Na3  1  0.84304100  0.06765400  0.73644300  1
  Na  Na4  1  0.50149900  0.74951000  0.00907000  1
  Na  Na5  1  0.50136800  0.74786400  0.49153200  1
  Na  Na6  1  0.00024200  0.73826800  0.98977000  1
  Na  Na7  1  0.00320200  0.73402800  0.51371000  1
  Ni  Ni0  1  0.28575400  0.06622400  0.74900300  1
  Ni  Ni1  1  0.22096400  0.43084200  0.25863500  1
  Ni  Ni2  1  0.78507900  0.56584100  0.75044500  1
  Ni  Ni3  1  0.71501700  0.93591600  0.25499400  1
  P  P0  1  0.35212800  0.07192900  0.25038700  1
  P  P1  1  0.14677900  0.43458800  0.75124200  1
  P  P2  1  0.85189400  0.57033700  0.25048800  1
  P  P3  1  0.65081800  0.92805300  0.75247300  1
  C  C0  1  0.82115100  0.10567500  0.24843700  1
  C  C1  1  0.32350700  0.60262000  0.24845600  1
  C  C2  1  0.68242000  0.39376800  0.75257600  1
  C  C3  1  0.17081900  0.89920500  0.74943800  1
  O  O0  1  0.09145300  0.04371700  0.74713000  1
  O  O1  1  0.26810200  0.05778800  0.06320700  1
  O  O2  1  0.26925500  0.06137100  0.43778300  1
  O  O3  1  0.14302000  0.28904100  0.74838000  1
  O  O4  1  0.01966100  0.43746900  0.25128500  1
  O  O5  1  0.48478500  0.05776700  0.75940100  1
  O  O6  1  0.35639900  0.21690100  0.24234100  1
  O  O7  1  0.22862000  0.44719700  0.93999900  1
  O  O8  1  0.21918800  0.45690900  0.56288400  1
  O  O9  1  0.67703400  0.15206700  0.24233000  1
  O  O10  1  0.17822700  0.64858500  0.25164600  1
  O  O11  1  0.40701100  0.46103800  0.24794400  1
  O  O12  1  0.63090000  0.30720800  0.76180700  1
  O  O13  1  0.10387800  0.82396400  0.75198700  1
  O  O14  1  0.87762600  0.18919300  0.24617000  1
  O  O15  1  0.37600500  0.68897300  0.24682200  1
  O  O16  1  0.59989100  0.53671100  0.74866000  1
  O  O17  1  0.82876200  0.34569100  0.74727300  1
  O  O18  1  0.31638500  0.84392500  0.74885700  1
  O  O19  1  0.76985600  0.55704600  0.06195600  1
  O  O20  1  0.76945800  0.55925300  0.43741600  1
  O  O21  1  0.64319200  0.78358400  0.75348300  1
  O  O22  1  0.51866700  0.93880900  0.25004900  1
  O  O23  1  0.97755400  0.56774800  0.75351000  1
  O  O24  1  0.85785500  0.71563200  0.24975500  1
  O  O25  1  0.73709200  0.93664900  0.56679800  1
  O  O26  1  0.73900700  0.94088900  0.93643000  1
  O  O27  1  0.90456300  0.96233900  0.25885200  1
loop_
_geom_bond_atom_site_label_1
_geom_bond_atom_site_label_2
_geom_bond_distance
_geom_bond_site_symmetry_2
Na0 O3 2.349721 1_555
Na0 O14 2.362052 1_455
Na0 O17 2.379433 1_455
Na0 O2 2.420702 1_555
Na0 O4 2.484665 1_555
Na0 O0 2.622628 1_555
Na0 O20 2.889734 1_455
Na1 O14 2.364904 1_455
Na1 O3 2.367811 1_554
Na1 O17 2.382834 1_454
Na1 O1 2.411948 1_555
Na1 O4 2.496283 1_555
Na1 O0 2.627119 1_554
Na1 O19 2.886398 1_455
Na2 O12 2.293818 1_555
Na2 O7 2.368471 1_555
Na2 O6 2.379202 1_556
Na2 O9 2.462524 1_556
Na2 O5 2.496370 1_555
Na2 O11 2.622625 1_556
Na3 O12 2.358147 1_555
Na3 O25 2.391033 1_545
Na3 O0 2.405502 1_655
Na3 O26 2.460678 1_545
Na3 O13 2.604563 1_645
Na3 O17 2.832823 1_555
Na4 O15 2.314013 1_555
Na4 O18 2.366016 1_554
Na4 O21 2.372247 1_554
Na4 O19 2.473581 1_555
Na4 O16 2.589809 1_554
Na4 O22 2.607602 1_555
Na4 O1 2.917799 1_565
Na5 O15 2.316098 1_555
Na5 O18 2.369364 1_555
Na5 O21 2.390519 1_555
Na5 O20 2.466836 1_555
Na5 O16 2.565554 1_555
Na5 O22 2.636874 1_555
Na6 O13 2.318083 1_555
Na6 O10 2.331483 1_556
Na6 O24 2.346775 1_456
Na6 O26 2.456713 1_455
Na6 O23 2.460532 1_455
Na6 O27 2.708475 1_456
Na6 O7 2.776404 1_555
Na7 O13 2.309974 1_555
Na7 O10 2.332251 1_555
Na7 O24 2.347902 1_455
Na7 O23 2.468681 1_455
Na7 O25 2.492911 1_455
Na7 O8 2.639033 1_555
Na7 O27 2.678870 1_455
Ni0 O5 1.976852 1_555
Ni0 O3 2.038356 1_555
Ni0 O2 2.073683 1_555
Ni0 O0 2.097314 1_555
Ni0 O1 2.101035 1_556
Ni0 O18 2.182025 1_545
Ni1 O6 1.957981 1_555
Ni1 O4 2.008370 1_555
Ni1 O8 2.035742 1_555
Ni1 O11 2.063700 1_555
Ni1 O10 2.091484 1_555
Ni1 O7 2.128078 1_554
Ni2 O23 1.962058 1_555
Ni2 O21 1.995696 1_555
Ni2 O16 2.046397 1_555
Ni2 O19 2.080880 1_556
Ni2 O20 2.086032 1_555
Ni2 O17 2.112379 1_555
Ni3 O22 1.976608 1_555
Ni3 O24 2.018102 1_555
Ni3 O27 2.073335 1_555
Ni3 O25 2.080340 1_555
Ni3 O9 2.092940 1_565
Ni3 O26 2.134650 1_554
C0 O14 1.258819 1_555
C0 O9 1.291510 1_555
C0 O27 1.303598 1_545
C1 O15 1.254194 1_555
C1 O11 1.286809 1_555
C1 O10 1.303579 1_555
C2 O12 1.250277 1_555
C2 O16 1.297972 1_555
C2 O17 1.310051 1_555
C3 O13 1.268147 1_555
C3 O18 1.290605 1_555
C3 O0 1.309669 1_565
O1 P0 1.548079 1_555
O2 P0 1.542121 1_555
O3 P1 1.538186 1_555
O4 P2 1.572129 1_455
O5 P3 1.550552 1_545
O6 P0 1.536030 1_555
O7 P1 1.537852 1_555
O8 P1 1.531734 1_555
O19 P2 1.540305 1_555
O20 P2 1.538902 1_555
O21 P3 1.547558 1_555
O22 P0 1.565095 1_565
O23 P1 1.582896 1_655
O24 P2 1.547199 1_555
O25 P3 1.546361 1_555
O26 P3 1.551588 1_555
