# generated using pymatgen
data_V2(OF)3
_symmetry_space_group_name_H-M   'P 1'
_cell_length_a   5.19544700
_cell_length_b   5.25158350
_cell_length_c   9.25417331
_cell_angle_alpha   75.13362393
_cell_angle_beta   73.74078543
_cell_angle_gamma   60.63482107
_symmetry_Int_Tables_number   1
_chemical_formula_structural   V2(OF)3
_chemical_formula_sum   'V4 O6 F6'
_cell_volume   209.09292635
_cell_formula_units_Z   2
loop_
 _symmetry_equiv_pos_site_id
 _symmetry_equiv_pos_as_xyz
  1  'x, y, z'
loop_
 _atom_site_type_symbol
 _atom_site_label
 _atom_site_symmetry_multiplicity
 _atom_site_fract_x
 _atom_site_fract_y
 _atom_site_fract_z
 _atom_site_occupancy
  V  V0  1  0.95335900  0.01691100  0.00169700  1
  V  V1  1  0.72276400  0.75228500  0.76140500  1
  V  V2  1  0.54541800  0.48661700  0.50110300  1
  V  V3  1  0.24717900  0.27147600  0.26223000  1
  O  O0  1  0.39357700  0.80019100  0.87478800  1
  O  O1  1  0.82584500  0.94484400  0.87518200  1
  O  O2  1  0.29375600  0.43959800  0.37704900  1
  O  O3  1  0.70222500  0.54896900  0.61648300  1
  O  O4  1  0.63127100  0.19105700  0.12185900  1
  O  O5  1  0.85267300  0.31186500  0.37211500  1
  F  F0  1  0.12755000  0.69896000  0.62078900  1
  F  F1  1  0.04264100  0.62688000  0.12019900  1
  F  F2  1  0.44842200  0.86826100  0.37407300  1
  F  F3  1  0.20169600  0.04382300  0.12132900  1
  F  F4  1  0.54104700  0.13092700  0.62279900  1
  F  F5  1  0.97057700  0.36733600  0.87689900  1
loop_
_geom_bond_atom_site_label_1
_geom_bond_atom_site_label_2
_geom_bond_distance
_geom_bond_site_symmetry_2
O0 V1 1.672685 1_555
O0 V0 2.129419 1_466
O1 V0 1.691299 1_566
O1 V1 1.952256 1_555
O2 V3 1.673922 1_555
O2 V2 2.095492 1_555
O3 V2 1.684977 1_555
O3 V1 1.968945 1_555
O4 V0 1.688814 1_555
O4 V3 1.962486 1_555
O5 V2 1.695188 1_555
O5 V3 1.948655 1_655
F0 V2 2.023981 1_555
F0 V1 2.066764 1_455
F1 V0 1.952857 1_465
F1 V3 1.979528 1_555
F2 V2 1.945514 1_555
F2 V3 1.989554 1_565
F3 V0 1.992307 1_455
F3 V3 2.105918 1_555
F4 V2 1.925057 1_555
F4 V1 2.004687 1_545
F5 V0 1.934289 1_556
F5 V1 1.998995 1_555
