# generated using pymatgen
data_Li2ZrFe(PO4)3
_symmetry_space_group_name_H-M   'P 1'
_cell_length_a   8.79096400
_cell_length_b   8.94065800
_cell_length_c   12.37866600
_cell_angle_alpha   90.00000000
_cell_angle_beta   90.00000000
_cell_angle_gamma   90.00000000
_symmetry_Int_Tables_number   1
_chemical_formula_structural   Li2ZrFe(PO4)3
_chemical_formula_sum   'Li8 Zr4 Fe4 P12 O48'
_cell_volume   972.92604396
_cell_formula_units_Z   4
loop_
 _symmetry_equiv_pos_site_id
 _symmetry_equiv_pos_as_xyz
  1  'x, y, z'
loop_
 _atom_site_type_symbol
 _atom_site_label
 _atom_site_symmetry_multiplicity
 _atom_site_fract_x
 _atom_site_fract_y
 _atom_site_fract_z
 _atom_site_occupancy
  Li  Li0  1  0.96512300  0.72705000  0.82261400  1
  Li  Li1  1  0.96903900  0.78384500  0.18355600  1
  Li  Li2  1  0.03096100  0.21615500  0.68355600  1
  Li  Li3  1  0.03487700  0.27295000  0.32261400  1
  Li  Li4  1  0.46903900  0.71615500  0.68355600  1
  Li  Li5  1  0.46512300  0.77295000  0.32261400  1
  Li  Li6  1  0.53487700  0.22705000  0.82261400  1
  Li  Li7  1  0.53096100  0.28384500  0.18355600  1
  Zr  Zr0  1  0.99832000  0.53959500  0.61422000  1
  Zr  Zr1  1  0.00168000  0.46040500  0.11422000  1
  Zr  Zr2  1  0.49832000  0.96040500  0.11422000  1
  Zr  Zr3  1  0.50168000  0.03959500  0.61422000  1
  Fe  Fe0  1  0.99632500  0.95897300  0.38978600  1
  Fe  Fe1  1  0.00367500  0.04102700  0.88978600  1
  Fe  Fe2  1  0.49632500  0.54102700  0.88978600  1
  Fe  Fe3  1  0.50367500  0.45897300  0.38978600  1
  P  P0  1  0.79299600  0.24881800  0.49458800  1
  P  P1  1  0.84925500  0.38941800  0.85217400  1
  P  P2  1  0.85987100  0.10174700  0.14806800  1
  P  P3  1  0.15074500  0.61058200  0.35217400  1
  P  P4  1  0.14012900  0.89825300  0.64806800  1
  P  P5  1  0.20700400  0.75118200  0.99458800  1
  P  P6  1  0.29299600  0.25118200  0.99458800  1
  P  P7  1  0.34925500  0.11058200  0.35217400  1
  P  P8  1  0.35987100  0.39825300  0.64806800  1
  P  P9  1  0.64012900  0.60174700  0.14806800  1
  P  P10  1  0.65074500  0.88941800  0.85217400  1
  P  P11  1  0.70700400  0.74881800  0.49458800  1
  O  O0  1  0.80325400  0.64151500  0.56432300  1
  O  O1  1  0.80504700  0.85744500  0.42985200  1
  O  O2  1  0.82501200  0.89374900  0.84337000  1
  O  O3  1  0.81713700  0.60731100  0.15652700  1
  O  O4  1  0.89893600  0.16187200  0.41788200  1
  O  O5  1  0.89887600  0.33275800  0.57647500  1
  O  O6  1  0.90725700  0.06771000  0.03132800  1
  O  O7  1  0.89984800  0.42777800  0.96895700  1
  O  O8  1  0.91238800  0.23425300  0.81973500  1
  O  O9  1  0.91850700  0.25998200  0.18271900  1
  O  O10  1  0.91997400  0.51320100  0.77806800  1
  O  O11  1  0.92410200  0.98294800  0.22576000  1
  O  O12  1  0.07589800  0.01705200  0.72576000  1
  O  O13  1  0.08002600  0.48679900  0.27806800  1
  O  O14  1  0.08761200  0.76574700  0.31973500  1
  O  O15  1  0.08149300  0.74001800  0.68271900  1
  O  O16  1  0.10015200  0.57222200  0.46895700  1
  O  O17  1  0.09274300  0.93229000  0.53132800  1
  O  O18  1  0.10106400  0.83812800  0.91788200  1
  O  O19  1  0.10112400  0.66724200  0.07647500  1
  O  O20  1  0.17498800  0.10625100  0.34337000  1
  O  O21  1  0.18286300  0.39268900  0.65652700  1
  O  O22  1  0.19495300  0.14255500  0.92985200  1
  O  O23  1  0.19674600  0.35848500  0.06432300  1
  O  O24  1  0.30504700  0.64255500  0.92985200  1
  O  O25  1  0.30325400  0.85848500  0.06432300  1
  O  O26  1  0.32501200  0.60625100  0.34337000  1
  O  O27  1  0.31713700  0.89268900  0.65652700  1
  O  O28  1  0.39893600  0.33812800  0.91788200  1
  O  O29  1  0.39887600  0.16724200  0.07647500  1
  O  O30  1  0.39984800  0.07222200  0.46895700  1
  O  O31  1  0.40725700  0.43229000  0.53132800  1
  O  O32  1  0.41850700  0.24001800  0.68271900  1
  O  O33  1  0.41238800  0.26574700  0.31973500  1
  O  O34  1  0.42410200  0.51705200  0.72576000  1
  O  O35  1  0.41997400  0.98679900  0.27806800  1
  O  O36  1  0.58002600  0.01320100  0.77806800  1
  O  O37  1  0.57589800  0.48294800  0.22576000  1
  O  O38  1  0.58761200  0.73425300  0.81973500  1
  O  O39  1  0.58149300  0.75998200  0.18271900  1
  O  O40  1  0.59274300  0.56771000  0.03132800  1
  O  O41  1  0.60015200  0.92777800  0.96895700  1
  O  O42  1  0.60106400  0.66187200  0.41788200  1
  O  O43  1  0.60112400  0.83275800  0.57647500  1
  O  O44  1  0.68286300  0.10731100  0.15652700  1
  O  O45  1  0.67498800  0.39374900  0.84337000  1
  O  O46  1  0.69674600  0.14151500  0.56432300  1
  O  O47  1  0.69495300  0.35744500  0.42985200  1
loop_
_geom_bond_atom_site_label_1
_geom_bond_atom_site_label_2
_geom_bond_distance
_geom_bond_site_symmetry_2
Li0 O2 1.950491 1_555
Li0 O18 1.950678 1_655
Li0 O15 2.014649 1_655
Li0 O10 2.029077 1_555
Li1 O11 1.896783 1_555
Li1 O14 1.988555 1_655
Li1 O19 2.047463 1_655
Li1 O3 2.094343 1_555
Li2 O12 1.896783 1_555
Li2 O8 1.988555 1_455
Li2 O5 2.047463 1_455
Li2 O21 2.094343 1_555
Li3 O20 1.950491 1_555
Li3 O4 1.950678 1_455
Li3 O9 2.014649 1_455
Li3 O13 2.029077 1_555
Li4 O34 1.896783 1_555
Li4 O38 1.988555 1_555
Li4 O43 2.047463 1_555
Li4 O27 2.094343 1_555
Li5 O26 1.950491 1_555
Li5 O42 1.950678 1_555
Li5 O39 2.014649 1_555
Li5 O35 2.029077 1_555
Li6 O45 1.950491 1_555
Li6 O28 1.950678 1_555
Li6 O32 2.014649 1_555
Li6 O36 2.029077 1_555
Li7 O37 1.896783 1_555
Li7 O33 1.988555 1_555
Li7 O29 2.047463 1_555
Li7 O44 2.094343 1_555
Fe0 O17 1.960920 1_655
Fe0 O1 1.974196 1_555
Fe0 O4 2.035858 1_565
Fe0 O14 2.092947 1_655
Fe0 O20 2.128577 1_665
Fe0 O11 2.138148 1_555
Fe1 O6 1.960920 1_456
Fe1 O22 1.974196 1_555
Fe1 O18 2.035858 1_545
Fe1 O8 2.092947 1_455
Fe1 O2 2.128577 1_445
Fe1 O12 2.138148 1_555
Fe2 O40 1.960920 1_556
Fe2 O24 1.974196 1_555
Fe2 O28 2.035858 1_555
Fe2 O38 2.092947 1_555
Fe2 O45 2.128577 1_555
Fe2 O34 2.138148 1_555
Fe3 O31 1.960920 1_555
Fe3 O47 1.974196 1_555
Fe3 O42 2.035858 1_555
Fe3 O33 2.092947 1_555
Fe3 O26 2.128577 1_555
Fe3 O37 2.138148 1_555
O0 P11 1.543200 1_555
O0 Zr0 2.037755 1_555
O1 P11 1.525856 1_555
O2 P10 1.536334 1_555
O3 P9 1.560383 1_555
O3 Zr1 2.152039 1_655
O4 P0 1.540523 1_555
O5 P0 1.567505 1_555
O5 Zr0 2.098167 1_555
O6 P2 1.534408 1_555
O7 P1 1.550886 1_555
O7 Zr1 2.029745 1_656
O8 P1 1.547193 1_555
O9 P2 1.565611 1_555
O9 Zr1 2.112947 1_655
O10 P1 1.566137 1_555
O10 Zr0 2.154929 1_555
O11 P2 1.540094 1_565
O12 P4 1.540094 1_545
O13 P3 1.566137 1_555
O13 Zr1 2.154929 1_555
O14 P3 1.547193 1_555
O15 P4 1.565611 1_555
O15 Zr0 2.112947 1_455
O16 P3 1.550886 1_555
O16 Zr0 2.029745 1_455
O17 P4 1.534408 1_555
O18 P5 1.540523 1_555
O19 P5 1.567505 1_554
O19 Zr1 2.098167 1_555
O20 P7 1.536334 1_555
O21 P8 1.560383 1_555
O21 Zr0 2.152039 1_455
O22 P6 1.525856 1_555
O23 P6 1.543200 1_554
O23 Zr1 2.037755 1_555
O24 P5 1.525856 1_555
O25 P5 1.543200 1_554
O25 Zr2 2.037755 1_555
O26 P3 1.536334 1_555
O27 P4 1.560383 1_555
O27 Zr3 2.152039 1_565
O28 P6 1.540523 1_555
O29 P6 1.567505 1_554
O29 Zr2 2.098167 1_545
O30 P7 1.550886 1_555
O30 Zr3 2.029745 1_555
O31 P8 1.534408 1_555
O32 P8 1.565611 1_555
O32 Zr3 2.112947 1_555
O33 P7 1.547193 1_555
O34 P8 1.540094 1_555
O35 P7 1.566137 1_565
O35 Zr2 2.154929 1_555
O36 P10 1.566137 1_545
O36 Zr3 2.154929 1_555
O37 P9 1.540094 1_555
O38 P10 1.547193 1_555
O39 P9 1.565611 1_555
O39 Zr2 2.112947 1_555
O40 P9 1.534408 1_555
O41 P10 1.550886 1_555
O41 Zr2 2.029745 1_556
O42 P11 1.540523 1_555
O43 P11 1.567505 1_555
O43 Zr3 2.098167 1_565
O44 P2 1.560383 1_555
O44 Zr2 2.152039 1_545
O45 P1 1.536334 1_555
O46 P0 1.543200 1_555
O46 Zr3 2.037755 1_555
O47 P0 1.525856 1_555
