# generated using pymatgen
data_Hf3Zn3N
_symmetry_space_group_name_H-M   'P 1'
_cell_length_a   8.42919852
_cell_length_b   8.42919972
_cell_length_c   8.42919947
_cell_angle_alpha   60.00126647
_cell_angle_beta   60.00126051
_cell_angle_gamma   60.00125965
_symmetry_Int_Tables_number   1
_chemical_formula_structural   Hf3Zn3N
_chemical_formula_sum   'Hf12 Zn12 N4'
_cell_volume   423.50289926
_cell_formula_units_Z   4
loop_
 _symmetry_equiv_pos_site_id
 _symmetry_equiv_pos_as_xyz
  1  'x, y, z'
loop_
 _atom_site_type_symbol
 _atom_site_label
 _atom_site_symmetry_multiplicity
 _atom_site_fract_x
 _atom_site_fract_y
 _atom_site_fract_z
 _atom_site_occupancy
  Hf  Hf0  1  0.81374075  0.18625471  0.18625230  1
  Hf  Hf1  1  0.18624632  0.81374817  0.18625362  1
  Hf  Hf2  1  0.81374184  0.81374850  0.18625074  1
  Hf  Hf3  1  0.18624411  0.81374926  0.81374700  1
  Hf  Hf4  1  0.81374206  0.18625232  0.81374739  1
  Hf  Hf5  1  0.18624592  0.18625529  0.81374576  1
  Hf  Hf6  1  0.43624728  0.06374845  0.06374551  1
  Hf  Hf7  1  0.06374032  0.43625370  0.06374771  1
  Hf  Hf8  1  0.43624791  0.43625490  0.06374607  1
  Hf  Hf9  1  0.06374030  0.43625459  0.43625281  1
  Hf  Hf10  1  0.43624811  0.06374786  0.43625401  1
  Hf  Hf11  1  0.06373926  0.06374951  0.43625276  1
  Zn  Zn0  1  0.41827097  0.41826838  0.74518740  1
  Zn  Zn1  1  0.41827846  0.41827539  0.41827614  1
  Zn  Zn2  1  0.74520127  0.41826446  0.41826469  1
  Zn  Zn3  1  0.41827168  0.74518513  0.41826941  1
  Zn  Zn4  1  0.83173193  0.83173018  0.50481651  1
  Zn  Zn5  1  0.83172997  0.83172741  0.83172975  1
  Zn  Zn6  1  0.50482719  0.83172711  0.83172613  1
  Zn  Zn7  1  0.83173353  0.50481234  0.83173034  1
  Zn  Zn8  1  0.62503594  0.62500219  0.12497711  1
  Zn  Zn9  1  0.62502059  0.62498654  0.62499529  1
  Zn  Zn10  1  0.12495728  0.62501775  0.62502602  1
  Zn  Zn11  1  0.62503058  0.12498274  0.62500681  1
  N  N0  1  0.12499548  0.12500064  0.62500139  1
  N  N1  1  0.12499598  0.12500113  0.12500013  1
  N  N2  1  0.62499824  0.12500047  0.12499935  1
  N  N3  1  0.12499573  0.62500189  0.12499985  1
loop_
_geom_bond_atom_site_label_1
_geom_bond_atom_site_label_2
_geom_bond_distance
_geom_bond_site_symmetry_2
Hf0 N2 2.230173 1_555
Hf0 N1 2.230257 1_655
Hf0 Zn7 2.844903 1_554
Hf0 Zn4 2.844940 1_545
Hf0 Zn8 3.082738 1_555
Hf0 Zn11 3.082793 1_555
Hf0 Zn2 3.089970 1_555
Hf0 Zn1 3.090037 1_555
Hf1 N3 2.230186 1_555
Hf1 N1 2.230243 1_565
Hf1 Zn4 2.844887 1_455
Hf1 Zn6 2.845015 1_554
Hf1 Zn10 3.082898 1_555
Hf1 Zn8 3.083040 1_555
Hf1 Zn3 3.090019 1_555
Hf1 Zn1 3.090112 1_555
Hf2 N2 2.230245 1_565
Hf2 N3 2.230262 1_655
Hf2 Zn5 2.844836 1_554
Hf2 Zn4 2.844946 1_555
Hf2 Zn8 3.082515 1_555
Hf2 Zn9 3.082751 1_555
Hf2 Zn3 3.090007 1_555
Hf2 Zn2 3.090029 1_555
Hf3 N0 2.230246 1_565
Hf3 N3 2.230258 1_556
Hf3 Zn5 2.844801 1_455
Hf3 Zn6 2.845022 1_555
Hf3 Zn10 3.082593 1_555
Hf3 Zn9 3.082980 1_555
Hf3 Zn3 3.090064 1_555
Hf3 Zn0 3.090072 1_555
Hf4 N2 2.230246 1_556
Hf4 N0 2.230258 1_655
Hf4 Zn5 2.844857 1_545
Hf4 Zn7 2.844910 1_555
Hf4 Zn11 3.082490 1_555
Hf4 Zn9 3.082677 1_555
Hf4 Zn0 3.090002 1_555
Hf4 Zn2 3.090020 1_555
Hf5 N0 2.230175 1_555
Hf5 N1 2.230254 1_556
Hf5 Zn7 2.844856 1_455
Hf5 Zn6 2.845020 1_545
Hf5 Zn10 3.082827 1_555
Hf5 Zn11 3.083010 1_555
Hf5 Zn0 3.090015 1_555
Hf5 Zn1 3.090093 1_555
Hf6 N1 2.230222 1_555
Hf6 N2 2.230232 1_555
Hf6 Zn0 2.844895 1_554
Hf6 Zn3 2.844933 1_545
Hf6 Zn11 3.082734 1_554
Hf6 Zn8 3.082793 1_545
Hf6 Zn6 3.089952 1_544
Hf6 Zn5 3.090087 1_544
Hf7 N3 2.230220 1_555
Hf7 N1 2.230231 1_555
Hf7 Zn2 2.844810 1_455
Hf7 Zn0 2.844953 1_554
Hf7 Zn8 3.082493 1_455
Hf7 Zn10 3.082637 1_554
Hf7 Zn7 3.089913 1_454
Hf7 Zn5 3.090024 1_454
Hf8 N3 2.230253 1_555
Hf8 N2 2.230274 1_555
Hf8 Zn0 2.844848 1_554
Hf8 Zn1 2.844980 1_555
Hf8 Zn9 3.082818 1_554
Hf8 Zn8 3.082870 1_555
Hf8 Zn6 3.090078 1_554
Hf8 Zn7 3.090098 1_554
Hf9 N3 2.230259 1_555
Hf9 N0 2.230267 1_555
Hf9 Zn2 2.844751 1_455
Hf9 Zn1 2.845022 1_555
Hf9 Zn9 3.082595 1_455
Hf9 Zn10 3.082797 1_555
Hf9 Zn7 3.090041 1_455
Hf9 Zn4 3.090048 1_455
Hf10 N0 2.230257 1_555
Hf10 N2 2.230274 1_555
Hf10 Zn3 2.844871 1_545
Hf10 Zn1 2.844965 1_555
Hf10 Zn11 3.082892 1_555
Hf10 Zn9 3.082893 1_545
Hf10 Zn6 3.090076 1_545
Hf10 Zn4 3.090103 1_545
Hf11 N0 2.230223 1_555
Hf11 N1 2.230231 1_555
Hf11 Zn2 2.844796 1_455
Hf11 Zn3 2.844976 1_545
Hf11 Zn11 3.082518 1_455
Hf11 Zn10 3.082708 1_545
Hf11 Zn4 3.089911 1_445
Hf11 Zn5 3.090047 1_445
Zn0 Zn9 2.570112 1_555
Zn0 Zn11 2.570151 1_555
Zn0 Zn10 2.570258 1_555
Zn0 Zn1 2.755539 1_555
Zn0 Zn3 2.755705 1_555
Zn0 Zn2 2.755781 1_555
Zn1 Zn11 2.570258 1_555
Zn1 Zn8 2.570280 1_555
Zn1 Zn10 2.570369 1_555
Zn1 Zn3 2.755531 1_555
Zn1 Zn2 2.755603 1_555
Zn2 Zn9 2.570035 1_555
Zn2 Zn8 2.570096 1_555
Zn2 Zn3 2.755769 1_555
Zn3 Zn9 2.570145 1_555
Zn3 Zn8 2.570208 1_555
Zn4 Zn9 2.570055 1_555
Zn4 Zn5 2.755597 1_555
Zn4 Zn6 2.755618 1_555
Zn4 Zn7 2.755692 1_555
Zn5 Zn8 2.569863 1_556
Zn5 Zn6 2.755545 1_555
Zn5 Zn7 2.755615 1_555
Zn6 Zn8 2.570039 1_556
Zn6 Zn9 2.570134 1_555
Zn6 Zn7 2.755647 1_555
Zn7 Zn8 2.569925 1_556
Zn7 Zn9 2.570018 1_555
Zn10 Zn5 2.569788 1_455
Zn10 Zn7 2.569836 1_455
Zn10 Zn4 2.569865 1_455
Zn10 Zn3 2.570290 1_555
Zn11 Zn5 2.569896 1_545
Zn11 Zn4 2.569967 1_545
Zn11 Zn6 2.570047 1_545
Zn11 Zn2 2.570080 1_555
