# generated using pymatgen
data_KFePO4
_symmetry_space_group_name_H-M   'P 1'
_cell_length_a   5.40459200
_cell_length_b   6.76300200
_cell_length_c   10.43027000
_cell_angle_alpha   90.00000000
_cell_angle_beta   90.00000000
_cell_angle_gamma   90.00000000
_symmetry_Int_Tables_number   1
_chemical_formula_structural   KFePO4
_chemical_formula_sum   'K4 Fe4 P4 O16'
_cell_volume   381.23957849
_cell_formula_units_Z   4
loop_
 _symmetry_equiv_pos_site_id
 _symmetry_equiv_pos_as_xyz
  1  'x, y, z'
loop_
 _atom_site_type_symbol
 _atom_site_label
 _atom_site_symmetry_multiplicity
 _atom_site_fract_x
 _atom_site_fract_y
 _atom_site_fract_z
 _atom_site_occupancy
  K  K0  1  0.00000000  0.00000000  0.00000000  1
  K  K1  1  0.50000000  0.00000000  0.50000000  1
  K  K2  1  0.00000000  0.50000000  0.00000000  1
  K  K3  1  0.50000000  0.50000000  0.50000000  1
  Fe  Fe0  1  0.02805900  0.75000000  0.29767900  1
  Fe  Fe1  1  0.47194100  0.75000000  0.79767900  1
  Fe  Fe2  1  0.97194100  0.25000000  0.70232100  1
  Fe  Fe3  1  0.52805900  0.25000000  0.20232100  1
  P  P0  1  0.54181700  0.75000000  0.12594200  1
  P  P1  1  0.95818300  0.75000000  0.62594200  1
  P  P2  1  0.45818300  0.25000000  0.87405800  1
  P  P3  1  0.04181700  0.25000000  0.37405800  1
  O  O0  1  0.74394100  0.25000000  0.85752700  1
  O  O1  1  0.16517400  0.43449600  0.31090500  1
  O  O2  1  0.66517400  0.56550400  0.18909500  1
  O  O3  1  0.83482600  0.93449600  0.68909500  1
  O  O4  1  0.33482600  0.06550400  0.81090500  1
  O  O5  1  0.83482600  0.56550400  0.68909500  1
  O  O6  1  0.33482600  0.43449600  0.81090500  1
  O  O7  1  0.16517400  0.06550400  0.31090500  1
  O  O8  1  0.25605900  0.75000000  0.14247300  1
  O  O9  1  0.75605900  0.25000000  0.35752700  1
  O  O10  1  0.66517400  0.93449600  0.18909500  1
  O  O11  1  0.24394100  0.75000000  0.64247300  1
  O  O12  1  0.60227900  0.75000000  0.97880200  1
  O  O13  1  0.39772100  0.25000000  0.02119800  1
  O  O14  1  0.10227900  0.25000000  0.52119800  1
  O  O15  1  0.89772100  0.75000000  0.47880200  1
loop_
_geom_bond_atom_site_label_1
_geom_bond_atom_site_label_2
_geom_bond_distance
_geom_bond_site_symmetry_2
K0 O8 2.642365 1_545
K0 O0 2.642365 1_454
K0 O10 2.713100 1_445
K0 O4 2.713100 1_554
K0 O13 2.743712 1_555
K0 O12 2.743712 1_444
K1 O9 2.642365 1_555
K1 O11 2.642365 1_545
K1 O7 2.713100 1_555
K1 O3 2.713100 1_545
K1 O14 2.743712 1_555
K1 O15 2.743712 1_545
K2 O8 2.642365 1_555
K2 O0 2.642365 1_454
K2 O2 2.713100 1_455
K2 O6 2.713100 1_554
K2 O13 2.743712 1_555
K2 O12 2.743712 1_454
K3 O9 2.642365 1_555
K3 O11 2.642365 1_555
K3 O5 2.713100 1_555
K3 O1 2.713100 1_555
K3 O14 2.743712 1_555
K3 O15 2.743712 1_555
Fe0 O15 2.016220 1_455
Fe0 O8 2.034472 1_555
Fe0 O7 2.262983 1_565
Fe0 O1 2.262983 1_555
Fe0 O2 2.585739 1_455
Fe0 O10 2.585739 1_455
Fe1 O12 2.016220 1_555
Fe1 O11 2.034472 1_555
Fe1 O4 2.262983 1_565
Fe1 O6 2.262983 1_555
Fe1 O5 2.585739 1_555
Fe1 O3 2.585739 1_555
Fe2 O14 2.016220 1_655
Fe2 O0 2.034472 1_555
Fe2 O3 2.262983 1_545
Fe2 O5 2.262983 1_555
Fe2 O6 2.585739 1_655
Fe2 O4 2.585739 1_655
Fe3 O13 2.016220 1_555
Fe3 O9 2.034472 1_555
Fe3 O10 2.262983 1_545
Fe3 O2 2.262983 1_555
Fe3 O1 2.585739 1_555
Fe3 O7 2.585739 1_555
O0 P2 1.554001 1_555
O1 P3 1.560526 1_555
O2 P0 1.560526 1_555
O3 P1 1.560526 1_555
O4 P2 1.560526 1_555
O5 P1 1.560526 1_555
O6 P2 1.560526 1_555
O7 P3 1.560526 1_555
O8 P0 1.554001 1_555
O9 P3 1.554001 1_655
O10 P0 1.560526 1_555
O11 P1 1.554001 1_455
O12 P0 1.569113 1_556
O13 P2 1.569113 1_554
O14 P3 1.569113 1_555
O15 P1 1.569113 1_555
