# generated using pymatgen
data_Na2LiMnPCO7
_symmetry_space_group_name_H-M   'P 1'
_cell_length_a   6.84843400
_cell_length_b   8.82981681
_cell_length_c   10.21140029
_cell_angle_alpha   91.08128535
_cell_angle_beta   90.02737588
_cell_angle_gamma   90.42051031
_symmetry_Int_Tables_number   1
_chemical_formula_structural   Na2LiMnPCO7
_chemical_formula_sum   'Na8 Li4 Mn4 P4 C4 O28'
_cell_volume   617.36093910
_cell_formula_units_Z   4
loop_
 _symmetry_equiv_pos_site_id
 _symmetry_equiv_pos_as_xyz
  1  'x, y, z'
loop_
 _atom_site_type_symbol
 _atom_site_label
 _atom_site_symmetry_multiplicity
 _atom_site_fract_x
 _atom_site_fract_y
 _atom_site_fract_z
 _atom_site_occupancy
  Na  Na0  1  0.25600600  0.08390100  0.12282700  1
  Na  Na1  1  0.99975900  0.25522700  0.37498500  1
  Na  Na2  1  0.00029500  0.25644900  0.87415600  1
  Na  Na3  1  0.50032300  0.25574700  0.87381900  1
  Na  Na4  1  0.50316800  0.74419500  0.12398400  1
  Na  Na5  1  0.99676400  0.74371000  0.12394800  1
  Na  Na6  1  0.50152300  0.74317800  0.62476600  1
  Na  Na7  1  0.99919800  0.74337500  0.62398600  1
  Li  Li0  1  0.25464400  0.08779200  0.62186800  1
  Li  Li1  1  0.47221600  0.27248000  0.38708800  1
  Li  Li2  1  0.74075400  0.91369100  0.37434300  1
  Li  Li3  1  0.74972800  0.90854500  0.87272500  1
  Mn  Mn0  1  0.74801500  0.36039800  0.11305400  1
  Mn  Mn1  1  0.74652900  0.35710700  0.60834800  1
  Mn  Mn2  1  0.24951600  0.64352600  0.38702200  1
  Mn  Mn3  1  0.25066800  0.64040200  0.88822500  1
  P  P0  1  0.25412900  0.40862600  0.14795700  1
  P  P1  1  0.24890200  0.40366200  0.64353600  1
  P  P2  1  0.74536600  0.59325400  0.35289000  1
  P  P3  1  0.75057200  0.59439400  0.85191500  1
  C  C0  1  0.74932600  0.05097400  0.13641700  1
  C  C1  1  0.74983300  0.04982100  0.63537700  1
  C  C2  1  0.25961000  0.95533800  0.37346300  1
  C  C3  1  0.25038000  0.94115900  0.86026200  1
  O  O0  1  0.27632500  0.09915200  0.35304300  1
  O  O1  1  0.24849400  0.08568200  0.83983600  1
  O  O2  1  0.74924300  0.08718400  0.01284300  1
  O  O3  1  0.75173700  0.08786300  0.51254800  1
  O  O4  1  0.74697800  0.15637500  0.22762000  1
  O  O5  1  0.74564600  0.15521600  0.72725200  1
  O  O6  1  0.06752500  0.31605900  0.11023500  1
  O  O7  1  0.43223000  0.31716500  0.09740900  1
  O  O8  1  0.06504500  0.30840200  0.60435700  1
  O  O9  1  0.42673800  0.30616600  0.59729800  1
  O  O10  1  0.26751700  0.42402900  0.30120700  1
  O  O11  1  0.73205200  0.43056500  0.41020000  1
  O  O12  1  0.25459100  0.42511600  0.79586900  1
  O  O13  1  0.75162400  0.43518300  0.91424700  1
  O  O14  1  0.24901200  0.57089900  0.09146000  1
  O  O15  1  0.74791300  0.57492100  0.20063500  1
  O  O16  1  0.25034600  0.56372500  0.58358700  1
  O  O17  1  0.74907500  0.57050500  0.69984900  1
  O  O18  1  0.56920700  0.69448300  0.39404300  1
  O  O19  1  0.93186900  0.68191300  0.39716600  1
  O  O20  1  0.57029500  0.69074500  0.89313000  1
  O  O21  1  0.93215200  0.69169600  0.89227600  1
  O  O22  1  0.24987500  0.85974200  0.27393200  1
  O  O23  1  0.25160800  0.84707000  0.76127300  1
  O  O24  1  0.25137400  0.90454200  0.49206400  1
  O  O25  1  0.25127900  0.88751800  0.97844400  1
  O  O26  1  0.75146100  0.91099300  0.17140600  1
  O  O27  1  0.75156400  0.91013600  0.66980800  1
loop_
_geom_bond_atom_site_label_1
_geom_bond_atom_site_label_2
_geom_bond_distance
_geom_bond_site_symmetry_2
Na0 O25 2.254828 1_544
Na0 O0 2.356131 1_555
Na0 O7 2.397945 1_555
Na0 O6 2.435871 1_555
Na0 O22 2.532639 1_545
Na0 O1 2.890509 1_554
Na1 O0 2.358785 1_655
Na1 O8 2.420891 1_655
Na1 O11 2.430798 1_555
Na1 O4 2.439046 1_555
Na1 O10 2.480980 1_655
Na1 O3 2.661951 1_555
Na1 O6 2.804457 1_655
Na2 O1 2.303016 1_555
Na2 O13 2.360983 1_455
Na2 O12 2.428621 1_555
Na2 O5 2.452478 1_455
Na2 O6 2.499596 1_556
Na2 O2 2.690704 1_456
Na2 O8 2.836040 1_555
Na3 O1 2.300317 1_555
Na3 O13 2.361614 1_555
Na3 O7 2.383781 1_556
Na3 O12 2.404738 1_555
Na3 O5 2.413452 1_555
Na3 O2 2.692832 1_556
Na3 O9 2.911121 1_555
Na4 O26 2.287046 1_555
Na4 O14 2.328623 1_555
Na4 O15 2.394931 1_555
Na4 O20 2.439953 1_554
Na4 O22 2.522705 1_555
Na4 O25 2.624230 1_554
Na4 O18 2.837151 1_555
Na5 O26 2.291069 1_555
Na5 O14 2.332981 1_655
Na5 O15 2.397272 1_555
Na5 O21 2.440954 1_554
Na5 O22 2.512413 1_655
Na5 O25 2.626658 1_654
Na5 O19 2.886883 1_555
Na6 O27 2.292099 1_555
Na6 O16 2.362352 1_555
Na6 O23 2.385571 1_555
Na6 O17 2.422285 1_555
Na6 O18 2.432330 1_555
Na6 O24 2.628233 1_555
Na6 O20 2.827660 1_555
Na7 O27 2.296651 1_555
Na7 O16 2.379240 1_655
Na7 O23 2.391182 1_655
Na7 O19 2.412374 1_555
Na7 O17 2.423171 1_555
Na7 O24 2.619334 1_655
Na7 O21 2.823094 1_555
Li0 O24 2.072203 1_545
Li0 O1 2.226604 1_555
Li0 O9 2.270492 1_555
Li0 O8 2.358497 1_555
Li1 O0 2.052372 1_555
Li1 O10 2.143734 1_555
Li1 O9 2.184263 1_555
Li1 O11 2.263039 1_555
Li2 O3 2.068520 1_565
Li2 O26 2.073297 1_555
Li2 O18 2.269064 1_555
Li2 O19 2.452101 1_555
Li3 O27 2.072423 1_555
Li3 O2 2.109535 1_566
Li3 O20 2.287482 1_555
Li3 O21 2.305683 1_555
Mn0 O15 2.079397 1_555
Mn0 O13 2.146708 1_554
Mn0 O4 2.166421 1_555
Mn0 O7 2.198517 1_555
Mn0 O6 2.225822 1_655
Mn0 O2 2.602721 1_555
Mn1 O17 2.087302 1_555
Mn1 O11 2.138888 1_555
Mn1 O5 2.175702 1_555
Mn1 O8 2.226663 1_655
Mn1 O9 2.234913 1_555
Mn1 O3 2.554147 1_555
Mn2 O10 2.116341 1_555
Mn2 O16 2.139820 1_555
Mn2 O19 2.206270 1_455
Mn2 O18 2.232746 1_555
Mn2 O22 2.249794 1_555
Mn2 O24 2.523627 1_555
Mn3 O12 2.106371 1_555
Mn3 O14 2.175241 1_556
Mn3 O20 2.230775 1_555
Mn3 O21 2.231356 1_455
Mn3 O23 2.258262 1_555
Mn3 O25 2.352406 1_555
C0 O26 1.293255 1_545
C0 O4 1.304327 1_555
C0 O2 1.307576 1_555
C1 O27 1.289027 1_545
C1 O3 1.304612 1_555
C1 O5 1.309392 1_555
C2 O0 1.294986 1_565
C2 O24 1.300487 1_555
C2 O22 1.310207 1_555
C3 O23 1.296320 1_555
C3 O1 1.297080 1_565
C3 O25 1.304744 1_555
O6 P0 1.556244 1_555
O7 P0 1.551015 1_555
O8 P1 1.556998 1_555
O9 P1 1.564578 1_555
O10 P0 1.570813 1_555
O11 P2 1.563400 1_555
O12 P1 1.563905 1_555
O13 P3 1.554149 1_555
O14 P0 1.555315 1_555
O15 P2 1.560219 1_555
O16 P1 1.550738 1_555
O17 P3 1.563138 1_555
O18 P2 1.559840 1_555
O19 P2 1.555649 1_555
O20 P3 1.558075 1_555
O21 P3 1.557199 1_555
