# generated using pymatgen
data_Na3Zr2Si2PO12
_symmetry_space_group_name_H-M   'P 1'
_cell_length_a   9.15085400
_cell_length_b   9.31796998
_cell_length_c   15.89333620
_cell_angle_alpha   105.97565883
_cell_angle_beta   90.18767042
_cell_angle_gamma   118.59040312
_symmetry_Int_Tables_number   1
_chemical_formula_structural   Na3Zr2Si2PO12
_chemical_formula_sum   'Na12 Zr8 Si8 P4 O48'
_cell_volume   1129.25907678
_cell_formula_units_Z   4
loop_
 _symmetry_equiv_pos_site_id
 _symmetry_equiv_pos_as_xyz
  1  'x, y, z'
loop_
 _atom_site_type_symbol
 _atom_site_label
 _atom_site_symmetry_multiplicity
 _atom_site_fract_x
 _atom_site_fract_y
 _atom_site_fract_z
 _atom_site_occupancy
  Na  Na0  1  0.20860400  0.76513400  0.15650400  1
  Na  Na1  1  0.36132700  0.51957800  0.01939100  1
  Na  Na2  1  0.80044500  0.35599700  0.19309800  1
  Na  Na3  1  0.69837200  0.64391100  0.30396100  1
  Na  Na4  1  0.83725400  0.53102100  0.52678900  1
  Na  Na5  1  0.70884900  0.76963900  0.65588200  1
  Na  Na6  1  0.29096900  0.22402500  0.34650200  1
  Na  Na7  1  0.16429700  0.47190700  0.47349900  1
  Na  Na8  1  0.30454700  0.35783000  0.69596000  1
  Na  Na9  1  0.19386900  0.64064300  0.80052900  1
  Na  Na10  1  0.79243200  0.21082100  0.84945500  1
  Na  Na11  1  0.69012400  0.44138800  0.96044700  1
  Zr  Zr0  1  0.47675100  0.79822000  0.32296700  1
  Zr  Zr1  1  0.72241200  0.78762300  0.07751500  1
  Zr  Zr2  1  0.77981600  0.21113600  0.42335500  1
  Zr  Zr3  1  0.02792800  0.20393300  0.17710000  1
  Zr  Zr4  1  0.98037800  0.80176200  0.82191600  1
  Zr  Zr5  1  0.22405100  0.79174300  0.57628200  1
  Zr  Zr6  1  0.27795200  0.20771800  0.92356500  1
  Zr  Zr7  1  0.52503200  0.20165800  0.67755200  1
  Si  Si0  1  0.48480700  0.29261900  0.23602700  1
  Si  Si1  1  0.59536000  0.01368100  0.12389900  1
  Si  Si2  1  0.90597300  0.98573400  0.37586500  1
  Si  Si3  1  0.98436500  0.29326600  0.73480500  1
  Si  Si4  1  0.01772100  0.70803000  0.26446900  1
  Si  Si5  1  0.09607900  0.01579800  0.62382500  1
  Si  Si6  1  0.40659800  0.98313400  0.87612200  1
  Si  Si7  1  0.51868700  0.70844800  0.76458900  1
  P  P0  1  0.52276300  0.29347500  0.47881300  1
  P  P1  1  0.97761800  0.70823400  0.02072900  1
  P  P2  1  0.02282900  0.29355600  0.97967000  1
  P  P3  1  0.48030500  0.70837200  0.52121000  1
  O  O0  1  0.11205600  0.90949600  0.00300800  1
  O  O1  1  0.07113100  0.30970000  0.05547300  1
  O  O2  1  0.28608700  0.27374100  0.21760900  1
  O  O3  1  0.57913200  0.31567000  0.31667200  1
  O  O4  1  0.61250700  0.91088800  0.50240600  1
  O  O5  1  0.56704800  0.48702900  0.14429300  1
  O  O6  1  0.50954500  0.09188100  0.26370300  1
  O  O7  1  0.45132800  0.47057800  0.38942300  1
  O  O8  1  0.50271200  0.85792000  0.21154500  1
  O  O9  1  0.56012600  0.30635300  0.55453200  1
  O  O10  1  0.46492700  0.13345100  0.03430000  1
  O  O11  1  0.85268100  0.12797000  0.37760900  1
  O  O12  1  0.78503300  0.27528200  0.71406800  1
  O  O13  1  0.80998700  0.69193000  0.02978500  1
  O  O14  1  0.73775100  0.81138600  0.37164900  1
  O  O15  1  0.76643600  0.18746900  0.12660400  1
  O  O16  1  0.69275300  0.31400500  0.46956300  1
  O  O17  1  0.64568000  0.86669600  0.12378000  1
  O  O18  1  0.07498100  0.31103200  0.81693400  1
  O  O19  1  0.03923700  0.86810300  0.46423400  1
  O  O20  1  0.99769800  0.14545600  0.28747300  1
  O  O21  1  0.06916100  0.49133300  0.64424300  1
  O  O22  1  0.04680200  0.52909800  0.11034600  1
  O  O23  1  0.01195900  0.09506300  0.76154800  1
  O  O24  1  0.99313500  0.90943600  0.23616000  1
  O  O25  1  0.94520100  0.46780200  0.89225400  1
  O  O26  1  0.93445400  0.51235200  0.35581900  1
  O  O27  1  0.89026400  0.08978100  0.00038900  1
  O  O28  1  0.00114100  0.85407800  0.71144400  1
  O  O29  1  0.96510700  0.13568700  0.53503300  1
  O  O30  1  0.92458700  0.68516800  0.18374500  1
  O  O31  1  0.35081600  0.12296200  0.87828000  1
  O  O32  1  0.31042400  0.68776700  0.53074300  1
  O  O33  1  0.23951300  0.81075900  0.86961600  1
  O  O34  1  0.26406700  0.18828200  0.62955500  1
  O  O35  1  0.18867500  0.31618700  0.96575600  1
  O  O36  1  0.21683100  0.72373100  0.28547200  1
  O  O37  1  0.15074000  0.87308200  0.62289400  1
  O  O38  1  0.54033500  0.86599200  0.96395200  1
  O  O39  1  0.44132600  0.69460200  0.44557300  1
  O  O40  1  0.50074200  0.14655300  0.78816800  1
  O  O41  1  0.55145300  0.53085900  0.61049900  1
  O  O42  1  0.49233500  0.90715800  0.73778000  1
  O  O43  1  0.43295500  0.50766600  0.85465000  1
  O  O44  1  0.39050300  0.09104600  0.49743000  1
  O  O45  1  0.42821100  0.69122100  0.68214400  1
  O  O46  1  0.71797800  0.72116500  0.78764900  1
  O  O47  1  0.94263400  0.69760400  0.94460500  1
loop_
_geom_bond_atom_site_label_1
_geom_bond_atom_site_label_2
_geom_bond_distance
_geom_bond_site_symmetry_2
Na0 O22 1.885657 1_555
Na0 O36 2.194989 1_555
Na0 O8 2.469267 1_555
Na1 O35 1.746616 1_554
Na1 O43 2.686681 1_554
Na1 O5 2.903432 1_555
Na2 O15 1.515342 1_555
Na2 O26 2.551464 1_555
Na3 O14 1.502519 1_555
Na3 O5 2.505491 1_555
Na4 O16 1.756521 1_555
Na4 O26 2.847589 1_555
Na4 O21 3.038115 1_655
Na5 O41 1.894158 1_555
Na5 O46 2.269888 1_555
Na5 O28 2.478083 1_655
Na6 O7 1.949568 1_555
Na6 O2 2.225916 1_555
Na6 O24 2.930665 1_445
Na7 O32 1.752708 1_555
Na7 O21 2.837375 1_555
Na7 O26 3.030629 1_455
Na8 O34 1.505492 1_555
Na8 O43 2.482573 1_555
Na9 O33 1.515919 1_555
Na9 O21 2.442810 1_555
Na10 O25 2.011012 1_555
Na10 O12 2.396830 1_555
Na10 O42 2.909382 1_545
Na11 O13 1.998189 1_556
O0 P1 1.787353 1_455
O1 P2 1.225791 1_554
O1 Zr3 2.354796 1_555
O2 Si0 1.756541 1_555
O2 Zr3 2.169616 1_555
O3 Si0 1.448359 1_555
O3 O6 1.794940 1_555
O4 P3 1.800458 1_555
O5 Si0 2.475839 1_555
O5 Zr1 2.971170 1_555
O6 Si0 2.144966 1_555
O6 Si1 2.398447 1_555
O8 Zr0 1.979997 1_555
O8 Si1 2.169936 1_565
O9 P0 1.207511 1_555
O9 Zr7 2.373146 1_555
O10 Si6 2.429856 1_544
O10 Zr6 2.878831 1_554
O11 Zr2 1.327142 1_555
O11 Si2 1.610467 1_545
O12 Si3 1.771159 1_555
O12 Zr7 2.162824 1_555
O13 P1 1.478950 1_555
O13 Zr1 1.525876 1_555
O14 Si2 1.599776 1_555
O14 Zr0 2.444019 1_555
O15 Si1 1.615503 1_555
O15 Zr3 2.441675 1_655
O16 P0 1.486650 1_555
O16 Zr2 1.562078 1_555
O17 Zr1 1.333002 1_555
O17 Si1 1.640130 1_565
O18 Si3 1.470171 1_455
O18 O23 1.751570 1_555
O19 Si5 2.445973 1_565
O19 Zr5 2.892609 1_555
O20 Zr3 1.958492 1_655
O21 Si3 2.485735 1_455
O21 Zr5 2.981320 1_555
O23 Si3 2.129084 1_455
O23 Si5 2.365273 1_555
O24 O30 1.799478 1_555
O24 Si4 2.154824 1_655
O24 Si2 2.399393 1_555
O26 Si4 2.479457 1_655
O26 Zr2 2.983161 1_555
O27 P2 1.824170 1_654
O28 Zr4 1.934201 1_455
O28 Si5 2.207893 1_565
O29 Si2 2.442598 1_545
O29 Zr2 2.885770 1_555
O30 Si4 1.444427 1_655
O31 Zr6 1.334371 1_555
O31 Si6 1.603551 1_545
O32 P3 1.486054 1_555
O32 Zr5 1.561368 1_555
O33 Si6 1.576511 1_555
O33 Zr4 2.442914 1_455
O34 Si5 1.583781 1_555
O34 Zr7 2.439489 1_555
O35 P2 1.455386 1_555
O35 Zr6 1.599815 1_555
O36 Si4 1.779500 1_555
O36 Zr0 2.162658 1_555
O37 Zr5 1.324432 1_555
O37 Si5 1.626250 1_565
O38 Si1 2.452004 1_566
O38 Zr1 2.904700 1_556
O39 P3 1.207178 1_555
O39 Zr0 2.361064 1_555
O40 Zr7 1.947831 1_555
O42 O45 1.749844 1_555
O42 Si7 2.128135 1_555
O42 Si6 2.374268 1_555
O43 Si7 2.498232 1_555
O43 Zr6 2.987322 1_555
O44 P0 1.798567 1_555
O45 Si7 1.475842 1_555
O46 Si7 1.799742 1_555
O46 Zr4 2.160249 1_555
O47 P1 1.215408 1_556
O47 Zr4 2.364069 1_555
