# generated using pymatgen
data_YTa7O19
_symmetry_space_group_name_H-M   'P 1'
_cell_length_a   6.26644203
_cell_length_b   6.26644203
_cell_length_c   20.11357100
_cell_angle_alpha   90.00000000
_cell_angle_beta   90.00000000
_cell_angle_gamma   120.00000034
_symmetry_Int_Tables_number   1
_chemical_formula_structural   YTa7O19
_chemical_formula_sum   'Y2 Ta14 O38'
_cell_volume   684.00907893
_cell_formula_units_Z   2
loop_
 _symmetry_equiv_pos_site_id
 _symmetry_equiv_pos_as_xyz
  1  'x, y, z'
loop_
 _atom_site_type_symbol
 _atom_site_label
 _atom_site_symmetry_multiplicity
 _atom_site_fract_x
 _atom_site_fract_y
 _atom_site_fract_z
 _atom_site_occupancy
  Y  Y0  1  0.66666700  0.33333300  0.50000000  1
  Y  Y1  1  0.66666700  0.33333300  0.00000000  1
  Ta  Ta0  1  0.69375400  0.02693200  0.65544600  1
  Ta  Ta1  1  0.69375400  0.02693200  0.84455400  1
  Ta  Ta2  1  0.97306800  0.30624600  0.15544600  1
  Ta  Ta3  1  0.97306800  0.30624600  0.34455400  1
  Ta  Ta4  1  0.69375400  0.66682300  0.34455400  1
  Ta  Ta5  1  0.69375400  0.66682300  0.15544600  1
  Ta  Ta6  1  0.00000000  0.00000000  0.00000000  1
  Ta  Ta7  1  0.00000000  0.00000000  0.50000000  1
  Ta  Ta8  1  0.97306800  0.66682300  0.65544600  1
  Ta  Ta9  1  0.97306800  0.66682300  0.84455400  1
  Ta  Ta10  1  0.33317700  0.30624600  0.65544600  1
  Ta  Ta11  1  0.33317700  0.30624600  0.84455400  1
  Ta  Ta12  1  0.33317700  0.02693200  0.34455400  1
  Ta  Ta13  1  0.33317700  0.02693200  0.15544600  1
  O  O0  1  0.33318600  0.41938900  0.15328200  1
  O  O1  1  0.33318600  0.41938900  0.34671800  1
  O  O2  1  0.37583900  0.29319300  0.75000000  1
  O  O3  1  0.58061100  0.66681400  0.84671800  1
  O  O4  1  0.58061100  0.66681400  0.65328200  1
  O  O5  1  0.37583900  0.08264700  0.25000000  1
  O  O6  1  0.33318600  0.91379700  0.65328200  1
  O  O7  1  0.33318600  0.91379700  0.84671800  1
  O  O8  1  0.70680700  0.62416100  0.25000000  1
  O  O9  1  0.66666700  0.33333300  0.63101900  1
  O  O10  1  0.66666700  0.33333300  0.36898100  1
  O  O11  1  0.66666700  0.33333300  0.13101900  1
  O  O12  1  0.66666700  0.33333300  0.86898100  1
  O  O13  1  0.91735300  0.62416100  0.75000000  1
  O  O14  1  0.58061100  0.91379700  0.15328200  1
  O  O15  1  0.58061100  0.91379700  0.34671800  1
  O  O16  1  0.70680700  0.08264700  0.75000000  1
  O  O17  1  0.76143300  0.04972000  0.55569900  1
  O  O18  1  0.76143300  0.04972000  0.94430100  1
  O  O19  1  0.08620300  0.66681400  0.34671800  1
  O  O20  1  0.08620300  0.66681400  0.15328200  1
  O  O21  1  0.91735300  0.29319300  0.25000000  1
  O  O22  1  0.95028000  0.23856700  0.44430100  1
  O  O23  1  0.95028000  0.23856700  0.05569900  1
  O  O24  1  0.08620300  0.41938900  0.65328200  1
  O  O25  1  0.08620300  0.41938900  0.84671800  1
  O  O26  1  0.76143300  0.71171300  0.05569900  1
  O  O27  1  0.76143300  0.71171300  0.44430100  1
  O  O28  1  0.00000000  0.00000000  0.83352800  1
  O  O29  1  0.00000000  0.00000000  0.33352800  1
  O  O30  1  0.00000000  0.00000000  0.16647200  1
  O  O31  1  0.00000000  0.00000000  0.66647200  1
  O  O32  1  0.95028000  0.71171300  0.55569900  1
  O  O33  1  0.95028000  0.71171300  0.94430100  1
  O  O34  1  0.28828700  0.23856700  0.55569900  1
  O  O35  1  0.28828700  0.23856700  0.94430100  1
  O  O36  1  0.28828700  0.04972000  0.05569900  1
  O  O37  1  0.28828700  0.04972000  0.44430100  1
loop_
_geom_bond_atom_site_label_1
_geom_bond_atom_site_label_2
_geom_bond_distance
_geom_bond_site_symmetry_2
O0 Ta2 1.999277 1_455
O0 Ta5 2.001972 1_555
O0 Ta13 2.459666 1_555
O1 Ta3 1.999277 1_455
O1 Ta4 2.001972 1_555
O1 Ta12 2.459666 1_555
O2 Ta10 1.927937 1_555
O2 Ta11 1.927937 1_555
O3 Ta1 1.999277 1_565
O3 Ta11 2.001972 1_555
O3 Ta9 2.459666 1_555
O4 Ta0 1.999277 1_565
O4 Ta10 2.001972 1_555
O4 Ta8 2.459666 1_555
O5 Ta13 1.927937 1_555
O5 Ta12 1.927937 1_555
O6 Ta8 1.999276 1_455
O6 Ta0 2.001971 1_565
O6 Ta10 2.459672 1_565
O7 Ta9 1.999276 1_455
O7 Ta1 2.001971 1_565
O7 Ta11 2.459672 1_565
O8 Ta5 1.927937 1_555
O8 Ta4 1.927937 1_555
O9 Ta0 2.069463 1_555
O9 Ta8 2.069470 1_555
O9 Ta10 2.069475 1_555
O9 Y0 2.635260 1_555
O10 Ta3 2.069463 1_555
O10 Ta12 2.069470 1_555
O10 Ta4 2.069475 1_555
O10 Y0 2.635260 1_555
O11 Ta2 2.069463 1_555
O11 Ta13 2.069470 1_555
O11 Ta5 2.069475 1_555
O11 Y1 2.635260 1_555
O12 Ta1 2.069463 1_555
O12 Ta9 2.069470 1_555
O12 Ta11 2.069475 1_555
O12 Y1 2.635260 1_556
O13 Ta8 1.927937 1_555
O13 Ta9 1.927937 1_555
O14 Ta5 1.999271 1_555
O14 Ta13 2.001977 1_565
O14 Ta2 2.459669 1_565
O15 Ta4 1.999271 1_555
O15 Ta12 2.001977 1_565
O15 Ta3 2.459669 1_565
O16 Ta0 1.927937 1_555
O16 Ta1 1.927937 1_555
O17 Ta7 2.013173 1_655
O17 Ta0 2.040786 1_555
O17 Y0 2.412829 1_555
O18 Ta6 2.013173 1_656
O18 Ta1 2.040786 1_555
O18 Y1 2.412829 1_556
O19 Ta12 1.999276 1_565
O19 Ta3 2.001971 1_455
O19 Ta4 2.459672 1_455
O20 Ta13 1.999276 1_565
O20 Ta2 2.001971 1_455
O20 Ta5 2.459672 1_455
O21 Ta2 1.927937 1_555
O21 Ta3 1.927937 1_555
O22 Ta7 2.013173 1_655
O22 Ta3 2.040786 1_555
O22 Y0 2.412829 1_555
O23 Ta6 2.013173 1_655
O23 Ta2 2.040786 1_555
O23 Y1 2.412829 1_555
O24 Ta10 1.999271 1_555
O24 Ta8 2.001977 1_455
O24 Ta0 2.459669 1_455
O25 Ta11 1.999271 1_555
O25 Ta9 2.001977 1_455
O25 Ta1 2.459669 1_455
O26 Ta6 2.013173 1_665
O26 Ta5 2.040786 1_555
O26 Y1 2.412834 1_555
O27 Ta7 2.013173 1_665
O27 Ta4 2.040786 1_555
O27 Y0 2.412834 1_555
O28 Ta9 2.020980 1_445
O28 Ta11 2.020982 1_555
O28 Ta1 2.020986 1_455
O29 Ta12 2.020980 1_555
O29 Ta4 2.020982 1_445
O29 Ta3 2.020986 1_455
O30 Ta13 2.020980 1_555
O30 Ta5 2.020982 1_445
O30 Ta2 2.020986 1_455
O31 Ta8 2.020980 1_445
O31 Ta10 2.020982 1_555
O31 Ta0 2.020986 1_455
O32 Ta7 2.013173 1_665
O32 Ta8 2.040785 1_555
O32 Y0 2.412833 1_555
O33 Ta6 2.013173 1_666
O33 Ta9 2.040785 1_555
O33 Y1 2.412833 1_556
O34 Ta7 2.013173 1_555
O34 Ta10 2.040786 1_555
O34 Y0 2.412834 1_555
O35 Ta6 2.013173 1_556
O35 Ta11 2.040786 1_555
O35 Y1 2.412834 1_556
O36 Ta6 2.013173 1_555
O36 Ta13 2.040785 1_555
O36 Y1 2.412833 1_555
O37 Ta7 2.013173 1_555
O37 Ta12 2.040785 1_555
O37 Y0 2.412833 1_555
