# generated using pymatgen
data_Li4V2(PO4)3
_symmetry_space_group_name_H-M   'P 1'
_cell_length_a   8.43220400
_cell_length_b   8.43731792
_cell_length_c   9.18322301
_cell_angle_alpha   63.07517437
_cell_angle_beta   63.09860658
_cell_angle_gamma   60.86730068
_symmetry_Int_Tables_number   1
_chemical_formula_structural   Li4V2(PO4)3
_chemical_formula_sum   'Li8 V4 P6 O24'
_cell_volume   485.72626672
_cell_formula_units_Z   2
loop_
 _symmetry_equiv_pos_site_id
 _symmetry_equiv_pos_as_xyz
  1  'x, y, z'
loop_
 _atom_site_type_symbol
 _atom_site_label
 _atom_site_symmetry_multiplicity
 _atom_site_fract_x
 _atom_site_fract_y
 _atom_site_fract_z
 _atom_site_occupancy
  Li  Li0  1  0.33874000  0.07914100  0.85727100  1
  Li  Li1  1  0.72799200  0.33392600  0.85936000  1
  Li  Li2  1  0.06557900  0.72811200  0.89894600  1
  Li  Li3  1  0.78873000  0.26054100  0.41180900  1
  Li  Li4  1  0.21127000  0.73945900  0.58819100  1
  Li  Li5  1  0.93442100  0.27188800  0.10105400  1
  Li  Li6  1  0.27200800  0.66607400  0.14064000  1
  Li  Li7  1  0.66126000  0.92085900  0.14272900  1
  V  V0  1  0.15057600  0.14761900  0.56063300  1
  V  V1  1  0.84942400  0.85238100  0.43936700  1
  V  V2  1  0.35019600  0.34719600  0.96004700  1
  V  V3  1  0.64980400  0.65280400  0.03995300  1
  P  P0  1  0.75570500  0.03860900  0.75663300  1
  P  P1  1  0.04460900  0.46231000  0.74467400  1
  P  P2  1  0.45665200  0.74979300  0.75059500  1
  P  P3  1  0.54334800  0.25020700  0.24940500  1
  P  P4  1  0.95539100  0.53769000  0.25532600  1
  P  P5  1  0.24429500  0.96139100  0.24336700  1
  O  O0  1  0.19961100  0.15040000  0.09597900  1
  O  O1  1  0.56431500  0.19887300  0.09636100  1
  O  O2  1  0.14281500  0.54856800  0.10602200  1
  O  O3  1  0.54372700  0.16088800  0.80425600  1
  O  O4  1  0.88108400  0.14273500  0.73164000  1
  O  O5  1  0.81195000  0.00580100  0.58424000  1
  O  O6  1  0.15266400  0.25920500  0.72337300  1
  O  O7  1  0.16454200  0.51346300  0.79495800  1
  O  O8  1  0.50320100  0.53601400  0.79848600  1
  O  O9  1  0.39285100  0.18620700  0.41077800  1
  O  O10  1  0.74507400  0.14052600  0.28154800  1
  O  O11  1  0.99048200  0.38339000  0.42075600  1
  O  O12  1  0.00951800  0.61661000  0.57924400  1
  O  O13  1  0.25492600  0.85947400  0.71845200  1
  O  O14  1  0.60714900  0.81379300  0.58922200  1
  O  O15  1  0.49679900  0.46398600  0.20151400  1
  O  O16  1  0.83545800  0.48653700  0.20504200  1
  O  O17  1  0.84733600  0.74079500  0.27662700  1
  O  O18  1  0.18805000  0.99419900  0.41576000  1
  O  O19  1  0.11891600  0.85726500  0.26836000  1
  O  O20  1  0.45627300  0.83911200  0.19574400  1
  O  O21  1  0.85718500  0.45143200  0.89397800  1
  O  O22  1  0.43568500  0.80112700  0.90363900  1
  O  O23  1  0.80038900  0.84960000  0.90402100  1
loop_
_geom_bond_atom_site_label_1
_geom_bond_atom_site_label_2
_geom_bond_distance
_geom_bond_site_symmetry_2
Li0 O3 1.948234 1_555
Li0 O22 1.973632 1_545
Li0 O6 2.003742 1_555
Li0 O0 2.173202 1_556
Li1 O8 1.939442 1_555
Li1 O21 1.980203 1_555
Li1 O4 1.990004 1_555
Li1 O1 2.123012 1_556
Li2 O23 1.941744 1_455
Li2 O2 1.971386 1_556
Li2 O13 2.046810 1_555
Li2 O7 2.064435 1_555
Li3 O5 1.988432 1_555
Li3 O16 2.042565 1_555
Li3 O10 2.109556 1_555
Li3 O11 2.428119 1_555
Li4 O18 1.988432 1_555
Li4 O7 2.042565 1_555
Li4 O13 2.109556 1_555
Li4 O12 2.428119 1_555
Li5 O0 1.941744 1_655
Li5 O21 1.971386 1_554
Li5 O10 2.046810 1_555
Li5 O16 2.064435 1_555
Li6 O15 1.939442 1_555
Li6 O2 1.980203 1_555
Li6 O19 1.990004 1_555
Li6 O22 2.123012 1_554
Li7 O20 1.948234 1_555
Li7 O1 1.973632 1_565
Li7 O17 2.003742 1_555
Li7 O23 2.173202 1_554
O0 P5 1.561642 1_545
O0 V2 2.160776 1_554
O1 P3 1.563964 1_555
O1 V2 2.195318 1_554
O2 P4 1.566017 1_455
O2 V2 2.188656 1_554
O3 P0 1.535031 1_555
O3 V2 2.146439 1_555
O4 P0 1.563458 1_555
O4 V0 2.105945 1_655
O5 P0 1.548371 1_555
O5 V1 2.079998 1_545
O6 P1 1.557917 1_555
O6 V0 2.105798 1_555
O7 P1 1.565338 1_555
O7 V2 2.190971 1_555
O8 P2 1.532759 1_555
O8 V2 2.128919 1_555
O9 P3 1.529322 1_555
O9 V0 1.967511 1_555
O10 P3 1.584675 1_555
O10 V1 2.159945 1_545
O11 P4 1.526722 1_555
O11 V0 2.017388 1_655
O12 P1 1.526722 1_555
O12 V1 2.017388 1_455
O13 P2 1.584675 1_555
O13 V0 2.159945 1_565
O14 P2 1.529322 1_555
O14 V1 1.967511 1_555
O15 P3 1.532759 1_555
O15 V3 2.128919 1_555
O16 P4 1.565338 1_555
O16 V3 2.190971 1_555
O17 P4 1.557917 1_555
O17 V1 2.105798 1_555
O18 P5 1.548371 1_555
O18 V0 2.079998 1_565
O19 P5 1.563458 1_555
O19 V1 2.105945 1_455
O20 P5 1.535031 1_555
O20 V3 2.146439 1_555
O21 P1 1.566017 1_655
O21 V3 2.188656 1_556
O22 P2 1.563964 1_555
O22 V3 2.195318 1_556
O23 P0 1.561642 1_565
O23 V3 2.160776 1_556
