# generated using pymatgen
data_Li6Ti3P8O29
_symmetry_space_group_name_H-M   'P 1'
_cell_length_a   9.84016400
_cell_length_b   9.84339469
_cell_length_c   13.89600715
_cell_angle_alpha   89.57860535
_cell_angle_beta   89.65853658
_cell_angle_gamma   60.28263094
_symmetry_Int_Tables_number   1
_chemical_formula_structural   Li6Ti3P8O29
_chemical_formula_sum   'Li12 Ti6 P16 O58'
_cell_volume   1168.91905438
_cell_formula_units_Z   2
loop_
 _symmetry_equiv_pos_site_id
 _symmetry_equiv_pos_as_xyz
  1  'x, y, z'
loop_
 _atom_site_type_symbol
 _atom_site_label
 _atom_site_symmetry_multiplicity
 _atom_site_fract_x
 _atom_site_fract_y
 _atom_site_fract_z
 _atom_site_occupancy
  Li  Li0  1  0.01444700  0.03154900  0.50305200  1
  Li  Li1  1  0.00030700  0.99992200  0.99991200  1
  Li  Li2  1  0.08846200  0.67603600  0.06237800  1
  Li  Li3  1  0.32894000  0.32841600  0.88616400  1
  Li  Li4  1  0.23637300  0.66396800  0.55994100  1
  Li  Li5  1  0.66162100  0.10015000  0.56128400  1
  Li  Li6  1  0.33757200  0.76584400  0.94176500  1
  Li  Li7  1  0.67288600  0.23346800  0.06233800  1
  Li  Li8  1  0.33553800  0.90636400  0.43647800  1
  Li  Li9  1  0.76580200  0.33635200  0.43911800  1
  Li  Li10  1  0.90209500  0.33614100  0.93802600  1
  Li  Li11  1  0.90057800  0.76645500  0.43968000  1
  Ti  Ti0  1  0.00332800  0.42994800  0.74439400  1
  Ti  Ti1  1  0.99631000  0.56105600  0.24981300  1
  Ti  Ti2  1  0.43475700  0.00421200  0.24367600  1
  Ti  Ti3  1  0.56811900  0.99303400  0.75342000  1
  Ti  Ti4  1  0.43523200  0.56731800  0.74841100  1
  Ti  Ti5  1  0.56333500  0.43719000  0.25159100  1
  P  P0  1  0.08420000  0.21876500  0.33943500  1
  P  P1  1  0.21972300  0.08500800  0.84060900  1
  P  P2  1  0.09103500  0.68477200  0.84640400  1
  P  P3  1  0.33296400  0.33784600  0.12724600  1
  P  P4  1  0.33787800  0.33297800  0.62678600  1
  P  P5  1  0.22369800  0.68666300  0.34308900  1
  P  P6  1  0.31230300  0.77496700  0.15842800  1
  P  P7  1  0.68790700  0.08405300  0.34555900  1
  P  P8  1  0.30858900  0.91771200  0.65300100  1
  P  P9  1  0.68238700  0.22467900  0.84277500  1
  P  P10  1  0.77425500  0.31119300  0.65776900  1
  P  P11  1  0.66984700  0.66035600  0.87291900  1
  P  P12  1  0.66382900  0.66954500  0.37257700  1
  P  P13  1  0.91347200  0.30929300  0.15306700  1
  P  P14  1  0.77984600  0.91709500  0.15828500  1
  P  P15  1  0.91659500  0.77441800  0.66015600  1
  O  O0  1  0.00990600  0.19645800  0.24100400  1
  O  O1  1  0.98631700  0.22937100  0.06013200  1
  O  O2  1  0.08021900  0.25405100  0.84273900  1
  O  O3  1  0.19661200  0.01395900  0.74122200  1
  O  O4  1  0.22503700  0.99032000  0.56032700  1
  O  O5  1  0.25358400  0.08250000  0.34047100  1
  O  O6  1  0.07941300  0.37758700  0.32949600  1
  O  O7  1  0.19366700  0.33062400  0.67538900  1
  O  O8  1  0.10248200  0.52374300  0.83271400  1
  O  O9  1  0.00522300  0.77326600  0.57032500  1
  O  O10  1  0.00215000  0.79280200  0.75346300  1
  O  O11  1  0.08121200  0.66151500  0.34296000  1
  O  O12  1  0.32918100  0.19402200  0.17170700  1
  O  O13  1  0.37184800  0.09570400  0.83212800  1
  O  O14  1  0.18630100  0.48956600  0.16605200  1
  O  O15  1  0.33584400  0.33937800  0.01885300  1
  O  O16  1  0.33640200  0.34078500  0.51954300  1
  O  O17  1  0.32987800  0.48672200  0.66871700  1
  O  O18  1  0.53364400  0.08522600  0.32959700  1
  O  O19  1  0.48878800  0.18720800  0.66760500  1
  O  O20  1  0.25883100  0.66201200  0.84129600  1
  O  O21  1  0.20141100  0.79456000  0.24995000  1
  O  O22  1  0.22538600  0.77384400  0.06896400  1
  O  O23  1  0.22627600  0.77402300  0.43182600  1
  O  O24  1  0.37678100  0.53126400  0.32903300  1
  O  O25  1  0.48599600  0.33108500  0.16607400  1
  O  O26  1  0.33440600  0.74880900  0.66106000  1
  O  O27  1  0.52116300  0.37392000  0.83029400  1
  O  O28  1  0.65754900  0.08303100  0.84045200  1
  O  O29  1  0.21430200  0.98682600  0.92194800  1
  O  O30  1  0.79173800  0.01088800  0.07625100  1
  O  O31  1  0.80208600  0.99186800  0.25709500  1
  O  O32  1  0.34041600  0.91395600  0.16200000  1
  O  O33  1  0.46690700  0.62060400  0.17274800  1
  O  O34  1  0.66299200  0.25199200  0.34295500  1
  O  O35  1  0.51902700  0.66358900  0.83028000  1
  O  O36  1  0.62074500  0.46543000  0.67111100  1
  O  O37  1  0.77571900  0.22281700  0.56829400  1
  O  O38  1  0.76954300  0.22956000  0.93092600  1
  O  O39  1  0.79124300  0.20458100  0.75049700  1
  O  O40  1  0.74483200  0.33658900  0.16226600  1
  O  O41  1  0.51322400  0.81318600  0.33123000  1
  O  O42  1  0.46233100  0.91806700  0.66970900  1
  O  O43  1  0.67293900  0.51482400  0.33206700  1
  O  O44  1  0.66284700  0.65945900  0.98007200  1
  O  O45  1  0.66736200  0.66618000  0.48023600  1
  O  O46  1  0.81754600  0.51185200  0.83250300  1
  O  O47  1  0.62258600  0.91940300  0.16811500  1
  O  O48  1  0.66660000  0.80789600  0.82548200  1
  O  O49  1  0.91519200  0.33724000  0.66110000  1
  O  O50  1  0.98883400  0.20937900  0.42168300  1
  O  O51  1  0.91201700  0.46548700  0.16976900  1
  O  O52  1  0.81063400  0.67590500  0.32992000  1
  O  O53  1  0.91288100  0.62122800  0.67397200  1
  O  O54  1  0.74989700  0.91724000  0.66032400  1
  O  O55  1  0.77258600  0.99922400  0.43686500  1
  O  O56  1  0.91700400  0.74692900  0.15908600  1
  O  O57  1  0.01080500  0.77147600  0.93628900  1
loop_
_geom_bond_atom_site_label_1
_geom_bond_atom_site_label_2
_geom_bond_distance
_geom_bond_site_symmetry_2
Li0 O50 1.985692 1_455
Li0 O4 2.067231 1_545
Li0 O37 2.345160 1_455
Li0 O23 2.554208 1_545
Li1 O30 2.259471 1_466
Li1 O29 2.308733 1_555
Li1 O1 2.353394 1_466
Li1 O57 2.376288 1_555
Li1 O22 2.426052 1_556
Li1 O38 2.467777 1_465
Li2 O57 1.953581 1_554
Li2 O56 1.989712 1_455
Li2 O22 2.009851 1_555
Li2 O14 2.144075 1_555
Li3 O15 1.851410 1_556
Li3 O8 2.228221 1_555
Li3 O13 2.247648 1_555
Li3 O27 2.280030 1_555
Li4 O9 1.980934 1_555
Li4 O23 2.054237 1_555
Li4 O26 2.105845 1_555
Li4 O17 2.135786 1_555
Li5 O37 2.018688 1_555
Li5 O55 2.023782 1_545
Li5 O54 2.077860 1_545
Li5 O19 2.086458 1_555
Li6 O29 1.912581 1_555
Li6 O22 2.059545 1_556
Li6 O20 2.100744 1_555
Li6 O35 2.193041 1_555
Li7 O30 1.913485 1_555
Li7 O38 2.045682 1_554
Li7 O40 2.050534 1_555
Li7 O25 2.149441 1_555
Li8 O4 1.983646 1_555
Li8 O5 2.007178 1_565
Li8 O23 2.061019 1_555
Li8 O41 2.106332 1_555
Li9 O50 1.927688 1_555
Li9 O37 2.084484 1_555
Li9 O34 2.089016 1_555
Li9 O43 2.126107 1_555
Li10 O1 1.948706 1_556
Li10 O2 2.015509 1_655
Li10 O38 2.042405 1_555
Li10 O46 2.093901 1_555
Li11 O55 1.993935 1_555
Li11 O11 2.050463 1_655
Li11 O9 2.110256 1_655
Li11 O52 2.173088 1_555
O0 P13 1.605058 1_455
O0 P0 1.621428 1_555
O1 P13 1.498438 1_555
O2 P1 1.545849 1_555
O2 Ti0 2.028941 1_555
O3 P8 1.606414 1_545
O3 P1 1.619831 1_555
O4 P8 1.503892 1_555
O5 P0 1.536525 1_555
O5 Ti2 2.050831 1_555
O6 P0 1.545717 1_555
O6 Ti1 1.916625 1_455
O7 P4 1.578405 1_555
O7 Ti0 1.886857 1_555
O8 P2 1.545476 1_555
O8 Ti0 2.057836 1_555
O9 P15 1.515379 1_455
O10 P15 1.609399 1_455
O10 P2 1.623243 1_555
O11 P5 1.539891 1_555
O11 Ti1 2.049878 1_455
O12 P3 1.557711 1_555
O12 Ti2 1.905453 1_555
O13 P1 1.555558 1_555
O13 Ti3 2.000898 1_545
O14 P3 1.571509 1_555
O14 Ti1 2.006718 1_455
O15 P3 1.506433 1_555
O16 P4 1.491451 1_555
O17 P4 1.590686 1_555
O17 Ti4 1.942307 1_555
O18 P7 1.529763 1_555
O18 Ti2 1.950771 1_555
O19 P4 1.572038 1_555
O19 Ti3 2.045211 1_545
O20 P2 1.553571 1_555
O20 Ti4 1.983616 1_555
O21 P5 1.613518 1_555
O21 P6 1.619806 1_555
O22 P6 1.516377 1_555
O23 P5 1.515986 1_555
O24 P5 1.537370 1_555
O24 Ti5 1.921248 1_555
O25 P3 1.572564 1_555
O25 Ti5 1.974651 1_555
O26 P8 1.555665 1_555
O26 Ti4 1.968360 1_555
O27 P9 1.547233 1_555
O27 Ti4 2.004346 1_555
O28 P9 1.530837 1_555
O28 Ti3 1.955295 1_545
O29 P1 1.499578 1_565
O30 P14 1.501861 1_545
O31 P7 1.608124 1_565
O31 P14 1.628824 1_555
O32 P6 1.525500 1_555
O32 Ti2 1.945339 1_565
O33 P6 1.539523 1_555
O33 Ti5 1.909208 1_555
O34 P7 1.546458 1_555
O34 Ti5 2.026124 1_555
O35 P11 1.586819 1_555
O35 Ti4 1.916738 1_555
O36 P10 1.532390 1_555
O36 Ti4 1.915561 1_555
O37 P10 1.518600 1_555
O38 P9 1.514124 1_555
O39 P10 1.611938 1_555
O39 P9 1.614951 1_555
O40 P13 1.548617 1_555
O40 Ti5 1.987265 1_555
O41 P12 1.564055 1_555
O41 Ti2 2.037208 1_565
O42 P8 1.533643 1_555
O42 Ti3 1.941638 1_555
O43 P12 1.587779 1_555
O43 Ti5 1.960063 1_555
O44 P11 1.490345 1_555
O45 P12 1.496383 1_555
O46 P11 1.568612 1_555
O46 Ti0 2.004415 1_655
O47 P14 1.541587 1_555
O47 Ti2 1.917161 1_565
O48 P11 1.576347 1_555
O48 Ti3 1.869961 1_555
O49 P10 1.531236 1_555
O49 Ti0 1.933080 1_655
O50 P0 1.505672 1_655
O51 P13 1.549612 1_555
O51 Ti1 1.900041 1_555
O52 P12 1.587773 1_555
O52 Ti1 1.949828 1_555
O53 P15 1.536971 1_555
O53 Ti0 1.901766 1_655
O54 P15 1.542982 1_555
O54 Ti3 2.023176 1_555
O55 P7 1.519398 1_565
O56 P14 1.544641 1_555
O56 Ti1 2.026868 1_555
O57 P2 1.499227 1_555
