# generated using pymatgen
data_Li2MgTi3O8
_symmetry_space_group_name_H-M   'P 1'
_cell_length_a   8.45035000
_cell_length_b   8.45035000
_cell_length_c   8.45035000
_cell_angle_alpha   90.00000000
_cell_angle_beta   90.00000000
_cell_angle_gamma   90.00000000
_symmetry_Int_Tables_number   1
_chemical_formula_structural   Li2MgTi3O8
_chemical_formula_sum   'Li8 Mg4 Ti12 O32'
_cell_volume   603.42610073
_cell_formula_units_Z   4
loop_
 _symmetry_equiv_pos_site_id
 _symmetry_equiv_pos_as_xyz
  1  'x, y, z'
loop_
 _atom_site_type_symbol
 _atom_site_label
 _atom_site_symmetry_multiplicity
 _atom_site_fract_x
 _atom_site_fract_y
 _atom_site_fract_z
 _atom_site_occupancy
  Li  Li0  1  0.00240900  0.49759100  0.50240900  1
  Li  Li1  1  0.12455500  0.87544500  0.37544500  1
  Li  Li2  1  0.37544500  0.12455500  0.87544500  1
  Li  Li3  1  0.49759100  0.50240900  0.00240900  1
  Li  Li4  1  0.50240900  0.00240900  0.49759100  1
  Li  Li5  1  0.62455500  0.62455500  0.62455500  1
  Li  Li6  1  0.87544500  0.37544500  0.12455500  1
  Li  Li7  1  0.99759100  0.99759100  0.99759100  1
  Mg  Mg0  1  0.24706900  0.74706900  0.75293100  1
  Mg  Mg1  1  0.25293100  0.25293100  0.25293100  1
  Mg  Mg2  1  0.74706900  0.75293100  0.24706900  1
  Mg  Mg3  1  0.75293100  0.24706900  0.74706900  1
  Ti  Ti0  1  0.11985700  0.62681800  0.13416400  1
  Ti  Ti1  1  0.12681800  0.36583600  0.88014300  1
  Ti  Ti2  1  0.13416400  0.11985700  0.62681800  1
  Ti  Ti3  1  0.36583600  0.88014300  0.12681800  1
  Ti  Ti4  1  0.37318200  0.63416400  0.38014300  1
  Ti  Ti5  1  0.38014300  0.37318200  0.63416400  1
  Ti  Ti6  1  0.61985700  0.87318200  0.86583600  1
  Ti  Ti7  1  0.62681800  0.13416400  0.11985700  1
  Ti  Ti8  1  0.63416400  0.38014300  0.37318200  1
  Ti  Ti9  1  0.86583600  0.61985700  0.87318200  1
  Ti  Ti10  1  0.87318200  0.86583600  0.61985700  1
  Ti  Ti11  1  0.88014300  0.12681800  0.36583600  1
  O  O0  1  0.10701900  0.12818800  0.38946000  1
  O  O1  1  0.11180200  0.61180200  0.88819800  1
  O  O2  1  0.11054000  0.89298100  0.62818800  1
  O  O3  1  0.12211500  0.14418500  0.85890900  1
  O  O4  1  0.12818800  0.38946000  0.10701900  1
  O  O5  1  0.14109100  0.62211500  0.35581500  1
  O  O6  1  0.13878500  0.36121500  0.63878500  1
  O  O7  1  0.14418500  0.85890900  0.12211500  1
  O  O8  1  0.35581500  0.14109100  0.62211500  1
  O  O9  1  0.36121500  0.63878500  0.13878500  1
  O  O10  1  0.35890900  0.37788500  0.85581500  1
  O  O11  1  0.37181200  0.61054000  0.60701900  1
  O  O12  1  0.37788500  0.85581500  0.35890900  1
  O  O13  1  0.38946000  0.10701900  0.12818800  1
  O  O14  1  0.38819800  0.38819800  0.38819800  1
  O  O15  1  0.39298100  0.87181200  0.88946000  1
  O  O16  1  0.60701900  0.37181200  0.61054000  1
  O  O17  1  0.61180200  0.88819800  0.11180200  1
  O  O18  1  0.61054000  0.60701900  0.37181200  1
  O  O19  1  0.62211500  0.35581500  0.14109100  1
  O  O20  1  0.62818800  0.11054000  0.89298100  1
  O  O21  1  0.64109100  0.87788500  0.64418500  1
  O  O22  1  0.63878500  0.13878500  0.36121500  1
  O  O23  1  0.64418500  0.64109100  0.87788500  1
  O  O24  1  0.85581500  0.35890900  0.37788500  1
  O  O25  1  0.86121500  0.86121500  0.86121500  1
  O  O26  1  0.85890900  0.12211500  0.14418500  1
  O  O27  1  0.87181200  0.88946000  0.39298100  1
  O  O28  1  0.87788500  0.64418500  0.64109100  1
  O  O29  1  0.88946000  0.39298100  0.87181200  1
  O  O30  1  0.88819800  0.11180200  0.61180200  1
  O  O31  1  0.89298100  0.62818800  0.11054000  1
loop_
_geom_bond_atom_site_label_1
_geom_bond_atom_site_label_2
_geom_bond_distance
_geom_bond_site_symmetry_2
Li0 O6 1.996059 1_555
Li0 O28 2.003797 1_455
Li0 O24 2.003797 1_455
Li0 O5 2.003797 1_555
Li1 O0 2.144175 1_565
Li1 O27 2.144175 1_455
Li1 O2 2.144175 1_555
Li1 O7 2.151687 1_555
Li1 O5 2.151687 1_555
Li1 O12 2.151687 1_555
Li2 O13 2.144175 1_556
Li2 O15 2.144175 1_545
Li2 O20 2.144175 1_555
Li2 O3 2.151687 1_555
Li2 O8 2.151687 1_555
Li2 O10 2.151687 1_555
Li3 O9 1.996059 1_555
Li3 O23 2.003797 1_554
Li3 O10 2.003797 1_554
Li3 O19 2.003797 1_555
Li4 O22 1.996059 1_555
Li4 O21 2.003797 1_545
Li4 O8 2.003797 1_555
Li4 O12 2.003797 1_545
Li5 O18 2.144175 1_555
Li5 O16 2.144175 1_555
Li5 O11 2.144175 1_555
Li5 O23 2.151687 1_555
Li5 O21 2.151687 1_555
Li5 O28 2.151687 1_555
Li6 O29 2.144175 1_554
Li6 O4 2.144175 1_655
Li6 O31 2.144175 1_555
Li6 O26 2.151687 1_555
Li6 O24 2.151687 1_555
Li6 O19 2.151687 1_555
Li7 O25 1.996059 1_555
Li7 O7 2.003797 1_656
Li7 O3 2.003797 1_665
Li7 O26 2.003797 1_566
Mg0 O1 1.979827 1_555
Mg0 O11 1.990614 1_555
Mg0 O2 1.990614 1_555
Mg0 O15 1.990614 1_555
Mg1 O14 1.979827 1_555
Mg1 O0 1.990614 1_555
Mg1 O13 1.990614 1_555
Mg1 O4 1.990614 1_555
Mg2 O17 1.979827 1_555
Mg2 O18 1.990614 1_555
Mg2 O27 1.990614 1_555
Mg2 O31 1.990614 1_555
Mg3 O30 1.979827 1_555
Mg3 O16 1.990614 1_555
Mg3 O29 1.990614 1_555
Mg3 O20 1.990614 1_555
O0 Ti11 1.927582 1_455
O0 Ti2 2.020059 1_555
O1 Ti0 2.083481 1_556
O1 Ti9 2.083481 1_455
O1 Ti1 2.083481 1_555
O2 Ti2 1.927582 1_565
O2 Ti10 2.020059 1_455
O3 Ti1 1.882023 1_555
O3 Ti2 1.974622 1_555
O4 Ti1 1.927582 1_554
O4 Ti0 2.020059 1_555
O5 Ti0 1.882023 1_555
O5 Ti4 1.974622 1_555
O6 Ti1 2.042438 1_555
O6 Ti2 2.042438 1_555
O6 Ti5 2.042438 1_555
O7 Ti3 1.882023 1_555
O7 Ti0 1.974622 1_555
O8 Ti2 1.882023 1_555
O8 Ti5 1.974622 1_555
O9 Ti3 2.042438 1_555
O9 Ti0 2.042438 1_555
O9 Ti4 2.042438 1_555
O10 Ti5 1.882023 1_555
O10 Ti1 1.974622 1_555
O11 Ti4 1.927582 1_555
O11 Ti5 2.020059 1_555
O12 Ti4 1.882023 1_555
O12 Ti3 1.974622 1_555
O13 Ti3 1.927582 1_545
O13 Ti7 2.020059 1_555
O14 Ti4 2.083481 1_555
O14 Ti5 2.083481 1_555
O14 Ti8 2.083481 1_555
O15 Ti6 1.927582 1_555
O15 Ti3 2.020059 1_556
O16 Ti5 1.927582 1_555
O16 Ti8 2.020059 1_555
O17 Ti7 2.083481 1_565
O17 Ti6 2.083481 1_554
O17 Ti3 2.083481 1_555
O18 Ti8 1.927582 1_555
O18 Ti4 2.020059 1_555
O19 Ti7 1.882023 1_555
O19 Ti8 1.974622 1_555
O20 Ti7 1.927582 1_556
O20 Ti6 2.020059 1_545
O21 Ti6 1.882023 1_555
O21 Ti10 1.974622 1_555
O22 Ti11 2.042438 1_555
O22 Ti7 2.042438 1_555
O22 Ti8 2.042438 1_555
O23 Ti9 1.882023 1_555
O23 Ti6 1.974622 1_555
O24 Ti8 1.882023 1_555
O24 Ti11 1.974622 1_555
O25 Ti10 2.042438 1_555
O25 Ti9 2.042438 1_555
O25 Ti6 2.042438 1_555
O26 Ti11 1.882023 1_555
O26 Ti7 1.974622 1_555
O27 Ti10 1.927582 1_555
O27 Ti11 2.020059 1_565
O28 Ti10 1.882023 1_555
O28 Ti9 1.974622 1_555
O29 Ti9 1.927582 1_555
O29 Ti1 2.020059 1_655
O30 Ti2 2.083481 1_655
O30 Ti10 2.083481 1_545
O30 Ti11 2.083481 1_555
O31 Ti0 1.927582 1_655
O31 Ti9 2.020059 1_554
