# generated using pymatgen
data_In2Sn2O7
_symmetry_space_group_name_H-M   'P 1'
_cell_length_a   7.34383708
_cell_length_b   7.34383708
_cell_length_c   7.34383708
_cell_angle_alpha   60.00000000
_cell_angle_beta   60.00000000
_cell_angle_gamma   60.00000000
_symmetry_Int_Tables_number   1
_chemical_formula_structural   In2Sn2O7
_chemical_formula_sum   'In4 Sn4 O14'
_cell_volume   280.06194676
_cell_formula_units_Z   2
loop_
 _symmetry_equiv_pos_site_id
 _symmetry_equiv_pos_as_xyz
  1  'x, y, z'
loop_
 _atom_site_type_symbol
 _atom_site_label
 _atom_site_symmetry_multiplicity
 _atom_site_fract_x
 _atom_site_fract_y
 _atom_site_fract_z
 _atom_site_occupancy
  In  In0  1  0.12500000  0.12500000  0.62500000  1
  In  In1  1  0.12500000  0.62500000  0.12500000  1
  In  In2  1  0.62500000  0.12500000  0.12500000  1
  In  In3  1  0.12500000  0.12500000  0.12500000  1
  Sn  Sn0  1  0.62500000  0.62500000  0.62500000  1
  Sn  Sn1  1  0.12500000  0.62500000  0.62500000  1
  Sn  Sn2  1  0.62500000  0.12500000  0.62500000  1
  Sn  Sn3  1  0.62500000  0.62500000  0.12500000  1
  O  O0  1  0.28316600  0.71683400  0.71683400  1
  O  O1  1  0.53316600  0.96683400  0.96683400  1
  O  O2  1  0.28316600  0.28316600  0.71683400  1
  O  O3  1  0.71683400  0.28316600  0.71683400  1
  O  O4  1  0.28316600  0.71683400  0.28316600  1
  O  O5  1  0.00000000  0.00000000  0.00000000  1
  O  O6  1  0.71683400  0.71683400  0.28316600  1
  O  O7  1  0.96683400  0.53316600  0.96683400  1
  O  O8  1  0.96683400  0.96683400  0.53316600  1
  O  O9  1  0.25000000  0.25000000  0.25000000  1
  O  O10  1  0.53316600  0.53316600  0.96683400  1
  O  O11  1  0.53316600  0.96683400  0.53316600  1
  O  O12  1  0.71683400  0.28316600  0.28316600  1
  O  O13  1  0.96683400  0.53316600  0.53316600  1
loop_
_geom_bond_atom_site_label_1
_geom_bond_atom_site_label_2
_geom_bond_distance
_geom_bond_site_symmetry_2
In0 O9 2.248582 1_555
In0 O5 2.248582 1_556
In0 O2 2.463559 1_555
In0 O8 2.463559 1_445
In0 O0 2.463559 1_545
In0 O3 2.463559 1_455
In0 O11 2.463559 1_545
In0 O13 2.463559 1_455
In1 O5 2.248582 1_565
In1 O9 2.248582 1_555
In1 O4 2.463559 1_555
In1 O0 2.463559 1_554
In1 O6 2.463559 1_455
In1 O7 2.463559 1_454
In1 O13 2.463559 1_455
In1 O10 2.463559 1_554
In2 O5 2.248582 1_655
In2 O9 2.248582 1_555
In2 O12 2.463559 1_555
In2 O3 2.463559 1_554
In2 O6 2.463559 1_545
In2 O1 2.463559 1_544
In2 O11 2.463559 1_545
In2 O10 2.463559 1_554
In3 O5 2.248582 1_555
In3 O9 2.248582 1_555
In3 O2 2.463559 1_554
In3 O4 2.463559 1_545
In3 O8 2.463559 1_445
In3 O12 2.463559 1_455
In3 O1 2.463559 1_544
In3 O7 2.463559 1_454
O0 Sn1 2.068916 1_555
O0 Sn0 2.068916 1_555
O1 Sn2 2.068916 1_565
O1 Sn3 2.068916 1_556
O2 Sn2 2.068916 1_555
O2 Sn1 2.068916 1_555
O3 Sn2 2.068916 1_555
O3 Sn0 2.068916 1_555
O4 Sn1 2.068916 1_555
O4 Sn3 2.068916 1_555
O6 Sn3 2.068916 1_555
O6 Sn0 2.068916 1_555
O7 Sn1 2.068916 1_655
O7 Sn3 2.068916 1_556
O8 Sn1 2.068916 1_655
O8 Sn2 2.068916 1_565
O10 Sn3 2.068916 1_556
O10 Sn0 2.068916 1_555
O11 Sn0 2.068916 1_555
O11 Sn2 2.068916 1_565
O12 Sn2 2.068916 1_555
O12 Sn3 2.068916 1_555
O13 Sn1 2.068916 1_655
O13 Sn0 2.068916 1_555
