# generated using pymatgen
data_K2Li3CoO4
_symmetry_space_group_name_H-M   'P 1'
_cell_length_a   8.84865700
_cell_length_b   5.57387300
_cell_length_c   11.01944666
_cell_angle_alpha   68.71639838
_cell_angle_beta   90.00000000
_cell_angle_gamma   90.00000000
_symmetry_Int_Tables_number   1
_chemical_formula_structural   K2Li3CoO4
_chemical_formula_sum   'K8 Li12 Co4 O16'
_cell_volume   506.42444946
_cell_formula_units_Z   4
loop_
 _symmetry_equiv_pos_site_id
 _symmetry_equiv_pos_as_xyz
  1  'x, y, z'
loop_
 _atom_site_type_symbol
 _atom_site_label
 _atom_site_symmetry_multiplicity
 _atom_site_fract_x
 _atom_site_fract_y
 _atom_site_fract_z
 _atom_site_occupancy
  K  K0  1  0.50767300  0.70664600  0.63848500  1
  K  K1  1  0.22751900  0.28248800  0.10771500  1
  K  K2  1  0.00767300  0.29335400  0.86151500  1
  K  K3  1  0.72751900  0.71751200  0.39228500  1
  K  K4  1  0.27248100  0.28248800  0.60771500  1
  K  K5  1  0.99232700  0.70664600  0.13848500  1
  K  K6  1  0.77248100  0.71751200  0.89228500  1
  K  K7  1  0.49232700  0.29335400  0.36151500  1
  Li  Li0  1  0.26450000  0.62522500  0.80139500  1
  Li  Li1  1  0.49678800  0.36829000  0.93212200  1
  Li  Li2  1  0.99678800  0.63171000  0.56787800  1
  Li  Li3  1  0.96613700  0.09399600  0.29773100  1
  Li  Li4  1  0.76450000  0.37477500  0.69860500  1
  Li  Li5  1  0.46613700  0.90600400  0.20226900  1
  Li  Li6  1  0.53386300  0.09399600  0.79773100  1
  Li  Li7  1  0.23550000  0.62522500  0.30139500  1
  Li  Li8  1  0.03386300  0.90600400  0.70226900  1
  Li  Li9  1  0.00321200  0.36829000  0.43212200  1
  Li  Li10  1  0.50321200  0.63171000  0.06787800  1
  Li  Li11  1  0.73550000  0.37477500  0.19860500  1
  Co  Co0  1  0.21338500  0.90566500  0.43614100  1
  Co  Co1  1  0.71338500  0.09433500  0.06385900  1
  Co  Co2  1  0.28661500  0.90566500  0.93614100  1
  Co  Co3  1  0.78661500  0.09433500  0.56385900  1
  O  O0  1  0.19162700  0.76379900  0.62010700  1
  O  O1  1  0.82736500  0.74896500  0.64411600  1
  O  O2  1  0.55012800  0.25633100  0.12341200  1
  O  O3  1  0.89043100  0.22250700  0.11168100  1
  O  O4  1  0.32736500  0.25103500  0.85588400  1
  O  O5  1  0.69162700  0.23620100  0.87989300  1
  O  O6  1  0.39043100  0.77749300  0.38831900  1
  O  O7  1  0.05012800  0.74366900  0.37658800  1
  O  O8  1  0.94987200  0.25633100  0.62341200  1
  O  O9  1  0.60956900  0.22250700  0.61168100  1
  O  O10  1  0.30837300  0.76379900  0.12010700  1
  O  O11  1  0.67263500  0.74896500  0.14411600  1
  O  O12  1  0.10956900  0.77749300  0.88831900  1
  O  O13  1  0.44987200  0.74366900  0.87658800  1
  O  O14  1  0.17263500  0.25103500  0.35588400  1
  O  O15  1  0.80837300  0.23620100  0.37989300  1
loop_
_geom_bond_atom_site_label_1
_geom_bond_atom_site_label_2
_geom_bond_distance
_geom_bond_site_symmetry_2
K0 O13 2.753431 1_555
K0 O0 2.813634 1_555
K0 O6 2.835713 1_555
K0 O1 2.841211 1_555
K0 O9 2.924253 1_565
K0 O9 2.959881 1_555
K1 O14 2.719750 1_555
K1 O10 2.827313 1_555
K1 O2 2.860407 1_555
K1 O10 2.932986 1_545
K1 O4 2.977472 1_554
K1 O3 3.000005 1_455
K1 O12 3.115168 1_554
K2 O8 2.753431 1_455
K2 O5 2.813634 1_455
K2 O3 2.835713 1_456
K2 O4 2.841211 1_555
K2 O12 2.924253 1_545
K2 O12 2.959881 1_555
K3 O11 2.719750 1_555
K3 O15 2.827313 1_555
K3 O7 2.860407 1_655
K3 O15 2.932986 1_565
K3 O1 2.977472 1_555
K3 O6 3.000005 1_555
K3 O9 3.115168 1_555
K4 O4 2.719750 1_555
K4 O0 2.827313 1_555
K4 O8 2.860407 1_455
K4 O0 2.932986 1_545
K4 O14 2.977472 1_555
K4 O9 3.000005 1_555
K4 O6 3.115168 1_555
K5 O7 2.753431 1_655
K5 O10 2.813634 1_655
K5 O12 2.835713 1_654
K5 O11 2.841211 1_555
K5 O3 2.924253 1_565
K5 O3 2.959881 1_555
K6 O1 2.719750 1_555
K6 O5 2.827313 1_555
K6 O13 2.860407 1_555
K6 O5 2.932986 1_565
K6 O11 2.977472 1_556
K6 O12 3.000005 1_655
K6 O3 3.115168 1_556
K7 O2 2.753431 1_555
K7 O15 2.813634 1_555
K7 O9 2.835713 1_555
K7 O14 2.841211 1_555
K7 O6 2.924253 1_545
K7 O6 2.959881 1_555
Li0 O0 1.970533 1_555
Li0 O12 2.026683 1_555
Li0 O4 2.027537 1_555
Li0 O13 2.051851 1_555
Li1 O4 1.943969 1_555
Li1 O13 1.998770 1_555
Li1 O2 2.024976 1_556
Li1 O5 2.037968 1_555
Li2 O1 1.943969 1_555
Li2 O8 1.998770 1_555
Li2 O7 2.024976 1_655
Li2 O0 2.037968 1_655
Li3 O7 1.971948 1_645
Li3 O15 1.979337 1_555
Li3 O3 2.024580 1_555
Li3 O14 2.218737 1_655
Li4 O5 1.970533 1_555
Li4 O9 2.026683 1_555
Li4 O1 2.027537 1_555
Li4 O8 2.051851 1_555
Li5 O2 1.971948 1_565
Li5 O10 1.979337 1_555
Li5 O6 2.024580 1_555
Li5 O11 2.218737 1_555
Li6 O13 1.971948 1_545
Li6 O5 1.979337 1_555
Li6 O9 2.024580 1_555
Li6 O4 2.218737 1_555
Li7 O10 1.970533 1_555
Li7 O6 2.026683 1_555
Li7 O14 2.027537 1_555
Li7 O7 2.051851 1_555
Li8 O8 1.971948 1_465
Li8 O0 1.979337 1_555
Li8 O12 2.024580 1_555
Li8 O1 2.218737 1_455
Li9 O14 1.943969 1_555
Li9 O7 1.998770 1_555
Li9 O8 2.024976 1_455
Li9 O15 2.037968 1_455
Li10 O11 1.943969 1_555
Li10 O2 1.998770 1_555
Li10 O13 2.024976 1_554
Li10 O10 2.037968 1_555
Li11 O15 1.970533 1_555
Li11 O3 2.026683 1_555
Li11 O11 2.027537 1_555
Li11 O2 2.051851 1_555
Co0 O14 1.839027 1_565
Co0 O6 1.875018 1_555
Co0 O0 1.899518 1_555
Co0 O7 1.939850 1_555
Co1 O11 1.839027 1_545
Co1 O3 1.875018 1_555
Co1 O5 1.899518 1_554
Co1 O2 1.939850 1_555
Co2 O4 1.839027 1_565
Co2 O12 1.875018 1_555
Co2 O10 1.899518 1_556
Co2 O13 1.939850 1_555
Co3 O1 1.839027 1_545
Co3 O9 1.875018 1_555
Co3 O15 1.899518 1_555
Co3 O8 1.939850 1_555
