# generated using pymatgen
data_Li2CoSiO4
_symmetry_space_group_name_H-M   'P 1'
_cell_length_a   5.03872025
_cell_length_b   8.72560412
_cell_length_c   11.53360430
_cell_angle_alpha   89.96924009
_cell_angle_beta   90.00234763
_cell_angle_gamma   90.01633056
_symmetry_Int_Tables_number   1
_chemical_formula_structural   Li2CoSiO4
_chemical_formula_sum   'Li12 Co6 Si6 O24'
_cell_volume   507.08494695
_cell_formula_units_Z   6
loop_
 _symmetry_equiv_pos_site_id
 _symmetry_equiv_pos_as_xyz
  1  'x, y, z'
loop_
 _atom_site_type_symbol
 _atom_site_label
 _atom_site_symmetry_multiplicity
 _atom_site_fract_x
 _atom_site_fract_y
 _atom_site_fract_z
 _atom_site_occupancy
  Li  Li0  1  0.60476000  0.27631400  0.58606900  1
  Li  Li1  1  0.10496000  0.77665100  0.58586500  1
  Li  Li2  1  0.28267600  0.16372200  0.91907100  1
  Li  Li3  1  0.78301000  0.66458300  0.91899400  1
  Li  Li4  1  0.61251800  0.05909700  0.25250800  1
  Li  Li5  1  0.11227700  0.55943200  0.25277700  1
  Li  Li6  1  0.28268400  0.83625800  0.08084600  1
  Li  Li7  1  0.78295900  0.33541400  0.08094600  1
  Li  Li8  1  0.61251400  0.94088100  0.74750800  1
  Li  Li9  1  0.11215800  0.44059300  0.74726200  1
  Li  Li10  1  0.60483900  0.72371800  0.41397600  1
  Li  Li11  1  0.10500300  0.22335700  0.41413600  1
  Co  Co0  1  0.73038100  0.72971500  0.16621900  1
  Co  Co1  1  0.53869600  0.00004300  0.50004300  1
  Co  Co2  1  0.73045300  0.27013200  0.83371500  1
  Co  Co3  1  0.23131200  0.23065200  0.16638800  1
  Co  Co4  1  0.03803100  0.50000900  0.50003700  1
  Co  Co5  1  0.23139400  0.76928500  0.83349800  1
  Si  Si0  1  0.09360400  0.09363700  0.66667100  1
  Si  Si1  1  0.59351000  0.59365900  0.66639400  1
  Si  Si2  1  0.09354300  0.90644800  0.33324600  1
  Si  Si3  1  0.59348800  0.40637800  0.33353500  1
  Si  Si4  1  0.81297100  0.99993600  0.00007900  1
  Si  Si5  1  0.31217700  0.49995600  0.00007500  1
  O  O0  1  0.50393700  0.35432900  0.96190000  1
  O  O1  1  0.00495300  0.85470000  0.96134400  1
  O  O2  1  0.21590500  0.07497400  0.29467900  1
  O  O3  1  0.71619300  0.57491200  0.29506300  1
  O  O4  1  0.21586700  0.92508600  0.70527100  1
  O  O5  1  0.71603500  0.42510200  0.70495800  1
  O  O6  1  0.77992600  0.07019300  0.62811200  1
  O  O7  1  0.27973200  0.57026800  0.62804800  1
  O  O8  1  0.78002200  0.92989000  0.37194300  1
  O  O9  1  0.27987000  0.42980500  0.37199500  1
  O  O10  1  0.50406600  0.64562300  0.03811500  1
  O  O11  1  0.00497200  0.14528800  0.03863100  1
  O  O12  1  0.27426500  0.15959800  0.55773500  1
  O  O13  1  0.77420600  0.65971300  0.55756200  1
  O  O14  1  0.60197000  0.28332100  0.22452500  1
  O  O15  1  0.10172500  0.78328700  0.22424400  1
  O  O16  1  0.62392500  0.05742600  0.89103600  1
  O  O17  1  0.12320800  0.55702000  0.89091200  1
  O  O18  1  0.62397700  0.94244900  0.10904800  1
  O  O19  1  0.12320700  0.44290700  0.10915900  1
  O  O20  1  0.27419800  0.84046900  0.44217900  1
  O  O21  1  0.77412500  0.34028400  0.44237600  1
  O  O22  1  0.60202600  0.71671500  0.77548600  1
  O  O23  1  0.10177500  0.21677200  0.77575500  1
loop_
_geom_bond_atom_site_label_1
_geom_bond_atom_site_label_2
_geom_bond_distance
_geom_bond_site_symmetry_2
Li0 O21 1.945588 1_555
Li0 O5 1.970161 1_555
Li0 O12 1.979001 1_555
Li0 O6 2.061258 1_555
Li1 O20 1.944859 1_555
Li1 O4 1.971766 1_555
Li1 O13 1.981037 1_455
Li1 O7 2.062783 1_555
Li2 O23 1.943363 1_555
Li2 O11 1.971079 1_556
Li2 O16 1.980559 1_555
Li2 O0 2.062240 1_555
Li3 O22 1.943555 1_555
Li3 O10 1.972366 1_556
Li3 O17 1.981269 1_655
Li3 O1 2.059336 1_655
Li4 O18 1.943936 1_545
Li4 O8 1.969702 1_545
Li4 O14 1.983487 1_555
Li4 O2 2.061495 1_555
Li5 O19 1.944848 1_555
Li5 O9 1.970247 1_555
Li5 O15 1.981353 1_555
Li5 O3 2.058993 1_455
Li6 O15 1.944080 1_555
Li6 O1 1.970698 1_554
Li6 O18 1.980157 1_555
Li6 O10 2.063030 1_555
Li7 O14 1.944126 1_555
Li7 O0 1.971997 1_554
Li7 O19 1.980959 1_655
Li7 O11 2.060030 1_655
Li8 O16 1.944105 1_565
Li8 O6 1.969487 1_565
Li8 O22 1.982942 1_555
Li8 O4 2.061678 1_555
Li9 O17 1.944712 1_555
Li9 O7 1.970186 1_555
Li9 O23 1.980932 1_555
Li9 O5 2.059126 1_455
Li10 O13 1.944709 1_555
Li10 O3 1.970813 1_555
Li10 O20 1.980039 1_555
Li10 O8 2.061234 1_555
Li11 O12 1.943990 1_555
Li11 O2 1.972114 1_555
Li11 O21 1.981905 1_455
Li11 O9 2.062948 1_555
Co0 O10 2.005573 1_555
Co0 O3 2.008914 1_555
Co0 O18 2.041338 1_555
Co0 O15 2.041355 1_655
Co1 O6 2.008557 1_555
Co1 O8 2.009405 1_545
Co1 O12 2.039218 1_555
Co1 O20 2.039646 1_545
Co2 O0 2.007479 1_555
Co2 O5 2.009217 1_555
Co2 O23 2.040879 1_655
Co2 O16 2.041575 1_555
Co3 O11 2.006793 1_555
Co3 O2 2.009580 1_555
Co3 O14 2.036821 1_555
Co3 O19 2.040029 1_555
Co4 O7 2.009792 1_555
Co4 O9 2.010615 1_555
Co4 O13 2.037484 1_455
Co4 O21 2.037834 1_455
Co5 O1 2.008311 1_555
Co5 O4 2.009811 1_555
Co5 O22 2.036322 1_555
Co5 O17 2.040640 1_555
O0 Si5 1.656328 1_556
O1 Si4 1.656099 1_456
O2 Si2 1.655035 1_545
O3 Si3 1.655448 1_555
O4 Si0 1.655444 1_565
O5 Si1 1.655871 1_555
O6 Si0 1.654562 1_655
O7 Si1 1.654327 1_555
O8 Si2 1.654379 1_655
O9 Si3 1.654094 1_555
O10 Si5 1.656118 1_555
O11 Si4 1.655917 1_445
O12 Si0 1.654547 1_555
O13 Si1 1.654016 1_555
O14 Si3 1.654384 1_555
O15 Si2 1.654865 1_555
O16 Si4 1.655352 1_546
O17 Si5 1.655060 1_556
O18 Si4 1.654440 1_555
O19 Si5 1.654226 1_555
O20 Si2 1.654682 1_555
O21 Si3 1.654177 1_555
O22 Si1 1.655084 1_555
O23 Si0 1.655417 1_555
