# generated using pymatgen
data_Ga2(WO4)3
_symmetry_space_group_name_H-M   'P 1'
_cell_length_a   9.39428500
_cell_length_b   9.47223500
_cell_length_c   13.05358300
_cell_angle_alpha   90.00000000
_cell_angle_beta   90.00000000
_cell_angle_gamma   90.00000000
_symmetry_Int_Tables_number   1
_chemical_formula_structural   Ga2(WO4)3
_chemical_formula_sum   'Ga8 W12 O48'
_cell_volume   1161.57145387
_cell_formula_units_Z   4
loop_
 _symmetry_equiv_pos_site_id
 _symmetry_equiv_pos_as_xyz
  1  'x, y, z'
loop_
 _atom_site_type_symbol
 _atom_site_label
 _atom_site_symmetry_multiplicity
 _atom_site_fract_x
 _atom_site_fract_y
 _atom_site_fract_z
 _atom_site_occupancy
  Ga  Ga0  1  0.24939000  0.03695600  0.62182200  1
  Ga  Ga1  1  0.74939000  0.03695600  0.87817800  1
  Ga  Ga2  1  0.74939000  0.46304400  0.12182200  1
  Ga  Ga3  1  0.24939000  0.46304400  0.37817800  1
  Ga  Ga4  1  0.25061000  0.53695600  0.87817800  1
  Ga  Ga5  1  0.75061000  0.53695600  0.62182200  1
  Ga  Ga6  1  0.25061000  0.96304400  0.12182200  1
  Ga  Ga7  1  0.75061000  0.96304400  0.37817800  1
  W  W0  1  0.39696500  0.11391400  0.35563100  1
  W  W1  1  0.89696500  0.11391400  0.14436900  1
  W  W2  1  0.46964800  0.25000000  0.00000000  1
  W  W3  1  0.96964800  0.25000000  0.50000000  1
  W  W4  1  0.39696500  0.38608600  0.64436900  1
  W  W5  1  0.89696500  0.38608600  0.85563100  1
  W  W6  1  0.10303500  0.61391400  0.14436900  1
  W  W7  1  0.60303500  0.61391400  0.35563100  1
  W  W8  1  0.53035200  0.75000000  0.00000000  1
  W  W9  1  0.03035200  0.75000000  0.50000000  1
  W  W10  1  0.10303500  0.88608600  0.85563100  1
  W  W11  1  0.60303500  0.88608600  0.64436900  1
  O  O0  1  0.18161900  0.00177700  0.76089800  1
  O  O1  1  0.68161900  0.00177700  0.73910200  1
  O  O2  1  0.82562800  0.07146700  0.01982200  1
  O  O3  1  0.32562800  0.07146700  0.48017800  1
  O  O4  1  0.08832700  0.09108000  0.14532900  1
  O  O5  1  0.58832700  0.09108000  0.35467100  1
  O  O6  1  0.36024700  0.12450300  0.06830100  1
  O  O7  1  0.86024700  0.12450300  0.43169900  1
  O  O8  1  0.58236600  0.16013800  0.90841100  1
  O  O9  1  0.08236600  0.16013800  0.59158900  1
  O  O10  1  0.85792900  0.20242100  0.82843500  1
  O  O11  1  0.35792900  0.20242100  0.67156500  1
  O  O12  1  0.85792900  0.29757900  0.17156500  1
  O  O13  1  0.35792900  0.29757900  0.32843500  1
  O  O14  1  0.58236600  0.33986200  0.09158900  1
  O  O15  1  0.08236600  0.33986200  0.40841100  1
  O  O16  1  0.86024700  0.37549700  0.56830100  1
  O  O17  1  0.36024700  0.37549700  0.93169900  1
  O  O18  1  0.58832700  0.40892000  0.64532900  1
  O  O19  1  0.08832700  0.40892000  0.85467100  1
  O  O20  1  0.32562800  0.42853300  0.51982200  1
  O  O21  1  0.82562800  0.42853300  0.98017800  1
  O  O22  1  0.68161900  0.49822300  0.26089800  1
  O  O23  1  0.18161900  0.49822300  0.23910200  1
  O  O24  1  0.31838100  0.50177700  0.73910200  1
  O  O25  1  0.81838100  0.50177700  0.76089800  1
  O  O26  1  0.17437200  0.57146700  0.01982200  1
  O  O27  1  0.67437200  0.57146700  0.48017800  1
  O  O28  1  0.41167300  0.59108000  0.35467100  1
  O  O29  1  0.91167300  0.59108000  0.14532900  1
  O  O30  1  0.63975300  0.62450300  0.06830100  1
  O  O31  1  0.13975300  0.62450300  0.43169900  1
  O  O32  1  0.41763400  0.66013800  0.90841100  1
  O  O33  1  0.91763400  0.66013800  0.59158900  1
  O  O34  1  0.64207100  0.70242100  0.67156500  1
  O  O35  1  0.14207100  0.70242100  0.82843500  1
  O  O36  1  0.14207100  0.79757900  0.17156500  1
  O  O37  1  0.64207100  0.79757900  0.32843500  1
  O  O38  1  0.91763400  0.83986200  0.40841100  1
  O  O39  1  0.41763400  0.83986200  0.09158900  1
  O  O40  1  0.63975300  0.87549700  0.93169900  1
  O  O41  1  0.13975300  0.87549700  0.56830100  1
  O  O42  1  0.91167300  0.90892000  0.85467100  1
  O  O43  1  0.41167300  0.90892000  0.64532900  1
  O  O44  1  0.17437200  0.92853300  0.98017800  1
  O  O45  1  0.67437200  0.92853300  0.51982200  1
  O  O46  1  0.81838100  0.99822300  0.23910200  1
  O  O47  1  0.31838100  0.99822300  0.26089800  1
loop_
_geom_bond_atom_site_label_1
_geom_bond_atom_site_label_2
_geom_bond_distance
_geom_bond_site_symmetry_2
Ga0 O0 1.952485 1_555
Ga0 O41 1.971780 1_545
Ga0 O43 1.972108 1_545
Ga0 O11 1.979344 1_555
Ga0 O9 1.994787 1_555
Ga0 O3 2.009593 1_555
Ga1 O1 1.952485 1_555
Ga1 O40 1.971780 1_545
Ga1 O42 1.972108 1_545
Ga1 O10 1.979344 1_555
Ga1 O8 1.994787 1_555
Ga1 O2 2.009593 1_556
Ga2 O22 1.952485 1_555
Ga2 O30 1.971780 1_555
Ga2 O29 1.972108 1_555
Ga2 O12 1.979344 1_555
Ga2 O14 1.994787 1_555
Ga2 O21 2.009593 1_554
Ga3 O23 1.952485 1_555
Ga3 O31 1.971780 1_555
Ga3 O28 1.972108 1_555
Ga3 O13 1.979344 1_555
Ga3 O15 1.994787 1_555
Ga3 O20 2.009593 1_555
Ga4 O24 1.952485 1_555
Ga4 O17 1.971780 1_555
Ga4 O19 1.972108 1_555
Ga4 O35 1.979344 1_555
Ga4 O32 1.994787 1_555
Ga4 O26 2.009593 1_556
Ga5 O25 1.952485 1_555
Ga5 O16 1.971780 1_555
Ga5 O18 1.972108 1_555
Ga5 O34 1.979344 1_555
Ga5 O33 1.994787 1_555
Ga5 O27 2.009593 1_555
Ga6 O47 1.952485 1_555
Ga6 O6 1.971780 1_565
Ga6 O4 1.972108 1_565
Ga6 O36 1.979344 1_555
Ga6 O39 1.994787 1_555
Ga6 O44 2.009593 1_554
Ga7 O46 1.952485 1_555
Ga7 O7 1.971780 1_565
Ga7 O5 1.972108 1_565
Ga7 O37 1.979344 1_555
Ga7 O38 1.994787 1_555
Ga7 O45 2.009593 1_555
O0 W10 1.809719 1_545
O1 W11 1.809719 1_545
O2 W1 1.803871 1_555
O3 W0 1.803871 1_555
O4 W1 1.810717 1_455
O5 W0 1.810717 1_555
O6 W2 1.806725 1_555
O7 W3 1.806725 1_555
O8 W2 1.809747 1_556
O9 W3 1.809747 1_455
O10 W5 1.813044 1_555
O11 W4 1.813044 1_555
O12 W1 1.813044 1_555
O13 W0 1.813044 1_555
O14 W2 1.809747 1_555
O15 W3 1.809747 1_455
O16 W3 1.806725 1_555
O17 W2 1.806725 1_556
O18 W4 1.810717 1_555
O19 W5 1.810717 1_455
O20 W4 1.803871 1_555
O21 W5 1.803871 1_555
O22 W7 1.809719 1_555
O23 W6 1.809719 1_555
O24 W4 1.809719 1_555
O25 W5 1.809719 1_555
O26 W6 1.803871 1_555
O27 W7 1.803871 1_555
O28 W7 1.810717 1_555
O29 W6 1.810717 1_655
O30 W8 1.806725 1_555
O31 W9 1.806725 1_555
O32 W8 1.809747 1_556
O33 W9 1.809747 1_655
O34 W11 1.813044 1_555
O35 W10 1.813044 1_555
O36 W6 1.813044 1_555
O37 W7 1.813044 1_555
O38 W9 1.809747 1_655
O39 W8 1.809747 1_555
O40 W8 1.806725 1_556
O41 W9 1.806725 1_555
O42 W10 1.810717 1_655
O43 W11 1.810717 1_555
O44 W10 1.803871 1_555
O45 W11 1.803871 1_555
O46 W1 1.809719 1_565
O47 W0 1.809719 1_565
