# generated using pymatgen
data_La3Ti2N3O4
_symmetry_space_group_name_H-M   'P 1'
_cell_length_a   10.71323797
_cell_length_b   10.71323797
_cell_length_c   10.71323797
_cell_angle_alpha   159.15278335
_cell_angle_beta   158.55091695
_cell_angle_gamma   30.08580776
_symmetry_Int_Tables_number   1
_chemical_formula_structural   La3Ti2N3O4
_chemical_formula_sum   'La3 Ti2 N3 O4'
_cell_volume   159.91642156
_cell_formula_units_Z   1
loop_
 _symmetry_equiv_pos_site_id
 _symmetry_equiv_pos_as_xyz
  1  'x, y, z'
loop_
 _atom_site_type_symbol
 _atom_site_label
 _atom_site_symmetry_multiplicity
 _atom_site_fract_x
 _atom_site_fract_y
 _atom_site_fract_z
 _atom_site_occupancy
  La  La0  1  0.50000000  0.50000000  0.00000000  1
  La  La1  1  0.68210430  0.68210430  0.00000000  1
  La  La2  1  0.31789570  0.31789570  -0.00000000  1
  Ti  Ti0  1  0.90665832  0.90665832  -0.00000000  1
  Ti  Ti1  1  0.09334168  0.09334168  0.00000000  1
  N  N0  1  0.00000000  0.00000000  0.00000000  1
  N  N1  1  0.39907126  0.89907126  0.50000000  1
  N  N2  1  0.60092874  0.10092874  0.50000000  1
  O  O0  1  0.10320865  0.60320865  0.50000000  1
  O  O1  1  0.79595873  0.79595873  0.00000000  1
  O  O2  1  0.20404127  0.20404127  -0.00000000  1
  O  O3  1  0.89679135  0.39679135  0.50000000  1
loop_
_geom_bond_atom_site_label_1
_geom_bond_atom_site_label_2
_geom_bond_distance
_geom_bond_site_symmetry_2
La0 N0 2.780538 1_554
La0 N0 2.780538 1_666
La0 N0 2.780538 1_655
La0 N0 2.780538 1_565
La0 N1 2.849305 1_555
La0 N2 2.849305 1_554
La0 N1 2.849305 1_544
La0 N2 2.849305 1_565
La0 O0 2.921523 1_655
La0 O3 2.921523 1_454
La0 O0 2.921523 1_554
La0 O3 2.921523 1_555
La1 O1 2.355902 1_555
La1 N2 2.564831 1_565
La1 N2 2.564831 1_554
La1 O0 2.576739 1_554
La1 O0 2.576739 1_655
La1 O2 2.817346 1_666
La1 O2 2.817346 1_554
La1 O2 2.817346 1_655
La1 O2 2.817346 1_565
La2 O2 2.355902 1_555
La2 N1 2.564831 1_555
La2 N1 2.564831 1_544
La2 O3 2.576739 1_555
La2 O3 2.576739 1_454
La2 O1 2.817346 1_556
La2 O1 2.817346 1_444
La2 O1 2.817346 1_545
La2 O1 2.817346 1_455
N0 Ti0 1.931447 1_445
N0 Ti1 1.931447 1_555
N1 Ti0 1.999771 1_455
N1 Ti0 1.999771 1_556
N2 Ti1 1.999771 1_656
N2 Ti1 1.999771 1_555
O0 Ti1 1.949010 1_555
O0 Ti1 1.949010 1_566
O1 Ti0 2.290621 1_555
O2 Ti1 2.290621 1_555
O3 Ti0 1.949010 1_556
O3 Ti0 1.949010 1_545
