# generated using pymatgen
data_V2OF5
_symmetry_space_group_name_H-M   'P 1'
_cell_length_a   5.07712179
_cell_length_b   5.28072659
_cell_length_c   11.52982889
_cell_angle_alpha   99.84282711
_cell_angle_beta   102.36909976
_cell_angle_gamma   90.33813268
_symmetry_Int_Tables_number   1
_chemical_formula_structural   V2OF5
_chemical_formula_sum   'V6 O3 F15'
_cell_volume   297.21450083
_cell_formula_units_Z   3
loop_
 _symmetry_equiv_pos_site_id
 _symmetry_equiv_pos_as_xyz
  1  'x, y, z'
loop_
 _atom_site_type_symbol
 _atom_site_label
 _atom_site_symmetry_multiplicity
 _atom_site_fract_x
 _atom_site_fract_y
 _atom_site_fract_z
 _atom_site_occupancy
  V  V0  1  0.17467982  0.17241946  0.33618774  1
  V  V1  1  0.32231077  0.31392781  0.67104060  1
  V  V2  1  0.51880670  0.47718873  0.00384246  1
  V  V3  1  0.65315896  0.64380730  0.33645420  1
  V  V4  1  0.99549606  0.00358416  0.00186387  1
  V  V5  1  0.84269689  0.83800850  0.66777787  1
  O  O0  1  0.14545541  0.06230258  0.69289671  1
  O  O1  1  0.71508324  0.22702618  0.02645410  1
  O  O2  1  0.47644380  0.39264434  0.35865435  1
  F  F0  1  0.81246520  0.91531859  0.83287618  1
  F  F1  1  0.62135706  0.11825155  0.63024218  1
  F  F2  1  0.51164998  0.61032332  0.63262357  1
  F  F3  1  0.52856978  0.42893637  0.83304976  1
  F  F4  1  0.14105554  0.26353325  0.49931634  1
  F  F5  1  0.82406039  0.71902420  0.03865214  1
  F  F6  1  0.95040573  0.44932632  0.29370303  1
  F  F7  1  0.28934973  0.77635533  0.96745415  1
  F  F8  1  0.17830632  0.28357813  0.96207306  1
  F  F9  1  0.84584435  0.94366877  0.30292982  1
  F  F10  1  0.04848733  0.55361794  0.70489206  1
  F  F11  1  0.86063318  0.74484747  0.50082558  1
  F  F12  1  0.47261385  0.59417615  0.16568793  1
  F  F13  1  0.38216582  0.88704709  0.37307272  1
  F  F14  1  0.18890310  0.08108346  0.16742958  1
loop_
_geom_bond_atom_site_label_1
_geom_bond_atom_site_label_2
_geom_bond_distance
_geom_bond_site_symmetry_2
O0 V1 1.683065 1_555
O0 V5 1.876187 1_445
O1 V2 1.681711 1_555
O1 V4 1.891536 1_555
O2 V3 1.682271 1_555
O2 V0 1.863547 1_555
F0 V5 1.916760 1_555
F0 V4 1.945704 1_566
F1 V5 1.915845 1_545
F1 V1 1.937147 1_555
F2 V5 1.988104 1_555
F2 V1 1.992933 1_555
F3 V1 1.929061 1_555
F3 V2 1.953354 1_556
F4 V0 1.904561 1_555
F4 V1 1.968314 1_555
F5 V4 1.885792 1_565
F5 V2 1.931014 1_555
F6 V0 1.923623 1_655
F6 V3 1.933692 1_555
F7 V4 1.983696 1_466
F7 V2 2.016919 1_556
F8 V4 1.912136 1_456
F8 V2 1.928723 1_556
F9 V0 1.984224 1_665
F9 V3 1.991697 1_555
F10 V5 1.891251 1_455
F10 V1 1.942038 1_555
F11 V5 1.925497 1_555
F11 V3 1.943799 1_555
F12 V2 1.927139 1_555
F12 V3 1.957820 1_555
F13 V0 1.899333 1_565
F13 V3 1.950762 1_555
F14 V4 1.923766 1_455
F14 V0 1.939987 1_555
