# generated using pymatgen
data_LuScO3
_symmetry_space_group_name_H-M   'P 1'
_cell_length_a   5.37916200
_cell_length_b   5.68960700
_cell_length_c   7.94217800
_cell_angle_alpha   90.00000000
_cell_angle_beta   90.00000000
_cell_angle_gamma   90.00000000
_symmetry_Int_Tables_number   1
_chemical_formula_structural   LuScO3
_chemical_formula_sum   'Lu4 Sc4 O12'
_cell_volume   243.07288147
_cell_formula_units_Z   4
loop_
 _symmetry_equiv_pos_site_id
 _symmetry_equiv_pos_as_xyz
  1  'x, y, z'
loop_
 _atom_site_type_symbol
 _atom_site_label
 _atom_site_symmetry_multiplicity
 _atom_site_fract_x
 _atom_site_fract_y
 _atom_site_fract_z
 _atom_site_occupancy
  Lu  Lu0  1  0.01854400  0.93642300  0.25000000  1
  Lu  Lu1  1  0.48145600  0.43642300  0.25000000  1
  Lu  Lu2  1  0.51854400  0.56357700  0.75000000  1
  Lu  Lu3  1  0.98145600  0.06357700  0.75000000  1
  Sc  Sc0  1  0.00000000  0.50000000  0.00000000  1
  Sc  Sc1  1  0.00000000  0.50000000  0.50000000  1
  Sc  Sc2  1  0.50000000  0.00000000  0.00000000  1
  Sc  Sc3  1  0.50000000  0.00000000  0.50000000  1
  O  O0  1  0.13851500  0.43535300  0.75000000  1
  O  O1  1  0.18369700  0.18696000  0.42822100  1
  O  O2  1  0.18369700  0.18696000  0.07177900  1
  O  O3  1  0.31630300  0.68696000  0.42822100  1
  O  O4  1  0.31630300  0.68696000  0.07177900  1
  O  O5  1  0.36148500  0.93535300  0.75000000  1
  O  O6  1  0.63851500  0.06464700  0.25000000  1
  O  O7  1  0.68369700  0.31304000  0.92822100  1
  O  O8  1  0.68369700  0.31304000  0.57177900  1
  O  O9  1  0.81630300  0.81304000  0.92822100  1
  O  O10  1  0.81630300  0.81304000  0.57177900  1
  O  O11  1  0.86148500  0.56464700  0.25000000  1
loop_
_geom_bond_atom_site_label_1
_geom_bond_atom_site_label_2
_geom_bond_distance
_geom_bond_site_symmetry_2
Lu0 O6 2.170517 1_465
Lu0 O1 2.196518 1_565
Lu0 O2 2.196518 1_565
Lu0 O11 2.277737 1_455
Lu0 O3 2.565834 1_555
Lu0 O4 2.565834 1_555
Lu0 O10 2.864878 1_455
Lu0 O9 2.864878 1_454
Lu1 O11 2.170517 1_555
Lu1 O3 2.196518 1_555
Lu1 O4 2.196518 1_555
Lu1 O6 2.277737 1_555
Lu1 O1 2.565834 1_555
Lu1 O2 2.565834 1_555
Lu1 O8 2.864878 1_555
Lu1 O7 2.864878 1_554
Lu2 O0 2.170517 1_555
Lu2 O7 2.196518 1_555
Lu2 O8 2.196518 1_555
Lu2 O5 2.277737 1_555
Lu2 O9 2.565834 1_555
Lu2 O10 2.565834 1_555
Lu2 O4 2.864878 1_556
Lu2 O3 2.864878 1_555
Lu3 O5 2.170517 1_645
Lu3 O9 2.196518 1_545
Lu3 O10 2.196518 1_545
Lu3 O0 2.277737 1_655
Lu3 O7 2.565834 1_555
Lu3 O8 2.565834 1_555
Lu3 O2 2.864878 1_656
Lu3 O1 2.864878 1_655
O0 Sc0 2.152404 1_556
O0 Sc1 2.152404 1_555
O1 Sc3 2.086008 1_555
O1 Sc1 2.115096 1_555
O2 Sc2 2.086008 1_555
O2 Sc0 2.115096 1_555
O3 Sc1 2.086008 1_555
O3 Sc3 2.115096 1_565
O4 Sc0 2.086008 1_555
O4 Sc2 2.115096 1_565
O5 Sc3 2.152404 1_565
O5 Sc2 2.152404 1_566
O6 Sc3 2.152404 1_555
O6 Sc2 2.152404 1_555
O7 Sc0 2.086008 1_656
O7 Sc2 2.115096 1_556
O8 Sc1 2.086008 1_655
O8 Sc3 2.115096 1_555
O9 Sc2 2.086008 1_566
O9 Sc0 2.115096 1_656
O10 Sc3 2.086008 1_565
O10 Sc1 2.115096 1_655
O11 Sc0 2.152404 1_655
O11 Sc1 2.152404 1_655
