# generated using pymatgen
data_Li2Cr(BO2)5
_symmetry_space_group_name_H-M   'P 1'
_cell_length_a   15.61630400
_cell_length_b   7.13318900
_cell_length_c   7.14834971
_cell_angle_alpha   89.81638644
_cell_angle_beta   90.00000000
_cell_angle_gamma   90.00000000
_symmetry_Int_Tables_number   1
_chemical_formula_structural   Li2Cr(BO2)5
_chemical_formula_sum   'Li8 Cr4 B20 O40'
_cell_volume   796.27952082
_cell_formula_units_Z   4
loop_
 _symmetry_equiv_pos_site_id
 _symmetry_equiv_pos_as_xyz
  1  'x, y, z'
loop_
 _atom_site_type_symbol
 _atom_site_label
 _atom_site_symmetry_multiplicity
 _atom_site_fract_x
 _atom_site_fract_y
 _atom_site_fract_z
 _atom_site_occupancy
  Li  Li0  1  0.16693500  0.00206500  0.90153600  1
  Li  Li1  1  0.33306500  0.50206500  0.90153600  1
  Li  Li2  1  0.92342200  0.41069200  0.69486700  1
  Li  Li3  1  0.57657800  0.91069200  0.69486700  1
  Li  Li4  1  0.42342200  0.08930800  0.30513300  1
  Li  Li5  1  0.07657800  0.58930800  0.30513300  1
  Li  Li6  1  0.66693500  0.49793500  0.09846400  1
  Li  Li7  1  0.83306500  0.99793500  0.09846400  1
  Cr  Cr0  1  0.12453300  0.47000700  0.84449400  1
  Cr  Cr1  1  0.37546700  0.97000700  0.84449400  1
  Cr  Cr2  1  0.62453300  0.02999300  0.15550600  1
  Cr  Cr3  1  0.87546700  0.52999300  0.15550600  1
  B  B0  1  0.02404500  0.09293500  0.79319600  1
  B  B1  1  0.47595500  0.59293500  0.79319600  1
  B  B2  1  0.77410900  0.47666100  0.78432600  1
  B  B3  1  0.72589100  0.97666100  0.78432600  1
  B  B4  1  0.50495400  0.26212900  0.75056100  1
  B  B5  1  0.99504600  0.76212900  0.75056100  1
  B  B6  1  0.62083800  0.49397200  0.67930900  1
  B  B7  1  0.87916200  0.99397200  0.67930900  1
  B  B8  1  0.25842900  0.49964000  0.54698600  1
  B  B9  1  0.24157100  0.99964000  0.54698600  1
  B  B10  1  0.75842900  0.00036000  0.45301400  1
  B  B11  1  0.74157100  0.50036000  0.45301400  1
  B  B12  1  0.12083800  0.00602800  0.32069100  1
  B  B13  1  0.37916200  0.50602800  0.32069100  1
  B  B14  1  0.00495400  0.23787100  0.24943900  1
  B  B15  1  0.49504600  0.73787100  0.24943900  1
  B  B16  1  0.27410900  0.02333900  0.21567400  1
  B  B17  1  0.22589100  0.52333900  0.21567400  1
  B  B18  1  0.52404500  0.40706500  0.20680400  1
  B  B19  1  0.97595500  0.90706500  0.20680400  1
  O  O0  1  0.83809900  0.45762900  0.91208700  1
  O  O1  1  0.66190100  0.95762900  0.91208700  1
  O  O2  1  0.08568200  0.21794900  0.84370000  1
  O  O3  1  0.41431800  0.71794900  0.84370000  1
  O  O4  1  0.81024700  0.00465700  0.82859600  1
  O  O5  1  0.45260500  0.40355700  0.82604900  1
  O  O6  1  0.68975300  0.50465700  0.82859600  1
  O  O7  1  0.04739500  0.90355700  0.82604900  1
  O  O8  1  0.47830500  0.07768800  0.74623500  1
  O  O9  1  0.02169500  0.57768800  0.74623500  1
  O  O10  1  0.23408600  0.49592600  0.73211400  1
  O  O11  1  0.94604700  0.13921100  0.71959600  1
  O  O12  1  0.26591400  0.99592600  0.73211400  1
  O  O13  1  0.55395300  0.63921100  0.71959600  1
  O  O14  1  0.58306400  0.30569200  0.68116400  1
  O  O15  1  0.91693600  0.80569200  0.68116400  1
  O  O16  1  0.80119000  0.46311300  0.59583200  1
  O  O17  1  0.69881000  0.96311300  0.59583200  1
  O  O18  1  0.34167700  0.46845300  0.50373500  1
  O  O19  1  0.84167700  0.03154700  0.49626500  1
  O  O20  1  0.15832300  0.96845300  0.50373500  1
  O  O21  1  0.65832300  0.53154700  0.49626500  1
  O  O22  1  0.30119000  0.03688700  0.40416800  1
  O  O23  1  0.19881000  0.53688700  0.40416800  1
  O  O24  1  0.08306400  0.19430800  0.31883600  1
  O  O25  1  0.41693600  0.69430800  0.31883600  1
  O  O26  1  0.44604700  0.36078900  0.28040400  1
  O  O27  1  0.73408600  0.00407400  0.26788600  1
  O  O28  1  0.05395300  0.86078900  0.28040400  1
  O  O29  1  0.76591400  0.50407400  0.26788600  1
  O  O30  1  0.97830500  0.42231200  0.25376500  1
  O  O31  1  0.52169500  0.92231200  0.25376500  1
  O  O32  1  0.95260500  0.09644300  0.17395100  1
  O  O33  1  0.31024700  0.49534300  0.17140400  1
  O  O34  1  0.54739500  0.59644300  0.17395100  1
  O  O35  1  0.18975300  0.99534300  0.17140400  1
  O  O36  1  0.58568200  0.28205100  0.15630000  1
  O  O37  1  0.91431800  0.78205100  0.15630000  1
  O  O38  1  0.33809900  0.04237100  0.08791300  1
  O  O39  1  0.16190100  0.54237100  0.08791300  1
loop_
_geom_bond_atom_site_label_1
_geom_bond_atom_site_label_2
_geom_bond_distance
_geom_bond_site_symmetry_2
Li0 O35 1.962179 1_546
Li0 O12 1.964214 1_545
Li0 O2 2.036738 1_555
Li0 O7 2.066930 1_545
Li1 O33 1.962179 1_556
Li1 O10 1.964214 1_555
Li1 O3 2.036738 1_555
Li1 O5 2.066930 1_555
Li2 O11 1.975859 1_555
Li2 O9 1.977830 1_655
Li2 O16 2.069508 1_555
Li2 O0 2.074097 1_555
Li3 O13 1.975859 1_555
Li3 O8 1.977830 1_565
Li3 O17 2.069508 1_555
Li3 O1 2.074097 1_555
Li4 O26 1.975859 1_555
Li4 O31 1.977830 1_545
Li4 O22 2.069508 1_555
Li4 O38 2.074097 1_555
Li5 O28 1.975859 1_555
Li5 O30 1.977830 1_455
Li5 O23 2.069508 1_555
Li5 O39 2.074097 1_555
Li6 O6 1.962179 1_554
Li6 O29 1.964214 1_555
Li6 O36 2.036738 1_555
Li6 O34 2.066930 1_555
Li7 O4 1.962179 1_564
Li7 O27 1.964214 1_565
Li7 O37 2.036738 1_555
Li7 O32 2.066930 1_565
Cr0 O2 1.897608 1_555
Cr0 O10 1.898803 1_555
Cr0 O39 1.908007 1_556
Cr0 O9 1.912840 1_555
Cr1 O3 1.897608 1_555
Cr1 O12 1.898803 1_555
Cr1 O38 1.908007 1_566
Cr1 O8 1.912840 1_565
Cr2 O36 1.897608 1_555
Cr2 O27 1.898803 1_555
Cr2 O1 1.908007 1_544
Cr2 O31 1.912840 1_545
Cr3 O37 1.897608 1_555
Cr3 O29 1.898803 1_555
Cr3 O0 1.908007 1_554
Cr3 O30 1.912840 1_555
B0 O2 1.361654 1_555
B0 O11 1.366848 1_455
B0 O7 1.418072 1_545
B1 O3 1.361654 1_555
B1 O13 1.366848 1_555
B1 O5 1.418072 1_555
B2 O0 1.360254 1_555
B2 O6 1.369593 1_555
B2 O16 1.415827 1_555
B3 O1 1.360254 1_555
B3 O4 1.369593 1_565
B3 O17 1.415827 1_555
B4 O14 1.352608 1_555
B4 O8 1.380343 1_555
B4 O5 1.407380 1_555
B5 O15 1.352608 1_555
B5 O9 1.380343 1_655
B5 O7 1.407380 1_655
B6 O21 1.457509 1_555
B6 O14 1.466895 1_555
B6 O13 1.499718 1_555
B6 O6 1.517680 1_555
B7 O19 1.457509 1_565
B7 O15 1.466895 1_555
B7 O11 1.499718 1_565
B7 O4 1.517680 1_565
B8 O18 1.354838 1_555
B8 O10 1.377051 1_555
B8 O23 1.406389 1_555
B9 O20 1.354838 1_555
B9 O12 1.377051 1_555
B9 O22 1.406389 1_565
B10 O19 1.354838 1_555
B10 O27 1.377051 1_555
B10 O17 1.406389 1_545
B11 O21 1.354838 1_555
B11 O29 1.377051 1_555
B11 O16 1.406389 1_555
B12 O20 1.457509 1_545
B12 O24 1.466895 1_555
B12 O28 1.499718 1_545
B12 O35 1.517680 1_545
B13 O18 1.457509 1_555
B13 O25 1.466895 1_555
B13 O26 1.499718 1_555
B13 O33 1.517680 1_555
B14 O24 1.352608 1_555
B14 O30 1.380343 1_455
B14 O32 1.407380 1_455
B15 O25 1.352608 1_555
B15 O31 1.380343 1_555
B15 O34 1.407380 1_555
B16 O38 1.360254 1_555
B16 O35 1.369593 1_545
B16 O22 1.415827 1_555
B17 O39 1.360254 1_555
B17 O33 1.369593 1_555
B17 O23 1.415827 1_555
B18 O36 1.361654 1_555
B18 O26 1.366848 1_555
B18 O34 1.418072 1_555
B19 O37 1.361654 1_555
B19 O28 1.366848 1_655
B19 O32 1.418072 1_565
