# generated using pymatgen
data_LiFe(PO3)3
_symmetry_space_group_name_H-M   'P 1'
_cell_length_a   6.49959670
_cell_length_b   6.49959670
_cell_length_c   9.76374272
_cell_angle_alpha   89.80436568
_cell_angle_beta   89.80436568
_cell_angle_gamma   59.78150859
_symmetry_Int_Tables_number   1
_chemical_formula_structural   LiFe(PO3)3
_chemical_formula_sum   'Li2 Fe2 P6 O18'
_cell_volume   356.41503994
_cell_formula_units_Z   2
loop_
 _symmetry_equiv_pos_site_id
 _symmetry_equiv_pos_as_xyz
  1  'x, y, z'
loop_
 _atom_site_type_symbol
 _atom_site_label
 _atom_site_symmetry_multiplicity
 _atom_site_fract_x
 _atom_site_fract_y
 _atom_site_fract_z
 _atom_site_occupancy
  Li  Li0  1  0.32715700  0.34200400  0.50003100  1
  Li  Li1  1  0.34200400  0.32715700  0.00003100  1
  Fe  Fe0  1  0.66410600  0.66936500  0.99998800  1
  Fe  Fe1  1  0.66936500  0.66410600  0.49998800  1
  P  P0  1  0.27845900  0.75051600  0.24976400  1
  P  P1  1  0.27843600  0.96970500  0.75051300  1
  P  P2  1  0.75051600  0.27845900  0.74976400  1
  P  P3  1  0.96970500  0.27843600  0.25051300  1
  P  P4  1  0.75066400  0.97144800  0.24962600  1
  P  P5  1  0.97144800  0.75066400  0.74962600  1
  O  O0  1  0.40311700  0.63770300  0.11764700  1
  O  O1  1  0.39537600  0.63561100  0.38321300  1
  O  O2  1  0.39934200  0.96501700  0.88258000  1
  O  O3  1  0.39863400  0.95970100  0.61706400  1
  O  O4  1  0.63561100  0.39537600  0.88321300  1
  O  O5  1  0.63770300  0.40311700  0.61764700  1
  O  O6  1  0.95970100  0.39863400  0.11706400  1
  O  O7  1  0.96501700  0.39934200  0.38258000  1
  O  O8  1  0.64116700  0.95731200  0.38261900  1
  O  O9  1  0.63318500  0.97250000  0.11690000  1
  O  O10  1  0.02443000  0.20972400  0.75056800  1
  O  O11  1  0.20972400  0.02443000  0.25056800  1
  O  O12  1  0.97250000  0.63318500  0.61690000  1
  O  O13  1  0.95731200  0.64116700  0.88261900  1
  O  O14  1  0.02508500  0.76500500  0.24500200  1
  O  O15  1  0.21039400  0.76450700  0.75445400  1
  O  O16  1  0.76500500  0.02508500  0.74500200  1
  O  O17  1  0.76450700  0.21039400  0.25445400  1
loop_
_geom_bond_atom_site_label_1
_geom_bond_atom_site_label_2
_geom_bond_distance
_geom_bond_site_symmetry_2
Li0 O12 2.408914 1_455
Li0 O1 2.443900 1_555
Li0 O7 2.475216 1_455
Li0 O5 2.525181 1_555
Li0 O3 2.553056 1_545
Li0 O8 2.568699 1_545
Li1 O9 2.408914 1_545
Li1 O4 2.443900 1_554
Li1 O2 2.475216 1_544
Li1 O0 2.525181 1_555
Li1 O6 2.553056 1_455
Li1 O13 2.568699 1_454
Fe0 O0 2.139171 1_556
Fe0 O13 2.147913 1_555
Fe0 O2 2.153567 1_555
Fe0 O6 2.166209 1_556
Fe0 O9 2.200119 1_556
Fe0 O4 2.202926 1_555
Fe1 O5 2.139171 1_555
Fe1 O8 2.147913 1_555
Fe1 O7 2.153567 1_555
Fe1 O3 2.166209 1_555
Fe1 O12 2.200119 1_555
Fe1 O1 2.202926 1_555
O0 P0 1.503132 1_555
O1 P0 1.503923 1_555
O2 P1 1.504577 1_555
O3 P1 1.501588 1_555
O4 P2 1.503923 1_555
O5 P2 1.503132 1_555
O6 P3 1.501588 1_555
O7 P3 1.504577 1_555
O8 P4 1.503250 1_555
O9 P4 1.504621 1_555
O10 P1 1.602116 1_545
O10 P2 1.602712 1_455
O11 P3 1.602116 1_455
O11 P0 1.602712 1_545
O12 P5 1.504621 1_555
O13 P5 1.503250 1_555
O14 P0 1.602329 1_555
O14 P4 1.604552 1_455
O15 P5 1.601086 1_455
O15 P1 1.602834 1_555
O16 P2 1.602329 1_555
O16 P5 1.604552 1_545
O17 P4 1.601086 1_545
O17 P3 1.602834 1_555
