# generated using pymatgen
data_LiFe(PO3)4
_symmetry_space_group_name_H-M   'P 1'
_cell_length_a   9.17080500
_cell_length_b   6.84593600
_cell_length_c   7.19514740
_cell_angle_alpha   84.97332837
_cell_angle_beta   90.00000000
_cell_angle_gamma   90.00000000
_symmetry_Int_Tables_number   1
_chemical_formula_structural   LiFe(PO3)4
_chemical_formula_sum   'Li2 Fe2 P8 O24'
_cell_volume   449.99374876
_cell_formula_units_Z   2
loop_
 _symmetry_equiv_pos_site_id
 _symmetry_equiv_pos_as_xyz
  1  'x, y, z'
loop_
 _atom_site_type_symbol
 _atom_site_label
 _atom_site_symmetry_multiplicity
 _atom_site_fract_x
 _atom_site_fract_y
 _atom_site_fract_z
 _atom_site_occupancy
  Li  Li0  1  0.25647500  0.73716100  0.71820800  1
  Li  Li1  1  0.75647500  0.26283900  0.28179200  1
  Fe  Fe0  1  0.96998200  0.73010200  0.25513000  1
  Fe  Fe1  1  0.46998200  0.26989800  0.74487000  1
  P  P0  1  0.36338700  0.03027700  0.40581500  1
  P  P1  1  0.56918300  0.93967900  0.08912600  1
  P  P2  1  0.74807300  0.57842000  0.58752500  1
  P  P3  1  0.39901200  0.57066200  0.06338500  1
  P  P4  1  0.89901200  0.42933800  0.93661500  1
  P  P5  1  0.24807300  0.42158000  0.41247500  1
  P  P6  1  0.06918300  0.06032100  0.91087400  1
  P  P7  1  0.86338700  0.96972300  0.59418500  1
  O  O0  1  0.93091800  0.98372400  0.79735200  1
  O  O1  1  0.55125900  0.03812000  0.89303600  1
  O  O2  1  0.97718800  0.87761100  0.47475200  1
  O  O3  1  0.70880900  0.95539600  0.19254900  1
  O  O4  1  0.73703700  0.80312000  0.63690400  1
  O  O5  1  0.29769300  0.84086500  0.47413600  1
  O  O6  1  0.53977100  0.70756300  0.07567800  1
  O  O7  1  0.27009400  0.67500400  0.97862600  1
  O  O8  1  0.79633700  0.56953600  0.38612900  1
  O  O9  1  0.87898200  0.49345500  0.71709600  1
  O  O10  1  0.94734300  0.61202100  0.02303600  1
  O  O11  1  0.60516700  0.48210500  0.64211600  1
  O  O12  1  0.10516700  0.51789500  0.35788400  1
  O  O13  1  0.44734300  0.38797900  0.97696300  1
  O  O14  1  0.37898200  0.50654500  0.28290400  1
  O  O15  1  0.29633700  0.43046400  0.61387100  1
  O  O16  1  0.77009400  0.32499600  0.02137400  1
  O  O17  1  0.03977100  0.29243700  0.92432200  1
  O  O18  1  0.79769300  0.15913500  0.52586400  1
  O  O19  1  0.23703700  0.19688000  0.36309600  1
  O  O20  1  0.20880900  0.04460400  0.80745100  1
  O  O21  1  0.47718800  0.12238900  0.52524800  1
  O  O22  1  0.05125900  0.96188000  0.10696400  1
  O  O23  1  0.43091800  0.01627600  0.20264800  1
loop_
_geom_bond_atom_site_label_1
_geom_bond_atom_site_label_2
_geom_bond_distance
_geom_bond_site_symmetry_2
Li0 O5 1.874151 1_555
Li0 O7 1.888881 1_555
Li0 O20 2.295679 1_565
Li0 O15 2.319887 1_555
Li1 O18 1.874151 1_555
Li1 O16 1.888881 1_555
Li1 O3 2.295679 1_545
Li1 O8 2.319887 1_555
Fe0 O10 1.929216 1_555
Fe0 O2 1.949577 1_555
Fe0 O22 1.978233 1_655
Fe0 O12 2.001470 1_655
Fe0 O8 2.109761 1_555
Fe1 O13 1.929209 1_555
Fe1 O21 1.949577 1_555
Fe1 O1 1.978233 1_555
Fe1 O11 2.001470 1_555
Fe1 O15 2.109761 1_555
O0 P7 1.598186 1_555
O0 P6 1.620195 1_665
O1 P1 1.518287 1_546
O2 P7 1.523243 1_555
O3 P1 1.489629 1_555
O4 P2 1.612005 1_555
O4 P7 1.636020 1_555
O5 P0 1.474568 1_565
O6 P3 1.602210 1_555
O6 P1 1.623005 1_555
O7 P3 1.484461 1_556
O8 P2 1.521470 1_555
O9 P2 1.598047 1_555
O9 P4 1.612343 1_555
O10 P4 1.511117 1_554
O11 P2 1.503741 1_555
O12 P5 1.503741 1_555
O13 P3 1.511120 1_556
O14 P5 1.598047 1_555
O14 P3 1.612343 1_555
O15 P5 1.521470 1_555
O16 P4 1.484461 1_554
O17 P4 1.602210 1_455
O17 P6 1.623005 1_555
O18 P7 1.474568 1_545
O19 P5 1.612005 1_555
O19 P0 1.636020 1_555
O20 P6 1.489629 1_555
O21 P0 1.523243 1_555
O22 P6 1.518287 1_564
O23 P0 1.598186 1_555
O23 P1 1.620195 1_545
