# generated using pymatgen
data_LiVP2H5O9
_symmetry_space_group_name_H-M   'P 1'
_cell_length_a   6.45918300
_cell_length_b   7.86913800
_cell_length_c   15.13981100
_cell_angle_alpha   90.00000000
_cell_angle_beta   90.00000000
_cell_angle_gamma   90.00000000
_symmetry_Int_Tables_number   1
_chemical_formula_structural   LiVP2H5O9
_chemical_formula_sum   'Li4 V4 P8 H20 O36'
_cell_volume   769.52937772
_cell_formula_units_Z   4
loop_
 _symmetry_equiv_pos_site_id
 _symmetry_equiv_pos_as_xyz
  1  'x, y, z'
loop_
 _atom_site_type_symbol
 _atom_site_label
 _atom_site_symmetry_multiplicity
 _atom_site_fract_x
 _atom_site_fract_y
 _atom_site_fract_z
 _atom_site_occupancy
  Li  Li0  1  0.22786100  0.76146100  0.03019500  1
  Li  Li1  1  0.72786100  0.26146100  0.46980500  1
  Li  Li2  1  0.27213900  0.76146100  0.53019500  1
  Li  Li3  1  0.77213900  0.26146100  0.96980500  1
  V  V0  1  0.93840400  0.24939300  0.19094600  1
  V  V1  1  0.43840400  0.74939300  0.30905400  1
  V  V2  1  0.56159600  0.24939300  0.69094600  1
  V  V3  1  0.06159600  0.74939300  0.80905400  1
  P  P0  1  0.63308000  0.93740500  0.13178600  1
  P  P1  1  0.64243400  0.56553800  0.13273800  1
  P  P2  1  0.13308000  0.43740500  0.36821400  1
  P  P3  1  0.14243400  0.06553800  0.36726200  1
  P  P4  1  0.86692000  0.93740500  0.63178600  1
  P  P5  1  0.85756600  0.56553800  0.63273800  1
  P  P6  1  0.36692000  0.43740500  0.86821400  1
  P  P7  1  0.35756600  0.06553800  0.86726200  1
  H  H0  1  0.49348500  0.50488400  0.00705200  1
  H  H1  1  0.28482900  0.34893100  0.09653900  1
  H  H2  1  0.28393100  0.14540500  0.09493100  1
  H  H3  1  0.10433200  0.85215300  0.22508400  1
  H  H4  1  0.10583600  0.64468600  0.22553000  1
  H  H5  1  0.60433200  0.35215300  0.27491600  1
  H  H6  1  0.60583600  0.14468600  0.27447000  1
  H  H7  1  0.78482900  0.84893100  0.40346100  1
  H  H8  1  0.78393100  0.64540500  0.40506900  1
  H  H9  1  0.99348500  0.00488400  0.49294800  1
  H  H10  1  0.00651500  0.50488400  0.50705200  1
  H  H11  1  0.21517100  0.34893100  0.59653900  1
  H  H12  1  0.21606900  0.14540500  0.59493100  1
  H  H13  1  0.39566800  0.85215300  0.72508400  1
  H  H14  1  0.39416400  0.64468600  0.72553000  1
  H  H15  1  0.89566800  0.35215300  0.77491600  1
  H  H16  1  0.89416400  0.14468600  0.77447000  1
  H  H17  1  0.71517100  0.84893100  0.90346100  1
  H  H18  1  0.71606900  0.64540500  0.90506900  1
  H  H19  1  0.50651500  0.00488400  0.99294800  1
  O  O0  1  0.43751200  0.94464500  0.07132000  1
  O  O1  1  0.44160300  0.55308800  0.07156600  1
  O  O2  1  0.19596800  0.24747000  0.09899700  1
  O  O3  1  0.73950500  0.75130800  0.11243900  1
  O  O4  1  0.79989300  0.43627300  0.10139200  1
  O  O5  1  0.79228500  0.06731200  0.10193100  1
  O  O6  1  0.18412700  0.74868700  0.20893500  1
  O  O7  1  0.57807400  0.94418900  0.22949400  1
  O  O8  1  0.57976700  0.55577300  0.22882800  1
  O  O9  1  0.07807400  0.44418900  0.27050600  1
  O  O10  1  0.07976700  0.05577300  0.27117200  1
  O  O11  1  0.68412700  0.24868700  0.29106500  1
  O  O12  1  0.29989200  0.93627300  0.39860800  1
  O  O13  1  0.29228500  0.56731200  0.39806900  1
  O  O14  1  0.23950500  0.25130800  0.38756100  1
  O  O15  1  0.69596800  0.74747000  0.40100300  1
  O  O16  1  0.93751200  0.44464500  0.42868000  1
  O  O17  1  0.94160300  0.05308800  0.42843400  1
  O  O18  1  0.06248800  0.94464500  0.57132000  1
  O  O19  1  0.05839700  0.55308800  0.57156600  1
  O  O20  1  0.30403200  0.24747000  0.59899700  1
  O  O21  1  0.76049500  0.75130800  0.61243900  1
  O  O22  1  0.70010700  0.43627300  0.60139200  1
  O  O23  1  0.70771500  0.06731200  0.60193100  1
  O  O24  1  0.31587300  0.74868700  0.70893500  1
  O  O25  1  0.92192600  0.94418900  0.72949400  1
  O  O26  1  0.92023300  0.55577300  0.72882800  1
  O  O27  1  0.42192600  0.44418900  0.77050600  1
  O  O28  1  0.42023300  0.05577300  0.77117200  1
  O  O29  1  0.81587300  0.24868700  0.79106500  1
  O  O30  1  0.20010700  0.93627300  0.89860800  1
  O  O31  1  0.20771500  0.56731200  0.89806900  1
  O  O32  1  0.26049500  0.25130800  0.88756100  1
  O  O33  1  0.80403200  0.74747000  0.90100300  1
  O  O34  1  0.56248800  0.44464500  0.92868000  1
  O  O35  1  0.55839700  0.05308800  0.92843400  1
loop_
_geom_bond_atom_site_label_1
_geom_bond_atom_site_label_2
_geom_bond_distance
_geom_bond_site_symmetry_2
Li0 O0 2.073493 1_555
Li0 O1 2.233167 1_555
Li0 O30 2.427620 1_554
Li0 O31 2.520419 1_554
Li1 O16 2.073493 1_555
Li1 O17 2.233167 1_555
Li1 O22 2.427620 1_555
Li1 O23 2.520419 1_555
Li2 O18 2.073493 1_555
Li2 O19 2.233167 1_555
Li2 O12 2.427619 1_555
Li2 O13 2.520419 1_555
Li3 O34 2.073493 1_555
Li3 O35 2.233167 1_555
Li3 O4 2.427620 1_556
Li3 O5 2.520419 1_556
H0 O1 1.100086 1_555
H0 O34 1.353228 1_554
H1 O2 0.984015 1_555
H2 O2 0.985737 1_555
H3 O6 0.994146 1_555
H3 O10 1.754839 1_565
H4 O6 0.994298 1_555
H4 O9 1.727738 1_555
H5 O11 0.994146 1_555
H5 O8 1.754839 1_555
H6 O11 0.994298 1_555
H6 O7 1.727738 1_545
H7 O15 0.984015 1_555
H8 O15 0.985737 1_555
H9 O17 1.100086 1_555
H9 O18 1.353228 1_645
H10 O19 1.100086 1_555
H10 O16 1.353228 1_455
H11 O20 0.984015 1_555
H12 O20 0.985737 1_555
H13 O24 0.994146 1_555
H13 O28 1.754839 1_565
H14 O24 0.994298 1_555
H14 O27 1.727738 1_555
H15 O29 0.994146 1_555
H15 O26 1.754839 1_555
H16 O29 0.994298 1_555
H16 O25 1.727738 1_545
H17 O33 0.984015 1_555
H18 O33 0.985737 1_555
H19 O35 1.100086 1_555
H19 O0 1.353228 1_546
O0 P0 1.561083 1_555
O1 P1 1.596890 1_555
O2 V0 2.169305 1_455
O3 P1 1.620056 1_555
O3 P0 1.644042 1_555
O4 P1 1.514704 1_555
O4 V0 2.191193 1_555
O5 P0 1.518809 1_545
O5 V0 2.181735 1_555
O6 V1 2.234989 1_555
O7 P0 1.522286 1_555
O7 V1 2.148132 1_555
O8 P1 1.512001 1_555
O8 V1 2.151843 1_555
O9 P2 1.522286 1_555
O9 V0 2.148132 1_455
O10 P3 1.512001 1_555
O10 V0 2.151843 1_455
O11 V0 2.234989 1_555
O12 P3 1.514699 1_565
O12 V1 2.191195 1_555
O13 P2 1.518809 1_555
O13 V1 2.181735 1_555
O14 P3 1.620056 1_555
O14 P2 1.644042 1_555
O15 V1 2.169305 1_555
O16 P2 1.561083 1_655
O17 P3 1.596890 1_655
O18 P4 1.561083 1_455
O19 P5 1.596890 1_455
O20 V2 2.169305 1_555
O21 P5 1.620056 1_555
O21 P4 1.644042 1_555
O22 P5 1.514704 1_555
O22 V2 2.191193 1_555
O23 P4 1.518809 1_545
O23 V2 2.181735 1_555
O24 V3 2.234989 1_555
O25 P4 1.522286 1_555
O25 V3 2.148132 1_655
O26 P5 1.512001 1_555
O26 V3 2.151843 1_655
O27 P6 1.522286 1_555
O27 V2 2.148132 1_555
O28 P7 1.512001 1_555
O28 V2 2.151843 1_555
O29 V2 2.234989 1_555
O30 P7 1.514704 1_565
O30 V3 2.191193 1_555
O31 P6 1.518809 1_555
O31 V3 2.181735 1_555
O32 P7 1.620056 1_555
O32 P6 1.644042 1_555
O33 V3 2.169305 1_655
O34 P6 1.561083 1_555
O35 P7 1.596890 1_555
