# generated using pymatgen
data_Li2CrFeO4
_symmetry_space_group_name_H-M   'P 1'
_cell_length_a   5.11403300
_cell_length_b   5.92958886
_cell_length_c   7.83227562
_cell_angle_alpha   79.01172643
_cell_angle_beta   77.50814256
_cell_angle_gamma   73.42268080
_symmetry_Int_Tables_number   1
_chemical_formula_structural   Li2CrFeO4
_chemical_formula_sum   'Li6 Cr3 Fe3 O12'
_cell_volume   220.12757475
_cell_formula_units_Z   3
loop_
 _symmetry_equiv_pos_site_id
 _symmetry_equiv_pos_as_xyz
  1  'x, y, z'
loop_
 _atom_site_type_symbol
 _atom_site_label
 _atom_site_symmetry_multiplicity
 _atom_site_fract_x
 _atom_site_fract_y
 _atom_site_fract_z
 _atom_site_occupancy
  Li  Li0  1  0.99657700  0.66745700  0.33298000  1
  Li  Li1  1  0.49881000  0.83383300  0.16754100  1
  Li  Li2  1  0.00380400  0.33200900  0.66678400  1
  Li  Li3  1  0.99948100  0.00074700  0.00002800  1
  Li  Li4  1  0.49991800  0.49961400  0.49932000  1
  Li  Li5  1  0.50117000  0.16642500  0.83326700  1
  Cr  Cr0  1  0.00000900  0.83546200  0.66445000  1
  Cr  Cr1  1  0.00004000  0.16504500  0.33494400  1
  Cr  Cr2  1  0.49976200  0.33078800  0.16930200  1
  Fe  Fe0  1  0.99994300  0.50009400  0.00008400  1
  Fe  Fe1  1  0.50012300  0.66922700  0.83081500  1
  Fe  Fe2  1  0.50017100  0.99985600  0.49987700  1
  O  O0  1  0.74108800  0.68693800  0.58730700  1
  O  O1  1  0.75744500  0.48235700  0.24448800  1
  O  O2  1  0.75923900  0.82106500  0.90796900  1
  O  O3  1  0.25847400  0.65126900  0.07816200  1
  O  O4  1  0.73777600  0.01518300  0.26260500  1
  O  O5  1  0.74083400  0.34681600  0.92471100  1
  O  O6  1  0.24576200  0.85260300  0.42597800  1
  O  O7  1  0.26024400  0.98739900  0.73742500  1
  O  O8  1  0.75446000  0.14774400  0.57369100  1
  O  O9  1  0.26164300  0.31161500  0.41063800  1
  O  O10  1  0.24118500  0.51654800  0.75491200  1
  O  O11  1  0.24204400  0.17990500  0.09272100  1
loop_
_geom_bond_atom_site_label_1
_geom_bond_atom_site_label_2
_geom_bond_distance
_geom_bond_site_symmetry_2
Li0 O0 2.136370 1_555
Li0 O1 2.145500 1_555
Li0 O3 2.151651 1_655
Li0 O4 2.152208 1_565
Li0 O6 2.205546 1_655
Li0 O9 2.212446 1_655
Li1 O3 2.143107 1_555
Li1 O11 2.148375 1_565
Li1 O4 2.157064 1_565
Li1 O6 2.157492 1_555
Li1 O2 2.177745 1_554
Li1 O1 2.179274 1_555
Li2 O7 2.134298 1_545
Li2 O10 2.134467 1_555
Li2 O9 2.152972 1_555
Li2 O5 2.173081 1_455
Li2 O8 2.202812 1_455
Li2 O0 2.206980 1_455
Li3 O2 2.141856 1_544
Li3 O11 2.151736 1_655
Li3 O5 2.153079 1_554
Li3 O3 2.173497 1_645
Li3 O7 2.197782 1_644
Li3 O4 2.199791 1_555
Li4 O1 2.143000 1_555
Li4 O10 2.150178 1_555
Li4 O9 2.155555 1_555
Li4 O0 2.161263 1_555
Li4 O8 2.168405 1_555
Li4 O6 2.170855 1_555
Li5 O5 2.139907 1_555
Li5 O2 2.147760 1_545
Li5 O7 2.158398 1_545
Li5 O8 2.165238 1_555
Li5 O11 2.174511 1_556
Li5 O10 2.178696 1_555
Cr0 O6 2.015806 1_555
Cr0 O8 2.017063 1_465
Cr0 O0 2.026911 1_455
Cr0 O7 2.029542 1_555
Cr0 O10 2.033621 1_555
Cr0 O2 2.035480 1_455
Cr1 O8 2.017154 1_455
Cr1 O6 2.018761 1_545
Cr1 O9 2.024761 1_555
Cr1 O4 2.027388 1_455
Cr1 O1 2.030113 1_455
Cr1 O11 2.030132 1_555
Cr2 O9 2.017435 1_555
Cr2 O4 2.020261 1_555
Cr2 O1 2.025930 1_555
Cr2 O11 2.028960 1_555
Cr2 O3 2.041887 1_555
Cr2 O5 2.043188 1_554
Fe0 O3 2.039749 1_655
Fe0 O5 2.039753 1_554
Fe0 O2 2.044985 1_554
Fe0 O1 2.045492 1_555
Fe0 O11 2.046006 1_655
Fe0 O10 2.047283 1_654
Fe1 O7 2.034888 1_555
Fe1 O0 2.036628 1_555
Fe1 O10 2.038726 1_555
Fe1 O2 2.041161 1_555
Fe1 O5 2.055197 1_555
Fe1 O3 2.062132 1_556
Fe2 O6 1.989171 1_555
Fe2 O4 1.990000 1_565
Fe2 O8 1.990878 1_565
Fe2 O9 1.995846 1_565
Fe2 O7 1.996080 1_555
Fe2 O0 2.001455 1_555
