# generated using pymatgen
data_K2Mo3O13
_symmetry_space_group_name_H-M   'P 1'
_cell_length_a   9.39225984
_cell_length_b   9.39225984
_cell_length_c   7.65824900
_cell_angle_alpha   90.00000000
_cell_angle_beta   90.00000000
_cell_angle_gamma   96.93346464
_symmetry_Int_Tables_number   1
_chemical_formula_structural   K2Mo3O13
_chemical_formula_sum   'K4 Mo6 O26'
_cell_volume   670.62851786
_cell_formula_units_Z   2
loop_
 _symmetry_equiv_pos_site_id
 _symmetry_equiv_pos_as_xyz
  1  'x, y, z'
loop_
 _atom_site_type_symbol
 _atom_site_label
 _atom_site_symmetry_multiplicity
 _atom_site_fract_x
 _atom_site_fract_y
 _atom_site_fract_z
 _atom_site_occupancy
  K  K0  1  0.08028900  0.48411500  0.75000000  1
  K  K1  1  0.51588500  0.91971100  0.25000000  1
  K  K2  1  0.91971100  0.51588500  0.25000000  1
  K  K3  1  0.48411500  0.08028900  0.75000000  1
  Mo  Mo0  1  0.16902900  0.16902900  0.25000000  1
  Mo  Mo1  1  0.83097100  0.83097100  0.75000000  1
  Mo  Mo2  1  0.12984600  0.87015400  0.00000000  1
  Mo  Mo3  1  0.12984600  0.87015400  0.50000000  1
  Mo  Mo4  1  0.87015400  0.12984600  0.00000000  1
  Mo  Mo5  1  0.87015400  0.12984600  0.50000000  1
  O  O0  1  0.31564300  0.90372800  0.52762100  1
  O  O1  1  0.09627200  0.68435700  0.47237900  1
  O  O2  1  0.31564300  0.90372800  0.97237900  1
  O  O3  1  0.09627200  0.68435700  0.02762100  1
  O  O4  1  0.68435700  0.09627200  0.47237900  1
  O  O5  1  0.90372800  0.31564300  0.52762100  1
  O  O6  1  0.68435700  0.09627200  0.02762100  1
  O  O7  1  0.90372800  0.31564300  0.97237900  1
  O  O8  1  0.12151600  0.91919000  0.25000000  1
  O  O9  1  0.08081000  0.87848400  0.75000000  1
  O  O10  1  0.87848400  0.08081000  0.75000000  1
  O  O11  1  0.91919000  0.12151600  0.25000000  1
  O  O12  1  0.10800300  0.10800300  0.48894500  1
  O  O13  1  0.89199700  0.89199700  0.51105500  1
  O  O14  1  0.10800300  0.10800300  0.01105500  1
  O  O15  1  0.89199700  0.89199700  0.98894500  1
  O  O16  1  0.35243900  0.15614200  0.25000000  1
  O  O17  1  0.84385800  0.64756100  0.75000000  1
  O  O18  1  0.64756100  0.84385800  0.75000000  1
  O  O19  1  0.15614200  0.35243900  0.25000000  1
  O  O20  1  0.77545500  0.77545500  0.25000000  1
  O  O21  1  0.22454500  0.22454500  0.75000000  1
  O  O22  1  0.55142200  0.46379200  0.25000000  1
  O  O23  1  0.53620800  0.44857800  0.75000000  1
  O  O24  1  0.44857800  0.53620800  0.75000000  1
  O  O25  1  0.46379200  0.55142200  0.25000000  1
loop_
_geom_bond_atom_site_label_1
_geom_bond_atom_site_label_2
_geom_bond_distance
_geom_bond_site_symmetry_2
K0 O5 2.742365 1_455
K0 O7 2.742365 1_455
K0 O3 2.830505 1_556
K0 O1 2.830505 1_555
K0 O17 2.847948 1_455
K0 O21 2.928620 1_555
K1 O4 2.742365 1_565
K1 O6 2.742365 1_565
K1 O2 2.830505 1_554
K1 O0 2.830505 1_555
K1 O16 2.847948 1_565
K1 O20 2.928620 1_555
K2 O1 2.742365 1_655
K2 O3 2.742365 1_655
K2 O5 2.830505 1_555
K2 O7 2.830505 1_554
K2 O19 2.847948 1_655
K2 O20 2.928620 1_555
K3 O2 2.742365 1_545
K3 O0 2.742365 1_545
K3 O6 2.830505 1_556
K3 O4 2.830505 1_555
K3 O18 2.847948 1_545
K3 O21 2.928620 1_555
Mo0 O16 1.741396 1_555
Mo0 O19 1.741396 1_555
Mo0 O12 1.981482 1_555
Mo0 O14 1.981482 1_555
Mo0 O11 2.335088 1_455
Mo0 O8 2.335088 1_545
Mo1 O18 1.741396 1_555
Mo1 O17 1.741396 1_555
Mo1 O15 1.981482 1_555
Mo1 O13 1.981482 1_555
Mo1 O9 2.335088 1_655
Mo1 O10 2.335088 1_565
Mo2 O3 1.748296 1_555
Mo2 O2 1.748296 1_554
Mo2 O9 1.972938 1_554
Mo2 O8 1.972938 1_555
Mo2 O14 2.269448 1_565
Mo2 O15 2.269448 1_454
Mo3 O1 1.748296 1_555
Mo3 O0 1.748296 1_555
Mo3 O9 1.972938 1_555
Mo3 O8 1.972938 1_555
Mo3 O12 2.269448 1_565
Mo3 O13 2.269448 1_455
Mo4 O6 1.748296 1_555
Mo4 O7 1.748296 1_554
Mo4 O10 1.972938 1_554
Mo4 O11 1.972938 1_555
Mo4 O14 2.269448 1_655
Mo4 O15 2.269448 1_544
Mo5 O4 1.748296 1_555
Mo5 O5 1.748296 1_555
Mo5 O10 1.972938 1_555
Mo5 O11 1.972938 1_555
Mo5 O12 2.269448 1_655
Mo5 O13 2.269448 1_545
O22 O25 1.232213 1_555
O23 O24 1.232213 1_555
