# generated using pymatgen
data_LiMn2F9
_symmetry_space_group_name_H-M   'P 1'
_cell_length_a   4.92324200
_cell_length_b   8.50203584
_cell_length_c   8.80625576
_cell_angle_alpha   113.19471649
_cell_angle_beta   105.33274058
_cell_angle_gamma   90.86765420
_symmetry_Int_Tables_number   1
_chemical_formula_structural   LiMn2F9
_chemical_formula_sum   'Li2 Mn4 F18'
_cell_volume   323.78290396
_cell_formula_units_Z   2
loop_
 _symmetry_equiv_pos_site_id
 _symmetry_equiv_pos_as_xyz
  1  'x, y, z'
loop_
 _atom_site_type_symbol
 _atom_site_label
 _atom_site_symmetry_multiplicity
 _atom_site_fract_x
 _atom_site_fract_y
 _atom_site_fract_z
 _atom_site_occupancy
  Li  Li0  1  0.03719500  0.13136800  0.42194500  1
  Li  Li1  1  0.96280500  0.86863200  0.57805500  1
  Mn  Mn0  1  0.69437800  0.24250600  0.75927400  1
  Mn  Mn1  1  0.39560900  0.66971200  0.79975800  1
  Mn  Mn2  1  0.60439100  0.33028800  0.20024200  1
  Mn  Mn3  1  0.30562200  0.75749400  0.24072600  1
  F  F0  1  0.56821100  0.67465200  0.65111500  1
  F  F1  1  0.19738900  0.96359200  0.25718900  1
  F  F2  1  0.21851100  0.77555700  0.43204700  1
  F  F3  1  0.55805000  0.46757300  0.79554900  1
  F  F4  1  0.32572100  0.13994000  0.62944100  1
  F  F5  1  0.95943000  0.65215300  0.10763700  1
  F  F6  1  0.93763300  0.44689700  0.32564700  1
  F  F7  1  0.59421700  0.26906600  0.96817600  1
  F  F8  1  0.26683600  0.86943700  0.81369500  1
  F  F9  1  0.73316400  0.13056300  0.18630500  1
  F  F10  1  0.40578300  0.73093400  0.03182400  1
  F  F11  1  0.06236700  0.55310300  0.67435300  1
  F  F12  1  0.04057000  0.34784700  0.89236300  1
  F  F13  1  0.67427900  0.86006000  0.37055900  1
  F  F14  1  0.44195000  0.53242700  0.20445100  1
  F  F15  1  0.78148900  0.22444300  0.56795300  1
  F  F16  1  0.80261100  0.03640800  0.74281100  1
  F  F17  1  0.43178900  0.32534800  0.34888500  1
loop_
_geom_bond_atom_site_label_1
_geom_bond_atom_site_label_2
_geom_bond_distance
_geom_bond_site_symmetry_2
F0 Mn1 1.751510 1_555
F1 Mn3 1.801213 1_555
F1 Li0 1.941845 1_565
F2 Mn3 1.796231 1_555
F2 Li1 1.987209 1_455
F3 Mn1 1.897798 1_555
F3 Mn0 1.971012 1_555
F4 Mn0 1.852321 1_555
F4 Li0 1.970092 1_555
F5 Mn3 1.775161 1_655
F6 Mn2 1.739043 1_555
F7 Mn2 1.886010 1_556
F7 Mn0 1.958147 1_555
F8 Mn1 1.791653 1_555
F8 Li1 2.211887 1_455
F9 Mn2 1.791653 1_555
F9 Li0 2.211887 1_655
F10 Mn1 1.886010 1_554
F10 Mn3 1.958147 1_555
F11 Mn1 1.739043 1_555
F12 Mn0 1.775161 1_455
F13 Mn3 1.852321 1_555
F13 Li1 1.970092 1_555
F14 Mn2 1.897798 1_555
F14 Mn3 1.971012 1_555
F15 Mn0 1.796231 1_555
F15 Li0 1.987209 1_655
F16 Mn0 1.801213 1_555
F16 Li1 1.941845 1_545
F17 Mn2 1.751510 1_555
