# generated using pymatgen
data_Li4Fe7(PO4)6
_symmetry_space_group_name_H-M   'P 1'
_cell_length_a   8.99864096
_cell_length_b   8.99864096
_cell_length_c   6.51378026
_cell_angle_alpha   80.94844033
_cell_angle_beta   80.94844033
_cell_angle_gamma   103.28386750
_symmetry_Int_Tables_number   1
_chemical_formula_structural   Li4Fe7(PO4)6
_chemical_formula_sum   'Li4 Fe7 P6 O24'
_cell_volume   496.57417499
_cell_formula_units_Z   1
loop_
 _symmetry_equiv_pos_site_id
 _symmetry_equiv_pos_as_xyz
  1  'x, y, z'
loop_
 _atom_site_type_symbol
 _atom_site_label
 _atom_site_symmetry_multiplicity
 _atom_site_fract_x
 _atom_site_fract_y
 _atom_site_fract_z
 _atom_site_occupancy
  Li  Li0  1  0.75959200  0.75959200  0.46407600  1
  Li  Li1  1  0.57319800  0.33830100  0.52703000  1
  Li  Li2  1  0.33830100  0.57319800  0.52703000  1
  Li  Li3  1  0.06490200  0.06490200  0.55342500  1
  Fe  Fe0  1  0.99121700  0.35737500  0.18117200  1
  Fe  Fe1  1  0.35737500  0.99121700  0.18117200  1
  Fe  Fe2  1  0.63972600  0.35308800  0.01549700  1
  Fe  Fe3  1  0.35308800  0.63972600  0.01549700  1
  Fe  Fe4  1  0.99368100  0.99368100  0.00999300  1
  Fe  Fe5  1  0.64262300  0.00547700  0.80971300  1
  Fe  Fe6  1  0.00547700  0.64262300  0.80971300  1
  P  P0  1  0.28251100  0.89715100  0.70936100  1
  P  P1  1  0.89715100  0.28251100  0.70936100  1
  P  P2  1  0.67364900  0.67364900  0.07260200  1
  P  P3  1  0.31158600  0.31158600  0.91718000  1
  P  P4  1  0.71144000  0.08574300  0.29349800  1
  P  P5  1  0.08574300  0.71144000  0.29349800  1
  O  O0  1  0.58258500  0.75991800  0.92679200  1
  O  O1  1  0.75991800  0.58258500  0.92679200  1
  O  O2  1  0.79217400  0.79217400  0.15272500  1
  O  O3  1  0.95660000  0.38340300  0.86813100  1
  O  O4  1  0.38340300  0.95660000  0.86813100  1
  O  O5  1  0.89439700  0.10458000  0.76882500  1
  O  O6  1  0.10458000  0.89439700  0.76882500  1
  O  O7  1  0.71889700  0.27840400  0.72797000  1
  O  O8  1  0.27840400  0.71889700  0.72797000  1
  O  O9  1  0.55424800  0.55424800  0.25461400  1
  O  O10  1  0.41962400  0.41962400  0.71443100  1
  O  O11  1  0.11186500  0.89134600  0.21835600  1
  O  O12  1  0.89134600  0.11186500  0.21835600  1
  O  O13  1  0.25264500  0.68914600  0.30661400  1
  O  O14  1  0.68914600  0.25264500  0.30661400  1
  O  O15  1  0.66530000  0.96537600  0.50559000  1
  O  O16  1  0.96537600  0.66530000  0.50559000  1
  O  O17  1  0.18508100  0.18508100  0.86906500  1
  O  O18  1  0.61404400  0.02801800  0.13007200  1
  O  O19  1  0.02801800  0.61404400  0.13007200  1
  O  O20  1  0.41423800  0.23529700  0.05540400  1
  O  O21  1  0.23529700  0.41423800  0.05540400  1
  O  O22  1  0.34544400  0.00110300  0.48908400  1
  O  O23  1  0.00110300  0.34544400  0.48908400  1
loop_
_geom_bond_atom_site_label_1
_geom_bond_atom_site_label_2
_geom_bond_distance
_geom_bond_site_symmetry_2
Li0 O2 1.967564 1_555
Li0 O15 2.242672 1_555
Li0 O16 2.242672 1_555
Li1 O14 1.997633 1_555
Li1 O10 2.037264 1_555
Li1 O7 2.089347 1_555
Li1 O9 2.473146 1_555
Li2 O13 1.997633 1_555
Li2 O10 2.037264 1_555
Li2 O8 2.089347 1_555
Li2 O9 2.473146 1_555
Li3 O5 2.045049 1_455
Li3 O6 2.045049 1_545
Fe0 O23 2.008714 1_655
Fe0 O3 2.095915 1_554
Fe0 O21 2.131326 1_655
Fe0 O12 2.144263 1_555
Fe0 O19 2.219678 1_655
Fe0 O14 2.612699 1_555
Fe1 O22 2.008714 1_565
Fe1 O4 2.095915 1_554
Fe1 O20 2.131326 1_565
Fe1 O11 2.144263 1_555
Fe1 O18 2.219678 1_565
Fe1 O13 2.612699 1_555
Fe2 O20 2.016739 1_555
Fe2 O1 2.042054 1_554
Fe2 O14 2.126343 1_555
Fe2 O7 2.159435 1_554
Fe3 O21 2.016739 1_555
Fe3 O0 2.042054 1_554
Fe3 O13 2.126343 1_555
Fe3 O8 2.159435 1_554
Fe4 O11 2.081364 1_655
Fe4 O12 2.081364 1_565
Fe4 O17 2.101760 1_664
Fe4 O6 2.149401 1_654
Fe4 O5 2.149401 1_564
Fe4 O2 2.206470 1_555
Fe5 O15 2.056149 1_545
Fe5 O18 2.109525 1_556
Fe5 O0 2.132546 1_545
Fe5 O5 2.192299 1_555
Fe5 O4 2.230689 1_545
Fe5 O7 2.342070 1_555
Fe6 O16 2.056149 1_455
Fe6 O19 2.109525 1_556
Fe6 O1 2.132546 1_455
Fe6 O6 2.192299 1_555
Fe6 O3 2.230689 1_455
Fe6 O8 2.342070 1_555
O0 P2 1.575264 1_556
O1 P2 1.575264 1_556
O2 P2 1.541112 1_555
O3 P1 1.557664 1_555
O4 P0 1.557664 1_555
O5 P1 1.580472 1_555
O6 P0 1.580472 1_555
O7 P1 1.580881 1_555
O8 P0 1.580881 1_555
O9 P2 1.543483 1_555
O10 P3 1.546658 1_555
O11 P5 1.566936 1_555
O12 P4 1.566936 1_555
O13 P5 1.573743 1_555
O14 P4 1.573743 1_555
O15 P4 1.547966 1_565
O16 P5 1.547966 1_655
O17 P3 1.522827 1_555
O18 P4 1.558683 1_555
O19 P5 1.558683 1_555
O20 P3 1.579186 1_554
O21 P3 1.579186 1_554
O22 P0 1.527435 1_545
O23 P1 1.527435 1_455
