# generated using pymatgen
data_Sr2YI7
_symmetry_space_group_name_H-M   'P 1'
_cell_length_a   17.30452800
_cell_length_b   7.80737500
_cell_length_c   11.96543296
_cell_angle_alpha   89.35679341
_cell_angle_beta   90.00000000
_cell_angle_gamma   90.00000000
_symmetry_Int_Tables_number   1
_chemical_formula_structural   Sr2YI7
_chemical_formula_sum   'Sr8 Y4 I28'
_cell_volume   1616.46330061
_cell_formula_units_Z   4
loop_
 _symmetry_equiv_pos_site_id
 _symmetry_equiv_pos_as_xyz
  1  'x, y, z'
loop_
 _atom_site_type_symbol
 _atom_site_label
 _atom_site_symmetry_multiplicity
 _atom_site_fract_x
 _atom_site_fract_y
 _atom_site_fract_z
 _atom_site_occupancy
  Sr  Sr0  1  0.55720100  0.27905400  0.67547300  1
  Sr  Sr1  1  0.21895300  0.28578300  0.54890100  1
  Sr  Sr2  1  0.94279900  0.27905400  0.17547300  1
  Sr  Sr3  1  0.28104700  0.28578300  0.04890100  1
  Sr  Sr4  1  0.71895300  0.71421700  0.95109900  1
  Sr  Sr5  1  0.05720100  0.72094600  0.82452700  1
  Sr  Sr6  1  0.78104700  0.71421700  0.45109900  1
  Sr  Sr7  1  0.44279900  0.72094600  0.32452700  1
  Y  Y0  1  0.86847200  0.21699300  0.72244900  1
  Y  Y1  1  0.63152800  0.21699300  0.22244900  1
  Y  Y2  1  0.36847200  0.78300700  0.77755100  1
  Y  Y3  1  0.13152800  0.78300700  0.27755100  1
  I  I0  1  0.21525100  0.99648900  0.78037900  1
  I  I1  1  0.39661900  0.00424600  0.56405200  1
  I  I2  1  0.28474900  0.99648900  0.28037900  1
  I  I3  1  0.10338100  0.00424600  0.06405200  1
  I  I4  1  0.42731300  0.13530500  0.87799400  1
  I  I5  1  0.07268700  0.13530500  0.37799400  1
  I  I6  1  0.64205300  0.30653200  0.97179600  1
  I  I7  1  0.85794700  0.30653200  0.47179600  1
  I  I8  1  0.03939200  0.31649100  0.70976700  1
  I  I9  1  0.46060800  0.31649100  0.20976700  1
  I  I10  1  0.89372300  0.49283800  0.92440600  1
  I  I11  1  0.73842300  0.50267600  0.70014000  1
  I  I12  1  0.60627700  0.49283800  0.42440600  1
  I  I13  1  0.76157700  0.50267600  0.20014000  1
  I  I14  1  0.23842300  0.49732400  0.79986000  1
  I  I15  1  0.39372300  0.50716200  0.57559400  1
  I  I16  1  0.26157700  0.49732400  0.29986000  1
  I  I17  1  0.10627700  0.50716200  0.07559400  1
  I  I18  1  0.53939200  0.68350900  0.79023300  1
  I  I19  1  0.96060800  0.68350900  0.29023300  1
  I  I20  1  0.14205300  0.69346800  0.52820400  1
  I  I21  1  0.35794700  0.69346800  0.02820400  1
  I  I22  1  0.92731300  0.86469500  0.62200600  1
  I  I23  1  0.57268700  0.86469500  0.12200600  1
  I  I24  1  0.89661900  0.99575400  0.93594800  1
  I  I25  1  0.71525100  0.00351100  0.71962100  1
  I  I26  1  0.60338100  0.99575400  0.43594800  1
  I  I27  1  0.78474900  0.00351100  0.21962100  1
loop_
_geom_bond_atom_site_label_1
_geom_bond_atom_site_label_2
_geom_bond_distance
_geom_bond_site_symmetry_2
I0 Y2 3.132160 1_555
I0 Sr5 3.515907 1_555
I0 Sr1 3.554782 1_565
I1 Y2 3.106081 1_545
I1 Sr7 3.726551 1_545
I1 Sr0 3.763860 1_555
I1 Sr1 3.782526 1_555
I2 Y3 3.132160 1_555
I2 Sr7 3.515907 1_555
I2 Sr3 3.554782 1_565
I3 Y3 3.106081 1_545
I3 Sr5 3.726551 1_544
I3 Sr2 3.763860 1_455
I3 Sr3 3.782526 1_555
I4 Y2 3.181318 1_545
I4 Sr3 3.467333 1_556
I4 Sr0 3.481750 1_555
I5 Y3 3.181318 1_545
I5 Sr1 3.467333 1_555
I5 Sr2 3.481750 1_455
I6 Y1 3.077307 1_556
I6 Sr4 3.456242 1_555
I6 Sr0 3.845854 1_555
I7 Y0 3.077307 1_555
I7 Sr6 3.456242 1_555
I7 Sr2 3.845854 1_555
I8 Y0 3.061332 1_455
I8 Sr5 3.471188 1_555
I8 Sr1 3.664372 1_555
I9 Y1 3.061332 1_555
I9 Sr7 3.471188 1_555
I9 Sr3 3.664372 1_555
I10 Y0 3.284108 1_555
I10 Sr4 3.499743 1_555
I10 Sr2 3.524098 1_556
I10 Sr5 3.543288 1_655
I11 Y0 3.177608 1_555
I11 Sr4 3.459709 1_555
I11 Sr6 3.470009 1_555
I11 Sr0 3.602930 1_555
I12 Y1 3.284108 1_555
I12 Sr6 3.499743 1_555
I12 Sr0 3.524098 1_555
I12 Sr7 3.543288 1_555
I13 Y1 3.177608 1_555
I13 Sr6 3.459709 1_555
I13 Sr4 3.470009 1_554
I13 Sr2 3.602930 1_555
I14 Y2 3.177608 1_555
I14 Sr1 3.459709 1_555
I14 Sr3 3.470009 1_556
I14 Sr5 3.602930 1_555
I15 Y2 3.284108 1_555
I15 Sr1 3.499743 1_555
I15 Sr7 3.524098 1_555
I15 Sr0 3.543288 1_555
I16 Y3 3.177608 1_555
I16 Sr3 3.459709 1_555
I16 Sr1 3.470009 1_555
I16 Sr7 3.602930 1_555
I17 Y3 3.284108 1_555
I17 Sr3 3.499743 1_555
I17 Sr5 3.524098 1_554
I17 Sr2 3.543288 1_455
I18 Y2 3.061332 1_555
I18 Sr0 3.471188 1_555
I18 Sr4 3.664372 1_555
I19 Y3 3.061332 1_655
I19 Sr2 3.471188 1_555
I19 Sr6 3.664372 1_555
I20 Y3 3.077307 1_555
I20 Sr1 3.456242 1_555
I20 Sr5 3.845854 1_555
I21 Y2 3.077307 1_554
I21 Sr3 3.456242 1_555
I21 Sr7 3.845854 1_555
I22 Y0 3.181318 1_565
I22 Sr6 3.467333 1_555
I22 Sr5 3.481750 1_655
I23 Y1 3.181318 1_565
I23 Sr4 3.467333 1_554
I23 Sr7 3.481750 1_555
I24 Y0 3.106081 1_565
I24 Sr2 3.726551 1_566
I24 Sr5 3.763860 1_655
I24 Sr4 3.782526 1_555
I25 Y0 3.132160 1_555
I25 Sr0 3.515907 1_555
I25 Sr4 3.554782 1_545
I26 Y1 3.106081 1_565
I26 Sr0 3.726551 1_565
I26 Sr7 3.763860 1_555
I26 Sr6 3.782526 1_555
I27 Y1 3.132160 1_555
I27 Sr2 3.515907 1_555
I27 Sr6 3.554782 1_545
