# generated using pymatgen
data_Lu2(WO4)3
_symmetry_space_group_name_H-M   'P 1'
_cell_length_a   9.96935300
_cell_length_b   10.08906800
_cell_length_c   13.80250600
_cell_angle_alpha   90.00000000
_cell_angle_beta   90.00000000
_cell_angle_gamma   90.00000000
_symmetry_Int_Tables_number   1
_chemical_formula_structural   Lu2(WO4)3
_chemical_formula_sum   'Lu8 W12 O48'
_cell_volume   1388.27648579
_cell_formula_units_Z   4
loop_
 _symmetry_equiv_pos_site_id
 _symmetry_equiv_pos_as_xyz
  1  'x, y, z'
loop_
 _atom_site_type_symbol
 _atom_site_label
 _atom_site_symmetry_multiplicity
 _atom_site_fract_x
 _atom_site_fract_y
 _atom_site_fract_z
 _atom_site_occupancy
  Lu  Lu0  1  0.24880400  0.03909000  0.62168700  1
  Lu  Lu1  1  0.74880400  0.03909000  0.87831300  1
  Lu  Lu2  1  0.74880400  0.46091000  0.12168700  1
  Lu  Lu3  1  0.24880400  0.46091000  0.37831300  1
  Lu  Lu4  1  0.25119600  0.53909000  0.87831300  1
  Lu  Lu5  1  0.75119600  0.53909000  0.62168700  1
  Lu  Lu6  1  0.25119600  0.96091000  0.12168700  1
  Lu  Lu7  1  0.75119600  0.96091000  0.37831300  1
  W  W0  1  0.39823100  0.11365100  0.35560300  1
  W  W1  1  0.89823100  0.11365100  0.14439700  1
  W  W2  1  0.46660100  0.25000000  0.00000000  1
  W  W3  1  0.96660100  0.25000000  0.50000000  1
  W  W4  1  0.39823100  0.38634900  0.64439700  1
  W  W5  1  0.89823100  0.38634900  0.85560300  1
  W  W6  1  0.10176900  0.61365100  0.14439700  1
  W  W7  1  0.60176900  0.61365100  0.35560300  1
  W  W8  1  0.53339900  0.75000000  0.00000000  1
  W  W9  1  0.03339900  0.75000000  0.50000000  1
  W  W10  1  0.10176900  0.88634900  0.85560300  1
  W  W11  1  0.60176900  0.88634900  0.64439700  1
  O  O0  1  0.17460000  0.99755600  0.76719300  1
  O  O1  1  0.67460000  0.99755600  0.73280700  1
  O  O2  1  0.83192900  0.07548800  0.02539400  1
  O  O3  1  0.33192900  0.07548800  0.47460600  1
  O  O4  1  0.07878200  0.09322900  0.14647200  1
  O  O5  1  0.57878200  0.09322900  0.35352800  1
  O  O6  1  0.36319200  0.13024900  0.06314600  1
  O  O7  1  0.86319200  0.13024900  0.43685400  1
  O  O8  1  0.57346300  0.16525300  0.91387900  1
  O  O9  1  0.07346300  0.16525300  0.58612100  1
  O  O10  1  0.85630300  0.21640700  0.82585000  1
  O  O11  1  0.35630300  0.21640700  0.67415000  1
  O  O12  1  0.85630300  0.28359300  0.17415000  1
  O  O13  1  0.35630300  0.28359300  0.32585000  1
  O  O14  1  0.57346300  0.33474700  0.08612100  1
  O  O15  1  0.07346300  0.33474700  0.41387900  1
  O  O16  1  0.86319200  0.36975100  0.56314600  1
  O  O17  1  0.36319200  0.36975100  0.93685400  1
  O  O18  1  0.57878200  0.40677100  0.64647200  1
  O  O19  1  0.07878200  0.40677100  0.85352800  1
  O  O20  1  0.33192900  0.42451200  0.52539400  1
  O  O21  1  0.83192900  0.42451200  0.97460600  1
  O  O22  1  0.67460000  0.50244400  0.26719300  1
  O  O23  1  0.17460000  0.50244400  0.23280700  1
  O  O24  1  0.32540000  0.49755600  0.73280700  1
  O  O25  1  0.82540000  0.49755600  0.76719300  1
  O  O26  1  0.16807100  0.57548800  0.02539400  1
  O  O27  1  0.66807100  0.57548800  0.47460600  1
  O  O28  1  0.42121800  0.59322900  0.35352800  1
  O  O29  1  0.92121800  0.59322900  0.14647200  1
  O  O30  1  0.63680800  0.63024900  0.06314600  1
  O  O31  1  0.13680800  0.63024900  0.43685400  1
  O  O32  1  0.42653700  0.66525300  0.91387900  1
  O  O33  1  0.92653700  0.66525300  0.58612100  1
  O  O34  1  0.64369700  0.71640700  0.67415000  1
  O  O35  1  0.14369700  0.71640700  0.82585000  1
  O  O36  1  0.14369700  0.78359300  0.17415000  1
  O  O37  1  0.64369700  0.78359300  0.32585000  1
  O  O38  1  0.92653700  0.83474700  0.41387900  1
  O  O39  1  0.42653700  0.83474700  0.08612100  1
  O  O40  1  0.63680800  0.86975100  0.93685400  1
  O  O41  1  0.13680800  0.86975100  0.56314600  1
  O  O42  1  0.92121800  0.90677100  0.85352800  1
  O  O43  1  0.42121800  0.90677100  0.64647200  1
  O  O44  1  0.16807100  0.92451200  0.97460600  1
  O  O45  1  0.66807100  0.92451200  0.52539400  1
  O  O46  1  0.82540000  0.00244400  0.23280700  1
  O  O47  1  0.32540000  0.00244400  0.26719300  1
loop_
_geom_bond_atom_site_label_1
_geom_bond_atom_site_label_2
_geom_bond_distance
_geom_bond_site_symmetry_2
Lu0 O0 2.180896 1_545
Lu0 O41 2.195085 1_545
Lu0 O43 2.203101 1_545
Lu0 O11 2.207549 1_555
Lu0 O9 2.217387 1_555
Lu0 O3 2.223252 1_555
Lu1 O1 2.180896 1_545
Lu1 O40 2.195085 1_545
Lu1 O42 2.203101 1_545
Lu1 O10 2.207549 1_555
Lu1 O8 2.217387 1_555
Lu1 O2 2.223252 1_556
Lu2 O22 2.180896 1_555
Lu2 O30 2.195085 1_555
Lu2 O29 2.203101 1_555
Lu2 O12 2.207549 1_555
Lu2 O14 2.217387 1_555
Lu2 O21 2.223252 1_554
Lu3 O23 2.180896 1_555
Lu3 O31 2.195085 1_555
Lu3 O28 2.203101 1_555
Lu3 O13 2.207549 1_555
Lu3 O15 2.217387 1_555
Lu3 O20 2.223252 1_555
Lu4 O24 2.180896 1_555
Lu4 O17 2.195085 1_555
Lu4 O19 2.203101 1_555
Lu4 O35 2.207549 1_555
Lu4 O32 2.217387 1_555
Lu4 O26 2.223252 1_556
Lu5 O25 2.180896 1_555
Lu5 O16 2.195085 1_555
Lu5 O18 2.203101 1_555
Lu5 O34 2.207549 1_555
Lu5 O33 2.217387 1_555
Lu5 O27 2.223252 1_555
Lu6 O47 2.180896 1_565
Lu6 O6 2.195085 1_565
Lu6 O4 2.203101 1_565
Lu6 O36 2.207549 1_555
Lu6 O39 2.217387 1_555
Lu6 O44 2.223252 1_554
Lu7 O46 2.180896 1_565
Lu7 O7 2.195085 1_565
Lu7 O5 2.203101 1_565
Lu7 O37 2.207549 1_555
Lu7 O38 2.217387 1_555
Lu7 O45 2.223252 1_555
O0 W10 1.809724 1_555
O1 W11 1.809724 1_555
O2 W1 1.811930 1_555
O3 W0 1.811930 1_555
O4 W1 1.811957 1_455
O5 W0 1.811957 1_555
O6 W2 1.811664 1_555
O7 W3 1.811664 1_555
O8 W2 1.810798 1_556
O9 W3 1.810798 1_455
O10 W5 1.811924 1_555
O11 W4 1.811924 1_555
O12 W1 1.811924 1_555
O13 W0 1.811924 1_555
O14 W2 1.810798 1_555
O15 W3 1.810798 1_455
O16 W3 1.811664 1_555
O17 W2 1.811664 1_556
O18 W4 1.811957 1_555
O19 W5 1.811957 1_455
O20 W4 1.811930 1_555
O21 W5 1.811930 1_555
O22 W7 1.809724 1_555
O23 W6 1.809724 1_555
O24 W4 1.809724 1_555
O25 W5 1.809724 1_555
O26 W6 1.811930 1_555
O27 W7 1.811930 1_555
O28 W7 1.811957 1_555
O29 W6 1.811957 1_655
O30 W8 1.811664 1_555
O31 W9 1.811664 1_555
O32 W8 1.810798 1_556
O33 W9 1.810798 1_655
O34 W11 1.811924 1_555
O35 W10 1.811924 1_555
O36 W6 1.811924 1_555
O37 W7 1.811924 1_555
O38 W9 1.810798 1_655
O39 W8 1.810798 1_555
O40 W8 1.811664 1_556
O41 W9 1.811664 1_555
O42 W10 1.811957 1_655
O43 W11 1.811957 1_555
O44 W10 1.811930 1_555
O45 W11 1.811930 1_555
O46 W1 1.809724 1_555
O47 W0 1.809724 1_555
