# generated using pymatgen
data_Li9P8W3O29
_symmetry_space_group_name_H-M   'P 1'
_cell_length_a   10.05600493
_cell_length_b   10.05600493
_cell_length_c   14.03603300
_cell_angle_alpha   90.00000000
_cell_angle_beta   90.00000000
_cell_angle_gamma   120.00000613
_symmetry_Int_Tables_number   1
_chemical_formula_structural   Li9P8W3O29
_chemical_formula_sum   'Li18 P16 W6 O58'
_cell_volume   1229.20959264
_cell_formula_units_Z   2
loop_
 _symmetry_equiv_pos_site_id
 _symmetry_equiv_pos_as_xyz
  1  'x, y, z'
loop_
 _atom_site_type_symbol
 _atom_site_label
 _atom_site_symmetry_multiplicity
 _atom_site_fract_x
 _atom_site_fract_y
 _atom_site_fract_z
 _atom_site_occupancy
  Li  Li0  1  0.00000000  0.00000000  0.50000000  1
  Li  Li1  1  0.00000000  0.00000000  0.00000000  1
  Li  Li2  1  0.33259000  0.23215000  0.56322200  1
  Li  Li3  1  0.33259000  0.10044000  0.06322200  1
  Li  Li4  1  0.76785000  0.66741000  0.06322200  1
  Li  Li5  1  0.66666700  0.33333300  0.38107300  1
  Li  Li6  1  0.66666700  0.33333300  0.88107300  1
  Li  Li7  1  0.89956000  0.66741000  0.56322200  1
  Li  Li8  1  0.76785000  0.10044000  0.56322200  1
  Li  Li9  1  0.10044000  0.76785000  0.93677800  1
  Li  Li10  1  0.89956000  0.23215000  0.06322200  1
  Li  Li11  1  0.23215000  0.89956000  0.43677800  1
  Li  Li12  1  0.10044000  0.33259000  0.43677800  1
  Li  Li13  1  0.33333300  0.66666700  0.61892700  1
  Li  Li14  1  0.33333300  0.66666700  0.11892700  1
  Li  Li15  1  0.23215000  0.33259000  0.93677800  1
  Li  Li16  1  0.66741000  0.89956000  0.93677800  1
  Li  Li17  1  0.66741000  0.76785000  0.43677800  1
  P  P0  1  0.31278400  0.22604300  0.34575500  1
  P  P1  1  0.31278400  0.08674100  0.84575500  1
  P  P2  1  0.77395700  0.68721600  0.84575500  1
  P  P3  1  0.66666700  0.33333300  0.11842100  1
  P  P4  1  0.66666700  0.33333300  0.61842100  1
  P  P5  1  0.91325900  0.68721600  0.34575500  1
  P  P6  1  0.08674100  0.77395700  0.15424500  1
  P  P7  1  0.77395700  0.08674100  0.34575500  1
  P  P8  1  0.22604300  0.91325900  0.65424500  1
  P  P9  1  0.91325900  0.22604300  0.84575500  1
  P  P10  1  0.08674100  0.31278400  0.65424500  1
  P  P11  1  0.33333300  0.66666700  0.88157900  1
  P  P12  1  0.33333300  0.66666700  0.38157900  1
  P  P13  1  0.22604300  0.31278400  0.15424500  1
  P  P14  1  0.68721600  0.91325900  0.15424500  1
  P  P15  1  0.68721600  0.77395700  0.65424500  1
  W  W0  1  0.43280300  0.43280300  0.75000000  1
  W  W1  1  0.56719700  0.56719700  0.25000000  1
  W  W2  1  0.43280300  0.00000000  0.25000000  1
  W  W3  1  0.56719700  0.00000000  0.75000000  1
  W  W4  1  0.00000000  0.56719700  0.75000000  1
  W  W5  1  0.00000000  0.43280300  0.25000000  1
  O  O0  1  0.21825500  0.21825500  0.25000000  1
  O  O1  1  0.22807100  0.22174100  0.06778400  1
  O  O2  1  0.32024300  0.24312400  0.84755100  1
  O  O3  1  0.21825500  0.00000000  0.75000000  1
  O  O4  1  0.22807100  0.00633000  0.56778400  1
  O  O5  1  0.32024300  0.07712000  0.34755100  1
  O  O6  1  0.47660800  0.36425600  0.33833900  1
  O  O7  1  0.51324100  0.31805900  0.65625900  1
  O  O8  1  0.63574400  0.52339200  0.83833900  1
  O  O9  1  0.77825900  0.77192900  0.56778400  1
  O  O10  1  0.78174500  0.78174500  0.75000000  1
  O  O11  1  0.75687600  0.67975700  0.34755100  1
  O  O12  1  0.51324100  0.19518200  0.15625900  1
  O  O13  1  0.47660800  0.11235200  0.83833900  1
  O  O14  1  0.68194100  0.48675900  0.15625900  1
  O  O15  1  0.66666700  0.33333300  0.01073800  1
  O  O16  1  0.66666700  0.33333300  0.51073800  1
  O  O17  1  0.80481800  0.48675900  0.65625900  1
  O  O18  1  0.63574400  0.11235200  0.33833900  1
  O  O19  1  0.68194100  0.19518200  0.65625900  1
  O  O20  1  0.92288000  0.67975700  0.84755100  1
  O  O21  1  0.00000000  0.78174500  0.25000000  1
  O  O22  1  0.99367000  0.77192900  0.06778400  1
  O  O23  1  0.00633000  0.77825900  0.43221600  1
  O  O24  1  0.88764800  0.52339200  0.33833900  1
  O  O25  1  0.80481800  0.31805900  0.15625900  1
  O  O26  1  0.07712000  0.75687600  0.65244900  1
  O  O27  1  0.88764800  0.36425600  0.83833900  1
  O  O28  1  0.75687600  0.07712000  0.84755100  1
  O  O29  1  0.22174100  0.99367000  0.93221600  1
  O  O30  1  0.77825900  0.00633000  0.06778400  1
  O  O31  1  0.78174500  0.00000000  0.25000000  1
  O  O32  1  0.24312400  0.92288000  0.15244900  1
  O  O33  1  0.11235200  0.63574400  0.16166100  1
  O  O34  1  0.92288000  0.24312400  0.34755100  1
  O  O35  1  0.19518200  0.68194100  0.84374100  1
  O  O36  1  0.11235200  0.47660800  0.66166100  1
  O  O37  1  0.99367000  0.22174100  0.56778400  1
  O  O38  1  0.00633000  0.22807100  0.93221600  1
  O  O39  1  0.00000000  0.21825500  0.75000000  1
  O  O40  1  0.07712000  0.32024300  0.15244900  1
  O  O41  1  0.31805900  0.80481800  0.34374100  1
  O  O42  1  0.36425600  0.88764800  0.66166100  1
  O  O43  1  0.19518200  0.51324100  0.34374100  1
  O  O44  1  0.33333300  0.66666700  0.98926200  1
  O  O45  1  0.33333300  0.66666700  0.48926200  1
  O  O46  1  0.31805900  0.51324100  0.84374100  1
  O  O47  1  0.52339200  0.88764800  0.16166100  1
  O  O48  1  0.48675900  0.80481800  0.84374100  1
  O  O49  1  0.24312400  0.32024300  0.65244900  1
  O  O50  1  0.22174100  0.22807100  0.43221600  1
  O  O51  1  0.36425600  0.47660800  0.16166100  1
  O  O52  1  0.48675900  0.68194100  0.34374100  1
  O  O53  1  0.52339200  0.63574400  0.66166100  1
  O  O54  1  0.67975700  0.92288000  0.65244900  1
  O  O55  1  0.77192900  0.99367000  0.43221600  1
  O  O56  1  0.67975700  0.75687600  0.15244900  1
  O  O57  1  0.77192900  0.77825900  0.93221600  1
loop_
_geom_bond_atom_site_label_1
_geom_bond_atom_site_label_2
_geom_bond_distance
_geom_bond_site_symmetry_2
Li0 O50 2.454246 1_555
Li0 O9 2.454246 1_445
Li0 O4 2.454246 1_555
Li0 O55 2.454246 1_445
Li0 O37 2.454246 1_455
Li0 O23 2.454246 1_545
Li1 O1 2.454246 1_555
Li1 O57 2.454246 1_444
Li1 O22 2.454246 1_445
Li1 O38 2.454246 1_554
Li1 O29 2.454246 1_544
Li1 O30 2.454246 1_455
Li2 O4 1.969462 1_555
Li2 O49 1.989883 1_555
Li2 O7 2.045085 1_555
Li2 O50 2.140026 1_555
Li3 O1 1.969462 1_555
Li3 O32 1.989890 1_545
Li3 O12 2.045085 1_555
Li3 O29 2.140026 1_544
Li4 O22 1.969462 1_555
Li4 O56 1.989883 1_555
Li4 O14 2.045085 1_555
Li4 O57 2.140026 1_554
Li5 O16 1.819982 1_555
Li5 O18 2.168772 1_555
Li5 O24 2.168776 1_555
Li5 O6 2.168782 1_555
Li6 O15 1.819982 1_556
Li6 O27 2.168772 1_555
Li6 O13 2.168776 1_555
Li6 O8 2.168782 1_555
Li7 O9 1.969462 1_555
Li7 O26 1.989890 1_655
Li7 O17 2.045085 1_555
Li7 O23 2.140026 1_655
Li8 O37 1.969462 1_555
Li8 O54 1.989890 1_545
Li8 O19 2.045085 1_555
Li8 O55 2.140026 1_545
Li9 O29 1.969462 1_555
Li9 O20 1.989890 1_455
Li9 O35 2.045085 1_555
Li9 O22 2.140026 1_456
Li10 O30 1.969462 1_555
Li10 O40 1.989890 1_655
Li10 O25 2.045085 1_555
Li10 O38 2.140026 1_654
Li11 O23 1.969462 1_555
Li11 O5 1.989890 1_565
Li11 O41 2.045085 1_555
Li11 O4 2.140026 1_565
Li12 O50 1.969462 1_555
Li12 O34 1.989890 1_455
Li12 O43 2.045085 1_555
Li12 O37 2.140026 1_455
Li13 O45 1.819982 1_555
Li13 O42 2.168772 1_555
Li13 O36 2.168776 1_555
Li13 O53 2.168782 1_555
Li14 O44 1.819982 1_554
Li14 O33 2.168772 1_555
Li14 O47 2.168776 1_555
Li14 O51 2.168782 1_555
Li15 O38 1.969462 1_555
Li15 O2 1.989883 1_555
Li15 O46 2.045085 1_555
Li15 O1 2.140026 1_556
Li16 O57 1.969462 1_555
Li16 O28 1.989890 1_565
Li16 O48 2.045085 1_555
Li16 O30 2.140026 1_566
Li17 O55 1.969462 1_555
Li17 O11 1.989883 1_555
Li17 O52 2.045085 1_555
Li17 O9 2.140026 1_555
O0 P0 1.625327 1_555
O0 P13 1.625327 1_555
O1 P13 1.526444 1_555
O2 P1 1.536665 1_555
O2 W0 2.152954 1_555
O3 P1 1.625327 1_555
O3 P8 1.625327 1_545
O4 P8 1.526444 1_545
O5 P0 1.536655 1_555
O5 W2 2.152960 1_555
O6 P0 1.538459 1_555
O6 W1 2.161706 1_555
O7 P4 1.564951 1_555
O7 W0 2.156444 1_555
O8 P2 1.538459 1_555
O8 W0 2.161706 1_555
O9 P15 1.526444 1_555
O10 P2 1.625327 1_555
O10 P15 1.625327 1_555
O11 P5 1.536665 1_555
O11 W1 2.152954 1_555
O12 P3 1.564947 1_555
O12 W2 2.156444 1_555
O13 P1 1.538459 1_555
O13 W3 2.161706 1_555
O14 P3 1.564951 1_555
O14 W1 2.156444 1_555
O15 P3 1.511442 1_555
O16 P4 1.511442 1_555
O17 P4 1.564947 1_555
O17 W4 2.156444 1_655
O18 P7 1.538460 1_555
O18 W2 2.161706 1_555
O19 P4 1.564942 1_555
O19 W3 2.156444 1_555
O20 P2 1.536655 1_555
O20 W4 2.152960 1_655
O21 P5 1.625327 1_455
O21 P6 1.625327 1_555
O22 P6 1.526444 1_655
O23 P5 1.526444 1_455
O24 P5 1.538459 1_555
O24 W5 2.161706 1_655
O25 P3 1.564942 1_555
O25 W5 2.156444 1_655
O26 P8 1.536660 1_555
O26 W4 2.152953 1_555
O27 P9 1.538460 1_555
O27 W4 2.161706 1_655
O28 P9 1.536660 1_555
O28 W3 2.152953 1_555
O29 P1 1.526444 1_565
O30 P14 1.526444 1_545
O31 P14 1.625327 1_545
O31 P7 1.625327 1_555
O32 P6 1.536660 1_555
O32 W2 2.152953 1_565
O33 P6 1.538460 1_555
O33 W5 2.161706 1_555
O34 P7 1.536660 1_555
O34 W5 2.152953 1_655
O35 P11 1.564942 1_555
O35 W4 2.156444 1_555
O36 P10 1.538459 1_555
O36 W4 2.161706 1_555
O37 P10 1.526444 1_655
O38 P9 1.526444 1_455
O39 P10 1.625327 1_555
O39 P9 1.625327 1_455
O40 P13 1.536655 1_555
O40 W5 2.152960 1_555
O41 P12 1.564942 1_555
O41 W2 2.156444 1_565
O42 P8 1.538460 1_555
O42 W3 2.161706 1_565
O43 P12 1.564947 1_555
O43 W5 2.156444 1_555
O44 P11 1.511442 1_555
O45 P12 1.511442 1_555
O46 P11 1.564951 1_555
O46 W0 2.156444 1_555
O47 P14 1.538459 1_555
O47 W2 2.161706 1_565
O48 P11 1.564947 1_555
O48 W3 2.156444 1_565
O49 P10 1.536665 1_555
O49 W0 2.152954 1_555
O50 P0 1.526444 1_555
O51 P13 1.538459 1_555
O51 W1 2.161706 1_555
O52 P12 1.564951 1_555
O52 W1 2.156444 1_555
O53 P15 1.538459 1_555
O53 W0 2.161706 1_555
O54 P15 1.536655 1_555
O54 W3 2.152960 1_565
O55 P7 1.526444 1_565
O56 P14 1.536665 1_555
O56 W1 2.152954 1_555
O57 P2 1.526444 1_555
