# generated using pymatgen
data_V3OF7
_symmetry_space_group_name_H-M   'P 1'
_cell_length_a   4.02491100
_cell_length_b   7.98467407
_cell_length_c   9.97328511
_cell_angle_alpha   90.01669622
_cell_angle_beta   89.99507851
_cell_angle_gamma   104.59770118
_symmetry_Int_Tables_number   1
_chemical_formula_structural   V3OF7
_chemical_formula_sum   'V6 O2 F14'
_cell_volume   310.17092596
_cell_formula_units_Z   2
loop_
 _symmetry_equiv_pos_site_id
 _symmetry_equiv_pos_as_xyz
  1  'x, y, z'
loop_
 _atom_site_type_symbol
 _atom_site_label
 _atom_site_symmetry_multiplicity
 _atom_site_fract_x
 _atom_site_fract_y
 _atom_site_fract_z
 _atom_site_occupancy
  V  V0  1  0.53984800  0.07982000  0.25001300  1
  V  V1  1  0.67895100  0.35785000  0.57322100  1
  V  V2  1  0.67896800  0.35804400  0.92695400  1
  V  V3  1  0.32110900  0.64217200  0.07298100  1
  V  V4  1  0.32082800  0.64186000  0.42680400  1
  V  V5  1  0.46017000  0.92021100  0.74996500  1
  O  O0  1  0.70670000  0.41334400  0.75017200  1
  O  O1  1  0.29333400  0.58669900  0.24981500  1
  F  F0  1  0.03763600  0.07539200  0.24997700  1
  F  F1  1  0.55278000  0.10536500  0.61429400  1
  F  F2  1  0.55275600  0.10539700  0.88570100  1
  F  F3  1  0.63409600  0.26817300  0.11635300  1
  F  F4  1  0.63414100  0.26821300  0.38351900  1
  F  F5  1  0.19879800  0.39753400  0.96580300  1
  F  F6  1  0.19876600  0.39754700  0.53412100  1
  F  F7  1  0.80128500  0.60252200  0.03420800  1
  F  F8  1  0.80118300  0.60239500  0.46592600  1
  F  F9  1  0.36585600  0.73176600  0.61650900  1
  F  F10  1  0.36593800  0.73185700  0.88364400  1
  F  F11  1  0.44729800  0.89468400  0.11430100  1
  F  F12  1  0.44719000  0.89455500  0.38571700  1
  F  F13  1  0.96237200  0.92460000  0.75000400  1
loop_
_geom_bond_atom_site_label_1
_geom_bond_atom_site_label_2
_geom_bond_distance
_geom_bond_site_symmetry_2
O0 V2 1.814254 1_555
O0 V1 1.816013 1_555
O1 V3 1.815073 1_555
O1 V4 1.815776 1_555
F0 V0 2.012739 1_555
F0 V0 2.012754 1_455
F1 V5 1.969451 1_545
F1 V1 1.993585 1_555
F2 V5 1.969528 1_545
F2 V2 1.994955 1_555
F3 V0 1.973881 1_555
F3 V2 2.012714 1_554
F4 V0 1.972524 1_555
F4 V1 2.014565 1_555
F5 V2 2.071622 1_555
F5 V2 2.072356 1_455
F5 V3 2.171333 1_556
F6 V1 2.072566 1_455
F6 V1 2.072887 1_555
F6 V4 2.170350 1_555
F7 V3 2.071999 1_555
F7 V3 2.072061 1_655
F7 V2 2.170630 1_554
F8 V4 2.072132 1_655
F8 V4 2.072875 1_555
F8 V1 2.171801 1_555
F9 V5 1.972484 1_555
F9 V4 2.015308 1_555
F10 V5 1.974015 1_555
F10 V3 2.011637 1_556
F11 V0 1.969083 1_565
F11 V3 1.994073 1_555
F12 V0 1.970301 1_565
F12 V4 1.995202 1_555
F13 V5 2.012711 1_655
F13 V5 2.012772 1_555
