# generated using pymatgen
data_Li7CuAs4ClO14
_symmetry_space_group_name_H-M   'P 1'
_cell_length_a   6.65671665
_cell_length_b   6.65671665
_cell_length_c   15.15804081
_cell_angle_alpha   85.74469360
_cell_angle_beta   85.74469360
_cell_angle_gamma   79.28307082
_symmetry_Int_Tables_number   1
_chemical_formula_structural   Li7CuAs4ClO14
_chemical_formula_sum   'Li14 Cu2 As8 Cl2 O28'
_cell_volume   656.89468485
_cell_formula_units_Z   2
loop_
 _symmetry_equiv_pos_site_id
 _symmetry_equiv_pos_as_xyz
  1  'x, y, z'
loop_
 _atom_site_type_symbol
 _atom_site_label
 _atom_site_symmetry_multiplicity
 _atom_site_fract_x
 _atom_site_fract_y
 _atom_site_fract_z
 _atom_site_occupancy
  Li  Li0  1  0.99388900  0.41376400  0.81938300  1
  Li  Li1  1  0.38265800  0.80039400  0.82256100  1
  Li  Li2  1  0.41376400  0.99388900  0.31938300  1
  Li  Li3  1  0.80039400  0.38265800  0.32256100  1
  Li  Li4  1  0.11073600  0.96056400  0.49536700  1
  Li  Li5  1  0.48418000  0.36549300  0.80864100  1
  Li  Li6  1  0.96056400  0.11073600  0.99536700  1
  Li  Li7  1  0.11980100  0.58154600  0.97353900  1
  Li  Li8  1  0.36549300  0.48418000  0.30864100  1
  Li  Li9  1  0.58154600  0.11980100  0.47353900  1
  Li  Li10  1  0.50417400  0.02349600  0.00432000  1
  Li  Li11  1  0.02349600  0.50417400  0.50432000  1
  Li  Li12  1  0.31037500  0.13158600  0.65837700  1
  Li  Li13  1  0.13158600  0.31037500  0.15837700  1
  Cu  Cu0  1  0.71216000  0.72082300  0.65991600  1
  Cu  Cu1  1  0.72082300  0.71216000  0.15991600  1
  As  As0  1  0.87012800  0.90164800  0.82983800  1
  As  As1  1  0.90164800  0.87012800  0.32983800  1
  As  As2  1  0.62799600  0.51945200  0.98294700  1
  As  As3  1  0.51945200  0.62799600  0.48294700  1
  As  As4  1  0.83063000  0.20278200  0.65508300  1
  As  As5  1  0.20278200  0.83063000  0.15508300  1
  As  As6  1  0.23758900  0.62078300  0.65716600  1
  As  As7  1  0.62078300  0.23758900  0.15716600  1
  Cl  Cl0  1  0.27548200  0.12659100  0.88462500  1
  Cl  Cl1  1  0.12659100  0.27548200  0.38462500  1
  O  O0  1  0.68772300  0.80043600  0.78221800  1
  O  O1  1  0.80043600  0.68772300  0.28221800  1
  O  O2  1  0.87957100  0.41677900  0.95954500  1
  O  O3  1  0.73112000  0.60768000  0.54251800  1
  O  O4  1  0.41677900  0.87957100  0.45954500  1
  O  O5  1  0.60768000  0.73112000  0.04251800  1
  O  O6  1  0.38771500  0.79166000  0.68132900  1
  O  O7  1  0.72963500  0.40060000  0.72124100  1
  O  O8  1  0.45806100  0.55626000  0.90341400  1
  O  O9  1  0.97758000  0.04707400  0.74109200  1
  O  O10  1  0.79166000  0.38771500  0.18132900  1
  O  O11  1  0.40060000  0.72963500  0.22124100  1
  O  O12  1  0.55626000  0.45806100  0.40341400  1
  O  O13  1  0.04707400  0.97758000  0.24109200  1
  O  O14  1  0.07484600  0.71714000  0.85536700  1
  O  O15  1  0.76384900  0.04997200  0.91290800  1
  O  O16  1  0.34293900  0.50798200  0.55501900  1
  O  O17  1  0.00839000  0.74108600  0.61934100  1
  O  O18  1  0.71714000  0.07484600  0.35536700  1
  O  O19  1  0.64625700  0.09963300  0.61029900  1
  O  O20  1  0.04997200  0.76384900  0.41290800  1
  O  O21  1  0.50798200  0.34293900  0.05501900  1
  O  O22  1  0.24481500  0.41006900  0.72816200  1
  O  O23  1  0.74108600  0.00839000  0.11934100  1
  O  O24  1  0.09963300  0.64625700  0.11029900  1
  O  O25  1  0.41006900  0.24481500  0.22816200  1
  O  O26  1  0.03817600  0.21929900  0.58321800  1
  O  O27  1  0.21929900  0.03817600  0.08321800  1
loop_
_geom_bond_atom_site_label_1
_geom_bond_atom_site_label_2
_geom_bond_distance
_geom_bond_site_symmetry_2
Li0 O22 2.085572 1_655
Li0 O2 2.203193 1_555
Li0 O14 2.297415 1_655
Li0 O7 2.404180 1_555
Li1 O8 1.971639 1_555
Li1 O0 2.076950 1_555
Li1 O6 2.143499 1_555
Li1 O14 2.232289 1_555
Li2 O25 2.085572 1_565
Li2 O4 2.203193 1_555
Li2 O18 2.297415 1_565
Li2 O11 2.404180 1_555
Li3 O12 1.971639 1_555
Li3 O1 2.076950 1_555
Li3 O10 2.143499 1_555
Li3 O18 2.232289 1_555
Li4 O20 1.988855 1_555
Li4 O4 2.051013 1_555
Li4 O26 2.215516 1_565
Li4 O17 2.429576 1_555
Li5 O8 1.964209 1_555
Li5 O22 2.043034 1_555
Li5 O7 2.062591 1_555
Li6 O15 1.988855 1_555
Li6 O2 2.051013 1_555
Li6 O27 2.215516 1_656
Li6 O23 2.429576 1_556
Li7 O14 1.962654 1_555
Li7 O2 2.131297 1_455
Li7 O24 2.137914 1_556
Li7 O8 2.399743 1_555
Li8 O12 1.964209 1_555
Li8 O25 2.043034 1_555
Li8 O11 2.062591 1_555
Li9 O18 1.962654 1_555
Li9 O4 2.131297 1_545
Li9 O19 2.137914 1_555
Li9 O12 2.399743 1_555
Li10 O5 1.997790 1_545
Li10 O27 2.155866 1_555
Li10 O15 2.158851 1_554
Li10 O21 2.319145 1_555
Li10 O23 2.420750 1_555
Li11 O3 1.997790 1_455
Li11 O26 2.155866 1_555
Li11 O20 2.158851 1_555
Li11 O16 2.319145 1_555
Li11 O17 2.420750 1_555
Li12 O22 2.160447 1_555
Li12 O26 2.176273 1_555
Li12 O6 2.232219 1_545
Li12 O19 2.275914 1_555
Li12 O9 2.596687 1_455
Li13 O25 2.160447 1_555
Li13 O27 2.176273 1_555
Li13 O10 2.232219 1_455
Li13 O24 2.275914 1_555
Li13 O13 2.596687 1_545
Cu0 O0 1.952715 1_555
Cu0 O3 1.969797 1_555
Cu0 O17 2.047330 1_655
Cu0 O6 2.128872 1_555
Cu0 O7 2.247500 1_555
Cu0 O19 2.544174 1_565
Cu1 O1 1.952715 1_555
Cu1 O5 1.969797 1_555
Cu1 O23 2.047330 1_565
Cu1 O10 2.128872 1_555
Cu1 O11 2.247500 1_555
Cu1 O24 2.544174 1_655
As0 O15 1.689205 1_565
As0 O14 1.703110 1_655
As0 O0 1.719236 1_555
As0 O9 1.783211 1_565
As1 O20 1.689205 1_655
As1 O18 1.703110 1_565
As1 O1 1.719236 1_555
As1 O13 1.783211 1_655
As2 O8 1.687755 1_555
As2 O5 1.708451 1_556
As2 O2 1.708682 1_555
As2 O21 1.800403 1_556
As3 O12 1.687755 1_555
As3 O3 1.708451 1_555
As3 O4 1.708682 1_555
As3 O16 1.800403 1_555
As4 O26 1.709637 1_655
As4 O19 1.716051 1_555
As4 O7 1.719976 1_555
As4 O9 1.828268 1_555
As5 O27 1.709637 1_565
As5 O24 1.716051 1_555
As5 O11 1.719976 1_555
As5 O13 1.828268 1_555
As6 O22 1.698964 1_555
As6 O17 1.704440 1_555
As6 O6 1.722096 1_555
As6 O16 1.807917 1_555
As7 O25 1.698964 1_555
As7 O23 1.704440 1_555
As7 O10 1.722096 1_555
As7 O21 1.807917 1_555
Cl0 Li1 2.395082 1_545
Cl0 Li10 2.432463 1_556
Cl0 Li5 2.469419 1_555
Cl0 Li6 2.599476 1_455
Cl0 Li0 2.609193 1_455
Cl1 Li3 2.395082 1_455
Cl1 Li11 2.432463 1_555
Cl1 Li8 2.469419 1_555
Cl1 Li4 2.599476 1_545
Cl1 Li2 2.609193 1_545
