# generated using pymatgen
data_Li3P
_symmetry_space_group_name_H-M   'P 1'
_cell_length_a   4.21927393
_cell_length_b   4.21927368
_cell_length_c   7.54705753
_cell_angle_alpha   90.00000000
_cell_angle_beta   90.00000000
_cell_angle_gamma   120.00000987
_symmetry_Int_Tables_number   1
_chemical_formula_structural   Li3P
_chemical_formula_sum   'Li6 P2'
_cell_volume   116.35462957
_cell_formula_units_Z   2
loop_
 _symmetry_equiv_pos_site_id
 _symmetry_equiv_pos_as_xyz
  1  'x, y, z'
loop_
 _atom_site_type_symbol
 _atom_site_label
 _atom_site_symmetry_multiplicity
 _atom_site_fract_x
 _atom_site_fract_y
 _atom_site_fract_z
 _atom_site_occupancy
  Li  Li0  1  0.00000000  0.00000000  0.25000000  1
  Li  Li1  1  -0.00000000  -0.00000000  0.75000000  1
  Li  Li2  1  0.33333300  0.66666700  0.58360181  1
  Li  Li3  1  0.66666700  0.33333300  0.08360181  1
  Li  Li4  1  0.66666700  0.33333300  0.41639819  1
  Li  Li5  1  0.33333300  0.66666700  0.91639819  1
  P  P0  1  0.33333300  0.66666700  0.25000000  1
  P  P1  1  0.66666700  0.33333300  0.75000000  1
loop_
_geom_bond_atom_site_label_1
_geom_bond_atom_site_label_2
_geom_bond_distance
_geom_bond_site_symmetry_2
Li0 P0 2.435997 1_545
Li0 P0 2.436000 1_555
Li0 P0 2.436000 1_445
Li1 P1 2.435997 1_455
Li1 P1 2.436000 1_445
Li1 P1 2.436000 1_555
Li2 P0 2.517712 1_555
Li2 P1 2.740648 1_565
Li2 P1 2.740648 1_455
Li2 P1 2.740655 1_555
Li3 P1 2.517712 1_554
Li3 P0 2.740648 1_545
Li3 P0 2.740648 1_655
Li3 P0 2.740655 1_555
Li4 P1 2.517712 1_555
Li4 P0 2.740648 1_545
Li4 P0 2.740648 1_655
Li4 P0 2.740655 1_555
Li5 P0 2.517712 1_556
Li5 P1 2.740648 1_565
Li5 P1 2.740648 1_455
Li5 P1 2.740655 1_555
