# generated using pymatgen
data_Lu2(SO4)3
_symmetry_space_group_name_H-M   'P 1'
_cell_length_a   9.29952870
_cell_length_b   9.29952870
_cell_length_c   9.29952869
_cell_angle_alpha   57.83716149
_cell_angle_beta   57.83716149
_cell_angle_gamma   57.83715747
_symmetry_Int_Tables_number   1
_chemical_formula_structural   Lu2(SO4)3
_chemical_formula_sum   'Lu4 S6 O24'
_cell_volume   540.44126659
_cell_formula_units_Z   2
loop_
 _symmetry_equiv_pos_site_id
 _symmetry_equiv_pos_as_xyz
  1  'x, y, z'
loop_
 _atom_site_type_symbol
 _atom_site_label
 _atom_site_symmetry_multiplicity
 _atom_site_fract_x
 _atom_site_fract_y
 _atom_site_fract_z
 _atom_site_occupancy
  Lu  Lu0  1  0.64378765  0.64378765  0.64378765  1
  Lu  Lu1  1  0.14378765  0.14378765  0.14378765  1
  Lu  Lu2  1  0.85621235  0.85621235  0.85621235  1
  Lu  Lu3  1  0.35621235  0.35621235  0.35621235  1
  S  S0  1  0.25000000  0.53661858  0.96338142  1
  S  S1  1  0.46338142  0.03661858  0.75000000  1
  S  S2  1  0.03661858  0.75000000  0.46338142  1
  S  S3  1  0.96338142  0.25000000  0.53661858  1
  S  S4  1  0.53661858  0.96338142  0.25000000  1
  S  S5  1  0.75000000  0.46338142  0.03661858  1
  O  O0  1  0.00814885  0.77363558  0.62152837  1
  O  O1  1  0.77363558  0.62152837  0.00814885  1
  O  O2  1  0.40984164  0.56326308  0.80209844  1
  O  O3  1  0.27363558  0.50814885  0.12152837  1
  O  O4  1  0.62152837  0.00814885  0.77363558  1
  O  O5  1  0.49185115  0.87847163  0.72636442  1
  O  O6  1  0.19790156  0.59015836  0.43673692  1
  O  O7  1  0.09015836  0.69790156  0.93673692  1
  O  O8  1  0.30209844  0.06326308  0.90984164  1
  O  O9  1  0.43673692  0.19790156  0.59015836  1
  O  O10  1  0.06326308  0.90984164  0.30209844  1
  O  O11  1  0.87847163  0.72636442  0.49185115  1
  O  O12  1  0.12152837  0.27363558  0.50814885  1
  O  O13  1  0.93673692  0.09015836  0.69790156  1
  O  O14  1  0.56326308  0.80209844  0.40984164  1
  O  O15  1  0.69790156  0.93673692  0.09015836  1
  O  O16  1  0.90984164  0.30209844  0.06326308  1
  O  O17  1  0.80209844  0.40984164  0.56326308  1
  O  O18  1  0.50814885  0.12152837  0.27363558  1
  O  O19  1  0.37847163  0.99185115  0.22636442  1
  O  O20  1  0.72636442  0.49185115  0.87847163  1
  O  O21  1  0.59015836  0.43673692  0.19790156  1
  O  O22  1  0.22636442  0.37847163  0.99185115  1
  O  O23  1  0.99185115  0.22636442  0.37847163  1
loop_
_geom_bond_atom_site_label_1
_geom_bond_atom_site_label_2
_geom_bond_distance
_geom_bond_site_symmetry_2
Lu0 O17 2.147583 1_555
Lu0 O14 2.147583 1_555
Lu0 O2 2.147583 1_555
Lu0 O5 2.166861 1_555
Lu0 O20 2.166861 1_555
Lu0 O11 2.166861 1_555
Lu1 O16 2.147583 1_455
Lu1 O8 2.147583 1_554
Lu1 O10 2.147583 1_545
Lu1 O19 2.166861 1_545
Lu1 O23 2.166861 1_455
Lu1 O22 2.166861 1_554
Lu2 O7 2.147583 1_655
Lu2 O15 2.147583 1_556
Lu2 O13 2.147583 1_565
Lu2 O4 2.166861 1_565
Lu2 O0 2.166861 1_655
Lu2 O1 2.166861 1_556
Lu3 O6 2.147583 1_555
Lu3 O9 2.147583 1_555
Lu3 O21 2.147583 1_555
Lu3 O18 2.166861 1_555
Lu3 O3 2.166861 1_555
Lu3 O12 2.166861 1_555
O0 S2 1.465946 1_555
O1 S5 1.465946 1_555
O2 S0 1.464021 1_555
O3 S0 1.465946 1_554
O4 S1 1.465946 1_555
O5 S1 1.465946 1_565
O6 S2 1.464021 1_555
O7 S0 1.464021 1_555
O8 S1 1.464021 1_555
O9 S1 1.464021 1_555
O10 S2 1.464021 1_555
O11 S2 1.465946 1_655
O12 S3 1.465946 1_455
O13 S3 1.464021 1_555
O14 S4 1.464021 1_555
O15 S4 1.464021 1_555
O16 S5 1.464021 1_555
O17 S3 1.464021 1_555
O18 S4 1.465946 1_545
O19 S4 1.465946 1_555
O20 S5 1.465946 1_556
O21 S5 1.464021 1_555
O22 S0 1.465946 1_555
O23 S3 1.465946 1_555
