# generated using pymatgen
data_Li6Mn17O40
_symmetry_space_group_name_H-M   'P 1'
_cell_length_a   5.81958400
_cell_length_b   5.83587789
_cell_length_c   24.05141676
_cell_angle_alpha   83.33215827
_cell_angle_beta   90.00000000
_cell_angle_gamma   60.09231639
_symmetry_Int_Tables_number   1
_chemical_formula_structural   Li6Mn17O40
_chemical_formula_sum   'Li6 Mn17 O40'
_cell_volume   701.68310322
_cell_formula_units_Z   1
loop_
 _symmetry_equiv_pos_site_id
 _symmetry_equiv_pos_as_xyz
  1  'x, y, z'
loop_
 _atom_site_type_symbol
 _atom_site_label
 _atom_site_symmetry_multiplicity
 _atom_site_fract_x
 _atom_site_fract_y
 _atom_site_fract_z
 _atom_site_occupancy
  Li  Li0  1  0.22353300  0.55293300  0.17264100  1
  Li  Li1  1  0.02550700  0.94898700  0.57244300  1
  Li  Li2  1  0.77270100  0.45459700  0.82590000  1
  Li  Li3  1  0.82670400  0.34659100  0.97470000  1
  Li  Li4  1  0.62498100  0.75003800  0.37582700  1
  Li  Li5  1  0.57629500  0.84741100  0.22688500  1
  Mn  Mn0  1  0.09643000  0.29723900  0.29906500  1
  Mn  Mn1  1  0.19589100  0.10162300  0.10094700  1
  Mn  Mn2  1  0.00152900  0.50014800  0.49965100  1
  Mn  Mn3  1  0.30038600  0.39922700  0.40107400  1
  Mn  Mn4  1  0.09655300  0.80689300  0.29916700  1
  Mn  Mn5  1  0.10029000  0.79941900  0.80138500  1
  Mn  Mn6  1  0.49962600  0.00074700  0.00033700  1
  Mn  Mn7  1  0.49832200  0.50014800  0.49965100  1
  Mn  Mn8  1  0.39979900  0.70036800  0.69983800  1
  Mn  Mn9  1  0.30074500  0.89980400  0.90036800  1
  Mn  Mn10  1  0.60633100  0.29723900  0.29906500  1
  Mn  Mn11  1  0.70248700  0.10162300  0.10094700  1
  Mn  Mn12  1  0.69905000  0.60190000  0.59823900  1
  Mn  Mn13  1  0.89983600  0.20032800  0.69987000  1
  Mn  Mn14  1  0.70189700  0.59620500  0.10085600  1
  Mn  Mn15  1  0.79945100  0.89980400  0.90036800  1
  Mn  Mn16  1  0.89983300  0.70036800  0.69983800  1
  O  O0  1  0.01139100  0.41683700  0.65401200  1
  O  O1  1  0.03832600  0.39826100  0.13983400  1
  O  O2  1  0.23744700  0.00084600  0.26049600  1
  O  O3  1  0.18713600  0.14726800  0.95273900  1
  O  O4  1  0.13696100  0.25060500  0.44757800  1
  O  O5  1  0.25318700  0.49362500  0.25773000  1
  O  O6  1  0.13640800  0.72718500  0.94033700  1
  O  O7  1  0.05305600  0.89388700  0.65781900  1
  O  O8  1  0.22763900  0.54472200  0.74684500  1
  O  O9  1  0.46486200  0.07027500  0.85979900  1
  O  O10  1  0.33701500  0.32597000  0.54001000  1
  O  O11  1  0.42993600  0.14012900  0.34809800  1
  O  O12  1  0.37245000  0.25510000  0.05262500  1
  O  O13  1  0.16860600  0.66278800  0.45325600  1
  O  O14  1  0.03701400  0.92597200  0.14004800  1
  O  O15  1  0.42896700  0.58354600  0.34737300  1
  O  O16  1  0.22783700  0.98355300  0.74593200  1
  O  O17  1  0.41091800  0.65305400  0.84720700  1
  O  O18  1  0.66559400  0.14726800  0.95273900  1
  O  O19  1  0.61243400  0.25060500  0.44757800  1
  O  O20  1  0.56341300  0.39826100  0.13983400  1
  O  O21  1  0.76170700  0.00084600  0.26049600  1
  O  O22  1  0.38880300  0.74744100  0.55278700  1
  O  O23  1  0.57177300  0.41683700  0.65401200  1
  O  O24  1  0.37330500  0.81788000  0.05345700  1
  O  O25  1  0.63468700  0.73062700  0.94678300  1
  O  O26  1  0.83326100  0.33348000  0.54733600  1
  O  O27  1  0.76267600  0.47464700  0.26014900  1
  O  O28  1  0.85291000  0.29417900  0.05782900  1
  O  O29  1  0.57195300  0.85609500  0.65308800  1
  O  O30  1  0.74650300  0.50699500  0.74187900  1
  O  O31  1  0.66841700  0.66316700  0.45737200  1
  O  O32  1  0.54686900  0.90626300  0.14281400  1
  O  O33  1  0.96565200  0.06869700  0.85300900  1
  O  O34  1  0.94642300  0.10715400  0.34149900  1
  O  O35  1  0.80881400  0.81788000  0.05345700  1
  O  O36  1  0.86375600  0.74744100  0.55278700  1
  O  O37  1  0.93602700  0.65305400  0.84720700  1
  O  O38  1  0.78861000  0.98355300  0.74593200  1
  O  O39  1  0.98748700  0.58354600  0.34737300  1
loop_
_geom_bond_atom_site_label_1
_geom_bond_atom_site_label_2
_geom_bond_distance
_geom_bond_site_symmetry_2
Li0 O1 1.932530 1_555
Li0 O20 1.932535 1_555
Li0 O14 1.944051 1_555
Li0 O5 2.028233 1_555
Li1 O22 1.930345 1_555
Li1 O36 1.930350 1_455
Li1 O26 1.957847 1_465
Li1 O7 2.034911 1_555
Li2 O17 1.934682 1_555
Li2 O37 1.934682 1_555
Li2 O33 1.973586 1_555
Li2 O30 2.002620 1_555
Li3 O3 1.934273 1_655
Li3 O18 1.934277 1_555
Li3 O25 1.968646 1_555
Li3 O28 1.981353 1_556
Li4 O31 1.951617 1_555
Li4 O15 1.993320 1_555
Li4 O39 1.993320 1_555
Li4 O11 1.996584 1_565
Li5 O21 1.936791 1_565
Li5 O2 1.936796 1_565
Li5 O27 1.947252 1_555
Li5 O32 2.003984 1_555
Mn0 O2 1.866275 1_555
Mn0 O27 1.868204 1_455
Mn0 O34 1.933150 1_455
Mn0 O5 1.977904 1_555
Mn0 O39 1.984470 1_455
Mn0 O11 1.993172 1_555
Mn1 O1 1.872293 1_555
Mn1 O14 1.873860 1_545
Mn1 O28 1.953188 1_455
Mn1 O24 1.961360 1_545
Mn1 O12 1.970969 1_555
Mn1 O32 1.974078 1_545
Mn2 O10 1.891861 1_555
Mn2 O4 1.894613 1_555
Mn2 O36 1.906123 1_455
Mn2 O31 1.906144 1_455
Mn2 O13 1.940562 1_555
Mn2 O26 1.977651 1_455
Mn3 O4 1.872198 1_555
Mn3 O19 1.872203 1_555
Mn3 O11 1.946484 1_555
Mn3 O13 1.949636 1_555
Mn3 O39 1.966008 1_455
Mn3 O15 1.966012 1_555
Mn4 O21 1.870707 1_465
Mn4 O2 1.870711 1_565
Mn4 O34 1.938580 1_465
Mn4 O39 1.979924 1_455
Mn4 O15 1.979928 1_555
Mn4 O5 1.981854 1_555
Mn5 O37 1.858404 1_455
Mn5 O17 1.858404 1_555
Mn5 O8 1.957956 1_555
Mn5 O33 1.962232 1_465
Mn5 O38 1.986725 1_455
Mn5 O16 1.986729 1_555
Mn6 O18 1.889677 1_554
Mn6 O3 1.889681 1_554
Mn6 O12 1.915897 1_555
Mn6 O24 1.943532 1_545
Mn6 O35 1.943532 1_545
Mn6 O25 1.999453 1_544
Mn7 O10 1.891856 1_555
Mn7 O19 1.894613 1_555
Mn7 O22 1.906123 1_555
Mn7 O31 1.906153 1_555
Mn7 O13 1.940558 1_555
Mn7 O26 1.977664 1_555
Mn8 O23 1.930401 1_555
Mn8 O16 1.933382 1_555
Mn8 O29 1.940256 1_555
Mn8 O8 1.943225 1_555
Mn8 O7 1.957318 1_555
Mn8 O30 1.957385 1_555
Mn9 O9 1.891055 1_565
Mn9 O3 1.891988 1_565
Mn9 O6 1.894583 1_555
Mn9 O17 1.904306 1_555
Mn9 O25 1.956653 1_555
Mn9 O33 1.973416 1_465
Mn10 O21 1.866275 1_555
Mn10 O27 1.868199 1_555
Mn10 O34 1.933150 1_555
Mn10 O5 1.977908 1_555
Mn10 O15 1.984470 1_555
Mn10 O11 1.993168 1_555
Mn11 O20 1.872293 1_555
Mn11 O14 1.873855 1_645
Mn11 O28 1.953180 1_555
Mn11 O35 1.961361 1_545
Mn11 O12 1.970974 1_555
Mn11 O32 1.974078 1_545
Mn12 O22 1.852419 1_555
Mn12 O36 1.852419 1_555
Mn12 O26 1.946287 1_555
Mn12 O29 1.961702 1_555
Mn12 O23 1.993926 1_555
Mn12 O0 1.993930 1_655
Mn13 O23 1.931008 1_555
Mn13 O0 1.931012 1_655
Mn13 O38 1.933352 1_545
Mn13 O16 1.933352 1_645
Mn13 O7 1.961134 1_645
Mn13 O30 1.961489 1_555
Mn14 O20 1.881407 1_555
Mn14 O1 1.881411 1_655
Mn14 O24 1.954625 1_555
Mn14 O35 1.954625 1_555
Mn14 O28 1.956755 1_555
Mn14 O32 1.975502 1_555
Mn15 O9 1.891060 1_565
Mn15 O18 1.891988 1_565
Mn15 O6 1.894587 1_655
Mn15 O37 1.904306 1_555
Mn15 O25 1.956649 1_555
Mn15 O33 1.973420 1_565
Mn16 O0 1.930400 1_655
Mn16 O38 1.933382 1_555
Mn16 O29 1.940252 1_555
Mn16 O8 1.943225 1_655
Mn16 O7 1.957314 1_655
Mn16 O30 1.957381 1_555
