# generated using pymatgen
data_Li3Mn2Cr2O8
_symmetry_space_group_name_H-M   'P 1'
_cell_length_a   5.87626200
_cell_length_b   5.88194779
_cell_length_c   5.91316423
_cell_angle_alpha   118.88058922
_cell_angle_beta   119.17049697
_cell_angle_gamma   90.41566961
_symmetry_Int_Tables_number   1
_chemical_formula_structural   Li3Mn2Cr2O8
_chemical_formula_sum   'Li3 Mn2 Cr2 O8'
_cell_volume   148.18566986
_cell_formula_units_Z   1
loop_
 _symmetry_equiv_pos_site_id
 _symmetry_equiv_pos_as_xyz
  1  'x, y, z'
loop_
 _atom_site_type_symbol
 _atom_site_label
 _atom_site_symmetry_multiplicity
 _atom_site_fract_x
 _atom_site_fract_y
 _atom_site_fract_z
 _atom_site_occupancy
  Li  Li0  1  0.50000000  0.00000000  0.50000000  1
  Li  Li1  1  0.50000000  0.50000000  0.00000000  1
  Li  Li2  1  0.00000000  0.00000000  0.50000000  1
  Mn  Mn0  1  0.00000000  0.00000000  0.00000000  1
  Mn  Mn1  1  0.00000000  0.50000000  0.50000000  1
  Cr  Cr0  1  0.00000000  0.50000000  0.00000000  1
  Cr  Cr1  1  0.50000000  0.50000000  0.50000000  1
  O  O0  1  0.78933100  0.26826700  0.03981600  1
  O  O1  1  0.77247400  0.28576700  0.53182100  1
  O  O2  1  0.23645800  0.25984200  0.02655500  1
  O  O3  1  0.74999700  0.72045100  0.48262100  1
  O  O4  1  0.25000300  0.27954900  0.51737900  1
  O  O5  1  0.76354200  0.74015800  0.97344500  1
  O  O6  1  0.22752600  0.71423300  0.46817900  1
  O  O7  1  0.21066900  0.73173300  0.96018400  1
loop_
_geom_bond_atom_site_label_1
_geom_bond_atom_site_label_2
_geom_bond_distance
_geom_bond_site_symmetry_2
Li0 O1 2.187711 1_555
Li0 O6 2.187711 1_545
Li0 O3 2.211639 1_545
Li0 O4 2.211639 1_555
Li0 O0 2.318361 1_556
Li0 O7 2.318361 1_544
Li1 O3 2.072370 1_555
Li1 O4 2.072370 1_554
Li1 O0 2.181135 1_555
Li1 O7 2.181135 1_554
Li1 O5 2.199534 1_554
Li1 O2 2.199534 1_555
Li2 O3 2.127680 1_445
Li2 O4 2.127680 1_555
Li2 O6 2.149564 1_545
Li2 O1 2.149564 1_455
Li2 O5 2.261886 1_444
Li2 O2 2.261886 1_556
Mn0 O2 1.953444 1_555
Mn0 O5 1.953444 1_444
Mn0 O0 2.007838 1_455
Mn0 O7 2.007838 1_544
Mn0 O4 2.223940 1_555
Mn0 O3 2.223940 1_444
Mn1 O4 1.964520 1_555
Mn1 O3 1.964520 1_455
Mn1 O1 1.964862 1_455
Mn1 O6 1.964862 1_555
Mn1 O7 1.975830 1_555
Mn1 O0 1.975830 1_455
Cr0 O5 1.995199 1_454
Cr0 O2 1.995199 1_555
Cr0 O0 2.003860 1_455
Cr0 O7 2.003860 1_554
Cr0 O6 2.009270 1_555
Cr0 O1 2.009270 1_454
Cr1 O4 2.024423 1_555
Cr1 O3 2.024423 1_555
Cr1 O1 2.037526 1_555
Cr1 O6 2.037526 1_555
Cr1 O5 2.037912 1_555
Cr1 O2 2.037912 1_555
