# generated using pymatgen
data_Li3V(PO4)2
_symmetry_space_group_name_H-M   'P 1'
_cell_length_a   7.14174683
_cell_length_b   10.09891472
_cell_length_c   10.09804425
_cell_angle_alpha   115.89373816
_cell_angle_beta   83.66931686
_cell_angle_gamma   96.33158069
_symmetry_Int_Tables_number   1
_chemical_formula_structural   Li3V(PO4)2
_chemical_formula_sum   'Li12 V4 P8 O32'
_cell_volume   649.62262401
_cell_formula_units_Z   4
loop_
 _symmetry_equiv_pos_site_id
 _symmetry_equiv_pos_as_xyz
  1  'x, y, z'
loop_
 _atom_site_type_symbol
 _atom_site_label
 _atom_site_symmetry_multiplicity
 _atom_site_fract_x
 _atom_site_fract_y
 _atom_site_fract_z
 _atom_site_occupancy
  Li  Li0  1  0.36072700  0.85910300  0.89102500  1
  Li  Li1  1  0.36077600  0.35905100  0.39098600  1
  Li  Li2  1  0.63927300  0.14090100  0.10897700  1
  Li  Li3  1  0.63922000  0.64095100  0.60901300  1
  Li  Li4  1  0.39068600  0.28676800  0.96336100  1
  Li  Li5  1  0.39057100  0.78665500  0.46328900  1
  Li  Li6  1  0.60931700  0.71323300  0.03664000  1
  Li  Li7  1  0.60942700  0.21334500  0.53670800  1
  Li  Li8  1  0.68968600  0.54383800  0.20650300  1
  Li  Li9  1  0.68999600  0.04365500  0.70607800  1
  Li  Li10  1  0.31031900  0.45616500  0.79349700  1
  Li  Li11  1  0.31000500  0.95634600  0.29392200  1
  V  V0  1  0.97086600  0.74779000  0.50232200  1
  V  V1  1  0.02913200  0.25220800  0.49767600  1
  V  V2  1  0.97090100  0.24772900  0.00217300  1
  V  V3  1  0.02910100  0.75226900  0.99782600  1
  P  P0  1  0.78026100  0.39724200  0.35261300  1
  P  P1  1  0.78029800  0.89730100  0.85271200  1
  P  P2  1  0.21973900  0.60275900  0.64738700  1
  P  P3  1  0.21970100  0.10269800  0.14728900  1
  P  P4  1  0.24602800  0.57930500  0.17078500  1
  P  P5  1  0.24628500  0.07936700  0.67065300  1
  P  P6  1  0.75397400  0.42069200  0.82921400  1
  P  P7  1  0.75371500  0.92063300  0.32934700  1
  O  O0  1  0.96396900  0.86059700  0.88948700  1
  O  O1  1  0.96397600  0.36055300  0.38935500  1
  O  O2  1  0.03603100  0.13940200  0.11051500  1
  O  O3  1  0.03602200  0.63944700  0.61064600  1
  O  O4  1  0.39405500  0.16528300  0.08463600  1
  O  O5  1  0.39402900  0.66550500  0.58482400  1
  O  O6  1  0.60594400  0.83471700  0.91536600  1
  O  O7  1  0.60596900  0.33449500  0.41517300  1
  O  O8  1  0.46398300  0.59160800  0.15841300  1
  O  O9  1  0.46426600  0.09176300  0.65825800  1
  O  O10  1  0.53601800  0.40839200  0.84159300  1
  O  O11  1  0.53573400  0.90823700  0.34173800  1
  O  O12  1  0.83419500  0.34062900  0.90902300  1
  O  O13  1  0.83399900  0.84074000  0.40932000  1
  O  O14  1  0.16581100  0.65936700  0.09097200  1
  O  O15  1  0.16599600  0.15926300  0.59068500  1
  O  O16  1  0.76931500  0.33931700  0.18122800  1
  O  O17  1  0.76935700  0.83927200  0.68133900  1
  O  O18  1  0.76924300  0.56859900  0.41065500  1
  O  O19  1  0.76935900  0.06862100  0.91056700  1
  O  O20  1  0.23075600  0.43140200  0.58934500  1
  O  O21  1  0.23064100  0.93137900  0.08943500  1
  O  O22  1  0.23068800  0.66068600  0.81877200  1
  O  O23  1  0.23064100  0.16072800  0.31866200  1
  O  O24  1  0.17781700  0.41307000  0.09405500  1
  O  O25  1  0.17803500  0.91312300  0.59406800  1
  O  O26  1  0.17778500  0.65580500  0.33705100  1
  O  O27  1  0.17807600  0.15598600  0.83691100  1
  O  O28  1  0.82221100  0.34419600  0.66294700  1
  O  O29  1  0.82192800  0.84401100  0.16309000  1
  O  O30  1  0.82218500  0.58692700  0.90594700  1
  O  O31  1  0.82196300  0.08687600  0.40593000  1
loop_
_geom_bond_atom_site_label_1
_geom_bond_atom_site_label_2
_geom_bond_distance
_geom_bond_site_symmetry_2
Li0 O6 1.852287 1_555
Li0 O21 1.967715 1_556
Li0 O22 1.967762 1_555
Li1 O7 1.852169 1_555
Li1 O20 1.967095 1_555
Li1 O23 1.967258 1_555
Li2 O4 1.852282 1_555
Li2 O19 1.967714 1_554
Li2 O16 1.967763 1_555
Li3 O5 1.852155 1_555
Li3 O18 1.967096 1_555
Li3 O17 1.967247 1_555
Li4 O27 2.047608 1_555
Li4 O24 2.048129 1_556
Li4 O4 2.081058 1_556
Li4 O10 2.203262 1_555
Li5 O25 2.047329 1_555
Li5 O26 2.047832 1_555
Li5 O5 2.080506 1_555
Li5 O11 2.200882 1_555
Li6 O29 2.047602 1_555
Li6 O30 2.048137 1_554
Li6 O6 2.081045 1_554
Li6 O8 2.203313 1_555
Li7 O31 2.047331 1_555
Li7 O28 2.047829 1_555
Li7 O7 2.080506 1_555
Li7 O9 2.200870 1_555
Li8 O8 1.901468 1_555
Li8 O18 2.100479 1_555
Li8 O16 2.102673 1_555
Li9 O9 1.901958 1_555
Li9 O17 2.102469 1_545
Li9 O19 2.102536 1_555
Li10 O10 1.901484 1_555
Li10 O20 2.100488 1_555
Li10 O22 2.102678 1_555
Li11 O11 1.901937 1_555
Li11 O23 2.102464 1_565
Li11 O21 2.102516 1_555
O0 P1 1.526707 1_555
O0 V3 1.969735 1_655
O1 P0 1.526779 1_555
O1 V1 1.969788 1_655
O2 P3 1.526696 1_555
O2 V2 1.969747 1_455
O3 P2 1.526783 1_555
O3 V0 1.969797 1_455
O4 P3 1.533683 1_555
O5 P2 1.533715 1_555
O6 P1 1.533683 1_555
O7 P0 1.533715 1_555
O8 P4 1.543373 1_555
O9 P5 1.543562 1_555
O10 P6 1.543380 1_555
O11 P7 1.543562 1_555
O12 P6 1.550682 1_555
O12 V2 1.973201 1_556
O13 P7 1.550852 1_555
O13 V0 1.973160 1_555
O14 P4 1.550692 1_555
O14 V3 1.973203 1_554
O15 P5 1.550853 1_555
O15 V1 1.973162 1_555
O16 P0 1.574480 1_555
O16 V2 2.111016 1_555
O17 P1 1.574242 1_555
O17 V0 2.110291 1_555
O18 P0 1.574295 1_555
O18 V0 2.112158 1_555
O19 P1 1.574084 1_545
O19 V2 2.111209 1_556
O20 P2 1.574294 1_555
O20 V1 2.112183 1_555
O21 P3 1.574077 1_565
O21 V3 2.111217 1_554
O22 P2 1.574481 1_555
O22 V3 2.111008 1_555
O23 P3 1.574240 1_555
O23 V1 2.110271 1_555
O24 P4 1.556524 1_555
O24 V2 2.058568 1_455
O25 P5 1.556580 1_565
O25 V0 2.059510 1_455
O26 P4 1.556596 1_555
O26 V0 2.058354 1_455
O27 P5 1.556541 1_555
O27 V2 2.059116 1_456
O28 P6 1.556591 1_555
O28 V1 2.058369 1_655
O29 P7 1.556541 1_555
O29 V3 2.059115 1_654
O30 P6 1.556526 1_555
O30 V3 2.058568 1_655
O31 P7 1.556567 1_545
O31 V1 2.059504 1_655
