# generated using pymatgen
data_Li2MnF5
_symmetry_space_group_name_H-M   'P 1'
_cell_length_a   5.13619800
_cell_length_b   7.41645000
_cell_length_c   9.92916874
_cell_angle_alpha   70.28427604
_cell_angle_beta   90.00000000
_cell_angle_gamma   90.00000000
_symmetry_Int_Tables_number   1
_chemical_formula_structural   Li2MnF5
_chemical_formula_sum   'Li8 Mn4 F20'
_cell_volume   356.05309565
_cell_formula_units_Z   4
loop_
 _symmetry_equiv_pos_site_id
 _symmetry_equiv_pos_as_xyz
  1  'x, y, z'
loop_
 _atom_site_type_symbol
 _atom_site_label
 _atom_site_symmetry_multiplicity
 _atom_site_fract_x
 _atom_site_fract_y
 _atom_site_fract_z
 _atom_site_occupancy
  Li  Li0  1  0.74476900  0.47200400  0.25458500  1
  Li  Li1  1  0.75523100  0.97200400  0.25458500  1
  Li  Li2  1  0.30152200  0.37717800  0.51927800  1
  Li  Li3  1  0.80152200  0.12282200  0.48072200  1
  Li  Li4  1  0.19847800  0.87717800  0.51927800  1
  Li  Li5  1  0.69847800  0.62282200  0.48072200  1
  Li  Li6  1  0.24476900  0.02799600  0.74541500  1
  Li  Li7  1  0.25523100  0.52799600  0.74541500  1
  Mn  Mn0  1  0.24477900  0.21423100  0.14317200  1
  Mn  Mn1  1  0.25522100  0.71423100  0.14317200  1
  Mn  Mn2  1  0.74477900  0.28576900  0.85682800  1
  Mn  Mn3  1  0.75522100  0.78576900  0.85682800  1
  F  F0  1  0.57596500  0.16699500  0.03546200  1
  F  F1  1  0.92403500  0.66699500  0.03546200  1
  F  F2  1  0.40904700  0.46141400  0.14317700  1
  F  F3  1  0.09095300  0.96141400  0.14317700  1
  F  F4  1  0.92683100  0.24119100  0.24400200  1
  F  F5  1  0.42109500  0.08195500  0.30808200  1
  F  F6  1  0.57316900  0.74119100  0.24400200  1
  F  F7  1  0.07890500  0.58195500  0.30808200  1
  F  F8  1  0.64293100  0.37113700  0.44695100  1
  F  F9  1  0.85706900  0.87113700  0.44695100  1
  F  F10  1  0.14293100  0.12886300  0.55304900  1
  F  F11  1  0.35706900  0.62886300  0.55304900  1
  F  F12  1  0.92109500  0.41804500  0.69191800  1
  F  F13  1  0.42683100  0.25880900  0.75599800  1
  F  F14  1  0.57890500  0.91804500  0.69191800  1
  F  F15  1  0.07316900  0.75880900  0.75599800  1
  F  F16  1  0.90904700  0.03858600  0.85682300  1
  F  F17  1  0.59095300  0.53858600  0.85682300  1
  F  F18  1  0.07596500  0.33300500  0.96453800  1
  F  F19  1  0.42403500  0.83300500  0.96453800  1
loop_
_geom_bond_atom_site_label_1
_geom_bond_atom_site_label_2
_geom_bond_distance
_geom_bond_site_symmetry_2
F0 Mn2 1.902511 1_554
F0 Mn0 2.100668 1_555
F0 Li1 2.355827 1_545
F1 Mn3 1.902511 1_554
F1 Mn1 2.100668 1_655
F1 Li0 2.355827 1_555
F2 Mn0 2.018071 1_555
F2 Mn1 2.034652 1_555
F2 Li0 2.064406 1_555
F3 Mn1 2.018071 1_555
F3 Mn0 2.034652 1_565
F3 Li1 2.064406 1_455
F4 Mn0 1.960661 1_655
F4 Li0 1.984222 1_555
F4 Li1 2.152203 1_545
F4 Li3 2.305917 1_555
F5 Mn0 1.838432 1_555
F5 Li1 2.045644 1_545
F5 Li4 2.421263 1_545
F6 Mn1 1.960661 1_555
F6 Li1 1.984222 1_555
F6 Li0 2.152203 1_555
F6 Li5 2.305917 1_555
F7 Mn1 1.838432 1_555
F7 Li0 2.045644 1_455
F7 Li2 2.421263 1_555
F8 Li0 1.875469 1_555
F8 Li2 1.901149 1_555
F8 Li3 1.936708 1_555
F8 Li5 2.024937 1_555
F9 Li1 1.875469 1_555
F9 Li4 1.901149 1_655
F9 Li5 1.936708 1_555
F9 Li3 2.024937 1_565
F10 Li6 1.875469 1_555
F10 Li3 1.901149 1_455
F10 Li2 1.936708 1_555
F10 Li4 2.024937 1_545
F11 Li7 1.875469 1_555
F11 Li5 1.901149 1_555
F11 Li4 1.936708 1_555
F11 Li2 2.024937 1_555
F12 Mn2 1.838432 1_555
F12 Li7 2.045644 1_655
F12 Li5 2.421263 1_555
F13 Mn2 1.960661 1_555
F13 Li6 1.984222 1_555
F13 Li7 2.152203 1_555
F13 Li2 2.305917 1_555
F14 Mn3 1.838432 1_555
F14 Li6 2.045644 1_565
F14 Li3 2.421263 1_565
F15 Mn3 1.960661 1_455
F15 Li7 1.984222 1_555
F15 Li6 2.152203 1_565
F15 Li4 2.305917 1_555
F16 Mn2 2.018071 1_555
F16 Mn3 2.034652 1_545
F16 Li6 2.064406 1_655
F17 Mn3 2.018071 1_555
F17 Mn2 2.034652 1_555
F17 Li7 2.064406 1_555
F18 Mn0 1.902511 1_556
F18 Mn2 2.100668 1_455
F18 Li7 2.355827 1_555
F19 Mn1 1.902511 1_556
F19 Mn3 2.100668 1_555
F19 Li6 2.355827 1_565
