# generated using pymatgen
data_CrFe2O5
_symmetry_space_group_name_H-M   'P 1'
_cell_length_a   5.31965057
_cell_length_b   5.31965057
_cell_length_c   9.89348100
_cell_angle_alpha   90.00000000
_cell_angle_beta   90.00000000
_cell_angle_gamma   138.42718843
_symmetry_Int_Tables_number   1
_chemical_formula_structural   CrFe2O5
_chemical_formula_sum   'Cr2 Fe4 O10'
_cell_volume   185.78169494
_cell_formula_units_Z   2
loop_
 _symmetry_equiv_pos_site_id
 _symmetry_equiv_pos_as_xyz
  1  'x, y, z'
loop_
 _atom_site_type_symbol
 _atom_site_label
 _atom_site_symmetry_multiplicity
 _atom_site_fract_x
 _atom_site_fract_y
 _atom_site_fract_z
 _atom_site_occupancy
  Cr  Cr0  1  0.81592900  0.18407100  0.25000000  1
  Cr  Cr1  1  0.18407100  0.81592900  0.75000000  1
  Fe  Fe0  1  0.86077700  0.13922300  0.56244600  1
  Fe  Fe1  1  0.86077700  0.13922300  0.93755400  1
  Fe  Fe2  1  0.13922300  0.86077700  0.43755400  1
  Fe  Fe3  1  0.13922300  0.86077700  0.06244600  1
  O  O0  1  0.69453800  0.30546200  0.41722000  1
  O  O1  1  0.69453800  0.30546200  0.08278000  1
  O  O2  1  0.95060400  0.04939600  0.11817200  1
  O  O3  1  0.95060400  0.04939600  0.38182800  1
  O  O4  1  0.74877500  0.25122500  0.75000000  1
  O  O5  1  0.25122500  0.74877500  0.25000000  1
  O  O6  1  0.04939600  0.95060400  0.61817200  1
  O  O7  1  0.30546200  0.69453800  0.58278000  1
  O  O8  1  0.30546200  0.69453800  0.91722000  1
  O  O9  1  0.04939600  0.95060400  0.88182800  1
loop_
_geom_bond_atom_site_label_1
_geom_bond_atom_site_label_2
_geom_bond_distance
_geom_bond_site_symmetry_2
Cr0 O2 1.869631 1_555
Cr0 O3 1.869631 1_555
Cr0 O5 1.994555 1_545
Cr0 O5 1.994555 1_655
Cr0 O1 2.048154 1_555
Cr0 O0 2.048154 1_555
Cr1 O9 1.869631 1_555
Cr1 O6 1.869631 1_555
Cr1 O4 1.994555 1_455
Cr1 O4 1.994555 1_565
Cr1 O7 2.048154 1_555
Cr1 O8 2.048154 1_555
Fe0 O6 1.955482 1_645
Fe0 O7 1.976672 1_545
Fe0 O7 1.976672 1_655
Fe0 O3 1.997869 1_555
Fe0 O4 2.164311 1_555
Fe0 O0 2.190565 1_555
Fe1 O9 1.955482 1_645
Fe1 O8 1.976672 1_545
Fe1 O8 1.976672 1_655
Fe1 O2 1.997869 1_556
Fe1 O4 2.164311 1_555
Fe1 O1 2.190565 1_556
Fe2 O3 1.955482 1_465
Fe2 O0 1.976672 1_455
Fe2 O0 1.976672 1_565
Fe2 O6 1.997869 1_555
Fe2 O5 2.164311 1_555
Fe2 O7 2.190565 1_555
Fe3 O2 1.955482 1_465
Fe3 O1 1.976672 1_455
Fe3 O1 1.976672 1_565
Fe3 O9 1.997869 1_554
Fe3 O5 2.164311 1_555
Fe3 O8 2.190565 1_554
