# generated using pymatgen
data_Ba4Li4Ti19O44
_symmetry_space_group_name_H-M   'P 1'
_cell_length_a   5.88236300
_cell_length_b   10.06909339
_cell_length_c   14.17872653
_cell_angle_alpha   89.71125982
_cell_angle_beta   89.66452501
_cell_angle_gamma   89.78576114
_symmetry_Int_Tables_number   1
_chemical_formula_structural   Ba4Li4Ti19O44
_chemical_formula_sum   'Ba4 Li4 Ti19 O44'
_cell_volume   839.77601923
_cell_formula_units_Z   1
loop_
 _symmetry_equiv_pos_site_id
 _symmetry_equiv_pos_as_xyz
  1  'x, y, z'
loop_
 _atom_site_type_symbol
 _atom_site_label
 _atom_site_symmetry_multiplicity
 _atom_site_fract_x
 _atom_site_fract_y
 _atom_site_fract_z
 _atom_site_occupancy
  Ba  Ba0  1  0.24344000  0.60603400  0.09433600  1
  Ba  Ba1  1  0.24819300  0.91132400  0.58918800  1
  Ba  Ba2  1  0.74475000  0.09304300  0.40860700  1
  Ba  Ba3  1  0.75283600  0.39515800  0.89866000  1
  Li  Li0  1  0.02533600  0.50031200  0.52101000  1
  Li  Li1  1  0.25728600  0.60428700  0.65276600  1
  Li  Li2  1  0.70612500  0.41494700  0.44398400  1
  Li  Li3  1  0.75055700  0.07365600  0.96241300  1
  Ti  Ti0  1  0.24021500  0.38749300  0.33260400  1
  Ti  Ti1  1  0.23434900  0.24339500  0.51167200  1
  Ti  Ti2  1  0.23722500  0.57474300  0.84403000  1
  Ti  Ti3  1  0.24403400  0.93748000  0.33079600  1
  Ti  Ti4  1  0.25058300  0.25923700  0.99714600  1
  Ti  Ti5  1  0.25349900  0.11472000  0.82394600  1
  Ti  Ti6  1  0.49421400  0.34288200  0.66825100  1
  Ti  Ti7  1  0.49183300  0.16365100  0.17103700  1
  Ti  Ti8  1  0.49428900  0.66463400  0.33544400  1
  Ti  Ti9  1  0.50413400  0.84551500  0.82329200  1
  Ti  Ti10  1  0.73533900  0.76666100  0.51479100  1
  Ti  Ti11  1  0.73811100  0.73172800  0.00075400  1
  Ti  Ti12  1  0.74598600  0.43366900  0.16978500  1
  Ti  Ti13  1  0.74785000  0.88618900  0.16524100  1
  Ti  Ti14  1  0.76232600  0.59137000  0.67580700  1
  Ti  Ti15  1  0.77056100  0.09638200  0.66448600  1
  Ti  Ti16  1  0.99410900  0.67189600  0.33288300  1
  Ti  Ti17  1  0.99450700  0.16380300  0.16854400  1
  Ti  Ti18  1  0.00237000  0.84463600  0.82861800  1
  O  O0  1  0.99827300  0.00703300  0.74891700  1
  O  O1  1  0.99942900  0.15102600  0.57610100  1
  O  O2  1  0.00596400  0.52954800  0.75812000  1
  O  O3  1  0.01260500  0.67831600  0.91608100  1
  O  O4  1  0.01799400  0.33034600  0.42103900  1
  O  O5  1  0.03362000  0.17970400  0.91728000  1
  O  O6  1  0.23790900  0.24025000  0.24684700  1
  O  O7  1  0.24894500  0.74892800  0.26367800  1
  O  O8  1  0.23964900  0.56866200  0.39537600  1
  O  O9  1  0.24612900  0.10874800  0.09036000  1
  O  O10  1  0.24525200  0.43557500  0.93210000  1
  O  O11  1  0.24994900  0.06136700  0.42260200  1
  O  O12  1  0.25386800  0.75002200  0.76134200  1
  O  O13  1  0.25092500  0.92723700  0.89078000  1
  O  O14  1  0.25816300  0.39662300  0.58239000  1
  O  O15  1  0.27715300  0.25563000  0.74993900  1
  O  O16  1  0.45286400  0.31238400  0.40946700  1
  O  O17  1  0.46897000  0.17868300  0.91988900  1
  O  O18  1  0.49136400  0.50740900  0.74851200  1
  O  O19  1  0.49157300  0.99854600  0.25122200  1
  O  O20  1  0.49251200  0.81990000  0.41282600  1
  O  O21  1  0.49864500  0.49625300  0.25028800  1
  O  O22  1  0.49886600  0.32296700  0.09070200  1
  O  O23  1  0.49939400  0.67232000  0.91299300  1
  O  O24  1  0.50307600  0.00338700  0.74875300  1
  O  O25  1  0.50245200  0.17627800  0.58289100  1
  O  O26  1  0.52897400  0.68918400  0.59358200  1
  O  O27  1  0.53366000  0.81385600  0.08580200  1
  O  O28  1  0.73236700  0.44218900  0.59931500  1
  O  O29  1  0.73523100  0.24483900  0.73223900  1
  O  O30  1  0.74870000  0.60163700  0.41455800  1
  O  O31  1  0.74060500  0.93150200  0.56800000  1
  O  O32  1  0.74428500  0.07023800  0.10446800  1
  O  O33  1  0.74320600  0.25079100  0.23794500  1
  O  O34  1  0.74332800  0.73957400  0.25615600  1
  O  O35  1  0.74695700  0.56119500  0.07030600  1
  O  O36  1  0.74989000  0.89340900  0.91281500  1
  O  O37  1  0.75520700  0.76378500  0.75541300  1
  O  O38  1  0.95636300  0.81479700  0.08629600  1
  O  O39  1  0.97157400  0.67479500  0.58548200  1
  O  O40  1  0.98596700  0.49642000  0.24748500  1
  O  O41  1  0.98638100  0.32191500  0.08934700  1
  O  O42  1  0.99759500  0.99761900  0.25132400  1
  O  O43  1  0.00244000  0.82357500  0.40996800  1
loop_
_geom_bond_atom_site_label_1
_geom_bond_atom_site_label_2
_geom_bond_distance
_geom_bond_site_symmetry_2
Ba0 O38 2.693807 1_455
Ba0 O27 2.707348 1_555
Ba0 O7 2.805774 1_555
Ba0 O40 2.859564 1_455
Ba0 O10 2.876939 1_554
Ba0 O21 2.892535 1_555
Ba0 O3 2.962370 1_554
Ba0 O35 2.978636 1_455
Ba0 O35 3.012031 1_555
Ba0 O23 3.044400 1_554
Ba0 O22 3.217535 1_555
Ba0 O41 3.242134 1_455
Ba1 O26 2.776160 1_555
Ba1 O11 2.797394 1_565
Ba1 O1 2.823715 1_465
Ba1 O0 2.862080 1_465
Ba1 O24 2.880467 1_565
Ba1 O39 2.890307 1_455
Ba1 O31 2.918066 1_555
Ba1 O12 2.925360 1_555
Ba1 O31 3.008652 1_455
Ba1 O20 3.022757 1_555
Ba1 O25 3.064017 1_565
Ba1 O43 3.066414 1_555
Ba2 O31 2.777856 1_545
Ba2 O16 2.792417 1_555
Ba2 O42 2.842645 1_545
Ba2 O19 2.859002 1_545
Ba2 O1 2.878769 1_555
Ba2 O33 2.887859 1_555
Ba2 O4 2.891399 1_655
Ba2 O11 2.934660 1_555
Ba2 O25 2.968334 1_555
Ba2 O11 2.995273 1_655
Ba2 O43 3.103087 1_645
Ba2 O20 3.130031 1_545
Ba3 O5 2.734351 1_655
Ba3 O17 2.764902 1_555
Ba3 O29 2.812394 1_555
Ba3 O2 2.823494 1_655
Ba3 O18 2.859459 1_555
Ba3 O35 2.959534 1_556
Ba3 O10 2.967723 1_655
Ba3 O10 3.046583 1_555
Ba3 O41 3.123623 1_556
Ba3 O23 3.165967 1_555
Ba3 O22 3.180413 1_556
Ba3 O3 3.251014 1_655
Li0 O14 1.928028 1_555
Li0 O39 2.007720 1_455
Li0 O28 2.126905 1_455
Li0 O4 2.228381 1_555
Li0 O8 2.281207 1_555
Li0 O30 2.442930 1_455
Li1 O26 1.994077 1_555
Li1 O39 2.059563 1_455
Li1 O12 2.132106 1_555
Li1 O18 2.165398 1_555
Li1 O2 2.225855 1_555
Li1 O14 2.321387 1_555
Li2 O16 1.884299 1_555
Li2 O30 1.940318 1_555
Li2 O4 2.044775 1_655
Li2 O28 2.227107 1_555
Li3 O36 1.949732 1_545
Li3 O32 2.014404 1_556
Li3 O17 2.053707 1_555
Li3 O5 2.077533 1_655
O0 Ti18 1.983144 1_645
O0 Ti15 2.008888 1_555
O0 Ti5 2.145678 1_655
O1 Ti1 1.896161 1_655
O1 Ti15 1.914296 1_555
O2 Ti2 1.889722 1_555
O2 Ti14 1.951708 1_455
O3 Ti2 1.965124 1_555
O3 Ti11 2.077271 1_456
O3 Ti18 2.079733 1_555
O4 Ti0 1.895060 1_555
O4 Ti1 2.009254 1_555
O5 Ti4 1.893721 1_555
O5 Ti5 1.958234 1_555
O6 Ti0 1.922312 1_555
O6 Ti17 1.977525 1_455
O6 Ti7 1.990543 1_555
O7 Ti16 1.948170 1_455
O7 Ti8 1.959075 1_555
O7 Ti3 2.128011 1_555
O8 Ti8 1.971605 1_555
O8 Ti16 1.986521 1_455
O8 Ti0 2.033759 1_555
O9 Ti17 1.925571 1_455
O9 Ti7 1.932556 1_555
O9 Ti4 2.005808 1_554
O10 Ti2 1.872891 1_555
O10 Ti4 1.996900 1_555
O11 Ti3 1.808014 1_545
O11 Ti1 2.232356 1_555
O12 Ti9 1.974223 1_555
O12 Ti18 1.997053 1_555
O12 Ti2 2.116152 1_555
O13 Ti18 1.907318 1_555
O13 Ti9 1.947652 1_555
O13 Ti5 2.108070 1_565
O14 Ti1 1.850488 1_555
O14 Ti6 1.926253 1_555
O15 Ti5 1.765871 1_555
O15 Ti6 1.929887 1_555
O16 Ti0 1.823443 1_555
O16 Ti1 2.051701 1_555
O17 Ti4 1.868895 1_555
O17 Ti5 1.976608 1_555
O18 Ti6 2.014532 1_555
O18 Ti14 2.073635 1_555
O18 Ti2 2.122892 1_555
O19 Ti3 1.936950 1_555
O19 Ti7 2.009305 1_565
O19 Ti13 2.240167 1_555
O20 Ti8 1.914451 1_555
O20 Ti10 2.104395 1_555
O20 Ti3 2.209956 1_555
O21 Ti12 1.948793 1_555
O21 Ti8 2.086374 1_555
O21 Ti0 2.202548 1_555
O22 Ti7 1.963167 1_555
O22 Ti4 2.083916 1_554
O22 Ti12 2.157937 1_555
O23 Ti11 1.977950 1_556
O23 Ti2 2.082885 1_555
O23 Ti9 2.153418 1_555
O24 Ti9 1.904467 1_545
O24 Ti5 2.128399 1_555
O24 Ti15 2.181237 1_555
O25 Ti1 1.991828 1_555
O25 Ti6 2.073768 1_555
O25 Ti15 2.115520 1_555
O26 Ti10 1.820064 1_555
O26 Ti14 2.051945 1_555
O27 Ti13 1.848869 1_555
O27 Ti11 1.889442 1_555
O28 Ti14 1.866633 1_555
O28 Ti6 1.975434 1_555
O29 Ti15 1.791749 1_555
O29 Ti6 1.950203 1_555
O30 Ti16 1.976181 1_555
O30 Ti8 1.976277 1_555
O30 Ti10 2.192827 1_555
O31 Ti10 1.827114 1_555
O31 Ti15 2.164890 1_565
O32 Ti17 1.978413 1_555
O32 Ti7 1.990712 1_555
O32 Ti13 2.039887 1_545
O33 Ti7 1.972516 1_555
O33 Ti17 1.975512 1_555
O33 Ti12 2.075369 1_555
O34 Ti13 1.955120 1_555
O34 Ti16 1.956493 1_555
O34 Ti8 1.989898 1_555
O35 Ti12 1.902642 1_555
O35 Ti11 1.976502 1_555
O36 Ti18 1.962601 1_655
O36 Ti9 1.991594 1_555
O36 Ti11 2.046745 1_556
O37 Ti9 1.940881 1_555
O37 Ti18 1.972048 1_655
O37 Ti14 2.075647 1_555
O38 Ti13 1.805417 1_555
O38 Ti11 1.963520 1_555
O39 Ti10 1.946447 1_555
O39 Ti14 1.959407 1_555
O40 Ti12 1.907252 1_555
O40 Ti16 2.147829 1_555
O40 Ti0 2.211742 1_655
O41 Ti17 1.944187 1_555
O41 Ti4 2.121280 1_654
O41 Ti12 2.132786 1_555
O42 Ti3 1.934824 1_655
O42 Ti17 2.039159 1_565
O42 Ti13 2.225752 1_555
O43 Ti16 1.883492 1_455
O43 Ti3 2.139099 1_555
O43 Ti10 2.230874 1_455
