# generated using pymatgen
data_Li4V3Fe5O16
_symmetry_space_group_name_H-M   'P 1'
_cell_length_a   5.92311349
_cell_length_b   5.92311349
_cell_length_c   9.58991967
_cell_angle_alpha   88.90980234
_cell_angle_beta   88.90980234
_cell_angle_gamma   60.29895396
_symmetry_Int_Tables_number   1
_chemical_formula_structural   Li4V3Fe5O16
_chemical_formula_sum   'Li4 V3 Fe5 O16'
_cell_volume   292.17360766
_cell_formula_units_Z   1
loop_
 _symmetry_equiv_pos_site_id
 _symmetry_equiv_pos_as_xyz
  1  'x, y, z'
loop_
 _atom_site_type_symbol
 _atom_site_label
 _atom_site_symmetry_multiplicity
 _atom_site_fract_x
 _atom_site_fract_y
 _atom_site_fract_z
 _atom_site_occupancy
  Li  Li0  1  0.66587400  0.66587400  0.89199700  1
  Li  Li1  1  0.99961300  0.99961300  0.99682800  1
  Li  Li2  1  0.99595800  0.99595800  0.49568200  1
  Li  Li3  1  0.33773600  0.33773600  0.39485200  1
  V  V0  1  0.82880300  0.82880300  0.21436000  1
  V  V1  1  0.66122800  0.16464300  0.71493500  1
  V  V2  1  0.16464300  0.66122800  0.71493500  1
  Fe  Fe0  1  0.83156900  0.33764000  0.21469200  1
  Fe  Fe1  1  0.66373400  0.66373400  0.49068300  1
  Fe  Fe2  1  0.33764000  0.83156900  0.21469200  1
  Fe  Fe3  1  0.16806900  0.16806900  0.71225200  1
  Fe  Fe4  1  0.33062700  0.33062700  0.99111400  1
  O  O0  1  0.82779400  0.31950500  0.60089900  1
  O  O1  1  0.52164400  0.52164400  0.33960400  1
  O  O2  1  0.67869800  0.67869800  0.10337100  1
  O  O3  1  0.99062100  0.99062100  0.30981200  1
  O  O4  1  0.99563400  0.99563400  0.81101400  1
  O  O5  1  0.31950500  0.82779400  0.60089900  1
  O  O6  1  0.96355300  0.53320400  0.33642600  1
  O  O7  1  0.53320400  0.96355300  0.33642600  1
  O  O8  1  0.16104700  0.16104700  0.09844900  1
  O  O9  1  0.83294300  0.83294300  0.60427200  1
  O  O10  1  0.49057900  0.03797900  0.83581300  1
  O  O11  1  0.03797900  0.49057900  0.83581300  1
  O  O12  1  0.33802000  0.33802000  0.60324600  1
  O  O13  1  0.67195000  0.14757500  0.10339100  1
  O  O14  1  0.47947700  0.47947700  0.83810900  1
  O  O15  1  0.14757500  0.67195000  0.10339100  1
loop_
_geom_bond_atom_site_label_1
_geom_bond_atom_site_label_2
_geom_bond_distance
_geom_bond_site_symmetry_2
Li0 O10 1.983546 1_565
Li0 O11 1.983546 1_655
Li0 O14 1.989029 1_555
Li0 O2 2.034194 1_556
Li1 O4 1.783304 1_555
Li1 O8 1.937853 1_666
Li1 O13 1.962694 1_566
Li1 O15 1.962694 1_656
Li2 O3 1.784519 1_555
Li2 O9 1.948431 1_555
Li2 O5 1.956178 1_655
Li2 O0 1.956178 1_565
Li3 O1 1.945720 1_555
Li3 O12 1.998548 1_555
Li3 O7 2.011536 1_545
Li3 O6 2.011536 1_455
Fe0 O1 1.994006 1_555
Fe0 O3 1.996726 1_545
Fe0 O8 2.020904 1_655
Fe0 O2 2.045135 1_555
Fe0 O6 2.073479 1_555
Fe0 O13 2.106977 1_555
Fe1 O5 2.052392 1_555
Fe1 O0 2.052392 1_555
Fe1 O9 2.067383 1_555
Fe1 O1 2.076165 1_555
Fe1 O6 2.126685 1_555
Fe1 O7 2.126685 1_555
Fe2 O1 1.994006 1_555
Fe2 O3 1.996726 1_455
Fe2 O8 2.020904 1_565
Fe2 O2 2.045135 1_555
Fe2 O7 2.073479 1_555
Fe2 O15 2.106977 1_555
Fe3 O4 1.985813 1_445
Fe3 O12 2.010842 1_555
Fe3 O11 2.059053 1_555
Fe3 O10 2.059053 1_555
Fe3 O0 2.064235 1_455
Fe3 O5 2.064235 1_545
Fe4 O8 1.999605 1_556
Fe4 O15 2.070849 1_556
Fe4 O13 2.070849 1_556
Fe4 O14 2.092712 1_555
Fe4 O11 2.130137 1_555
Fe4 O10 2.130137 1_555
O0 V1 1.956587 1_555
O2 V0 1.889232 1_555
O3 V0 1.911111 1_555
O4 V2 1.960567 1_655
O4 V1 1.960567 1_565
O5 V2 1.956587 1_555
O6 V0 1.909357 1_555
O7 V0 1.909357 1_555
O9 V2 2.019613 1_655
O9 V1 2.019613 1_565
O10 V1 1.897915 1_555
O11 V2 1.897915 1_555
O12 V2 1.988655 1_555
O12 V1 1.988655 1_555
O13 V0 1.945124 1_545
O14 V1 2.019351 1_555
O14 V2 2.019351 1_555
O15 V0 1.945124 1_455
