# generated using pymatgen
data_Al2Si2H5C2NO10
_symmetry_space_group_name_H-M   'P 1'
_cell_length_a   5.21351366
_cell_length_b   5.21351366
_cell_length_c   21.55810238
_cell_angle_alpha   88.99281457
_cell_angle_beta   88.99281457
_cell_angle_gamma   119.93105163
_symmetry_Int_Tables_number   1
_chemical_formula_structural   Al2Si2H5C2NO10
_chemical_formula_sum   'Al4 Si4 H10 C4 N2 O20'
_cell_volume   507.49939173
_cell_formula_units_Z   2
loop_
 _symmetry_equiv_pos_site_id
 _symmetry_equiv_pos_as_xyz
  1  'x, y, z'
loop_
 _atom_site_type_symbol
 _atom_site_label
 _atom_site_symmetry_multiplicity
 _atom_site_fract_x
 _atom_site_fract_y
 _atom_site_fract_z
 _atom_site_occupancy
  Al  Al0  1  0.94027400  0.74728600  0.65848500  1
  Al  Al1  1  0.74728600  0.94027400  0.15848500  1
  Al  Al2  1  0.61323400  0.09656900  0.65784300  1
  Al  Al3  1  0.09656900  0.61323400  0.15784300  1
  Si  Si0  1  0.27152300  0.78095200  0.53115400  1
  Si  Si1  1  0.78095200  0.27152300  0.03115400  1
  Si  Si2  1  0.93092600  0.10067000  0.53095200  1
  Si  Si3  1  0.10067000  0.93092600  0.03095200  1
  H  H0  1  0.28119900  0.17061800  0.73037200  1
  H  H1  1  0.17061800  0.28119900  0.23037200  1
  H  H2  1  0.01070500  0.40150000  0.73696800  1
  H  H3  1  0.40150000  0.01070500  0.23696800  1
  H  H4  1  0.57561400  0.71991800  0.74253200  1
  H  H5  1  0.71991800  0.57561400  0.24253200  1
  H  H6  1  0.06703000  0.36615800  0.89762300  1
  H  H7  1  0.36615800  0.06703000  0.39762300  1
  H  H8  1  0.61630400  0.60515600  0.92918100  1
  H  H9  1  0.60515600  0.61630400  0.42918100  1
  C  C0  1  0.25636800  0.45227400  0.86380600  1
  C  C1  1  0.45227400  0.25636800  0.36380600  1
  C  C2  1  0.65835400  0.93677900  0.86967000  1
  C  C3  1  0.93677900  0.65835400  0.36967000  1
  N  N0  1  0.54387200  0.66922900  0.89048900  1
  N  N1  1  0.66922900  0.54387200  0.39048900  1
  O  O0  1  0.24376200  0.40006500  0.80926500  1
  O  O1  1  0.40006500  0.24376200  0.30926500  1
  O  O2  1  0.08078300  0.91956700  0.49938500  1
  O  O3  1  0.91956700  0.08078300  0.99938500  1
  O  O4  1  0.13874900  0.44433100  0.50611200  1
  O  O5  1  0.44433100  0.13874900  0.00611200  1
  O  O6  1  0.60627100  0.96742000  0.49803300  1
  O  O7  1  0.96742000  0.60627100  0.99803300  1
  O  O8  1  0.27882600  0.81073500  0.60574000  1
  O  O9  1  0.81073500  0.27882600  0.10574000  1
  O  O10  1  0.89507900  0.05122600  0.60562800  1
  O  O11  1  0.05122600  0.89507900  0.10562800  1
  O  O12  1  0.68348600  0.43266900  0.60805500  1
  O  O13  1  0.43266900  0.68348600  0.10805500  1
  O  O14  1  0.27170200  0.02272400  0.70258300  1
  O  O15  1  0.02272400  0.27170200  0.20258300  1
  O  O16  1  0.88179200  0.41241300  0.70641400  1
  O  O17  1  0.41241300  0.88179200  0.20641400  1
  O  O18  1  0.65987300  0.80401300  0.70170900  1
  O  O19  1  0.80401300  0.65987300  0.20170900  1
loop_
_geom_bond_atom_site_label_1
_geom_bond_atom_site_label_2
_geom_bond_distance
_geom_bond_site_symmetry_2
Al0 O18 1.867107 1_555
Al0 O14 1.892397 1_665
Al0 O12 1.893994 1_555
Al0 O16 1.898140 1_555
Al0 O8 1.962483 1_655
Al0 O10 2.045352 1_565
Al1 O19 1.867107 1_555
Al1 O15 1.892397 1_665
Al1 O13 1.893994 1_555
Al1 O17 1.898140 1_555
Al1 O9 1.962483 1_565
Al1 O11 2.045352 1_655
Al2 O14 1.868544 1_555
Al2 O16 1.892007 1_555
Al2 O18 1.899277 1_545
Al2 O12 1.906890 1_555
Al2 O10 1.944215 1_555
Al2 O8 2.014196 1_545
Al3 O15 1.868544 1_555
Al3 O17 1.892007 1_555
Al3 O19 1.899277 1_455
Al3 O13 1.906890 1_555
Al3 O11 1.944215 1_555
Al3 O9 2.014196 1_455
H0 O14 0.966977 1_555
H1 O15 0.966977 1_555
H2 O16 0.970162 1_455
H3 O17 0.970162 1_545
H4 O18 0.969721 1_555
H5 O19 0.969721 1_555
H8 N0 1.037840 1_555
H9 N1 1.037840 1_555
C0 H6 1.108328 1_555
C0 O0 1.207075 1_555
C0 N0 1.489399 1_555
C1 H7 1.108328 1_555
C1 O1 1.207075 1_555
C1 N1 1.489399 1_555
C2 N0 1.281063 1_555
C3 N1 1.281063 1_555
O2 Si0 1.644349 1_555
O2 Si2 1.644697 1_465
O3 Si1 1.644349 1_556
O3 Si3 1.644697 1_646
O4 Si2 1.636914 1_455
O4 Si0 1.638509 1_555
O5 Si3 1.636914 1_545
O5 Si1 1.638509 1_555
O6 Si2 1.654473 1_565
O6 Si0 1.655112 1_555
O7 Si3 1.654473 1_656
O7 Si1 1.655112 1_556
O8 Si0 1.617417 1_555
O9 Si1 1.617417 1_555
O10 Si2 1.618587 1_555
O11 Si3 1.618587 1_555
