# generated using pymatgen
data_Sn(ClO)2
_symmetry_space_group_name_H-M   'P 1'
_cell_length_a   7.39092500
_cell_length_b   9.48704800
_cell_length_c   9.60912496
_cell_angle_alpha   63.67692788
_cell_angle_beta   90.00000000
_cell_angle_gamma   90.00000000
_symmetry_Int_Tables_number   1
_chemical_formula_structural   Sn(ClO)2
_chemical_formula_sum   'Sn4 Cl8 O8'
_cell_volume   603.90827156
_cell_formula_units_Z   4
loop_
 _symmetry_equiv_pos_site_id
 _symmetry_equiv_pos_as_xyz
  1  'x, y, z'
loop_
 _atom_site_type_symbol
 _atom_site_label
 _atom_site_symmetry_multiplicity
 _atom_site_fract_x
 _atom_site_fract_y
 _atom_site_fract_z
 _atom_site_occupancy
  Sn  Sn0  1  0.21740300  0.40817500  0.64747300  1
  Sn  Sn1  1  0.71740300  0.59182500  0.85252700  1
  Sn  Sn2  1  0.78259700  0.59182500  0.35252700  1
  Sn  Sn3  1  0.28259700  0.40817500  0.14747300  1
  Cl  Cl0  1  0.01514000  0.36709400  0.89396200  1
  Cl  Cl1  1  0.51514000  0.63290600  0.60603800  1
  Cl  Cl2  1  0.98486000  0.63290600  0.10603800  1
  Cl  Cl3  1  0.48486000  0.36709400  0.39396200  1
  Cl  Cl4  1  0.94340700  0.31976000  0.50305300  1
  Cl  Cl5  1  0.44340700  0.68024000  0.99694700  1
  Cl  Cl6  1  0.05659300  0.68024000  0.49694700  1
  Cl  Cl7  1  0.55659300  0.31976000  0.00305300  1
  O  O0  1  0.45075800  0.07524100  0.81417400  1
  O  O1  1  0.95075800  0.92475900  0.68582600  1
  O  O2  1  0.54924200  0.92475900  0.18582600  1
  O  O3  1  0.04924200  0.07524100  0.31417400  1
  O  O4  1  0.38238600  0.92011700  0.19199700  1
  O  O5  1  0.88238600  0.07988300  0.30800300  1
  O  O6  1  0.61761400  0.07988300  0.80800300  1
  O  O7  1  0.11761400  0.92011700  0.69199700  1
loop_
_geom_bond_atom_site_label_1
_geom_bond_atom_site_label_2
_geom_bond_distance
_geom_bond_site_symmetry_2
Cl0 Sn0 2.679175 1_555
Cl0 Sn1 2.965415 1_455
Cl1 Sn1 2.679175 1_555
Cl1 Sn0 2.965415 1_555
Cl2 Sn2 2.679175 1_555
Cl2 Sn3 2.965415 1_655
Cl3 Sn3 2.679175 1_555
Cl3 Sn2 2.965415 1_555
Cl4 Sn2 2.618362 1_555
Cl4 Sn0 2.786170 1_655
Cl5 Sn3 2.618362 1_556
Cl5 Sn1 2.786170 1_555
Cl6 Sn0 2.618362 1_555
Cl6 Sn2 2.786170 1_455
Cl7 Sn1 2.618362 1_554
Cl7 Sn3 2.786170 1_555
O0 O6 1.234492 1_555
O1 O7 1.234492 1_655
O2 O4 1.234492 1_555
O3 O5 1.234492 1_455
