# generated using pymatgen
data_LiP3W2O13
_symmetry_space_group_name_H-M   'P 1'
_cell_length_a   19.29378400
_cell_length_b   6.50937500
_cell_length_c   9.59885247
_cell_angle_alpha   73.24653700
_cell_angle_beta   90.00000000
_cell_angle_gamma   90.00000000
_symmetry_Int_Tables_number   1
_chemical_formula_structural   LiP3W2O13
_chemical_formula_sum   'Li4 P12 W8 O52'
_cell_volume   1154.35468020
_cell_formula_units_Z   4
loop_
 _symmetry_equiv_pos_site_id
 _symmetry_equiv_pos_as_xyz
  1  'x, y, z'
loop_
 _atom_site_type_symbol
 _atom_site_label
 _atom_site_symmetry_multiplicity
 _atom_site_fract_x
 _atom_site_fract_y
 _atom_site_fract_z
 _atom_site_occupancy
  Li  Li0  1  0.72392900  0.41499500  0.38027000  1
  Li  Li1  1  0.77607100  0.91499500  0.38027000  1
  Li  Li2  1  0.22392900  0.08500500  0.61973000  1
  Li  Li3  1  0.27607100  0.58500500  0.61973000  1
  P  P0  1  0.32612000  0.34389200  0.02418200  1
  P  P1  1  0.17388000  0.84389200  0.02418200  1
  P  P2  1  0.09478400  0.23196400  0.29699600  1
  P  P3  1  0.97008200  0.48892600  0.29912500  1
  P  P4  1  0.40521600  0.73196400  0.29699600  1
  P  P5  1  0.52991800  0.98892600  0.29912500  1
  P  P6  1  0.47008200  0.01107400  0.70087500  1
  P  P7  1  0.59478400  0.26803600  0.70300400  1
  P  P8  1  0.02991800  0.51107400  0.70087500  1
  P  P9  1  0.90521600  0.76803600  0.70300400  1
  P  P10  1  0.82612000  0.15610800  0.97581800  1
  P  P11  1  0.67388000  0.65610800  0.97581800  1
  W  W0  1  0.66153100  0.11824700  0.06920900  1
  W  W1  1  0.83846900  0.61824700  0.06920900  1
  W  W2  1  0.37359500  0.18663200  0.38611400  1
  W  W3  1  0.12640500  0.68663200  0.38611400  1
  W  W4  1  0.87359500  0.31336800  0.61388600  1
  W  W5  1  0.62640500  0.81336800  0.61388600  1
  W  W6  1  0.16153100  0.38175300  0.93079100  1
  W  W7  1  0.33846900  0.88175300  0.93079100  1
  O  O0  1  0.84824200  0.30920500  0.06400900  1
  O  O1  1  0.24812800  0.32747200  0.06152700  1
  O  O2  1  0.65294800  0.43066300  0.07130600  1
  O  O3  1  0.56124500  0.08479000  0.14792100  1
  O  O4  1  0.11535400  0.28590200  0.13793100  1
  O  O5  1  0.65175800  0.80920500  0.06400900  1
  O  O6  1  0.71330900  0.05292500  0.22993700  1
  O  O7  1  0.36589100  0.28940800  0.16886300  1
  O  O8  1  0.25187200  0.82747200  0.06152700  1
  O  O9  1  0.84705200  0.93066300  0.07130600  1
  O  O10  1  0.93875500  0.58479000  0.14792100  1
  O  O11  1  0.38464600  0.78590200  0.13793100  1
  O  O12  1  0.78669100  0.55292500  0.22993700  1
  O  O13  1  0.13410900  0.78940800  0.16886300  1
  O  O14  1  0.01269200  0.27510000  0.29884200  1
  O  O15  1  0.48006100  0.14324600  0.33980800  1
  O  O16  1  0.13091900  0.36740000  0.38324200  1
  O  O17  1  0.48730800  0.77510000  0.29884200  1
  O  O18  1  0.01993900  0.64324600  0.33980800  1
  O  O19  1  0.28703900  0.17688200  0.45100900  1
  O  O20  1  0.39631100  0.49589000  0.38395900  1
  O  O21  1  0.91099600  0.40786900  0.40614700  1
  O  O22  1  0.36908100  0.86740000  0.38324200  1
  O  O23  1  0.21296100  0.67688200  0.45100900  1
  O  O24  1  0.10368900  0.99589000  0.38395900  1
  O  O25  1  0.58900400  0.90786900  0.40614700  1
  O  O26  1  0.41099600  0.09213100  0.59385300  1
  O  O27  1  0.89631100  0.00411000  0.61604100  1
  O  O28  1  0.78703900  0.32311800  0.54899100  1
  O  O29  1  0.63091900  0.13260000  0.61675800  1
  O  O30  1  0.08900400  0.59213100  0.59385300  1
  O  O31  1  0.60368900  0.50411000  0.61604100  1
  O  O32  1  0.71296100  0.82311800  0.54899100  1
  O  O33  1  0.98006100  0.35675400  0.66019200  1
  O  O34  1  0.51269200  0.22490000  0.70115800  1
  O  O35  1  0.86908100  0.63260000  0.61675800  1
  O  O36  1  0.51993900  0.85675400  0.66019200  1
  O  O37  1  0.98730800  0.72490000  0.70115800  1
  O  O38  1  0.86589100  0.21059200  0.83113700  1
  O  O39  1  0.21330900  0.44707500  0.77006300  1
  O  O40  1  0.61535400  0.21409800  0.86206900  1
  O  O41  1  0.06124500  0.41521000  0.85207900  1
  O  O42  1  0.15294800  0.06933700  0.92869400  1
  O  O43  1  0.74812800  0.17252800  0.93847300  1
  O  O44  1  0.63410900  0.71059200  0.83113700  1
  O  O45  1  0.28669100  0.94707500  0.77006300  1
  O  O46  1  0.34824200  0.19079500  0.93599100  1
  O  O47  1  0.88464600  0.71409800  0.86206900  1
  O  O48  1  0.43875500  0.91521000  0.85207900  1
  O  O49  1  0.34705200  0.56933700  0.92869400  1
  O  O50  1  0.75187200  0.67252800  0.93847300  1
  O  O51  1  0.15175800  0.69079500  0.93599100  1
loop_
_geom_bond_atom_site_label_1
_geom_bond_atom_site_label_2
_geom_bond_distance
_geom_bond_site_symmetry_2
Li0 O12 1.899428 1_555
Li0 O28 1.976052 1_555
Li1 O6 1.899428 1_565
Li1 O32 1.976052 1_555
Li2 O45 1.899428 1_545
Li2 O19 1.976052 1_555
Li3 O39 1.899428 1_555
Li3 O23 1.976052 1_555
O0 P10 1.542171 1_554
O0 W1 2.035375 1_555
O1 P0 1.543419 1_555
O1 W6 2.058045 1_554
O2 P11 1.543158 1_554
O2 W0 2.046238 1_555
O3 P5 1.529410 1_545
O3 W0 2.065730 1_555
O4 P2 1.517555 1_555
O4 W6 2.102667 1_554
O5 P11 1.542171 1_554
O5 W0 2.035375 1_565
O6 W0 1.783491 1_555
O7 P0 1.536007 1_555
O7 W2 2.003520 1_555
O8 P1 1.543419 1_555
O8 W7 2.058045 1_554
O9 P10 1.543158 1_564
O9 W1 2.046238 1_555
O10 P3 1.529410 1_555
O10 W1 2.065730 1_555
O11 P4 1.517555 1_555
O11 W7 2.102667 1_554
O12 W1 1.783491 1_555
O13 P1 1.536007 1_555
O13 W3 2.003520 1_555
O14 P2 1.609551 1_555
O14 P3 1.617208 1_455
O15 P5 1.520866 1_545
O15 W2 2.137558 1_555
O16 P2 1.539287 1_555
O16 W3 2.087932 1_555
O17 P4 1.609551 1_555
O17 P5 1.617208 1_555
O18 P3 1.520866 1_455
O18 W3 2.137558 1_555
O19 W2 1.777115 1_555
O20 P4 1.532394 1_555
O20 W2 2.054503 1_555
O21 P3 1.523422 1_555
O21 W4 2.041621 1_555
O22 P4 1.539287 1_555
O22 W2 2.087932 1_565
O23 W3 1.777115 1_555
O24 P2 1.532394 1_565
O24 W3 2.054503 1_555
O25 P5 1.523422 1_555
O25 W5 2.041621 1_555
O26 P6 1.523422 1_555
O26 W2 2.041621 1_555
O27 P9 1.532394 1_545
O27 W4 2.054503 1_555
O28 W4 1.777115 1_555
O29 P7 1.539287 1_555
O29 W5 2.087932 1_545
O30 P8 1.523422 1_555
O30 W3 2.041621 1_555
O31 P7 1.532394 1_555
O31 W5 2.054503 1_555
O32 W5 1.777115 1_555
O33 P8 1.520866 1_655
O33 W4 2.137558 1_555
O34 P7 1.609551 1_555
O34 P6 1.617208 1_555
O35 P9 1.539287 1_555
O35 W4 2.087932 1_555
O36 P6 1.520866 1_565
O36 W5 2.137558 1_555
O37 P9 1.609551 1_555
O37 P8 1.617208 1_655
O38 P10 1.536007 1_555
O38 W4 2.003520 1_555
O39 W6 1.783491 1_555
O40 P7 1.517555 1_555
O40 W0 2.102667 1_556
O41 P8 1.529410 1_555
O41 W6 2.065730 1_555
O42 P1 1.543158 1_546
O42 W6 2.046238 1_555
O43 P10 1.543419 1_555
O43 W0 2.058045 1_556
O44 P11 1.536007 1_555
O44 W5 2.003520 1_555
O45 W7 1.783491 1_555
O46 P0 1.542171 1_556
O46 W7 2.035375 1_545
O47 P9 1.517555 1_555
O47 W1 2.102667 1_556
O48 P6 1.529410 1_565
O48 W7 2.065730 1_555
O49 P0 1.543158 1_556
O49 W7 2.046238 1_555
O50 P11 1.543419 1_555
O50 W1 2.058045 1_556
O51 P1 1.542171 1_556
O51 W6 2.035375 1_555
