# generated using pymatgen
data_Li14Mn22Cr3Cu3O56
_symmetry_space_group_name_H-M   'P 1'
_cell_length_a   5.92424785
_cell_length_b   5.92424770
_cell_length_c   41.41459968
_cell_angle_alpha   59.69909170
_cell_angle_beta   59.69909215
_cell_angle_gamma   59.96462073
_symmetry_Int_Tables_number   1
_chemical_formula_structural   Li14Mn22Cr3Cu3O56
_chemical_formula_sum   'Li14 Mn22 Cr3 Cu3 O56'
_cell_volume   1022.82043306
_cell_formula_units_Z   1
loop_
 _symmetry_equiv_pos_site_id
 _symmetry_equiv_pos_as_xyz
  1  'x, y, z'
loop_
 _atom_site_type_symbol
 _atom_site_label
 _atom_site_symmetry_multiplicity
 _atom_site_fract_x
 _atom_site_fract_y
 _atom_site_fract_z
 _atom_site_occupancy
  Li  Li0  1  0.12164800  0.12164800  0.01900300  1
  Li  Li1  1  0.12046800  0.12046800  0.16224900  1
  Li  Li2  1  0.12184300  0.12184300  0.30503600  1
  Li  Li3  1  0.87918100  0.87918100  0.12339900  1
  Li  Li4  1  0.11763800  0.11763800  0.44718400  1
  Li  Li5  1  0.87900900  0.87900900  0.26635200  1
  Li  Li6  1  0.12370200  0.12370200  0.58810300  1
  Li  Li7  1  0.87379300  0.87379300  0.41117400  1
  Li  Li8  1  0.12266500  0.12266500  0.73133600  1
  Li  Li9  1  0.12067200  0.12067200  0.87480900  1
  Li  Li10  1  0.88087800  0.88087800  0.55423000  1
  Li  Li11  1  0.87733800  0.87733800  0.69726400  1
  Li  Li12  1  0.87965600  0.87965600  0.83923900  1
  Li  Li13  1  0.88203000  0.88203000  0.98096200  1
  Mn  Mn0  1  0.00194600  0.49731500  0.07161200  1
  Mn  Mn1  1  0.49731500  0.00194600  0.07161200  1
  Mn  Mn2  1  0.49810700  0.49810700  0.07168200  1
  Mn  Mn3  1  0.99789100  0.50145200  0.21400500  1
  Mn  Mn4  1  0.50001500  0.50001500  0.14282800  1
  Mn  Mn5  1  0.50084100  0.50084100  0.21419100  1
  Mn  Mn6  1  0.00125200  0.49770000  0.35755000  1
  Mn  Mn7  1  0.50145200  0.99789100  0.21400500  1
  Mn  Mn8  1  0.49760700  0.49760700  0.35742200  1
  Mn  Mn9  1  0.99953600  0.50006400  0.50002300  1
  Mn  Mn10  1  0.50006400  0.99953600  0.50002300  1
  Mn  Mn11  1  0.49621300  0.49621300  0.42884400  1
  Mn  Mn12  1  0.49770000  0.00125200  0.35755000  1
  Mn  Mn13  1  0.00071600  0.50102700  0.64275100  1
  Mn  Mn14  1  0.50137900  0.50137900  0.57109600  1
  Mn  Mn15  1  0.00001100  0.49959200  0.78572300  1
  Mn  Mn16  1  0.50102700  0.00071600  0.64275100  1
  Mn  Mn17  1  0.50017600  0.50017600  0.71424200  1
  Mn  Mn18  1  0.50143000  0.99845600  0.92832900  1
  Mn  Mn19  1  0.50081300  0.50081300  0.85716500  1
  Mn  Mn20  1  0.49959200  0.00001100  0.78572300  1
  Mn  Mn21  1  0.99845600  0.50143000  0.92832900  1
  Cr  Cr0  1  0.50038300  0.50038300  0.64283800  1
  Cr  Cr1  1  0.49984100  0.49984100  0.78574000  1
  Cr  Cr2  1  0.50140300  0.50140300  0.92845100  1
  Cu  Cu0  1  0.50106100  0.50106100  0.99990900  1
  Cu  Cu1  1  0.49981900  0.49981900  0.28578600  1
  Cu  Cu2  1  0.50021700  0.50021700  0.49976200  1
  O  O0  1  0.25100300  0.25100300  0.04120600  1
  O  O1  1  0.26433500  0.26433500  0.10367500  1
  O  O2  1  0.25591600  0.70827200  0.04084100  1
  O  O3  1  0.70827200  0.25591600  0.04084100  1
  O  O4  1  0.29204900  0.73308800  0.10510600  1
  O  O5  1  0.26570200  0.26570200  0.18013700  1
  O  O6  1  0.73223600  0.73223600  0.04074900  1
  O  O7  1  0.24751800  0.24751800  0.24504100  1
  O  O8  1  0.26154800  0.70735000  0.18055300  1
  O  O9  1  0.73308800  0.29204900  0.10510600  1
  O  O10  1  0.70735000  0.26154800  0.18055300  1
  O  O11  1  0.73393200  0.73393200  0.10548000  1
  O  O12  1  0.25321700  0.25321700  0.32680400  1
  O  O13  1  0.29144900  0.75147000  0.24461700  1
  O  O14  1  0.75548500  0.75548500  0.18209700  1
  O  O15  1  0.75147000  0.29144900  0.24461700  1
  O  O16  1  0.25527500  0.70928200  0.32674800  1
  O  O17  1  0.26550200  0.26550200  0.38917200  1
  O  O18  1  0.70928200  0.25527500  0.32674800  1
  O  O19  1  0.74661200  0.74661200  0.24484000  1
  O  O20  1  0.29076900  0.72968200  0.39147900  1
  O  O21  1  0.25948100  0.25948100  0.46645300  1
  O  O22  1  0.72968200  0.29076900  0.39147900  1
  O  O23  1  0.73145400  0.73145400  0.32638900  1
  O  O24  1  0.25383700  0.70903200  0.46377600  1
  O  O25  1  0.25990800  0.25990800  0.52908400  1
  O  O26  1  0.73132600  0.73132600  0.39170500  1
  O  O27  1  0.70903200  0.25383700  0.46377600  1
  O  O28  1  0.29127400  0.74655000  0.53570100  1
  O  O29  1  0.26943900  0.26943900  0.60611300  1
  O  O30  1  0.74080900  0.74080900  0.47057300  1
  O  O31  1  0.74655000  0.29127400  0.53570100  1
  O  O32  1  0.25968500  0.25968500  0.67232700  1
  O  O33  1  0.26497500  0.70979600  0.60811100  1
  O  O34  1  0.73951400  0.73951400  0.53387700  1
  O  O35  1  0.70979600  0.26497500  0.60811100  1
  O  O36  1  0.29178100  0.73711300  0.67760900  1
  O  O37  1  0.26742700  0.26742700  0.74916800  1
  O  O38  1  0.74118400  0.74118400  0.61320700  1
  O  O39  1  0.73711300  0.29178100  0.67760900  1
  O  O40  1  0.25893700  0.25893700  0.81540800  1
  O  O41  1  0.26344400  0.70833000  0.75097200  1
  O  O42  1  0.73317900  0.73317900  0.67918400  1
  O  O43  1  0.70833000  0.26344400  0.75097200  1
  O  O44  1  0.29126800  0.73581900  0.82049500  1
  O  O45  1  0.26468400  0.26468400  0.89421500  1
  O  O46  1  0.73581900  0.29126800  0.82049500  1
  O  O47  1  0.74047800  0.74047800  0.75621700  1
  O  O48  1  0.26206900  0.70736200  0.89370400  1
  O  O49  1  0.25912900  0.25912900  0.95822800  1
  O  O50  1  0.73267700  0.73267700  0.82226300  1
  O  O51  1  0.70736200  0.26206900  0.89370400  1
  O  O52  1  0.29105500  0.75374700  0.96007100  1
  O  O53  1  0.74251400  0.74251400  0.89812000  1
  O  O54  1  0.75374700  0.29105500  0.96007100  1
  O  O55  1  0.75224900  0.75224900  0.95842300  1
loop_
_geom_bond_atom_site_label_1
_geom_bond_atom_site_label_2
_geom_bond_distance
_geom_bond_site_symmetry_2
Li0 O2 1.997224 1_545
Li0 O3 1.997224 1_455
Li0 O0 2.007505 1_555
Li0 O49 2.046633 1_554
Li1 O1 1.972818 1_555
Li1 O8 1.995625 1_545
Li1 O10 1.995625 1_455
Li1 O5 2.014170 1_555
Li2 O16 1.993130 1_545
Li2 O18 1.993130 1_455
Li2 O12 2.011620 1_555
Li2 O7 2.025765 1_555
Li3 O14 1.981396 1_555
Li3 O9 1.994544 1_565
Li3 O4 1.994544 1_655
Li3 O11 2.015343 1_555
Li4 O17 1.956443 1_555
Li4 O24 1.977031 1_545
Li4 O27 1.977031 1_455
Li4 O21 2.027145 1_555
Li5 O15 1.992515 1_565
Li5 O13 1.992515 1_655
Li5 O19 2.012530 1_555
Li5 O23 2.022125 1_555
Li6 O25 1.986946 1_555
Li6 O33 1.998712 1_545
Li6 O35 1.998712 1_455
Li6 O29 2.023133 1_555
Li7 O30 2.000729 1_555
Li7 O22 2.013620 1_565
Li7 O20 2.013620 1_655
Li7 O26 2.039940 1_555
Li8 O32 1.986516 1_555
Li8 O41 2.000705 1_545
Li8 O43 2.000705 1_455
Li8 O37 2.007695 1_555
Li9 O48 1.996037 1_545
Li9 O51 1.996037 1_455
Li9 O40 1.999685 1_555
Li9 O45 2.052845 1_555
Li10 O31 1.982424 1_565
Li10 O28 1.982424 1_655
Li10 O38 1.985393 1_555
Li10 O34 2.059127 1_555
Li11 O47 1.984633 1_555
Li11 O39 2.001200 1_565
Li11 O36 2.001200 1_655
Li11 O42 2.010010 1_555
Li12 O53 1.982174 1_555
Li12 O46 1.988013 1_565
Li12 O44 1.988014 1_655
Li12 O50 2.001284 1_555
Li13 O54 1.975421 1_565
Li13 O52 1.975421 1_655
Li13 O6 2.014873 1_556
Li13 O55 2.023305 1_555
Mn0 O0 1.927705 1_555
Mn0 O2 1.946827 1_555
Mn0 O9 1.986762 1_455
Mn0 O11 1.990487 1_455
Mn0 O6 2.040444 1_455
Mn0 O1 2.042126 1_555
Mn1 O0 1.927705 1_555
Mn1 O3 1.946827 1_555
Mn1 O4 1.986761 1_545
Mn1 O11 1.990487 1_545
Mn1 O6 2.040444 1_545
Mn1 O1 2.042126 1_555
Mn2 O3 1.922619 1_555
Mn2 O2 1.922619 1_555
Mn2 O1 1.951496 1_555
Mn2 O6 1.956721 1_555
Mn2 O4 1.970376 1_555
Mn2 O9 1.970376 1_555
Mn3 O15 1.909256 1_555
Mn3 O19 1.935239 1_555
Mn3 O14 1.953985 1_555
Mn3 O7 1.960108 1_655
Mn3 O8 1.966070 1_655
Mn3 O5 1.986989 1_655
Mn4 O11 1.956991 1_555
Mn4 O5 1.959987 1_555
Mn4 O8 1.979305 1_555
Mn4 O10 1.979305 1_555
Mn4 O9 1.981819 1_555
Mn4 O4 1.981819 1_555
Mn5 O13 1.948849 1_555
Mn5 O15 1.948849 1_555
Mn5 O10 1.995991 1_555
Mn5 O8 1.995991 1_555
Mn5 O7 2.126463 1_555
Mn5 O14 2.133024 1_555
Mn6 O12 1.930304 1_555
Mn6 O16 1.949578 1_555
Mn6 O26 1.987722 1_455
Mn6 O22 2.005160 1_455
Mn6 O17 2.037952 1_555
Mn6 O23 2.049431 1_455
Mn7 O13 1.909256 1_555
Mn7 O19 1.935239 1_555
Mn7 O14 1.953985 1_555
Mn7 O7 1.960108 1_565
Mn7 O10 1.966070 1_565
Mn7 O5 1.986989 1_565
Mn8 O18 1.917805 1_555
Mn8 O16 1.917805 1_555
Mn8 O17 1.937603 1_555
Mn8 O23 1.954028 1_555
Mn8 O20 1.976726 1_555
Mn8 O22 1.976726 1_555
Mn9 O31 1.932980 1_555
Mn9 O24 1.940468 1_655
Mn9 O25 1.949506 1_655
Mn9 O30 1.952887 1_555
Mn9 O21 1.994412 1_655
Mn9 O34 1.997758 1_555
Mn10 O28 1.932980 1_555
Mn10 O27 1.940468 1_565
Mn10 O25 1.949506 1_565
Mn10 O30 1.952887 1_555
Mn10 O21 1.994412 1_565
Mn10 O34 1.997758 1_555
Mn11 O24 1.917393 1_555
Mn11 O27 1.917393 1_555
Mn11 O22 1.960750 1_555
Mn11 O20 1.960750 1_555
Mn11 O26 1.965810 1_555
Mn11 O21 1.979965 1_555
Mn12 O12 1.930304 1_555
Mn12 O18 1.949578 1_555
Mn12 O26 1.987722 1_545
Mn12 O20 2.005160 1_545
Mn12 O17 2.037952 1_555
Mn12 O23 2.049431 1_545
Mn13 O32 1.957423 1_555
Mn13 O38 1.958867 1_455
Mn13 O39 1.979061 1_455
Mn13 O33 1.979958 1_555
Mn13 O42 2.044241 1_455
Mn13 O29 2.048350 1_555
Mn14 O31 1.921094 1_555
Mn14 O28 1.921094 1_555
Mn14 O29 1.935912 1_555
Mn14 O33 1.961727 1_555
Mn14 O35 1.961727 1_555
Mn14 O34 1.990036 1_555
Mn15 O47 1.957927 1_455
Mn15 O40 1.960103 1_555
Mn15 O41 1.976289 1_555
Mn15 O46 1.978008 1_455
Mn15 O37 2.047717 1_555
Mn15 O50 2.050846 1_455
Mn16 O32 1.957423 1_555
Mn16 O38 1.958867 1_545
Mn16 O36 1.979061 1_545
Mn16 O35 1.979958 1_555
Mn16 O42 2.044241 1_545
Mn16 O29 2.048350 1_555
Mn17 O37 1.942394 1_555
Mn17 O42 1.944628 1_555
Mn17 O39 1.950011 1_555
Mn17 O36 1.950011 1_555
Mn17 O41 1.952002 1_555
Mn17 O43 1.952002 1_555
Mn18 O52 1.901445 1_555
Mn18 O55 1.937388 1_555
Mn18 O53 1.961475 1_555
Mn18 O51 1.966161 1_565
Mn18 O49 1.973703 1_565
Mn18 O45 1.996818 1_565
Mn19 O50 1.935142 1_555
Mn19 O48 1.940078 1_555
Mn19 O51 1.940078 1_555
Mn19 O46 1.955616 1_555
Mn19 O44 1.955616 1_555
Mn19 O45 1.973635 1_555
Mn20 O47 1.957927 1_545
Mn20 O40 1.960103 1_555
Mn20 O43 1.976289 1_555
Mn20 O44 1.978008 1_545
Mn20 O37 2.047717 1_555
Mn20 O50 2.050846 1_545
Mn21 O54 1.901445 1_555
Mn21 O55 1.937388 1_555
Mn21 O53 1.961475 1_555
Mn21 O48 1.966161 1_655
Mn21 O49 1.973703 1_655
Mn21 O45 1.996818 1_655
Cr0 O35 2.010964 1_555
Cr0 O33 2.010964 1_555
Cr0 O36 2.018636 1_555
Cr0 O39 2.018636 1_555
Cr0 O32 2.019685 1_555
Cr0 O38 2.019979 1_555
Cr1 O44 2.014821 1_555
Cr1 O46 2.014821 1_555
Cr1 O43 2.017130 1_555
Cr1 O41 2.017130 1_555
Cr1 O47 2.018989 1_555
Cr1 O40 2.020737 1_555
Cr2 O52 1.991601 1_555
Cr2 O54 1.991601 1_555
Cr2 O53 2.019881 1_555
Cr2 O51 2.031057 1_555
Cr2 O48 2.031057 1_555
Cr2 O49 2.032489 1_555
Cu0 O54 2.055602 1_555
Cu0 O52 2.055602 1_555
Cu0 O2 2.078610 1_556
Cu0 O3 2.078610 1_556
Cu0 O0 2.097103 1_556
Cu0 O55 2.106589 1_555
Cu1 O12 2.069395 1_555
Cu1 O19 2.070536 1_555
Cu1 O16 2.088328 1_555
Cu1 O18 2.088328 1_555
Cu1 O15 2.090454 1_555
Cu1 O13 2.090454 1_555
Cu2 O25 2.016959 1_555
Cu2 O30 2.020111 1_555
Cu2 O28 2.097991 1_555
Cu2 O31 2.097991 1_555
Cu2 O27 2.099775 1_555
Cu2 O24 2.099775 1_555
