# generated using pymatgen
data_LiFe2OF5
_symmetry_space_group_name_H-M   'P 1'
_cell_length_a   5.11225700
_cell_length_b   4.68554500
_cell_length_c   17.70227542
_cell_angle_alpha   75.38891963
_cell_angle_beta   90.00000000
_cell_angle_gamma   90.00000000
_symmetry_Int_Tables_number   1
_chemical_formula_structural   LiFe2OF5
_chemical_formula_sum   'Li4 Fe8 O4 F20'
_cell_volume   410.32204983
_cell_formula_units_Z   4
loop_
 _symmetry_equiv_pos_site_id
 _symmetry_equiv_pos_as_xyz
  1  'x, y, z'
loop_
 _atom_site_type_symbol
 _atom_site_label
 _atom_site_symmetry_multiplicity
 _atom_site_fract_x
 _atom_site_fract_y
 _atom_site_fract_z
 _atom_site_occupancy
  Li  Li0  1  0.50422000  0.60954600  0.38317800  1
  Li  Li1  1  0.01445300  0.38128100  0.61371500  1
  Li  Li2  1  0.49578000  0.60954600  0.88317800  1
  Li  Li3  1  0.98554700  0.38128100  0.11371500  1
  Fe  Fe0  1  0.02649400  0.69505700  0.28109200  1
  Fe  Fe1  1  0.50670100  0.96353800  0.06093500  1
  Fe  Fe2  1  0.50160100  0.27707400  0.71802600  1
  Fe  Fe3  1  0.00064500  0.04829100  0.94858400  1
  Fe  Fe4  1  0.49329900  0.96353800  0.56093500  1
  Fe  Fe5  1  0.97350600  0.69505700  0.78109200  1
  Fe  Fe6  1  0.49839900  0.27707400  0.21802600  1
  Fe  Fe7  1  0.99935500  0.04829100  0.44858400  1
  O  O0  1  0.32711000  0.47059200  0.28831500  1
  O  O1  1  0.35544200  0.14502000  0.63124100  1
  O  O2  1  0.67289000  0.47059200  0.78831500  1
  O  O3  1  0.64455800  0.14502000  0.13124100  1
  F  F0  1  0.83950100  0.05761500  0.70733500  1
  F  F1  1  0.84705400  0.38934400  0.37385100  1
  F  F2  1  0.82769900  0.74631600  0.03513100  1
  F  F3  1  0.32263000  0.82043500  0.96239900  1
  F  F4  1  0.32220600  0.25838800  0.46262100  1
  F  F5  1  0.83328900  0.19284600  0.53444200  1
  F  F6  1  0.84203400  0.85873800  0.87386900  1
  F  F7  1  0.32907400  0.61214700  0.12477700  1
  F  F8  1  0.82649100  0.53400200  0.20652200  1
  F  F9  1  0.31097900  0.93977000  0.79396400  1
  F  F10  1  0.16049900  0.05761500  0.20733500  1
  F  F11  1  0.15294600  0.38934400  0.87385100  1
  F  F12  1  0.67737000  0.82043500  0.46239900  1
  F  F13  1  0.17230100  0.74631600  0.53513100  1
  F  F14  1  0.16671100  0.19284600  0.03444200  1
  F  F15  1  0.67779400  0.25838800  0.96262100  1
  F  F16  1  0.67092600  0.61214700  0.62477700  1
  F  F17  1  0.15796600  0.85873800  0.37386900  1
  F  F18  1  0.68902100  0.93977000  0.29396400  1
  F  F19  1  0.17350900  0.53400200  0.70652200  1
loop_
_geom_bond_atom_site_label_1
_geom_bond_atom_site_label_2
_geom_bond_distance
_geom_bond_site_symmetry_2
Li0 O0 2.148332 1_555
Li1 O1 2.046285 1_555
Li2 O2 2.148332 1_555
Li3 O3 2.046285 1_555
Fe0 O0 1.848377 1_555
Fe1 O3 1.817326 1_565
Fe2 O2 1.925202 1_555
Fe2 O1 1.944460 1_555
Fe4 O1 1.817326 1_565
Fe5 O2 1.848377 1_555
Fe6 O0 1.925202 1_555
Fe6 O3 1.944460 1_555
F0 Fe5 1.985173 1_545
F0 Fe2 2.043377 1_555
F0 Li1 2.139733 1_655
F1 Fe7 1.960480 1_555
F1 Li0 2.061444 1_555
F1 Fe0 2.098337 1_655
F2 Fe3 2.009304 1_664
F2 Fe1 2.042572 1_555
F2 Li3 2.076391 1_555
F3 Fe3 1.943569 1_565
F3 Li2 2.103755 1_555
F3 Fe1 2.228856 1_556
F4 Fe7 1.969360 1_455
F4 Li0 2.093659 1_555
F4 Fe4 2.118859 1_545
F5 Fe7 2.002230 1_555
F5 Fe4 2.034989 1_545
F5 Li1 2.057110 1_655
F6 Fe3 1.946359 1_665
F6 Fe5 2.091117 1_555
F6 Li2 2.103988 1_555
F7 Fe1 1.968221 1_555
F7 Li3 2.097521 1_455
F7 Fe6 2.152111 1_555
F8 Fe0 1.964697 1_655
F8 Fe6 2.044588 1_555
F8 Li3 2.113165 1_555
F9 Fe2 2.045166 1_565
F9 Fe5 2.115406 1_455
F9 Li2 2.132594 1_555
F10 Fe0 1.985173 1_545
F10 Fe6 2.043377 1_555
F10 Li3 2.139733 1_455
F11 Fe3 1.960480 1_555
F11 Li2 2.061444 1_555
F11 Fe5 2.098337 1_455
F12 Fe7 1.943569 1_565
F12 Li0 2.103755 1_555
F12 Fe4 2.228856 1_555
F13 Fe7 2.009304 1_465
F13 Fe4 2.042572 1_555
F13 Li1 2.076391 1_555
F14 Fe3 2.002230 1_554
F14 Fe1 2.034989 1_545
F14 Li3 2.057110 1_455
F15 Fe3 1.969360 1_655
F15 Li2 2.093659 1_555
F15 Fe1 2.118859 1_546
F16 Fe4 1.968221 1_555
F16 Li1 2.097521 1_655
F16 Fe2 2.152111 1_555
F17 Fe7 1.946359 1_465
F17 Fe0 2.091117 1_555
F17 Li0 2.103988 1_555
F18 Fe6 2.045166 1_565
F18 Fe0 2.115406 1_655
F18 Li0 2.132594 1_555
F19 Fe5 1.964697 1_455
F19 Fe2 2.044588 1_555
F19 Li1 2.113165 1_555
