# generated using pymatgen
data_RbFeO2
_symmetry_space_group_name_H-M   'P 1'
_cell_length_a   5.79192756
_cell_length_b   5.79205834
_cell_length_c   8.31739405
_cell_angle_alpha   89.99911699
_cell_angle_beta   90.00040287
_cell_angle_gamma   89.98530676
_symmetry_Int_Tables_number   1
_chemical_formula_structural   RbFeO2
_chemical_formula_sum   'Rb4 Fe4 O8'
_cell_volume   279.02512527
_cell_formula_units_Z   4
loop_
 _symmetry_equiv_pos_site_id
 _symmetry_equiv_pos_as_xyz
  1  'x, y, z'
loop_
 _atom_site_type_symbol
 _atom_site_label
 _atom_site_symmetry_multiplicity
 _atom_site_fract_x
 _atom_site_fract_y
 _atom_site_fract_z
 _atom_site_occupancy
  Rb  Rb0  1  0.22939816  0.22944826  0.50000829  1
  Rb  Rb1  1  0.27060753  0.72946506  0.74999522  1
  Rb  Rb2  1  0.72940651  0.27052026  0.24999492  1
  Rb  Rb3  1  0.77061629  0.77053790  -0.00000037  1
  Fe  Fe0  1  0.21298029  0.21304470  -0.00006934  1
  Fe  Fe1  1  0.28703318  0.71303702  0.25004136  1
  Fe  Fe2  1  0.71303313  0.28699300  0.74995615  1
  Fe  Fe3  1  0.78697246  0.78699205  0.50007046  1
  O  O0  1  0.09630342  0.75535777  0.42986574  1
  O  O1  1  0.24471354  0.90365768  0.07012138  1
  O  O2  1  0.25535596  0.40368586  0.17988333  1
  O  O3  1  0.40370679  0.25540792  0.82011782  1
  O  O4  1  0.59637114  0.74459030  0.32014870  1
  O  O5  1  0.74467211  0.59627317  0.67984386  1
  O  O6  1  0.75529538  0.09625087  0.57015496  1
  O  O7  1  0.90363113  0.24463818  0.92986552  1
loop_
_geom_bond_atom_site_label_1
_geom_bond_atom_site_label_2
_geom_bond_distance
_geom_bond_site_symmetry_2
Fe0 O3 1.875475 1_554
Fe0 O2 1.876144 1_555
Fe0 O7 1.892933 1_454
Fe0 O1 1.893575 1_545
Fe1 O0 1.875462 1_555
Fe1 O1 1.875713 1_555
Fe1 O4 1.893048 1_555
Fe1 O2 1.893369 1_555
Fe2 O6 1.875326 1_555
Fe2 O7 1.875584 1_555
Fe2 O5 1.892825 1_555
Fe2 O3 1.893148 1_555
Fe3 O5 1.875138 1_555
Fe3 O4 1.875793 1_555
Fe3 O6 1.892586 1_565
Fe3 O0 1.893224 1_655
O0 Rb1 2.851532 1_555
O0 Rb0 2.911362 1_565
O0 Rb0 3.195631 1_555
O1 Rb1 2.851311 1_554
O1 Rb3 2.911340 1_455
O1 Rb3 3.195552 1_555
O2 Rb0 2.851411 1_555
O2 Rb2 2.910761 1_555
O2 Rb2 3.196231 1_455
O3 Rb0 2.851439 1_555
O3 Rb1 2.910764 1_555
O3 Rb1 3.196185 1_545
O4 Rb3 2.851621 1_555
O4 Rb2 2.910808 1_555
O4 Rb2 3.196057 1_565
O5 Rb3 2.851729 1_556
O5 Rb1 2.910957 1_555
O5 Rb1 3.196247 1_655
O6 Rb2 2.851698 1_555
O6 Rb0 2.911534 1_655
O6 Rb0 3.195655 1_555
O7 Rb2 2.851383 1_556
O7 Rb3 2.911265 1_546
O7 Rb3 3.195472 1_556
