# generated using pymatgen
data_Li4Ti3Fe2Cu3O16
_symmetry_space_group_name_H-M   'P 1'
_cell_length_a   5.88547258
_cell_length_b   5.88759600
_cell_length_c   9.62488173
_cell_angle_alpha   89.98304251
_cell_angle_beta   91.00934755
_cell_angle_gamma   119.99158699
_symmetry_Int_Tables_number   1
_chemical_formula_structural   Li4Ti3Fe2Cu3O16
_chemical_formula_sum   'Li4 Ti3 Fe2 Cu3 O16'
_cell_volume   288.79776258
_cell_formula_units_Z   1
loop_
 _symmetry_equiv_pos_site_id
 _symmetry_equiv_pos_as_xyz
  1  'x, y, z'
loop_
 _atom_site_type_symbol
 _atom_site_label
 _atom_site_symmetry_multiplicity
 _atom_site_fract_x
 _atom_site_fract_y
 _atom_site_fract_z
 _atom_site_occupancy
  Li  Li0  1  0.33253200  0.66658100  0.89693800  1
  Li  Li1  1  0.97844600  0.98913900  0.99057100  1
  Li  Li2  1  0.99827900  0.99919500  0.49630700  1
  Li  Li3  1  0.67716200  0.33854500  0.39852100  1
  Ti  Ti0  1  0.17750700  0.83585500  0.21711500  1
  Ti  Ti1  1  0.17782200  0.34166900  0.21705300  1
  Ti  Ti2  1  0.35047500  0.17542200  0.72143200  1
  Fe  Fe0  1  0.33688700  0.66839300  0.49467500  1
  Fe  Fe1  1  0.67106000  0.33566000  0.99179300  1
  Cu  Cu0  1  0.65960400  0.82981500  0.21024500  1
  Cu  Cu1  1  0.83409100  0.66141300  0.70986400  1
  Cu  Cu2  1  0.83418500  0.17273800  0.70996100  1
  O  O0  1  0.17697000  0.84424500  0.59753600  1
  O  O1  1  0.03568800  0.51788200  0.33281700  1
  O  O2  1  0.31713200  0.65860100  0.10250500  1
  O  O3  1  0.99877000  0.99946100  0.30794500  1
  O  O4  1  0.99434700  0.99669700  0.80137000  1
  O  O5  1  0.17632500  0.33230800  0.59776000  1
  O  O6  1  0.47509500  0.96490200  0.34333000  1
  O  O7  1  0.47502600  0.50994100  0.34324400  1
  O  O8  1  0.32732500  0.16356300  0.10423200  1
  O  O9  1  0.67844900  0.83891600  0.59916500  1
  O  O10  1  0.50398300  0.47254100  0.84450300  1
  O  O11  1  0.50553100  0.03219100  0.84426900  1
  O  O12  1  0.66741100  0.33388600  0.60508000  1
  O  O13  1  0.84024900  0.67214500  0.09733000  1
  O  O14  1  0.95937800  0.48038400  0.83504700  1
  O  O15  1  0.84027300  0.16821100  0.09723200  1
loop_
_geom_bond_atom_site_label_1
_geom_bond_atom_site_label_2
_geom_bond_distance
_geom_bond_site_symmetry_2
Li0 O10 1.936195 1_555
Li0 O11 1.937421 1_565
Li0 O2 1.981696 1_556
Li0 O14 1.981714 1_455
Li1 O4 1.824475 1_555
Li1 O13 1.926472 1_556
Li1 O15 1.927171 1_566
Li1 O8 2.069040 1_666
Li2 O3 1.813014 1_555
Li2 O9 1.924340 1_555
Li2 O5 1.951528 1_665
Li2 O0 1.951960 1_655
Li3 O1 1.945888 1_655
Li3 O7 1.973386 1_555
Li3 O6 1.974537 1_545
Li3 O12 1.989730 1_555
Fe0 O0 1.986344 1_555
Fe0 O5 1.988788 1_555
Fe0 O9 1.993029 1_555
Fe0 O6 2.109908 1_555
Fe0 O7 2.111028 1_555
Fe0 O1 2.165111 1_555
Fe1 O15 1.984700 1_556
Fe1 O13 1.985303 1_556
Fe1 O8 2.077912 1_556
Fe1 O10 2.090122 1_555
Fe1 O11 2.090478 1_555
Fe1 O14 2.127309 1_555
Cu0 O3 1.951323 1_555
Cu0 O2 2.012423 1_555
Cu0 O13 2.049686 1_555
Cu0 O15 2.050548 1_565
Cu0 O6 2.089409 1_555
Cu0 O7 2.089918 1_555
Cu1 O4 1.916352 1_555
Cu1 O12 1.942444 1_555
Cu1 O14 1.971058 1_555
Cu1 O9 1.997124 1_555
Cu1 O0 2.074706 1_655
Cu1 O10 2.149058 1_555
Cu2 O4 1.919332 1_545
Cu2 O12 1.943753 1_555
Cu2 O14 1.977104 1_555
Cu2 O9 2.001491 1_545
Cu2 O5 2.070837 1_655
Cu2 O11 2.141152 1_555
O0 Ti2 2.057799 1_565
O1 Ti0 1.977598 1_555
O1 Ti1 1.979588 1_555
O2 Ti1 1.967413 1_555
O2 Ti0 1.967542 1_555
O3 Ti1 1.960602 1_665
O3 Ti0 1.960778 1_655
O4 Ti2 1.985884 1_665
O5 Ti2 2.055106 1_555
O6 Ti0 1.927639 1_555
O7 Ti1 1.926062 1_555
O8 Ti1 2.002434 1_555
O8 Ti0 2.003060 1_545
O10 Ti2 1.913891 1_555
O11 Ti2 1.916379 1_555
O12 Ti2 1.984212 1_555
O13 Ti0 2.050730 1_655
O15 Ti1 2.052153 1_655
