# generated using pymatgen
data_LiMn2O2F3
_symmetry_space_group_name_H-M   'P 1'
_cell_length_a   5.42324681
_cell_length_b   5.42324681
_cell_length_c   9.92997148
_cell_angle_alpha   87.74894448
_cell_angle_beta   87.74894448
_cell_angle_gamma   42.42150171
_symmetry_Int_Tables_number   1
_chemical_formula_structural   LiMn2O2F3
_chemical_formula_sum   'Li2 Mn4 O4 F6'
_cell_volume   196.84031261
_cell_formula_units_Z   2
loop_
 _symmetry_equiv_pos_site_id
 _symmetry_equiv_pos_as_xyz
  1  'x, y, z'
loop_
 _atom_site_type_symbol
 _atom_site_label
 _atom_site_symmetry_multiplicity
 _atom_site_fract_x
 _atom_site_fract_y
 _atom_site_fract_z
 _atom_site_occupancy
  Li  Li0  1  0.69663800  0.69663800  0.23268700  1
  Li  Li1  1  0.36965600  0.36965600  0.07028300  1
  Mn  Mn0  1  0.63434700  0.63434700  0.58448700  1
  Mn  Mn1  1  0.65349800  0.65349800  0.93342000  1
  Mn  Mn2  1  0.30215500  0.30215500  0.74975400  1
  Mn  Mn3  1  0.36349000  0.36349000  0.43911100  1
  O  O0  1  0.75023600  0.75023600  0.75420600  1
  O  O1  1  0.43571200  0.43571200  0.60903800  1
  O  O2  1  0.18101100  0.18101100  0.90661900  1
  O  O3  1  0.18417000  0.18417000  0.59071300  1
  F  F0  1  0.55683400  0.55683400  0.10488100  1
  F  F1  1  0.82261100  0.82261100  0.44127700  1
  F  F2  1  0.56224400  0.56224400  0.38603100  1
  F  F3  1  0.81444200  0.81444200  0.06522300  1
  F  F4  1  0.27990700  0.27990700  0.26699200  1
  F  F5  1  0.44922400  0.44922400  0.86890700  1
loop_
_geom_bond_atom_site_label_1
_geom_bond_atom_site_label_2
_geom_bond_distance
_geom_bond_site_symmetry_2
Li1 O2 2.557553 1_554
Mn0 O1 2.013058 1_555
Mn0 O3 2.027364 1_655
Mn0 O3 2.027364 1_565
Mn0 O0 2.092813 1_555
Mn1 O0 1.994268 1_555
Mn1 O2 1.997982 1_655
Mn1 O2 1.997982 1_565
Mn2 O1 1.901913 1_555
Mn2 O2 1.940642 1_555
Mn2 O3 2.018957 1_555
Mn2 O0 2.031147 1_545
Mn2 O0 2.031147 1_455
Mn3 O1 1.866648 1_555
Mn3 O3 2.307387 1_555
F0 Mn1 1.927176 1_554
F0 Li1 1.937807 1_555
F0 Li0 1.939135 1_555
F1 Mn3 2.005124 1_565
F1 Mn3 2.005124 1_655
F1 Mn0 2.327688 1_555
F1 Li0 2.476924 1_555
F2 Li0 1.997750 1_555
F2 Mn3 2.056117 1_555
F2 Mn0 2.129823 1_555
F3 Li0 2.004325 1_555
F3 Li1 2.041211 1_565
F3 Li1 2.041211 1_655
F3 Mn1 2.130946 1_554
F4 Mn3 1.938344 1_555
F4 Li1 2.118879 1_555
F4 Li0 2.167742 1_545
F4 Li0 2.167742 1_455
F5 Mn2 1.938999 1_555
F5 Li1 2.123768 1_556
F5 Mn1 2.188246 1_555
