# generated using pymatgen
data_KCa2P4H9O17
_symmetry_space_group_name_H-M   'P 1'
_cell_length_a   19.42820300
_cell_length_b   7.43949000
_cell_length_c   12.92566774
_cell_angle_alpha   55.57788904
_cell_angle_beta   90.00000000
_cell_angle_gamma   90.00000000
_symmetry_Int_Tables_number   1
_chemical_formula_structural   KCa2P4H9O17
_chemical_formula_sum   'K4 Ca8 P16 H36 O68'
_cell_volume   1541.08882933
_cell_formula_units_Z   4
loop_
 _symmetry_equiv_pos_site_id
 _symmetry_equiv_pos_as_xyz
  1  'x, y, z'
loop_
 _atom_site_type_symbol
 _atom_site_label
 _atom_site_symmetry_multiplicity
 _atom_site_fract_x
 _atom_site_fract_y
 _atom_site_fract_z
 _atom_site_occupancy
  K  K0  1  0.89762200  0.19325800  0.65844800  1
  K  K1  1  0.60237800  0.19325800  0.15844800  1
  K  K2  1  0.10237800  0.80674200  0.34155200  1
  K  K3  1  0.39762200  0.80674200  0.84155200  1
  Ca  Ca0  1  0.75496500  0.66774800  0.92447900  1
  Ca  Ca1  1  0.74503500  0.66774800  0.42447900  1
  Ca  Ca2  1  0.24503500  0.33225200  0.07552100  1
  Ca  Ca3  1  0.25496500  0.33225200  0.57552100  1
  Ca  Ca4  1  0.73057500  0.24782900  0.84435800  1
  Ca  Ca5  1  0.76942500  0.24782900  0.34435800  1
  Ca  Ca6  1  0.26942500  0.75217100  0.15564200  1
  Ca  Ca7  1  0.23057500  0.75217100  0.65564200  1
  P  P0  1  0.90115000  0.83369200  0.49367700  1
  P  P1  1  0.59885000  0.83369200  0.99367700  1
  P  P2  1  0.09885000  0.16630800  0.50632300  1
  P  P3  1  0.40115000  0.16630800  0.00632300  1
  P  P4  1  0.88574800  0.56519900  0.77582700  1
  P  P5  1  0.61425200  0.56519900  0.27582700  1
  P  P6  1  0.11425200  0.43480100  0.22417300  1
  P  P7  1  0.38574800  0.43480100  0.72417300  1
  P  P8  1  0.72413400  0.18352100  0.63127800  1
  P  P9  1  0.77586600  0.18352100  0.13127800  1
  P  P10  1  0.27586600  0.81647900  0.36872200  1
  P  P11  1  0.22413400  0.81647900  0.86872200  1
  P  P12  1  0.67604200  0.81443600  0.62911900  1
  P  P13  1  0.82395800  0.81443600  0.12911900  1
  P  P14  1  0.32395800  0.18556400  0.37088100  1
  P  P15  1  0.17604200  0.18556400  0.87088100  1
  H  H0  1  0.00314100  0.66746000  0.54553600  1
  H  H1  1  0.49685900  0.66746000  0.04553600  1
  H  H2  1  0.99685900  0.33254000  0.45446400  1
  H  H3  1  0.50314100  0.33254000  0.95446400  1
  H  H4  1  0.99634800  0.56545700  0.82088600  1
  H  H5  1  0.50365200  0.56545700  0.32088600  1
  H  H6  1  0.00365200  0.43454300  0.17911400  1
  H  H7  1  0.49634800  0.43454300  0.67911400  1
  H  H8  1  0.57620300  0.82678500  0.53652700  1
  H  H9  1  0.92379700  0.82678500  0.03652700  1
  H  H10  1  0.42379700  0.17321500  0.46347300  1
  H  H11  1  0.07620300  0.17321500  0.96347300  1
  H  H12  1  0.59197400  0.35583700  0.62907400  1
  H  H13  1  0.90802600  0.35583700  0.12907400  1
  H  H14  1  0.40802600  0.64416300  0.37092600  1
  H  H15  1  0.09197400  0.64416300  0.87092600  1
  H  H16  1  0.56828100  0.19756400  0.76517500  1
  H  H17  1  0.93171900  0.19756400  0.26517500  1
  H  H18  1  0.43171900  0.80243600  0.23482500  1
  H  H19  1  0.06828100  0.80243600  0.73482500  1
  H  H20  1  0.54909500  0.60256700  0.78641700  1
  H  H21  1  0.95090500  0.60256700  0.28641700  1
  H  H22  1  0.45090500  0.39743300  0.21358300  1
  H  H23  1  0.04909500  0.39743300  0.71358300  1
  H  H24  1  0.57757800  0.59199700  0.90546500  1
  H  H25  1  0.92242200  0.59199700  0.40546500  1
  H  H26  1  0.42242200  0.40800300  0.09453500  1
  H  H27  1  0.07757800  0.40800300  0.59453500  1
  H  H28  1  0.00136400  0.88471000  0.89630400  1
  H  H29  1  0.49863600  0.88471000  0.39630400  1
  H  H30  1  0.99863600  0.11529000  0.10369600  1
  H  H31  1  0.50136400  0.11529000  0.60369600  1
  H  H32  1  0.92966600  0.79090200  0.89222300  1
  H  H33  1  0.57033400  0.79090200  0.39222300  1
  H  H34  1  0.07033400  0.20909800  0.10777700  1
  H  H35  1  0.42966600  0.20909800  0.60777700  1
  O  O0  1  0.86379400  0.66425600  0.48255100  1
  O  O1  1  0.63620600  0.66425600  0.98255100  1
  O  O2  1  0.13620600  0.33574400  0.51744900  1
  O  O3  1  0.36379400  0.33574400  0.01744900  1
  O  O4  1  0.98141700  0.81813000  0.48232400  1
  O  O5  1  0.51858300  0.81813000  0.98232400  1
  O  O6  1  0.01858300  0.18187000  0.51767600  1
  O  O7  1  0.48141700  0.18187000  0.01767600  1
  O  O8  1  0.87929900  0.06797500  0.40099900  1
  O  O9  1  0.62070100  0.06797500  0.90099900  1
  O  O10  1  0.12070100  0.93202500  0.59900100  1
  O  O11  1  0.37929900  0.93202500  0.09900100  1
  O  O12  1  0.88884900  0.78395600  0.63155000  1
  O  O13  1  0.61115100  0.78395600  0.13155000  1
  O  O14  1  0.11115100  0.21604400  0.36845000  1
  O  O15  1  0.38884900  0.21604400  0.86845000  1
  O  O16  1  0.84065100  0.39781700  0.77892600  1
  O  O17  1  0.65934900  0.39781700  0.27892600  1
  O  O18  1  0.15934900  0.60218300  0.22107400  1
  O  O19  1  0.34065100  0.60218300  0.72107400  1
  O  O20  1  0.96132100  0.47195800  0.81054900  1
  O  O21  1  0.53867900  0.47195800  0.31054900  1
  O  O22  1  0.03867900  0.52804200  0.18945100  1
  O  O23  1  0.46132100  0.52804200  0.68945100  1
  O  O24  1  0.86507000  0.65558400  0.85150500  1
  O  O25  1  0.63493000  0.65558400  0.35150500  1
  O  O26  1  0.13493000  0.34441600  0.14849500  1
  O  O27  1  0.36507000  0.34441600  0.64849500  1
  O  O28  1  0.76089900  0.03796400  0.75730900  1
  O  O29  1  0.73910100  0.03796400  0.25730900  1
  O  O30  1  0.23910100  0.96203600  0.24269100  1
  O  O31  1  0.26089900  0.96203600  0.74269100  1
  O  O32  1  0.68794000  0.37188800  0.62604100  1
  O  O33  1  0.81206000  0.37188800  0.12604100  1
  O  O34  1  0.31206000  0.62811200  0.37395900  1
  O  O35  1  0.18794000  0.62811200  0.87395900  1
  O  O36  1  0.77132400  0.27517100  0.51699600  1
  O  O37  1  0.72867600  0.27517100  0.01699600  1
  O  O38  1  0.22867600  0.72482900  0.48300400  1
  O  O39  1  0.27132400  0.72482900  0.98300400  1
  O  O40  1  0.66502900  0.03679500  0.62409300  1
  O  O41  1  0.83497100  0.03679500  0.12409300  1
  O  O42  1  0.33497100  0.96320500  0.37590700  1
  O  O43  1  0.16502900  0.96320500  0.87590700  1
  O  O44  1  0.70509700  0.63862500  0.75633400  1
  O  O45  1  0.79490300  0.63862500  0.25633400  1
  O  O46  1  0.29490300  0.36137500  0.24366600  1
  O  O47  1  0.20509700  0.36137500  0.74366600  1
  O  O48  1  0.59817600  0.75673600  0.62351100  1
  O  O49  1  0.90182400  0.75673600  0.12351100  1
  O  O50  1  0.40182400  0.24326400  0.37648900  1
  O  O51  1  0.09817600  0.24326400  0.87648900  1
  O  O52  1  0.71692500  0.87223400  0.51443200  1
  O  O53  1  0.78307500  0.87223400  0.01443200  1
  O  O54  1  0.28307500  0.12776600  0.48556800  1
  O  O55  1  0.21692500  0.12776600  0.98556800  1
  O  O56  1  0.54956700  0.28437000  0.67800000  1
  O  O57  1  0.95043300  0.28437000  0.17800000  1
  O  O58  1  0.45043300  0.71563000  0.32200000  1
  O  O59  1  0.04956700  0.71563000  0.82200000  1
  O  O60  1  0.53807000  0.55296700  0.87305000  1
  O  O61  1  0.96193000  0.55296700  0.37305000  1
  O  O62  1  0.46193000  0.44703300  0.12695000  1
  O  O63  1  0.03807000  0.44703300  0.62695000  1
  O  O64  1  0.95147200  0.89956900  0.90348700  1
  O  O65  1  0.54852800  0.89956900  0.40348700  1
  O  O66  1  0.04852800  0.10043100  0.09651300  1
  O  O67  1  0.45147200  0.10043100  0.59651300  1
loop_
_geom_bond_atom_site_label_1
_geom_bond_atom_site_label_2
_geom_bond_distance
_geom_bond_site_symmetry_2
K0 O64 2.841881 1_545
K0 O28 2.890397 1_555
K0 O36 2.911263 1_555
K0 O16 2.940301 1_555
K0 O0 2.978627 1_555
K0 O6 3.002509 1_655
K0 O63 3.210400 1_655
K0 O12 3.258656 1_545
K1 O65 2.841881 1_545
K1 O29 2.890397 1_555
K1 O37 2.911263 1_555
K1 O17 2.940301 1_555
K1 O1 2.978627 1_554
K1 O7 3.002509 1_555
K1 O62 3.210400 1_555
K1 O13 3.258656 1_545
K2 O66 2.841881 1_565
K2 O30 2.890397 1_555
K2 O38 2.911263 1_555
K2 O18 2.940301 1_555
K2 O2 2.978627 1_555
K2 O4 3.002509 1_455
K2 O61 3.210400 1_455
K2 O14 3.258656 1_565
K3 O67 2.841881 1_565
K3 O31 2.890397 1_555
K3 O39 2.911263 1_555
K3 O19 2.940301 1_555
K3 O3 2.978627 1_556
K3 O5 3.002509 1_555
K3 O60 3.210400 1_555
K3 O15 3.258656 1_565
Ca0 O28 2.353649 1_565
Ca0 O24 2.360152 1_555
Ca0 O1 2.421894 1_555
Ca0 O53 2.442158 1_556
Ca0 O44 2.498316 1_555
Ca0 O37 2.504412 1_556
Ca0 O33 2.525782 1_556
Ca1 O29 2.353649 1_565
Ca1 O25 2.360152 1_555
Ca1 O0 2.421894 1_555
Ca1 O52 2.442158 1_555
Ca1 O45 2.498316 1_555
Ca1 O36 2.504412 1_555
Ca1 O32 2.525782 1_555
Ca2 O30 2.353649 1_545
Ca2 O26 2.360152 1_555
Ca2 O3 2.421894 1_555
Ca2 O55 2.442158 1_554
Ca2 O46 2.498316 1_555
Ca2 O39 2.504412 1_554
Ca2 O35 2.525782 1_554
Ca3 O31 2.353649 1_545
Ca3 O27 2.360152 1_555
Ca3 O2 2.421894 1_555
Ca3 O54 2.442158 1_555
Ca3 O47 2.498316 1_555
Ca3 O38 2.504412 1_555
Ca3 O34 2.525782 1_555
Ca4 O16 2.338153 1_555
Ca4 O37 2.352727 1_556
Ca4 O9 2.403238 1_555
Ca4 O28 2.456989 1_555
Ca4 O44 2.500458 1_555
Ca4 O32 2.560570 1_555
Ca4 O53 2.595390 1_546
Ca5 O17 2.338153 1_555
Ca5 O36 2.352727 1_555
Ca5 O8 2.403238 1_555
Ca5 O29 2.456989 1_555
Ca5 O45 2.500458 1_555
Ca5 O33 2.560570 1_555
Ca5 O52 2.595390 1_545
Ca6 O18 2.338153 1_555
Ca6 O39 2.352727 1_554
Ca6 O11 2.403238 1_555
Ca6 O30 2.456989 1_555
Ca6 O46 2.500458 1_555
Ca6 O34 2.560570 1_555
Ca6 O55 2.595390 1_564
Ca7 O19 2.338153 1_555
Ca7 O38 2.352727 1_555
Ca7 O10 2.403238 1_555
Ca7 O31 2.456989 1_555
Ca7 O47 2.500458 1_555
Ca7 O35 2.560570 1_555
Ca7 O54 2.595390 1_565
H0 O4 1.032822 1_455
H0 O63 1.518572 1_555
H0 K2 2.941752 1_555
H1 O5 1.032822 1_554
H1 O62 1.518572 1_555
H1 K3 2.941752 1_554
H2 O6 1.032822 1_655
H2 O61 1.518572 1_555
H2 K0 2.941752 1_555
H3 O7 1.032822 1_556
H3 O60 1.518572 1_555
H3 K1 2.941752 1_556
H4 O20 1.034341 1_555
H4 O59 1.528269 1_655
H5 O21 1.034341 1_555
H5 O58 1.528269 1_555
H6 O22 1.034341 1_555
H6 O57 1.528269 1_455
H7 O23 1.034341 1_555
H7 O56 1.528269 1_555
H8 O48 1.027376 1_555
H8 O65 1.576928 1_555
H9 O49 1.027376 1_555
H9 O64 1.576928 1_554
H10 O50 1.027376 1_555
H10 O67 1.576928 1_555
H11 O51 1.027376 1_555
H11 O66 1.576928 1_556
H12 O56 0.990593 1_555
H13 O57 0.990593 1_555
H14 O58 0.990593 1_555
H15 O59 0.990593 1_555
H16 O56 0.998106 1_555
H17 O57 0.998106 1_555
H18 O58 0.998106 1_555
H19 O59 0.998106 1_555
H20 O60 0.984284 1_555
H21 O61 0.984284 1_555
H22 O62 0.984284 1_555
H23 O63 0.984284 1_555
H24 O60 0.993260 1_555
H24 K1 2.959366 1_556
H25 O61 0.993260 1_555
H25 K0 2.959366 1_555
H26 O62 0.993260 1_555
H26 K3 2.959366 1_554
H27 O63 0.993260 1_555
H27 K2 2.959366 1_555
H28 O64 0.985905 1_455
H29 O65 0.985905 1_555
H30 O66 0.985905 1_655
H31 O67 0.985905 1_555
H32 O64 0.993632 1_555
H32 K0 2.872682 1_565
H33 O65 0.993632 1_555
H33 K1 2.872682 1_565
H34 O66 0.993632 1_555
H34 K2 2.872682 1_545
H35 O67 0.993632 1_555
H35 K3 2.872682 1_545
O0 P0 1.530117 1_555
O1 P1 1.530117 1_555
O2 P2 1.530117 1_555
O3 P3 1.530117 1_555
O4 P0 1.576708 1_555
O5 P1 1.576708 1_555
O6 P2 1.576708 1_555
O7 P3 1.576708 1_555
O8 P0 1.514123 1_545
O9 P1 1.514123 1_545
O10 P2 1.514123 1_565
O11 P3 1.514123 1_565
O12 P0 1.620003 1_555
O12 P4 1.642773 1_555
O13 P1 1.620003 1_554
O13 P5 1.642773 1_555
O14 P2 1.620003 1_555
O14 P6 1.642773 1_555
O15 P3 1.620003 1_556
O15 P7 1.642773 1_555
O16 P4 1.504484 1_555
O17 P5 1.504484 1_555
O18 P6 1.504484 1_555
O19 P7 1.504484 1_555
O20 P4 1.576826 1_555
O21 P5 1.576826 1_555
O22 P6 1.576826 1_555
O23 P7 1.576826 1_555
O24 P4 1.521193 1_555
O25 P5 1.521193 1_555
O26 P6 1.521193 1_555
O27 P7 1.521193 1_555
O28 P8 1.530422 1_555
O29 P9 1.530422 1_555
O30 P10 1.530422 1_555
O31 P11 1.530422 1_555
O32 P8 1.534796 1_555
O33 P9 1.534796 1_555
O34 P10 1.534796 1_555
O35 P11 1.534796 1_555
O36 P8 1.532577 1_555
O37 P9 1.532577 1_555
O38 P10 1.532577 1_555
O39 P11 1.532577 1_555
O40 P8 1.622762 1_555
O40 P12 1.632484 1_545
O41 P9 1.622762 1_555
O41 P13 1.632484 1_545
O42 P10 1.622762 1_555
O42 P14 1.632484 1_565
O43 P11 1.622762 1_555
O43 P15 1.632484 1_565
O44 P12 1.517132 1_555
O45 P13 1.517132 1_555
O46 P14 1.517132 1_555
O47 P15 1.517132 1_555
O48 P12 1.585323 1_555
O49 P13 1.585323 1_555
O50 P14 1.585323 1_555
O51 P15 1.585323 1_555
O52 P12 1.514153 1_555
O53 P13 1.514153 1_555
O54 P14 1.514153 1_555
O55 P15 1.514153 1_555
