# generated using pymatgen
data_Lu(HO)3
_symmetry_space_group_name_H-M   'P 1'
_cell_length_a   10.11121600
_cell_length_b   5.29683400
_cell_length_c   6.16735666
_cell_angle_alpha   84.31539839
_cell_angle_beta   90.00000000
_cell_angle_gamma   90.00000000
_symmetry_Int_Tables_number   1
_chemical_formula_structural   Lu(HO)3
_chemical_formula_sum   'Lu4 H12 O12'
_cell_volume   328.68341047
_cell_formula_units_Z   4
loop_
 _symmetry_equiv_pos_site_id
 _symmetry_equiv_pos_as_xyz
  1  'x, y, z'
loop_
 _atom_site_type_symbol
 _atom_site_label
 _atom_site_symmetry_multiplicity
 _atom_site_fract_x
 _atom_site_fract_y
 _atom_site_fract_z
 _atom_site_occupancy
  Lu  Lu0  1  0.67026700  0.99068000  0.96217500  1
  Lu  Lu1  1  0.17026700  0.00932000  0.53782500  1
  Lu  Lu2  1  0.82973300  0.99068000  0.46217500  1
  Lu  Lu3  1  0.32973300  0.00932000  0.03782500  1
  H  H0  1  0.19339600  0.40969000  0.81018700  1
  H  H1  1  0.97392600  0.75984600  0.80512900  1
  H  H2  1  0.38745000  0.68965000  0.72677800  1
  H  H3  1  0.88745000  0.31035000  0.77322200  1
  H  H4  1  0.47392600  0.24015400  0.69487100  1
  H  H5  1  0.69339600  0.59031000  0.68981300  1
  H  H6  1  0.30660400  0.40969000  0.31018700  1
  H  H7  1  0.52607400  0.75984600  0.30512900  1
  H  H8  1  0.11255000  0.68965000  0.22677800  1
  H  H9  1  0.61255000  0.31035000  0.27322200  1
  H  H10  1  0.02607400  0.24015400  0.19487100  1
  H  H11  1  0.80660400  0.59031000  0.18981300  1
  O  O0  1  0.49375400  0.20877800  0.84969700  1
  O  O1  1  0.18109700  0.22558100  0.82784600  1
  O  O2  1  0.80574700  0.22301400  0.74441200  1
  O  O3  1  0.30574700  0.77698600  0.75558800  1
  O  O4  1  0.68109700  0.77441900  0.67215400  1
  O  O5  1  0.99375400  0.79122200  0.65030300  1
  O  O6  1  0.00624600  0.20877800  0.34969700  1
  O  O7  1  0.31890300  0.22558100  0.32784600  1
  O  O8  1  0.69425300  0.22301400  0.24441200  1
  O  O9  1  0.19425300  0.77698600  0.25558800  1
  O  O10  1  0.81890300  0.77441900  0.17215400  1
  O  O11  1  0.50624600  0.79122200  0.15030300  1
loop_
_geom_bond_atom_site_label_1
_geom_bond_atom_site_label_2
_geom_bond_distance
_geom_bond_site_symmetry_2
Lu0 O0 2.200541 1_565
Lu0 O2 2.206193 1_565
Lu0 O4 2.220219 1_555
Lu0 O10 2.225766 1_556
Lu0 O11 2.229348 1_556
Lu0 O8 2.242215 1_566
Lu1 O5 2.200541 1_445
Lu1 O3 2.206193 1_545
Lu1 O1 2.220219 1_555
Lu1 O7 2.225766 1_555
Lu1 O6 2.229348 1_555
Lu1 O9 2.242215 1_545
Lu2 O6 2.200541 1_665
Lu2 O8 2.206193 1_565
Lu2 O10 2.220219 1_555
Lu2 O4 2.225766 1_555
Lu2 O5 2.229348 1_555
Lu2 O2 2.242215 1_565
Lu3 O11 2.200541 1_545
Lu3 O9 2.206193 1_545
Lu3 O7 2.220219 1_555
Lu3 O1 2.225766 1_554
Lu3 O0 2.229348 1_554
Lu3 O3 2.242215 1_544
H0 O1 0.978412 1_555
H1 O5 0.973729 1_555
H2 O3 0.971764 1_555
H3 O2 0.971764 1_555
H4 O0 0.973729 1_555
H5 O4 0.978412 1_555
H6 O7 0.978412 1_555
H7 O11 0.973729 1_555
H8 O9 0.971764 1_555
H9 O8 0.971764 1_555
H10 O6 0.973729 1_555
H11 O10 0.978412 1_555
