# generated using pymatgen
data_La4Al6O15
_symmetry_space_group_name_H-M   'P 1'
_cell_length_a   6.96862345
_cell_length_b   6.96862345
_cell_length_c   21.22022894
_cell_angle_alpha   86.58393268
_cell_angle_beta   86.58393268
_cell_angle_gamma   42.53419141
_symmetry_Int_Tables_number   1
_chemical_formula_structural   La4Al6O15
_chemical_formula_sum   'La8 Al12 O30'
_cell_volume   695.21712563
_cell_formula_units_Z   2
loop_
 _symmetry_equiv_pos_site_id
 _symmetry_equiv_pos_as_xyz
  1  'x, y, z'
loop_
 _atom_site_type_symbol
 _atom_site_label
 _atom_site_symmetry_multiplicity
 _atom_site_fract_x
 _atom_site_fract_y
 _atom_site_fract_z
 _atom_site_occupancy
  La  La0  1  0.66372400  0.05725200  0.04961600  1
  La  La1  1  0.64249800  0.06211400  0.85266400  1
  La  La2  1  0.04009800  0.67483600  0.54893100  1
  La  La3  1  0.06256500  0.64379600  0.35197200  1
  La  La4  1  0.93788600  0.35750200  0.14733600  1
  La  La5  1  0.94274800  0.33627600  0.95038400  1
  La  La6  1  0.35620400  0.93743500  0.64802800  1
  La  La7  1  0.31789200  0.94998700  0.45121700  1
  Al  Al0  1  0.20517400  0.62133000  0.16454400  1
  Al  Al1  1  0.18539000  0.65085300  0.94519200  1
  Al  Al2  1  0.64858900  0.02030600  0.22509200  1
  Al  Al3  1  0.61224900  0.20997800  0.66485300  1
  Al  Al4  1  0.64065700  0.19399400  0.44489300  1
  Al  Al5  1  0.01314100  0.65337100  0.72451100  1
  Al  Al6  1  0.97969400  0.35141100  0.77490800  1
  Al  Al7  1  0.34914700  0.81461000  0.05480800  1
  Al  Al8  1  0.37867000  0.79482600  0.83545600  1
  Al  Al9  1  0.34662900  0.98685900  0.27548900  1
  Al  Al10  1  0.79817800  0.35161700  0.55529800  1
  Al  Al11  1  0.79002200  0.38775100  0.33514700  1
  O  O0  1  0.12557000  0.80860300  0.87004700  1
  O  O1  1  0.56147500  0.27895400  0.17165600  1
  O  O2  1  0.53470800  0.30744900  0.94792600  1
  O  O3  1  0.01867200  0.73837900  0.23817600  1
  O  O4  1  0.79979000  0.13230200  0.36971700  1
  O  O5  1  0.27150500  0.56745900  0.67131500  1
  O  O6  1  0.02260400  0.61223900  0.11190600  1
  O  O7  1  0.29902600  0.54611200  0.44755100  1
  O  O8  1  0.73089900  0.02349800  0.73840300  1
  O  O9  1  0.90842000  0.68698800  0.95789800  1
  O  O10  1  0.08922100  0.49147100  0.80246700  1
  O  O11  1  0.50852900  0.91077900  0.19753300  1
  O  O12  1  0.60614400  0.02233400  0.61317400  1
  O  O13  1  0.67542200  0.91801700  0.45913000  1
  O  O14  1  0.31301200  0.09158000  0.04210200  1
  O  O15  1  0.38776100  0.97739600  0.88809400  1
  O  O16  1  0.48451000  0.09667900  0.30279500  1
  O  O17  1  0.90332100  0.51549000  0.69720500  1
  O  O18  1  0.07519300  0.31515300  0.54140000  1
  O  O19  1  0.26162100  0.98132800  0.76182400  1
  O  O20  1  0.69255100  0.46529200  0.05207400  1
  O  O21  1  0.96595100  0.39013800  0.38800200  1
  O  O22  1  0.72104600  0.43852500  0.82834400  1
  O  O23  1  0.19139700  0.87443000  0.12995300  1
  O  O24  1  0.11759700  0.88240300  0.00000000  1
  O  O25  1  0.97650200  0.26910100  0.26159700  1
  O  O26  1  0.45388800  0.70097400  0.55244900  1
  O  O27  1  0.43254100  0.72849500  0.32868500  1
  O  O28  1  0.86769800  0.20021000  0.63028300  1
  O  O29  1  0.86695300  0.12436200  0.50024700  1
loop_
_geom_bond_atom_site_label_1
_geom_bond_atom_site_label_2
_geom_bond_distance
_geom_bond_site_symmetry_2
La0 O14 2.288222 1_555
La0 O2 2.444862 1_554
La0 O6 2.468665 1_645
La0 O24 2.583287 1_645
La0 O9 2.659331 1_544
La0 O1 2.869805 1_555
La0 O20 2.998196 1_555
La1 O15 2.323262 1_545
La1 O0 2.427995 1_645
La1 O2 2.431425 1_555
La1 O8 2.446683 1_555
La1 O9 2.812931 1_545
La1 O10 2.839158 1_555
La1 O10 2.916268 1_645
La1 O22 3.060626 1_555
La2 O18 2.346816 1_555
La2 O12 2.444853 1_465
La2 O7 2.463848 1_555
La2 O29 2.555129 1_465
La2 O13 2.608971 1_455
La2 O5 2.897248 1_555
La2 O26 3.025709 1_555
La3 O21 2.386194 1_455
La3 O7 2.423413 1_555
La3 O3 2.441387 1_555
La3 O4 2.442812 1_465
La3 O16 2.803204 1_555
La3 O13 2.879192 1_455
La3 O16 2.940849 1_465
La3 O27 3.048918 1_555
La4 O6 2.323262 1_655
La4 O23 2.427995 1_645
La4 O20 2.431425 1_555
La4 O25 2.446683 1_555
La4 O14 2.812931 1_655
La4 O11 2.839158 1_555
La4 O11 2.916268 1_645
La4 O1 3.060626 1_555
La5 O9 2.288222 1_555
La5 O20 2.444862 1_556
La5 O15 2.468665 1_645
La5 O24 2.583287 1_646
La5 O14 2.659331 1_656
La5 O22 2.869805 1_555
La5 O2 2.998196 1_555
La6 O12 2.289907 1_565
La6 O26 2.423413 1_555
La6 O19 2.441387 1_555
La6 O28 2.442812 1_465
La6 O17 2.803204 1_555
La6 O18 2.846871 1_565
La6 O17 2.940849 1_465
La6 O5 3.048918 1_555
La7 O13 2.347919 1_555
La7 O26 2.428725 1_555
La7 O21 2.457194 1_465
La7 O29 2.562695 1_465
La7 O18 2.617273 1_565
La7 O27 2.862663 1_555
La7 O7 2.918408 1_555
Al0 O3 1.772956 1_555
Al0 O1 1.775232 1_555
Al0 O6 1.779580 1_555
Al0 O23 1.806493 1_555
Al1 O2 1.752409 1_555
Al1 O9 1.758179 1_455
Al1 O0 1.766331 1_555
Al1 O24 1.792828 1_556
Al2 O11 1.759622 1_545
Al2 O1 1.768883 1_555
Al2 O3 1.772343 1_645
Al2 O16 1.814521 1_555
Al3 O8 1.771125 1_555
Al3 O5 1.774046 1_555
Al3 O12 1.781218 1_555
Al3 O28 1.839397 1_555
Al4 O7 1.755910 1_555
Al4 O13 1.761085 1_545
Al4 O29 1.768372 1_555
Al4 O4 1.768532 1_555
Al5 O17 1.745715 1_455
Al5 O5 1.767499 1_555
Al5 O8 1.775720 1_465
Al5 O10 1.814129 1_555
Al6 O10 1.759622 1_655
Al6 O22 1.768883 1_555
Al6 O19 1.772343 1_645
Al6 O17 1.814521 1_555
Al7 O20 1.752409 1_555
Al7 O14 1.758179 1_565
Al7 O23 1.766331 1_555
Al7 O24 1.792828 1_555
Al8 O19 1.772956 1_555
Al8 O22 1.775232 1_555
Al8 O15 1.779580 1_555
Al8 O0 1.806493 1_555
Al9 O16 1.745715 1_565
Al9 O27 1.767499 1_555
Al9 O25 1.775720 1_465
Al9 O11 1.814129 1_555
Al10 O28 1.737334 1_555
Al10 O26 1.754562 1_555
Al10 O18 1.759606 1_655
Al10 O29 1.771305 1_555
Al11 O21 1.719719 1_555
Al11 O25 1.771125 1_555
Al11 O27 1.774046 1_555
Al11 O4 1.839397 1_555
