# generated using pymatgen
data_Li4CrCu3O8
_symmetry_space_group_name_H-M   'P 1'
_cell_length_a   10.14217904
_cell_length_b   10.14144136
_cell_length_c   14.33816371
_cell_angle_alpha   19.50460015
_cell_angle_beta   19.50353647
_cell_angle_gamma   33.61800238
_symmetry_Int_Tables_number   1
_chemical_formula_structural   Li4CrCu3O8
_chemical_formula_sum   'Li4 Cr1 Cu3 O8'
_cell_volume   142.33199108
_cell_formula_units_Z   1
loop_
 _symmetry_equiv_pos_site_id
 _symmetry_equiv_pos_as_xyz
  1  'x, y, z'
loop_
 _atom_site_type_symbol
 _atom_site_label
 _atom_site_symmetry_multiplicity
 _atom_site_fract_x
 _atom_site_fract_y
 _atom_site_fract_z
 _atom_site_occupancy
  Li  Li0  1  0.99999800  0.00000000  0.50000200  1
  Li  Li1  1  0.99999800  0.50000000  0.50000000  1
  Li  Li2  1  0.49999800  0.99999800  0.50000200  1
  Li  Li3  1  0.49999900  0.49999700  0.50000200  1
  Cr  Cr0  1  0.00002400  0.00002200  0.99997200  1
  Cu  Cu0  1  0.99999900  0.50000400  0.99999700  1
  Cu  Cu1  1  0.50000100  0.99999200  0.00000400  1
  Cu  Cu2  1  0.49999300  0.49999600  0.00000800  1
  O  O0  1  0.99980200  0.99968300  0.25856200  1
  O  O1  1  0.99997900  0.50698200  0.25229000  1
  O  O2  1  0.50700500  0.99992000  0.25233200  1
  O  O3  1  0.00019400  0.00031300  0.74144200  1
  O  O4  1  0.49360000  0.49355500  0.26553600  1
  O  O5  1  0.00001900  0.49301300  0.74771500  1
  O  O6  1  0.49299300  0.00008100  0.74766900  1
  O  O7  1  0.50639800  0.50644100  0.73446800  1
loop_
_geom_bond_atom_site_label_1
_geom_bond_atom_site_label_2
_geom_bond_distance
_geom_bond_site_symmetry_2
Li0 O4 2.147518 1_546
Li0 O7 2.147527 1_654
Li0 O1 2.150104 1_555
Li0 O5 2.150129 1_645
Li0 O2 2.150669 1_645
Li0 O6 2.150674 1_555
Li1 O6 2.120810 1_664
Li1 O2 2.120832 1_546
Li1 O7 2.123407 1_555
Li1 O4 2.123442 1_655
Li1 O3 2.141946 1_655
Li1 O0 2.141947 1_555
Li2 O5 2.120600 1_664
Li2 O1 2.120613 1_456
Li2 O7 2.122984 1_555
Li2 O4 2.122993 1_565
Li2 O3 2.142684 1_565
Li2 O0 2.142684 1_555
Li3 O6 2.121864 1_555
Li3 O2 2.121898 1_555
Li3 O5 2.122163 1_555
Li3 O1 2.122176 1_555
Li3 O0 2.141810 1_446
Li3 O3 2.141810 1_664
Cr0 O6 1.996763 1_555
Cr0 O4 1.996800 1_555
Cr0 O5 1.996824 1_555
Cr0 O2 1.996883 1_446
Cr0 O7 1.996897 1_446
Cr0 O1 1.996931 1_446
Cu0 O3 2.007347 1_665
Cu0 O0 2.007373 1_546
Cu0 O2 2.025188 1_655
Cu0 O6 2.025215 1_556
Cu0 O4 2.025741 1_556
Cu0 O7 2.025774 1_655
Cu1 O3 2.007066 1_664
Cu1 O0 2.007100 1_455
Cu1 O1 2.025395 1_564
Cu1 O5 2.025397 1_555
Cu1 O4 2.025685 1_555
Cu1 O7 2.025735 1_564
Cu2 O3 2.004663 1_555
Cu2 O0 2.004704 1_554
Cu2 O2 2.026885 1_545
Cu2 O6 2.026886 1_564
Cu2 O1 2.027047 1_455
Cu2 O5 2.027069 1_654
