# generated using pymatgen
data_Na2LiFePCO7
_symmetry_space_group_name_H-M   'P 1'
_cell_length_a   6.66255600
_cell_length_b   8.85570576
_cell_length_c   10.31479924
_cell_angle_alpha   88.36064878
_cell_angle_beta   89.54361416
_cell_angle_gamma   89.40484002
_symmetry_Int_Tables_number   1
_chemical_formula_structural   Na2LiFePCO7
_chemical_formula_sum   'Na8 Li4 Fe4 P4 C4 O28'
_cell_volume   608.29021026
_cell_formula_units_Z   4
loop_
 _symmetry_equiv_pos_site_id
 _symmetry_equiv_pos_as_xyz
  1  'x, y, z'
loop_
 _atom_site_type_symbol
 _atom_site_label
 _atom_site_symmetry_multiplicity
 _atom_site_fract_x
 _atom_site_fract_y
 _atom_site_fract_z
 _atom_site_occupancy
  Na  Na0  1  0.75672700  0.91827400  0.11902800  1
  Na  Na1  1  0.75437700  0.91839500  0.61996300  1
  Na  Na2  1  0.00045100  0.73951200  0.37447600  1
  Na  Na3  1  0.49995600  0.73994600  0.37536000  1
  Na  Na4  1  0.49919800  0.74045200  0.87355000  1
  Na  Na5  1  0.49669200  0.25862500  0.12445900  1
  Na  Na6  1  0.49712500  0.26166500  0.62232100  1
  Na  Na7  1  0.00388000  0.26060300  0.62607000  1
  Li  Li0  1  0.98398100  0.72442900  0.88151500  1
  Li  Li1  1  0.01458500  0.27117000  0.12348800  1
  Li  Li2  1  0.24136100  0.09307400  0.37350700  1
  Li  Li3  1  0.23601200  0.08910200  0.87510900  1
  Fe  Fe0  1  0.24962000  0.64923200  0.10708100  1
  Fe  Fe1  1  0.24742700  0.64808900  0.60984500  1
  Fe  Fe2  1  0.75249100  0.35164600  0.38794200  1
  Fe  Fe3  1  0.75240100  0.34887600  0.89117800  1
  P  P0  1  0.75593000  0.58302700  0.14588100  1
  P  P1  1  0.75353500  0.58831800  0.64914900  1
  P  P2  1  0.24724100  0.40463400  0.34946300  1
  P  P3  1  0.24499200  0.41099800  0.85418300  1
  C  C0  1  0.24089600  0.95404300  0.13522100  1
  C  C1  1  0.24745800  0.94671300  0.64021400  1
  C  C2  1  0.75362900  0.06025900  0.36190000  1
  C  C3  1  0.75960600  0.05263200  0.86630700  1
  O  O0  1  0.74672000  0.91522900  0.35377000  1
  O  O1  1  0.77364700  0.90688900  0.86041100  1
  O  O2  1  0.25081800  0.91120700  0.01544900  1
  O  O3  1  0.24846100  0.90731100  0.51866900  1
  O  O4  1  0.24706300  0.85160700  0.22924700  1
  O  O5  1  0.24009700  0.84315000  0.73228600  1
  O  O6  1  0.93519700  0.68448300  0.10049400  1
  O  O7  1  0.56194400  0.67084800  0.10363700  1
  O  O8  1  0.93607500  0.68413700  0.60193300  1
  O  O9  1  0.56225100  0.68344700  0.61279100  1
  O  O10  1  0.75387300  0.56565700  0.29717200  1
  O  O11  1  0.25242600  0.55942100  0.41564000  1
  O  O12  1  0.76400000  0.56779800  0.80028000  1
  O  O13  1  0.22842700  0.56875400  0.91529300  1
  O  O14  1  0.77055900  0.42456800  0.08708200  1
  O  O15  1  0.23236000  0.42984000  0.19913300  1
  O  O16  1  0.75018700  0.43263500  0.58554900  1
  O  O17  1  0.24244200  0.43373400  0.70378000  1
  O  O18  1  0.43730400  0.30702500  0.38202200  1
  O  O19  1  0.06901900  0.30484600  0.39788600  1
  O  O20  1  0.43924600  0.32274800  0.89397700  1
  O  O21  1  0.07032200  0.30399200  0.89916500  1
  O  O22  1  0.76260800  0.14681500  0.25840400  1
  O  O23  1  0.75494500  0.13719300  0.76068900  1
  O  O24  1  0.75162400  0.12258100  0.47539500  1
  O  O25  1  0.74953600  0.11851900  0.97725700  1
  O  O26  1  0.22549900  0.09495900  0.16410200  1
  O  O27  1  0.25377600  0.08689200  0.67127900  1
loop_
_geom_bond_atom_site_label_1
_geom_bond_atom_site_label_2
_geom_bond_distance
_geom_bond_site_symmetry_2
Na0 O25 2.266350 1_564
Na0 O6 2.388472 1_555
Na0 O0 2.421090 1_555
Na0 O22 2.516643 1_565
Na0 O7 2.567622 1_555
Na0 O1 2.673805 1_554
Na1 O24 2.310645 1_565
Na1 O8 2.402087 1_555
Na1 O23 2.454087 1_565
Na1 O9 2.457370 1_555
Na1 O1 2.483639 1_555
Na1 O0 2.747558 1_555
Na2 O0 2.292798 1_455
Na2 O11 2.336477 1_555
Na2 O4 2.416340 1_555
Na2 O10 2.418425 1_455
Na2 O8 2.418983 1_455
Na2 O3 2.714265 1_555
Na2 O6 2.918208 1_455
Na3 O0 2.278045 1_555
Na3 O11 2.335390 1_555
Na3 O10 2.426909 1_555
Na3 O4 2.451272 1_555
Na3 O9 2.522346 1_555
Na3 O3 2.687703 1_555
Na3 O7 2.911177 1_555
Na4 O1 2.361131 1_555
Na4 O13 2.399791 1_555
Na4 O5 2.421147 1_555
Na4 O12 2.451608 1_555
Na4 O7 2.472653 1_556
Na4 O2 2.683932 1_556
Na4 O9 2.778662 1_555
Na5 O26 2.353995 1_555
Na5 O14 2.376897 1_555
Na5 O22 2.439754 1_555
Na5 O15 2.446127 1_555
Na5 O20 2.460406 1_554
Na5 O25 2.589652 1_554
Na5 O18 2.728235 1_555
Na6 O27 2.296427 1_555
Na6 O16 2.299774 1_555
Na6 O17 2.429821 1_555
Na6 O23 2.472324 1_555
Na6 O18 2.533632 1_555
Na6 O24 2.590640 1_555
Na6 O20 2.891042 1_555
Na7 O16 2.296495 1_455
Na7 O27 2.296538 1_555
Na7 O17 2.379229 1_555
Na7 O23 2.405705 1_455
Na7 O19 2.411665 1_555
Na7 O24 2.631936 1_455
Na7 O21 2.892052 1_555
Li0 O1 2.135356 1_555
Li0 O13 2.146935 1_655
Li0 O12 2.214156 1_555
Li0 O6 2.297301 1_556
Li0 O5 2.507845 1_655
Li1 O26 2.124066 1_555
Li1 O14 2.136445 1_455
Li1 O15 2.193526 1_555
Li1 O21 2.350818 1_554
Li1 O22 2.425140 1_455
Li2 O26 2.162974 1_555
Li2 O3 2.192944 1_545
Li2 O19 2.208262 1_555
Li2 O18 2.316154 1_555
Li3 O27 2.105491 1_555
Li3 O2 2.110834 1_546
Li3 O21 2.209216 1_555
Li3 O20 2.497592 1_555
Fe0 O7 2.091569 1_555
Fe0 O6 2.116123 1_455
Fe0 O13 2.128042 1_554
Fe0 O15 2.141698 1_555
Fe0 O4 2.219980 1_555
Fe0 O2 2.480016 1_555
Fe1 O8 2.097416 1_455
Fe1 O17 2.106865 1_555
Fe1 O9 2.124574 1_555
Fe1 O5 2.168744 1_555
Fe1 O11 2.172285 1_555
Fe1 O3 2.455803 1_555
Fe2 O10 2.089796 1_555
Fe2 O18 2.142505 1_555
Fe2 O19 2.147683 1_655
Fe2 O16 2.179936 1_555
Fe2 O24 2.196395 1_555
Fe2 O22 2.283611 1_555
Fe3 O20 2.101470 1_555
Fe3 O12 2.131104 1_555
Fe3 O14 2.151812 1_556
Fe3 O21 2.152864 1_655
Fe3 O25 2.201615 1_555
Fe3 O23 2.338673 1_555
C0 O26 1.294092 1_565
C0 O2 1.303663 1_555
C0 O4 1.309483 1_555
C1 O27 1.292107 1_565
C1 O5 1.302235 1_555
C1 O3 1.310893 1_555
C2 O0 1.290791 1_545
C2 O22 1.297645 1_555
C2 O24 1.308369 1_555
C3 O1 1.296201 1_545
C3 O25 1.300318 1_555
C3 O23 1.304595 1_555
O6 P0 1.562775 1_555
O7 P0 1.560070 1_555
O8 P1 1.557138 1_555
O9 P1 1.562617 1_555
O10 P0 1.563679 1_555
O11 P2 1.549511 1_555
O12 P1 1.566291 1_555
O13 P3 1.551548 1_555
O14 P0 1.546419 1_555
O15 P2 1.564057 1_555
O16 P1 1.544101 1_555
O17 P3 1.558870 1_555
O18 P2 1.559142 1_555
O19 P2 1.558023 1_555
O20 P3 1.556719 1_555
O21 P3 1.567390 1_555
