# generated using pymatgen
data_Li24Ti5Cr7O36
_symmetry_space_group_name_H-M   'P 1'
_cell_length_a   5.05810200
_cell_length_b   9.80127187
_cell_length_c   13.37242712
_cell_angle_alpha   80.64781394
_cell_angle_beta   79.34609191
_cell_angle_gamma   85.22286826
_symmetry_Int_Tables_number   1
_chemical_formula_structural   Li24Ti5Cr7O36
_chemical_formula_sum   'Li24 Ti5 Cr7 O36'
_cell_volume   641.89168743
_cell_formula_units_Z   1
loop_
 _symmetry_equiv_pos_site_id
 _symmetry_equiv_pos_as_xyz
  1  'x, y, z'
loop_
 _atom_site_type_symbol
 _atom_site_label
 _atom_site_symmetry_multiplicity
 _atom_site_fract_x
 _atom_site_fract_y
 _atom_site_fract_z
 _atom_site_occupancy
  Li  Li0  1  0.66067400  0.99982900  0.16826200  1
  Li  Li1  1  0.56585500  0.99964500  0.38670900  1
  Li  Li2  1  0.25075400  0.75076200  0.75044500  1
  Li  Li3  1  0.58404800  0.74990200  0.08259200  1
  Li  Li4  1  0.06214800  0.50003700  0.88640100  1
  Li  Li5  1  0.40345100  0.50024900  0.21972200  1
  Li  Li6  1  0.16205100  0.49873100  0.66658900  1
  Li  Li7  1  0.49720100  0.50094100  0.00071600  1
  Li  Li8  1  0.26970500  0.50040400  0.44625700  1
  Li  Li9  1  0.08556600  0.24996000  0.58405900  1
  Li  Li10  1  0.99228400  0.99880700  0.50088500  1
  Li  Li11  1  0.77092100  0.99828900  0.94529900  1
  Li  Li12  1  0.10484300  0.99902700  0.27933400  1
  Li  Li13  1  0.90091700  0.99949400  0.72094500  1
  Li  Li14  1  0.22970400  0.00067500  0.05392500  1
  Li  Li15  1  0.91929700  0.75015600  0.41751200  1
  Li  Li16  1  0.73532700  0.49995600  0.55409600  1
  Li  Li17  1  0.82550000  0.50105900  0.33460400  1
  Li  Li18  1  0.60558100  0.49994500  0.77939500  1
  Li  Li19  1  0.93608100  0.50057300  0.11360100  1
  Li  Li20  1  0.41858400  0.25059100  0.91560100  1
  Li  Li21  1  0.32992200  0.00045800  0.83385000  1
  Li  Li22  1  0.75092800  0.24921800  0.24958600  1
  Li  Li23  1  0.43600400  0.00030200  0.61197000  1
  Ti  Ti0  1  0.85435700  0.25317600  0.02959100  1
  Ti  Ti1  1  0.35883500  0.75123800  0.52717100  1
  Ti  Ti2  1  0.19724800  0.24627500  0.36051800  1
  Ti  Ti3  1  0.03143200  0.74637300  0.19284600  1
  Ti  Ti4  1  0.52689500  0.24965900  0.69331300  1
  Cr  Cr0  1  0.47575100  0.75047700  0.30599700  1
  Cr  Cr1  1  0.97400300  0.24947200  0.80698300  1
  Cr  Cr2  1  0.30207500  0.25048600  0.13772100  1
  Cr  Cr3  1  0.68664800  0.75194900  0.86378600  1
  Cr  Cr4  1  0.80638200  0.74800700  0.64144300  1
  Cr  Cr5  1  0.64329000  0.25106300  0.47231400  1
  Cr  Cr6  1  0.13546800  0.75133600  0.96923400  1
  O  O0  1  0.93064100  0.86325600  0.06875000  1
  O  O1  1  0.71789600  0.63341200  0.21334100  1
  O  O2  1  0.42624400  0.36452700  0.57175700  1
  O  O3  1  0.50271800  0.36214500  0.35809300  1
  O  O4  1  0.62226100  0.36744800  0.11852100  1
  O  O5  1  0.25800500  0.86456500  0.40530600  1
  O  O6  1  0.21875300  0.13302000  0.71399600  1
  O  O7  1  0.33646000  0.13761100  0.47744100  1
  O  O8  1  0.54009200  0.13552400  0.05028800  1
  O  O9  1  0.00471300  0.86190600  0.85823900  1
  O  O10  1  0.11160200  0.86461100  0.61971800  1
  O  O11  1  0.33673800  0.86178000  0.19061500  1
  O  O12  1  0.40660400  0.13778900  0.26032300  1
  O  O13  1  0.83071200  0.63746700  0.97256900  1
  O  O14  1  0.05193000  0.63271800  0.54793800  1
  O  O15  1  0.17067300  0.63765100  0.31066300  1
  O  O16  1  0.90480300  0.63978600  0.76053600  1
  O  O17  1  0.23883600  0.63752900  0.09352100  1
  O  O18  1  0.75753600  0.36437800  0.90507100  1
  O  O19  1  0.09816900  0.36238000  0.23527200  1
  O  O20  1  0.83630700  0.36163400  0.69112100  1
  O  O21  1  0.94574000  0.36451500  0.45194200  1
  O  O22  1  0.17253600  0.36236400  0.02454600  1
  O  O23  1  0.59596800  0.86235700  0.74074800  1
  O  O24  1  0.67144200  0.13779700  0.81130400  1
  O  O25  1  0.88294000  0.13439300  0.38091500  1
  O  O26  1  0.99678900  0.13571700  0.14330000  1
  O  O27  1  0.45656900  0.86540900  0.95030500  1
  O  O28  1  0.66886400  0.86141700  0.52517300  1
  O  O29  1  0.77690300  0.86414800  0.28563400  1
  O  O30  1  0.73944700  0.13750500  0.59268800  1
  O  O31  1  0.37408400  0.63678600  0.88417400  1
  O  O32  1  0.50407600  0.63733400  0.64485200  1
  O  O33  1  0.57380400  0.63797400  0.42552500  1
  O  O34  1  0.27696600  0.36475000  0.78625000  1
  O  O35  1  0.07245300  0.13787100  0.92629600  1
loop_
_geom_bond_atom_site_label_1
_geom_bond_atom_site_label_2
_geom_bond_distance
_geom_bond_site_symmetry_2
Li0 O29 2.027361 1_555
Li0 O8 2.041671 1_565
Li0 O11 2.159054 1_555
Li0 O12 2.159185 1_565
Li0 O26 2.190546 1_565
Li0 O0 2.242736 1_555
Li1 O5 2.081482 1_555
Li1 O7 2.097221 1_565
Li1 O29 2.131640 1_555
Li1 O25 2.143873 1_565
Li1 O12 2.217320 1_565
Li1 O28 2.226937 1_555
Li2 O9 2.105834 1_555
Li2 O16 2.108391 1_455
Li2 O23 2.109599 1_555
Li2 O32 2.115551 1_555
Li2 O31 2.117115 1_555
Li2 O10 2.118180 1_555
Li3 O17 2.111164 1_555
Li3 O11 2.114729 1_555
Li3 O27 2.115677 1_554
Li3 O1 2.116387 1_555
Li3 O0 2.116500 1_555
Li3 O13 2.134224 1_554
Li4 O13 2.062895 1_455
Li4 O18 2.072507 1_455
Li4 O34 2.128758 1_555
Li4 O31 2.146784 1_555
Li4 O16 2.215150 1_455
Li4 O22 2.234042 1_556
Li5 O19 2.095499 1_555
Li5 O15 2.101806 1_555
Li5 O1 2.121272 1_555
Li5 O4 2.128216 1_555
Li5 O3 2.219110 1_555
Li5 O17 2.224122 1_555
Li6 O14 2.019917 1_555
Li6 O34 2.038786 1_555
Li6 O20 2.157219 1_455
Li6 O2 2.178731 1_555
Li6 O16 2.200719 1_455
Li6 O32 2.236076 1_555
Li7 O31 2.033640 1_554
Li7 O4 2.038249 1_555
Li7 O22 2.163439 1_555
Li7 O17 2.165429 1_555
Li7 O13 2.180715 1_554
Li7 O18 2.191225 1_554
Li8 O33 2.080184 1_555
Li8 O3 2.086825 1_555
Li8 O14 2.127293 1_555
Li8 O21 2.179314 1_455
Li8 O15 2.186116 1_555
Li8 O2 2.192334 1_555
Li9 O2 2.101136 1_555
Li9 O6 2.107992 1_555
Li9 O20 2.109344 1_455
Li9 O7 2.112882 1_555
Li9 O30 2.120967 1_455
Li9 O21 2.137106 1_455
Li10 O25 2.039218 1_565
Li10 O10 2.040226 1_655
Li10 O28 2.150178 1_555
Li10 O30 2.159380 1_565
Li10 O5 2.188163 1_655
Li10 O7 2.243622 1_665
Li11 O9 2.067381 1_655
Li11 O35 2.086538 1_665
Li11 O27 2.122761 1_555
Li11 O0 2.175896 1_556
Li11 O24 2.180830 1_565
Li11 O8 2.211243 1_566
Li12 O12 2.081819 1_565
Li12 O11 2.081878 1_555
Li12 O25 2.153893 1_465
Li12 O5 2.183047 1_555
Li12 O29 2.187140 1_455
Li12 O26 2.203708 1_465
Li13 O23 2.081965 1_555
Li13 O24 2.096777 1_565
Li13 O10 2.128225 1_655
Li13 O6 2.135790 1_665
Li13 O9 2.213307 1_655
Li13 O30 2.240160 1_565
Li14 O0 2.069617 1_445
Li14 O26 2.074127 1_455
Li14 O8 2.123804 1_555
Li14 O27 2.179502 1_544
Li14 O11 2.218539 1_545
Li14 O35 2.220724 1_554
Li15 O5 2.091960 1_655
Li15 O14 2.113871 1_655
Li15 O28 2.114788 1_555
Li15 O15 2.116827 1_655
Li15 O33 2.118217 1_555
Li15 O29 2.138298 1_555
Li16 O2 2.090234 1_555
Li16 O32 2.097131 1_555
Li16 O14 2.127911 1_655
Li16 O21 2.139513 1_555
Li16 O20 2.209019 1_555
Li16 O33 2.243400 1_555
Li17 O1 2.033132 1_555
Li17 O21 2.039069 1_555
Li17 O33 2.138512 1_555
Li17 O3 2.158626 1_555
Li17 O15 2.233024 1_655
Li17 O19 2.260806 1_655
Li18 O16 2.079642 1_555
Li18 O20 2.083343 1_555
Li18 O32 2.180114 1_555
Li18 O18 2.182298 1_555
Li18 O34 2.190453 1_555
Li18 O31 2.208103 1_555
Li19 O17 2.071778 1_655
Li19 O22 2.100347 1_655
Li19 O1 2.114913 1_555
Li19 O4 2.122475 1_555
Li19 O19 2.178538 1_655
Li19 O13 2.251937 1_554
Li20 O18 2.093119 1_555
Li20 O24 2.099816 1_555
Li20 O34 2.110135 1_555
Li20 O35 2.117652 1_555
Li20 O22 2.119596 1_556
Li20 O8 2.127740 1_556
Li21 O6 2.026778 1_555
Li21 O27 2.035989 1_545
Li21 O9 2.164735 1_545
Li21 O35 2.166077 1_555
Li21 O23 2.194965 1_545
Li21 O24 2.224807 1_555
Li22 O12 2.102391 1_555
Li22 O26 2.105725 1_555
Li22 O25 2.112514 1_555
Li22 O4 2.115243 1_555
Li22 O19 2.117273 1_655
Li22 O3 2.126880 1_555
Li23 O30 2.077350 1_555
Li23 O28 2.080492 1_545
Li23 O6 2.131995 1_555
Li23 O10 2.174335 1_545
Li23 O7 2.176286 1_555
Li23 O23 2.241536 1_545
Cr0 O33 1.909421 1_555
Cr0 O29 1.914792 1_555
Cr0 O11 1.947173 1_555
Cr0 O15 1.958105 1_555
Cr0 O5 1.990905 1_555
Cr0 O1 2.004664 1_555
Cr1 O35 1.904185 1_655
Cr1 O34 1.931648 1_655
Cr1 O24 1.941448 1_555
Cr1 O20 1.952439 1_555
Cr1 O18 1.982776 1_555
Cr1 O6 2.009538 1_655
Cr2 O22 1.905206 1_555
Cr2 O19 1.935793 1_555
Cr2 O8 1.941080 1_555
Cr2 O12 1.955049 1_555
Cr2 O26 1.968457 1_455
Cr2 O4 2.015642 1_555
Cr3 O13 1.905629 1_555
Cr3 O27 1.906392 1_555
Cr3 O23 1.925143 1_555
Cr3 O31 1.971226 1_555
Cr3 O9 1.993468 1_655
Cr3 O16 2.015050 1_555
Cr4 O16 1.888216 1_555
Cr4 O32 1.936823 1_555
Cr4 O10 1.947845 1_655
Cr4 O28 1.961186 1_555
Cr4 O23 1.978577 1_555
Cr4 O14 2.008514 1_655
Cr5 O21 1.918814 1_555
Cr5 O30 1.919245 1_555
Cr5 O3 1.938057 1_555
Cr5 O7 1.968030 1_555
Cr5 O25 1.986551 1_555
Cr5 O2 1.986916 1_555
Cr6 O9 1.880357 1_555
Cr6 O31 1.921666 1_555
Cr6 O0 1.955249 1_456
Cr6 O13 1.966905 1_455
Cr6 O17 1.975234 1_556
Cr6 O27 2.002623 1_555
O0 Ti3 1.980861 1_655
O1 Ti3 1.961916 1_655
O2 Ti4 1.945434 1_555
O3 Ti2 1.984920 1_555
O4 Ti0 1.935074 1_555
O5 Ti1 1.942737 1_555
O6 Ti4 1.961460 1_555
O7 Ti2 1.953401 1_555
O8 Ti0 1.992992 1_555
O10 Ti1 1.993350 1_555
O11 Ti3 1.981935 1_555
O12 Ti2 1.948855 1_555
O14 Ti1 1.967858 1_555
O15 Ti3 1.963007 1_555
O17 Ti3 1.939508 1_555
O18 Ti0 1.955304 1_556
O19 Ti2 1.986748 1_555
O20 Ti4 1.978224 1_555
O21 Ti2 2.023840 1_655
O22 Ti0 1.990781 1_455
O24 Ti4 1.989211 1_555
O25 Ti2 1.958876 1_655
O26 Ti0 1.963285 1_555
O28 Ti1 1.970583 1_555
O29 Ti3 2.038848 1_655
O30 Ti4 1.980868 1_555
O32 Ti1 1.995596 1_555
O33 Ti1 2.001285 1_555
O34 Ti4 2.013037 1_555
O35 Ti0 2.034313 1_456
