# generated using pymatgen
data_NaPH7O6
_symmetry_space_group_name_H-M   'P 1'
_cell_length_a   7.87604829
_cell_length_b   7.87604829
_cell_length_c   12.83319740
_cell_angle_alpha   66.84772360
_cell_angle_beta   66.84772360
_cell_angle_gamma   53.10666530
_symmetry_Int_Tables_number   1
_chemical_formula_structural   NaPH7O6
_chemical_formula_sum   'Na4 P4 H28 O24'
_cell_volume   571.86382855
_cell_formula_units_Z   4
loop_
 _symmetry_equiv_pos_site_id
 _symmetry_equiv_pos_as_xyz
  1  'x, y, z'
loop_
 _atom_site_type_symbol
 _atom_site_label
 _atom_site_symmetry_multiplicity
 _atom_site_fract_x
 _atom_site_fract_y
 _atom_site_fract_z
 _atom_site_occupancy
  Na  Na0  1  0.14736000  0.38008300  0.23601200  1
  Na  Na1  1  0.61991700  0.85264000  0.26398800  1
  Na  Na2  1  0.85264000  0.61991700  0.76398800  1
  Na  Na3  1  0.38008300  0.14736000  0.73601200  1
  P  P0  1  0.14302500  0.85970300  0.16234700  1
  P  P1  1  0.14029700  0.85697500  0.33765300  1
  P  P2  1  0.85697500  0.14029700  0.83765300  1
  P  P3  1  0.85970300  0.14302500  0.66234700  1
  H  H0  1  0.86700000  0.72473800  0.05179200  1
  H  H1  1  0.27526200  0.13300000  0.44820800  1
  H  H2  1  0.13300000  0.27526200  0.94820800  1
  H  H3  1  0.72473800  0.86700000  0.55179200  1
  H  H4  1  0.35164200  0.09027000  0.09920500  1
  H  H5  1  0.90973000  0.64835800  0.40079500  1
  H  H6  1  0.64835800  0.90973000  0.90079500  1
  H  H7  1  0.09027000  0.35164200  0.59920500  1
  H  H8  1  0.54213200  0.47579600  0.11360000  1
  H  H9  1  0.52420400  0.45786800  0.38640000  1
  H  H10  1  0.45786800  0.52420400  0.88640000  1
  H  H11  1  0.47579600  0.54213200  0.61360000  1
  H  H12  1  0.81315900  0.54101900  0.10412100  1
  H  H13  1  0.45898100  0.18684100  0.39587900  1
  H  H14  1  0.18684100  0.45898100  0.89587900  1
  H  H15  1  0.54101900  0.81315900  0.60412100  1
  H  H16  1  0.72583000  0.39460200  0.00331400  1
  H  H17  1  0.60539800  0.27417000  0.49668600  1
  H  H18  1  0.27417000  0.60539800  0.99668600  1
  H  H19  1  0.39460200  0.72583000  0.50331400  1
  H  H20  1  0.55374900  0.11315000  0.04656800  1
  H  H21  1  0.88685000  0.44625100  0.45343200  1
  H  H22  1  0.44625100  0.88685000  0.95343200  1
  H  H23  1  0.11315000  0.55374900  0.54656800  1
  H  H24  1  0.80956500  0.13772800  0.14183700  1
  H  H25  1  0.86227200  0.19043500  0.35816300  1
  H  H26  1  0.19043500  0.86227200  0.85816300  1
  H  H27  1  0.13772800  0.80956500  0.64183700  1
  O  O0  1  0.22567900  0.00267900  0.06945500  1
  O  O1  1  0.99732100  0.77432100  0.43054500  1
  O  O2  1  0.77432100  0.99732100  0.93054500  1
  O  O3  1  0.00267900  0.22567900  0.56945500  1
  O  O4  1  0.26205800  0.62891500  0.14570200  1
  O  O5  1  0.37108500  0.73794200  0.35429800  1
  O  O6  1  0.73794200  0.37108500  0.85429800  1
  O  O7  1  0.62891500  0.26205800  0.64570200  1
  O  O8  1  0.88884900  0.97139000  0.17214900  1
  O  O9  1  0.02861000  0.11115100  0.32785200  1
  O  O10  1  0.11115100  0.02861000  0.82785100  1
  O  O11  1  0.97139000  0.88884900  0.67214900  1
  O  O12  1  0.86357300  0.61280000  0.12182300  1
  O  O13  1  0.38720000  0.13642700  0.37817700  1
  O  O14  1  0.13642700  0.38720000  0.87817700  1
  O  O15  1  0.61280000  0.86357300  0.62182300  1
  O  O16  1  0.43181300  0.13535400  0.11501600  1
  O  O17  1  0.86464600  0.56818700  0.38498400  1
  O  O18  1  0.56818700  0.86464600  0.88498400  1
  O  O19  1  0.13535400  0.43181300  0.61501600  1
  O  O20  1  0.70376100  0.38517200  0.08630000  1
  O  O21  1  0.61482800  0.29623900  0.41370000  1
  O  O22  1  0.29623900  0.61482800  0.91370000  1
  O  O23  1  0.38517200  0.70376100  0.58630000  1
loop_
_geom_bond_atom_site_label_1
_geom_bond_atom_site_label_2
_geom_bond_distance
_geom_bond_site_symmetry_2
Na0 O4 2.348710 1_555
Na0 O16 2.361940 1_555
Na0 O17 2.393091 1_455
Na0 O12 2.459150 1_455
Na0 O13 2.486768 1_555
Na0 O9 2.509771 1_555
Na1 O5 2.348710 1_555
Na1 O17 2.361940 1_555
Na1 O16 2.393091 1_565
Na1 O13 2.459150 1_565
Na1 O12 2.486768 1_555
Na1 O8 2.509771 1_555
Na2 O6 2.348710 1_555
Na2 O18 2.361940 1_555
Na2 O19 2.393091 1_655
Na2 O14 2.459150 1_655
Na2 O15 2.486768 1_555
Na2 O11 2.509771 1_555
Na3 O7 2.348710 1_555
Na3 O19 2.361940 1_555
Na3 O18 2.393091 1_545
Na3 O15 2.459150 1_545
Na3 O14 2.486768 1_555
Na3 O10 2.509771 1_555
H0 O12 0.985970 1_555
H1 O13 0.985970 1_555
H2 O14 0.985970 1_555
H3 O15 0.985970 1_555
H4 O16 0.996275 1_555
H5 O17 0.996275 1_555
H6 O18 0.996275 1_555
H7 O19 0.996275 1_555
H8 O20 1.003852 1_555
H8 O4 1.723962 1_555
H9 O21 1.003852 1_555
H9 O5 1.723962 1_555
H10 O22 1.003852 1_555
H10 O6 1.723962 1_555
H11 O23 1.003852 1_555
H11 O7 1.723962 1_555
H12 O12 0.985056 1_555
H13 O13 0.985056 1_555
H14 O14 0.985056 1_555
H15 O15 0.985056 1_555
H16 O20 0.988758 1_555
H17 O21 0.988758 1_555
H18 O22 0.988758 1_555
H19 O23 0.988758 1_555
H20 O16 0.990091 1_555
H21 O17 0.990091 1_555
H22 O18 0.990091 1_555
H23 O19 0.990091 1_555
H24 O8 1.032288 1_545
H24 O20 1.557370 1_555
H25 O9 1.032287 1_655
H25 O21 1.557370 1_555
H26 O10 1.032288 1_565
H26 O22 1.557370 1_555
H27 O11 1.032288 1_455
H27 O23 1.557370 1_555
O0 P0 1.525539 1_545
O1 P1 1.525539 1_655
O2 P2 1.525539 1_565
O3 P3 1.525539 1_455
O4 P0 1.526557 1_555
O5 P1 1.526557 1_555
O6 P2 1.526557 1_555
O7 P3 1.526557 1_555
O8 P0 1.603711 1_655
O9 P1 1.603714 1_545
O10 P2 1.603711 1_455
O11 P3 1.603711 1_565
