# generated using pymatgen
data_Na5Fe2P2(CO7)2
_symmetry_space_group_name_H-M   'P 1'
_cell_length_a   6.68731000
_cell_length_b   8.97397999
_cell_length_c   10.46054342
_cell_angle_alpha   90.26436814
_cell_angle_beta   90.25765964
_cell_angle_gamma   90.59874483
_symmetry_Int_Tables_number   1
_chemical_formula_structural   Na5Fe2P2(CO7)2
_chemical_formula_sum   'Na10 Fe4 P4 C4 O28'
_cell_volume   627.70845121
_cell_formula_units_Z   2
loop_
 _symmetry_equiv_pos_site_id
 _symmetry_equiv_pos_as_xyz
  1  'x, y, z'
loop_
 _atom_site_type_symbol
 _atom_site_label
 _atom_site_symmetry_multiplicity
 _atom_site_fract_x
 _atom_site_fract_y
 _atom_site_fract_z
 _atom_site_occupancy
  Na  Na0  1  0.73197000  0.92530000  0.38637400  1
  Na  Na1  1  0.73927300  0.91055400  0.87609400  1
  Na  Na2  1  0.99699800  0.73533100  0.12059500  1
  Na  Na3  1  0.50442600  0.73457600  0.12088100  1
  Na  Na4  1  0.98906700  0.73905100  0.62940600  1
  Na  Na5  1  0.01093300  0.26094900  0.37059400  1
  Na  Na6  1  0.49557400  0.26542400  0.87911900  1
  Na  Na7  1  0.00300200  0.26466900  0.87940500  1
  Na  Na8  1  0.26072700  0.08944600  0.12390600  1
  Na  Na9  1  0.26803000  0.07470000  0.61362600  1
  Fe  Fe0  1  0.26185600  0.64685200  0.39876200  1
  Fe  Fe1  1  0.25346700  0.65265100  0.88379800  1
  Fe  Fe2  1  0.74653300  0.34734900  0.11620200  1
  Fe  Fe3  1  0.73814400  0.35314800  0.60123800  1
  P  P0  1  0.75335200  0.58512800  0.35544000  1
  P  P1  1  0.75218800  0.57646400  0.85220800  1
  P  P2  1  0.24781200  0.42353600  0.14779200  1
  P  P3  1  0.24664800  0.41487200  0.64456000  1
  C  C0  1  0.24019300  0.92844000  0.36303000  1
  C  C1  1  0.24537700  0.94541800  0.86685500  1
  C  C2  1  0.75462300  0.05458200  0.13314500  1
  C  C3  1  0.75980700  0.07156000  0.63697000  1
  O  O0  1  0.75227700  0.91052300  0.14234000  1
  O  O1  1  0.77147300  0.93177900  0.64927800  1
  O  O2  1  0.24320300  0.86438200  0.47530200  1
  O  O3  1  0.25590600  0.88289000  0.97967400  1
  O  O4  1  0.25388300  0.83528900  0.26546600  1
  O  O5  1  0.23614800  0.86249900  0.76533200  1
  O  O6  1  0.93888400  0.68263100  0.39501300  1
  O  O7  1  0.56199700  0.67682800  0.38669000  1
  O  O8  1  0.93610900  0.67864800  0.88118000  1
  O  O9  1  0.56912900  0.67407900  0.88408700  1
  O  O10  1  0.24671400  0.57070200  0.07214700  1
  O  O11  1  0.24445400  0.56576300  0.57228800  1
  O  O12  1  0.75736700  0.55542400  0.20996200  1
  O  O13  1  0.75873800  0.53261900  0.70562400  1
  O  O14  1  0.24126200  0.46738100  0.29437600  1
  O  O15  1  0.24263300  0.44457600  0.79003800  1
  O  O16  1  0.75554600  0.43423700  0.42771200  1
  O  O17  1  0.75328600  0.42929800  0.92785300  1
  O  O18  1  0.43087100  0.32592100  0.11591300  1
  O  O19  1  0.06389100  0.32135200  0.11882000  1
  O  O20  1  0.43800300  0.32317200  0.61331000  1
  O  O21  1  0.06111600  0.31736900  0.60498700  1
  O  O22  1  0.76385200  0.13750100  0.23466800  1
  O  O23  1  0.74611700  0.16471100  0.73453400  1
  O  O24  1  0.74409400  0.11711000  0.02032600  1
  O  O25  1  0.75679700  0.13561800  0.52469800  1
  O  O26  1  0.22852700  0.06822100  0.35072200  1
  O  O27  1  0.24772300  0.08947700  0.85766000  1
loop_
_geom_bond_atom_site_label_1
_geom_bond_atom_site_label_2
_geom_bond_distance
_geom_bond_site_symmetry_2
Na0 O25 2.376876 1_565
Na0 O7 2.492203 1_555
Na0 O22 2.492499 1_565
Na0 O0 2.559847 1_555
Na0 O6 2.594005 1_555
Na0 O1 2.761881 1_555
Na1 O24 2.384491 1_566
Na1 O1 2.391626 1_555
Na1 O9 2.399380 1_555
Na1 O8 2.474710 1_555
Na1 O23 2.725159 1_565
Na1 O0 2.786046 1_556
Na2 O0 2.292486 1_555
Na2 O10 2.297914 1_655
Na2 O4 2.446239 1_655
Na2 O12 2.453925 1_555
Na2 O8 2.582898 1_554
Na2 O3 2.630071 1_654
Na3 O0 2.286767 1_555
Na3 O10 2.307568 1_555
Na3 O4 2.439939 1_555
Na3 O12 2.524020 1_555
Na3 O9 2.572858 1_554
Na3 O3 2.599540 1_554
Na3 O7 2.855843 1_555
Na4 O1 2.281202 1_555
Na4 O11 2.397528 1_655
Na4 O5 2.430051 1_655
Na4 O6 2.521561 1_555
Na4 O13 2.530807 1_555
Na4 O2 2.598701 1_655
Na4 O8 2.715351 1_555
Na5 O26 2.281202 1_555
Na5 O16 2.397528 1_455
Na5 O22 2.430051 1_455
Na5 O21 2.521561 1_555
Na5 O14 2.530807 1_555
Na5 O25 2.598701 1_455
Na5 O19 2.715351 1_555
Na6 O27 2.286767 1_555
Na6 O17 2.307568 1_555
Na6 O23 2.439939 1_555
Na6 O15 2.524020 1_555
Na6 O18 2.572858 1_556
Na6 O24 2.599540 1_556
Na6 O20 2.855843 1_555
Na7 O27 2.292486 1_555
Na7 O17 2.297914 1_455
Na7 O23 2.446239 1_455
Na7 O15 2.453925 1_555
Na7 O19 2.582898 1_556
Na7 O24 2.630071 1_456
Na8 O3 2.384491 1_544
Na8 O26 2.391626 1_555
Na8 O18 2.399380 1_555
Na8 O19 2.474710 1_555
Na8 O4 2.725159 1_545
Na8 O27 2.786046 1_554
Na9 O2 2.376876 1_545
Na9 O20 2.492203 1_555
Na9 O5 2.492499 1_545
Na9 O27 2.559847 1_555
Na9 O21 2.594005 1_555
Na9 O26 2.761881 1_555
Fe0 O14 1.944994 1_555
Fe0 O11 1.962208 1_555
Fe0 O7 2.026873 1_555
Fe0 O2 2.111610 1_555
Fe0 O6 2.187070 1_455
Fe0 O4 2.197637 1_555
Fe1 O15 2.105582 1_555
Fe1 O10 2.106694 1_556
Fe1 O9 2.117655 1_555
Fe1 O8 2.137545 1_455
Fe1 O5 2.262789 1_555
Fe1 O3 2.292411 1_555
Fe2 O12 2.105582 1_555
Fe2 O17 2.106694 1_554
Fe2 O18 2.117655 1_555
Fe2 O19 2.137545 1_655
Fe2 O22 2.262789 1_555
Fe2 O24 2.292411 1_555
Fe3 O13 1.944994 1_555
Fe3 O16 1.962208 1_555
Fe3 O20 2.026873 1_555
Fe3 O25 2.111610 1_555
Fe3 O21 2.187070 1_655
Fe3 O23 2.197637 1_555
C0 O26 1.264756 1_565
C0 O2 1.310114 1_555
C0 O4 1.320342 1_555
C1 O5 1.294792 1_555
C1 O27 1.296735 1_565
C1 O3 1.311014 1_555
C2 O22 1.294792 1_555
C2 O0 1.296735 1_545
C2 O24 1.311014 1_555
C3 O1 1.264756 1_545
C3 O25 1.310114 1_555
C3 O23 1.320342 1_555
O6 P0 1.563866 1_555
O7 P0 1.563598 1_555
O8 P1 1.554344 1_555
O9 P1 1.549373 1_555
O10 P2 1.542770 1_555
O11 P3 1.554055 1_555
O12 P0 1.544138 1_555
O13 P1 1.582178 1_555
O14 P2 1.582178 1_555
O15 P3 1.544138 1_555
O16 P0 1.554055 1_555
O17 P1 1.542770 1_555
O18 P2 1.549373 1_555
O19 P2 1.554344 1_555
O20 P3 1.563598 1_555
O21 P3 1.563866 1_555
