# generated using pymatgen
data_Rb2MgH12(SeO7)2
_symmetry_space_group_name_H-M   'P 1'
_cell_length_a   12.84624300
_cell_length_b   6.39718000
_cell_length_c   9.46236415
_cell_angle_alpha   74.91538086
_cell_angle_beta   90.00000000
_cell_angle_gamma   90.00000000
_symmetry_Int_Tables_number   1
_chemical_formula_structural   Rb2MgH12(SeO7)2
_chemical_formula_sum   'Rb4 Mg2 H24 Se4 O28'
_cell_volume   750.81988888
_cell_formula_units_Z   2
loop_
 _symmetry_equiv_pos_site_id
 _symmetry_equiv_pos_as_xyz
  1  'x, y, z'
loop_
 _atom_site_type_symbol
 _atom_site_label
 _atom_site_symmetry_multiplicity
 _atom_site_fract_x
 _atom_site_fract_y
 _atom_site_fract_z
 _atom_site_occupancy
  Rb  Rb0  1  0.34586100  0.65841800  0.13164200  1
  Rb  Rb1  1  0.84586100  0.34158200  0.36835800  1
  Rb  Rb2  1  0.15413900  0.65841800  0.63164200  1
  Rb  Rb3  1  0.65413900  0.34158200  0.86835800  1
  Mg  Mg0  1  0.00000000  0.00000000  0.00000000  1
  Mg  Mg1  1  0.50000000  0.00000000  0.50000000  1
  H  H0  1  0.05607200  0.34593800  0.08984600  1
  H  H1  1  0.86078600  0.66736400  0.03117300  1
  H  H2  1  0.81904200  0.00424700  0.13966500  1
  H  H3  1  0.40422300  0.06665700  0.23580800  1
  H  H4  1  0.62866700  0.08940700  0.26764400  1
  H  H5  1  0.09005900  0.68415400  0.20583400  1
  H  H6  1  0.59005900  0.31584600  0.29416600  1
  H  H7  1  0.12866700  0.91059300  0.23235600  1
  H  H8  1  0.90422300  0.93334300  0.26419200  1
  H  H9  1  0.31904200  0.99575300  0.36033500  1
  H  H10  1  0.36078600  0.33263600  0.46882700  1
  H  H11  1  0.55607200  0.65406200  0.41015400  1
  H  H12  1  0.44392800  0.34593800  0.58984600  1
  H  H13  1  0.63921400  0.66736400  0.53117300  1
  H  H14  1  0.68095800  0.00424700  0.63966500  1
  H  H15  1  0.09577700  0.06665700  0.73580800  1
  H  H16  1  0.87133300  0.08940700  0.76764400  1
  H  H17  1  0.40994100  0.68415400  0.70583400  1
  H  H18  1  0.90994100  0.31584600  0.79416600  1
  H  H19  1  0.37133300  0.91059300  0.73235600  1
  H  H20  1  0.59577700  0.93334300  0.76419200  1
  H  H21  1  0.18095800  0.99575300  0.86033500  1
  H  H22  1  0.13921400  0.33263600  0.96882700  1
  H  H23  1  0.94392800  0.65406200  0.91015400  1
  Se  Se0  1  0.64010700  0.73204800  0.09624400  1
  Se  Se1  1  0.14010700  0.26795200  0.40375600  1
  Se  Se2  1  0.85989300  0.73204800  0.59624400  1
  Se  Se3  1  0.35989300  0.26795200  0.90375600  1
  O  O0  1  0.06610400  0.29413600  0.00055800  1
  O  O1  1  0.42742700  0.21934500  0.06013200  1
  O  O2  1  0.89294100  0.02736100  0.16339900  1
  O  O3  1  0.74174800  0.57049400  0.08789100  1
  O  O4  1  0.68283800  0.96485600  0.12822900  1
  O  O5  1  0.10881500  0.83616100  0.15615800  1
  O  O6  1  0.56227900  0.59855700  0.23313000  1
  O  O7  1  0.06227900  0.40144300  0.26687000  1
  O  O8  1  0.60881500  0.16383900  0.34384200  1
  O  O9  1  0.18283800  0.03514400  0.37177100  1
  O  O10  1  0.24174800  0.42950600  0.41210900  1
  O  O11  1  0.39294100  0.97263900  0.33660100  1
  O  O12  1  0.43389600  0.29413600  0.50055800  1
  O  O13  1  0.92742700  0.78065500  0.43986800  1
  O  O14  1  0.07257300  0.21934500  0.56013200  1
  O  O15  1  0.56610400  0.70586400  0.49944200  1
  O  O16  1  0.60705900  0.02736100  0.66339900  1
  O  O17  1  0.75825200  0.57049400  0.58789100  1
  O  O18  1  0.81716200  0.96485600  0.62822900  1
  O  O19  1  0.39118500  0.83616100  0.65615800  1
  O  O20  1  0.93772100  0.59855700  0.73313000  1
  O  O21  1  0.43772100  0.40144300  0.76687000  1
  O  O22  1  0.89118500  0.16383900  0.84384200  1
  O  O23  1  0.31716200  0.03514400  0.87177100  1
  O  O24  1  0.25825200  0.42950600  0.91210900  1
  O  O25  1  0.10705900  0.97263900  0.83660100  1
  O  O26  1  0.57257300  0.78065500  0.93986800  1
  O  O27  1  0.93389600  0.70586400  0.99944200  1
loop_
_geom_bond_atom_site_label_1
_geom_bond_atom_site_label_2
_geom_bond_distance
_geom_bond_site_symmetry_2
Mg0 O0 2.065646 1_555
Mg0 O27 2.065646 1_444
Mg0 O5 2.104718 1_545
Mg0 O22 2.104718 1_454
Mg0 O25 2.110335 1_544
Mg0 O2 2.110335 1_455
Mg1 O12 2.065646 1_555
Mg1 O15 2.065646 1_545
Mg1 O19 2.104718 1_545
Mg1 O8 2.104718 1_555
Mg1 O11 2.110335 1_545
Mg1 O16 2.110335 1_555
H0 O0 0.992959 1_555
H1 O27 0.997194 1_554
H1 O3 1.684451 1_555
H2 O2 0.995390 1_555
H3 O11 0.996895 1_545
H3 Rb0 3.113481 1_545
H4 O8 0.995144 1_555
H5 O5 0.993321 1_555
H6 O8 0.993321 1_555
H7 O5 0.995144 1_555
H8 O2 0.996895 1_565
H8 Rb1 3.113481 1_565
H9 O11 0.995390 1_555
H10 O12 0.997194 1_555
H10 O10 1.684451 1_555
H11 O15 0.992959 1_555
H12 O12 0.992959 1_555
H13 O15 0.997194 1_555
H13 O17 1.684451 1_555
H14 O16 0.995390 1_555
H15 O25 0.996895 1_545
H15 Rb2 3.113481 1_545
H16 O22 0.995144 1_555
H17 O19 0.993321 1_555
H18 O22 0.993321 1_555
H19 O19 0.995144 1_555
H20 O16 0.996895 1_565
H20 Rb3 3.113481 1_565
H21 O25 0.995390 1_555
H22 O0 0.997194 1_556
H22 O24 1.684451 1_555
H23 O27 0.992959 1_555
O1 Se3 1.673122 1_554
O1 Rb0 3.230255 1_555
O1 Rb3 3.412897 1_554
O2 Rb1 3.193236 1_555
O3 Se0 1.679801 1_555
O3 Rb1 2.992246 1_555
O3 Rb3 3.051160 1_554
O4 Se0 1.686889 1_555
O4 Rb3 2.984308 1_564
O5 Rb0 3.279777 1_555
O6 Se0 1.682511 1_555
O6 Rb0 2.933722 1_555
O7 Se1 1.682511 1_555
O7 Rb1 2.933722 1_455
O8 Rb1 3.279777 1_555
O9 Se1 1.686889 1_555
O9 Rb2 2.984308 1_545
O10 Se1 1.679801 1_555
O10 Rb0 2.992246 1_555
O10 Rb2 3.051160 1_555
O11 Rb0 3.193236 1_555
O13 Se2 1.673122 1_555
O13 Rb1 3.230255 1_555
O13 Rb2 3.412897 1_655
O14 Se1 1.673122 1_555
O14 Rb2 3.230255 1_555
O14 Rb1 3.412897 1_455
O16 Rb3 3.193236 1_555
O17 Se2 1.679801 1_555
O17 Rb3 2.992246 1_555
O17 Rb1 3.051160 1_555
O18 Se2 1.686889 1_555
O18 Rb1 2.984308 1_565
O19 Rb2 3.279777 1_555
O20 Se2 1.682511 1_555
O20 Rb2 2.933722 1_655
O21 Se3 1.682511 1_555
O21 Rb3 2.933722 1_555
O22 Rb3 3.279777 1_555
O23 Se3 1.686889 1_555
O23 Rb0 2.984308 1_546
O24 Se3 1.679801 1_555
O24 Rb2 2.992246 1_555
O24 Rb0 3.051160 1_556
O25 Rb2 3.193236 1_555
O26 Se0 1.673122 1_556
O26 Rb3 3.230255 1_555
O26 Rb0 3.412897 1_556
