# generated using pymatgen
data_Li6V3P8O29
_symmetry_space_group_name_H-M   'P 1'
_cell_length_a   9.79847500
_cell_length_b   9.79930219
_cell_length_c   13.92572899
_cell_angle_alpha   89.73533745
_cell_angle_beta   89.70808739
_cell_angle_gamma   60.18627411
_symmetry_Int_Tables_number   1
_chemical_formula_structural   Li6V3P8O29
_chemical_formula_sum   'Li12 V6 P16 O58'
_cell_volume   1160.13209612
_cell_formula_units_Z   2
loop_
 _symmetry_equiv_pos_site_id
 _symmetry_equiv_pos_as_xyz
  1  'x, y, z'
loop_
 _atom_site_type_symbol
 _atom_site_label
 _atom_site_symmetry_multiplicity
 _atom_site_fract_x
 _atom_site_fract_y
 _atom_site_fract_z
 _atom_site_occupancy
  Li  Li0  1  0.08788600  0.69158300  0.94384400  1
  Li  Li1  1  0.09803200  0.23409600  0.43874000  1
  Li  Li2  1  0.33413700  0.33828600  0.11500100  1
  Li  Li3  1  0.22355900  0.07982500  0.93930500  1
  Li  Li4  1  0.69048900  0.22453300  0.94028400  1
  Li  Li5  1  0.33608200  0.89608400  0.55753000  1
  Li  Li6  1  0.66692300  0.09497100  0.43891200  1
  Li  Li7  1  0.77640400  0.90669100  0.05993400  1
  Li  Li8  1  0.90392500  0.76053000  0.55997700  1
  Li  Li9  1  0.76507200  0.33032500  0.55840700  1
  Li  Li10  1  0.91184800  0.31651100  0.05955300  1
  Li  Li11  1  0.03334700  0.95286600  0.49128100  1
  V  V0  1  0.43272800  0.99828100  0.74974900  1
  V  V1  1  0.56129800  0.00177900  0.24904000  1
  V  V2  1  0.43191100  0.56694100  0.25157400  1
  V  V3  1  0.56041600  0.44023200  0.74892400  1
  V  V4  1  0.00025400  0.56774600  0.75085200  1
  V  V5  1  0.99758700  0.43904000  0.25286100  1
  P  P0  1  0.09208300  0.68208500  0.15996200  1
  P  P1  1  0.22324900  0.69439500  0.65739200  1
  P  P2  1  0.08816500  0.22835900  0.65713700  1
  P  P3  1  0.33331900  0.33349600  0.87195300  1
  P  P4  1  0.33410500  0.33127000  0.37093100  1
  P  P5  1  0.22640100  0.09452200  0.15582800  1
  P  P6  1  0.31070900  0.91380700  0.34001200  1
  P  P7  1  0.68105200  0.23032700  0.15696800  1
  P  P8  1  0.31511100  0.77006300  0.84422600  1
  P  P9  1  0.68552600  0.08686900  0.65733800  1
  P  P10  1  0.76714200  0.91143300  0.84194400  1
  P  P11  1  0.66639200  0.66709300  0.62787500  1
  P  P12  1  0.66805400  0.66602400  0.13012800  1
  P  P13  1  0.91052000  0.77691900  0.34409400  1
  P  P14  1  0.77080500  0.31284200  0.34387700  1
  P  P15  1  0.91183000  0.31877800  0.84135400  1
  O  O0  1  0.98892400  0.78631400  0.43449100  1
  O  O1  1  0.08151600  0.66366100  0.66125400  1
  O  O2  1  0.23208200  0.76254200  0.93153600  1
  O  O3  1  0.25647700  0.66205700  0.15834500  1
  O  O4  1  0.11203700  0.51479800  0.17631400  1
  O  O5  1  0.18546900  0.48747300  0.83489500  1
  O  O6  1  0.09284500  0.38080700  0.67029800  1
  O  O7  1  0.00385400  0.24477900  0.93136000  1
  O  O8  1  0.07624800  0.25822400  0.15789600  1
  O  O9  1  0.33095400  0.47876300  0.32531300  1
  O  O10  1  0.37889200  0.53776600  0.66568700  1
  O  O11  1  0.18479500  0.32641200  0.33129300  1
  O  O12  1  0.33901500  0.33118000  0.97991400  1
  O  O13  1  0.33865500  0.32062900  0.47745900  1
  O  O14  1  0.32788700  0.18719100  0.83242800  1
  O  O15  1  0.51409600  0.37208800  0.17257600  1
  O  O16  1  0.48463200  0.33184400  0.82967200  1
  O  O17  1  0.25555700  0.08216300  0.65822600  1
  O  O18  1  0.20652800  0.00475700  0.24749900  1
  O  O19  1  0.21924600  0.00080000  0.42950000  1
  O  O20  1  0.24553300  0.00575600  0.06588400  1
  O  O21  1  0.36923800  0.12067800  0.17565400  1
  O  O22  1  0.48792200  0.18505300  0.32793500  1
  O  O23  1  0.33464700  0.91846600  0.84046500  1
  O  O24  1  0.52842400  0.09030700  0.67170000  1
  O  O25  1  0.66437400  0.25311800  0.65748800  1
  O  O26  1  0.20449300  0.79526300  0.75190800  1
  O  O27  1  0.20789800  0.79622600  0.57265000  1
  O  O28  1  0.77408400  0.21834500  0.43143300  1
  O  O29  1  0.33565200  0.74784300  0.33732500  1
  O  O30  1  0.46722700  0.91482900  0.33109000  1
  O  O31  1  0.66854200  0.07953400  0.15402100  1
  O  O32  1  0.50917200  0.81051700  0.66688000  1
  O  O33  1  0.62012000  0.89743500  0.82309600  1
  O  O34  1  0.75350400  0.00271400  0.93172700  1
  O  O35  1  0.77500000  0.99613500  0.56900800  1
  O  O36  1  0.79150000  0.00041100  0.75125400  1
  O  O37  1  0.74379100  0.92122700  0.33814200  1
  O  O38  1  0.52821800  0.65640200  0.17686300  1
  O  O39  1  0.47702100  0.62312200  0.82499700  1
  O  O40  1  0.66436200  0.81904600  0.17038100  1
  O  O41  1  0.67853500  0.66019200  0.02394300  1
  O  O42  1  0.66748500  0.66127500  0.52062300  1
  O  O43  1  0.80986400  0.67869200  0.66794000  1
  O  O44  1  0.61704600  0.46881800  0.33391900  1
  O  O45  1  0.67575400  0.51157400  0.67090100  1
  O  O46  1  0.91711300  0.74729500  0.84336300  1
  O  O47  1  0.00205200  0.79127200  0.25115800  1
  O  O48  1  0.99528600  0.75648000  0.07153300  1
  O  O49  1  0.90779400  0.62183700  0.33367800  1
  O  O50  1  0.82024800  0.51951400  0.17475700  1
  O  O51  1  0.90125800  0.47948200  0.82101000  1
  O  O52  1  0.74783500  0.33554600  0.84248400  1
  O  O53  1  0.75894300  0.24856400  0.06802300  1
  O  O54  1  0.78957700  0.20999800  0.24838000  1
  O  O55  1  0.91654600  0.33358300  0.34431100  1
  O  O56  1  0.00074200  0.22552800  0.56854700  1
  O  O57  1  0.00225300  0.20665200  0.75094000  1
loop_
_geom_bond_atom_site_label_1
_geom_bond_atom_site_label_2
_geom_bond_distance
_geom_bond_site_symmetry_2
Li0 O2 1.866153 1_555
Li0 O48 1.951869 1_456
Li0 O46 2.040690 1_455
Li0 O5 2.308299 1_555
Li1 O19 1.988677 1_555
Li1 O55 2.032250 1_455
Li1 O56 2.060114 1_555
Li1 O11 2.125846 1_555
Li2 O12 1.882279 1_554
Li2 O15 2.111756 1_555
Li2 O21 2.153115 1_555
Li2 O4 2.169928 1_555
Li3 O20 1.875356 1_556
Li3 O7 1.949386 1_555
Li3 O23 1.967986 1_545
Li3 O14 2.325209 1_555
Li4 O34 1.946115 1_555
Li4 O53 1.960301 1_556
Li4 O52 1.985034 1_555
Li4 O16 2.335522 1_555
Li5 O27 1.948577 1_555
Li5 O19 2.092395 1_565
Li5 O17 2.120276 1_565
Li5 O32 2.121047 1_555
Li6 O28 1.958321 1_555
Li6 O37 2.042413 1_545
Li6 O35 2.079700 1_545
Li6 O22 2.172411 1_555
Li7 O48 1.911737 1_555
Li7 O34 1.975331 1_564
Li7 O31 1.982135 1_565
Li7 O40 2.284004 1_555
Li8 O0 2.000384 1_555
Li8 O35 2.010714 1_555
Li8 O1 2.070831 1_655
Li8 O43 2.112506 1_555
Li9 O56 2.012688 1_655
Li9 O25 2.041694 1_555
Li9 O28 2.063602 1_555
Li9 O45 2.200161 1_555
Li10 O53 1.921297 1_555
Li10 O7 1.964377 1_654
Li10 O8 1.974086 1_655
Li10 O50 2.361362 1_555
Li11 O27 1.989597 1_555
Li11 O0 2.049504 1_455
Li11 O19 2.260503 1_565
O0 P13 1.504862 1_555
O1 P1 1.561173 1_555
O1 V4 1.948699 1_555
O2 P8 1.481326 1_555
O3 P0 1.522843 1_555
O3 V2 1.981812 1_555
O4 P0 1.567058 1_555
O4 V5 1.937364 1_455
O5 P3 1.571173 1_555
O5 V4 1.968682 1_555
O6 P2 1.529090 1_555
O6 V4 1.947626 1_555
O7 P15 1.504274 1_455
O8 P5 1.546593 1_555
O8 V5 2.033657 1_455
O9 P4 1.562316 1_555
O9 V2 1.900282 1_555
O10 P1 1.538682 1_555
O10 V3 1.934188 1_555
O11 P4 1.589051 1_555
O11 V5 1.942179 1_455
O12 P3 1.504403 1_555
O13 P4 1.486000 1_555
O14 P3 1.563558 1_555
O14 V0 1.981037 1_545
O15 P7 1.546819 1_555
O15 V2 1.996504 1_555
O16 P3 1.585080 1_555
O16 V3 1.925793 1_555
O17 P2 1.551249 1_555
O17 V0 1.976797 1_545
O18 P6 1.610668 1_545
O18 P5 1.612067 1_555
O19 P6 1.523684 1_545
O20 P5 1.485310 1_555
O21 P5 1.569094 1_555
O21 V1 1.942099 1_555
O22 P4 1.591994 1_555
O22 V1 1.917205 1_555
O23 P8 1.558916 1_555
O23 V0 1.963964 1_555
O24 P9 1.534966 1_555
O24 V0 1.922282 1_545
O25 P9 1.536648 1_555
O25 V3 2.042574 1_555
O26 P1 1.603776 1_555
O26 P8 1.622857 1_555
O27 P1 1.500892 1_555
O28 P14 1.518403 1_555
O29 P6 1.520301 1_555
O29 V2 1.950282 1_555
O30 P6 1.543017 1_555
O30 V1 1.908505 1_565
O31 P7 1.543026 1_555
O31 V1 2.051428 1_555
O32 P11 1.577699 1_555
O32 V0 1.979550 1_555
O33 P10 1.537430 1_555
O33 V0 1.896527 1_555
O34 P10 1.506976 1_545
O35 P9 1.515328 1_565
O36 P10 1.614273 1_545
O36 P9 1.623366 1_555
O37 P13 1.542281 1_555
O37 V1 1.992539 1_565
O38 P12 1.558415 1_555
O38 V2 1.882986 1_555
O39 P8 1.545860 1_555
O39 V3 1.885324 1_555
O40 P12 1.586718 1_555
O40 V1 1.906532 1_565
O41 P12 1.481140 1_555
O42 P11 1.494694 1_555
O43 P11 1.570976 1_555
O43 V4 1.997226 1_655
O44 P14 1.528278 1_555
O44 V2 1.951108 1_555
O45 P11 1.594691 1_555
O45 V3 1.926808 1_555
O46 P10 1.548096 1_555
O46 V4 2.000998 1_655
O47 P0 1.611964 1_555
O47 P13 1.615874 1_455
O48 P0 1.504509 1_655
O49 P13 1.540671 1_555
O49 V5 1.921144 1_555
O50 P12 1.594872 1_555
O50 V5 1.863616 1_555
O51 P15 1.550778 1_555
O51 V4 1.860199 1_655
O52 P15 1.531860 1_555
O52 V3 2.064241 1_555
O53 P7 1.507504 1_555
O54 P7 1.609889 1_555
O54 P14 1.625914 1_555
O55 P14 1.539270 1_555
O55 V5 2.028257 1_555
O56 P2 1.513683 1_555
O57 P15 1.615845 1_455
O57 P2 1.620038 1_555
