# generated using pymatgen
data_Pd4Se
_symmetry_space_group_name_H-M   'P 1'
_cell_length_a   5.28074265
_cell_length_b   5.28074265
_cell_length_c   5.68863415
_cell_angle_alpha   90.00000000
_cell_angle_beta   90.00000000
_cell_angle_gamma   90.00000000
_symmetry_Int_Tables_number   1
_chemical_formula_structural   Pd4Se
_chemical_formula_sum   'Pd8 Se2'
_cell_volume   158.63463388
_cell_formula_units_Z   2
loop_
 _symmetry_equiv_pos_site_id
 _symmetry_equiv_pos_as_xyz
  1  'x, y, z'
loop_
 _atom_site_type_symbol
 _atom_site_label
 _atom_site_symmetry_multiplicity
 _atom_site_fract_x
 _atom_site_fract_y
 _atom_site_fract_z
 _atom_site_occupancy
  Pd  Pd0  1  0.76834982  0.37082750  0.84445054  1
  Pd  Pd1  1  0.87082750  0.26834982  0.34445054  1
  Pd  Pd2  1  0.12917250  0.73165018  0.34445054  1
  Pd  Pd3  1  0.62917250  0.76834982  0.15554946  1
  Pd  Pd4  1  0.26834982  0.12917250  0.65554946  1
  Pd  Pd5  1  0.73165018  0.87082750  0.65554946  1
  Pd  Pd6  1  0.23165018  0.62917250  0.84445054  1
  Pd  Pd7  1  0.37082750  0.23165018  0.15554946  1
  Se  Se0  1  0.50000000  0.50000000  0.50000000  1
  Se  Se1  1  -0.00000000  -0.00000000  -0.00000000  1
loop_
_geom_bond_atom_site_label_1
_geom_bond_atom_site_label_2
_geom_bond_distance
_geom_bond_site_symmetry_2
Pd0 Se1 2.472677 1_656
Pd0 Se0 2.512546 1_555
Pd1 Se0 2.472677 1_555
Pd1 Se1 2.512546 1_655
Pd2 Se0 2.472677 1_555
Pd2 Se1 2.512546 1_565
Pd3 Se1 2.472677 1_665
Pd3 Se0 2.512546 1_555
Pd4 Se0 2.472677 1_555
Pd4 Se1 2.512546 1_556
Pd5 Se0 2.472677 1_555
Pd5 Se1 2.512546 1_666
Pd6 Se1 2.472677 1_566
Pd6 Se0 2.512546 1_555
Pd7 Se1 2.472677 1_555
Pd7 Se0 2.512546 1_555
