# generated using pymatgen
data_SrLi4NiO4
_symmetry_space_group_name_H-M   'P 1'
_cell_length_a   14.64239200
_cell_length_b   5.69464000
_cell_length_c   11.15823866
_cell_angle_alpha   73.45781108
_cell_angle_beta   90.00000000
_cell_angle_gamma   90.00000000
_symmetry_Int_Tables_number   1
_chemical_formula_structural   SrLi4NiO4
_chemical_formula_sum   'Sr8 Li32 Ni8 O32'
_cell_volume   891.89978842
_cell_formula_units_Z   8
loop_
 _symmetry_equiv_pos_site_id
 _symmetry_equiv_pos_as_xyz
  1  'x, y, z'
loop_
 _atom_site_type_symbol
 _atom_site_label
 _atom_site_symmetry_multiplicity
 _atom_site_fract_x
 _atom_site_fract_y
 _atom_site_fract_z
 _atom_site_occupancy
  Sr  Sr0  1  0.80015900  0.63603800  0.74407600  1
  Sr  Sr1  1  0.55723100  0.07981900  0.33398500  1
  Sr  Sr2  1  0.30015900  0.36396200  0.75592400  1
  Sr  Sr3  1  0.05723100  0.92018100  0.16601500  1
  Sr  Sr4  1  0.94276900  0.07981900  0.83398500  1
  Sr  Sr5  1  0.69984100  0.63603800  0.24407600  1
  Sr  Sr6  1  0.44276900  0.92018100  0.66601500  1
  Sr  Sr7  1  0.19984100  0.36396200  0.25592400  1
  Li  Li0  1  0.92869100  0.92415400  0.54145600  1
  Li  Li1  1  0.17129800  0.81253300  0.61772700  1
  Li  Li2  1  0.66664000  0.45874300  0.00477600  1
  Li  Li3  1  0.61056900  0.66315200  0.63073600  1
  Li  Li4  1  0.92504100  0.37857800  0.02605300  1
  Li  Li5  1  0.47353100  0.34320500  0.07559000  1
  Li  Li6  1  0.36849300  0.10599500  0.22090300  1
  Li  Li7  1  0.11056900  0.33684800  0.86926400  1
  Li  Li8  1  0.72722200  0.88084500  0.48324300  1
  Li  Li9  1  0.83336000  0.45874300  0.50477600  1
  Li  Li10  1  0.67129800  0.18746700  0.88227300  1
  Li  Li11  1  0.22722200  0.11915500  0.01675700  1
  Li  Li12  1  0.86849300  0.89400500  0.27909700  1
  Li  Li13  1  0.57495900  0.37857800  0.52605300  1
  Li  Li14  1  0.42869100  0.07584600  0.95854400  1
  Li  Li15  1  0.02646900  0.34320500  0.57559000  1
  Li  Li16  1  0.97353100  0.65679500  0.42441000  1
  Li  Li17  1  0.57130900  0.92415400  0.04145600  1
  Li  Li18  1  0.42504100  0.62142200  0.47394700  1
  Li  Li19  1  0.13150700  0.10599500  0.72090300  1
  Li  Li20  1  0.77277800  0.88084500  0.98324300  1
  Li  Li21  1  0.32870200  0.81253300  0.11772700  1
  Li  Li22  1  0.16664000  0.54125700  0.49522400  1
  Li  Li23  1  0.27277800  0.11915500  0.51675700  1
  Li  Li24  1  0.88943100  0.66315200  0.13073600  1
  Li  Li25  1  0.63150700  0.89400500  0.77909700  1
  Li  Li26  1  0.52646900  0.65679500  0.92441000  1
  Li  Li27  1  0.07495900  0.62142200  0.97394700  1
  Li  Li28  1  0.38943100  0.33684800  0.36926400  1
  Li  Li29  1  0.33336000  0.54125700  0.99522400  1
  Li  Li30  1  0.82870200  0.18746700  0.38227300  1
  Li  Li31  1  0.07130900  0.07584600  0.45854400  1
  Ni  Ni0  1  0.02296100  0.64427800  0.70523200  1
  Ni  Ni1  1  0.77912100  0.18636500  0.13074900  1
  Ni  Ni2  1  0.52296100  0.35572200  0.79476800  1
  Ni  Ni3  1  0.27912100  0.81363500  0.36925100  1
  Ni  Ni4  1  0.72087900  0.18636500  0.63074900  1
  Ni  Ni5  1  0.47703900  0.64427800  0.20523200  1
  Ni  Ni6  1  0.22087900  0.81363500  0.86925100  1
  Ni  Ni7  1  0.97703900  0.35572200  0.29476800  1
  O  O0  1  0.20223900  0.46502700  0.95754500  1
  O  O1  1  0.63514700  0.54051600  0.82224900  1
  O  O2  1  0.98328400  0.46895900  0.87136600  1
  O  O3  1  0.42741900  0.45205700  0.89813200  1
  O  O4  1  0.92741900  0.54794300  0.60186800  1
  O  O5  1  0.96546200  0.00181600  0.36286200  1
  O  O6  1  0.73724300  0.02986100  0.30579400  1
  O  O7  1  0.48328400  0.53104100  0.62863400  1
  O  O8  1  0.39312500  0.97973800  0.41639100  1
  O  O9  1  0.13514700  0.45948400  0.67775100  1
  O  O10  1  0.70223900  0.53497300  0.54245500  1
  O  O11  1  0.18378200  0.95918500  0.44159700  1
  O  O12  1  0.68378200  0.04081500  0.05840300  1
  O  O13  1  0.89312500  0.02026200  0.08360900  1
  O  O14  1  0.23724300  0.97013900  0.19420600  1
  O  O15  1  0.46546200  0.99818400  0.13713800  1
  O  O16  1  0.53453800  0.00181600  0.86286200  1
  O  O17  1  0.76275700  0.02986100  0.80579400  1
  O  O18  1  0.10687500  0.97973800  0.91639100  1
  O  O19  1  0.31621800  0.95918500  0.94159700  1
  O  O20  1  0.81621800  0.04081500  0.55840300  1
  O  O21  1  0.29776100  0.46502700  0.45754500  1
  O  O22  1  0.86485300  0.54051600  0.32224900  1
  O  O23  1  0.60687500  0.02026200  0.58360900  1
  O  O24  1  0.51671600  0.46895900  0.37136600  1
  O  O25  1  0.26275700  0.97013900  0.69420600  1
  O  O26  1  0.03453800  0.99818400  0.63713800  1
  O  O27  1  0.07258100  0.45205700  0.39813200  1
  O  O28  1  0.57258100  0.54794300  0.10186800  1
  O  O29  1  0.01671600  0.53104100  0.12863400  1
  O  O30  1  0.36485300  0.45948400  0.17775100  1
  O  O31  1  0.79776100  0.53497300  0.04245500  1
loop_
_geom_bond_atom_site_label_1
_geom_bond_atom_site_label_2
_geom_bond_distance
_geom_bond_site_symmetry_2
Li0 O20 1.805779 1_565
Li0 O5 1.988680 1_565
Li0 O26 1.993974 1_655
Li0 O4 2.054798 1_555
Li1 O11 1.912759 1_555
Li1 O25 1.939924 1_555
Li1 O9 2.001014 1_555
Li1 O26 2.303257 1_555
Li2 O28 1.908380 1_555
Li2 O1 2.009350 1_554
Li2 O31 2.038443 1_555
Li2 O12 2.296577 1_555
Li3 O10 1.927246 1_555
Li3 O23 1.950917 1_565
Li3 O7 2.012506 1_555
Li3 O1 2.081815 1_555
Li4 O2 1.861591 1_554
Li4 O13 2.012010 1_555
Li4 O31 2.095906 1_555
Li4 O29 2.105174 1_655
Li5 O15 1.891444 1_545
Li5 O28 1.934799 1_555
Li5 O3 2.015452 1_554
Li5 O30 2.167950 1_555
Li6 O15 1.895600 1_545
Li6 O30 1.932585 1_555
Li6 O14 2.124119 1_545
Li6 O8 2.124154 1_545
Li7 O0 1.927246 1_555
Li7 O18 1.950917 1_545
Li7 O2 2.012506 1_455
Li7 O9 2.081815 1_555
Li8 O20 1.914775 1_565
Li8 O6 1.924920 1_565
Li8 O10 1.925799 1_555
Li8 O23 2.344368 1_565
Li9 O4 1.908380 1_555
Li9 O22 2.009350 1_555
Li9 O10 2.038443 1_555
Li9 O20 2.296577 1_555
Li10 O12 1.912759 1_556
Li10 O17 1.939924 1_555
Li10 O1 2.001014 1_555
Li10 O16 2.303257 1_555
Li11 O19 1.914775 1_544
Li11 O14 1.924920 1_545
Li11 O0 1.925799 1_554
Li11 O18 2.344368 1_544
Li12 O5 1.895600 1_565
Li12 O22 1.932585 1_555
Li12 O6 2.124119 1_565
Li12 O13 2.124154 1_565
Li13 O24 1.861591 1_555
Li13 O23 2.012010 1_555
Li13 O10 2.095906 1_555
Li13 O7 2.105174 1_555
Li14 O19 1.805779 1_545
Li14 O15 1.988680 1_546
Li14 O16 1.993974 1_555
Li14 O3 2.054798 1_555
Li15 O26 1.891444 1_545
Li15 O4 1.934799 1_455
Li15 O27 2.015452 1_555
Li15 O9 2.167950 1_555
Li16 O5 1.891444 1_565
Li16 O27 1.934799 1_655
Li16 O4 2.015452 1_555
Li16 O22 2.167950 1_555
Li17 O12 1.805779 1_565
Li17 O16 1.988680 1_564
Li17 O15 1.993974 1_555
Li17 O28 2.054798 1_555
Li18 O7 1.861591 1_555
Li18 O8 2.012010 1_555
Li18 O21 2.095906 1_555
Li18 O24 2.105174 1_555
Li19 O26 1.895600 1_545
Li19 O9 1.932585 1_555
Li19 O25 2.124119 1_545
Li19 O18 2.124154 1_545
Li20 O12 1.914775 1_566
Li20 O17 1.924920 1_565
Li20 O31 1.925799 1_556
Li20 O13 2.344368 1_566
Li21 O19 1.912759 1_554
Li21 O14 1.939924 1_555
Li21 O30 2.001014 1_555
Li21 O15 2.303257 1_555
Li22 O27 1.908380 1_555
Li22 O9 2.009350 1_555
Li22 O21 2.038443 1_555
Li22 O11 2.296577 1_555
Li23 O11 1.914775 1_545
Li23 O25 1.924920 1_545
Li23 O21 1.925799 1_555
Li23 O8 2.344368 1_545
Li24 O31 1.927246 1_555
Li24 O13 1.950917 1_565
Li24 O29 2.012506 1_655
Li24 O22 2.081815 1_555
Li25 O16 1.895600 1_565
Li25 O1 1.932585 1_555
Li25 O17 2.124119 1_565
Li25 O23 2.124154 1_565
Li26 O16 1.891444 1_565
Li26 O3 1.934799 1_555
Li26 O28 2.015452 1_556
Li26 O1 2.167950 1_555
Li27 O29 1.861591 1_556
Li27 O18 2.012010 1_555
Li27 O0 2.095906 1_555
Li27 O2 2.105174 1_455
Li28 O21 1.927246 1_555
Li28 O8 1.950917 1_545
Li28 O24 2.012506 1_555
Li28 O30 2.081815 1_555
Li29 O3 1.908380 1_555
Li29 O30 2.009350 1_556
Li29 O0 2.038443 1_555
Li29 O19 2.296577 1_555
Li30 O20 1.912759 1_555
Li30 O6 1.939924 1_555
Li30 O22 2.001014 1_555
Li30 O5 2.303257 1_555
Li31 O11 1.805779 1_545
Li31 O26 1.988680 1_545
Li31 O5 1.993974 1_455
Li31 O27 2.054798 1_555
Ni0 O2 1.927905 1_455
Ni0 O26 1.948273 1_555
Ni0 O4 1.987107 1_455
Ni0 O9 2.020782 1_555
Ni1 O12 1.915323 1_555
Ni1 O31 1.967841 1_555
Ni1 O6 1.998503 1_555
Ni1 O13 2.059430 1_555
Ni2 O7 1.927905 1_555
Ni2 O16 1.948273 1_555
Ni2 O3 1.987107 1_555
Ni2 O1 2.020782 1_555
Ni3 O11 1.915323 1_555
Ni3 O21 1.967841 1_555
Ni3 O14 1.998503 1_555
Ni3 O8 2.059430 1_555
Ni4 O20 1.915323 1_555
Ni4 O10 1.967841 1_555
Ni4 O17 1.998503 1_555
Ni4 O23 2.059430 1_555
Ni5 O24 1.927905 1_555
Ni5 O15 1.948273 1_555
Ni5 O28 1.987107 1_555
Ni5 O30 2.020782 1_555
Ni6 O19 1.915323 1_555
Ni6 O0 1.967841 1_555
Ni6 O25 1.998503 1_555
Ni6 O18 2.059430 1_555
Ni7 O29 1.927905 1_655
Ni7 O5 1.948273 1_555
Ni7 O27 1.987107 1_655
Ni7 O22 2.020782 1_555
O0 Sr2 2.861046 1_555
O0 Sr7 3.213429 1_556
O1 Sr0 2.573800 1_555
O2 Sr4 2.441917 1_555
O2 Sr0 3.056619 1_555
O3 Sr2 2.587490 1_555
O4 Sr0 2.587490 1_555
O5 Sr3 2.725364 1_645
O6 Sr5 2.585203 1_545
O6 Sr1 2.679239 1_555
O7 Sr6 2.441917 1_555
O7 Sr2 3.056619 1_555
O8 Sr1 2.577952 1_565
O8 Sr6 2.804236 1_555
O9 Sr2 2.573800 1_555
O10 Sr0 2.861046 1_555
O10 Sr5 3.213429 1_555
O11 Sr7 2.634664 1_565
O12 Sr5 2.634664 1_545
O13 Sr3 2.577952 1_645
O13 Sr4 2.804236 1_554
O14 Sr7 2.585203 1_565
O14 Sr3 2.679239 1_555
O15 Sr1 2.725364 1_565
O16 Sr6 2.725364 1_545
O17 Sr0 2.585203 1_545
O17 Sr4 2.679239 1_555
O18 Sr4 2.577952 1_465
O18 Sr3 2.804236 1_556
O19 Sr2 2.634664 1_565
O20 Sr0 2.634664 1_545
O21 Sr7 2.861046 1_555
O21 Sr2 3.213429 1_555
O22 Sr5 2.573800 1_555
O23 Sr6 2.577952 1_545
O23 Sr1 2.804236 1_555
O24 Sr1 2.441917 1_555
O24 Sr5 3.056619 1_555
O25 Sr2 2.585203 1_565
O25 Sr6 2.679239 1_555
O26 Sr4 2.725364 1_465
O27 Sr7 2.587490 1_555
O28 Sr5 2.587490 1_555
O29 Sr3 2.441917 1_555
O29 Sr7 3.056619 1_555
O30 Sr7 2.573800 1_555
O31 Sr5 2.861046 1_555
O31 Sr0 3.213429 1_554
