# generated using pymatgen
data_Al2HgTe4
_symmetry_space_group_name_H-M   'P 1'
_cell_length_a   6.22638849
_cell_length_b   6.22638920
_cell_length_c   7.40470651
_cell_angle_alpha   114.86202844
_cell_angle_beta   114.86202244
_cell_angle_gamma   90.00000022
_symmetry_Int_Tables_number   1
_chemical_formula_structural   Al2HgTe4
_chemical_formula_sum   'Al2 Hg1 Te4'
_cell_volume   230.80986891
_cell_formula_units_Z   1
loop_
 _symmetry_equiv_pos_site_id
 _symmetry_equiv_pos_as_xyz
  1  'x, y, z'
loop_
 _atom_site_type_symbol
 _atom_site_label
 _atom_site_symmetry_multiplicity
 _atom_site_fract_x
 _atom_site_fract_y
 _atom_site_fract_z
 _atom_site_occupancy
  Al  Al0  1  0.25000000  0.75000000  0.50000000  1
  Al  Al1  1  0.50000000  0.50000000  0.00000000  1
  Hg  Hg0  1  0.00000000  0.00000000  0.00000000  1
  Te  Te0  1  0.86418878  0.87941427  0.27428780  1
  Te  Te1  1  0.41010002  0.39487453  0.27428780  1
  Te  Te2  1  0.12058573  0.58989998  0.72571220  1
  Te  Te3  1  0.60512547  0.13581122  0.72571220  1
loop_
_geom_bond_atom_site_label_1
_geom_bond_atom_site_label_2
_geom_bond_distance
_geom_bond_site_symmetry_2
Al0 Te3 2.640012 1_565
Al0 Te0 2.640016 1_455
Al0 Te1 2.640016 1_555
Al0 Te2 2.640020 1_555
Al1 Te1 2.634506 1_555
Al1 Te3 2.634509 1_554
Al1 Te2 2.634510 1_554
Al1 Te0 2.634513 1_555
Hg0 Te0 2.851358 1_445
Hg0 Te3 2.851362 1_454
Hg0 Te2 2.851362 1_544
Hg0 Te1 2.851365 1_555
