# generated using pymatgen
data_CdCN3Cl2O
_symmetry_space_group_name_H-M   'P 1'
_cell_length_a   7.03084100
_cell_length_b   9.34463800
_cell_length_c   12.42590200
_cell_angle_alpha   90.00000000
_cell_angle_beta   90.00000000
_cell_angle_gamma   90.00000000
_symmetry_Int_Tables_number   1
_chemical_formula_structural   CdCN3Cl2O
_chemical_formula_sum   'Cd4 C4 N12 Cl8 O4'
_cell_volume   816.39001196
_cell_formula_units_Z   4
loop_
 _symmetry_equiv_pos_site_id
 _symmetry_equiv_pos_as_xyz
  1  'x, y, z'
loop_
 _atom_site_type_symbol
 _atom_site_label
 _atom_site_symmetry_multiplicity
 _atom_site_fract_x
 _atom_site_fract_y
 _atom_site_fract_z
 _atom_site_occupancy
  Cd  Cd0  1  0.05128900  0.29551600  0.04154200  1
  Cd  Cd1  1  0.94871100  0.70448400  0.54154200  1
  Cd  Cd2  1  0.44871100  0.79551600  0.54154200  1
  Cd  Cd3  1  0.55128900  0.20448400  0.04154200  1
  C  C0  1  0.06415700  0.70792000  0.13071900  1
  C  C1  1  0.93584300  0.29208000  0.63071900  1
  C  C2  1  0.43584300  0.20792000  0.63071900  1
  C  C3  1  0.56415700  0.79208000  0.13071900  1
  N  N0  1  0.87964100  0.65631700  0.89361100  1
  N  N1  1  0.12035900  0.34368300  0.39361100  1
  N  N2  1  0.62035900  0.15631700  0.39361100  1
  N  N3  1  0.37964100  0.84368300  0.89361100  1
  N  N4  1  0.89643800  0.53798400  0.89889400  1
  N  N5  1  0.10356200  0.46201600  0.39889400  1
  N  N6  1  0.60356200  0.03798400  0.39889400  1
  N  N7  1  0.39643800  0.96201600  0.89889400  1
  N  N8  1  0.03972500  0.83621600  0.11577600  1
  N  N9  1  0.96027500  0.16378400  0.61577600  1
  N  N10  1  0.46027500  0.33621600  0.61577600  1
  N  N11  1  0.53972500  0.66378400  0.11577600  1
  Cl  Cl0  1  0.77819900  0.34023700  0.17005400  1
  Cl  Cl1  1  0.22180100  0.65976300  0.67005400  1
  Cl  Cl2  1  0.72180100  0.84023700  0.67005400  1
  Cl  Cl3  1  0.27819900  0.15976300  0.17005400  1
  Cl  Cl4  1  0.83130500  0.13774600  0.92532400  1
  Cl  Cl5  1  0.16869500  0.86225400  0.42532400  1
  Cl  Cl6  1  0.66869500  0.63774600  0.42532400  1
  Cl  Cl7  1  0.33130500  0.36225400  0.92532400  1
  O  O0  1  0.08496300  0.58220700  0.14617900  1
  O  O1  1  0.91503700  0.41779300  0.64617900  1
  O  O2  1  0.41503700  0.08220700  0.64617900  1
  O  O3  1  0.58496300  0.91779300  0.14617900  1
loop_
_geom_bond_atom_site_label_1
_geom_bond_atom_site_label_2
_geom_bond_distance
_geom_bond_site_symmetry_2
Cd0 Cl7 2.519993 1_554
Cd0 Cl0 2.532047 1_455
Cd0 Cl4 2.578998 1_454
Cd0 Cl3 2.589299 1_555
Cd1 Cl6 2.519993 1_555
Cd1 Cl1 2.532047 1_655
Cd1 Cl5 2.578998 1_655
Cd1 Cl2 2.589299 1_555
Cd2 Cl5 2.519993 1_555
Cd2 Cl2 2.532047 1_555
Cd2 Cl6 2.578998 1_555
Cd2 Cl1 2.589299 1_555
Cd3 Cl4 2.519993 1_554
Cd3 Cl3 2.532047 1_555
Cd3 Cl7 2.578998 1_554
Cd3 Cl0 2.589299 1_555
C0 O0 1.199301 1_555
C0 N8 1.225274 1_555
C1 O1 1.199301 1_555
C1 N9 1.225274 1_555
C2 O2 1.199301 1_555
C2 N10 1.225274 1_555
C3 O3 1.199301 1_555
C3 N11 1.225274 1_555
N0 N4 1.114003 1_555
N1 N5 1.114003 1_555
N2 N6 1.114003 1_555
N3 N7 1.114003 1_555
