# generated using pymatgen
data_FeCuS2
_symmetry_space_group_name_H-M   'P 1'
_cell_length_a   3.80574178
_cell_length_b   3.80574178
_cell_length_c   6.25314100
_cell_angle_alpha   90.00000000
_cell_angle_beta   90.00000000
_cell_angle_gamma   119.99999620
_symmetry_Int_Tables_number   1
_chemical_formula_structural   FeCuS2
_chemical_formula_sum   'Fe1 Cu1 S2'
_cell_volume   78.43456752
_cell_formula_units_Z   1
loop_
 _symmetry_equiv_pos_site_id
 _symmetry_equiv_pos_as_xyz
  1  'x, y, z'
loop_
 _atom_site_type_symbol
 _atom_site_label
 _atom_site_symmetry_multiplicity
 _atom_site_fract_x
 _atom_site_fract_y
 _atom_site_fract_z
 _atom_site_occupancy
  Fe  Fe0  1  0.66666700  0.33333300  0.63201900  1
  Cu  Cu0  1  0.00000000  0.00000000  0.35643400  1
  S  S0  1  0.66666700  0.33333300  0.26864100  1
  S  S1  1  0.00000000  0.00000000  0.74290600  1
loop_
_geom_bond_atom_site_label_1
_geom_bond_atom_site_label_2
_geom_bond_distance
_geom_bond_site_symmetry_2
Fe0 S0 2.272254 1_555
Fe0 S1 2.304056 1_655
Fe0 S1 2.304059 1_555
Fe0 S1 2.304059 1_665
Cu0 S0 2.264787 1_455
Cu0 S0 2.264791 1_445
Cu0 S0 2.264791 1_555
Cu0 S1 2.416664 1_555
