# generated using pymatgen
data_Li3Cr4FeO8
_symmetry_space_group_name_H-M   'P 1'
_cell_length_a   6.08277835
_cell_length_b   6.08277835
_cell_length_c   5.85200100
_cell_angle_alpha   61.97859397
_cell_angle_beta   61.97859397
_cell_angle_gamma   58.34810014
_symmetry_Int_Tables_number   1
_chemical_formula_structural   Li3Cr4FeO8
_chemical_formula_sum   'Li3 Cr4 Fe1 O8'
_cell_volume   155.36265252
_cell_formula_units_Z   1
loop_
 _symmetry_equiv_pos_site_id
 _symmetry_equiv_pos_as_xyz
  1  'x, y, z'
loop_
 _atom_site_type_symbol
 _atom_site_label
 _atom_site_symmetry_multiplicity
 _atom_site_fract_x
 _atom_site_fract_y
 _atom_site_fract_z
 _atom_site_occupancy
  Li  Li0  1  0.00000000  0.50000000  0.50000000  1
  Li  Li1  1  0.00000000  0.00000000  0.50000000  1
  Li  Li2  1  0.50000000  0.00000000  0.50000000  1
  Cr  Cr0  1  0.50000000  0.50000000  0.50000000  1
  Cr  Cr1  1  0.00000000  0.00000000  0.00000000  1
  Cr  Cr2  1  0.00000000  0.50000000  0.00000000  1
  Cr  Cr3  1  0.50000000  0.00000000  0.00000000  1
  Fe  Fe0  1  0.50000000  0.50000000  0.00000000  1
  O  O0  1  0.74602200  0.74602200  0.76898600  1
  O  O1  1  0.73872600  0.22531600  0.76966000  1
  O  O2  1  0.22531600  0.73872600  0.76966000  1
  O  O3  1  0.23090900  0.23090900  0.78021000  1
  O  O4  1  0.76909100  0.76909100  0.21979000  1
  O  O5  1  0.77468400  0.26127400  0.23034000  1
  O  O6  1  0.26127400  0.77468400  0.23034000  1
  O  O7  1  0.25397800  0.25397800  0.23101400  1
loop_
_geom_bond_atom_site_label_1
_geom_bond_atom_site_label_2
_geom_bond_distance
_geom_bond_site_symmetry_2
Li0 O4 2.137802 1_455
Li0 O3 2.137802 1_555
Li0 O0 2.146166 1_455
Li0 O7 2.146166 1_555
Li0 O6 2.400154 1_555
Li0 O1 2.400154 1_455
Li1 O1 2.069805 1_455
Li1 O2 2.069805 1_545
Li1 O6 2.069805 1_545
Li1 O5 2.069805 1_455
Li1 O0 2.277315 1_445
Li1 O7 2.277315 1_555
Li2 O4 2.137802 1_545
Li2 O3 2.137802 1_555
Li2 O7 2.146166 1_555
Li2 O0 2.146166 1_545
Li2 O5 2.400154 1_555
Li2 O2 2.400154 1_545
Cr0 O6 2.126005 1_555
Cr0 O5 2.126005 1_555
Cr0 O2 2.126005 1_555
Cr0 O1 2.126005 1_555
Cr0 O4 2.411483 1_555
Cr0 O3 2.411483 1_555
Cr1 O6 2.052353 1_545
Cr1 O5 2.052353 1_455
Cr1 O1 2.052353 1_454
Cr1 O2 2.052353 1_544
Cr1 O3 2.067738 1_554
Cr1 O4 2.067738 1_445
Cr2 O7 2.022099 1_555
Cr2 O0 2.022099 1_454
Cr2 O3 2.043075 1_554
Cr2 O4 2.043075 1_455
Cr2 O2 2.077918 1_554
Cr2 O5 2.077918 1_455
Cr3 O7 2.022099 1_555
Cr3 O0 2.022099 1_544
Cr3 O3 2.043075 1_554
Cr3 O4 2.043075 1_545
Cr3 O1 2.077918 1_554
Cr3 O6 2.077918 1_545
Fe0 O5 2.109018 1_555
Fe0 O6 2.109018 1_555
Fe0 O2 2.109018 1_554
Fe0 O1 2.109018 1_554
Fe0 O0 2.203449 1_554
Fe0 O7 2.203449 1_555
