# generated using pymatgen
data_K8Li3Mn4O16
_symmetry_space_group_name_H-M   'P 1'
_cell_length_a   5.74399550
_cell_length_b   8.14094341
_cell_length_c   11.13527685
_cell_angle_alpha   91.84149481
_cell_angle_beta   86.22343967
_cell_angle_gamma   90.08507726
_symmetry_Int_Tables_number   1
_chemical_formula_structural   K8Li3Mn4O16
_chemical_formula_sum   'K8 Li3 Mn4 O16'
_cell_volume   519.30357526
_cell_formula_units_Z   1
loop_
 _symmetry_equiv_pos_site_id
 _symmetry_equiv_pos_as_xyz
  1  'x, y, z'
loop_
 _atom_site_type_symbol
 _atom_site_label
 _atom_site_symmetry_multiplicity
 _atom_site_fract_x
 _atom_site_fract_y
 _atom_site_fract_z
 _atom_site_occupancy
  K  K0  1  0.24540100  0.97637400  0.17185700  1
  K  K1  1  0.24117100  0.25867800  0.65464500  1
  K  K2  1  0.24859800  0.45791100  0.33032400  1
  K  K3  1  0.73844600  0.24252300  0.15146800  1
  K  K4  1  0.25701200  0.75306000  0.85513100  1
  K  K5  1  0.74636400  0.52711400  0.68129300  1
  K  K6  1  0.77091200  0.77344300  0.36630700  1
  K  K7  1  0.75170800  0.01416900  0.78305500  1
  Li  Li0  1  0.30486000  0.52522300  0.06359000  1
  Li  Li1  1  0.19341100  0.02743300  0.44331400  1
  Li  Li2  1  0.68976300  0.46518300  0.93738400  1
  Mn  Mn0  1  0.19975000  0.26784000  0.94052000  1
  Mn  Mn1  1  0.29095100  0.76996400  0.55765100  1
  Mn  Mn2  1  0.71723400  0.22929400  0.44422700  1
  Mn  Mn3  1  0.79267000  0.72452900  0.05946600  1
  O  O0  1  0.07623600  0.69347900  0.09541400  1
  O  O1  1  0.20842700  0.29340500  0.09571200  1
  O  O2  1  0.13365200  0.93281300  0.61397600  1
  O  O3  1  0.18192300  0.58721200  0.59885100  1
  O  O4  1  0.29004100  0.78915100  0.40529100  1
  O  O5  1  0.44293300  0.17727900  0.40091400  1
  O  O6  1  0.30410200  0.08266100  0.88886900  1
  O  O7  1  0.62114400  0.56014200  0.10904600  1
  O  O8  1  0.37425800  0.42931500  0.88635700  1
  O  O9  1  0.69842200  0.90779000  0.11957200  1
  O  O10  1  0.55998800  0.79109000  0.60410200  1
  O  O11  1  0.72160100  0.22264800  0.59678600  1
  O  O12  1  0.77197800  0.42480000  0.40066300  1
  O  O13  1  0.92012300  0.09912200  0.37132600  1
  O  O14  1  0.77847300  0.70559300  0.90373200  1
  O  O15  1  0.92176200  0.29655500  0.89574400  1
loop_
_geom_bond_atom_site_label_1
_geom_bond_atom_site_label_2
_geom_bond_distance
_geom_bond_site_symmetry_2
K0 O0 2.636097 1_555
K0 O9 2.684352 1_555
K0 O1 2.755219 1_565
K0 O13 2.956207 1_465
K0 O4 3.080433 1_555
K0 O5 3.252022 1_565
K0 O9 3.276700 1_455
K0 O6 3.290371 1_564
K1 O2 2.752975 1_545
K1 O3 2.791508 1_555
K1 O11 2.805798 1_555
K1 O8 3.032779 1_555
K1 O5 3.035708 1_555
K1 O6 3.058163 1_555
K1 O11 3.105859 1_455
K1 O15 3.157278 1_455
K2 O5 2.705902 1_555
K2 O4 2.811548 1_555
K2 O12 2.812482 1_455
K2 O1 2.919832 1_555
K2 O3 3.137451 1_555
K2 O12 3.170187 1_555
K3 O7 2.736543 1_555
K3 O9 2.748008 1_545
K3 O1 2.763538 1_655
K3 O13 2.994879 1_555
K3 O15 3.015784 1_554
K3 O12 3.121509 1_555
K3 O1 3.177239 1_555
K3 O5 3.217104 1_555
K4 O6 2.713051 1_565
K4 O8 2.759674 1_555
K4 O14 2.795000 1_455
K4 O0 2.861529 1_556
K4 O14 3.105521 1_555
K4 O3 3.172637 1_555
K4 O10 3.217335 1_555
K4 O2 3.218816 1_555
K5 O10 2.598057 1_555
K5 O11 2.629842 1_555
K5 O3 2.657828 1_655
K5 O14 2.847526 1_555
K6 O4 2.770133 1_555
K6 O13 2.785193 1_565
K6 O10 2.837850 1_555
K6 O12 2.876176 1_555
K6 O4 3.043384 1_655
K6 O9 3.043568 1_555
K7 O11 2.736228 1_555
K7 O15 2.789800 1_555
K7 O6 2.805793 1_555
K7 O2 2.859469 1_645
K7 O14 2.895741 1_545
K7 O10 2.920997 1_545
Li0 O0 1.907670 1_555
Li0 O7 1.935947 1_555
Li0 O1 2.002630 1_555
Li0 O8 2.112258 1_554
Li1 O13 1.909422 1_455
Li1 O5 1.925600 1_555
Li1 O4 2.042002 1_545
Li1 O2 2.080852 1_545
Li2 O15 1.938686 1_555
Li2 O8 1.953410 1_555
Li2 O7 2.052681 1_556
Li2 O14 2.061449 1_555
Mn0 O6 1.692415 1_555
Mn0 O15 1.722314 1_455
Mn0 O1 1.737915 1_556
Mn0 O8 1.750421 1_555
Mn1 O10 1.668535 1_555
Mn1 O3 1.679105 1_555
Mn1 O2 1.686059 1_555
Mn1 O4 1.709088 1_555
Mn2 O12 1.701599 1_555
Mn2 O11 1.703220 1_555
Mn2 O13 1.721594 1_555
Mn2 O5 1.726090 1_555
Mn3 O9 1.690367 1_555
Mn3 O0 1.723583 1_655
Mn3 O7 1.743094 1_555
Mn3 O14 1.743293 1_554
