# generated using pymatgen
data_Ba6Ta9Ti7O42
_symmetry_space_group_name_H-M   'P 1'
_cell_length_a   9.16454978
_cell_length_b   9.16454978
_cell_length_c   11.96307700
_cell_angle_alpha   89.99982734
_cell_angle_beta   89.99982734
_cell_angle_gamma   119.90768840
_symmetry_Int_Tables_number   1
_chemical_formula_structural   Ba6Ta9Ti7O42
_chemical_formula_sum   'Ba6 Ta9 Ti7 O42'
_cell_volume   870.96163488
_cell_formula_units_Z   1
loop_
 _symmetry_equiv_pos_site_id
 _symmetry_equiv_pos_as_xyz
  1  'x, y, z'
loop_
 _atom_site_type_symbol
 _atom_site_label
 _atom_site_symmetry_multiplicity
 _atom_site_fract_x
 _atom_site_fract_y
 _atom_site_fract_z
 _atom_site_occupancy
  Ba  Ba0  1  0.59558000  0.59558000  0.75617000  1
  Ba  Ba1  1  0.41143100  0.41143100  0.25014400  1
  Ba  Ba2  1  0.40679800  0.99939700  0.75635700  1
  Ba  Ba3  1  0.59476400  0.99515100  0.25057500  1
  Ba  Ba4  1  0.99515100  0.59476400  0.25057500  1
  Ba  Ba5  1  0.99939700  0.40679800  0.75635700  1
  Ta  Ta0  1  0.24569100  0.24569100  0.59199800  1
  Ta  Ta1  1  0.66546200  0.33417100  0.99631900  1
  Ta  Ta2  1  0.66675700  0.33370900  0.49371200  1
  Ta  Ta3  1  0.24189200  0.99744400  0.09145400  1
  Ta  Ta4  1  0.99881000  0.75498400  0.59382900  1
  Ta  Ta5  1  0.75498400  0.99881000  0.59382900  1
  Ta  Ta6  1  0.33417100  0.66546200  0.99631900  1
  Ta  Ta7  1  0.33370900  0.66675700  0.49371200  1
  Ta  Ta8  1  0.99744400  0.24189200  0.09145400  1
  Ti  Ti0  1  0.74979600  0.74979600  0.09049100  1
  Ti  Ti1  1  0.75867500  0.75867500  0.39876000  1
  Ti  Ti2  1  0.24486600  0.24486600  0.90474400  1
  Ti  Ti3  1  0.24464700  0.99994200  0.40418300  1
  Ti  Ti4  1  0.99523700  0.75349700  0.90873900  1
  Ti  Ti5  1  0.75349700  0.99523700  0.90873900  1
  Ti  Ti6  1  0.99994200  0.24464700  0.40418300  1
  O  O0  1  0.79963000  0.79963000  0.92657700  1
  O  O1  1  0.80013100  0.80013100  0.57734400  1
  O  O2  1  0.78621800  0.78621800  0.24851800  1
  O  O3  1  0.68694500  0.51863300  0.09792100  1
  O  O4  1  0.68727000  0.51908500  0.40054400  1
  O  O5  1  0.20995000  0.20995000  0.75100200  1
  O  O6  1  0.20296700  0.20296700  0.42544300  1
  O  O7  1  0.20154700  0.20154700  0.07642100  1
  O  O8  1  0.83159900  0.51875900  0.89945200  1
  O  O9  1  0.83081900  0.51615000  0.59939000  1
  O  O10  1  0.48100000  0.31332200  0.90036500  1
  O  O11  1  0.48387600  0.31475700  0.59942500  1
  O  O12  1  0.48061600  0.16720800  0.40111100  1
  O  O13  1  0.48287600  0.16886800  0.09898800  1
  O  O14  1  0.83263600  0.31313000  0.40066500  1
  O  O15  1  0.83180600  0.31619700  0.10069700  1
  O  O16  1  0.20373500  0.00212000  0.92518800  1
  O  O17  1  0.20121400  0.00003800  0.57610600  1
  O  O18  1  0.20934400  0.00000100  0.25113800  1
  O  O19  1  0.68808100  0.16764200  0.90347300  1
  O  O20  1  0.68546600  0.16903700  0.59888600  1
  O  O21  1  0.99975800  0.79890800  0.42530600  1
  O  O22  1  0.00164900  0.79914700  0.07531000  1
  O  O23  1  0.99992700  0.78951700  0.75206100  1
  O  O24  1  0.31313000  0.83263600  0.40066500  1
  O  O25  1  0.31619700  0.83180600  0.10069700  1
  O  O26  1  0.78951700  0.99992700  0.75206100  1
  O  O27  1  0.79890800  0.99975800  0.42530600  1
  O  O28  1  0.79914700  0.00164900  0.07531000  1
  O  O29  1  0.16764200  0.68808100  0.90347300  1
  O  O30  1  0.16903700  0.68546600  0.59888600  1
  O  O31  1  0.51615000  0.83081900  0.59939000  1
  O  O32  1  0.51875900  0.83159900  0.89945200  1
  O  O33  1  0.51908500  0.68727000  0.40054400  1
  O  O34  1  0.51863300  0.68694500  0.09792100  1
  O  O35  1  0.16720800  0.48061600  0.40111100  1
  O  O36  1  0.16886800  0.48287600  0.09898800  1
  O  O37  1  0.31475700  0.48387600  0.59942500  1
  O  O38  1  0.31332200  0.48100000  0.90036500  1
  O  O39  1  0.00000100  0.20934400  0.25113800  1
  O  O40  1  0.00003800  0.20121400  0.57610600  1
  O  O41  1  0.00212000  0.20373500  0.92518800  1
loop_
_geom_bond_atom_site_label_1
_geom_bond_atom_site_label_2
_geom_bond_distance
_geom_bond_site_symmetry_2
Ba0 O0 2.768152 1_555
Ba0 O38 2.839181 1_555
Ba0 O10 2.839181 1_555
Ba0 O1 2.846155 1_555
Ba0 O11 2.925822 1_555
Ba0 O37 2.925822 1_555
Ba0 O8 3.103379 1_555
Ba0 O32 3.103379 1_555
Ba0 O9 3.203176 1_555
Ba0 O31 3.203176 1_555
Ba0 O23 3.213320 1_555
Ba0 O26 3.213320 1_555
Ba1 O7 2.833615 1_555
Ba1 O6 2.838655 1_555
Ba1 O4 2.848523 1_555
Ba1 O33 2.848523 1_555
Ba1 O34 2.860615 1_555
Ba1 O3 2.860615 1_555
Ba2 O16 2.754906 1_565
Ba2 O32 2.814527 1_555
Ba2 O19 2.855960 1_565
Ba2 O17 2.865440 1_565
Ba2 O31 2.908832 1_555
Ba2 O20 2.920394 1_565
Ba2 O10 3.123539 1_565
Ba2 O29 3.131364 1_555
Ba2 O30 3.212893 1_555
Ba2 O11 3.215672 1_565
Ba2 O5 3.233175 1_565
Ba2 O23 3.233274 1_455
Ba3 O27 2.791540 1_555
Ba3 O28 2.792293 1_565
Ba3 O25 2.856979 1_555
Ba3 O24 2.875856 1_555
Ba3 O12 2.910124 1_565
Ba3 O13 2.915912 1_565
Ba3 O33 3.116029 1_555
Ba3 O34 3.136057 1_555
Ba3 O2 3.177393 1_555
Ba3 O14 3.183316 1_565
Ba3 O15 3.196405 1_565
Ba3 O39 3.221175 1_665
Ba4 O21 2.791540 1_555
Ba4 O22 2.792293 1_655
Ba4 O15 2.856979 1_555
Ba4 O14 2.875856 1_555
Ba4 O35 2.910124 1_655
Ba4 O36 2.915912 1_655
Ba4 O4 3.116029 1_555
Ba4 O3 3.136057 1_555
Ba4 O2 3.177393 1_555
Ba4 O24 3.183316 1_655
Ba4 O25 3.196405 1_655
Ba4 O18 3.221175 1_665
Ba5 O41 2.754906 1_655
Ba5 O8 2.814527 1_555
Ba5 O29 2.855960 1_655
Ba5 O40 2.865440 1_655
Ba5 O9 2.908832 1_555
Ba5 O30 2.920394 1_655
Ba5 O38 3.123539 1_655
Ba5 O19 3.131364 1_555
Ba5 O20 3.212893 1_555
Ba5 O37 3.215672 1_655
Ba5 O5 3.233175 1_655
Ba5 O26 3.233274 1_545
O0 Ti0 2.013540 1_556
O0 Ti4 2.047847 1_555
O0 Ti5 2.047847 1_555
O1 Ta4 2.068011 1_555
O1 Ta5 2.068011 1_555
O1 Ti1 2.170028 1_555
O2 Ti1 1.815042 1_555
O2 Ti0 1.919814 1_555
O3 Ti0 1.900233 1_555
O3 Ta1 2.010491 1_554
O4 Ti1 1.953733 1_555
O4 Ta2 1.960954 1_555
O5 Ti2 1.866934 1_555
O5 Ta0 1.930248 1_555
O6 Ta0 2.030725 1_555
O6 Ti3 2.093153 1_545
O6 Ti6 2.093153 1_455
O7 Ta3 2.087474 1_545
O7 Ta8 2.087474 1_455
O7 Ti2 2.091906 1_554
O8 Ti4 1.916279 1_555
O8 Ta1 1.988548 1_555
O9 Ta4 1.950680 1_555
O9 Ta2 2.036573 1_555
O10 Ti2 1.930188 1_555
O10 Ta1 1.972290 1_555
O11 Ta0 1.948230 1_555
O11 Ta2 2.036728 1_555
O12 Ti3 1.929262 1_545
O12 Ta2 1.967215 1_555
O13 Ta3 1.973277 1_545
O13 Ta1 2.018827 1_554
O14 Ti6 1.925165 1_555
O14 Ta2 1.967625 1_555
O15 Ta8 1.952202 1_555
O15 Ta1 2.039796 1_554
O16 Ta3 2.023709 1_546
O16 Ti2 2.077202 1_555
O16 Ti4 2.130699 1_445
O17 Ta0 2.086995 1_555
O17 Ta4 2.091698 1_445
O17 Ti3 2.094974 1_545
O18 Ti3 1.859303 1_545
O18 Ta3 1.935403 1_545
O19 Ti5 1.950490 1_545
O19 Ta1 1.980238 1_555
O20 Ta5 1.958179 1_545
O20 Ta2 2.036669 1_555
O21 Ta4 2.055017 1_555
O21 Ti1 2.075080 1_555
O21 Ti3 2.090882 1_655
O22 Ti4 2.030968 1_454
O22 Ta3 2.048766 1_555
O22 Ti0 2.126958 1_455
O23 Ti4 1.899962 1_555
O23 Ta4 1.918402 1_555
O24 Ti3 1.925165 1_555
O24 Ta7 1.967625 1_555
O25 Ta3 1.952202 1_555
O25 Ta6 2.039796 1_554
O26 Ti5 1.899962 1_555
O26 Ta5 1.918402 1_555
O27 Ta5 2.055017 1_555
O27 Ti1 2.075080 1_555
O27 Ti6 2.090882 1_565
O28 Ti5 2.030968 1_544
O28 Ta8 2.048766 1_555
O28 Ti0 2.126958 1_545
O29 Ti4 1.950490 1_455
O29 Ta6 1.980238 1_555
O30 Ta4 1.958179 1_455
O30 Ta7 2.036669 1_555
O31 Ta5 1.950680 1_555
O31 Ta7 2.036573 1_555
O32 Ti5 1.916279 1_555
O32 Ta6 1.988548 1_555
O33 Ti1 1.953733 1_555
O33 Ta7 1.960954 1_555
O34 Ti0 1.900233 1_555
O34 Ta6 2.010491 1_554
O35 Ti6 1.929262 1_455
O35 Ta7 1.967215 1_555
O36 Ta8 1.973277 1_455
O36 Ta6 2.018827 1_554
O37 Ta0 1.948230 1_555
O37 Ta7 2.036728 1_555
O38 Ti2 1.930188 1_555
O38 Ta6 1.972290 1_555
O39 Ti6 1.859303 1_455
O39 Ta8 1.935403 1_455
O40 Ta0 2.086995 1_555
O40 Ta5 2.091698 1_445
O40 Ti6 2.094974 1_455
O41 Ta8 2.023709 1_456
O41 Ti2 2.077202 1_555
O41 Ti5 2.130699 1_445
