# generated using pymatgen
data_Li3Cr2(PO4)3
_symmetry_space_group_name_H-M   'P 1'
_cell_length_a   8.72633700
_cell_length_b   8.68440100
_cell_length_c   14.91830423
_cell_angle_alpha   54.35733861
_cell_angle_beta   90.00000000
_cell_angle_gamma   90.00000000
_symmetry_Int_Tables_number   1
_chemical_formula_structural   Li3Cr2(PO4)3
_chemical_formula_sum   'Li12 Cr8 P12 O48'
_cell_volume   918.76403398
_cell_formula_units_Z   4
loop_
 _symmetry_equiv_pos_site_id
 _symmetry_equiv_pos_as_xyz
  1  'x, y, z'
loop_
 _atom_site_type_symbol
 _atom_site_label
 _atom_site_symmetry_multiplicity
 _atom_site_fract_x
 _atom_site_fract_y
 _atom_site_fract_z
 _atom_site_occupancy
  Li  Li0  1  0.90790000  0.38864600  0.69670900  1
  Li  Li1  1  0.28978100  0.32857200  0.75269000  1
  Li  Li2  1  0.22843800  0.03401800  0.17734900  1
  Li  Li3  1  0.72843800  0.96598200  0.32265100  1
  Li  Li4  1  0.78978100  0.67142800  0.74731000  1
  Li  Li5  1  0.40790000  0.61135400  0.80329100  1
  Li  Li6  1  0.59210000  0.38864600  0.19670900  1
  Li  Li7  1  0.21021900  0.32857200  0.25269000  1
  Li  Li8  1  0.27156200  0.03401800  0.67734900  1
  Li  Li9  1  0.77156200  0.96598200  0.82265100  1
  Li  Li10  1  0.71021900  0.67142800  0.24731000  1
  Li  Li11  1  0.09210000  0.61135400  0.30329100  1
  Cr  Cr0  1  0.54280100  0.13465200  0.11315900  1
  Cr  Cr1  1  0.96385600  0.36317100  0.88793900  1
  Cr  Cr2  1  0.46385600  0.63682900  0.61206100  1
  Cr  Cr3  1  0.04280100  0.86534800  0.38684100  1
  Cr  Cr4  1  0.95719900  0.13465200  0.61315900  1
  Cr  Cr5  1  0.53614400  0.36317100  0.38793900  1
  Cr  Cr6  1  0.03614400  0.63682900  0.11206100  1
  Cr  Cr7  1  0.45719900  0.86534800  0.88684100  1
  P  P0  1  0.75071900  0.54309100  0.49435000  1
  P  P1  1  0.60949400  0.25137200  0.85212500  1
  P  P2  1  0.90016000  0.95654200  0.14799200  1
  P  P3  1  0.40016000  0.04345800  0.35200800  1
  P  P4  1  0.10949400  0.74862800  0.64787500  1
  P  P5  1  0.25071900  0.45690900  0.00565000  1
  P  P6  1  0.74928100  0.54309100  0.99435000  1
  P  P7  1  0.89050600  0.25137200  0.35212500  1
  P  P8  1  0.59984000  0.95654200  0.64799200  1
  P  P9  1  0.09984000  0.04345800  0.85200800  1
  P  P10  1  0.39050600  0.74862800  0.14787500  1
  P  P11  1  0.24928100  0.45690900  0.50565000  1
  O  O0  1  0.14190000  0.62515000  0.42518700  1
  O  O1  1  0.32199400  0.47804900  0.59252500  1
  O  O2  1  0.09923800  0.23723700  0.83723200  1
  O  O3  1  0.40496700  0.91016100  0.16279700  1
  O  O4  1  0.63655500  0.55326000  0.56796400  1
  O  O5  1  0.77447000  0.33358800  0.81431300  1
  O  O6  1  0.84064900  0.73229300  0.42618400  1
  O  O7  1  0.58055800  0.18472600  0.96969300  1
  O  O8  1  0.93778200  0.12354300  0.03263200  1
  O  O9  1  0.73637000  0.96688500  0.18635700  1
  O  O10  1  0.02382800  0.93487900  0.23011200  1
  O  O11  1  0.48670000  0.40737100  0.77653300  1
  O  O12  1  0.98670000  0.59262900  0.72346700  1
  O  O13  1  0.52382800  0.06512100  0.26988800  1
  O  O14  1  0.23637000  0.03311500  0.31364300  1
  O  O15  1  0.43778200  0.87645700  0.46736800  1
  O  O16  1  0.08055800  0.81527400  0.53030700  1
  O  O17  1  0.34064900  0.26770700  0.07381600  1
  O  O18  1  0.27447000  0.66641200  0.68568700  1
  O  O19  1  0.13655500  0.44674000  0.93203600  1
  O  O20  1  0.90496700  0.08983900  0.33720300  1
  O  O21  1  0.59923800  0.76276300  0.66276800  1
  O  O22  1  0.82199400  0.52195100  0.90747500  1
  O  O23  1  0.64190000  0.37485000  0.07481300  1
  O  O24  1  0.35810000  0.62515000  0.92518700  1
  O  O25  1  0.17800600  0.47804900  0.09252500  1
  O  O26  1  0.40076200  0.23723700  0.33723200  1
  O  O27  1  0.09503300  0.91016100  0.66279700  1
  O  O28  1  0.86344500  0.55326000  0.06796400  1
  O  O29  1  0.72553000  0.33358800  0.31431300  1
  O  O30  1  0.65935100  0.73229300  0.92618400  1
  O  O31  1  0.91944200  0.18472600  0.46969300  1
  O  O32  1  0.56221800  0.12354300  0.53263200  1
  O  O33  1  0.76363000  0.96688500  0.68635700  1
  O  O34  1  0.47617200  0.93487900  0.73011200  1
  O  O35  1  0.01330000  0.40737100  0.27653300  1
  O  O36  1  0.51330000  0.59262900  0.22346700  1
  O  O37  1  0.97617200  0.06512100  0.76988800  1
  O  O38  1  0.26363000  0.03311500  0.81364300  1
  O  O39  1  0.06221800  0.87645700  0.96736800  1
  O  O40  1  0.41944200  0.81527400  0.03030700  1
  O  O41  1  0.15935100  0.26770700  0.57381600  1
  O  O42  1  0.22553000  0.66641200  0.18568700  1
  O  O43  1  0.36344500  0.44674000  0.43203600  1
  O  O44  1  0.59503300  0.08983900  0.83720300  1
  O  O45  1  0.90076200  0.76276300  0.16276800  1
  O  O46  1  0.67800600  0.52195100  0.40747500  1
  O  O47  1  0.85810000  0.37485000  0.57481300  1
loop_
_geom_bond_atom_site_label_1
_geom_bond_atom_site_label_2
_geom_bond_distance
_geom_bond_site_symmetry_2
Li0 O5 1.919575 1_555
Li0 O47 1.940104 1_555
Li0 O12 2.143465 1_555
Li0 O2 2.387246 1_655
Li0 O37 2.421971 1_555
Li1 O2 1.954133 1_555
Li1 O11 1.957380 1_555
Li1 O1 1.964282 1_555
Li1 O38 2.177931 1_555
Li1 O18 2.491400 1_555
Li2 O10 1.938817 1_545
Li2 O17 1.951892 1_555
Li2 O3 1.961945 1_545
Li2 O14 2.029896 1_555
Li3 O13 1.938817 1_565
Li3 O6 1.951892 1_555
Li3 O20 1.961945 1_565
Li3 O9 2.029896 1_555
Li4 O21 1.954133 1_555
Li4 O12 1.957380 1_555
Li4 O22 1.964282 1_555
Li4 O33 2.177931 1_555
Li4 O5 2.491400 1_555
Li5 O18 1.919575 1_555
Li5 O24 1.940104 1_555
Li5 O11 2.143465 1_555
Li5 O21 2.387246 1_555
Li5 O34 2.421971 1_555
Li6 O29 1.919575 1_555
Li6 O23 1.940104 1_555
Li6 O36 2.143465 1_555
Li6 O26 2.387246 1_555
Li6 O13 2.421971 1_555
Li7 O26 1.954133 1_555
Li7 O35 1.957380 1_555
Li7 O25 1.964282 1_555
Li7 O14 2.177931 1_555
Li7 O42 2.491400 1_555
Li8 O34 1.938817 1_545
Li8 O41 1.951892 1_555
Li8 O27 1.961945 1_545
Li8 O38 2.029896 1_555
Li9 O37 1.938817 1_565
Li9 O30 1.951892 1_555
Li9 O44 1.961945 1_565
Li9 O33 2.029896 1_555
Li10 O45 1.954133 1_555
Li10 O36 1.957380 1_555
Li10 O46 1.964282 1_555
Li10 O9 2.177931 1_555
Li10 O29 2.491400 1_555
Li11 O42 1.919575 1_555
Li11 O0 1.940104 1_555
Li11 O35 2.143465 1_555
Li11 O45 2.387246 1_455
Li11 O10 2.421971 1_555
Cr0 O7 1.947742 1_554
Cr0 O17 2.000280 1_555
Cr0 O23 2.008890 1_555
Cr0 O3 2.028134 1_545
Cr0 O13 2.052667 1_555
Cr0 O9 2.077057 1_545
Cr1 O19 1.946033 1_655
Cr1 O8 1.951049 1_556
Cr1 O22 1.996793 1_555
Cr1 O2 2.031799 1_655
Cr1 O5 2.081476 1_555
Cr1 O12 2.081492 1_555
Cr2 O4 1.946033 1_555
Cr2 O15 1.951049 1_555
Cr2 O1 1.996793 1_555
Cr2 O21 2.031799 1_555
Cr2 O18 2.081476 1_555
Cr2 O11 2.081492 1_555
Cr3 O16 1.947742 1_555
Cr3 O6 2.000280 1_455
Cr3 O0 2.008890 1_555
Cr3 O20 2.028134 1_465
Cr3 O10 2.052667 1_555
Cr3 O14 2.077057 1_565
Cr4 O31 1.947742 1_555
Cr4 O41 2.000280 1_655
Cr4 O47 2.008890 1_555
Cr4 O27 2.028134 1_645
Cr4 O37 2.052667 1_555
Cr4 O33 2.077057 1_545
Cr5 O43 1.946033 1_555
Cr5 O32 1.951049 1_555
Cr5 O46 1.996793 1_555
Cr5 O26 2.031799 1_555
Cr5 O29 2.081476 1_555
Cr5 O36 2.081492 1_555
Cr6 O28 1.946033 1_455
Cr6 O39 1.951049 1_554
Cr6 O25 1.996793 1_555
Cr6 O45 2.031799 1_455
Cr6 O42 2.081476 1_555
Cr6 O35 2.081492 1_555
Cr7 O40 1.947742 1_556
Cr7 O30 2.000280 1_555
Cr7 O24 2.008890 1_555
Cr7 O44 2.028134 1_565
Cr7 O34 2.052667 1_555
Cr7 O38 2.077057 1_565
O0 P11 1.552308 1_555
O1 P11 1.547032 1_555
O2 P9 1.564699 1_555
O3 P10 1.548331 1_555
O4 P0 1.522940 1_555
O5 P1 1.559213 1_555
O6 P0 1.549968 1_555
O7 P1 1.513893 1_555
O8 P2 1.504664 1_545
O9 P2 1.561543 1_555
O10 P2 1.559563 1_455
O11 P1 1.573132 1_555
O12 P4 1.573132 1_655
O13 P3 1.559563 1_555
O14 P3 1.561543 1_555
O15 P3 1.504664 1_565
O16 P4 1.513893 1_555
O17 P5 1.549968 1_555
O18 P4 1.559213 1_555
O19 P5 1.522940 1_556
O20 P7 1.548331 1_555
O21 P8 1.564699 1_555
O22 P6 1.547032 1_555
O23 P6 1.552308 1_554
O24 P5 1.552308 1_556
O25 P5 1.547032 1_555
O26 P3 1.564699 1_555
O27 P4 1.548331 1_555
O28 P6 1.522940 1_554
O29 P7 1.559213 1_555
O30 P6 1.549968 1_555
O31 P7 1.513893 1_555
O32 P8 1.504664 1_545
O33 P8 1.561543 1_555
O34 P8 1.559563 1_555
O35 P7 1.573132 1_455
O36 P10 1.573132 1_555
O37 P9 1.559563 1_655
O38 P9 1.561543 1_555
O39 P9 1.504664 1_565
O40 P10 1.513893 1_555
O41 P11 1.549968 1_555
O42 P10 1.559213 1_555
O43 P11 1.522940 1_555
O44 P1 1.548331 1_555
O45 P2 1.564699 1_555
O46 P0 1.547032 1_555
O47 P0 1.552308 1_555
