# generated using pymatgen
data_Li4NiSn3(PO4)4
_symmetry_space_group_name_H-M   'P 1'
_cell_length_a   6.74203600
_cell_length_b   4.84535000
_cell_length_c   10.98249604
_cell_angle_alpha   88.89482291
_cell_angle_beta   90.00000000
_cell_angle_gamma   90.00000000
_symmetry_Int_Tables_number   1
_chemical_formula_structural   Li4NiSn3(PO4)4
_chemical_formula_sum   'Li4 Ni1 Sn3 P4 O16'
_cell_volume   358.70421336
_cell_formula_units_Z   1
loop_
 _symmetry_equiv_pos_site_id
 _symmetry_equiv_pos_as_xyz
  1  'x, y, z'
loop_
 _atom_site_type_symbol
 _atom_site_label
 _atom_site_symmetry_multiplicity
 _atom_site_fract_x
 _atom_site_fract_y
 _atom_site_fract_z
 _atom_site_occupancy
  Li  Li0  1  0.26259100  0.98317200  0.00926700  1
  Li  Li1  1  0.73740900  0.98317200  0.00926700  1
  Li  Li2  1  0.75050000  0.49939800  0.49007300  1
  Li  Li3  1  0.24950000  0.49939800  0.49007300  1
  Ni  Ni0  1  0.00000000  0.02273200  0.27327900  1
  Sn  Sn0  1  0.00000000  0.47500600  0.78064200  1
  Sn  Sn1  1  0.50000000  0.53409600  0.21689300  1
  Sn  Sn2  1  0.50000000  0.95290400  0.70480200  1
  P  P0  1  0.50000000  0.08729700  0.41271600  1
  P  P1  1  0.50000000  0.38693300  0.92375900  1
  P  P2  1  0.00000000  0.61889400  0.10387700  1
  P  P3  1  0.00000000  0.91441000  0.56001800  1
  O  O0  1  0.50000000  0.23588300  0.54020100  1
  O  O1  1  0.31248600  0.20085900  0.34309900  1
  O  O2  1  0.68751400  0.20085900  0.34309900  1
  O  O3  1  0.00000000  0.23128100  0.56128800  1
  O  O4  1  0.00000000  0.30249300  0.11867700  1
  O  O5  1  0.31453000  0.27723800  0.85296700  1
  O  O6  1  0.68547000  0.27723800  0.85296700  1
  O  O7  1  0.50000000  0.23079400  0.05036400  1
  O  O8  1  0.00000000  0.72392700  0.96827600  1
  O  O9  1  0.81970000  0.76340000  0.16705300  1
  O  O10  1  0.18030000  0.76340000  0.16705300  1
  O  O11  1  0.50000000  0.70070300  0.94056600  1
  O  O12  1  0.50000000  0.77160700  0.43045000  1
  O  O13  1  0.81703700  0.78490500  0.62989100  1
  O  O14  1  0.18296300  0.78490500  0.62989100  1
  O  O15  1  0.00000000  0.79309200  0.42949500  1
loop_
_geom_bond_atom_site_label_1
_geom_bond_atom_site_label_2
_geom_bond_distance
_geom_bond_site_symmetry_2
Li0 O7 2.055759 1_565
Li0 O10 2.091284 1_555
Li0 O8 2.221859 1_554
Li0 O5 2.237201 1_564
Li0 O11 2.245960 1_554
Li1 O7 2.055759 1_565
Li1 O9 2.091284 1_555
Li1 O8 2.221859 1_654
Li1 O6 2.237201 1_564
Li1 O11 2.245960 1_554
Li2 O13 2.134207 1_555
Li2 O0 2.181412 1_555
Li2 O2 2.228966 1_555
Li2 O12 2.233248 1_555
Li2 O3 2.256062 1_655
Li2 O15 2.293635 1_655
Li3 O14 2.134207 1_555
Li3 O0 2.181412 1_555
Li3 O1 2.228966 1_555
Li3 O12 2.233248 1_555
Li3 O3 2.256062 1_555
Li3 O15 2.293635 1_555
Ni0 O15 2.026785 1_545
Ni0 O9 2.115219 1_445
Ni0 O10 2.115219 1_545
Ni0 O4 2.152120 1_555
Ni0 O1 2.407696 1_555
Ni0 O2 2.407696 1_455
O0 P0 1.586664 1_555
O0 Sn2 2.247727 1_545
O1 P0 1.571425 1_555
O1 Sn1 2.457679 1_555
O2 P0 1.571425 1_555
O2 Sn1 2.457679 1_555
O3 P3 1.535683 1_545
O3 Sn0 2.703311 1_555
O4 P2 1.538545 1_555
O5 P1 1.570517 1_555
O5 Sn0 2.452885 1_555
O5 Sn2 2.603797 1_545
O6 P1 1.570517 1_555
O6 Sn0 2.452885 1_655
O6 Sn2 2.603797 1_545
O7 P1 1.570066 1_554
O7 Sn1 2.368187 1_555
O8 P2 1.564478 1_556
O8 Sn0 2.407700 1_555
O9 P2 1.571004 1_655
O9 Sn1 2.481225 1_555
O10 P2 1.571004 1_555
O10 Sn1 2.481225 1_555
O11 P1 1.535020 1_555
O12 P0 1.538247 1_565
O12 Sn1 2.632369 1_555
O13 P3 1.576603 1_655
O13 Sn2 2.436001 1_555
O13 Sn0 2.534073 1_655
O14 P3 1.576603 1_555
O14 Sn2 2.436001 1_555
O14 Sn0 2.534073 1_555
O15 P3 1.559769 1_555
