# generated using pymatgen
data_Li2Mn5F17
_symmetry_space_group_name_H-M   'P 1'
_cell_length_a   7.53135273
_cell_length_b   12.80721108
_cell_length_c   15.17292292
_cell_angle_alpha   90.00000000
_cell_angle_beta   90.00000000
_cell_angle_gamma   107.09925282
_symmetry_Int_Tables_number   1
_chemical_formula_structural   Li2Mn5F17
_chemical_formula_sum   'Li8 Mn20 F68'
_cell_volume   1398.82183145
_cell_formula_units_Z   4
loop_
 _symmetry_equiv_pos_site_id
 _symmetry_equiv_pos_as_xyz
  1  'x, y, z'
loop_
 _atom_site_type_symbol
 _atom_site_label
 _atom_site_symmetry_multiplicity
 _atom_site_fract_x
 _atom_site_fract_y
 _atom_site_fract_z
 _atom_site_occupancy
  Li  Li0  1  0.00000000  0.00000000  0.00000000  1
  Li  Li1  1  0.00000000  0.00000000  0.50000000  1
  Li  Li2  1  0.29531695  0.59063389  0.25000000  1
  Li  Li3  1  0.25417006  0.50834112  0.46382708  1
  Li  Li4  1  0.25417006  0.50834112  0.03617292  1
  Li  Li5  1  0.70468305  0.40936611  0.75000000  1
  Li  Li6  1  0.74582994  0.49165888  0.96382708  1
  Li  Li7  1  0.74582994  0.49165888  0.53617292  1
  Mn  Mn0  1  0.11601901  0.73543723  0.87499501  1
  Mn  Mn1  1  0.11601901  0.73543723  0.62500499  1
  Mn  Mn2  1  0.25032988  0.99668749  0.75000000  1
  Mn  Mn3  1  0.12312676  0.74466544  0.12000065  1
  Mn  Mn4  1  0.12312676  0.74466544  0.37999935  1
  Mn  Mn5  1  0.62153868  0.74466544  0.12000065  1
  Mn  Mn6  1  0.62153868  0.74466544  0.37999935  1
  Mn  Mn7  1  0.38058178  0.26456277  0.37499501  1
  Mn  Mn8  1  0.38058178  0.26456277  0.12500499  1
  Mn  Mn9  1  0.74635760  0.99668749  0.75000000  1
  Mn  Mn10  1  0.25364240  0.00331251  0.25000000  1
  Mn  Mn11  1  0.61941822  0.73543723  0.62500499  1
  Mn  Mn12  1  0.61941822  0.73543723  0.87499501  1
  Mn  Mn13  1  0.37846132  0.25533456  0.62000065  1
  Mn  Mn14  1  0.37846132  0.25533456  0.87999935  1
  Mn  Mn15  1  0.87687324  0.25533456  0.62000065  1
  Mn  Mn16  1  0.87687324  0.25533456  0.87999935  1
  Mn  Mn17  1  0.74967012  0.00331251  0.25000000  1
  Mn  Mn18  1  0.88398099  0.26456277  0.37499501  1
  Mn  Mn19  1  0.88398099  0.26456277  0.12500499  1
  F  F0  1  0.98562879  0.59781781  0.90827423  1
  F  F1  1  0.98562879  0.59781781  0.59172577  1
  F  F2  1  0.13717865  0.88848465  0.15455654  1
  F  F3  1  0.13717865  0.88848465  0.34544346  1
  F  F4  1  0.09728395  0.79751732  0.50556220  1
  F  F5  1  0.09728395  0.79751732  0.99443780  1
  F  F6  1  0.24229283  0.88120913  0.84405038  1
  F  F7  1  0.24229283  0.88120913  0.65594962  1
  F  F8  1  0.11881800  0.60777640  0.08479641  1
  F  F9  1  0.11881800  0.60777640  0.41520359  1
  F  F10  1  0.13379125  0.69100065  0.75000000  1
  F  F11  1  0.15250495  0.69280072  0.25000000  1
  F  F12  1  0.11717290  0.23434481  0.15411324  1
  F  F13  1  0.01913532  0.03826965  0.25000000  1
  F  F14  1  0.39536304  0.79072607  0.39067251  1
  F  F15  1  0.35277379  0.70554657  0.59538225  1
  F  F16  1  0.11717290  0.23434481  0.34588676  1
  F  F17  1  0.15010975  0.30021850  0.63352051  1
  F  F18  1  0.15010975  0.30021850  0.86647949  1
  F  F19  1  0.39536304  0.79072607  0.10932749  1
  F  F20  1  0.47980821  0.95961643  0.25000000  1
  F  F21  1  0.35277379  0.70554657  0.90461775  1
  F  F22  1  0.38781098  0.40218219  0.09172577  1
  F  F23  1  0.38781098  0.40218219  0.40827423  1
  F  F24  1  0.54029677  0.69280072  0.25000000  1
  F  F25  1  0.24869400  0.11151535  0.65455654  1
  F  F26  1  0.24869400  0.11151535  0.84544346  1
  F  F27  1  0.55720940  0.69100065  0.75000000  1
  F  F28  1  0.48895840  0.60777640  0.41520359  1
  F  F29  1  0.48895840  0.60777640  0.08479641  1
  F  F30  1  0.29976663  0.20248268  0.00556220  1
  F  F31  1  0.29976663  0.20248268  0.49443780  1
  F  F32  1  0.63891530  0.88120913  0.84405038  1
  F  F33  1  0.63891530  0.88120913  0.65594962  1
  F  F34  1  0.36108470  0.11879087  0.15594962  1
  F  F35  1  0.36108470  0.11879087  0.34405038  1
  F  F36  1  0.70023337  0.79751732  0.50556220  1
  F  F37  1  0.70023337  0.79751732  0.99443780  1
  F  F38  1  0.51104160  0.39222360  0.58479641  1
  F  F39  1  0.51104160  0.39222360  0.91520359  1
  F  F40  1  0.44279060  0.30899935  0.25000000  1
  F  F41  1  0.75130600  0.88848465  0.15455654  1
  F  F42  1  0.75130600  0.88848465  0.34544346  1
  F  F43  1  0.45970323  0.30719928  0.75000000  1
  F  F44  1  0.61218902  0.59781781  0.59172577  1
  F  F45  1  0.61218902  0.59781781  0.90827423  1
  F  F46  1  0.88282710  0.76565519  0.65411324  1
  F  F47  1  0.52019179  0.04038357  0.75000000  1
  F  F48  1  0.64722621  0.29445343  0.09538225  1
  F  F49  1  0.98086468  0.96173035  0.75000000  1
  F  F50  1  0.84989025  0.69978150  0.36647949  1
  F  F51  1  0.64722621  0.29445343  0.40461775  1
  F  F52  1  0.84989025  0.69978150  0.13352051  1
  F  F53  1  0.88282710  0.76565519  0.84588676  1
  F  F54  1  0.60463696  0.20927393  0.60932749  1
  F  F55  1  0.60463696  0.20927393  0.89067251  1
  F  F56  1  0.84749505  0.30719928  0.75000000  1
  F  F57  1  0.86620875  0.30899935  0.25000000  1
  F  F58  1  0.88118200  0.39222360  0.58479641  1
  F  F59  1  0.88118200  0.39222360  0.91520359  1
  F  F60  1  0.75770717  0.11879087  0.34405038  1
  F  F61  1  0.75770717  0.11879087  0.15594962  1
  F  F62  1  0.90271605  0.20248268  0.49443780  1
  F  F63  1  0.90271605  0.20248268  0.00556220  1
  F  F64  1  0.86282135  0.11151535  0.65455654  1
  F  F65  1  0.86282135  0.11151535  0.84544346  1
  F  F66  1  0.01437121  0.40218219  0.40827423  1
  F  F67  1  0.01437121  0.40218219  0.09172577  1
loop_
_geom_bond_atom_site_label_1
_geom_bond_atom_site_label_2
_geom_bond_distance
_geom_bond_site_symmetry_2
F0 Mn0 1.818786 1_655
F0 Li6 2.092061 1_555
F1 Mn1 1.818786 1_655
F1 Li7 2.092061 1_555
F2 Mn3 1.887897 1_555
F2 Mn10 2.066567 1_565
F3 Mn4 1.887897 1_555
F3 Mn10 2.066567 1_565
F4 Mn1 2.000610 1_555
F4 Mn4 2.050157 1_555
F5 Mn0 2.000610 1_555
F5 Mn3 2.050157 1_556
F6 Mn0 1.888446 1_555
F6 Mn2 2.043212 1_555
F7 Mn1 1.888446 1_555
F7 Mn2 2.043212 1_555
F8 Mn3 1.823872 1_555
F8 Li4 1.992136 1_555
F9 Mn4 1.823872 1_555
F9 Li3 1.992136 1_555
F10 Mn0 1.995860 1_555
F10 Mn1 1.995860 1_555
F11 Li2 1.922640 1_555
F11 Mn3 2.113584 1_555
F11 Mn4 2.113584 1_555
F12 Mn8 1.956761 1_555
F12 Mn19 1.956769 1_455
F13 Mn10 1.945438 1_555
F13 Mn17 1.945445 1_455
F14 Mn6 1.966400 1_555
F14 Mn4 1.966400 1_555
F15 Mn11 1.982253 1_555
F15 Mn1 1.982260 1_555
F16 Mn7 1.956761 1_555
F16 Mn18 1.956769 1_455
F17 Mn13 1.977770 1_555
F17 Mn15 1.977777 1_455
F18 Mn14 1.977770 1_555
F18 Mn16 1.977777 1_455
F19 Mn5 1.966400 1_555
F19 Mn3 1.966400 1_555
F20 Mn10 1.942956 1_565
F20 Mn17 1.942957 1_565
F21 Mn12 1.982253 1_555
F21 Mn0 1.982260 1_555
F22 Mn8 1.818786 1_555
F22 Li4 2.092066 1_555
F23 Mn7 1.818786 1_555
F23 Li3 2.092066 1_555
F24 Li2 1.922646 1_555
F24 Mn6 2.113582 1_555
F24 Mn5 2.113582 1_555
F25 Mn13 1.887897 1_555
F25 Mn2 2.066567 1_545
F26 Mn14 1.887897 1_555
F26 Mn2 2.066567 1_545
F27 Mn12 1.995860 1_555
F27 Mn11 1.995860 1_555
F28 Mn6 1.823872 1_555
F28 Li3 1.992141 1_555
F29 Mn5 1.823872 1_555
F29 Li4 1.992141 1_555
F30 Mn8 2.000610 1_555
F30 Mn14 2.050157 1_554
F31 Mn7 2.000610 1_555
F31 Mn13 2.050157 1_555
F32 Mn12 1.888448 1_555
F32 Mn9 2.043213 1_555
F33 Mn11 1.888448 1_555
F33 Mn9 2.043213 1_555
F34 Mn8 1.888448 1_555
F34 Mn10 2.043213 1_555
F35 Mn7 1.888448 1_555
F35 Mn10 2.043213 1_555
F36 Mn11 2.000610 1_555
F36 Mn6 2.050157 1_555
F37 Mn12 2.000610 1_555
F37 Mn5 2.050157 1_556
F38 Mn13 1.823872 1_555
F38 Li7 1.992141 1_555
F39 Mn14 1.823872 1_555
F39 Li6 1.992141 1_555
F40 Mn8 1.995860 1_555
F40 Mn7 1.995860 1_555
F41 Mn5 1.887897 1_555
F41 Mn17 2.066567 1_565
F42 Mn6 1.887897 1_555
F42 Mn17 2.066567 1_565
F43 Li5 1.922646 1_555
F43 Mn14 2.113582 1_555
F43 Mn13 2.113582 1_555
F44 Mn11 1.818786 1_555
F44 Li7 2.092066 1_555
F45 Mn12 1.818786 1_555
F45 Li6 2.092066 1_555
F46 Mn11 1.956761 1_555
F46 Mn1 1.956769 1_655
F47 Mn9 1.942956 1_545
F47 Mn2 1.942957 1_545
F48 Mn8 1.982253 1_555
F48 Mn19 1.982260 1_555
F49 Mn9 1.945438 1_555
F49 Mn2 1.945445 1_655
F50 Mn6 1.977770 1_555
F50 Mn4 1.977777 1_655
F51 Mn7 1.982253 1_555
F51 Mn18 1.982260 1_555
F52 Mn5 1.977770 1_555
F52 Mn3 1.977777 1_655
F53 Mn12 1.956761 1_555
F53 Mn0 1.956769 1_655
F54 Mn13 1.966400 1_555
F54 Mn15 1.966400 1_555
F55 Mn14 1.966400 1_555
F55 Mn16 1.966400 1_555
F56 Li5 1.922640 1_555
F56 Mn15 2.113584 1_555
F56 Mn16 2.113584 1_555
F57 Mn19 1.995860 1_555
F57 Mn18 1.995860 1_555
F58 Mn15 1.823872 1_555
F58 Li7 1.992136 1_555
F59 Mn16 1.823872 1_555
F59 Li6 1.992136 1_555
F60 Mn18 1.888446 1_555
F60 Mn17 2.043212 1_555
F61 Mn19 1.888446 1_555
F61 Mn17 2.043212 1_555
F62 Mn18 2.000610 1_555
F62 Mn15 2.050157 1_555
F63 Mn19 2.000610 1_555
F63 Mn16 2.050157 1_554
F64 Mn15 1.887897 1_555
F64 Mn9 2.066567 1_545
F65 Mn16 1.887897 1_555
F65 Mn9 2.066567 1_545
F66 Mn18 1.818786 1_455
F66 Li3 2.092061 1_555
F67 Mn19 1.818786 1_455
F67 Li4 2.092061 1_555
