# generated using pymatgen
data_LiFe2O2F3
_symmetry_space_group_name_H-M   'P 1'
_cell_length_a   5.32375015
_cell_length_b   5.32375015
_cell_length_c   10.22395600
_cell_angle_alpha   90.00000000
_cell_angle_beta   90.00000000
_cell_angle_gamma   137.76285407
_symmetry_Int_Tables_number   1
_chemical_formula_structural   LiFe2O2F3
_chemical_formula_sum   'Li2 Fe4 O4 F6'
_cell_volume   194.78399987
_cell_formula_units_Z   2
loop_
 _symmetry_equiv_pos_site_id
 _symmetry_equiv_pos_as_xyz
  1  'x, y, z'
loop_
 _atom_site_type_symbol
 _atom_site_label
 _atom_site_symmetry_multiplicity
 _atom_site_fract_x
 _atom_site_fract_y
 _atom_site_fract_z
 _atom_site_occupancy
  Li  Li0  1  0.81484900  0.18515100  0.25000000  1
  Li  Li1  1  0.18515100  0.81484900  0.75000000  1
  Fe  Fe0  1  0.84765000  0.15235000  0.55729800  1
  Fe  Fe1  1  0.84765000  0.15235000  0.94270200  1
  Fe  Fe2  1  0.15235000  0.84765000  0.05729800  1
  Fe  Fe3  1  0.15235000  0.84765000  0.44270200  1
  O  O0  1  0.68722000  0.31278000  0.43637400  1
  O  O1  1  0.68722000  0.31278000  0.06362600  1
  O  O2  1  0.31278000  0.68722000  0.93637400  1
  O  O3  1  0.31278000  0.68722000  0.56362600  1
  F  F0  1  0.95916500  0.04083500  0.11551500  1
  F  F1  1  0.95916500  0.04083500  0.38448500  1
  F  F2  1  0.76456000  0.23544000  0.75000000  1
  F  F3  1  0.23544000  0.76456000  0.25000000  1
  F  F4  1  0.04083500  0.95916500  0.61551500  1
  F  F5  1  0.04083500  0.95916500  0.88448500  1
loop_
_geom_bond_atom_site_label_1
_geom_bond_atom_site_label_2
_geom_bond_distance
_geom_bond_site_symmetry_2
Li0 O1 2.288627 1_555
Li0 O0 2.288627 1_555
Li1 O2 2.288627 1_555
Li1 O3 2.288627 1_555
Fe0 O3 1.950234 1_545
Fe0 O3 1.950234 1_655
Fe0 O0 2.016824 1_555
Fe1 O2 1.950234 1_545
Fe1 O2 1.950234 1_655
Fe1 O1 2.016824 1_556
Fe2 O1 1.950234 1_455
Fe2 O1 1.950234 1_565
Fe2 O2 2.016824 1_554
Fe3 O0 1.950234 1_455
Fe3 O0 1.950234 1_565
Fe3 O3 2.016824 1_555
F0 Li0 1.986247 1_555
F0 Fe2 2.008984 1_645
F0 Fe1 2.085305 1_554
F1 Li0 1.986247 1_555
F1 Fe3 2.008984 1_645
F1 Fe0 2.085305 1_555
F2 Li1 2.073970 1_655
F2 Li1 2.073970 1_545
F2 Fe1 2.136044 1_555
F2 Fe0 2.136044 1_555
F3 Li0 2.073970 1_565
F3 Li0 2.073970 1_455
F3 Fe3 2.136044 1_555
F3 Fe2 2.136044 1_555
F4 Li1 1.986247 1_555
F4 Fe0 2.008984 1_465
F4 Fe3 2.085305 1_555
F5 Li1 1.986247 1_555
F5 Fe1 2.008984 1_465
F5 Fe2 2.085305 1_556
