# generated using pymatgen
data_Li3MnPCO7
_symmetry_space_group_name_H-M   'P 1'
_cell_length_a   6.57422800
_cell_length_b   8.57925946
_cell_length_c   9.98929692
_cell_angle_alpha   94.61336314
_cell_angle_beta   90.25724777
_cell_angle_gamma   90.49983829
_symmetry_Int_Tables_number   1
_chemical_formula_structural   Li3MnPCO7
_chemical_formula_sum   'Li12 Mn4 P4 C4 O28'
_cell_volume   561.56202857
_cell_formula_units_Z   4
loop_
 _symmetry_equiv_pos_site_id
 _symmetry_equiv_pos_as_xyz
  1  'x, y, z'
loop_
 _atom_site_type_symbol
 _atom_site_label
 _atom_site_symmetry_multiplicity
 _atom_site_fract_x
 _atom_site_fract_y
 _atom_site_fract_z
 _atom_site_occupancy
  Li  Li0  1  0.74352000  0.91036900  0.38202600  1
  Li  Li1  1  0.74481400  0.91004500  0.87951600  1
  Li  Li2  1  0.52685100  0.72082300  0.12250900  1
  Li  Li3  1  0.96814900  0.72740000  0.62316600  1
  Li  Li4  1  0.53426900  0.72647500  0.62271500  1
  Li  Li5  1  0.74873800  0.33739800  0.10516400  1
  Li  Li6  1  0.47989200  0.27590200  0.36823400  1
  Li  Li7  1  0.01954200  0.27606600  0.36785400  1
  Li  Li8  1  0.48395200  0.27551800  0.88988600  1
  Li  Li9  1  0.01500700  0.27476500  0.88968100  1
  Li  Li10  1  0.25264300  0.10480300  0.11337000  1
  Li  Li11  1  0.25096800  0.09561300  0.61871500  1
  Mn  Mn0  1  0.98915600  0.73041900  0.13398500  1
  Mn  Mn1  1  0.25372800  0.65283400  0.39484800  1
  Mn  Mn2  1  0.25781700  0.65522300  0.87733000  1
  Mn  Mn3  1  0.75005400  0.33942100  0.61360100  1
  P  P0  1  0.74984300  0.58761000  0.36046500  1
  P  P1  1  0.75080100  0.58711500  0.86105300  1
  P  P2  1  0.24964200  0.40690400  0.13787500  1
  P  P3  1  0.25019300  0.40726300  0.63828300  1
  C  C0  1  0.24438800  0.96616600  0.35019800  1
  C  C1  1  0.24733900  0.96653900  0.85231700  1
  C  C2  1  0.74913500  0.04001400  0.14886500  1
  C  C3  1  0.75028000  0.03297400  0.64892000  1
  O  O0  1  0.25216900  0.93038800  0.47256200  1
  O  O1  1  0.74895800  0.89037000  0.18159600  1
  O  O2  1  0.24350100  0.93018800  0.97615700  1
  O  O3  1  0.23482700  0.85055900  0.25384900  1
  O  O4  1  0.75078600  0.88742000  0.67914200  1
  O  O5  1  0.24984500  0.85401800  0.75546000  1
  O  O6  1  0.93710700  0.68932300  0.41211200  1
  O  O7  1  0.56771100  0.68905700  0.41512000  1
  O  O8  1  0.93969300  0.68760200  0.91531500  1
  O  O9  1  0.57035600  0.68976500  0.91663100  1
  O  O10  1  0.24981600  0.57954200  0.09288600  1
  O  O11  1  0.75027700  0.57440400  0.20358600  1
  O  O12  1  0.25096000  0.57855700  0.59664500  1
  O  O13  1  0.75003500  0.57933900  0.70386000  1
  O  O14  1  0.25024600  0.42320100  0.29594400  1
  O  O15  1  0.74870800  0.42259900  0.41010800  1
  O  O16  1  0.25056900  0.41990700  0.79534800  1
  O  O17  1  0.74987500  0.42066900  0.90515600  1
  O  O18  1  0.06066100  0.31275800  0.08656400  1
  O  O19  1  0.43779900  0.31570900  0.08628100  1
  O  O20  1  0.43398500  0.31073800  0.58274200  1
  O  O21  1  0.06488500  0.30995800  0.58161000  1
  O  O22  1  0.74713700  0.14803100  0.24492300  1
  O  O23  1  0.24909700  0.10849700  0.31702300  1
  O  O24  1  0.75025200  0.14385600  0.74567600  1
  O  O25  1  0.75041500  0.06722800  0.02476500  1
  O  O26  1  0.24992600  0.11045700  0.82239000  1
  O  O27  1  0.74968800  0.06819800  0.52597100  1
loop_
_geom_bond_atom_site_label_1
_geom_bond_atom_site_label_2
_geom_bond_distance
_geom_bond_site_symmetry_2
Li0 O27 1.894205 1_565
Li0 O1 1.996204 1_555
Li0 O7 2.261930 1_555
Li0 O6 2.331691 1_555
Li0 O22 2.546035 1_565
Li1 O25 1.899728 1_566
Li1 O4 1.995982 1_555
Li1 O9 2.259005 1_555
Li1 O8 2.357881 1_555
Li1 O24 2.498617 1_565
Li2 O9 2.073830 1_554
Li2 O1 2.100817 1_555
Li2 O11 2.139298 1_555
Li2 O10 2.184666 1_555
Li2 O3 2.543803 1_555
Li3 O4 2.038953 1_555
Li3 O13 2.112528 1_555
Li3 O6 2.115986 1_555
Li3 O12 2.269165 1_655
Li3 O5 2.463352 1_655
Li4 O4 2.020831 1_555
Li4 O7 2.085660 1_555
Li4 O13 2.109059 1_555
Li4 O12 2.246896 1_555
Li4 O5 2.505323 1_555
Li5 O19 2.057461 1_555
Li5 O18 2.071003 1_655
Li5 O17 2.175278 1_554
Li5 O11 2.186125 1_555
Li5 O22 2.225601 1_555
Li5 O25 2.391376 1_555
Li6 O23 2.112680 1_555
Li6 O14 2.137305 1_555
Li6 O20 2.162474 1_555
Li6 O15 2.179906 1_555
Li6 O22 2.375560 1_555
Li7 O23 2.128240 1_555
Li7 O14 2.128860 1_555
Li7 O21 2.150742 1_555
Li7 O15 2.211172 1_455
Li7 O22 2.377110 1_455
Li8 O19 1.989512 1_556
Li8 O17 2.135278 1_555
Li8 O26 2.150843 1_555
Li8 O16 2.233559 1_555
Li8 O24 2.492292 1_555
Li9 O18 1.988516 1_556
Li9 O17 2.153674 1_455
Li9 O26 2.172329 1_555
Li9 O16 2.237188 1_555
Li9 O24 2.458401 1_455
Li10 O2 1.947797 1_544
Li10 O23 2.032288 1_555
Li10 O19 2.207312 1_555
Li10 O18 2.227285 1_555
Li11 O0 1.951482 1_545
Li11 O26 2.028349 1_555
Li11 O20 2.248315 1_555
Li11 O21 2.271658 1_555
Li11 O5 2.572422 1_545
Mn0 O1 2.131307 1_555
Mn0 O10 2.177187 1_655
Mn0 O3 2.204458 1_655
Mn0 O11 2.205467 1_555
Mn0 O8 2.207842 1_554
Mn1 O7 2.091272 1_555
Mn1 O6 2.113398 1_455
Mn1 O14 2.131609 1_555
Mn1 O12 2.162559 1_555
Mn1 O3 2.294179 1_555
Mn1 O0 2.444595 1_555
Mn2 O9 2.104083 1_555
Mn2 O16 2.116756 1_555
Mn2 O8 2.143709 1_455
Mn2 O5 2.174525 1_555
Mn2 O10 2.299165 1_556
Mn2 O2 2.485638 1_555
Mn3 O20 2.108652 1_555
Mn3 O21 2.109986 1_655
Mn3 O13 2.179696 1_555
Mn3 O15 2.207869 1_555
Mn3 O24 2.216253 1_555
Mn3 O27 2.419281 1_555
C0 O0 1.284910 1_555
C0 O23 1.290884 1_565
C0 O3 1.326198 1_555
C1 O26 1.293532 1_565
C1 O2 1.300174 1_555
C1 O5 1.310901 1_555
C2 O22 1.279445 1_555
C2 O25 1.279838 1_555
C2 O1 1.350051 1_545
C3 O27 1.288189 1_555
C3 O24 1.300467 1_555
C3 O4 1.308138 1_545
O6 P0 1.564103 1_555
O7 P0 1.561056 1_555
O8 P1 1.574564 1_555
O9 P1 1.560949 1_555
O10 P2 1.581990 1_555
O11 P0 1.562103 1_555
O12 P3 1.559133 1_555
O13 P1 1.566278 1_555
O14 P2 1.573919 1_555
O15 P0 1.537166 1_555
O16 P3 1.563975 1_555
O17 P1 1.527854 1_555
O18 P2 1.539106 1_555
O19 P2 1.538062 1_555
O20 P3 1.550202 1_555
O21 P3 1.549704 1_555
