# generated using pymatgen
data_Tm2Nb2O7
_symmetry_space_group_name_H-M   'P 1'
_cell_length_a   7.26496215
_cell_length_b   7.26496215
_cell_length_c   7.26496215
_cell_angle_alpha   60.00000000
_cell_angle_beta   60.00000000
_cell_angle_gamma   60.00000000
_symmetry_Int_Tables_number   1
_chemical_formula_structural   Tm2Nb2O7
_chemical_formula_sum   'Tm4 Nb4 O14'
_cell_volume   271.13467963
_cell_formula_units_Z   2
loop_
 _symmetry_equiv_pos_site_id
 _symmetry_equiv_pos_as_xyz
  1  'x, y, z'
loop_
 _atom_site_type_symbol
 _atom_site_label
 _atom_site_symmetry_multiplicity
 _atom_site_fract_x
 _atom_site_fract_y
 _atom_site_fract_z
 _atom_site_occupancy
  Tm  Tm0  1  0.62500000  0.62500000  0.12500000  1
  Tm  Tm1  1  0.62500000  0.62500000  0.62500000  1
  Tm  Tm2  1  0.62500000  0.12500000  0.62500000  1
  Tm  Tm3  1  0.12500000  0.62500000  0.62500000  1
  Nb  Nb0  1  0.12500000  0.12500000  0.12500000  1
  Nb  Nb1  1  0.62500000  0.12500000  0.12500000  1
  Nb  Nb2  1  0.12500000  0.62500000  0.12500000  1
  Nb  Nb3  1  0.12500000  0.12500000  0.62500000  1
  O  O0  1  0.02661200  0.47338800  0.47338800  1
  O  O1  1  0.77661200  0.77661200  0.22338800  1
  O  O2  1  0.77661200  0.22338800  0.22338800  1
  O  O3  1  0.47338800  0.02661200  0.47338800  1
  O  O4  1  0.02661200  0.02661200  0.47338800  1
  O  O5  1  0.02661200  0.47338800  0.02661200  1
  O  O6  1  0.75000000  0.75000000  0.75000000  1
  O  O7  1  0.50000000  0.50000000  0.50000000  1
  O  O8  1  0.77661200  0.22338800  0.77661200  1
  O  O9  1  0.22338800  0.77661200  0.22338800  1
  O  O10  1  0.22338800  0.22338800  0.77661200  1
  O  O11  1  0.47338800  0.02661200  0.02661200  1
  O  O12  1  0.47338800  0.47338800  0.02661200  1
  O  O13  1  0.22338800  0.77661200  0.77661200  1
loop_
_geom_bond_atom_site_label_1
_geom_bond_atom_site_label_2
_geom_bond_distance
_geom_bond_site_symmetry_2
Nb0 O4 2.078597 1_555
Nb0 O5 2.078597 1_555
Nb0 O11 2.078597 1_555
Nb0 O9 2.078597 1_545
Nb0 O10 2.078597 1_554
Nb0 O2 2.078597 1_455
Nb1 O12 2.078597 1_555
Nb1 O2 2.078597 1_555
Nb1 O11 2.078597 1_555
Nb1 O3 2.078597 1_555
Nb1 O8 2.078597 1_554
Nb1 O1 2.078597 1_545
Nb2 O0 2.078597 1_555
Nb2 O12 2.078597 1_555
Nb2 O9 2.078597 1_555
Nb2 O5 2.078597 1_555
Nb2 O13 2.078597 1_554
Nb2 O1 2.078597 1_455
Nb3 O0 2.078597 1_555
Nb3 O10 2.078597 1_555
Nb3 O3 2.078597 1_555
Nb3 O13 2.078597 1_545
Nb3 O4 2.078597 1_555
Nb3 O8 2.078597 1_455
O0 Tm1 2.392726 1_455
O0 Tm3 2.392726 1_555
O1 Tm0 2.392726 1_555
O1 Tm1 2.392726 1_555
O2 Tm0 2.392726 1_555
O2 Tm2 2.392726 1_555
O3 Tm2 2.392726 1_555
O3 Tm1 2.392726 1_545
O4 Tm3 2.392726 1_545
O4 Tm2 2.392726 1_455
O5 Tm0 2.392726 1_455
O5 Tm3 2.392726 1_554
O6 Tm1 2.224431 1_555
O6 Tm2 2.224431 1_565
O6 Tm3 2.224431 1_655
O6 Tm0 2.224431 1_556
O7 Tm1 2.224431 1_555
O7 Tm0 2.224431 1_555
O7 Tm2 2.224431 1_555
O7 Tm3 2.224431 1_555
O8 Tm2 2.392726 1_555
O8 Tm1 2.392726 1_555
O9 Tm0 2.392726 1_555
O9 Tm3 2.392726 1_555
O10 Tm3 2.392726 1_555
O10 Tm2 2.392726 1_555
O11 Tm0 2.392726 1_545
O11 Tm2 2.392726 1_554
O12 Tm1 2.392726 1_554
O12 Tm0 2.392726 1_555
O13 Tm3 2.392726 1_555
O13 Tm1 2.392726 1_555
