# generated using pymatgen
data_KYbP4(H4O9)2
_symmetry_space_group_name_H-M   'P 1'
_cell_length_a   7.40826787
_cell_length_b   7.40826787
_cell_length_c   15.13367193
_cell_angle_alpha   89.87723608
_cell_angle_beta   89.87723608
_cell_angle_gamma   108.96477139
_symmetry_Int_Tables_number   1
_chemical_formula_structural   KYbP4(H4O9)2
_chemical_formula_sum   'K2 Yb2 P8 H16 O36'
_cell_volume   785.48271916
_cell_formula_units_Z   2
loop_
 _symmetry_equiv_pos_site_id
 _symmetry_equiv_pos_as_xyz
  1  'x, y, z'
loop_
 _atom_site_type_symbol
 _atom_site_label
 _atom_site_symmetry_multiplicity
 _atom_site_fract_x
 _atom_site_fract_y
 _atom_site_fract_z
 _atom_site_occupancy
  K  K0  1  0.44663900  0.55336100  0.75000000  1
  K  K1  1  0.55336100  0.44663900  0.25000000  1
  Yb  Yb0  1  0.11041400  0.88958600  0.75000000  1
  Yb  Yb1  1  0.88958600  0.11041400  0.25000000  1
  P  P0  1  0.02159800  0.20993600  0.58403000  1
  P  P1  1  0.79006400  0.97840200  0.91597000  1
  P  P2  1  0.97840200  0.79006300  0.41597000  1
  P  P3  1  0.20993600  0.02159800  0.08403000  1
  P  P4  1  0.18376400  0.24572600  0.92506400  1
  P  P5  1  0.75427400  0.81623600  0.57493600  1
  P  P6  1  0.81623600  0.75427400  0.07493600  1
  P  P7  1  0.24572600  0.18376400  0.42506400  1
  H  H0  1  0.24412700  0.67070900  0.89846700  1
  H  H1  1  0.32929100  0.75587300  0.60153300  1
  H  H2  1  0.75587300  0.32929100  0.10153300  1
  H  H3  1  0.67070900  0.24412700  0.39846700  1
  H  H4  1  0.12172700  0.60106900  0.61349300  1
  H  H5  1  0.39893100  0.87827300  0.88650700  1
  H  H6  1  0.87827300  0.39893100  0.38650700  1
  H  H7  1  0.60106900  0.12172700  0.11349300  1
  H  H8  1  0.88588300  0.48805400  0.82856800  1
  H  H9  1  0.51194600  0.11411700  0.67143200  1
  H  H10  1  0.11411700  0.51194600  0.17143200  1
  H  H11  1  0.48805400  0.88588300  0.32856800  1
  H  H12  1  0.93887700  0.45813300  0.72702600  1
  H  H13  1  0.54186700  0.06112300  0.77297400  1
  H  H14  1  0.06112300  0.54186700  0.27297400  1
  H  H15  1  0.45813300  0.93887700  0.22702600  1
  O  O0  1  0.96016600  0.16092200  0.95224100  1
  O  O1  1  0.83907800  0.03983400  0.54775900  1
  O  O2  1  0.03983400  0.83907800  0.04775900  1
  O  O3  1  0.16092200  0.96016600  0.45224100  1
  O  O4  1  0.14018000  0.28326400  0.49407100  1
  O  O5  1  0.71673700  0.85982000  0.00592900  1
  O  O6  1  0.85982000  0.71673700  0.50592900  1
  O  O7  1  0.28326300  0.14018000  0.99407100  1
  O  O8  1  0.86258200  0.86139000  0.85333100  1
  O  O9  1  0.13861000  0.13741800  0.64666900  1
  O  O10  1  0.13741800  0.13861000  0.14666900  1
  O  O11  1  0.86139000  0.86258200  0.35333100  1
  O  O12  1  0.95065800  0.36880500  0.61440300  1
  O  O13  1  0.63119500  0.04934200  0.88559700  1
  O  O14  1  0.04934200  0.63119500  0.38559700  1
  O  O15  1  0.36880500  0.95065800  0.11440300  1
  O  O16  1  0.81181100  0.78353000  0.66653000  1
  O  O17  1  0.21647000  0.18818900  0.83347000  1
  O  O18  1  0.18818900  0.21647000  0.33347000  1
  O  O19  1  0.78353000  0.81181100  0.16653000  1
  O  O20  1  0.24841800  0.45683400  0.94563500  1
  O  O21  1  0.54316600  0.75158200  0.55436500  1
  O  O22  1  0.75158200  0.54316600  0.05436500  1
  O  O23  1  0.45683400  0.24841800  0.44563500  1
  O  O24  1  0.21171700  0.71975900  0.63794600  1
  O  O25  1  0.28024100  0.78828300  0.86205400  1
  O  O26  1  0.78828300  0.28024100  0.36205400  1
  O  O27  1  0.71975900  0.21171700  0.13794600  1
  O  O28  1  0.68033200  0.42084400  0.89509500  1
  O  O29  1  0.57915600  0.31966800  0.60490500  1
  O  O30  1  0.31966800  0.57915600  0.10490500  1
  O  O31  1  0.42084400  0.68033200  0.39509500  1
  O  O32  1  0.97067300  0.54475400  0.77817900  1
  O  O33  1  0.45524600  0.02932700  0.72182100  1
  O  O34  1  0.02932700  0.45524600  0.22182100  1
  O  O35  1  0.54475400  0.97067300  0.27817900  1
loop_
_geom_bond_atom_site_label_1
_geom_bond_atom_site_label_2
_geom_bond_distance
_geom_bond_site_symmetry_2
K0 O16 2.966426 1_555
K0 O17 2.966426 1_555
K0 O25 2.970236 1_555
K0 O24 2.970236 1_555
K0 O28 3.145540 1_555
K0 O29 3.145540 1_555
K0 O20 3.274621 1_555
K0 O21 3.274621 1_555
K1 O19 2.966426 1_555
K1 O18 2.966426 1_555
K1 O26 2.970236 1_555
K1 O27 2.970236 1_555
K1 O31 3.145540 1_555
K1 O30 3.145540 1_555
K1 O22 3.274621 1_555
K1 O23 3.274621 1_555
H0 O25 0.989833 1_555
H0 K0 2.982707 1_555
H1 O24 0.989833 1_555
H1 K0 2.982707 1_555
H2 O27 0.989833 1_555
H2 K1 2.982707 1_555
H3 O26 0.989833 1_555
H3 K1 2.982707 1_555
H4 O24 0.987919 1_555
H5 O25 0.987919 1_555
H6 O26 0.987919 1_555
H7 O27 0.987919 1_555
H8 O32 0.988737 1_555
H9 O33 0.988737 1_555
H10 O34 0.988737 1_555
H11 O35 0.988737 1_555
H12 O32 0.985506 1_555
H13 O33 0.985506 1_555
H14 O34 0.985506 1_555
H15 O35 0.985506 1_555
O0 P1 1.617490 1_545
O0 P4 1.620901 1_655
O1 P0 1.617490 1_655
O1 P5 1.620901 1_545
O2 P3 1.617490 1_565
O2 P6 1.620901 1_455
O3 P2 1.617493 1_455
O3 P7 1.620901 1_565
O4 P0 1.613010 1_555
O4 P7 1.618575 1_555
O5 P1 1.613009 1_554
O5 P6 1.618570 1_555
O6 P2 1.613008 1_555
O6 P5 1.618570 1_555
O7 P3 1.613009 1_556
O7 P4 1.618570 1_555
O8 P1 1.497570 1_555
O8 Yb0 2.365793 1_655
O9 P0 1.497570 1_555
O9 Yb0 2.365793 1_545
O10 P3 1.497570 1_555
O10 Yb1 2.365793 1_455
O11 P2 1.497575 1_555
O11 Yb1 2.365793 1_565
O12 P0 1.508638 1_655
O13 P1 1.508638 1_545
O14 P2 1.508632 1_455
O15 P3 1.508638 1_565
O16 P5 1.493331 1_555
O16 Yb0 2.448074 1_655
O17 P4 1.493331 1_555
O17 Yb0 2.448074 1_545
O18 P7 1.493331 1_555
O18 Yb1 2.448074 1_455
O19 P6 1.493331 1_555
O19 Yb1 2.448074 1_565
O20 P4 1.512644 1_555
O21 P5 1.512644 1_555
O22 P6 1.512644 1_555
O23 P7 1.512644 1_555
O24 Yb0 2.374697 1_555
O25 Yb0 2.374697 1_555
O26 Yb1 2.374697 1_555
O27 Yb1 2.374697 1_555
O32 Yb0 2.460509 1_655
O33 Yb0 2.460509 1_545
O34 Yb1 2.460509 1_455
O35 Yb1 2.460509 1_565
