# generated using pymatgen
data_Na9CaFe10(SiO3)20
_symmetry_space_group_name_H-M   'P 1'
_cell_length_a   9.38936500
_cell_length_b   10.40749790
_cell_length_c   12.20659887
_cell_angle_alpha   109.20543573
_cell_angle_beta   94.59745668
_cell_angle_gamma   91.90977473
_symmetry_Int_Tables_number   1
_chemical_formula_structural   Na9CaFe10(SiO3)20
_chemical_formula_sum   'Na9 Ca1 Fe10 Si20 O60'
_cell_volume   1120.55545127
_cell_formula_units_Z   1
loop_
 _symmetry_equiv_pos_site_id
 _symmetry_equiv_pos_as_xyz
  1  'x, y, z'
loop_
 _atom_site_type_symbol
 _atom_site_label
 _atom_site_symmetry_multiplicity
 _atom_site_fract_x
 _atom_site_fract_y
 _atom_site_fract_z
 _atom_site_occupancy
  Na  Na0  1  0.17894800  0.38999000  0.90980500  1
  Na  Na1  1  0.21907700  0.80773600  0.88873100  1
  Na  Na2  1  0.58033400  0.59218500  0.71104000  1
  Na  Na3  1  0.62105700  0.00975200  0.69002400  1
  Na  Na4  1  0.98285100  0.78940700  0.50864900  1
  Na  Na5  1  0.01964800  0.21054100  0.49009800  1
  Na  Na6  1  0.41985100  0.41167700  0.29036300  1
  Na  Na7  1  0.77866300  0.19041800  0.10916600  1
  Na  Na8  1  0.82156100  0.60953900  0.09081200  1
  Ca  Ca0  1  0.37694200  0.98779200  0.31239400  1
  Fe  Fe0  1  0.05831200  0.13085200  0.96932800  1
  Fe  Fe1  1  0.45957300  0.33289200  0.77154300  1
  Fe  Fe2  1  0.34083600  0.06829100  0.82944400  1
  Fe  Fe3  1  0.85978200  0.53152900  0.57021400  1
  Fe  Fe4  1  0.74043800  0.26958200  0.62985600  1
  Fe  Fe5  1  0.25611900  0.72402000  0.36937600  1
  Fe  Fe6  1  0.14111900  0.47216900  0.43016500  1
  Fe  Fe7  1  0.66434300  0.92954700  0.16879500  1
  Fe  Fe8  1  0.53945400  0.66735800  0.22997700  1
  Fe  Fe9  1  0.94134900  0.86821500  0.02890500  1
  Si  Si0  1  0.77427700  0.29793700  0.90241200  1
  Si  Si1  1  0.90306000  0.54079700  0.83833100  1
  Si  Si2  1  0.17478600  0.49801100  0.70275800  1
  Si  Si3  1  0.49682400  0.65992700  0.96216500  1
  Si  Si4  1  0.30218400  0.73973000  0.63899100  1
  Si  Si5  1  0.62527100  0.90264600  0.89724200  1
  Si  Si6  1  0.57473200  0.69752100  0.50214900  1
  Si  Si7  1  0.89717400  0.85888500  0.76153500  1
  Si  Si8  1  0.70397300  0.94234600  0.43993100  1
  Si  Si9  1  0.02509700  0.10215100  0.69751100  1
  Si  Si10  1  0.97371900  0.89677800  0.30222300  1
  Si  Si11  1  0.29824800  0.06136300  0.56407500  1
  Si  Si12  1  0.10024900  0.14171800  0.23809400  1
  Si  Si13  1  0.42638000  0.30537500  0.49860000  1
  Si  Si14  1  0.37501200  0.09840100  0.10171500  1
  Si  Si15  1  0.69706300  0.25833300  0.36067900  1
  Si  Si16  1  0.50273100  0.34161300  0.03813300  1
  Si  Si17  1  0.82510600  0.50202600  0.29670100  1
  Si  Si18  1  0.09691200  0.45646800  0.16118500  1
  Si  Si19  1  0.22614100  0.70135400  0.09655000  1
  O  O0  1  0.26951200  0.05323100  0.98000800  1
  O  O1  1  0.40449100  0.28197100  0.91220000  1
  O  O2  1  0.86735800  0.17993100  0.92538700  1
  O  O3  1  0.66795200  0.25578300  0.78022500  1
  O  O4  1  0.88145900  0.43069200  0.90961100  1
  O  O5  1  0.86552400  0.68619800  0.92785900  1
  O  O6  1  0.80527000  0.48144300  0.71186700  1
  O  O7  1  0.07360000  0.54647700  0.81387200  1
  O  O8  1  0.32563300  0.65287400  0.98435000  1
  O  O9  1  0.26871000  0.38014900  0.72578600  1
  O  O10  1  0.06809600  0.45435500  0.58075200  1
  O  O11  1  0.53605300  0.51457200  0.87391100  1
  O  O12  1  0.28343900  0.63077800  0.71236700  1
  O  O13  1  0.51761200  0.77085200  0.89140000  1
  O  O14  1  0.26659300  0.88659700  0.72834100  1
  O  O15  1  0.19993700  0.67793700  0.51727900  1
  O  O16  1  0.53272200  0.02152200  0.87549400  1
  O  O17  1  0.47284600  0.74751400  0.61279200  1
  O  O18  1  0.72668200  0.85351300  0.78704000  1
  O  O19  1  0.66885200  0.58115400  0.52750400  1
  O  O20  1  0.47284100  0.65217800  0.37868900  1
  O  O21  1  0.99528100  0.91838100  0.88811700  1
  O  O22  1  0.93420200  0.71349900  0.67303700  1
  O  O23  1  0.68233400  0.83117100  0.50944300  1
  O  O24  1  0.91836700  0.96913800  0.69049800  1
  O  O25  1  0.66318600  0.08734200  0.52737700  1
  O  O26  1  0.60376700  0.88559400  0.31334900  1
  O  O27  1  0.13141900  0.14445900  0.81980500  1
  O  O28  1  0.93064000  0.21892500  0.67392200  1
  O  O29  1  0.87327200  0.95100600  0.41372300  1
  O  O30  1  0.12718600  0.05468200  0.58722200  1
  O  O31  1  0.06094000  0.77679500  0.32187400  1
  O  O32  1  0.86696900  0.85794400  0.17996200  1
  O  O33  1  0.39557200  0.12105600  0.69029400  1
  O  O34  1  0.34074100  0.92241700  0.47196400  1
  O  O35  1  0.08529800  0.02827600  0.30787000  1
  O  O36  1  0.31884400  0.17181100  0.49076900  1
  O  O37  1  0.06418500  0.28518200  0.32859100  1
  O  O38  1  0.00424600  0.08142700  0.11129800  1
  O  O39  1  0.53260100  0.34655000  0.62025400  1
  O  O40  1  0.33352100  0.42108100  0.47357500  1
  O  O41  1  0.27294900  0.14268100  0.21353700  1
  O  O42  1  0.52517400  0.24789800  0.38541100  1
  O  O43  1  0.46871500  0.98371100  0.13173200  1
  O  O44  1  0.79361000  0.31728700  0.48737200  1
  O  O45  1  0.73456800  0.11340500  0.27068700  1
  O  O46  1  0.48089800  0.23166300  0.11003500  1
  O  O47  1  0.71723500  0.36904700  0.29010600  1
  O  O48  1  0.46478300  0.48674200  0.12662600  1
  O  O49  1  0.93038400  0.54380400  0.41924700  1
  O  O50  1  0.73162800  0.61946900  0.27292900  1
  O  O51  1  0.67328500  0.34643900  0.01342500  1
  O  O52  1  0.92543800  0.45210000  0.18523000  1
  O  O53  1  0.19471800  0.50725200  0.28565300  1
  O  O54  1  0.13340400  0.31114200  0.07046000  1
  O  O55  1  0.12122300  0.56788100  0.09101700  1
  O  O56  1  0.33731900  0.75181500  0.21501700  1
  O  O57  1  0.13117000  0.81916100  0.07409300  1
  O  O58  1  0.59514200  0.71995300  0.08858400  1
  O  O59  1  0.73141100  0.94522300  0.01949500  1
loop_
_geom_bond_atom_site_label_1
_geom_bond_atom_site_label_2
_geom_bond_distance
_geom_bond_site_symmetry_2
Na0 O54 2.423177 1_556
Na0 O1 2.433054 1_555
Na0 O9 2.433993 1_555
Na0 O27 2.436058 1_555
Na0 O7 2.485677 1_555
Na0 O55 2.485772 1_556
Na0 O4 2.839025 1_455
Na0 O8 2.849634 1_555
Na1 O14 2.424564 1_555
Na1 O21 2.430226 1_455
Na1 O57 2.438005 1_556
Na1 O0 2.440389 1_565
Na1 O12 2.462893 1_555
Na1 O8 2.473639 1_555
Na1 O7 2.830499 1_555
Na1 O13 2.840922 1_555
Na2 O19 2.420488 1_555
Na2 O39 2.438134 1_555
Na2 O11 2.438145 1_555
Na2 O6 2.440393 1_555
Na2 O13 2.497784 1_555
Na2 O17 2.502081 1_555
Na2 O12 2.830230 1_555
Na2 O18 2.834170 1_555
Na3 O25 2.430971 1_555
Na3 O16 2.440034 1_555
Na3 O3 2.440280 1_555
Na3 O33 2.446698 1_555
Na3 O18 2.493221 1_545
Na3 O23 2.494680 1_545
Na3 O24 2.837099 1_545
Na3 O17 2.849183 1_545
Na4 O15 2.390657 1_655
Na4 O31 2.414584 1_655
Na4 O49 2.441717 1_555
Na4 O22 2.454614 1_555
Na4 O24 2.520326 1_555
Na4 O29 2.536960 1_555
Na4 O30 2.859880 1_665
Na4 O23 2.869524 1_555
Na5 O37 2.404794 1_555
Na5 O10 2.421841 1_555
Na5 O44 2.431023 1_455
Na5 O28 2.432624 1_455
Na5 O30 2.497752 1_555
Na5 O35 2.539262 1_555
Na5 O29 2.818593 1_445
Na5 O36 2.851043 1_555
Na6 O53 2.370527 1_555
Na6 O20 2.393863 1_555
Na6 O40 2.412463 1_555
Na6 O48 2.433825 1_555
Na6 O46 2.498887 1_555
Na6 O42 2.541454 1_555
Na6 O47 2.841928 1_555
Na6 O41 2.903026 1_555
Na7 O45 2.418586 1_555
Na7 O2 2.425363 1_554
Na7 O59 2.432274 1_545
Na7 O38 2.438105 1_655
Na7 O51 2.480258 1_555
Na7 O47 2.498254 1_555
Na7 O52 2.838939 1_555
Na7 O46 2.843019 1_555
Na8 O50 2.412709 1_555
Na8 O5 2.432531 1_554
Na8 O58 2.452539 1_555
Na8 O32 2.459850 1_555
Na8 O52 2.476527 1_555
Na8 O4 2.496746 1_554
Na8 O51 2.856875 1_555
Na8 O55 2.861016 1_655
Ca0 O34 2.309773 1_555
Ca0 O56 2.351699 1_555
Ca0 O26 2.412965 1_555
Ca0 O43 2.419291 1_555
Ca0 O41 2.490769 1_565
Ca0 O36 2.494569 1_565
Ca0 O35 2.783364 1_565
Ca0 O42 2.832362 1_565
Fe0 O54 1.946832 1_556
Fe0 O2 1.962230 1_455
Fe0 O27 2.046189 1_555
Fe0 O38 2.058056 1_556
Fe0 O21 2.144595 1_445
Fe0 O0 2.176383 1_555
Fe1 O9 1.960723 1_555
Fe1 O11 1.965585 1_555
Fe1 O1 2.054010 1_555
Fe1 O39 2.066389 1_555
Fe1 O33 2.140784 1_555
Fe1 O3 2.147253 1_555
Fe2 O14 1.955418 1_545
Fe2 O16 1.968523 1_555
Fe2 O33 2.045866 1_555
Fe2 O0 2.056857 1_555
Fe2 O27 2.153304 1_555
Fe2 O1 2.158682 1_555
Fe3 O19 1.959946 1_555
Fe3 O22 1.964077 1_555
Fe3 O49 2.048593 1_555
Fe3 O6 2.059266 1_555
Fe3 O10 2.149347 1_655
Fe3 O44 2.168821 1_555
Fe4 O28 1.962644 1_555
Fe4 O25 1.972349 1_555
Fe4 O44 2.052200 1_555
Fe4 O3 2.054276 1_555
Fe4 O39 2.143103 1_555
Fe4 O6 2.143620 1_555
Fe5 O31 2.025491 1_555
Fe5 O15 2.114999 1_555
Fe5 O34 2.119648 1_555
Fe5 O53 2.183662 1_555
Fe5 O56 2.188459 1_555
Fe5 O20 2.198400 1_555
Fe6 O40 1.980648 1_555
Fe6 O37 2.005376 1_555
Fe6 O53 2.012983 1_555
Fe6 O10 2.073902 1_555
Fe6 O15 2.085834 1_555
Fe6 O49 2.147123 1_455
Fe7 O45 1.965155 1_565
Fe7 O43 1.999987 1_555
Fe7 O59 2.029094 1_555
Fe7 O32 2.076846 1_555
Fe7 O26 2.078664 1_555
Fe7 O58 2.130143 1_555
Fe8 O48 1.956213 1_555
Fe8 O50 1.964517 1_555
Fe8 O20 2.018775 1_555
Fe8 O58 2.073404 1_555
Fe8 O56 2.137591 1_555
Fe8 O26 2.201913 1_555
Fe9 O57 1.956987 1_655
Fe9 O5 1.961848 1_554
Fe9 O21 2.048075 1_554
Fe9 O32 2.056754 1_555
Fe9 O38 2.152534 1_665
Fe9 O59 2.161173 1_555
O0 Si14 1.637954 1_556
O1 Si16 1.644969 1_556
O2 Si0 1.615449 1_555
O3 Si0 1.647807 1_555
O4 Si0 1.656117 1_555
O4 Si1 1.667358 1_555
O5 Si1 1.617940 1_555
O6 Si1 1.647801 1_555
O7 Si1 1.654877 1_455
O7 Si2 1.668859 1_555
O8 Si3 1.654500 1_555
O8 Si19 1.668795 1_556
O9 Si2 1.618832 1_555
O10 Si2 1.647183 1_555
O11 Si3 1.616561 1_555
O12 Si2 1.656520 1_555
O12 Si4 1.673060 1_555
O13 Si5 1.655292 1_555
O13 Si3 1.668861 1_555
O14 Si4 1.622730 1_555
O15 Si4 1.626074 1_555
O16 Si5 1.614627 1_545
O17 Si4 1.663457 1_555
O17 Si6 1.669705 1_555
O18 Si7 1.657719 1_555
O18 Si5 1.662200 1_555
O19 Si6 1.617898 1_555
O20 Si6 1.637063 1_555
O21 Si7 1.650378 1_555
O22 Si7 1.611584 1_555
O23 Si8 1.660692 1_555
O23 Si6 1.665495 1_555
O24 Si9 1.656436 1_665
O24 Si7 1.665896 1_555
O25 Si8 1.614793 1_545
O26 Si8 1.658621 1_555
O27 Si9 1.648715 1_555
O28 Si9 1.614817 1_655
O29 Si8 1.651747 1_555
O29 Si10 1.672223 1_555
O30 Si11 1.656098 1_555
O30 Si9 1.666178 1_555
O31 Si10 1.587848 1_455
O32 Si10 1.652750 1_555
O33 Si11 1.643625 1_555
O34 Si11 1.598494 1_565
O35 Si10 1.675142 1_445
O35 Si12 1.675943 1_555
O36 Si13 1.662668 1_555
O36 Si11 1.687915 1_555
O37 Si12 1.603998 1_555
O38 Si12 1.643619 1_555
O39 Si13 1.642842 1_555
O40 Si13 1.604032 1_555
O41 Si12 1.672774 1_555
O41 Si14 1.679029 1_555
O42 Si15 1.672033 1_555
O42 Si13 1.681055 1_555
O43 Si14 1.624545 1_565
O44 Si15 1.644317 1_555
O45 Si15 1.616510 1_555
O46 Si14 1.649712 1_555
O46 Si16 1.672049 1_555
O47 Si17 1.663708 1_555
O47 Si15 1.664434 1_555
O48 Si16 1.612243 1_555
O49 Si17 1.646268 1_555
O50 Si17 1.616344 1_555
O51 Si16 1.655288 1_555
O51 Si0 1.666770 1_554
O52 Si18 1.661346 1_655
O52 Si17 1.667894 1_555
O53 Si18 1.626873 1_555
O54 Si18 1.620124 1_555
O55 Si19 1.655616 1_555
O55 Si18 1.672525 1_555
O56 Si19 1.636606 1_555
O57 Si19 1.621226 1_555
O58 Si3 1.650064 1_554
O59 Si5 1.647295 1_554
