# generated using pymatgen
data_YHoO3
_symmetry_space_group_name_H-M   'P 1'
_cell_length_a   6.42506431
_cell_length_b   6.42506431
_cell_length_c   12.76526000
_cell_angle_alpha   90.00000000
_cell_angle_beta   90.00000000
_cell_angle_gamma   120.00000317
_symmetry_Int_Tables_number   1
_chemical_formula_structural   YHoO3
_chemical_formula_sum   'Y6 Ho6 O18'
_cell_volume   456.36805856
_cell_formula_units_Z   6
loop_
 _symmetry_equiv_pos_site_id
 _symmetry_equiv_pos_as_xyz
  1  'x, y, z'
loop_
 _atom_site_type_symbol
 _atom_site_label
 _atom_site_symmetry_multiplicity
 _atom_site_fract_x
 _atom_site_fract_y
 _atom_site_fract_z
 _atom_site_occupancy
  Y  Y0  1  0.33333300  0.66666700  0.23698700  1
  Y  Y1  1  0.00000000  0.00000000  0.26985200  1
  Y  Y2  1  0.00000000  0.00000000  0.76985200  1
  Y  Y3  1  0.33333300  0.66666700  0.73698700  1
  Y  Y4  1  0.66666700  0.33333300  0.73698700  1
  Y  Y5  1  0.66666700  0.33333300  0.23698700  1
  Ho  Ho0  1  0.00000000  0.66686900  0.50145600  1
  Ho  Ho1  1  0.00000000  0.33313100  0.00145600  1
  Ho  Ho2  1  0.33313100  0.33313100  0.50145600  1
  Ho  Ho3  1  0.66686900  0.66686900  0.00145600  1
  Ho  Ho4  1  0.33313100  0.00000000  0.00145600  1
  Ho  Ho5  1  0.66686900  0.00000000  0.50145600  1
  O  O0  1  0.00000000  0.69328900  0.67494500  1
  O  O1  1  0.00000000  0.63777200  0.32953700  1
  O  O2  1  0.00000000  0.36222800  0.82953700  1
  O  O3  1  0.00000000  0.30671100  0.17494500  1
  O  O4  1  0.33333300  0.66666700  0.02903900  1
  O  O5  1  0.00000000  0.00000000  0.46788300  1
  O  O6  1  0.00000000  0.00000000  0.96788300  1
  O  O7  1  0.33333300  0.66666700  0.52903900  1
  O  O8  1  0.30671100  0.30671100  0.67494500  1
  O  O9  1  0.36222800  0.36222800  0.32953700  1
  O  O10  1  0.30671100  0.00000000  0.17494500  1
  O  O11  1  0.63777200  0.63777200  0.82953700  1
  O  O12  1  0.69328900  0.69328900  0.17494500  1
  O  O13  1  0.36222800  0.00000000  0.82953700  1
  O  O14  1  0.66666700  0.33333300  0.52903900  1
  O  O15  1  0.66666700  0.33333300  0.02903900  1
  O  O16  1  0.63777200  0.00000000  0.32953700  1
  O  O17  1  0.69328900  0.00000000  0.67494500  1
loop_
_geom_bond_atom_site_label_1
_geom_bond_atom_site_label_2
_geom_bond_distance
_geom_bond_site_symmetry_2
Ho0 O7 2.171077 1_555
Ho0 O14 2.171081 1_455
Ho0 O5 2.182872 1_565
Ho0 O1 2.202539 1_555
Ho0 O0 2.221128 1_555
Ho1 O15 2.171077 1_455
Ho1 O4 2.171081 1_555
Ho1 O6 2.182872 1_554
Ho1 O2 2.202539 1_554
Ho1 O3 2.221128 1_555
Ho2 O14 2.171084 1_555
Ho2 O7 2.171084 1_555
Ho2 O5 2.182872 1_555
Ho2 O9 2.202539 1_555
Ho2 O8 2.221128 1_555
Ho3 O4 2.171084 1_555
Ho3 O15 2.171084 1_555
Ho3 O6 2.182872 1_664
Ho3 O11 2.202539 1_554
Ho3 O12 2.221128 1_555
Ho4 O4 2.171077 1_545
Ho4 O15 2.171081 1_555
Ho4 O6 2.182872 1_554
Ho4 O13 2.202539 1_554
Ho4 O10 2.221128 1_555
Ho5 O14 2.171077 1_555
Ho5 O7 2.171081 1_545
Ho5 O5 2.182872 1_655
Ho5 O16 2.202539 1_555
Ho5 O17 2.221128 1_555
O0 Y2 2.313261 1_565
O0 Y3 2.368469 1_555
O0 Y4 2.368472 1_455
O1 Y0 2.370536 1_555
O1 Y5 2.370538 1_455
O1 Y1 2.448875 1_565
O2 Y4 2.370536 1_455
O2 Y3 2.370538 1_555
O2 Y2 2.448875 1_555
O3 Y1 2.313261 1_555
O3 Y5 2.368469 1_455
O3 Y0 2.368472 1_555
O4 Y0 2.654510 1_555
O5 Y1 2.527917 1_555
O6 Y2 2.527917 1_555
O7 Y3 2.654510 1_555
O8 Y2 2.313261 1_555
O8 Y4 2.368475 1_555
O8 Y3 2.368475 1_555
O9 Y5 2.370542 1_555
O9 Y0 2.370542 1_555
O9 Y1 2.448874 1_555
O10 Y1 2.313261 1_555
O10 Y0 2.368469 1_545
O10 Y5 2.368472 1_555
O11 Y4 2.370542 1_555
O11 Y3 2.370542 1_555
O11 Y2 2.448874 1_665
O12 Y1 2.313261 1_665
O12 Y0 2.368475 1_555
O12 Y5 2.368475 1_555
O13 Y3 2.370536 1_545
O13 Y4 2.370538 1_555
O13 Y2 2.448875 1_555
O14 Y4 2.654510 1_555
O15 Y5 2.654510 1_555
O16 Y5 2.370536 1_555
O16 Y0 2.370538 1_545
O16 Y1 2.448875 1_655
O17 Y2 2.313261 1_655
O17 Y4 2.368469 1_555
O17 Y3 2.368472 1_545
