# generated using pymatgen
data_Li2Mn3F8
_symmetry_space_group_name_H-M   'P 1'
_cell_length_a   10.36896000
_cell_length_b   6.09473400
_cell_length_c   10.94049419
_cell_angle_alpha   86.33973334
_cell_angle_beta   90.00000000
_cell_angle_gamma   90.00000000
_symmetry_Int_Tables_number   1
_chemical_formula_structural   Li2Mn3F8
_chemical_formula_sum   'Li8 Mn12 F32'
_cell_volume   689.98569297
_cell_formula_units_Z   4
loop_
 _symmetry_equiv_pos_site_id
 _symmetry_equiv_pos_as_xyz
  1  'x, y, z'
loop_
 _atom_site_type_symbol
 _atom_site_label
 _atom_site_symmetry_multiplicity
 _atom_site_fract_x
 _atom_site_fract_y
 _atom_site_fract_z
 _atom_site_occupancy
  Li  Li0  1  0.05225500  0.87638800  0.79205000  1
  Li  Li1  1  0.44774500  0.87638800  0.29205000  1
  Li  Li2  1  0.64585200  0.64320200  0.87847600  1
  Li  Li3  1  0.85414800  0.64320200  0.37847600  1
  Li  Li4  1  0.14585200  0.35679800  0.62152400  1
  Li  Li5  1  0.35414800  0.35679800  0.12152400  1
  Li  Li6  1  0.55225500  0.12361200  0.70795000  1
  Li  Li7  1  0.94774500  0.12361200  0.20795000  1
  Mn  Mn0  1  0.36401800  0.88597400  0.96513100  1
  Mn  Mn1  1  0.13598200  0.88597400  0.46513100  1
  Mn  Mn2  1  0.35676100  0.64168000  0.71521900  1
  Mn  Mn3  1  0.62789600  0.64450900  0.55536000  1
  Mn  Mn4  1  0.14323900  0.64168000  0.21521900  1
  Mn  Mn5  1  0.87210400  0.64450900  0.05536000  1
  Mn  Mn6  1  0.12789600  0.35549100  0.94464000  1
  Mn  Mn7  1  0.85676100  0.35832000  0.78478100  1
  Mn  Mn8  1  0.37210400  0.35549100  0.44464000  1
  Mn  Mn9  1  0.64323900  0.35832000  0.28478100  1
  Mn  Mn10  1  0.86401800  0.11402600  0.53486900  1
  Mn  Mn11  1  0.63598200  0.11402600  0.03486900  1
  F  F0  1  0.49500600  0.86289700  0.63086700  1
  F  F1  1  0.23783100  0.85977300  0.80999600  1
  F  F2  1  0.01114600  0.89682400  0.62007500  1
  F  F3  1  0.73759300  0.85004500  0.96684000  1
  F  F4  1  0.00499400  0.86289700  0.13086700  1
  F  F5  1  0.26216900  0.85977300  0.30999600  1
  F  F6  1  0.48885400  0.89682400  0.12007500  1
  F  F7  1  0.76240700  0.85004500  0.46684000  1
  F  F8  1  0.46830400  0.63869900  0.87506700  1
  F  F9  1  0.98337900  0.60406700  0.88142200  1
  F  F10  1  0.72212400  0.60412600  0.72410200  1
  F  F11  1  0.03169600  0.63869900  0.37506700  1
  F  F12  1  0.51662100  0.60406700  0.38142200  1
  F  F13  1  0.25140600  0.60490500  0.54585600  1
  F  F14  1  0.77787600  0.60412600  0.22410200  1
  F  F15  1  0.24859400  0.60490500  0.04585600  1
  F  F16  1  0.75140600  0.39509500  0.95414400  1
  F  F17  1  0.22212400  0.39587400  0.77589800  1
  F  F18  1  0.74859400  0.39509500  0.45414400  1
  F  F19  1  0.48337900  0.39593300  0.61857800  1
  F  F20  1  0.96830400  0.36130100  0.62493300  1
  F  F21  1  0.27787600  0.39587400  0.27589800  1
  F  F22  1  0.01662100  0.39593300  0.11857800  1
  F  F23  1  0.53169600  0.36130100  0.12493300  1
  F  F24  1  0.23759300  0.14995500  0.53316000  1
  F  F25  1  0.51114600  0.10317600  0.87992500  1
  F  F26  1  0.73783100  0.14022700  0.69000400  1
  F  F27  1  0.99500600  0.13710300  0.86913300  1
  F  F28  1  0.26240700  0.14995500  0.03316000  1
  F  F29  1  0.98885400  0.10317600  0.37992500  1
  F  F30  1  0.76216900  0.14022700  0.19000400  1
  F  F31  1  0.50499400  0.13710300  0.36913300  1
loop_
_geom_bond_atom_site_label_1
_geom_bond_atom_site_label_2
_geom_bond_distance
_geom_bond_site_symmetry_2
F0 Li6 1.938957 1_565
F0 Mn3 2.119694 1_555
F0 Mn2 2.136678 1_555
F1 Li0 1.936214 1_555
F1 Mn2 2.130425 1_555
F1 Mn0 2.157026 1_555
F2 Li0 1.925434 1_555
F2 Mn1 2.137238 1_555
F2 Mn10 2.188879 1_465
F3 Li2 1.893237 1_555
F3 Mn5 2.073047 1_556
F3 Mn11 2.098915 1_566
F4 Li7 1.938957 1_465
F4 Mn5 2.119694 1_455
F4 Mn4 2.136678 1_555
F5 Li1 1.936214 1_555
F5 Mn4 2.130425 1_555
F5 Mn1 2.157026 1_555
F6 Li1 1.925434 1_555
F6 Mn0 2.137238 1_554
F6 Mn11 2.188879 1_565
F7 Li3 1.893237 1_555
F7 Mn3 2.073047 1_555
F7 Mn10 2.098915 1_565
F8 Li2 1.841606 1_555
F8 Mn2 2.095786 1_555
F8 Mn0 2.145012 1_555
F9 Li0 2.003388 1_655
F9 Mn6 2.210269 1_655
F9 Mn5 2.252376 1_556
F9 Mn7 2.299363 1_555
F10 Li2 1.893678 1_555
F10 Mn3 2.089341 1_555
F10 Mn7 2.122979 1_555
F11 Li3 1.841606 1_455
F11 Mn4 2.095786 1_555
F11 Mn1 2.145012 1_555
F12 Li1 2.003388 1_555
F12 Mn8 2.210269 1_555
F12 Mn3 2.252376 1_555
F12 Mn9 2.299363 1_555
F13 Li4 2.002493 1_555
F13 Mn2 2.174843 1_555
F13 Mn1 2.225697 1_555
F13 Mn8 2.306118 1_555
F14 Li3 1.893678 1_555
F14 Mn5 2.089341 1_555
F14 Mn9 2.122979 1_555
F15 Li5 2.002493 1_555
F15 Mn4 2.174843 1_555
F15 Mn0 2.225697 1_554
F15 Mn6 2.306118 1_554
F16 Li2 2.002493 1_555
F16 Mn7 2.174843 1_555
F16 Mn11 2.225697 1_556
F16 Mn5 2.306118 1_556
F17 Li4 1.893678 1_555
F17 Mn6 2.089341 1_555
F17 Mn2 2.122979 1_555
F18 Li3 2.002493 1_555
F18 Mn9 2.174843 1_555
F18 Mn10 2.225697 1_555
F18 Mn3 2.306118 1_555
F19 Li6 2.003388 1_555
F19 Mn3 2.210269 1_555
F19 Mn8 2.252376 1_555
F19 Mn2 2.299363 1_555
F20 Li4 1.841606 1_655
F20 Mn7 2.095786 1_555
F20 Mn10 2.145012 1_555
F21 Li5 1.893678 1_555
F21 Mn8 2.089341 1_555
F21 Mn4 2.122979 1_555
F22 Li7 2.003388 1_455
F22 Mn5 2.210269 1_455
F22 Mn6 2.252376 1_554
F22 Mn4 2.299363 1_555
F23 Li5 1.841606 1_555
F23 Mn9 2.095786 1_555
F23 Mn11 2.145012 1_555
F24 Li4 1.893237 1_555
F24 Mn8 2.073047 1_555
F24 Mn1 2.098915 1_545
F25 Li6 1.925434 1_555
F25 Mn11 2.137238 1_556
F25 Mn0 2.188879 1_545
F26 Li6 1.936214 1_555
F26 Mn7 2.130425 1_555
F26 Mn10 2.157026 1_555
F27 Li0 1.938957 1_645
F27 Mn6 2.119694 1_655
F27 Mn7 2.136678 1_555
F28 Li5 1.893237 1_555
F28 Mn6 2.073047 1_554
F28 Mn0 2.098915 1_544
F29 Li7 1.925434 1_555
F29 Mn10 2.137238 1_555
F29 Mn1 2.188879 1_645
F30 Li7 1.936214 1_555
F30 Mn9 2.130425 1_555
F30 Mn11 2.157026 1_555
F31 Li1 1.938957 1_545
F31 Mn8 2.119694 1_555
F31 Mn9 2.136678 1_555
