# generated using pymatgen
data_Cs2CeO3
_symmetry_space_group_name_H-M   'P 1'
_cell_length_a   7.49295024
_cell_length_b   7.49295024
_cell_length_c   14.66094300
_cell_angle_alpha   90.00000000
_cell_angle_beta   90.00000000
_cell_angle_gamma   125.09970792
_symmetry_Int_Tables_number   1
_chemical_formula_structural   Cs2CeO3
_chemical_formula_sum   'Cs8 Ce4 O12'
_cell_volume   673.44470610
_cell_formula_units_Z   4
loop_
 _symmetry_equiv_pos_site_id
 _symmetry_equiv_pos_as_xyz
  1  'x, y, z'
loop_
 _atom_site_type_symbol
 _atom_site_label
 _atom_site_symmetry_multiplicity
 _atom_site_fract_x
 _atom_site_fract_y
 _atom_site_fract_z
 _atom_site_occupancy
  Cs  Cs0  1  0.37950000  0.62050000  0.91928500  1
  Cs  Cs1  1  0.69411000  0.30589000  0.86698100  1
  Cs  Cs2  1  0.62050000  0.37950000  0.41928500  1
  Cs  Cs3  1  0.30589000  0.69411000  0.36698100  1
  Cs  Cs4  1  0.19796200  0.80203800  0.63748800  1
  Cs  Cs5  1  0.87575700  0.12424300  0.58145500  1
  Cs  Cs6  1  0.80203800  0.19796200  0.13748800  1
  Cs  Cs7  1  0.12424300  0.87575700  0.08145500  1
  Ce  Ce0  1  0.51044900  0.48955100  0.65937600  1
  Ce  Ce1  1  0.48955100  0.51044900  0.15937600  1
  Ce  Ce2  1  0.98769700  0.01230300  0.33935100  1
  Ce  Ce3  1  0.01230300  0.98769700  0.83935100  1
  O  O0  1  0.72554000  0.77321800  0.74853800  1
  O  O1  1  0.40727700  0.59272300  0.55564200  1
  O  O2  1  0.66072100  0.33927900  0.63260600  1
  O  O3  1  0.59272300  0.40727700  0.05564200  1
  O  O4  1  0.33927900  0.66072100  0.13260600  1
  O  O5  1  0.27446000  0.22678200  0.24853800  1
  O  O6  1  0.22678200  0.27446000  0.74853800  1
  O  O7  1  0.90868200  0.09131800  0.94307500  1
  O  O8  1  0.15988200  0.84011800  0.86786700  1
  O  O9  1  0.84011800  0.15988200  0.36786700  1
  O  O10  1  0.09131800  0.90868200  0.44307500  1
  O  O11  1  0.77321800  0.72554000  0.24853800  1
loop_
_geom_bond_atom_site_label_1
_geom_bond_atom_site_label_2
_geom_bond_distance
_geom_bond_site_symmetry_2
Cs0 O8 3.016345 1_555
Cs0 O4 3.172897 1_556
Cs0 O6 3.299522 1_555
Cs0 O0 3.299522 1_555
Cs0 O3 3.469441 1_556
Cs0 O7 3.493264 1_565
Cs0 O7 3.493264 1_455
Cs1 O7 3.063850 1_555
Cs1 O3 3.077079 1_556
Cs1 O2 3.464729 1_555
Cs1 O8 3.483963 1_655
Cs1 O8 3.483963 1_545
Cs2 O9 3.016345 1_555
Cs2 O2 3.172897 1_555
Cs2 O5 3.299522 1_555
Cs2 O11 3.299522 1_555
Cs2 O1 3.469441 1_555
Cs2 O10 3.493264 1_655
Cs2 O10 3.493264 1_545
Cs3 O10 3.063850 1_555
Cs3 O1 3.077079 1_555
Cs3 O4 3.464729 1_555
Cs3 O9 3.483963 1_565
Cs3 O9 3.483963 1_455
Cs4 O1 3.031229 1_555
Cs4 O10 3.183621 1_555
Cs4 O8 3.415327 1_555
Cs4 O2 3.490134 1_455
Cs4 O2 3.490134 1_565
Cs5 O2 2.956388 1_555
Cs5 O9 3.167066 1_555
Cs5 O6 3.283424 1_655
Cs5 O0 3.283424 1_545
Cs5 O1 3.499937 1_545
Cs5 O1 3.499937 1_655
Cs5 O10 3.511948 1_645
Cs6 O3 3.031229 1_555
Cs6 O7 3.183621 1_554
Cs6 O9 3.415327 1_555
Cs6 O4 3.490134 1_545
Cs6 O4 3.490134 1_655
Cs7 O4 2.956388 1_555
Cs7 O8 3.167066 1_554
Cs7 O5 3.283424 1_565
Cs7 O11 3.283424 1_455
Cs7 O3 3.499937 1_455
Cs7 O3 3.499937 1_565
Cs7 O7 3.511948 1_464
Ce0 O2 2.036593 1_555
Ce0 O1 2.048285 1_555
Ce0 O6 2.210102 1_555
Ce0 O0 2.210102 1_555
Ce1 O4 2.036593 1_555
Ce1 O3 2.048285 1_555
Ce1 O5 2.210102 1_555
Ce1 O11 2.210102 1_555
Ce2 O9 2.006639 1_555
Ce2 O10 2.052181 1_645
Ce2 O11 2.236325 1_545
Ce2 O5 2.236325 1_655
Ce3 O8 2.006639 1_555
Ce3 O7 2.052181 1_465
Ce3 O0 2.236325 1_455
Ce3 O6 2.236325 1_565
