# generated using pymatgen
data_Li4Fe3(OF3)2
_symmetry_space_group_name_H-M   'P 1'
_cell_length_a   5.27125672
_cell_length_b   5.30938062
_cell_length_c   11.75213557
_cell_angle_alpha   98.67445654
_cell_angle_beta   93.63557795
_cell_angle_gamma   79.69917938
_symmetry_Int_Tables_number   1
_chemical_formula_structural   Li4Fe3(OF3)2
_chemical_formula_sum   'Li8 Fe6 O4 F12'
_cell_volume   319.68082129
_cell_formula_units_Z   2
loop_
 _symmetry_equiv_pos_site_id
 _symmetry_equiv_pos_as_xyz
  1  'x, y, z'
loop_
 _atom_site_type_symbol
 _atom_site_label
 _atom_site_symmetry_multiplicity
 _atom_site_fract_x
 _atom_site_fract_y
 _atom_site_fract_z
 _atom_site_occupancy
  Li  Li0  1  0.98558800  0.98246300  0.99884300  1
  Li  Li1  1  0.98480200  0.48181700  0.49883700  1
  Li  Li2  1  0.51520900  0.39319100  0.37613400  1
  Li  Li3  1  0.51450300  0.89252500  0.87617000  1
  Li  Li4  1  0.47584700  0.11561900  0.11642300  1
  Li  Li5  1  0.47585600  0.61718100  0.61646400  1
  Li  Li6  1  0.02421300  0.25793200  0.25852700  1
  Li  Li7  1  0.02419900  0.75937200  0.75857600  1
  Fe  Fe0  1  0.25009600  0.93742800  0.43749500  1
  Fe  Fe1  1  0.74880100  0.04729200  0.55830200  1
  Fe  Fe2  1  0.75122300  0.82779900  0.31671300  1
  Fe  Fe3  1  0.24995200  0.43750400  0.93749900  1
  Fe  Fe4  1  0.74889900  0.54650000  0.05796800  1
  Fe  Fe5  1  0.75104800  0.32847400  0.81707300  1
  O  O0  1  0.60305400  0.74063500  0.47108600  1
  O  O1  1  0.60262900  0.24056400  0.97114900  1
  O  O2  1  0.89713300  0.13414600  0.40392700  1
  O  O3  1  0.89728200  0.63451800  0.90386600  1
  F  F0  1  0.11159000  0.30049600  0.09494000  1
  F  F1  1  0.11029700  0.79987800  0.59470100  1
  F  F2  1  0.38960900  0.07507700  0.28021900  1
  F  F3  1  0.38842000  0.57450200  0.78002400  1
  F  F4  1  0.37845900  0.79573000  0.02231500  1
  F  F5  1  0.37927200  0.29590000  0.52263300  1
  F  F6  1  0.12075400  0.57902400  0.35241200  1
  F  F7  1  0.12144100  0.07923800  0.85268300  1
  F  F8  1  0.66453700  0.47817100  0.22845600  1
  F  F9  1  0.66254700  0.97948300  0.72892500  1
  F  F10  1  0.83742400  0.89551800  0.14606000  1
  F  F11  1  0.83531600  0.39702300  0.64658000  1
loop_
_geom_bond_atom_site_label_1
_geom_bond_atom_site_label_2
_geom_bond_distance
_geom_bond_site_symmetry_2
Li0 O3 2.120138 1_555
Li0 O1 2.262906 1_565
Li1 O2 2.117482 1_555
Li1 O0 2.259873 1_555
Li2 O0 2.116985 1_555
Li2 O2 2.261246 1_555
Li3 O1 2.120237 1_565
Li3 O3 2.261941 1_555
Li4 O1 2.108645 1_554
Li5 O0 2.106756 1_555
Li6 O2 2.107583 1_455
Li7 O3 2.108874 1_455
Fe0 O2 2.011072 1_465
Fe0 O0 2.011261 1_555
Fe1 O0 2.033670 1_545
Fe1 O2 2.162561 1_555
Fe2 O2 2.032778 1_565
Fe2 O0 2.162818 1_555
Fe3 O1 2.010497 1_555
Fe3 O3 2.010575 1_455
Fe4 O1 2.030315 1_554
Fe4 O3 2.162324 1_554
Fe5 O3 2.030567 1_555
Fe5 O1 2.161904 1_555
F0 Li4 2.013264 1_555
F0 Li6 2.059072 1_555
F0 Li0 2.073293 1_444
F0 Fe4 2.173171 1_455
F0 Fe3 2.291604 1_554
F1 Li5 2.015774 1_555
F1 Li7 2.057166 1_555
F1 Li1 2.071160 1_455
F1 Fe1 2.170383 1_465
F1 Fe0 2.293858 1_555
F2 Li6 2.015194 1_555
F2 Li4 2.056545 1_555
F2 Li2 2.071861 1_555
F2 Fe2 2.170769 1_545
F2 Fe0 2.294192 1_545
F3 Li7 2.013032 1_555
F3 Li5 2.059037 1_555
F3 Li3 2.073667 1_555
F3 Fe5 2.173192 1_555
F3 Fe3 2.292166 1_555
F4 Li4 2.011100 1_565
F4 Li3 2.069419 1_554
F4 Li0 2.150238 1_454
F4 Fe3 2.207518 1_554
F4 Fe4 2.208832 1_555
F5 Li5 2.014186 1_555
F5 Li2 2.074017 1_555
F5 Li1 2.156793 1_455
F5 Fe1 2.203650 1_555
F5 Fe0 2.211297 1_545
F6 Li6 2.013547 1_555
F6 Li1 2.073084 1_455
F6 Li2 2.156468 1_555
F6 Fe2 2.204154 1_455
F6 Fe0 2.211174 1_555
F7 Li7 2.010711 1_545
F7 Li0 2.069083 1_445
F7 Li3 2.151108 1_545
F7 Fe3 2.207707 1_555
F7 Fe5 2.208544 1_455
F8 Li6 2.081741 1_655
F8 Li2 2.090864 1_555
F8 Fe2 2.095938 1_555
F8 Fe4 2.175711 1_555
F8 Li4 2.486425 1_555
F9 Li3 2.087507 1_555
F9 Li7 2.088832 1_655
F9 Fe5 2.095941 1_565
F9 Fe1 2.179226 1_565
F9 Li5 2.482063 1_555
F10 Li0 2.087482 1_554
F10 Li4 2.088460 1_565
F10 Fe4 2.095879 1_555
F10 Fe2 2.179318 1_555
F10 Li6 2.482805 1_665
F11 Li5 2.080752 1_555
F11 Li1 2.091528 1_555
F11 Fe1 2.096178 1_555
F11 Fe5 2.176022 1_555
F11 Li7 2.485945 1_655
