# generated using pymatgen
data_SrNi2(PO4)2
_symmetry_space_group_name_H-M   'P 1'
_cell_length_a   5.50919900
_cell_length_b   6.88654088
_cell_length_c   9.25657222
_cell_angle_alpha   111.24052255
_cell_angle_beta   100.99896433
_cell_angle_gamma   98.09819240
_symmetry_Int_Tables_number   1
_chemical_formula_structural   SrNi2(PO4)2
_chemical_formula_sum   'Sr2 Ni4 P4 O16'
_cell_volume   312.74097484
_cell_formula_units_Z   2
loop_
 _symmetry_equiv_pos_site_id
 _symmetry_equiv_pos_as_xyz
  1  'x, y, z'
loop_
 _atom_site_type_symbol
 _atom_site_label
 _atom_site_symmetry_multiplicity
 _atom_site_fract_x
 _atom_site_fract_y
 _atom_site_fract_z
 _atom_site_occupancy
  Sr  Sr0  1  0.24061000  0.30663200  0.44621400  1
  Sr  Sr1  1  0.75939000  0.69336800  0.55378600  1
  Ni  Ni0  1  0.51093100  0.92532600  0.83913600  1
  Ni  Ni1  1  0.48906900  0.07467400  0.16086400  1
  Ni  Ni2  1  0.85813500  0.26573500  0.93932300  1
  Ni  Ni3  1  0.14186500  0.73426500  0.06067700  1
  P  P0  1  0.89104300  0.94525700  0.74177800  1
  P  P1  1  0.10895700  0.05474300  0.25822200  1
  P  P2  1  0.34649000  0.41547300  0.80573000  1
  P  P3  1  0.65351000  0.58452700  0.19427000  1
  O  O0  1  0.66154700  0.20241300  0.62548100  1
  O  O1  1  0.33845300  0.79758700  0.37451900  1
  O  O2  1  0.24737000  0.73891400  0.63516100  1
  O  O3  1  0.75263000  0.26108600  0.36483900  1
  O  O4  1  0.14531200  0.08164600  0.70084800  1
  O  O5  1  0.85468800  0.91835400  0.29915200  1
  O  O6  1  0.84368300  0.72655800  0.73726000  1
  O  O7  1  0.15631700  0.27344200  0.26274000  1
  O  O8  1  0.54551300  0.27286100  0.80423300  1
  O  O9  1  0.45448700  0.72713900  0.19576700  1
  O  O10  1  0.11902200  0.22085700  0.09169000  1
  O  O11  1  0.88097800  0.77914300  0.90831000  1
  O  O12  1  0.49283200  0.60245600  0.07079600  1
  O  O13  1  0.50716800  0.39754400  0.92920400  1
  O  O14  1  0.87881000  0.78363000  0.13124200  1
  O  O15  1  0.12119000  0.21637000  0.86875800  1
loop_
_geom_bond_atom_site_label_1
_geom_bond_atom_site_label_2
_geom_bond_distance
_geom_bond_site_symmetry_2
Ni0 O2 1.998435 1_555
Ni0 O8 2.514740 1_565
Ni1 O3 1.998435 1_555
Ni1 O9 2.514740 1_545
Ni2 O15 1.726730 1_655
Ni2 O8 1.943929 1_555
Ni2 O10 1.953961 1_656
Ni3 O14 1.726730 1_455
Ni3 O9 1.943929 1_555
Ni3 O11 1.953961 1_454
P0 Sr1 1.881484 1_555
P1 Sr0 1.881484 1_555
O0 O8 1.814157 1_555
O0 Sr0 2.917198 1_555
O1 O9 1.814157 1_555
O1 Sr1 2.917198 1_555
O4 P0 1.754335 1_445
O5 P1 1.754335 1_665
O6 P0 1.475665 1_555
O6 Sr1 1.593782 1_555
O7 P1 1.475665 1_555
O7 Sr0 1.593782 1_555
O8 P2 1.570434 1_555
O9 P3 1.570434 1_555
O12 O9 1.242873 1_555
O12 P3 1.360934 1_555
O13 O8 1.242873 1_555
O13 P2 1.360934 1_555
O14 O5 1.537175 1_555
O14 P1 1.910315 1_665
O14 P3 2.034078 1_555
O15 O4 1.537175 1_555
O15 P0 1.910315 1_445
O15 P2 2.034078 1_555
