# generated using pymatgen
data_LiNiBO3
_symmetry_space_group_name_H-M   'P 1'
_cell_length_a   5.69707720
_cell_length_b   7.43835210
_cell_length_c   5.82513091
_cell_angle_alpha   90.01055952
_cell_angle_beta   84.05288355
_cell_angle_gamma   89.97631735
_symmetry_Int_Tables_number   1
_chemical_formula_structural   LiNiBO3
_chemical_formula_sum   'Li4 Ni4 B4 O12'
_cell_volume   245.52220211
_cell_formula_units_Z   4
loop_
 _symmetry_equiv_pos_site_id
 _symmetry_equiv_pos_as_xyz
  1  'x, y, z'
loop_
 _atom_site_type_symbol
 _atom_site_label
 _atom_site_symmetry_multiplicity
 _atom_site_fract_x
 _atom_site_fract_y
 _atom_site_fract_z
 _atom_site_occupancy
  Li  Li0  1  0.08389100  0.12815600  0.87225400  1
  Li  Li1  1  0.41633100  0.62856800  0.62696300  1
  Li  Li2  1  0.58368100  0.37143800  0.37303100  1
  Li  Li3  1  0.91610300  0.87182600  0.12775700  1
  Ni  Ni0  1  0.26178300  0.97500300  0.39706200  1
  Ni  Ni1  1  0.73827800  0.02500800  0.60292800  1
  Ni  Ni2  1  0.23814200  0.47481100  0.10290500  1
  Ni  Ni3  1  0.76183200  0.52519900  0.89708900  1
  B  B0  1  0.12794000  0.34580200  0.59109600  1
  B  B1  1  0.37165200  0.84576600  0.90879500  1
  B  B2  1  0.62834400  0.15423500  0.09120600  1
  B  B3  1  0.87205200  0.65419400  0.40890100  1
  O  O0  1  0.23650600  0.95833000  0.05506000  1
  O  O1  1  0.26320700  0.45838900  0.44515400  1
  O  O2  1  0.73680500  0.54161500  0.55484500  1
  O  O3  1  0.76347300  0.04165800  0.94495800  1
  O  O4  1  0.05042400  0.17761700  0.52629600  1
  O  O5  1  0.55110400  0.32273300  0.02720700  1
  O  O6  1  0.44888600  0.67726900  0.97279900  1
  O  O7  1  0.94958900  0.82237600  0.47367500  1
  O  O8  1  0.08197600  0.39094200  0.82623400  1
  O  O9  1  0.41792600  0.89145700  0.67389500  1
  O  O10  1  0.58208000  0.10855600  0.32612200  1
  O  O11  1  0.91799100  0.60905200  0.17376900  1
loop_
_geom_bond_atom_site_label_1
_geom_bond_atom_site_label_2
_geom_bond_distance
_geom_bond_site_symmetry_2
Li0 O0 1.917574 1_546
Li0 O3 1.940735 1_455
Li0 O8 1.973220 1_555
Li0 O4 2.076724 1_555
Li1 O1 1.917516 1_555
Li1 O2 1.941190 1_555
Li1 O9 1.974584 1_555
Li1 O6 2.073936 1_555
Li2 O2 1.917524 1_555
Li2 O1 1.941189 1_555
Li2 O10 1.974514 1_555
Li2 O5 2.073896 1_555
Li3 O3 1.917622 1_564
Li3 O0 1.940666 1_655
Li3 O11 1.973122 1_555
Li3 O7 2.076502 1_555
Ni0 O0 2.016030 1_555
Ni0 O9 2.018692 1_555
Ni0 O4 2.024420 1_565
Ni0 O10 2.081530 1_565
Ni0 O7 2.118685 1_455
Ni1 O3 2.016101 1_555
Ni1 O10 2.018728 1_555
Ni1 O7 2.024402 1_545
Ni1 O9 2.081808 1_545
Ni1 O4 2.118403 1_655
Ni2 O1 2.017177 1_555
Ni2 O8 2.018749 1_554
Ni2 O6 2.024140 1_554
Ni2 O11 2.082424 1_455
Ni2 O5 2.118557 1_555
Ni3 O2 2.017108 1_555
Ni3 O11 2.018735 1_556
Ni3 O5 2.024156 1_556
Ni3 O8 2.082442 1_655
Ni3 O6 2.118458 1_555
B0 O1 1.372213 1_555
B0 O4 1.391898 1_555
B0 O8 1.408136 1_555
B1 O0 1.372244 1_556
B1 O6 1.391827 1_555
B1 O9 1.408123 1_555
B2 O3 1.372199 1_554
B2 O5 1.391837 1_555
B2 O10 1.408186 1_555
B3 O2 1.372127 1_555
B3 O7 1.391873 1_555
B3 O11 1.408095 1_555
