# generated using pymatgen
data_Cr22Ni50Mo3
_symmetry_space_group_name_H-M   'P 1'
_cell_length_a   6.15031833
_cell_length_b   11.54763994
_cell_length_c   11.96547799
_cell_angle_alpha   88.89960548
_cell_angle_beta   80.37041668
_cell_angle_gamma   89.42448465
_symmetry_Int_Tables_number   1
_chemical_formula_structural   Cr22Ni50Mo3
_chemical_formula_sum   'Cr22 Ni50 Mo3'
_cell_volume   837.65952652
_cell_formula_units_Z   1
loop_
 _symmetry_equiv_pos_site_id
 _symmetry_equiv_pos_as_xyz
  1  'x, y, z'
loop_
 _atom_site_type_symbol
 _atom_site_label
 _atom_site_symmetry_multiplicity
 _atom_site_fract_x
 _atom_site_fract_y
 _atom_site_fract_z
 _atom_site_occupancy
  Cr  Cr0  1  0.00566600  0.99570300  0.00248000  1
  Cr  Cr1  1  0.32052100  0.87917300  0.04015700  1
  Cr  Cr2  1  0.64041400  0.75942000  0.08072000  1
  Cr  Cr3  1  0.28128900  0.52082300  0.16052200  1
  Cr  Cr4  1  0.96030100  0.64052300  0.12124600  1
  Cr  Cr5  1  0.59950700  0.40122500  0.20157300  1
  Cr  Cr6  1  0.23782600  0.16083500  0.27951100  1
  Cr  Cr7  1  0.92105200  0.28017800  0.24182100  1
  Cr  Cr8  1  0.56166500  0.03877500  0.32052300  1
  Cr  Cr9  1  0.19940000  0.79917200  0.39910600  1
  Cr  Cr10  1  0.87810100  0.91935700  0.35943300  1
  Cr  Cr11  1  0.51986700  0.67964200  0.44005400  1
  Cr  Cr12  1  0.16106500  0.44109000  0.51843200  1
  Cr  Cr13  1  0.84035800  0.56058100  0.47967300  1
  Cr  Cr14  1  0.48068200  0.32059200  0.55918100  1
  Cr  Cr15  1  0.79470200  0.20318600  0.59753000  1
  Cr  Cr16  1  0.44398000  0.95609700  0.68012200  1
  Cr  Cr17  1  0.07928700  0.71991300  0.75978800  1
  Cr  Cr18  1  0.76042300  0.83870900  0.71927400  1
  Cr  Cr19  1  0.39932800  0.60041700  0.79980500  1
  Cr  Cr20  1  0.71369800  0.48411000  0.83848200  1
  Cr  Cr21  1  0.36102300  0.24044000  0.92059300  1
  Ni  Ni0  1  0.94739900  0.85215200  0.16153800  1
  Ni  Ni1  1  0.26797400  0.73303800  0.20046800  1
  Ni  Ni2  1  0.58739700  0.61324000  0.24094900  1
  Ni  Ni3  1  0.22727700  0.37399300  0.31923700  1
  Ni  Ni4  1  0.90691900  0.49383100  0.28167100  1
  Ni  Ni5  1  0.54729100  0.25339500  0.36054800  1
  Ni  Ni6  1  0.18796000  0.01224000  0.43590700  1
  Ni  Ni7  1  0.86822700  0.13320400  0.39928200  1
  Ni  Ni8  1  0.50387700  0.89293600  0.47956400  1
  Ni  Ni9  1  0.14602000  0.65365500  0.55893800  1
  Ni  Ni10  1  0.82529900  0.77320400  0.51922300  1
  Ni  Ni11  1  0.46655700  0.53406800  0.59955000  1
  Ni  Ni12  1  0.10827500  0.29585300  0.67674100  1
  Ni  Ni13  1  0.78787700  0.41583300  0.63877700  1
  Ni  Ni14  1  0.42807500  0.17457300  0.72062700  1
  Ni  Ni15  1  0.06337900  0.92992800  0.80171900  1
  Ni  Ni16  1  0.74349200  0.05153200  0.75833000  1
  Ni  Ni17  1  0.38601800  0.81190900  0.84018900  1
  Ni  Ni18  1  0.02628200  0.57638300  0.92068100  1
  Ni  Ni19  1  0.70612800  0.69348700  0.87959900  1
  Ni  Ni20  1  0.34842400  0.45604300  0.96112700  1
  Ni  Ni21  1  0.98780600  0.21313200  0.04468800  1
  Ni  Ni22  1  0.66298000  0.33629500  0.00263500  1
  Ni  Ni23  1  0.30373400  0.09229800  0.08241100  1
  Ni  Ni24  1  0.62613200  0.97093100  0.12280400  1
  Ni  Ni25  1  0.93119200  0.06564600  0.20188400  1
  Ni  Ni26  1  0.25298500  0.94623900  0.23965100  1
  Ni  Ni27  1  0.57252100  0.82616500  0.28098400  1
  Ni  Ni28  1  0.21337300  0.58728300  0.35919400  1
  Ni  Ni29  1  0.89292100  0.70700800  0.32008600  1
  Ni  Ni30  1  0.53265600  0.46733300  0.39984600  1
  Ni  Ni31  1  0.17465000  0.22839000  0.47621700  1
  Ni  Ni32  1  0.85311600  0.34782500  0.43899700  1
  Ni  Ni33  1  0.49682500  0.10675300  0.51764500  1
  Ni  Ni34  1  0.13288600  0.86325800  0.59880600  1
  Ni  Ni35  1  0.81126100  0.98426200  0.55729300  1
  Ni  Ni36  1  0.45348200  0.74538300  0.63982600  1
  Ni  Ni37  1  0.09417200  0.50968600  0.71792600  1
  Ni  Ni38  1  0.77331200  0.62755200  0.67905500  1
  Ni  Ni39  1  0.41653400  0.38814400  0.75798200  1
  Ni  Ni40  1  0.05641200  0.14476200  0.84127700  1
  Ni  Ni41  1  0.73369000  0.26796100  0.79676900  1
  Ni  Ni42  1  0.37079600  0.02378800  0.87918100  1
  Ni  Ni43  1  0.01425700  0.78559500  0.96107700  1
  Ni  Ni44  1  0.69299000  0.90333300  0.91999200  1
  Ni  Ni45  1  0.33496100  0.66683300  0.00021600  1
  Ni  Ni46  1  0.97320300  0.42784100  0.08378700  1
  Ni  Ni47  1  0.65601400  0.54793100  0.04016900  1
  Ni  Ni48  1  0.29359800  0.30674100  0.12074700  1
  Ni  Ni49  1  0.61152000  0.18712500  0.16423700  1
  Mo  Mo0  1  0.12059000  0.07904500  0.63858400  1
  Mo  Mo1  1  0.03952000  0.36118600  0.88057400  1
  Mo  Mo2  1  0.67961100  0.11981400  0.96077400  1
loop_
_geom_bond_atom_site_label_1
_geom_bond_atom_site_label_2
_geom_bond_distance
_geom_bond_site_symmetry_2
Cr0 Cr1 2.445465 1_555
Cr0 Ni0 2.482152 1_455
Cr0 Ni43 2.483898 1_554
Cr0 Ni23 2.487618 1_565
Cr0 Ni42 2.492516 1_564
Cr0 Ni15 2.500574 1_554
Cr0 Ni25 2.501185 1_465
Cr0 Ni40 2.542169 1_564
Cr0 Ni24 2.544929 1_455
Cr0 Ni44 2.554749 1_454
Cr0 Mo2 2.563992 1_464
Cr0 Ni21 2.568231 1_465
Cr1 Ni26 2.490603 1_555
Cr1 Ni17 2.496659 1_554
Cr1 Cr2 2.501550 1_555
Cr1 Ni45 2.505026 1_555
Cr1 Ni42 2.506397 1_564
Cr1 Ni43 2.507497 1_554
Cr1 Ni44 2.507678 1_554
Cr1 Ni1 2.512143 1_555
Cr1 Ni24 2.517082 1_555
Cr1 Ni23 2.519617 1_565
Cr1 Ni0 2.520891 1_455
Cr2 Cr4 2.496045 1_555
Cr2 Ni47 2.496839 1_555
Cr2 Ni27 2.498032 1_555
Cr2 Ni44 2.498992 1_554
Cr2 Ni24 2.500998 1_555
Cr2 Ni19 2.504619 1_554
Cr2 Ni45 2.507107 1_555
Cr2 Ni1 2.508389 1_555
Cr2 Ni2 2.511794 1_555
Cr2 Ni43 2.514655 1_654
Cr2 Ni0 2.517499 1_555
Cr3 Ni28 2.479113 1_555
Cr3 Ni20 2.480958 1_554
Cr3 Cr5 2.494055 1_555
Cr3 Ni46 2.499415 1_455
Cr3 Cr4 2.501896 1_455
Cr3 Ni3 2.503671 1_555
Cr3 Ni1 2.503673 1_555
Cr3 Ni2 2.509061 1_555
Cr3 Ni45 2.511212 1_555
Cr3 Ni47 2.523921 1_555
Cr3 Ni48 2.524500 1_555
Cr3 Ni4 2.525946 1_455
Cr4 Ni29 2.481076 1_555
Cr4 Ni18 2.491785 1_654
Cr4 Ni0 2.497904 1_555
Cr4 Ni43 2.502918 1_654
Cr4 Ni46 2.503093 1_555
Cr4 Ni47 2.504832 1_555
Cr4 Ni1 2.510033 1_655
Cr4 Ni2 2.511768 1_555
Cr4 Ni4 2.517419 1_555
Cr4 Ni45 2.525863 1_655
Cr5 Ni30 2.473290 1_555
Cr5 Ni22 2.476411 1_555
Cr5 Ni3 2.498252 1_555
Cr5 Ni2 2.500095 1_555
Cr5 Ni46 2.505403 1_555
Cr5 Ni5 2.513485 1_555
Cr5 Ni4 2.514561 1_555
Cr5 Cr7 2.516734 1_555
Cr5 Ni49 2.518980 1_555
Cr5 Ni48 2.521126 1_555
Cr5 Ni47 2.526306 1_555
Cr6 Ni31 2.461264 1_555
Cr6 Ni23 2.469440 1_555
Cr6 Cr7 2.472748 1_455
Cr6 Ni49 2.492863 1_555
Cr6 Ni7 2.495992 1_455
Cr6 Ni6 2.497125 1_555
Cr6 Ni48 2.497184 1_555
Cr6 Ni25 2.508888 1_455
Cr6 Ni3 2.514044 1_555
Cr6 Ni26 2.530398 1_545
Cr6 Ni5 2.530483 1_555
Cr6 Cr8 2.537413 1_555
Cr7 Ni21 2.464070 1_555
Cr7 Ni32 2.466890 1_555
Cr7 Ni7 2.493860 1_555
Cr7 Ni3 2.498404 1_655
Cr7 Ni46 2.504072 1_555
Cr7 Ni5 2.510566 1_555
Cr7 Ni49 2.512220 1_555
Cr7 Ni48 2.515815 1_655
Cr7 Ni4 2.519711 1_555
Cr7 Ni25 2.530187 1_555
Cr8 Ni33 2.467518 1_555
Cr8 Ni24 2.473688 1_545
Cr8 Ni25 2.488886 1_555
Cr8 Ni6 2.493783 1_555
Cr8 Ni49 2.494277 1_555
Cr8 Ni8 2.499313 1_545
Cr8 Ni27 2.507343 1_545
Cr8 Ni7 2.511433 1_555
Cr8 Ni26 2.525381 1_545
Cr8 Ni5 2.531095 1_555
Cr9 Ni1 2.477530 1_555
Cr9 Ni34 2.481846 1_555
Cr9 Ni28 2.499860 1_555
Cr9 Ni29 2.500979 1_455
Cr9 Ni9 2.503312 1_555
Cr9 Ni27 2.504659 1_555
Cr9 Ni6 2.506063 1_565
Cr9 Ni8 2.507955 1_555
Cr9 Ni26 2.511867 1_555
Cr9 Ni10 2.518027 1_455
Cr10 Ni35 2.464165 1_555
Cr10 Ni0 2.473299 1_555
Cr10 Cr8 2.476001 1_565
Cr10 Ni25 2.489367 1_565
Cr10 Ni27 2.498210 1_555
Cr10 Ni29 2.503678 1_555
Cr10 Ni6 2.506336 1_665
Cr10 Ni10 2.507751 1_555
Cr10 Cr9 2.507958 1_655
Cr10 Ni8 2.519336 1_555
Cr10 Ni26 2.521575 1_655
Cr10 Ni7 2.522229 1_565
Cr11 Ni2 2.483739 1_555
Cr11 Ni36 2.488740 1_555
Cr11 Cr13 2.496693 1_555
Cr11 Ni11 2.500812 1_555
Cr11 Ni10 2.503772 1_555
Cr11 Ni27 2.504307 1_555
Cr11 Cr9 2.504487 1_555
Cr11 Ni30 2.505413 1_555
Cr11 Ni9 2.510672 1_555
Cr11 Ni28 2.513393 1_555
Cr11 Ni29 2.513959 1_555
Cr11 Ni8 2.514766 1_555
Cr12 Ni3 2.487355 1_555
Cr12 Ni12 2.487880 1_555
Cr12 Ni37 2.496439 1_555
Cr12 Cr13 2.497275 1_455
Cr12 Ni30 2.498154 1_555
Cr12 Ni28 2.503227 1_555
Cr12 Cr14 2.505539 1_555
Cr12 Ni9 2.508940 1_555
Cr12 Ni11 2.513107 1_555
Cr12 Ni13 2.513615 1_455
Cr12 Ni31 2.514831 1_555
Cr12 Ni32 2.516556 1_455
Cr13 Ni4 2.472671 1_555
Cr13 Ni38 2.488980 1_555
Cr13 Ni13 2.491066 1_555
Cr13 Ni9 2.503009 1_655
Cr13 Ni10 2.507268 1_555
Cr13 Ni29 2.508061 1_555
Cr13 Ni32 2.511639 1_555
Cr13 Ni28 2.515375 1_655
Cr13 Ni11 2.516069 1_555
Cr13 Ni30 2.517628 1_555
Cr14 Cr15 2.449214 1_555
Cr14 Ni5 2.481439 1_555
Cr14 Ni39 2.484696 1_555
Cr14 Ni12 2.495228 1_555
Cr14 Ni30 2.508242 1_555
Cr14 Ni32 2.511728 1_555
Cr14 Ni11 2.518968 1_555
Cr14 Ni14 2.521187 1_555
Cr14 Ni31 2.523429 1_555
Cr14 Ni13 2.523939 1_555
Cr14 Ni33 2.525903 1_555
Cr15 Ni41 2.479372 1_555
Cr15 Ni33 2.485521 1_555
Cr15 Ni32 2.485850 1_555
Cr15 Ni7 2.488369 1_555
Cr15 Ni14 2.499647 1_555
Cr15 Ni13 2.512513 1_555
Cr15 Ni12 2.540619 1_655
Cr15 Ni31 2.552452 1_655
Cr15 Ni16 2.558701 1_555
Cr15 Mo0 2.560906 1_655
Cr15 Ni35 2.580389 1_545
Cr16 Cr18 2.464230 1_555
Cr16 Ni16 2.478033 1_565
Cr16 Ni36 2.487845 1_555
Cr16 Ni42 2.488477 1_565
Cr16 Ni8 2.488504 1_555
Cr16 Ni17 2.495739 1_555
Cr16 Ni35 2.500826 1_555
Cr16 Ni34 2.541840 1_555
Cr16 Mo0 2.542749 1_565
Cr16 Ni15 2.558429 1_555
Cr16 Ni33 2.565523 1_565
Cr16 Ni14 2.575955 1_565
Cr17 Ni15 2.483613 1_555
Cr17 Ni37 2.485869 1_555
Cr17 Cr18 2.490244 1_455
Cr17 Ni34 2.497015 1_555
Cr17 Ni18 2.497586 1_555
Cr17 Cr19 2.498635 1_555
Cr17 Ni9 2.502774 1_555
Cr17 Ni43 2.505594 1_555
Cr17 Ni17 2.509905 1_555
Cr17 Ni38 2.510003 1_455
Cr17 Ni19 2.512385 1_455
Cr17 Ni36 2.517063 1_555
Cr18 Ni10 2.491017 1_555
Cr18 Ni38 2.492373 1_555
Cr18 Ni44 2.495272 1_555
Cr18 Ni15 2.499767 1_655
Cr18 Ni19 2.505442 1_555
Cr18 Ni16 2.508334 1_565
Cr18 Ni34 2.509662 1_655
Cr18 Ni36 2.511866 1_555
Cr18 Ni35 2.522313 1_555
Cr18 Ni17 2.524682 1_555
Cr19 Cr20 2.445334 1_555
Cr19 Ni11 2.496436 1_555
Cr19 Ni17 2.496553 1_555
Cr19 Ni45 2.498467 1_556
Cr19 Ni36 2.500468 1_555
Cr19 Ni37 2.504812 1_555
Cr19 Ni20 2.507636 1_555
Cr19 Ni39 2.508875 1_555
Cr19 Ni19 2.511970 1_555
Cr19 Ni18 2.513992 1_555
Cr19 Ni38 2.522210 1_555
Cr20 Ni19 2.475033 1_555
Cr20 Ni39 2.483309 1_555
Cr20 Ni38 2.484754 1_555
Cr20 Ni20 2.489779 1_555
Cr20 Ni13 2.498042 1_555
Cr20 Ni47 2.503908 1_556
Cr20 Ni37 2.551872 1_655
Cr20 Ni18 2.552002 1_655
Cr20 Ni41 2.552539 1_555
Cr20 Mo1 2.556814 1_655
Cr20 Ni22 2.558469 1_556
Cr21 Ni14 2.491392 1_555
Cr21 Ni48 2.495126 1_556
Cr21 Mo2 2.499077 1_555
Cr21 Ni40 2.511561 1_555
Cr21 Mo1 2.513780 1_555
Cr21 Ni22 2.516108 1_556
Cr21 Ni41 2.531792 1_555
Cr21 Ni21 2.535624 1_456
Cr21 Ni23 2.540914 1_556
Cr21 Ni20 2.543581 1_555
Cr21 Ni39 2.544318 1_555
Cr21 Ni42 2.557905 1_555
Ni0 Ni29 2.489372 1_555
Ni0 Ni1 2.494890 1_655
Ni0 Ni24 2.495558 1_555
Ni0 Ni43 2.499523 1_654
Ni0 Ni26 2.500818 1_655
Ni0 Ni27 2.518652 1_555
Ni0 Ni25 2.519053 1_565
Ni1 Ni28 2.495590 1_555
Ni1 Ni45 2.495862 1_555
Ni1 Ni2 2.499172 1_555
Ni1 Ni27 2.505389 1_555
Ni1 Ni26 2.512950 1_555
Ni1 Ni29 2.520443 1_455
Ni2 Ni4 2.498146 1_555
Ni2 Ni30 2.498247 1_555
Ni2 Ni47 2.498505 1_555
Ni2 Ni29 2.505102 1_555
Ni2 Ni28 2.508394 1_555
Ni2 Ni27 2.511874 1_555
Ni3 Ni31 2.479147 1_555
Ni3 Ni48 2.480044 1_555
Ni3 Ni4 2.493352 1_455
Ni3 Ni5 2.510275 1_555
Ni3 Ni30 2.511235 1_555
Ni3 Ni32 2.516830 1_455
Ni4 Ni46 2.468476 1_555
Ni5 Ni7 2.502712 1_555
Ni6 Ni8 2.490831 1_545
Ni6 Ni7 2.493956 1_455
Ni10 Ni29 2.483326 1_555
Ni10 Ni35 2.486014 1_555
Ni10 Ni34 2.499434 1_655
Ni10 Ni9 2.501245 1_655
Ni10 Ni38 2.504266 1_555
Ni10 Ni8 2.505692 1_555
Ni10 Ni36 2.511575 1_555
Ni11 Ni30 2.491695 1_555
Ni11 Ni39 2.494087 1_555
Ni11 Ni13 2.494274 1_555
Ni11 Ni36 2.494294 1_555
Ni11 Ni37 2.498655 1_555
Ni11 Ni9 2.503922 1_555
Ni11 Ni38 2.512089 1_555
Ni12 Ni13 2.495885 1_455
Ni12 Ni31 2.503641 1_555
Ni12 Ni41 2.522726 1_455
Ni12 Ni14 2.523427 1_555
Ni12 Ni39 2.524306 1_555
Ni12 Ni37 2.525032 1_555
Ni12 Ni40 2.586700 1_555
Ni13 Ni32 2.497387 1_555
Ni13 Ni38 2.498805 1_555
Ni13 Ni39 2.502019 1_555
Ni13 Ni41 2.505462 1_555
Ni13 Ni37 2.509492 1_655
Ni14 Ni41 2.485441 1_555
Ni14 Ni16 2.489650 1_555
Ni14 Ni39 2.513041 1_555
Ni14 Ni40 2.514038 1_555
Ni14 Ni33 2.532570 1_555
Ni14 Ni42 2.533187 1_555
Ni15 Ni43 2.490054 1_555
Ni15 Ni44 2.491030 1_455
Ni15 Ni17 2.496791 1_555
Ni15 Ni42 2.504931 1_565
Ni15 Ni16 2.523952 1_465
Ni15 Ni34 2.527519 1_555
Ni15 Ni40 2.533092 1_565
Ni16 Ni35 2.508673 1_545
Ni16 Ni42 2.517119 1_555
Ni16 Ni44 2.539581 1_545
Ni16 Ni41 2.548185 1_555
Ni16 Ni40 2.563147 1_655
Ni17 Ni19 2.490029 1_555
Ni17 Ni42 2.497483 1_565
Ni17 Ni36 2.498314 1_555
Ni17 Ni45 2.501568 1_556
Ni17 Ni44 2.504539 1_555
Ni17 Ni43 2.510595 1_555
Ni18 Ni43 2.470830 1_555
Ni18 Ni19 2.488421 1_455
Ni18 Ni47 2.499147 1_456
Ni18 Ni45 2.506651 1_556
Ni18 Ni20 2.516033 1_555
Ni18 Ni37 2.525810 1_555
Ni18 Ni46 2.554854 1_456
Ni19 Ni44 2.477930 1_555
Ni19 Ni38 2.498138 1_555
Ni19 Ni45 2.506721 1_556
Ni19 Ni47 2.509944 1_556
Ni19 Ni43 2.524201 1_655
Ni20 Ni22 2.478491 1_556
Ni20 Ni45 2.485420 1_556
Ni20 Ni47 2.505329 1_556
Ni20 Ni48 2.530563 1_556
Ni20 Ni39 2.534685 1_555
Ni20 Ni46 2.539560 1_456
Ni21 Ni23 2.478098 1_655
Ni21 Ni48 2.486983 1_655
Ni21 Ni25 2.495894 1_555
Ni21 Ni49 2.526305 1_555
Ni21 Ni46 2.529881 1_555
Ni21 Ni40 2.539452 1_654
Ni21 Ni22 2.553204 1_555
Ni22 Ni48 2.489547 1_555
Ni22 Ni47 2.491944 1_555
Ni22 Ni46 2.529931 1_555
Ni22 Ni49 2.546497 1_555
Ni22 Ni41 2.566894 1_554
Ni23 Ni26 2.484804 1_545
Ni23 Ni25 2.507911 1_455
Ni23 Ni24 2.523546 1_545
Ni23 Ni48 2.525346 1_555
Ni23 Ni42 2.537945 1_554
Ni23 Ni49 2.538496 1_555
Ni24 Ni27 2.483222 1_555
Ni24 Ni26 2.495461 1_555
Ni24 Ni25 2.507332 1_565
Ni24 Ni44 2.529815 1_554
Ni24 Ni49 2.552381 1_565
Ni25 Ni7 2.469035 1_555
Ni25 Ni26 2.498581 1_645
Ni25 Ni49 2.500573 1_555
Ni26 Ni6 2.450254 1_565
Ni26 Ni27 2.504690 1_555
Ni27 Ni8 2.479283 1_555
Ni27 Ni29 2.494915 1_555
Ni28 Ni9 2.490790 1_555
Ni28 Ni4 2.498331 1_455
Ni28 Ni29 2.498746 1_455
Ni28 Ni30 2.500069 1_555
Ni28 Ni3 2.515863 1_555
Ni29 Ni4 2.510892 1_555
Ni30 Ni32 2.497588 1_555
Ni30 Ni4 2.510008 1_555
Ni30 Ni5 2.521600 1_555
Ni31 Ni5 2.487626 1_555
Ni31 Ni32 2.495481 1_455
Ni31 Ni7 2.503644 1_455
Ni31 Ni33 2.528022 1_555
Ni31 Ni6 2.549195 1_555
Ni32 Ni4 2.485319 1_555
Ni32 Ni5 2.505844 1_555
Ni32 Ni7 2.530334 1_555
Ni33 Ni5 2.488045 1_555
Ni33 Ni35 2.488359 1_545
Ni33 Ni7 2.496388 1_555
Ni33 Ni8 2.517999 1_545
Ni33 Ni6 2.541746 1_555
Ni34 Ni9 2.473874 1_555
Ni34 Ni36 2.495152 1_555
Ni34 Ni8 2.503430 1_555
Ni34 Ni35 2.521629 1_455
Ni34 Ni6 2.556510 1_565
Ni35 Ni8 2.493431 1_555
Ni35 Ni7 2.514191 1_565
Ni35 Ni6 2.540243 1_665
Ni36 Ni38 2.484284 1_555
Ni36 Ni9 2.515257 1_555
Ni36 Ni8 2.522460 1_555
Ni37 Ni9 2.484114 1_555
Ni37 Ni38 2.488357 1_455
Ni37 Ni39 2.523210 1_555
Ni38 Ni9 2.511195 1_655
Ni39 Ni41 2.483967 1_555
Ni40 Ni42 2.471974 1_555
Ni40 Ni41 2.552448 1_455
Ni42 Ni44 2.518384 1_545
Ni43 Ni45 2.494119 1_556
Ni43 Ni44 2.497932 1_455
Ni45 Ni47 2.499772 1_555
Ni46 Ni48 2.499318 1_655
Ni46 Ni47 2.501927 1_555
Ni48 Ni49 2.502112 1_555
Ni49 Ni5 2.451897 1_555
Mo0 Ni40 2.521560 1_555
Mo0 Ni6 2.525332 1_555
Mo0 Ni16 2.533474 1_455
Mo0 Ni33 2.535293 1_555
Mo0 Ni14 2.541960 1_555
Mo0 Ni35 2.542697 1_445
Mo0 Ni34 2.543856 1_545
Mo0 Ni12 2.551633 1_555
Mo0 Ni31 2.554588 1_555
Mo0 Ni15 2.559778 1_545
Mo1 Ni46 2.530806 1_456
Mo1 Ni41 2.532903 1_455
Mo1 Ni12 2.532931 1_555
Mo1 Ni20 2.536398 1_555
Mo1 Ni18 2.537895 1_555
Mo1 Ni22 2.538606 1_456
Mo1 Ni39 2.546426 1_555
Mo1 Ni40 2.549784 1_555
Mo1 Ni37 2.550626 1_555
Mo1 Ni21 2.559940 1_456
Mo2 Ni40 2.527253 1_655
Mo2 Ni16 2.528350 1_555
Mo2 Ni49 2.536049 1_556
Mo2 Ni23 2.536703 1_556
Mo2 Ni21 2.545902 1_556
Mo2 Ni24 2.548098 1_546
Mo2 Ni42 2.548411 1_555
Mo2 Ni44 2.554095 1_545
Mo2 Ni22 2.556636 1_556
Mo2 Ni41 2.559768 1_555
