# generated using pymatgen
data_Li3Nb2VO6
_symmetry_space_group_name_H-M   'P 1'
_cell_length_a   5.85469657
_cell_length_b   13.36628882
_cell_length_c   6.19322836
_cell_angle_alpha   100.26085344
_cell_angle_beta   89.99873390
_cell_angle_gamma   89.99859869
_symmetry_Int_Tables_number   1
_chemical_formula_structural   Li3Nb2VO6
_chemical_formula_sum   'Li12 Nb8 V4 O24'
_cell_volume   476.90349154
_cell_formula_units_Z   4
loop_
 _symmetry_equiv_pos_site_id
 _symmetry_equiv_pos_as_xyz
  1  'x, y, z'
loop_
 _atom_site_type_symbol
 _atom_site_label
 _atom_site_symmetry_multiplicity
 _atom_site_fract_x
 _atom_site_fract_y
 _atom_site_fract_z
 _atom_site_occupancy
  Li  Li0  1  0.50000300  0.66661700  0.83332400  1
  Li  Li1  1  0.99999700  0.66661700  0.83332400  1
  Li  Li2  1  0.75000400  0.16661700  0.33332400  1
  Li  Li3  1  0.24999700  0.16661700  0.33332400  1
  Li  Li4  1  0.50009700  0.00744600  0.51439800  1
  Li  Li5  1  0.99989900  0.00742400  0.51439100  1
  Li  Li6  1  0.75000100  0.50740400  0.01435600  1
  Li  Li7  1  0.25000200  0.50740700  0.01435500  1
  Li  Li8  1  0.50009900  0.32590700  0.15228300  1
  Li  Li9  1  0.99990200  0.32593600  0.15229900  1
  Li  Li10  1  0.75000200  0.82594900  0.65232800  1
  Li  Li11  1  0.25000100  0.82595100  0.65233100  1
  Nb  Nb0  1  0.50003800  0.98973100  0.01167500  1
  Nb  Nb1  1  0.99998100  0.98973400  0.01165800  1
  Nb  Nb2  1  0.75000300  0.48962100  0.51161700  1
  Nb  Nb3  1  0.24998000  0.48961000  0.51161100  1
  Nb  Nb4  1  0.50003900  0.34361800  0.65499400  1
  Nb  Nb5  1  0.99998100  0.34361300  0.65501100  1
  Nb  Nb6  1  0.74999800  0.84373000  0.15505100  1
  Nb  Nb7  1  0.24997900  0.84373800  0.15505800  1
  V  V0  1  0.50000200  0.66667300  0.33333100  1
  V  V1  1  0.74999100  0.16667300  0.83333200  1
  V  V2  1  0.00002400  0.66667300  0.33333100  1
  V  V3  1  0.24998200  0.16667500  0.83333400  1
  O  O0  1  0.50001100  0.50717400  0.26367800  1
  O  O1  1  0.99999700  0.50704900  0.26362200  1
  O  O2  1  0.75000100  0.00726300  0.76377500  1
  O  O3  1  0.25002200  0.00732200  0.76374600  1
  O  O4  1  0.49998900  0.82615300  0.40297900  1
  O  O5  1  0.99998300  0.82627900  0.40303300  1
  O  O6  1  0.74998500  0.32606700  0.90288700  1
  O  O7  1  0.25001000  0.32600600  0.90291700  1
  O  O8  1  0.50000900  0.82247500  0.88966800  1
  O  O9  1  0.99999800  0.82246300  0.88967300  1
  O  O10  1  0.75000900  0.32240900  0.38963100  1
  O  O11  1  0.25000700  0.32236200  0.38966000  1
  O  O12  1  0.49999500  0.51087200  0.77702000  1
  O  O13  1  0.99998800  0.51088000  0.77701200  1
  O  O14  1  0.74999700  0.01093400  0.27705800  1
  O  O15  1  0.24999600  0.01098100  0.27702200  1
  O  O16  1  0.50017400  0.17779200  0.60801500  1
  O  O17  1  0.99981100  0.17778400  0.60801000  1
  O  O18  1  0.75002400  0.67783700  0.10809400  1
  O  O19  1  0.24999100  0.67783700  0.10807300  1
  O  O20  1  0.50015800  0.15554700  0.05863900  1
  O  O21  1  0.99980500  0.15554100  0.05863100  1
  O  O22  1  0.75003600  0.65550000  0.55857400  1
  O  O23  1  0.25000200  0.65549400  0.55855000  1
loop_
_geom_bond_atom_site_label_1
_geom_bond_atom_site_label_2
_geom_bond_distance
_geom_bond_site_symmetry_2
Li0 O12 2.048559 1_555
Li0 O8 2.050045 1_555
Li0 O19 2.229213 1_556
Li0 O22 2.229393 1_555
Li0 O18 2.229400 1_556
Li0 O23 2.229431 1_555
Li1 O13 2.048453 1_555
Li1 O9 2.049887 1_555
Li1 O18 2.229161 1_556
Li1 O22 2.229171 1_555
Li1 O19 2.229198 1_656
Li1 O23 2.229392 1_655
Li2 O14 2.047744 1_555
Li2 O10 2.049178 1_555
Li2 O17 2.228235 1_555
Li2 O21 2.228275 1_555
Li2 O16 2.228285 1_555
Li2 O20 2.228470 1_555
Li3 O15 2.047123 1_555
Li3 O11 2.048557 1_555
Li3 O20 2.229627 1_555
Li3 O17 2.229638 1_455
Li3 O16 2.229673 1_555
Li3 O21 2.229832 1_455
Li4 O14 2.080320 1_555
Li4 O15 2.081444 1_555
Li4 O2 2.127785 1_555
Li4 O3 2.128194 1_555
Li4 O16 2.247242 1_555
Li4 O4 2.398420 1_545
Li5 O14 2.080386 1_555
Li5 O15 2.081396 1_655
Li5 O2 2.127707 1_555
Li5 O3 2.128427 1_655
Li5 O17 2.247424 1_555
Li5 O5 2.396482 1_545
Li6 O13 2.080672 1_554
Li6 O12 2.080744 1_554
Li6 O0 2.127919 1_555
Li6 O1 2.127958 1_555
Li6 O18 2.248425 1_555
Li6 O6 2.399017 1_554
Li7 O12 2.080636 1_554
Li7 O13 2.080817 1_454
Li7 O1 2.127957 1_455
Li7 O0 2.128053 1_555
Li7 O19 2.248376 1_555
Li7 O7 2.399817 1_554
Li8 O10 2.080461 1_555
Li8 O11 2.081387 1_555
Li8 O6 2.127711 1_554
Li8 O7 2.128335 1_554
Li8 O20 2.247436 1_555
Li8 O0 2.398071 1_555
Li9 O10 2.080334 1_555
Li9 O11 2.081472 1_655
Li9 O6 2.127904 1_554
Li9 O7 2.128386 1_654
Li9 O21 2.247900 1_555
Li9 O1 2.396049 1_555
Li10 O8 2.080676 1_555
Li10 O9 2.080778 1_555
Li10 O5 2.127937 1_555
Li10 O4 2.128135 1_555
Li10 O22 2.248639 1_555
Li10 O2 2.398708 1_565
Li11 O9 2.080753 1_455
Li11 O8 2.080772 1_555
Li11 O4 2.127997 1_555
Li11 O5 2.128143 1_455
Li11 O23 2.248756 1_555
Li11 O3 2.399417 1_565
Nb0 O2 2.163762 1_564
Nb0 O3 2.164326 1_564
Nb0 O14 2.181166 1_565
Nb0 O15 2.181269 1_565
Nb0 O20 2.183374 1_565
Nb0 O8 2.228680 1_554
Nb1 O2 2.163781 1_564
Nb1 O3 2.164300 1_664
Nb1 O14 2.181283 1_565
Nb1 O15 2.181298 1_665
Nb1 O21 2.183252 1_565
Nb1 O9 2.228848 1_554
Nb2 O1 2.163987 1_555
Nb2 O0 2.164157 1_555
Nb2 O13 2.181320 1_555
Nb2 O12 2.181388 1_555
Nb2 O22 2.184211 1_555
Nb2 O10 2.228105 1_555
Nb3 O1 2.163989 1_455
Nb3 O0 2.164280 1_555
Nb3 O13 2.181316 1_455
Nb3 O12 2.181501 1_555
Nb3 O23 2.184282 1_555
Nb3 O11 2.228524 1_555
Nb4 O6 2.163761 1_555
Nb4 O7 2.164378 1_555
Nb4 O10 2.181061 1_555
Nb4 O11 2.181229 1_555
Nb4 O16 2.183502 1_555
Nb4 O12 2.228674 1_555
Nb5 O6 2.163828 1_555
Nb5 O7 2.164324 1_655
Nb5 O10 2.181204 1_555
Nb5 O11 2.181224 1_655
Nb5 O17 2.183535 1_555
Nb5 O13 2.228813 1_555
Nb6 O5 2.164003 1_555
Nb6 O4 2.164211 1_555
Nb6 O9 2.181243 1_554
Nb6 O8 2.181281 1_554
Nb6 O18 2.184396 1_555
Nb6 O14 2.228025 1_565
Nb7 O5 2.164002 1_455
Nb7 O4 2.164247 1_555
Nb7 O9 2.181258 1_454
Nb7 O8 2.181415 1_554
Nb7 O19 2.184494 1_555
Nb7 O15 2.228474 1_565
O0 V0 2.098449 1_555
O1 V2 2.100094 1_655
O2 V1 2.097269 1_555
O3 V3 2.096528 1_555
O4 V0 2.098200 1_555
O5 V2 2.099857 1_655
O6 V1 2.097060 1_555
O7 V3 2.096239 1_555
O16 V1 2.045119 1_555
O16 V3 2.046654 1_555
O17 V1 2.045093 1_555
O17 V3 2.046606 1_655
O18 V2 2.045658 1_655
O18 V0 2.045711 1_555
O19 V2 2.045571 1_555
O19 V0 2.045794 1_555
O20 V1 2.045122 1_554
O20 V3 2.046594 1_554
O21 V1 2.045062 1_554
O21 V3 2.046541 1_654
O22 V2 2.045618 1_655
O22 V0 2.045849 1_555
O23 V2 2.045527 1_555
O23 V0 2.045580 1_555
