# generated using pymatgen
data_TiMn5(PO4)6
_symmetry_space_group_name_H-M   'P 1'
_cell_length_a   8.64101098
_cell_length_b   8.64101098
_cell_length_c   8.64101067
_cell_angle_alpha   59.86510660
_cell_angle_beta   59.86510660
_cell_angle_gamma   59.86510105
_symmetry_Int_Tables_number   1
_chemical_formula_structural   TiMn5(PO4)6
_chemical_formula_sum   'Ti1 Mn5 P6 O24'
_cell_volume   454.82805360
_cell_formula_units_Z   1
loop_
 _symmetry_equiv_pos_site_id
 _symmetry_equiv_pos_as_xyz
  1  'x, y, z'
loop_
 _atom_site_type_symbol
 _atom_site_label
 _atom_site_symmetry_multiplicity
 _atom_site_fract_x
 _atom_site_fract_y
 _atom_site_fract_z
 _atom_site_occupancy
  Ti  Ti0  1  0.85526800  0.85526800  0.85526800  1
  Mn  Mn0  1  0.00045600  0.00045600  0.00045600  1
  Mn  Mn1  1  0.35591200  0.35591200  0.35591200  1
  Mn  Mn2  1  0.50077300  0.50077300  0.50077300  1
  Mn  Mn3  1  0.14486700  0.14486700  0.14486700  1
  Mn  Mn4  1  0.64434500  0.64434500  0.64434500  1
  P  P0  1  0.75064600  0.04227600  0.45581400  1
  P  P1  1  0.04227600  0.45581400  0.75064600  1
  P  P2  1  0.45581400  0.75064600  0.04227600  1
  P  P3  1  0.54083300  0.25126000  0.95862800  1
  P  P4  1  0.95862800  0.54083300  0.25126000  1
  P  P5  1  0.25126000  0.95862800  0.54083300  1
  O  O0  1  0.88454500  0.48600200  0.69604500  1
  O  O1  1  0.48600200  0.69604500  0.88454500  1
  O  O2  1  0.69604500  0.88454500  0.48600200  1
  O  O3  1  0.91690400  0.05861400  0.26282900  1
  O  O4  1  0.81125300  0.99574500  0.61987600  1
  O  O5  1  0.58781500  0.23663400  0.44655000  1
  O  O6  1  0.05861400  0.26282900  0.91690400  1
  O  O7  1  0.23663400  0.44655000  0.58781500  1
  O  O8  1  0.38196900  0.19590400  0.99044900  1
  O  O9  1  0.44655000  0.58781500  0.23663400  1
  O  O10  1  0.73618000  0.08461900  0.93868100  1
  O  O11  1  0.99044900  0.38196900  0.19590400  1
  O  O12  1  0.99574500  0.61987600  0.81125300  1
  O  O13  1  0.26282900  0.91690400  0.05861400  1
  O  O14  1  0.55817200  0.41409300  0.76236300  1
  O  O15  1  0.61987600  0.81125300  0.99574500  1
  O  O16  1  0.76236300  0.55817200  0.41409300  1
  O  O17  1  0.93868100  0.73618000  0.08461900  1
  O  O18  1  0.41409300  0.76236300  0.55817200  1
  O  O19  1  0.19590400  0.99044900  0.38196900  1
  O  O20  1  0.08461900  0.93868100  0.73618000  1
  O  O21  1  0.30668300  0.11542400  0.51157200  1
  O  O22  1  0.51157200  0.30668300  0.11542400  1
  O  O23  1  0.11542400  0.51157200  0.30668300  1
loop_
_geom_bond_atom_site_label_1
_geom_bond_atom_site_label_2
_geom_bond_distance
_geom_bond_site_symmetry_2
Mn0 O3 2.247228 1_455
Mn0 O13 2.247228 1_545
Mn0 O6 2.247228 1_554
Mn0 O20 2.279332 1_544
Mn0 O10 2.279332 1_454
Mn0 O17 2.279332 1_445
Mn1 O23 1.953215 1_555
Mn1 O22 1.953215 1_555
Mn1 O21 1.953215 1_555
Mn1 O5 2.093507 1_555
Mn1 O7 2.093507 1_555
Mn1 O9 2.093508 1_555
Mn2 O14 2.229162 1_555
Mn2 O18 2.229162 1_555
Mn2 O16 2.229162 1_555
Mn2 O9 2.234045 1_555
Mn2 O5 2.234045 1_555
Mn2 O7 2.234045 1_555
Mn3 O11 1.934934 1_455
Mn3 O19 1.934934 1_545
Mn3 O8 1.934934 1_554
Mn3 O13 2.042055 1_545
Mn3 O6 2.042055 1_554
Mn3 O3 2.042055 1_455
Mn4 O0 1.960990 1_555
Mn4 O1 1.960990 1_555
Mn4 O2 1.960990 1_555
Mn4 O18 2.059324 1_555
Mn4 O16 2.059324 1_555
Mn4 O14 2.059325 1_555
O0 P1 1.520990 1_655
O1 P2 1.520990 1_556
O2 P0 1.520990 1_565
O3 P0 1.557717 1_555
O4 P0 1.551581 1_565
O4 Ti0 1.894595 1_555
O5 P0 1.553101 1_555
O6 P1 1.557717 1_555
O7 P1 1.553101 1_555
O8 P3 1.528753 1_555
O9 P2 1.553101 1_555
O10 P3 1.571314 1_555
O10 Ti0 2.036643 1_545
O11 P4 1.528753 1_555
O12 P1 1.551581 1_655
O12 Ti0 1.894595 1_555
O13 P2 1.557717 1_555
O14 P3 1.561717 1_555
O15 P2 1.551581 1_556
O15 Ti0 1.894596 1_555
O16 P4 1.561717 1_555
O17 P4 1.571314 1_555
O17 Ti0 2.036643 1_554
O18 P5 1.561717 1_555
O19 P5 1.528753 1_555
O20 P5 1.571314 1_555
O20 Ti0 2.036644 1_455
O21 P5 1.521490 1_545
O22 P3 1.521490 1_554
O23 P4 1.521490 1_455
