# generated using pymatgen
data_Li5Mn5O12
_symmetry_space_group_name_H-M   'P 1'
_cell_length_a   5.02970500
_cell_length_b   5.05125404
_cell_length_c   19.75772841
_cell_angle_alpha   92.41319194
_cell_angle_beta   93.45206473
_cell_angle_gamma   118.71060598
_symmetry_Int_Tables_number   1
_chemical_formula_structural   Li5Mn5O12
_chemical_formula_sum   'Li10 Mn10 O24'
_cell_volume   438.00971978
_cell_formula_units_Z   2
loop_
 _symmetry_equiv_pos_site_id
 _symmetry_equiv_pos_as_xyz
  1  'x, y, z'
loop_
 _atom_site_type_symbol
 _atom_site_label
 _atom_site_symmetry_multiplicity
 _atom_site_fract_x
 _atom_site_fract_y
 _atom_site_fract_z
 _atom_site_occupancy
  Li  Li0  1  0.07759000  0.90051400  0.26533600  1
  Li  Li1  1  0.12849600  0.62193400  0.37505800  1
  Li  Li2  1  0.27547100  0.77901200  0.76426800  1
  Li  Li3  1  0.58230400  0.39493100  0.76585400  1
  Li  Li4  1  0.47219800  0.97520200  0.48587800  1
  Li  Li5  1  0.62146500  0.12582300  0.87536200  1
  Li  Li6  1  0.85383200  0.66575000  0.48412500  1
  Li  Li7  1  0.96894500  0.47533500  0.98551100  1
  Li  Li8  1  0.77286400  0.28216700  0.26430700  1
  Li  Li9  1  0.66683300  0.85833200  0.98502000  1
  Mn  Mn0  1  0.21164100  0.03825300  0.62487300  1
  Mn  Mn1  1  0.45057200  0.29969900  0.37485600  1
  Mn  Mn2  1  0.95905500  0.80082300  0.87487000  1
  Mn  Mn3  1  0.37780600  0.87232000  0.12525600  1
  Mn  Mn4  1  0.71073500  0.53679100  0.12439200  1
  Mn  Mn5  1  0.28632900  0.45310700  0.87528600  1
  Mn  Mn6  1  0.04492300  0.20833900  0.12529200  1
  Mn  Mn7  1  0.87945800  0.37038800  0.62520200  1
  Mn  Mn8  1  0.54261700  0.70733900  0.62503800  1
  Mn  Mn9  1  0.78755100  0.96177900  0.37490400  1
  O  O0  1  0.25829600  0.10692200  0.82240700  1
  O  O1  1  0.14222400  0.99787100  0.42782000  1
  O  O2  1  0.52380700  0.35259500  0.57511900  1
  O  O3  1  0.02681000  0.52655000  0.18051000  1
  O  O4  1  0.65465500  0.51747900  0.92932500  1
  O  O5  1  0.28093400  0.77504300  0.93030400  1
  O  O6  1  0.22227800  0.72740200  0.56880200  1
  O  O7  1  0.40132300  0.22201200  0.17456500  1
  O  O8  1  0.75021700  0.61025300  0.32203000  1
  O  O9  1  0.52512700  0.02401000  0.68112000  1
  O  O10  1  0.90068500  0.72482600  0.67500100  1
  O  O11  1  0.46103600  0.98217900  0.31966900  1
  O  O12  1  0.08828400  0.24442400  0.32065400  1
  O  O13  1  0.24224500  0.39703400  0.67530200  1
  O  O14  1  0.00825600  0.84769900  0.07385100  1
  O  O15  1  0.77095100  0.28624900  0.43010200  1
  O  O16  1  0.72772600  0.21753400  0.06914300  1
  O  O17  1  0.96481500  0.47889400  0.81990300  1
  O  O18  1  0.59037200  0.73589300  0.82080900  1
  O  O19  1  0.35465800  0.52385500  0.07549700  1
  O  O20  1  0.50714300  0.65912500  0.42907900  1
  O  O21  1  0.84939700  0.01032600  0.57471700  1
  O  O22  1  0.98697100  0.14671200  0.92773500  1
  O  O23  1  0.74851100  0.89714300  0.17608600  1
loop_
_geom_bond_atom_site_label_1
_geom_bond_atom_site_label_2
_geom_bond_distance
_geom_bond_site_symmetry_2
Li0 O12 1.989596 1_565
Li0 O11 1.997786 1_555
Li0 O8 2.038773 1_455
Li0 O23 2.338436 1_455
Li0 O3 2.379220 1_555
Li0 O7 2.561513 1_565
Li1 O20 2.048444 1_555
Li1 O12 2.064761 1_555
Li1 O8 2.089992 1_455
Li1 O1 2.096703 1_555
Li1 O15 2.180154 1_455
Li1 O11 2.184116 1_555
Li2 O18 1.985664 1_555
Li2 O17 2.004809 1_455
Li2 O0 2.014864 1_565
Li2 O9 2.175718 1_565
Li2 O10 2.408798 1_455
Li2 O13 2.491934 1_555
Li3 O18 1.979119 1_555
Li3 O17 1.988013 1_555
Li3 O0 2.024622 1_555
Li3 O9 2.357141 1_555
Li3 O13 2.403538 1_555
Li3 O10 2.568591 1_555
Li4 O20 1.995454 1_555
Li4 O15 2.004462 1_565
Li4 O1 2.011922 1_555
Li4 O6 2.177202 1_555
Li4 O21 2.441540 1_565
Li4 O2 2.448810 1_565
Li5 O0 2.008548 1_555
Li5 O22 2.009204 1_555
Li5 O4 2.135917 1_555
Li5 O18 2.137907 1_545
Li5 O5 2.172929 1_545
Li5 O17 2.190216 1_555
Li6 O20 1.984209 1_555
Li6 O15 1.998530 1_555
Li6 O1 2.041943 1_655
Li6 O6 2.314849 1_655
Li6 O21 2.452235 1_565
Li6 O2 2.562402 1_555
Li7 O4 1.976975 1_555
Li7 O5 2.001709 1_655
Li7 O22 2.015997 1_555
Li7 O16 2.191530 1_556
Li7 O14 2.438849 1_656
Li7 O19 2.464925 1_656
Li8 O12 1.971906 1_655
Li8 O11 2.003824 1_545
Li8 O8 2.024345 1_555
Li8 O3 2.192788 1_655
Li8 O7 2.395505 1_555
Li8 O23 2.509105 1_545
Li9 O4 1.977380 1_555
Li9 O5 2.009346 1_555
Li9 O22 2.024959 1_565
Li9 O16 2.302013 1_566
Li9 O14 2.401212 1_656
Li9 O19 2.561068 1_556
Mn0 O9 1.905521 1_555
Mn0 O6 1.907095 1_545
Mn0 O21 1.960966 1_455
Mn0 O13 1.965271 1_555
Mn0 O10 1.968036 1_445
Mn0 O2 1.968454 1_555
Mn1 O15 1.921542 1_555
Mn1 O11 1.924794 1_545
Mn1 O12 1.948390 1_555
Mn1 O20 1.956552 1_555
Mn1 O8 1.969114 1_555
Mn1 O1 1.970486 1_545
Mn2 O17 1.930017 1_555
Mn2 O22 1.938107 1_565
Mn2 O4 1.942380 1_555
Mn2 O0 1.953819 1_665
Mn2 O18 1.958257 1_555
Mn2 O5 1.959229 1_655
Mn3 O19 1.929232 1_555
Mn3 O7 1.929689 1_565
Mn3 O23 2.009996 1_555
Mn3 O14 2.010422 1_555
Mn3 O3 2.188420 1_555
Mn3 O16 2.194674 1_565
Mn4 O3 1.905506 1_655
Mn4 O14 1.938291 1_655
Mn4 O16 1.948055 1_555
Mn4 O19 1.954217 1_555
Mn4 O7 1.968222 1_555
Mn4 O23 1.969847 1_555
Mn5 O5 1.929747 1_555
Mn5 O0 1.939275 1_555
Mn5 O18 1.940741 1_555
Mn5 O22 1.954562 1_455
Mn5 O17 1.957216 1_455
Mn5 O4 1.957427 1_555
Mn6 O16 1.908032 1_455
Mn6 O23 1.939647 1_445
Mn6 O3 1.946060 1_555
Mn6 O7 1.957323 1_555
Mn6 O19 1.966242 1_555
Mn6 O14 1.970852 1_545
Mn7 O2 1.952433 1_555
Mn7 O10 1.959648 1_555
Mn7 O13 1.965405 1_655
Mn7 O21 1.972452 1_555
Mn7 O9 2.205010 1_555
Mn7 O6 2.209099 1_655
Mn8 O21 1.937963 1_565
Mn8 O13 1.939631 1_555
Mn8 O6 1.947197 1_555
Mn8 O9 1.947272 1_565
Mn8 O10 1.962526 1_555
Mn8 O2 1.967150 1_555
Mn9 O20 1.928744 1_555
Mn9 O12 1.929888 1_665
Mn9 O1 1.937908 1_655
Mn9 O8 1.944052 1_555
Mn9 O11 1.963386 1_555
Mn9 O15 1.968381 1_565
