# generated using pymatgen
data_K2VPCO7
_symmetry_space_group_name_H-M   'P 1'
_cell_length_a   5.63788639
_cell_length_b   19.58307543
_cell_length_c   6.72861606
_cell_angle_alpha   90.00423871
_cell_angle_beta   90.01491543
_cell_angle_gamma   89.86209758
_symmetry_Int_Tables_number   1
_chemical_formula_structural   K2VPCO7
_chemical_formula_sum   'K8 V4 P4 C4 O28'
_cell_volume   742.88517399
_cell_formula_units_Z   4
loop_
 _symmetry_equiv_pos_site_id
 _symmetry_equiv_pos_as_xyz
  1  'x, y, z'
loop_
 _atom_site_type_symbol
 _atom_site_label
 _atom_site_symmetry_multiplicity
 _atom_site_fract_x
 _atom_site_fract_y
 _atom_site_fract_z
 _atom_site_occupancy
  K  K0  1  0.24582500  0.11867500  0.47764200  1
  K  K1  1  0.24572800  0.61873900  0.47762600  1
  K  K2  1  0.24595700  0.11869600  0.02231700  1
  K  K3  1  0.24556700  0.61867300  0.02243500  1
  K  K4  1  0.75479900  0.38131600  0.52259100  1
  K  K5  1  0.75423000  0.88127200  0.52238300  1
  K  K6  1  0.75394600  0.38121200  0.97778800  1
  K  K7  1  0.75412200  0.88130300  0.97765200  1
  V  V0  1  0.77350900  0.67908000  0.75012100  1
  V  V1  1  0.22613700  0.82094800  0.25001700  1
  V  V2  1  0.77401400  0.17901100  0.75002700  1
  V  V3  1  0.22635500  0.32082800  0.24987300  1
  P  P0  1  0.72188300  0.21627800  0.25008000  1
  P  P1  1  0.72157000  0.71630500  0.25005400  1
  P  P2  1  0.27838100  0.28367500  0.74993400  1
  P  P3  1  0.27834500  0.78375100  0.75004300  1
  C  C0  1  0.73048900  0.05211800  0.75001100  1
  C  C1  1  0.73044500  0.55210300  0.74999900  1
  C  C2  1  0.26944300  0.44789500  0.24998000  1
  C  C3  1  0.26940800  0.94794300  0.25001600  1
  O  O0  1  0.29142400  0.01130100  0.24995800  1
  O  O1  1  0.29145000  0.51126200  0.25001700  1
  O  O2  1  0.70822800  0.48875000  0.75011900  1
  O  O3  1  0.70847400  0.98876100  0.74994800  1
  O  O4  1  0.93625600  0.08449900  0.75002700  1
  O  O5  1  0.93621200  0.58444100  0.74945900  1
  O  O6  1  0.06379400  0.41547000  0.24874800  1
  O  O7  1  0.06369200  0.91554600  0.25009600  1
  O  O8  1  0.54982600  0.09573400  0.75006800  1
  O  O9  1  0.54988000  0.59579500  0.75049200  1
  O  O10  1  0.45020200  0.40431600  0.25119400  1
  O  O11  1  0.45005900  0.90431000  0.24999300  1
  O  O12  1  0.10972200  0.22075800  0.74990800  1
  O  O13  1  0.10948400  0.72091300  0.75016200  1
  O  O14  1  0.89075600  0.27912800  0.25037900  1
  O  O15  1  0.89050300  0.77913900  0.24989900  1
  O  O16  1  0.45621000  0.23893900  0.24903600  1
  O  O17  1  0.45589100  0.73897500  0.24994000  1
  O  O18  1  0.54420700  0.26113800  0.74997600  1
  O  O19  1  0.54402400  0.76104900  0.74965100  1
  O  O20  1  0.76804500  0.17236600  0.06067400  1
  O  O21  1  0.76733300  0.67234700  0.06065400  1
  O  O22  1  0.76685000  0.17227600  0.43950700  1
  O  O23  1  0.76742400  0.67233300  0.43941600  1
  O  O24  1  0.23243400  0.32761600  0.56056800  1
  O  O25  1  0.23217300  0.82769300  0.56066400  1
  O  O26  1  0.23260200  0.32761200  0.93940300  1
  O  O27  1  0.23268700  0.82771400  0.93945600  1
loop_
_geom_bond_atom_site_label_1
_geom_bond_atom_site_label_2
_geom_bond_distance
_geom_bond_site_symmetry_2
K0 O8 2.548375 1_555
K0 O0 2.613740 1_555
K0 O4 2.619271 1_455
K0 O12 2.816759 1_555
K0 O22 2.906180 1_455
K0 O16 3.055254 1_555
K0 O22 3.132366 1_555
K1 O9 2.551087 1_555
K1 O1 2.615134 1_555
K1 O5 2.617089 1_455
K1 O13 2.819419 1_555
K1 O23 2.902664 1_455
K1 O17 3.051228 1_555
K1 O23 3.135912 1_555
K2 O8 2.547684 1_554
K2 O0 2.613934 1_555
K2 O4 2.618720 1_454
K2 O12 2.817227 1_554
K2 O20 2.901347 1_455
K2 O16 3.047787 1_555
K2 O20 3.138431 1_555
K3 O9 2.547601 1_554
K3 O1 2.614179 1_555
K3 O5 2.620828 1_454
K3 O13 2.818872 1_554
K3 O21 2.902977 1_455
K3 O17 3.051486 1_555
K3 O21 3.136677 1_555
K4 O10 2.545866 1_555
K4 O2 2.614605 1_555
K4 O6 2.623884 1_655
K4 O14 2.817758 1_555
K4 O24 2.899773 1_655
K4 O18 3.050279 1_555
K4 O24 3.140024 1_555
K5 O11 2.549177 1_555
K5 O3 2.615168 1_555
K5 O7 2.618901 1_655
K5 O15 2.818667 1_555
K5 O25 2.900712 1_655
K5 O19 3.049715 1_555
K5 O25 3.137763 1_555
K6 O10 2.553303 1_556
K6 O6 2.613332 1_656
K6 O2 2.616433 1_555
K6 O14 2.819208 1_556
K6 O26 2.904764 1_655
K6 O18 3.047787 1_555
K6 O26 3.134047 1_555
K7 O11 2.549018 1_556
K7 O3 2.615273 1_555
K7 O7 2.619185 1_656
K7 O15 2.818158 1_556
K7 O27 2.904097 1_655
K7 O19 3.051938 1_555
K7 O27 3.134352 1_555
C0 O3 1.247215 1_545
C0 O4 1.323427 1_555
C0 O8 1.327712 1_555
C1 O2 1.247254 1_555
C1 O5 1.323028 1_555
C1 O9 1.328249 1_555
C2 O1 1.247405 1_555
C2 O6 1.323282 1_555
C2 O10 1.327686 1_555
C3 O0 1.247235 1_565
C3 O7 1.323326 1_555
C3 O11 1.327874 1_555
O4 V2 2.062552 1_555
O5 V0 2.065934 1_555
O6 V3 2.065642 1_555
O7 V1 2.064567 1_555
O8 V2 2.065685 1_555
O9 V0 2.063879 1_555
O10 V3 2.067795 1_555
O11 V1 2.066083 1_555
O12 P2 1.558173 1_555
O12 V2 2.063508 1_455
O13 P3 1.557646 1_555
O13 V0 2.065561 1_455
O14 P0 1.557874 1_555
O14 V3 2.062580 1_655
O15 P1 1.557833 1_555
O15 V1 2.063608 1_655
O16 P0 1.561181 1_555
O16 V3 2.059377 1_555
O17 P1 1.561249 1_555
O17 V1 2.060291 1_555
O18 P2 1.561311 1_555
O18 V2 2.062824 1_555
O19 P3 1.561428 1_555
O19 V0 2.059281 1_555
O20 P0 1.558957 1_555
O20 V2 2.094565 1_554
O21 P1 1.559050 1_555
O21 V0 2.093927 1_554
O22 P0 1.558939 1_555
O22 V2 2.093904 1_555
O23 P1 1.559070 1_555
O23 V0 2.095053 1_555
O24 P2 1.558844 1_555
O24 V3 2.095036 1_555
O25 P3 1.559135 1_555
O25 V1 2.094657 1_555
O26 P2 1.559217 1_555
O26 V3 2.093574 1_556
O27 P3 1.559078 1_555
O27 V1 2.094193 1_556
