# generated using pymatgen
data_Li8TiMn7(PO4)12
_symmetry_space_group_name_H-M   'P 1'
_cell_length_a   8.56324600
_cell_length_b   8.83247236
_cell_length_c   11.98747190
_cell_angle_alpha   89.93538387
_cell_angle_beta   89.88801300
_cell_angle_gamma   88.61125519
_symmetry_Int_Tables_number   1
_chemical_formula_structural   Li8TiMn7(PO4)12
_chemical_formula_sum   'Li8 Ti1 Mn7 P12 O48'
_cell_volume   906.39946883
_cell_formula_units_Z   1
loop_
 _symmetry_equiv_pos_site_id
 _symmetry_equiv_pos_as_xyz
  1  'x, y, z'
loop_
 _atom_site_type_symbol
 _atom_site_label
 _atom_site_symmetry_multiplicity
 _atom_site_fract_x
 _atom_site_fract_y
 _atom_site_fract_z
 _atom_site_occupancy
  Li  Li0  1  0.21469900  0.27658300  0.81955400  1
  Li  Li1  1  0.21628100  0.22073000  0.18159500  1
  Li  Li2  1  0.28258000  0.78002100  0.68075800  1
  Li  Li3  1  0.28421200  0.72485900  0.31729400  1
  Li  Li4  1  0.71578600  0.27582500  0.68180700  1
  Li  Li5  1  0.71681800  0.22119600  0.31785500  1
  Li  Li6  1  0.78287500  0.77906500  0.81919400  1
  Li  Li7  1  0.78409400  0.72359300  0.17965300  1
  Ti  Ti0  1  0.75361400  0.53785500  0.38733000  1
  Mn  Mn0  1  0.25004400  0.03574700  0.38621500  1
  Mn  Mn1  1  0.24806300  0.46194800  0.61355800  1
  Mn  Mn2  1  0.25153600  0.96400900  0.88530700  1
  Mn  Mn3  1  0.25188700  0.53703300  0.11226300  1
  Mn  Mn4  1  0.74816600  0.46199700  0.88641300  1
  Mn  Mn5  1  0.74939200  0.03501500  0.11337600  1
  Mn  Mn6  1  0.75112200  0.96465700  0.61457200  1
  P  P0  1  0.03681900  0.74862700  0.50051700  1
  P  P1  1  0.46478700  0.25206500  0.99972300  1
  P  P2  1  0.53424800  0.74627200  0.00069000  1
  P  P3  1  0.96709100  0.25085800  0.49985700  1
  P  P4  1  0.10623500  0.60615300  0.85148800  1
  P  P5  1  0.10535900  0.89435000  0.14348900  1
  P  P6  1  0.39281500  0.39428700  0.35173200  1
  P  P7  1  0.39596500  0.10518600  0.64769300  1
  P  P8  1  0.60522300  0.89708300  0.35460000  1
  P  P9  1  0.60412200  0.60599900  0.65016200  1
  P  P10  1  0.89483200  0.39560800  0.14580600  1
  P  P11  1  0.89516700  0.10468200  0.85314100  1
  O  O0  1  0.06000200  0.35711200  0.57571900  1
  O  O1  1  0.06101100  0.14369700  0.42404300  1
  O  O2  1  0.07579600  0.10366000  0.84141600  1
  O  O3  1  0.07610500  0.39888100  0.15579300  1
  O  O4  1  0.14077000  0.82906200  0.41744500  1
  O  O5  1  0.14320400  0.65772200  0.58434500  1
  O  O6  1  0.15559200  0.56114500  0.97070400  1
  O  O7  1  0.15307900  0.93365400  0.02495400  1
  O  O8  1  0.15771000  0.76385800  0.81784100  1
  O  O9  1  0.16010900  0.73063000  0.17710100  1
  O  O10  1  0.18012200  0.48222300  0.77311000  1
  O  O11  1  0.17525100  0.01261900  0.22259900  1
  O  O12  1  0.32587400  0.98635800  0.72845700  1
  O  O13  1  0.32024100  0.51868700  0.27310100  1
  O  O14  1  0.34212000  0.23716000  0.31748800  1
  O  O15  1  0.34125600  0.26889600  0.68040600  1
  O  O16  1  0.34366200  0.43820700  0.47146500  1
  O  O17  1  0.34522600  0.06113900  0.53149600  1
  O  O18  1  0.35747100  0.16825600  0.91965700  1
  O  O19  1  0.35622500  0.34179900  0.08381700  1
  O  O20  1  0.42418800  0.89787700  0.34342600  1
  O  O21  1  0.42347400  0.60344500  0.65746800  1
  O  O22  1  0.44131200  0.85508400  0.92550200  1
  O  O23  1  0.43988000  0.63971600  0.07595600  1
  O  O24  1  0.55807000  0.35803200  0.92369100  1
  O  O25  1  0.55900200  0.14365000  0.07467300  1
  O  O26  1  0.57416400  0.40216700  0.34473000  1
  O  O27  1  0.57688600  0.10386200  0.65944700  1
  O  O28  1  0.64212400  0.65725100  0.91576600  1
  O  O29  1  0.64005300  0.82902500  0.08194000  1
  O  O30  1  0.65380300  0.93897600  0.47226000  1
  O  O31  1  0.65786500  0.56339100  0.52992400  1
  O  O32  1  0.65677800  0.76342500  0.68239500  1
  O  O33  1  0.66052600  0.73271300  0.32425100  1
  O  O34  1  0.67806600  0.48156500  0.72723100  1
  O  O35  1  0.67676200  0.01414000  0.27411500  1
  O  O36  1  0.82488700  0.98572700  0.77321600  1
  O  O37  1  0.82379400  0.51820000  0.22635400  1
  O  O38  1  0.83994200  0.26798800  0.82018100  1
  O  O39  1  0.84333800  0.23852200  0.18113100  1
  O  O40  1  0.84506200  0.43843600  0.02657400  1
  O  O41  1  0.84500200  0.06174200  0.97036300  1
  O  O42  1  0.85735000  0.34449500  0.41855800  1
  O  O43  1  0.85800600  0.16900100  0.57972300  1
  O  O44  1  0.92397500  0.89471100  0.15488400  1
  O  O45  1  0.92517900  0.60326900  0.84199100  1
  O  O46  1  0.94239000  0.85772300  0.57466400  1
  O  O47  1  0.93346500  0.63980000  0.43298800  1
loop_
_geom_bond_atom_site_label_1
_geom_bond_atom_site_label_2
_geom_bond_distance
_geom_bond_site_symmetry_2
Li0 O10 1.915441 1_555
Li0 O18 1.948484 1_555
Li0 O2 1.975397 1_555
Li0 O15 1.987726 1_555
Li1 O11 1.942262 1_555
Li1 O14 1.962376 1_555
Li1 O3 1.980223 1_555
Li1 O19 2.001806 1_555
Li2 O12 1.954917 1_555
Li2 O8 1.965740 1_555
Li2 O21 1.968357 1_555
Li2 O5 1.999440 1_555
Li3 O13 1.914736 1_555
Li3 O4 1.933686 1_555
Li3 O9 1.990082 1_555
Li3 O20 1.990364 1_555
Li4 O34 1.917320 1_555
Li4 O43 1.952439 1_555
Li4 O27 1.970600 1_555
Li4 O38 1.972226 1_555
Li5 O35 1.941757 1_555
Li5 O39 1.970784 1_555
Li5 O26 2.013946 1_555
Li5 O42 2.040498 1_555
Li6 O36 1.947779 1_555
Li6 O45 1.969563 1_555
Li6 O32 1.972029 1_555
Li6 O28 2.001267 1_555
Li7 O37 1.920573 1_555
Li7 O29 1.925651 1_555
Li7 O44 1.972976 1_555
Li7 O33 2.029710 1_555
Mn0 O1 1.912675 1_555
Mn0 O17 1.939826 1_555
Mn0 O20 1.969812 1_545
Mn0 O11 2.076283 1_555
Mn0 O4 2.104340 1_545
Mn0 O14 2.127752 1_555
Mn1 O16 1.898032 1_555
Mn1 O0 1.932010 1_555
Mn1 O5 1.960496 1_555
Mn1 O10 2.005009 1_555
Mn1 O15 2.029758 1_555
Mn1 O21 2.047150 1_555
Mn2 O7 1.894590 1_556
Mn2 O22 1.930009 1_555
Mn2 O2 1.993653 1_565
Mn2 O12 1.995007 1_555
Mn2 O18 2.080713 1_565
Mn2 O8 2.121188 1_555
Mn3 O6 1.897642 1_554
Mn3 O23 1.915899 1_555
Mn3 O19 1.952838 1_555
Mn3 O9 2.020183 1_555
Mn3 O13 2.021218 1_555
Mn3 O3 2.027704 1_555
Mn4 O40 1.884427 1_556
Mn4 O24 1.939447 1_555
Mn4 O28 1.961317 1_555
Mn4 O34 2.007512 1_555
Mn4 O38 2.029707 1_555
Mn4 O45 2.055533 1_555
Mn5 O41 1.915219 1_554
Mn5 O25 1.928758 1_555
Mn5 O44 1.982425 1_545
Mn5 O35 2.033139 1_555
Mn5 O29 2.101042 1_545
Mn5 O39 2.147956 1_555
Mn6 O30 1.916206 1_555
Mn6 O46 1.930423 1_555
Mn6 O27 1.984107 1_565
Mn6 O36 2.015303 1_555
Mn6 O43 2.084862 1_565
Mn6 O32 2.129915 1_555
O0 P3 1.543279 1_455
O1 P3 1.526704 1_455
O2 P11 1.552679 1_455
O3 P10 1.558097 1_455
O4 P0 1.521303 1_555
O5 P0 1.565470 1_555
O6 P4 1.540106 1_555
O7 P5 1.519885 1_555
O8 P4 1.524803 1_555
O9 P5 1.561981 1_555
O10 P4 1.564506 1_555
O11 P5 1.543857 1_545
O12 P7 1.557270 1_565
O13 P6 1.564871 1_555
O14 P6 1.521247 1_555
O15 P7 1.559422 1_555
O16 P6 1.542304 1_555
O17 P7 1.513972 1_555
O18 P1 1.533521 1_555
O19 P1 1.571956 1_554
O20 P8 1.556130 1_555
O21 P9 1.549948 1_555
O22 P2 1.527471 1_556
O23 P2 1.544326 1_555
O24 P1 1.541515 1_555
O25 P1 1.529224 1_554
O26 P6 1.558273 1_555
O26 Ti0 2.037688 1_555
O27 P7 1.555700 1_555
O28 P2 1.571901 1_556
O29 P2 1.530009 1_555
O30 P8 1.519954 1_555
O31 P9 1.556004 1_555
O31 Ti0 1.905628 1_555
O32 P9 1.522590 1_555
O33 P8 1.559335 1_555
O33 Ti0 2.025396 1_555
O34 P9 1.558416 1_555
O35 P8 1.549594 1_545
O36 P11 1.555384 1_565
O37 P10 1.562990 1_555
O37 Ti0 2.026374 1_555
O38 P11 1.557766 1_555
O39 P10 1.525253 1_555
O40 P10 1.536539 1_555
O41 P11 1.518976 1_555
O42 P3 1.575116 1_555
O42 Ti0 1.942242 1_555
O43 P3 1.529572 1_555
O44 P5 1.558891 1_655
O45 P4 1.555649 1_655
O46 P0 1.527661 1_655
O47 P0 1.551876 1_655
O47 Ti0 1.885176 1_555
