# generated using pymatgen
data_Na4Cr2P(CO4)4
_symmetry_space_group_name_H-M   'P 1'
_cell_length_a   9.92402030
_cell_length_b   9.87943034
_cell_length_c   9.70842382
_cell_angle_alpha   60.87333033
_cell_angle_beta   60.41460308
_cell_angle_gamma   58.71206659
_symmetry_Int_Tables_number   1
_chemical_formula_structural   Na4Cr2P(CO4)4
_chemical_formula_sum   'Na8 Cr4 P2 C8 O32'
_cell_volume   672.53315475
_cell_formula_units_Z   2
loop_
 _symmetry_equiv_pos_site_id
 _symmetry_equiv_pos_as_xyz
  1  'x, y, z'
loop_
 _atom_site_type_symbol
 _atom_site_label
 _atom_site_symmetry_multiplicity
 _atom_site_fract_x
 _atom_site_fract_y
 _atom_site_fract_z
 _atom_site_occupancy
  Na  Na0  1  0.95984500  0.54015500  0.95984500  1
  Na  Na1  1  0.96010100  0.53989900  0.53989900  1
  Na  Na2  1  0.71010100  0.28989900  0.28989900  1
  Na  Na3  1  0.70984500  0.29015500  0.70984500  1
  Na  Na4  1  0.54015500  0.95984500  0.54015500  1
  Na  Na5  1  0.53989900  0.96010100  0.96010100  1
  Na  Na6  1  0.28989900  0.71010100  0.71010100  1
  Na  Na7  1  0.29015500  0.70984500  0.29015500  1
  Cr  Cr0  1  0.12500000  0.62500000  0.12500000  1
  Cr  Cr1  1  0.62500000  0.12500000  0.12500000  1
  Cr  Cr2  1  0.12500000  0.12500000  0.12500000  1
  Cr  Cr3  1  0.12500000  0.12500000  0.62500000  1
  P  P0  1  0.50000000  0.50000000  0.50000000  1
  P  P1  1  0.75000000  0.75000000  0.75000000  1
  C  C0  1  0.90519800  0.26388900  0.91700300  1
  C  C1  1  0.98611100  0.34480200  0.33608900  1
  C  C2  1  0.91700300  0.91391100  0.90519800  1
  C  C3  1  0.91391100  0.91700300  0.26388900  1
  C  C4  1  0.33608900  0.33299700  0.98611100  1
  C  C5  1  0.33299700  0.33608900  0.34480200  1
  C  C6  1  0.26388900  0.90519800  0.91391100  1
  C  C7  1  0.34480200  0.98611100  0.33299700  1
  O  O0  1  0.01805200  0.26946100  0.94299000  1
  O  O1  1  0.56141400  0.56172800  0.30677300  1
  O  O2  1  0.76565600  0.25987600  0.03417700  1
  O  O3  1  0.99012400  0.48434400  0.30970900  1
  O  O4  1  0.03417700  0.94029100  0.76565600  1
  O  O5  1  0.98045800  0.31990600  0.21914200  1
  O  O6  1  0.30677300  0.57008400  0.56141400  1
  O  O7  1  0.56172800  0.56141400  0.57008400  1
  O  O8  1  0.48049400  0.21914200  0.31990600  1
  O  O9  1  0.94029100  0.03417700  0.25987600  1
  O  O10  1  0.98053900  0.23194800  0.48050300  1
  O  O11  1  0.57008400  0.30677300  0.56172800  1
  O  O12  1  0.94299000  0.76949700  0.01805200  1
  O  O13  1  0.76949700  0.94299000  0.26946100  1
  O  O14  1  0.93009400  0.26954200  0.76950600  1
  O  O15  1  0.21914200  0.48049400  0.98045800  1
  O  O16  1  0.03085800  0.76950600  0.26954200  1
  O  O17  1  0.31990600  0.98045800  0.48049400  1
  O  O18  1  0.48050300  0.30701000  0.98053900  1
  O  O19  1  0.30701000  0.48050300  0.23194800  1
  O  O20  1  0.67991600  0.94322700  0.68827200  1
  O  O21  1  0.26946100  0.01805200  0.76949700  1
  O  O22  1  0.30970900  0.21582300  0.99012400  1
  O  O23  1  0.76950600  0.03085800  0.93009400  1
  O  O24  1  0.68827200  0.68858600  0.67991600  1
  O  O25  1  0.94322700  0.67991600  0.68858600  1
  O  O26  1  0.26954200  0.93009400  0.03085800  1
  O  O27  1  0.21582300  0.30970900  0.48434400  1
  O  O28  1  0.25987600  0.76565600  0.94029100  1
  O  O29  1  0.48434400  0.99012400  0.21582300  1
  O  O30  1  0.68858600  0.68827200  0.94322700  1
  O  O31  1  0.23194800  0.98053900  0.30701000  1
loop_
_geom_bond_atom_site_label_1
_geom_bond_atom_site_label_2
_geom_bond_distance
_geom_bond_site_symmetry_2
Na0 O30 2.349794 1_555
Na0 O25 2.349794 1_555
Na0 O15 2.414011 1_655
Na0 O5 2.414011 1_556
Na0 O12 2.498092 1_556
Na0 O0 2.498092 1_655
Na1 O24 2.343032 1_555
Na1 O25 2.343038 1_555
Na1 O27 2.398116 1_655
Na1 O3 2.398116 1_555
Na1 O14 2.562497 1_555
Na1 O16 2.562497 1_655
Na2 O1 2.343029 1_555
Na2 O11 2.343029 1_555
Na2 O2 2.398116 1_555
Na2 O9 2.398116 1_555
Na2 O8 2.562497 1_555
Na2 O5 2.562497 1_555
Na3 O7 2.349797 1_555
Na3 O11 2.349802 1_555
Na3 O23 2.414011 1_555
Na3 O14 2.414011 1_555
Na3 O10 2.498092 1_555
Na3 O18 2.498092 1_555
Na4 O24 2.349797 1_555
Na4 O20 2.349802 1_555
Na4 O8 2.414011 1_565
Na4 O17 2.414011 1_555
Na4 O21 2.498092 1_565
Na4 O13 2.498092 1_555
Na5 O30 2.343029 1_555
Na5 O20 2.343029 1_555
Na5 O29 2.398116 1_556
Na5 O22 2.398116 1_565
Na5 O26 2.562497 1_556
Na5 O23 2.562497 1_565
Na6 O7 2.343032 1_555
Na6 O6 2.343038 1_555
Na6 O28 2.398116 1_555
Na6 O4 2.398116 1_555
Na6 O17 2.562497 1_555
Na6 O15 2.562497 1_555
Na7 O1 2.349794 1_555
Na7 O6 2.349794 1_555
Na7 O16 2.414011 1_555
Na7 O26 2.414011 1_555
Na7 O19 2.498092 1_555
Na7 O31 2.498092 1_555
Cr0 O28 2.018492 1_554
Cr0 O3 2.018492 1_455
Cr0 O19 2.027133 1_555
Cr0 O12 2.027133 1_455
Cr0 O15 2.037272 1_554
Cr0 O16 2.037272 1_555
Cr1 O2 2.018492 1_555
Cr1 O29 2.018492 1_545
Cr1 O18 2.027133 1_554
Cr1 O13 2.027133 1_545
Cr1 O8 2.037272 1_555
Cr1 O23 2.037272 1_554
Cr2 O22 2.018492 1_554
Cr2 O9 2.018492 1_455
Cr2 O0 2.027133 1_554
Cr2 O31 2.027133 1_545
Cr2 O26 2.037272 1_545
Cr2 O5 2.037272 1_455
Cr3 O4 2.018492 1_545
Cr3 O27 2.018492 1_555
Cr3 O10 2.027133 1_455
Cr3 O21 2.027133 1_555
Cr3 O17 2.037272 1_545
Cr3 O14 2.037272 1_455
C0 O2 1.292649 1_556
C0 O0 1.295211 1_655
C0 O14 1.304535 1_555
C1 O3 1.292652 1_555
C1 O10 1.295217 1_555
C1 O5 1.304525 1_555
C2 O4 1.292648 1_655
C2 O12 1.295217 1_556
C2 O23 1.304531 1_565
C3 O9 1.292643 1_565
C3 O13 1.295221 1_555
C3 O16 1.304532 1_655
C4 O22 1.292643 1_555
C4 O18 1.295221 1_555
C4 O15 1.304532 1_555
C5 O27 1.292648 1_555
C5 O19 1.295217 1_555
C5 O8 1.304531 1_555
C6 O28 1.292652 1_555
C6 O21 1.295217 1_565
C6 O26 1.304525 1_556
C7 O29 1.292649 1_555
C7 O31 1.295211 1_555
C7 O17 1.304535 1_555
O1 P0 1.551090 1_555
O6 P0 1.551090 1_555
O7 P0 1.551082 1_555
O11 P0 1.551090 1_555
O20 P1 1.551090 1_555
O24 P1 1.551082 1_555
O25 P1 1.551090 1_555
O30 P1 1.551090 1_555
