# generated using pymatgen
data_Ho2P4O13
_symmetry_space_group_name_H-M   'P 1'
_cell_length_a   9.73593200
_cell_length_b   8.73913800
_cell_length_c   14.08219204
_cell_angle_alpha   74.66299477
_cell_angle_beta   90.00000000
_cell_angle_gamma   90.00000000
_symmetry_Int_Tables_number   1
_chemical_formula_structural   Ho2P4O13
_chemical_formula_sum   'Ho8 P16 O52'
_cell_volume   1155.49386879
_cell_formula_units_Z   4
loop_
 _symmetry_equiv_pos_site_id
 _symmetry_equiv_pos_as_xyz
  1  'x, y, z'
loop_
 _atom_site_type_symbol
 _atom_site_label
 _atom_site_symmetry_multiplicity
 _atom_site_fract_x
 _atom_site_fract_y
 _atom_site_fract_z
 _atom_site_occupancy
  Ho  Ho0  1  0.99918400  0.71558100  0.99052000  1
  Ho  Ho1  1  0.99576900  0.78669000  0.51211700  1
  Ho  Ho2  1  0.50081600  0.71558100  0.49052000  1
  Ho  Ho3  1  0.50423100  0.78669000  0.01211700  1
  Ho  Ho4  1  0.49576900  0.21331000  0.98788300  1
  Ho  Ho5  1  0.49918400  0.28441900  0.50948000  1
  Ho  Ho6  1  0.00423100  0.21331000  0.48788300  1
  Ho  Ho7  1  0.00081600  0.28441900  0.00948000  1
  P  P0  1  0.71956300  0.96992400  0.59515400  1
  P  P1  1  0.75496700  0.88670100  0.81371600  1
  P  P2  1  0.26799600  0.76425800  0.68481200  1
  P  P3  1  0.78043700  0.96992400  0.09515400  1
  P  P4  1  0.74503300  0.88670100  0.31371600  1
  P  P5  1  0.28081900  0.54066000  0.90169800  1
  P  P6  1  0.23200400  0.76425800  0.18481200  1
  P  P7  1  0.78081900  0.45934000  0.59830200  1
  P  P8  1  0.21918100  0.54066000  0.40169800  1
  P  P9  1  0.76799600  0.23574200  0.81518800  1
  P  P10  1  0.71918100  0.45934000  0.09830200  1
  P  P11  1  0.25496700  0.11329900  0.68628400  1
  P  P12  1  0.21956300  0.03007600  0.90484600  1
  P  P13  1  0.73200400  0.23574200  0.31518800  1
  P  P14  1  0.24503300  0.11329900  0.18628400  1
  P  P15  1  0.28043700  0.03007600  0.40484600  1
  O  O0  1  0.30876700  0.93115600  0.70741700  1
  O  O1  1  0.15272000  0.87428700  0.90271200  1
  O  O2  1  0.87123600  0.98839500  0.55972600  1
  O  O3  1  0.62462600  0.86222500  0.87288100  1
  O  O4  1  0.72265600  0.86216100  0.70788700  1
  O  O5  1  0.63782400  0.87652100  0.53804900  1
  O  O6  1  0.87237300  0.77678800  0.85472600  1
  O  O7  1  0.19123300  0.93115600  0.20741700  1
  O  O8  1  0.34728000  0.87428700  0.40271200  1
  O  O9  1  0.62876400  0.98839500  0.05972600  1
  O  O10  1  0.36777000  0.63567800  0.95515500  1
  O  O11  1  0.12519700  0.77279400  0.64360100  1
  O  O12  1  0.87537400  0.86222500  0.37288100  1
  O  O13  1  0.77734400  0.86216100  0.20788700  1
  O  O14  1  0.38089400  0.72063600  0.62364800  1
  O  O15  1  0.26971200  0.63828800  0.78813000  1
  O  O16  1  0.86217600  0.87652100  0.03804900  1
  O  O17  1  0.84637300  0.61700400  0.59770500  1
  O  O18  1  0.12974500  0.51878800  0.94111600  1
  O  O19  1  0.62762700  0.77678800  0.35472600  1
  O  O20  1  0.13223000  0.63567800  0.45515500  1
  O  O21  1  0.37480300  0.77279400  0.14360100  1
  O  O22  1  0.11910600  0.72063600  0.12364800  1
  O  O23  1  0.23028800  0.63828800  0.28813000  1
  O  O24  1  0.62974500  0.48121200  0.55888400  1
  O  O25  1  0.34637300  0.38299600  0.90229500  1
  O  O26  1  0.65362700  0.61700400  0.09770500  1
  O  O27  1  0.37025500  0.51878800  0.44111600  1
  O  O28  1  0.76971200  0.36171200  0.71187000  1
  O  O29  1  0.88089400  0.27936400  0.87635200  1
  O  O30  1  0.62519700  0.22720600  0.85639900  1
  O  O31  1  0.86777000  0.36432200  0.54484500  1
  O  O32  1  0.37237300  0.22321200  0.64527400  1
  O  O33  1  0.87025500  0.48121200  0.05888400  1
  O  O34  1  0.15362700  0.38299600  0.40229500  1
  O  O35  1  0.13782400  0.12347900  0.96195100  1
  O  O36  1  0.73028800  0.36171200  0.21187000  1
  O  O37  1  0.61910600  0.27936400  0.37635200  1
  O  O38  1  0.22265600  0.13783900  0.79211300  1
  O  O39  1  0.12462600  0.13777500  0.62711900  1
  O  O40  1  0.87480300  0.22720600  0.35639900  1
  O  O41  1  0.63223000  0.36432200  0.04484500  1
  O  O42  1  0.37123600  0.01160500  0.94027400  1
  O  O43  1  0.65272000  0.12571300  0.59728800  1
  O  O44  1  0.80876700  0.06884400  0.79258300  1
  O  O45  1  0.12762700  0.22321200  0.14527400  1
  O  O46  1  0.36217600  0.12347900  0.46195100  1
  O  O47  1  0.27734400  0.13783900  0.29211300  1
  O  O48  1  0.37537400  0.13777500  0.12711900  1
  O  O49  1  0.12876400  0.01160500  0.44027400  1
  O  O50  1  0.84728000  0.12571300  0.09728800  1
  O  O51  1  0.69123300  0.06884400  0.29258300  1
loop_
_geom_bond_atom_site_label_1
_geom_bond_atom_site_label_2
_geom_bond_distance
_geom_bond_site_symmetry_2
Ho0 O16 2.168738 1_556
Ho0 O1 2.186297 1_655
Ho0 O22 2.218912 1_656
Ho0 O6 2.219487 1_555
Ho0 O33 2.377906 1_556
Ho0 O18 2.385467 1_655
Ho1 O20 2.170299 1_655
Ho1 O17 2.195864 1_555
Ho1 O11 2.216307 1_655
Ho1 O12 2.229249 1_555
Ho1 O49 2.347687 1_665
Ho1 O2 2.377369 1_555
Ho2 O5 2.168738 1_555
Ho2 O8 2.186297 1_555
Ho2 O14 2.218912 1_555
Ho2 O19 2.219487 1_555
Ho2 O24 2.377906 1_555
Ho2 O27 2.385467 1_555
Ho3 O10 2.170299 1_554
Ho3 O26 2.195864 1_555
Ho3 O21 2.216307 1_555
Ho3 O3 2.229249 1_554
Ho3 O42 2.347687 1_564
Ho3 O9 2.377369 1_555
Ho4 O41 2.170299 1_556
Ho4 O25 2.195864 1_555
Ho4 O30 2.216307 1_555
Ho4 O48 2.229249 1_556
Ho4 O9 2.347687 1_546
Ho4 O42 2.377369 1_555
Ho5 O46 2.168738 1_555
Ho5 O43 2.186297 1_555
Ho5 O37 2.218912 1_555
Ho5 O32 2.219487 1_555
Ho5 O27 2.377906 1_555
Ho5 O24 2.385467 1_555
Ho6 O31 2.170299 1_455
Ho6 O34 2.195864 1_555
Ho6 O40 2.216307 1_455
Ho6 O39 2.229249 1_555
Ho6 O2 2.347687 1_445
Ho6 O49 2.377369 1_555
Ho7 O35 2.168738 1_554
Ho7 O50 2.186297 1_455
Ho7 O29 2.218912 1_454
Ho7 O45 2.219487 1_555
Ho7 O18 2.377906 1_554
Ho7 O33 2.385467 1_455
O0 P2 1.622300 1_555
O0 P11 1.626676 1_565
O1 P12 1.516455 1_565
O2 P0 1.553364 1_555
O3 P1 1.501997 1_555
O4 P1 1.592177 1_555
O4 P0 1.617770 1_555
O5 P0 1.514432 1_555
O6 P1 1.506419 1_555
O7 P6 1.622300 1_555
O7 P14 1.626676 1_565
O8 P15 1.516455 1_565
O9 P3 1.553364 1_555
O10 P5 1.517741 1_555
O11 P2 1.500780 1_555
O12 P4 1.501997 1_555
O13 P4 1.592177 1_555
O13 P3 1.617770 1_555
O14 P2 1.506343 1_555
O15 P2 1.575362 1_555
O15 P5 1.604846 1_555
O16 P3 1.514432 1_555
O17 P7 1.516490 1_555
O18 P5 1.565862 1_555
O19 P4 1.506419 1_555
O20 P8 1.517741 1_555
O21 P6 1.500780 1_555
O22 P6 1.506343 1_555
O23 P6 1.575362 1_555
O23 P8 1.604846 1_555
O24 P7 1.565862 1_555
O25 P5 1.516490 1_555
O26 P10 1.516490 1_555
O27 P8 1.565862 1_555
O28 P9 1.575362 1_555
O28 P7 1.604846 1_555
O29 P9 1.506343 1_555
O30 P9 1.500780 1_555
O31 P7 1.517741 1_555
O32 P11 1.506419 1_555
O33 P10 1.565862 1_555
O34 P8 1.516490 1_555
O35 P12 1.514432 1_555
O36 P13 1.575362 1_555
O36 P10 1.604846 1_555
O37 P13 1.506343 1_555
O38 P11 1.592177 1_555
O38 P12 1.617770 1_555
O39 P11 1.501997 1_555
O40 P13 1.500780 1_555
O41 P10 1.517741 1_555
O42 P12 1.553364 1_555
O43 P0 1.516455 1_545
O44 P9 1.622300 1_555
O44 P1 1.626676 1_545
O45 P14 1.506419 1_555
O46 P15 1.514432 1_555
O47 P14 1.592177 1_555
O47 P15 1.617770 1_555
O48 P14 1.501997 1_555
O49 P15 1.553364 1_555
O50 P3 1.516455 1_545
O51 P13 1.622300 1_555
O51 P4 1.626676 1_545
