# generated using pymatgen
data_Li3Ni2(PO4)3
_symmetry_space_group_name_H-M   'P 1'
_cell_length_a   9.74895035
_cell_length_b   9.77668369
_cell_length_c   9.77668374
_cell_angle_alpha   86.32193302
_cell_angle_beta   86.60847126
_cell_angle_gamma   86.60846799
_symmetry_Int_Tables_number   1
_chemical_formula_structural   Li3Ni2(PO4)3
_chemical_formula_sum   'Li12 Ni8 P12 O48'
_cell_volume   926.85651673
_cell_formula_units_Z   4
loop_
 _symmetry_equiv_pos_site_id
 _symmetry_equiv_pos_as_xyz
  1  'x, y, z'
loop_
 _atom_site_type_symbol
 _atom_site_label
 _atom_site_symmetry_multiplicity
 _atom_site_fract_x
 _atom_site_fract_y
 _atom_site_fract_z
 _atom_site_occupancy
  Li  Li0  1  0.35101600  0.77256200  0.45005900  1
  Li  Li1  1  0.28663000  0.81667200  0.98085700  1
  Li  Li2  1  0.46517100  0.34686100  0.76956500  1
  Li  Li3  1  0.14898400  0.04994100  0.72743800  1
  Li  Li4  1  0.21337000  0.51914300  0.68332800  1
  Li  Li5  1  0.84603700  0.96564900  0.26628000  1
  Li  Li6  1  0.72759000  0.16308800  0.02513600  1
  Li  Li7  1  0.77241000  0.47486400  0.33691200  1
  Li  Li8  1  0.03482900  0.73043500  0.15313900  1
  Li  Li9  1  0.65396300  0.23372000  0.53435100  1
  Li  Li10  1  0.49452300  0.51315600  0.45887500  1
  Li  Li11  1  0.00547700  0.04112500  0.98684400  1
  Ni  Ni0  1  0.03653500  0.25504300  0.47204000  1
  Ni  Ni1  1  0.75000000  0.53191200  0.96808800  1
  Ni  Ni2  1  0.96895800  0.75112000  0.53466800  1
  Ni  Ni3  1  0.46346500  0.02796000  0.24495700  1
  Ni  Ni4  1  0.53104200  0.96533200  0.74888000  1
  Ni  Ni5  1  0.25000000  0.24860800  0.25139200  1
  Ni  Ni6  1  0.75000000  0.74926500  0.75073500  1
  Ni  Ni7  1  0.25000000  0.46514000  0.03486000  1
  P  P0  1  0.04991500  0.67235300  0.85617700  1
  P  P1  1  0.35653300  0.17052500  0.54655700  1
  P  P2  1  0.95285400  0.32482400  0.15409300  1
  P  P3  1  0.17467200  0.54854600  0.35262200  1
  P  P4  1  0.67171300  0.85507900  0.04477500  1
  P  P5  1  0.45008500  0.64382300  0.82764700  1
  P  P6  1  0.85279100  0.04914700  0.67595500  1
  P  P7  1  0.64720900  0.82404500  0.45085300  1
  P  P8  1  0.32532800  0.14737800  0.95145400  1
  P  P9  1  0.82828700  0.45522500  0.64492100  1
  P  P10  1  0.14346700  0.95344300  0.32947500  1
  P  P11  1  0.54714600  0.34590700  0.17517600  1
  O  O0  1  0.12205100  0.11393400  0.33588800  1
  O  O1  1  0.32954400  0.12214000  0.11194900  1
  O  O2  1  0.17045600  0.38805100  0.37786000  1
  O  O3  1  0.61539900  0.39332300  0.03460700  1
  O  O4  1  0.80284900  0.80653400  0.40736000  1
  O  O5  1  0.72270300  0.41402600  0.54707700  1
  O  O6  1  0.60183200  0.96473800  0.38117700  1
  O  O7  1  0.38681900  0.37638300  0.17088900  1
  O  O8  1  0.03249300  0.61639200  0.39669800  1
  O  O9  1  0.38118300  0.60739000  0.97153100  1
  O  O10  1  0.58599100  0.18852200  0.18299100  1
  O  O11  1  0.94186800  0.08105100  0.79192700  1
  O  O12  1  0.11318100  0.32911100  0.12361700  1
  O  O13  1  0.45156400  0.27890500  0.58799700  1
  O  O14  1  0.91400900  0.31700900  0.31147800  1
  O  O15  1  0.37794900  0.16411200  0.38606600  1
  O  O16  1  0.59378300  0.41509200  0.29849000  1
  O  O17  1  0.39264000  0.02579200  0.61319500  1
  O  O18  1  0.88885200  0.66500400  0.87667900  1
  O  O19  1  0.88460100  0.46539300  0.10667700  1
  O  O20  1  0.79199100  0.41080600  0.79654500  1
  O  O21  1  0.18853100  0.59016200  0.19642400  1
  O  O22  1  0.90621700  0.20151000  0.08490800  1
  O  O23  1  0.40815300  0.54859700  0.72044300  1
  O  O24  1  0.87563800  0.88804100  0.66617800  1
  O  O25  1  0.83276200  0.61668300  0.62324500  1
  O  O26  1  0.77729700  0.95292300  0.08597400  1
  O  O27  1  0.61114800  0.62332100  0.83499600  1
  O  O28  1  0.66723800  0.87675500  0.88331700  1
  O  O29  1  0.70800900  0.70345500  0.08919400  1
  O  O30  1  0.97514100  0.39514600  0.60782200  1
  O  O31  1  0.46750700  0.10330200  0.88360800  1
  O  O32  1  0.52485900  0.89217800  0.10485400  1
  O  O33  1  0.40700500  0.79830600  0.80223200  1
  O  O34  1  0.31146900  0.30357600  0.90983800  1
  O  O35  1  0.29033700  0.59000500  0.43837400  1
  O  O36  1  0.29720900  0.90819400  0.30059900  1
  O  O37  1  0.89816800  0.11882300  0.53526200  1
  O  O38  1  0.11881700  0.52846900  0.89261000  1
  O  O39  1  0.69715100  0.09264000  0.69346600  1
  O  O40  1  0.20966300  0.06162600  0.90999500  1
  O  O41  1  0.09184700  0.77955700  0.95140300  1
  O  O42  1  0.09299500  0.69776800  0.70169400  1
  O  O43  1  0.04843600  0.91200300  0.22109500  1
  O  O44  1  0.62436200  0.83382200  0.61195900  1
  O  O45  1  0.10736000  0.88680500  0.47420800  1
  O  O46  1  0.55813200  0.70807300  0.41894900  1
  O  O47  1  0.20279100  0.19940100  0.59180600  1
loop_
_geom_bond_atom_site_label_1
_geom_bond_atom_site_label_2
_geom_bond_distance
_geom_bond_site_symmetry_2
Li0 O35 1.925509 1_555
Li0 O36 1.982042 1_555
Li0 O46 2.090063 1_555
Li1 O41 1.995033 1_555
Li1 O33 2.057184 1_555
Li1 O9 2.198934 1_555
Li1 O40 2.532639 1_565
Li2 O13 1.949283 1_555
Li2 O34 2.015581 1_555
Li2 O23 2.051822 1_555
Li2 O31 2.563148 1_555
Li3 O40 1.925509 1_555
Li3 O47 1.982042 1_555
Li3 O11 2.090063 1_455
Li4 O23 1.995033 1_555
Li4 O42 2.057184 1_555
Li4 O38 2.198934 1_555
Li4 O35 2.532639 1_555
Li5 O26 1.936438 1_555
Li5 O43 2.041521 1_655
Li5 O4 2.057466 1_555
Li6 O22 1.934199 1_555
Li6 O10 2.026271 1_555
Li6 O26 2.137747 1_545
Li6 O3 2.448474 1_555
Li7 O16 1.934199 1_555
Li7 O14 2.026271 1_555
Li7 O5 2.137747 1_555
Li7 O19 2.448474 1_555
Li8 O43 1.949283 1_555
Li8 O21 2.015581 1_555
Li8 O41 2.051822 1_554
Li8 O8 2.563148 1_555
Li9 O5 1.936438 1_555
Li9 O13 2.041521 1_555
Li9 O39 2.057466 1_555
Li10 O46 2.045515 1_555
Li10 O16 2.053752 1_555
Li10 O35 2.101924 1_555
Li10 O5 2.548725 1_555
Li11 O11 2.045515 1_455
Li11 O22 2.053752 1_456
Li11 O40 2.101924 1_555
Li11 O26 2.548726 1_446
Ni0 O37 1.995895 1_455
Ni0 O30 2.009717 1_455
Ni0 O2 2.036757 1_555
Ni0 O14 2.066937 1_455
Ni0 O47 2.081474 1_555
Ni0 O0 2.082875 1_555
Ni1 O19 1.994257 1_556
Ni1 O3 1.994257 1_556
Ni1 O27 2.059187 1_555
Ni1 O18 2.059187 1_555
Ni1 O29 2.120944 1_556
Ni1 O20 2.120944 1_555
Ni2 O45 1.986574 1_655
Ni2 O8 1.992668 1_655
Ni2 O25 2.040789 1_555
Ni2 O24 2.052087 1_555
Ni2 O42 2.109643 1_655
Ni2 O4 2.124439 1_555
Ni3 O6 1.995895 1_545
Ni3 O32 2.009717 1_545
Ni3 O1 2.036757 1_555
Ni3 O10 2.066937 1_555
Ni3 O36 2.081474 1_545
Ni3 O15 2.082875 1_555
Ni4 O17 1.986574 1_565
Ni4 O31 1.992668 1_565
Ni4 O28 2.040789 1_555
Ni4 O44 2.052087 1_555
Ni4 O33 2.109643 1_555
Ni4 O39 2.124439 1_565
Ni5 O15 1.976060 1_555
Ni5 O0 1.976060 1_555
Ni5 O12 1.976339 1_555
Ni5 O7 1.976339 1_555
Ni5 O2 1.991590 1_555
Ni5 O1 1.991590 1_555
Ni6 O25 1.961965 1_555
Ni6 O28 1.961965 1_555
Ni6 O44 1.989316 1_555
Ni6 O24 1.989316 1_555
Ni6 O18 1.990552 1_555
Ni6 O27 1.990552 1_555
Ni7 O38 1.989808 1_554
Ni7 O9 1.989808 1_554
Ni7 O7 2.055642 1_555
Ni7 O12 2.055642 1_555
Ni7 O34 2.096948 1_554
Ni7 O21 2.096948 1_555
O0 P10 1.575377 1_545
O1 P8 1.575256 1_554
O2 P3 1.575256 1_555
O3 P11 1.546903 1_555
O4 P7 1.553920 1_555
O5 P9 1.533565 1_555
O6 P7 1.547645 1_555
O7 P11 1.576265 1_555
O8 P3 1.550532 1_555
O9 P5 1.552139 1_555
O10 P11 1.560850 1_555
O11 P6 1.526727 1_555
O12 P2 1.576265 1_455
O13 P1 1.536503 1_555
O14 P2 1.560850 1_555
O15 P1 1.575377 1_555
O16 P11 1.524328 1_555
O17 P1 1.549365 1_555
O18 P0 1.576424 1_655
O19 P2 1.546903 1_555
O20 P9 1.544272 1_555
O21 P3 1.555056 1_555
O22 P2 1.524328 1_555
O23 P5 1.534044 1_555
O24 P6 1.585850 1_565
O25 P9 1.581988 1_555
O26 P4 1.533565 1_555
O27 P5 1.576424 1_555
O28 P4 1.581988 1_556
O29 P4 1.544272 1_555
O30 P9 1.546818 1_555
O31 P8 1.550532 1_555
O32 P4 1.546818 1_555
O33 P5 1.551894 1_555
O34 P8 1.555056 1_555
O35 P3 1.532383 1_555
O36 P10 1.552219 1_555
O37 P6 1.547645 1_555
O38 P0 1.552139 1_555
O39 P6 1.553920 1_555
O40 P8 1.532383 1_555
O41 P0 1.534044 1_555
O42 P0 1.551894 1_555
O43 P10 1.536503 1_555
O44 P7 1.585850 1_555
O45 P10 1.549365 1_555
O46 P7 1.526727 1_555
O47 P1 1.552219 1_555
