# generated using pymatgen
data_LiV2(OF)3
_symmetry_space_group_name_H-M   'P 1'
_cell_length_a   5.09093500
_cell_length_b   5.12561368
_cell_length_c   13.52798677
_cell_angle_alpha   87.96893401
_cell_angle_beta   87.30104917
_cell_angle_gamma   62.01497429
_symmetry_Int_Tables_number   1
_chemical_formula_structural   LiV2(OF)3
_chemical_formula_sum   'Li3 V6 O9 F9'
_cell_volume   311.34373044
_cell_formula_units_Z   3
loop_
 _symmetry_equiv_pos_site_id
 _symmetry_equiv_pos_as_xyz
  1  'x, y, z'
loop_
 _atom_site_type_symbol
 _atom_site_label
 _atom_site_symmetry_multiplicity
 _atom_site_fract_x
 _atom_site_fract_y
 _atom_site_fract_z
 _atom_site_occupancy
  Li  Li0  1  0.64384900  0.67990000  0.88240100  1
  Li  Li1  1  0.96699000  0.02913100  0.21426700  1
  Li  Li2  1  0.31257400  0.35963300  0.55184900  1
  V  V0  1  0.66626900  0.67774400  0.66707000  1
  V  V1  1  0.64056900  0.68175900  0.16092600  1
  V  V2  1  0.03962400  0.96845900  0.00206500  1
  V  V3  1  0.36890200  0.29457400  0.82425800  1
  V  V4  1  0.32111100  0.35822600  0.33456300  1
  V  V5  1  0.02485700  0.97384700  0.49195000  1
  O  O0  1  0.93088300  0.72874100  0.58436500  1
  O  O1  1  0.74206700  0.90727900  0.08851800  1
  O  O2  1  0.60839700  0.00095400  0.75278900  1
  O  O3  1  0.59539900  0.40049900  0.25013600  1
  O  O4  1  0.43749100  0.58942200  0.75106800  1
  O  O5  1  0.31277700  0.73920300  0.08386500  1
  O  O6  1  0.26497400  0.67856700  0.42202000  1
  O  O7  1  0.26234100  0.06497800  0.91395800  1
  O  O8  1  0.09711300  0.26483000  0.41755200  1
  F  F0  1  0.00846500  0.39388400  0.75043600  1
  F  F1  1  0.94073800  0.31896000  0.08827900  1
  F  F2  1  0.70498300  0.33605000  0.57602300  1
  F  F3  1  0.34956600  0.01438400  0.24693900  1
  F  F4  1  0.65375700  0.29433100  0.92218200  1
  F  F5  1  0.31904900  0.97651400  0.58594200  1
  F  F6  1  0.66870400  0.06913400  0.41737300  1
  F  F7  1  0.03594700  0.67386200  0.91103600  1
  F  F8  1  0.98388500  0.64458500  0.25400600  1
loop_
_geom_bond_atom_site_label_1
_geom_bond_atom_site_label_2
_geom_bond_distance
_geom_bond_site_symmetry_2
Li0 O7 2.057721 1_565
Li0 O4 2.273039 1_555
Li0 O2 2.315489 1_565
Li1 O3 2.009242 1_555
Li1 O1 2.350541 1_545
Li1 O5 2.420236 1_645
Li2 O0 2.019171 1_455
Li2 O6 2.297944 1_555
Li2 O8 2.343165 1_555
O0 V0 1.817325 1_555
O0 V5 1.940773 1_655
O1 V1 1.730687 1_555
O1 V2 2.003463 1_655
O2 V3 1.719409 1_555
O2 V0 1.954971 1_545
O3 V4 1.848647 1_555
O3 V1 1.936306 1_555
O4 V0 1.785051 1_555
O4 V3 1.934640 1_555
O5 V2 1.748810 1_555
O5 V1 1.907669 1_555
O6 V5 1.713529 1_555
O6 V4 1.960330 1_555
O7 V2 1.818884 1_546
O7 V3 1.894101 1_555
O8 V4 1.773031 1_555
O8 V5 1.935550 1_545
F0 V3 1.970656 1_555
F0 V0 2.028213 1_455
F0 Li0 2.470098 1_455
F1 V1 2.019970 1_555
F1 V2 2.021305 1_645
F1 Li1 2.187519 1_555
F2 Li2 1.986096 1_555
F2 V0 2.104603 1_555
F2 V5 2.128386 1_645
F3 Li1 1.983689 1_455
F3 V1 2.015759 1_545
F3 V4 2.103443 1_555
F4 Li0 2.007846 1_555
F4 V3 2.009227 1_555
F4 V2 2.193018 1_646
F5 Li2 1.986575 1_565
F5 V5 2.014917 1_555
F5 V0 2.048761 1_555
F6 V5 1.962183 1_645
F6 V4 2.047007 1_555
F6 Li2 2.482237 1_555
F7 V2 1.989313 1_556
F7 Li0 2.037059 1_455
F7 V3 2.216427 1_555
F8 Li1 1.987843 1_565
F8 V4 1.996825 1_655
F8 V1 2.134098 1_555
