# generated using pymatgen
data_Ba3(YI6)2
_symmetry_space_group_name_H-M   'P 1'
_cell_length_a   13.31841800
_cell_length_b   13.31841800
_cell_length_c   8.01321200
_cell_angle_alpha   90.00000000
_cell_angle_beta   90.00000000
_cell_angle_gamma   90.00000000
_symmetry_Int_Tables_number   1
_chemical_formula_structural   Ba3(YI6)2
_chemical_formula_sum   'Ba6 Y4 I24'
_cell_volume   1421.38561215
_cell_formula_units_Z   2
loop_
 _symmetry_equiv_pos_site_id
 _symmetry_equiv_pos_as_xyz
  1  'x, y, z'
loop_
 _atom_site_type_symbol
 _atom_site_label
 _atom_site_symmetry_multiplicity
 _atom_site_fract_x
 _atom_site_fract_y
 _atom_site_fract_z
 _atom_site_occupancy
  Ba  Ba0  1  0.00000000  0.00000000  0.00000000  1
  Ba  Ba1  1  0.68183600  0.18183600  0.50000000  1
  Ba  Ba2  1  0.18183600  0.31816400  0.50000000  1
  Ba  Ba3  1  0.50000000  0.50000000  0.00000000  1
  Ba  Ba4  1  0.81816400  0.68183600  0.50000000  1
  Ba  Ba5  1  0.31816400  0.81816400  0.50000000  1
  Y  Y0  1  0.36340000  0.13660000  0.00000000  1
  Y  Y1  1  0.86340000  0.36340000  0.00000000  1
  Y  Y2  1  0.13660000  0.63660000  0.00000000  1
  Y  Y3  1  0.63660000  0.86340000  0.00000000  1
  I  I0  1  0.50000000  0.00000000  0.23951100  1
  I  I1  1  0.50000000  0.00000000  0.76048900  1
  I  I2  1  0.21434500  0.05206500  0.26428500  1
  I  I3  1  0.21434500  0.05206500  0.73571500  1
  I  I4  1  0.70023400  0.20023400  0.00000000  1
  I  I5  1  0.94793500  0.21434500  0.26428500  1
  I  I6  1  0.94793500  0.21434500  0.73571500  1
  I  I7  1  0.44793500  0.28565500  0.26428500  1
  I  I8  1  0.44793500  0.28565500  0.73571500  1
  I  I9  1  0.20023400  0.29976600  0.00000000  1
  I  I10  1  0.71434500  0.44793500  0.26428500  1
  I  I11  1  0.71434500  0.44793500  0.73571500  1
  I  I12  1  0.00000000  0.50000000  0.76048900  1
  I  I13  1  0.00000000  0.50000000  0.23951100  1
  I  I14  1  0.28565500  0.55206500  0.26428500  1
  I  I15  1  0.28565500  0.55206500  0.73571500  1
  I  I16  1  0.79976600  0.70023400  0.00000000  1
  I  I17  1  0.55206500  0.71434500  0.26428500  1
  I  I18  1  0.55206500  0.71434500  0.73571500  1
  I  I19  1  0.05206500  0.78565500  0.26428500  1
  I  I20  1  0.05206500  0.78565500  0.73571500  1
  I  I21  1  0.29976600  0.79976600  0.00000000  1
  I  I22  1  0.78565500  0.94793500  0.26428500  1
  I  I23  1  0.78565500  0.94793500  0.73571500  1
loop_
_geom_bond_atom_site_label_1
_geom_bond_atom_site_label_2
_geom_bond_distance
_geom_bond_site_symmetry_2
Ba0 I19 3.621507 1_545
Ba0 I20 3.621507 1_544
Ba0 I5 3.621507 1_455
Ba0 I6 3.621507 1_454
Ba0 I3 3.621507 1_554
Ba0 I2 3.621507 1_555
Ba0 I22 3.621507 1_445
Ba0 I23 3.621507 1_444
Ba1 I22 3.896663 1_545
Ba1 I8 3.896663 1_555
Ba1 I23 3.896663 1_545
Ba1 I7 3.896663 1_555
Ba1 I0 4.010856 1_555
Ba1 I1 4.010856 1_555
Ba1 I4 4.021564 1_556
Ba1 I4 4.021564 1_555
Ba1 I5 4.039210 1_555
Ba1 I6 4.039210 1_555
Ba1 I11 4.039210 1_555
Ba1 I10 4.039210 1_555
Ba2 I15 3.896663 1_555
Ba2 I14 3.896663 1_555
Ba2 I5 3.896663 1_455
Ba2 I6 3.896663 1_455
Ba2 I12 4.010856 1_555
Ba2 I13 4.010856 1_555
Ba2 I9 4.021564 1_555
Ba2 I9 4.021564 1_556
Ba2 I7 4.039210 1_555
Ba2 I2 4.039210 1_555
Ba2 I3 4.039210 1_555
Ba2 I8 4.039210 1_555
Ba3 I8 3.621507 1_554
Ba3 I11 3.621507 1_554
Ba3 I10 3.621507 1_555
Ba3 I18 3.621507 1_554
Ba3 I17 3.621507 1_555
Ba3 I7 3.621507 1_555
Ba3 I15 3.621507 1_554
Ba3 I14 3.621507 1_555
Ba4 I11 3.896663 1_555
Ba4 I10 3.896663 1_555
Ba4 I19 3.896663 1_655
Ba4 I20 3.896663 1_655
Ba4 I12 4.010856 1_655
Ba4 I13 4.010856 1_655
Ba4 I16 4.021564 1_556
Ba4 I16 4.021564 1_555
Ba4 I17 4.039210 1_555
Ba4 I18 4.039210 1_555
Ba4 I23 4.039210 1_555
Ba4 I22 4.039210 1_555
Ba5 I2 3.896663 1_565
Ba5 I3 3.896663 1_565
Ba5 I18 3.896663 1_555
Ba5 I17 3.896663 1_555
Ba5 I0 4.010856 1_565
Ba5 I1 4.010856 1_565
Ba5 I21 4.021564 1_555
Ba5 I21 4.021564 1_556
Ba5 I14 4.039210 1_555
Ba5 I20 4.039210 1_555
Ba5 I15 4.039210 1_555
Ba5 I19 4.039210 1_555
I0 Y0 3.209861 1_555
I0 Y3 3.209861 1_545
I1 Y0 3.209861 1_556
I1 Y3 3.209861 1_546
I2 Y0 3.113434 1_555
I3 Y0 3.113434 1_556
I4 Y1 3.073246 1_555
I5 Y1 3.113434 1_555
I6 Y1 3.113434 1_556
I7 Y0 3.113434 1_555
I8 Y0 3.113434 1_556
I9 Y0 3.073246 1_555
I10 Y1 3.113434 1_555
I11 Y1 3.113434 1_556
I12 Y1 3.209861 1_456
I12 Y2 3.209861 1_556
I13 Y1 3.209861 1_455
I13 Y2 3.209861 1_555
I14 Y2 3.113434 1_555
I15 Y2 3.113434 1_556
I16 Y3 3.073246 1_555
I17 Y3 3.113434 1_555
I18 Y3 3.113434 1_556
I19 Y2 3.113434 1_555
I20 Y2 3.113434 1_556
I21 Y2 3.073246 1_555
I22 Y3 3.113434 1_555
I23 Y3 3.113434 1_556
