# generated using pymatgen
data_Rb2Cu2I4O
_symmetry_space_group_name_H-M   'P 1'
_cell_length_a   7.53982700
_cell_length_b   11.39918800
_cell_length_c   14.51006900
_cell_angle_alpha   90.00000000
_cell_angle_beta   90.00000000
_cell_angle_gamma   90.00000000
_symmetry_Int_Tables_number   1
_chemical_formula_structural   Rb2Cu2I4O
_chemical_formula_sum   'Rb8 Cu8 I16 O4'
_cell_volume   1247.11003864
_cell_formula_units_Z   4
loop_
 _symmetry_equiv_pos_site_id
 _symmetry_equiv_pos_as_xyz
  1  'x, y, z'
loop_
 _atom_site_type_symbol
 _atom_site_label
 _atom_site_symmetry_multiplicity
 _atom_site_fract_x
 _atom_site_fract_y
 _atom_site_fract_z
 _atom_site_occupancy
  Rb  Rb0  1  0.97339100  0.29829900  0.35116300  1
  Rb  Rb1  1  0.52660900  0.70170100  0.85116300  1
  Rb  Rb2  1  0.47339100  0.20170100  0.64883700  1
  Rb  Rb3  1  0.02660900  0.79829900  0.14883700  1
  Rb  Rb4  1  0.33119300  0.10518800  0.00705800  1
  Rb  Rb5  1  0.16880700  0.89481200  0.50705800  1
  Rb  Rb6  1  0.83119300  0.39481200  0.99294200  1
  Rb  Rb7  1  0.66880700  0.60518800  0.49294200  1
  Cu  Cu0  1  0.94094700  0.02525500  0.72758700  1
  Cu  Cu1  1  0.55905300  0.97474500  0.22758700  1
  Cu  Cu2  1  0.44094700  0.47474500  0.27241300  1
  Cu  Cu3  1  0.05905300  0.52525500  0.77241300  1
  Cu  Cu4  1  0.93786700  0.26991600  0.74874100  1
  Cu  Cu5  1  0.56213300  0.73008400  0.24874100  1
  Cu  Cu6  1  0.43786700  0.23008400  0.25125900  1
  Cu  Cu7  1  0.06213300  0.76991600  0.75125900  1
  I  I0  1  0.74235100  0.45775900  0.72189900  1
  I  I1  1  0.75764900  0.54224100  0.22189900  1
  I  I2  1  0.24235100  0.04224100  0.27810100  1
  I  I3  1  0.25764900  0.95775900  0.77810100  1
  I  I4  1  0.75487900  0.12405000  0.85667900  1
  I  I5  1  0.74512100  0.87595000  0.35667900  1
  I  I6  1  0.25487900  0.37595000  0.14332100  1
  I  I7  1  0.24512100  0.62405000  0.64332100  1
  I  I8  1  0.72280500  0.15912300  0.16129900  1
  I  I9  1  0.77719500  0.84087700  0.66129900  1
  I  I10  1  0.22280500  0.34087700  0.83870100  1
  I  I11  1  0.27719500  0.65912300  0.33870100  1
  I  I12  1  0.98352900  0.17330000  0.58708600  1
  I  I13  1  0.51647100  0.82670000  0.08708600  1
  I  I14  1  0.48352900  0.32670000  0.41291400  1
  I  I15  1  0.01647100  0.67330000  0.91291400  1
  O  O0  1  0.48114800  0.02341000  0.51905600  1
  O  O1  1  0.01885200  0.97659000  0.01905600  1
  O  O2  1  0.98114800  0.47659000  0.48094400  1
  O  O3  1  0.51885200  0.52341000  0.98094400  1
loop_
_geom_bond_atom_site_label_1
_geom_bond_atom_site_label_2
_geom_bond_distance
_geom_bond_site_symmetry_2
Cu0 I4 2.597134 1_555
Cu0 I3 2.613651 1_645
Cu0 I9 2.620482 1_545
Cu0 I12 2.665945 1_555
Cu1 I5 2.597134 1_555
Cu1 I2 2.613651 1_565
Cu1 I8 2.620482 1_565
Cu1 I13 2.665945 1_555
Cu2 I6 2.597134 1_555
Cu2 I1 2.613651 1_555
Cu2 I11 2.620482 1_555
Cu2 I14 2.665945 1_555
Cu3 I7 2.597134 1_555
Cu3 I0 2.613651 1_455
Cu3 I10 2.620482 1_555
Cu3 I15 2.665945 1_555
Cu4 I12 2.614086 1_555
Cu4 I0 2.628653 1_555
Cu4 I10 2.640784 1_655
Cu4 I4 2.668569 1_555
Cu5 I13 2.614086 1_555
Cu5 I1 2.628653 1_555
Cu5 I11 2.640784 1_555
Cu5 I5 2.668569 1_555
Cu6 I14 2.614086 1_555
Cu6 I2 2.628653 1_555
Cu6 I8 2.640784 1_555
Cu6 I6 2.668569 1_555
Cu7 I15 2.614086 1_555
Cu7 I3 2.628653 1_555
Cu7 I9 2.640784 1_455
Cu7 I7 2.668569 1_555
I0 Rb2 3.708910 1_555
I0 Rb1 3.727804 1_555
I0 Rb7 3.764132 1_555
I1 Rb3 3.708910 1_655
I1 Rb0 3.727804 1_555
I1 Rb6 3.764132 1_554
I2 Rb0 3.708910 1_455
I2 Rb3 3.727804 1_545
I2 Rb5 3.764132 1_545
I3 Rb1 3.708910 1_555
I3 Rb2 3.727804 1_565
I3 Rb4 3.764132 1_566
I4 Rb6 3.710340 1_555
I4 Rb2 3.792496 1_555
I4 Rb4 3.874577 1_556
I5 Rb7 3.710340 1_555
I5 Rb3 3.792496 1_655
I5 Rb5 3.874577 1_655
I6 Rb4 3.710340 1_555
I6 Rb0 3.792496 1_455
I6 Rb6 3.874577 1_454
I7 Rb5 3.710340 1_555
I7 Rb1 3.792496 1_555
I7 Rb7 3.874577 1_555
I8 Rb0 3.698161 1_555
I8 Rb6 3.722048 1_554
I8 Rb4 3.755691 1_555
I9 Rb1 3.698161 1_555
I9 Rb7 3.722048 1_555
I9 Rb5 3.755691 1_655
I10 Rb2 3.698161 1_555
I10 Rb4 3.722048 1_556
I10 Rb6 3.755691 1_455
I11 Rb3 3.698161 1_555
I11 Rb5 3.722048 1_555
I11 Rb7 3.755691 1_555
I12 Rb5 3.657541 1_645
I12 Rb0 3.708753 1_555
I12 Rb2 3.814368 1_655
I12 Rb2 3.962584 1_555
I13 Rb4 3.657541 1_565
I13 Rb1 3.708753 1_554
I13 Rb3 3.814368 1_555
I13 Rb3 3.962584 1_655
I14 Rb7 3.657541 1_555
I14 Rb2 3.708753 1_555
I14 Rb0 3.814368 1_555
I14 Rb0 3.962584 1_455
I15 Rb6 3.657541 1_455
I15 Rb3 3.708753 1_556
I15 Rb1 3.814368 1_455
I15 Rb1 3.962584 1_555
O0 Rb2 2.771307 1_555
O0 Rb5 2.779428 1_545
O1 Rb3 2.771307 1_555
O1 Rb4 2.779428 1_565
O2 Rb0 2.771307 1_555
O2 Rb7 2.779428 1_555
O3 Rb1 2.771307 1_555
O3 Rb6 2.779428 1_555
