# generated using pymatgen
data_LiFe3(OF3)2
_symmetry_space_group_name_H-M   'P 1'
_cell_length_a   3.85036400
_cell_length_b   8.58545100
_cell_length_c   9.62995400
_cell_angle_alpha   90.00000000
_cell_angle_beta   90.00000000
_cell_angle_gamma   90.00000000
_symmetry_Int_Tables_number   1
_chemical_formula_structural   LiFe3(OF3)2
_chemical_formula_sum   'Li2 Fe6 O4 F12'
_cell_volume   318.33846268
_cell_formula_units_Z   2
loop_
 _symmetry_equiv_pos_site_id
 _symmetry_equiv_pos_as_xyz
  1  'x, y, z'
loop_
 _atom_site_type_symbol
 _atom_site_label
 _atom_site_symmetry_multiplicity
 _atom_site_fract_x
 _atom_site_fract_y
 _atom_site_fract_z
 _atom_site_occupancy
  Li  Li0  1  0.00000000  0.76523800  0.41764500  1
  Li  Li1  1  0.50000000  0.26523800  0.58235500  1
  Fe  Fe0  1  0.00000000  0.55784100  0.76161200  1
  Fe  Fe1  1  0.50000000  0.73078200  0.94763800  1
  Fe  Fe2  1  0.00000000  0.93290500  0.74465600  1
  Fe  Fe3  1  0.50000000  0.05784100  0.23838800  1
  Fe  Fe4  1  0.00000000  0.23078200  0.05236200  1
  Fe  Fe5  1  0.50000000  0.43290500  0.25534400  1
  O  O0  1  0.50000000  0.58344800  0.79287100  1
  O  O1  1  0.00000000  0.76180800  0.89133100  1
  O  O2  1  0.00000000  0.08344800  0.20712900  1
  O  O3  1  0.50000000  0.26180800  0.10866900  1
  F  F0  1  0.50000000  0.58395700  0.39539200  1
  F  F1  1  0.50000000  0.59837500  0.10991200  1
  F  F2  1  0.00000000  0.75145800  0.61495100  1
  F  F3  1  0.50000000  0.91116400  0.07213700  1
  F  F4  1  0.50000000  0.92712300  0.76470100  1
  F  F5  1  0.50000000  0.89568100  0.37437600  1
  F  F6  1  0.00000000  0.08395700  0.60460800  1
  F  F7  1  0.00000000  0.09837500  0.89008800  1
  F  F8  1  0.50000000  0.25145800  0.38504900  1
  F  F9  1  0.00000000  0.41116400  0.92786300  1
  F  F10  1  0.00000000  0.42712300  0.23529900  1
  F  F11  1  0.00000000  0.39568100  0.62562400  1
loop_
_geom_bond_atom_site_label_1
_geom_bond_atom_site_label_2
_geom_bond_distance
_geom_bond_site_symmetry_2
Fe0 O0 1.960937 1_455
Fe0 O0 1.960937 1_555
Fe0 O1 2.151044 1_555
Fe1 O0 1.954823 1_555
Fe1 O1 2.017746 1_555
Fe1 O1 2.017746 1_655
Fe2 O1 2.037862 1_555
Fe3 O2 1.960937 1_655
Fe3 O2 1.960937 1_555
Fe3 O3 2.151044 1_555
Fe4 O2 1.954823 1_555
Fe4 O3 2.017746 1_555
Fe4 O3 2.017746 1_455
Fe5 O3 2.037862 1_555
F0 Fe5 1.871013 1_555
F0 Li0 2.484867 1_555
F0 Li0 2.484867 1_655
F1 Fe1 1.932423 1_554
F1 Fe5 1.994897 1_555
F2 Li0 1.903727 1_555
F2 Fe2 1.996719 1_555
F2 Fe0 2.181263 1_555
F3 Fe1 1.958509 1_554
F3 Fe3 2.036903 1_565
F4 Fe2 1.935472 1_655
F4 Fe2 1.935472 1_555
F4 Fe1 2.438238 1_555
F5 Fe3 1.911337 1_565
F5 Li0 2.265866 1_655
F5 Li0 2.265866 1_555
F6 Fe2 1.871013 1_545
F6 Li1 2.484867 1_555
F6 Li1 2.484867 1_455
F7 Fe4 1.932423 1_556
F7 Fe2 1.994897 1_545
F8 Li1 1.903727 1_555
F8 Fe5 1.996719 1_555
F8 Fe3 2.181263 1_555
F9 Fe4 1.958509 1_556
F9 Fe0 2.036903 1_555
F10 Fe5 1.935472 1_555
F10 Fe5 1.935472 1_455
F10 Fe4 2.438238 1_555
F11 Fe0 1.911337 1_555
F11 Li1 2.265866 1_455
F11 Li1 2.265866 1_555
