# generated using pymatgen
data_Mn3Cr3(TeO8)2
_symmetry_space_group_name_H-M   'P 1'
_cell_length_a   5.95578073
_cell_length_b   5.95578073
_cell_length_c   9.21617433
_cell_angle_alpha   89.76518897
_cell_angle_beta   89.76518897
_cell_angle_gamma   60.12780244
_symmetry_Int_Tables_number   1
_chemical_formula_structural   Mn3Cr3(TeO8)2
_chemical_formula_sum   'Mn3 Cr3 Te2 O16'
_cell_volume   283.47299899
_cell_formula_units_Z   1
loop_
 _symmetry_equiv_pos_site_id
 _symmetry_equiv_pos_as_xyz
  1  'x, y, z'
loop_
 _atom_site_type_symbol
 _atom_site_label
 _atom_site_symmetry_multiplicity
 _atom_site_fract_x
 _atom_site_fract_y
 _atom_site_fract_z
 _atom_site_occupancy
  Mn  Mn0  1  0.83121500  0.83121500  0.21075000  1
  Mn  Mn1  1  0.66507200  0.16801100  0.70966800  1
  Mn  Mn2  1  0.16801100  0.66507200  0.70966800  1
  Cr  Cr0  1  0.83089400  0.33757800  0.21056900  1
  Cr  Cr1  1  0.33757800  0.83089400  0.21056900  1
  Cr  Cr2  1  0.16997200  0.16997200  0.71141000  1
  Te  Te0  1  0.66482200  0.66482200  0.48670900  1
  Te  Te1  1  0.33236000  0.33236000  0.98869300  1
  O  O0  1  0.82895200  0.34369300  0.59632400  1
  O  O1  1  0.52120100  0.52120100  0.34554100  1
  O  O2  1  0.67184600  0.67184600  0.10930100  1
  O  O3  1  0.99557500  0.99557500  0.30340700  1
  O  O4  1  0.99562400  0.99562400  0.80185000  1
  O  O5  1  0.34369300  0.82895200  0.59632400  1
  O  O6  1  0.95804100  0.52462200  0.34268000  1
  O  O7  1  0.52462200  0.95804100  0.34268000  1
  O  O8  1  0.17117100  0.17117100  0.09570700  1
  O  O9  1  0.82372200  0.82372200  0.59774500  1
  O  O10  1  0.47821900  0.04290300  0.84487600  1
  O  O11  1  0.04290300  0.47821900  0.84487600  1
  O  O12  1  0.33960900  0.33960900  0.61167100  1
  O  O13  1  0.65511300  0.17005600  0.09764900  1
  O  O14  1  0.48016600  0.48016600  0.84941400  1
  O  O15  1  0.17005600  0.65511300  0.09764900  1
loop_
_geom_bond_atom_site_label_1
_geom_bond_atom_site_label_2
_geom_bond_distance
_geom_bond_site_symmetry_2
Mn0 O2 1.894199 1_555
Mn0 O3 1.901028 1_555
Mn0 O6 1.999653 1_555
Mn0 O7 1.999653 1_555
Mn0 O15 2.035296 1_655
Mn0 O13 2.035296 1_565
Mn1 O4 1.909123 1_545
Mn1 O12 1.910741 1_555
Mn1 O0 2.034355 1_555
Mn1 O10 2.037998 1_555
Mn1 O9 2.059305 1_545
Mn1 O14 2.072777 1_555
Mn2 O4 1.909123 1_455
Mn2 O12 1.910741 1_555
Mn2 O5 2.034355 1_555
Mn2 O11 2.037998 1_555
Mn2 O9 2.059305 1_455
Mn2 O14 2.072777 1_555
Cr0 O2 1.960925 1_555
Cr0 O3 1.960997 1_545
Cr0 O1 2.031847 1_555
Cr0 O6 2.038594 1_555
Cr0 O8 2.049454 1_655
Cr0 O13 2.057292 1_555
Cr1 O2 1.960925 1_555
Cr1 O3 1.960997 1_455
Cr1 O1 2.031847 1_555
Cr1 O7 2.038594 1_555
Cr1 O8 2.049454 1_565
Cr1 O15 2.057292 1_555
Cr2 O12 1.971807 1_555
Cr2 O4 1.977643 1_445
Cr2 O10 2.020641 1_555
Cr2 O11 2.020641 1_555
Cr2 O0 2.058150 1_455
Cr2 O5 2.058150 1_545
O0 Te0 1.940092 1_555
O1 Te0 1.975624 1_555
O5 Te0 1.940092 1_555
O6 Te0 2.011581 1_555
O7 Te0 2.011581 1_555
O8 Te1 1.928331 1_554
O9 Te0 1.935583 1_555
O10 Te1 2.000227 1_555
O11 Te1 2.000227 1_555
O13 Te1 1.947995 1_554
O14 Te1 1.987698 1_555
O15 Te1 1.947995 1_554
