# generated using pymatgen
data_Li3(FeO2)4
_symmetry_space_group_name_H-M   'P 1'
_cell_length_a   5.19067800
_cell_length_b   5.61141156
_cell_length_c   6.60602697
_cell_angle_alpha   90.12985067
_cell_angle_beta   90.03155332
_cell_angle_gamma   90.02564898
_symmetry_Int_Tables_number   1
_chemical_formula_structural   Li3(FeO2)4
_chemical_formula_sum   'Li3 Fe4 O8'
_cell_volume   192.41340664
_cell_formula_units_Z   1
loop_
 _symmetry_equiv_pos_site_id
 _symmetry_equiv_pos_as_xyz
  1  'x, y, z'
loop_
 _atom_site_type_symbol
 _atom_site_label
 _atom_site_symmetry_multiplicity
 _atom_site_fract_x
 _atom_site_fract_y
 _atom_site_fract_z
 _atom_site_occupancy
  Li  Li0  1  0.49604600  0.41874000  0.12348900  1
  Li  Li1  1  0.00016000  0.58178100  0.87722300  1
  Li  Li2  1  0.49552200  0.91714600  0.37673800  1
  Fe  Fe0  1  0.99947800  0.08198000  0.12518100  1
  Fe  Fe1  1  0.49794700  0.41755700  0.62569900  1
  Fe  Fe2  1  0.99813700  0.58322300  0.37473800  1
  Fe  Fe3  1  0.49913400  0.91498400  0.87205700  1
  O  O0  1  0.36671100  0.07288500  0.10912400  1
  O  O1  1  0.42946700  0.08793100  0.63537400  1
  O  O2  1  0.89280800  0.40457600  0.14048300  1
  O  O3  1  0.85868300  0.47296200  0.61685600  1
  O  O4  1  0.36635100  0.56763600  0.38536900  1
  O  O5  1  0.38882200  0.58802600  0.86440900  1
  O  O6  1  0.87869300  0.89743200  0.33711400  1
  O  O7  1  0.86348200  0.91112500  0.91018300  1
loop_
_geom_bond_atom_site_label_1
_geom_bond_atom_site_label_2
_geom_bond_distance
_geom_bond_site_symmetry_2
Li0 O4 2.034547 1_555
Li0 O5 2.036695 1_554
Li0 O0 2.055256 1_555
Li0 O2 2.064036 1_555
Li1 O3 1.965699 1_455
Li1 O7 1.991398 1_455
Li1 O5 2.019533 1_555
Li1 O2 2.081385 1_456
Li2 O1 1.987125 1_565
Li2 O6 2.009275 1_555
Li2 O4 2.073319 1_555
Li2 O0 2.083830 1_565
Fe0 O7 1.851164 1_544
Fe0 O6 1.852713 1_545
Fe0 O2 1.895735 1_555
Fe0 O0 1.909894 1_655
Fe1 O1 1.884589 1_555
Fe1 O3 1.898914 1_555
Fe1 O4 1.923994 1_555
Fe1 O5 1.928004 1_555
Fe2 O3 1.862888 1_555
Fe2 O6 1.886182 1_555
Fe2 O4 1.914577 1_655
Fe2 O2 1.920971 1_555
Fe3 O1 1.877179 1_565
Fe3 O7 1.907912 1_555
Fe3 O5 1.922273 1_555
Fe3 O0 1.924986 1_566
