# generated using pymatgen
data_Li2MnFe(BO3)2
_symmetry_space_group_name_H-M   'P 1'
_cell_length_a   3.16491300
_cell_length_b   8.26731800
_cell_length_c   14.27712626
_cell_angle_alpha   89.96777868
_cell_angle_beta   90.00000000
_cell_angle_gamma   90.00000000
_symmetry_Int_Tables_number   1
_chemical_formula_structural   Li2MnFe(BO3)2
_chemical_formula_sum   'Li6 Mn3 Fe3 B6 O18'
_cell_volume   373.56583528
_cell_formula_units_Z   3
loop_
 _symmetry_equiv_pos_site_id
 _symmetry_equiv_pos_as_xyz
  1  'x, y, z'
loop_
 _atom_site_type_symbol
 _atom_site_label
 _atom_site_symmetry_multiplicity
 _atom_site_fract_x
 _atom_site_fract_y
 _atom_site_fract_z
 _atom_site_occupancy
  Li  Li0  1  0.50000000  0.70801500  0.01003500  1
  Li  Li1  1  0.50000000  0.66000400  0.64155000  1
  Li  Li2  1  0.50000000  0.63501600  0.34918400  1
  Li  Li3  1  0.50000000  0.20706800  0.50812500  1
  Li  Li4  1  0.50000000  0.15902900  0.14239100  1
  Li  Li5  1  0.50000000  0.13405200  0.85003000  1
  Mn  Mn0  1  0.00000000  0.80775900  0.81992300  1
  Mn  Mn1  1  0.00000000  0.32583300  0.68588300  1
  Mn  Mn2  1  0.00000000  0.30772300  0.32001300  1
  Fe  Fe0  1  0.00000000  0.86245700  0.49571600  1
  Fe  Fe1  1  0.00000000  0.82392700  0.18382800  1
  Fe  Fe2  1  0.00000000  0.36445600  0.99613900  1
  B  B0  1  0.50000000  0.99717900  0.33361700  1
  B  B1  1  0.00000000  0.00246100  0.00024100  1
  B  B2  1  0.50000000  0.99881100  0.66554700  1
  B  B3  1  0.50000000  0.49946900  0.83493900  1
  B  B4  1  0.00000000  0.50129500  0.49907200  1
  B  B5  1  0.50000000  0.50067700  0.16568600  1
  O  O0  1  0.50000000  0.98816300  0.56831400  1
  O  O1  1  0.50000000  0.98053500  0.23643100  1
  O  O2  1  0.50000000  0.86141000  0.39115300  1
  O  O3  1  0.50000000  0.85918000  0.71947300  1
  O  O4  1  0.00000000  0.84971000  0.04208300  1
  O  O5  1  0.50000000  0.65250600  0.87587600  1
  O  O6  1  0.50000000  0.65216100  0.20827400  1
  O  O7  1  0.00000000  0.63894600  0.55592500  1
  O  O8  1  0.00000000  0.51867300  0.40223000  1
  O  O9  1  0.50000000  0.48884800  0.06849900  1
  O  O10  1  0.50000000  0.48563200  0.73753200  1
  O  O11  1  0.50000000  0.36194500  0.89098200  1
  O  O12  1  0.50000000  0.36135700  0.21976900  1
  O  O13  1  0.00000000  0.34774000  0.53925200  1
  O  O14  1  0.50000000  0.15100800  0.37385100  1
  O  O15  1  0.50000000  0.14906800  0.70906100  1
  O  O16  1  0.00000000  0.14085700  0.05600100  1
  O  O17  1  0.00000000  0.01702600  0.90337200  1
loop_
_geom_bond_atom_site_label_1
_geom_bond_atom_site_label_2
_geom_bond_distance
_geom_bond_site_symmetry_2
Li0 O5 1.969864 1_554
Li0 O9 1.994514 1_555
Li0 O4 2.021483 1_655
Li0 O4 2.021483 1_555
Li1 O3 1.987766 1_555
Li1 O10 1.988418 1_555
Li1 O7 2.007280 1_655
Li1 O7 2.007280 1_555
Li2 O2 1.965566 1_555
Li2 O8 2.000516 1_655
Li2 O8 2.000516 1_555
Li2 O6 2.016698 1_555
Li3 O14 1.972528 1_555
Li3 O0 2.002976 1_545
Li3 O13 2.013645 1_555
Li3 O13 2.013645 1_655
Li4 O1 1.994491 1_545
Li4 O12 2.005113 1_555
Li4 O16 2.012020 1_555
Li4 O16 2.012020 1_655
Li5 O11 1.973014 1_555
Li5 O17 2.004836 1_555
Li5 O17 2.004836 1_655
Li5 O15 2.016388 1_555
Mn0 O17 2.101177 1_565
Mn0 O3 2.177373 1_455
Mn0 O3 2.177373 1_555
Mn0 O5 2.188290 1_555
Mn0 O5 2.188290 1_455
Mn1 O13 2.101187 1_555
Mn1 O15 2.179160 1_455
Mn1 O15 2.179160 1_555
Mn1 O10 2.189601 1_455
Mn1 O10 2.189601 1_555
Mn2 O8 2.102776 1_555
Mn2 O12 2.179080 1_455
Mn2 O12 2.179080 1_555
Mn2 O14 2.184602 1_555
Mn2 O14 2.184602 1_455
Fe0 O7 2.037559 1_555
Fe0 O0 2.158642 1_555
Fe0 O0 2.158642 1_455
Fe0 O2 2.175520 1_455
Fe0 O2 2.175520 1_555
Fe1 O4 2.034787 1_555
Fe1 O6 2.154519 1_555
Fe1 O6 2.154519 1_455
Fe1 O1 2.178443 1_455
Fe1 O1 2.178443 1_555
Fe2 O16 2.036136 1_556
Fe2 O9 2.151796 1_556
Fe2 O9 2.151796 1_456
Fe2 O11 2.181434 1_455
Fe2 O11 2.181434 1_555
B0 O2 1.390548 1_555
B0 O1 1.394420 1_555
B0 O14 1.395759 1_565
B1 O17 1.388176 1_554
B1 O16 1.394238 1_555
B1 O4 1.396705 1_545
B2 O3 1.387205 1_555
B2 O15 1.389224 1_565
B2 O0 1.391046 1_555
B3 O11 1.389912 1_555
B3 O5 1.393978 1_555
B3 O10 1.395453 1_555
B4 O8 1.389989 1_555
B4 O13 1.392789 1_555
B4 O7 1.398194 1_555
B5 O12 1.386313 1_555
B5 O9 1.391048 1_555
B5 O6 1.392474 1_555
