# generated using pymatgen
data_GdH18C3S3(O2F)9
_symmetry_space_group_name_H-M   'P 1'
_cell_length_a   13.89352337
_cell_length_b   13.89352337
_cell_length_c   7.53934200
_cell_angle_alpha   90.00000000
_cell_angle_beta   90.00000000
_cell_angle_gamma   119.99999698
_symmetry_Int_Tables_number   1
_chemical_formula_structural   GdH18C3S3(O2F)9
_chemical_formula_sum   'Gd2 H36 C6 S6 O36 F18'
_cell_volume   1260.34336890
_cell_formula_units_Z   2
loop_
 _symmetry_equiv_pos_site_id
 _symmetry_equiv_pos_as_xyz
  1  'x, y, z'
loop_
 _atom_site_type_symbol
 _atom_site_label
 _atom_site_symmetry_multiplicity
 _atom_site_fract_x
 _atom_site_fract_y
 _atom_site_fract_z
 _atom_site_occupancy
  Gd  Gd0  1  0.33333300  0.66666700  0.25000000  1
  Gd  Gd1  1  0.66666700  0.33333300  0.75000000  1
  H  H0  1  0.09982300  0.64774800  0.35520900  1
  H  H1  1  0.54792500  0.90017700  0.35520900  1
  H  H2  1  0.35225200  0.45207500  0.35520900  1
  H  H3  1  0.90017700  0.35225200  0.85520900  1
  H  H4  1  0.45207500  0.09982300  0.85520900  1
  H  H5  1  0.64774800  0.54792500  0.85520900  1
  H  H6  1  0.90017700  0.35225200  0.64479100  1
  H  H7  1  0.45207500  0.09982300  0.64479100  1
  H  H8  1  0.64774800  0.54792500  0.64479100  1
  H  H9  1  0.09982300  0.64774800  0.14479100  1
  H  H10  1  0.54792500  0.90017700  0.14479100  1
  H  H11  1  0.35225200  0.45207500  0.14479100  1
  H  H12  1  0.36733500  0.87130600  0.04078700  1
  H  H13  1  0.50397100  0.63266500  0.04078700  1
  H  H14  1  0.12869400  0.49602900  0.04078700  1
  H  H15  1  0.63266500  0.12869400  0.54078700  1
  H  H16  1  0.49602900  0.36733500  0.54078700  1
  H  H17  1  0.87130600  0.50397100  0.54078700  1
  H  H18  1  0.63266500  0.12869400  0.95921300  1
  H  H19  1  0.49602900  0.36733500  0.95921300  1
  H  H20  1  0.87130600  0.50397100  0.95921300  1
  H  H21  1  0.36733500  0.87130600  0.45921300  1
  H  H22  1  0.50397100  0.63266500  0.45921300  1
  H  H23  1  0.12869400  0.49602900  0.45921300  1
  H  H24  1  0.28028500  0.76763200  0.93050000  1
  H  H25  1  0.48734700  0.71971500  0.93050000  1
  H  H26  1  0.23236800  0.51265300  0.93050000  1
  H  H27  1  0.71971500  0.23236800  0.43050000  1
  H  H28  1  0.51265300  0.28028500  0.43050000  1
  H  H29  1  0.76763200  0.48734700  0.43050000  1
  H  H30  1  0.71971500  0.23236800  0.06950000  1
  H  H31  1  0.51265300  0.28028500  0.06950000  1
  H  H32  1  0.76763200  0.48734700  0.06950000  1
  H  H33  1  0.28028500  0.76763200  0.56950000  1
  H  H34  1  0.48734700  0.71971500  0.56950000  1
  H  H35  1  0.23236800  0.51265300  0.56950000  1
  C  C0  1  0.01906600  0.78673100  0.75000000  1
  C  C1  1  0.76766400  0.98093400  0.75000000  1
  C  C2  1  0.21326900  0.23233600  0.75000000  1
  C  C3  1  0.98093400  0.21326900  0.25000000  1
  C  C4  1  0.23233600  0.01906600  0.25000000  1
  C  C5  1  0.78673100  0.76766400  0.25000000  1
  S  S0  1  0.06504800  0.68051200  0.75000000  1
  S  S1  1  0.61546400  0.93495200  0.75000000  1
  S  S2  1  0.31948800  0.38453600  0.75000000  1
  S  S3  1  0.93495200  0.31948800  0.25000000  1
  S  S4  1  0.38453600  0.06504800  0.25000000  1
  S  S5  1  0.68051200  0.61546400  0.25000000  1
  O  O0  1  0.14518500  0.65662900  0.25000000  1
  O  O1  1  0.51144400  0.85481500  0.25000000  1
  O  O2  1  0.34337100  0.48855600  0.25000000  1
  O  O3  1  0.85481500  0.34337100  0.75000000  1
  O  O4  1  0.48855600  0.14518500  0.75000000  1
  O  O5  1  0.65662900  0.51144400  0.75000000  1
  O  O6  1  0.34159800  0.79250100  0.01653800  1
  O  O7  1  0.45090300  0.65840200  0.01653800  1
  O  O8  1  0.20749900  0.54909700  0.01653800  1
  O  O9  1  0.65840200  0.20749900  0.51653800  1
  O  O10  1  0.54909700  0.34159800  0.51653800  1
  O  O11  1  0.79250100  0.45090300  0.51653800  1
  O  O12  1  0.65840200  0.20749900  0.98346200  1
  O  O13  1  0.54909700  0.34159800  0.98346200  1
  O  O14  1  0.79250100  0.45090300  0.98346200  1
  O  O15  1  0.34159800  0.79250100  0.48346200  1
  O  O16  1  0.45090300  0.65840200  0.48346200  1
  O  O17  1  0.20749900  0.54909700  0.48346200  1
  O  O18  1  0.18673200  0.74655300  0.75000000  1
  O  O19  1  0.55982000  0.81326800  0.75000000  1
  O  O20  1  0.25344700  0.44018000  0.75000000  1
  O  O21  1  0.81326800  0.25344700  0.25000000  1
  O  O22  1  0.44018000  0.18673200  0.25000000  1
  O  O23  1  0.74655300  0.55982000  0.25000000  1
  O  O24  1  0.01822300  0.61760100  0.91412700  1
  O  O25  1  0.59937800  0.98177700  0.91412700  1
  O  O26  1  0.38239900  0.40062200  0.91412700  1
  O  O27  1  0.98177700  0.38239900  0.41412700  1
  O  O28  1  0.40062200  0.01822300  0.41412700  1
  O  O29  1  0.61760100  0.59937800  0.41412700  1
  O  O30  1  0.98177700  0.38239900  0.08587300  1
  O  O31  1  0.40062200  0.01822300  0.08587300  1
  O  O32  1  0.61760100  0.59937800  0.08587300  1
  O  O33  1  0.01822300  0.61760100  0.58587300  1
  O  O34  1  0.59937800  0.98177700  0.58587300  1
  O  O35  1  0.38239900  0.40062200  0.58587300  1
  F  F0  1  0.90672800  0.73459100  0.75000000  1
  F  F1  1  0.82786200  0.09327200  0.75000000  1
  F  F2  1  0.26540900  0.17213800  0.75000000  1
  F  F3  1  0.09327200  0.26540900  0.25000000  1
  F  F4  1  0.17213800  0.90672800  0.25000000  1
  F  F5  1  0.73459100  0.82786200  0.25000000  1
  F  F6  1  0.05748200  0.85159700  0.89570700  1
  F  F7  1  0.79411500  0.94251800  0.89570700  1
  F  F8  1  0.14840300  0.20588500  0.89570700  1
  F  F9  1  0.94251800  0.14840300  0.39570700  1
  F  F10  1  0.20588500  0.05748200  0.39570700  1
  F  F11  1  0.85159700  0.79411500  0.39570700  1
  F  F12  1  0.94251800  0.14840300  0.10429300  1
  F  F13  1  0.20588500  0.05748200  0.10429300  1
  F  F14  1  0.85159700  0.79411500  0.10429300  1
  F  F15  1  0.05748200  0.85159700  0.60429300  1
  F  F16  1  0.79411500  0.94251800  0.60429300  1
  F  F17  1  0.14840300  0.20588500  0.60429300  1
loop_
_geom_bond_atom_site_label_1
_geom_bond_atom_site_label_2
_geom_bond_distance
_geom_bond_site_symmetry_2
Gd0 O15 2.442751 1_555
Gd0 O6 2.442751 1_555
Gd0 O8 2.442756 1_555
Gd0 O17 2.442756 1_555
Gd0 O16 2.442761 1_555
Gd0 O7 2.442761 1_555
Gd0 O0 2.547172 1_555
Gd0 O1 2.547179 1_555
Gd0 O2 2.547186 1_555
Gd1 O12 2.442751 1_555
Gd1 O9 2.442751 1_555
Gd1 O14 2.442756 1_555
Gd1 O11 2.442756 1_555
Gd1 O13 2.442761 1_555
Gd1 O10 2.442761 1_555
Gd1 O3 2.547172 1_555
Gd1 O4 2.547179 1_555
Gd1 O5 2.547186 1_555
H0 O0 0.981752 1_555
H1 O1 0.981752 1_555
H2 O2 0.981752 1_555
H3 O3 0.981752 1_555
H4 O4 0.981752 1_555
H5 O5 0.981752 1_555
H6 O3 0.981752 1_555
H7 O4 0.981752 1_555
H8 O5 0.981752 1_555
H9 O0 0.981752 1_555
H10 O1 0.981752 1_555
H11 O2 0.981752 1_555
H12 O6 0.984145 1_555
H13 O7 0.984145 1_555
H14 O8 0.984145 1_555
H15 O9 0.984145 1_555
H16 O10 0.984145 1_555
H17 O11 0.984145 1_555
H18 O12 0.984145 1_555
H19 O13 0.984145 1_555
H20 O14 0.984145 1_555
H21 O15 0.984145 1_555
H22 O16 0.984145 1_555
H23 O17 0.984145 1_555
H24 O6 0.985636 1_556
H25 O7 0.985636 1_556
H26 O8 0.985636 1_556
H27 O9 0.985636 1_555
H28 O10 0.985636 1_555
H29 O11 0.985636 1_555
H30 O12 0.985636 1_554
H31 O13 0.985636 1_554
H32 O14 0.985636 1_554
H33 O15 0.985636 1_555
H34 O16 0.985636 1_555
H35 O17 0.985636 1_555
C0 F6 1.350123 1_555
C0 F15 1.350123 1_555
C0 F0 1.352826 1_455
C1 F7 1.350130 1_555
C1 F16 1.350130 1_555
C1 F1 1.352826 1_565
C2 F8 1.350123 1_555
C2 F17 1.350123 1_555
C2 F2 1.352826 1_555
C3 F9 1.350123 1_555
C3 F12 1.350123 1_555
C3 F3 1.352826 1_655
C4 F10 1.350130 1_555
C4 F13 1.350130 1_555
C4 F4 1.352826 1_545
C5 F11 1.350123 1_555
C5 F14 1.350123 1_555
C5 F5 1.352826 1_555
O18 S0 1.465900 1_555
O19 S1 1.465900 1_555
O20 S2 1.465912 1_555
O21 S3 1.465900 1_555
O22 S4 1.465900 1_555
O23 S5 1.465912 1_555
O24 S0 1.466206 1_555
O25 S1 1.466206 1_555
O26 S2 1.466206 1_555
O27 S3 1.466206 1_555
O28 S4 1.466206 1_555
O29 S5 1.466206 1_555
O30 S3 1.466206 1_555
O31 S4 1.466206 1_555
O32 S5 1.466206 1_555
O33 S0 1.466206 1_555
O34 S1 1.466206 1_555
O35 S2 1.466206 1_555
