# generated using pymatgen
data_Li2SnBO4
_symmetry_space_group_name_H-M   'P 1'
_cell_length_a   5.12016800
_cell_length_b   7.48739200
_cell_length_c   10.27098194
_cell_angle_alpha   81.65585018
_cell_angle_beta   90.00000000
_cell_angle_gamma   90.00000000
_symmetry_Int_Tables_number   1
_chemical_formula_structural   Li2SnBO4
_chemical_formula_sum   'Li8 Sn4 B4 O16'
_cell_volume   389.58740961
_cell_formula_units_Z   4
loop_
 _symmetry_equiv_pos_site_id
 _symmetry_equiv_pos_as_xyz
  1  'x, y, z'
loop_
 _atom_site_type_symbol
 _atom_site_label
 _atom_site_symmetry_multiplicity
 _atom_site_fract_x
 _atom_site_fract_y
 _atom_site_fract_z
 _atom_site_occupancy
  Li  Li0  1  0.65566700  0.90706700  0.79577300  1
  Li  Li1  1  0.84433300  0.90706700  0.29577300  1
  Li  Li2  1  0.82728100  0.80559100  0.57617800  1
  Li  Li3  1  0.67271900  0.80559100  0.07617800  1
  Li  Li4  1  0.32728100  0.19440900  0.92382200  1
  Li  Li5  1  0.17271900  0.19440900  0.42382200  1
  Li  Li6  1  0.15566700  0.09293300  0.70422700  1
  Li  Li7  1  0.34433300  0.09293300  0.20422700  1
  Sn  Sn0  1  0.87961300  0.50350700  0.87723100  1
  Sn  Sn1  1  0.37961300  0.49649300  0.62276900  1
  Sn  Sn2  1  0.62038700  0.50350700  0.37723100  1
  Sn  Sn3  1  0.12038700  0.49649300  0.12276900  1
  B  B0  1  0.18604000  0.83638400  0.93770100  1
  B  B1  1  0.31396000  0.83638400  0.43770100  1
  B  B2  1  0.68604000  0.16361600  0.56229900  1
  B  B3  1  0.81396000  0.16361600  0.06229900  1
  O  O0  1  0.31758600  0.96574300  0.85859600  1
  O  O1  1  0.18241400  0.96574300  0.35859600  1
  O  O2  1  0.91942400  0.80080300  0.92103600  1
  O  O3  1  0.58057600  0.80080300  0.42103600  1
  O  O4  1  0.17560700  0.72734900  0.54060500  1
  O  O5  1  0.65417700  0.61881100  0.72792000  1
  O  O6  1  0.32439300  0.72734900  0.04060500  1
  O  O7  1  0.84582300  0.61881100  0.22792000  1
  O  O8  1  0.15417700  0.38118900  0.77208000  1
  O  O9  1  0.67560700  0.27265100  0.95939500  1
  O  O10  1  0.34582300  0.38118900  0.27208000  1
  O  O11  1  0.82439300  0.27265100  0.45939500  1
  O  O12  1  0.41942400  0.19919700  0.57896400  1
  O  O13  1  0.08057600  0.19919700  0.07896400  1
  O  O14  1  0.81758600  0.03425700  0.64140400  1
  O  O15  1  0.68241400  0.03425700  0.14140400  1
loop_
_geom_bond_atom_site_label_1
_geom_bond_atom_site_label_2
_geom_bond_distance
_geom_bond_site_symmetry_2
Li0 O14 1.915694 1_565
Li0 O0 1.920445 1_555
Li0 O2 1.953205 1_555
Li0 O5 2.362310 1_555
Li1 O15 1.915694 1_565
Li1 O1 1.920445 1_655
Li1 O3 1.953205 1_555
Li1 O7 2.362310 1_555
Li2 O14 1.927565 1_565
Li2 O4 1.928637 1_655
Li2 O3 2.037789 1_555
Li2 O5 2.130210 1_555
Li3 O15 1.927565 1_565
Li3 O6 1.928637 1_555
Li3 O2 2.037789 1_554
Li3 O7 2.130210 1_555
Li4 O0 1.927565 1_545
Li4 O9 1.928637 1_555
Li4 O13 2.037789 1_556
Li4 O8 2.130210 1_555
Li5 O1 1.927565 1_545
Li5 O11 1.928637 1_455
Li5 O12 2.037789 1_555
Li5 O10 2.130210 1_555
Li6 O0 1.915694 1_545
Li6 O14 1.920445 1_455
Li6 O12 1.953205 1_555
Li6 O8 2.362310 1_555
Li7 O1 1.915694 1_545
Li7 O15 1.920445 1_555
Li7 O13 1.953205 1_555
Li7 O10 2.362310 1_555
B0 O0 1.350370 1_555
B0 O2 1.406078 1_455
B0 O6 1.426521 1_556
B1 O1 1.350370 1_555
B1 O3 1.406078 1_555
B1 O4 1.426521 1_555
B2 O14 1.350370 1_555
B2 O12 1.406078 1_555
B2 O11 1.426521 1_555
B3 O15 1.350370 1_555
B3 O13 1.406078 1_655
B3 O9 1.426521 1_554
O2 Sn0 2.342990 1_555
O3 Sn2 2.342990 1_555
O4 Sn1 2.089887 1_555
O5 Sn0 2.011279 1_555
O5 Sn1 2.066051 1_555
O6 Sn3 2.089887 1_555
O7 Sn2 2.011279 1_555
O7 Sn3 2.066051 1_655
O8 Sn1 2.011279 1_555
O8 Sn0 2.066051 1_455
O9 Sn0 2.089887 1_555
O10 Sn3 2.011279 1_555
O10 Sn2 2.066051 1_555
O11 Sn2 2.089887 1_555
O12 Sn1 2.342990 1_555
O13 Sn3 2.342990 1_555
