# generated using pymatgen
data_Li6Fe7O15
_symmetry_space_group_name_H-M   'P 1'
_cell_length_a   7.93132917
_cell_length_b   7.93132917
_cell_length_c   8.98201402
_cell_angle_alpha   78.46529682
_cell_angle_beta   78.46529682
_cell_angle_gamma   28.81468777
_symmetry_Int_Tables_number   1
_chemical_formula_structural   Li6Fe7O15
_chemical_formula_sum   'Li6 Fe7 O15'
_cell_volume   266.46157259
_cell_formula_units_Z   1
loop_
 _symmetry_equiv_pos_site_id
 _symmetry_equiv_pos_as_xyz
  1  'x, y, z'
loop_
 _atom_site_type_symbol
 _atom_site_label
 _atom_site_symmetry_multiplicity
 _atom_site_fract_x
 _atom_site_fract_y
 _atom_site_fract_z
 _atom_site_occupancy
  Li  Li0  1  0.39363600  0.39363600  0.86817300  1
  Li  Li1  1  0.00096100  0.00096100  0.00044600  1
  Li  Li2  1  0.99883200  0.99883200  0.66047700  1
  Li  Li3  1  0.19578600  0.19578600  0.60139300  1
  Li  Li4  1  0.79606400  0.79606400  0.40279200  1
  Li  Li5  1  0.19306100  0.19306100  0.26663900  1
  Fe  Fe0  1  0.79077600  0.79077600  0.74128100  1
  Fe  Fe1  1  0.59354200  0.59354200  0.80219300  1
  Fe  Fe2  1  0.40359000  0.40359000  0.52584700  1
  Fe  Fe3  1  0.59943500  0.59943500  0.46039500  1
  Fe  Fe4  1  0.40084700  0.40084700  0.20488500  1
  Fe  Fe5  1  0.59628500  0.59628500  0.13558100  1
  Fe  Fe6  1  0.79213100  0.79213100  0.06292500  1
  O  O0  1  0.87818800  0.87818800  0.87106100  1
  O  O1  1  0.69376500  0.69376500  0.93550000  1
  O  O2  1  0.08630400  0.08630400  0.79838300  1
  O  O3  1  0.30450000  0.30450000  0.71294500  1
  O  O4  1  0.88901200  0.88901200  0.55319800  1
  O  O5  1  0.69222300  0.69222300  0.61780900  1
  O  O6  1  0.50537200  0.50537200  0.64731200  1
  O  O7  1  0.31594500  0.31594500  0.39406800  1
  O  O8  1  0.10687300  0.10687300  0.46694500  1
  O  O9  1  0.49743800  0.49743800  0.32725300  1
  O  O10  1  0.69035700  0.69035700  0.25892000  1
  O  O11  1  0.88873400  0.88873400  0.18345500  1
  O  O12  1  0.30577900  0.30577900  0.08498200  1
  O  O13  1  0.09678500  0.09678500  0.13525900  1
  O  O14  1  0.50330300  0.50330300  0.00812600  1
loop_
_geom_bond_atom_site_label_1
_geom_bond_atom_site_label_2
_geom_bond_distance
_geom_bond_site_symmetry_2
Li0 O0 1.987177 1_455
Li0 O0 1.987177 1_545
Li0 O12 2.128127 1_556
Li0 O3 2.146580 1_555
Li0 O14 2.300792 1_556
Li0 O6 2.340133 1_555
Li1 O14 1.975219 1_455
Li1 O14 1.975219 1_545
Li1 O2 2.007635 1_554
Li1 O13 2.090403 1_555
Li1 O11 2.122434 1_445
Li1 O0 2.411156 1_444
Li2 O6 1.978278 1_655
Li2 O6 1.978278 1_565
Li2 O2 2.006922 1_665
Li2 O4 2.108701 1_555
Li2 O8 2.141406 1_665
Li2 O0 2.359168 1_555
Li3 O5 1.978842 1_545
Li3 O5 1.978842 1_455
Li3 O8 2.001388 1_555
Li3 O3 2.117714 1_555
Li3 O2 2.175108 1_555
Li3 O7 2.335885 1_555
Li4 O7 1.995987 1_655
Li4 O7 1.995987 1_565
Li4 O4 2.158918 1_555
Li4 O11 2.179488 1_555
Li4 O5 2.236717 1_555
Li4 O10 2.274662 1_555
Li5 O10 1.975382 1_545
Li5 O10 1.975382 1_455
Li5 O8 2.001668 1_555
Li5 O13 2.073932 1_555
Li5 O12 2.120044 1_555
Li5 O7 2.401397 1_555
Fe0 O0 1.951621 1_555
Fe0 O3 1.995367 1_655
Fe0 O3 1.995367 1_565
Fe0 O4 2.019671 1_555
Fe0 O1 2.047212 1_555
Fe0 O5 2.053279 1_555
Fe1 O2 1.977250 1_655
Fe1 O2 1.977250 1_565
Fe1 O5 2.001158 1_555
Fe1 O14 2.069935 1_556
Fe1 O6 2.132700 1_555
Fe1 O1 2.136813 1_555
Fe2 O7 1.967826 1_555
Fe2 O4 1.995547 1_455
Fe2 O4 1.995547 1_545
Fe2 O3 2.021248 1_555
Fe2 O9 2.049106 1_555
Fe2 O6 2.083283 1_555
Fe3 O6 1.976195 1_555
Fe3 O8 1.978309 1_565
Fe3 O8 1.978309 1_655
Fe3 O10 2.045089 1_555
Fe3 O9 2.158615 1_555
Fe3 O5 2.205364 1_555
Fe4 O7 1.916694 1_555
Fe4 O12 1.985636 1_555
Fe4 O11 1.995216 1_455
Fe4 O11 1.995216 1_545
Fe4 O9 2.020842 1_555
Fe4 O14 2.110089 1_555
Fe5 O13 1.973441 1_655
Fe5 O13 1.973441 1_565
Fe5 O10 1.994323 1_555
Fe5 O14 2.006645 1_555
Fe5 O9 2.047117 1_555
Fe5 O1 2.088380 1_554
Fe6 O0 1.943488 1_554
Fe6 O12 1.998695 1_655
Fe6 O12 1.998695 1_565
Fe6 O11 2.009552 1_555
Fe6 O1 2.075601 1_554
Fe6 O10 2.099397 1_555
