# generated using pymatgen
data_Fe3CoCu2(PO4)6
_symmetry_space_group_name_H-M   'P 1'
_cell_length_a   8.47841143
_cell_length_b   8.52240906
_cell_length_c   8.52240857
_cell_angle_alpha   59.99999495
_cell_angle_beta   59.82818251
_cell_angle_gamma   59.82818303
_symmetry_Int_Tables_number   1
_chemical_formula_structural   Fe3CoCu2(PO4)6
_chemical_formula_sum   'Fe3 Co1 Cu2 P6 O24'
_cell_volume   434.30160499
_cell_formula_units_Z   1
loop_
 _symmetry_equiv_pos_site_id
 _symmetry_equiv_pos_as_xyz
  1  'x, y, z'
loop_
 _atom_site_type_symbol
 _atom_site_label
 _atom_site_symmetry_multiplicity
 _atom_site_fract_x
 _atom_site_fract_y
 _atom_site_fract_z
 _atom_site_occupancy
  Fe  Fe0  1  0.06619200  0.64460300  0.64460300  1
  Fe  Fe1  1  0.43047400  0.85650800  0.85650800  1
  Fe  Fe2  1  0.93146500  0.35617900  0.35617900  1
  Co  Co0  1  0.57751500  0.14082800  0.14082800  1
  Cu  Cu0  1  0.99833000  0.00055700  0.00055700  1
  Cu  Cu1  1  0.49940600  0.50019800  0.50019800  1
  P  P0  1  0.25431900  0.24919900  0.53691200  1
  P  P1  1  0.25431900  0.95957100  0.24919900  1
  P  P2  1  0.25431900  0.53691200  0.95957100  1
  P  P3  1  0.74554100  0.45477800  0.04564000  1
  P  P4  1  0.74554100  0.04564000  0.75404200  1
  P  P5  1  0.74554100  0.75404200  0.45477800  1
  O  O0  1  0.06773700  0.11507800  0.31182900  1
  O  O1  1  0.06773700  0.50535700  0.11507800  1
  O  O2  1  0.06773700  0.31182900  0.50535700  1
  O  O3  1  0.23316200  0.08515900  0.73605600  1
  O  O4  1  0.43924900  0.19196600  0.37525900  1
  O  O5  1  0.27304600  0.41308600  0.55376500  1
  O  O6  1  0.23316200  0.94562400  0.08515900  1
  O  O7  1  0.27304600  0.76010400  0.41308600  1
  O  O8  1  0.56344900  0.61459400  0.00925500  1
  O  O9  1  0.27304600  0.55376500  0.76010400  1
  O  O10  1  0.76315300  0.25643900  0.05808600  1
  O  O11  1  0.56344900  0.00925500  0.81270300  1
  O  O12  1  0.43924900  0.99352700  0.19196600  1
  O  O13  1  0.23316200  0.73605600  0.94562400  1
  O  O14  1  0.72804200  0.43842500  0.24366000  1
  O  O15  1  0.43924900  0.37525900  0.99352700  1
  O  O16  1  0.72804200  0.24366000  0.58987400  1
  O  O17  1  0.76315300  0.05808600  0.92232300  1
  O  O18  1  0.72804200  0.58987400  0.43842500  1
  O  O19  1  0.56344900  0.81270300  0.61459400  1
  O  O20  1  0.76315300  0.92232300  0.25643900  1
  O  O21  1  0.93117600  0.69455000  0.48752900  1
  O  O22  1  0.93117600  0.48752900  0.88674600  1
  O  O23  1  0.93117600  0.88674600  0.69455000  1
loop_
_geom_bond_atom_site_label_1
_geom_bond_atom_site_label_2
_geom_bond_distance
_geom_bond_site_symmetry_2
Fe0 O22 1.940173 1_455
Fe0 O23 1.940173 1_455
Fe0 O21 1.940173 1_455
Fe0 O7 2.062171 1_555
Fe0 O5 2.062171 1_555
Fe0 O9 2.062171 1_555
Fe1 O19 1.916027 1_555
Fe1 O8 1.916039 1_556
Fe1 O11 1.916050 1_565
Fe1 O13 2.024502 1_555
Fe1 O3 2.024509 1_565
Fe1 O6 2.024520 1_556
Fe2 O2 1.910786 1_655
Fe2 O1 1.910789 1_655
Fe2 O0 1.910793 1_655
Fe2 O18 2.039748 1_555
Fe2 O16 2.039751 1_555
Fe2 O14 2.039754 1_555
Co0 O12 1.886452 1_545
Co0 O15 1.886459 1_554
Co0 O4 1.886466 1_555
Co0 O17 1.921872 1_554
Co0 O20 1.921879 1_545
Co0 O10 1.921885 1_555
Cu0 O20 2.165050 1_545
Cu0 O10 2.165051 1_555
Cu0 O17 2.165051 1_554
Cu0 O3 2.207173 1_654
Cu0 O13 2.207173 1_644
Cu0 O6 2.207173 1_645
Cu1 O5 2.157634 1_555
Cu1 O7 2.157638 1_555
Cu1 O9 2.157640 1_555
Cu1 O14 2.163307 1_555
Cu1 O16 2.163310 1_555
Cu1 O18 2.163313 1_555
O0 P1 1.514934 1_545
O1 P2 1.514934 1_554
O2 P0 1.514934 1_555
O3 P0 1.562188 1_555
O4 P0 1.525190 1_555
O5 P0 1.563038 1_555
O6 P1 1.562188 1_555
O7 P1 1.563038 1_555
O8 P3 1.509942 1_555
O9 P2 1.563038 1_555
O10 P3 1.572789 1_555
O11 P4 1.509942 1_555
O12 P1 1.525190 1_555
O13 P2 1.562188 1_555
O14 P3 1.556715 1_555
O15 P2 1.525190 1_555
O16 P4 1.556715 1_555
O17 P4 1.572789 1_555
O18 P5 1.556715 1_555
O19 P5 1.509942 1_555
O20 P5 1.572789 1_555
O21 P5 1.519880 1_555
O22 P3 1.519880 1_556
O23 P4 1.519880 1_565
