# generated using pymatgen
data_Li4Ti3V2(Fe2O9)2
_symmetry_space_group_name_H-M   'P 1'
_cell_length_a   9.17777917
_cell_length_b   25.50941843
_cell_length_c   2.95529800
_cell_angle_alpha   90.00005083
_cell_angle_beta   89.99996813
_cell_angle_gamma   89.97837385
_symmetry_Int_Tables_number   1
_chemical_formula_structural   Li4Ti3V2(Fe2O9)2
_chemical_formula_sum   'Li8 Ti6 V4 Fe8 O36'
_cell_volume   691.89375451
_cell_formula_units_Z   2
loop_
 _symmetry_equiv_pos_site_id
 _symmetry_equiv_pos_as_xyz
  1  'x, y, z'
loop_
 _atom_site_type_symbol
 _atom_site_label
 _atom_site_symmetry_multiplicity
 _atom_site_fract_x
 _atom_site_fract_y
 _atom_site_fract_z
 _atom_site_occupancy
  Li  Li0  1  0.19970600  0.98937400  0.99999900  1
  Li  Li1  1  0.19793600  0.18309800  0.00000000  1
  Li  Li2  1  0.30294000  0.68372300  0.99999900  1
  Li  Li3  1  0.29984200  0.48894500  0.00000000  1
  Li  Li4  1  0.69439500  0.50935100  0.99999900  1
  Li  Li5  1  0.68813300  0.31129800  0.00000000  1
  Li  Li6  1  0.81002800  0.81245900  0.99999900  1
  Li  Li7  1  0.80485100  0.00969900  0.00000100  1
  Ti  Ti0  1  0.00053700  0.09915600  0.99999900  1
  Ti  Ti1  1  0.49886200  0.59917800  0.00000000  1
  Ti  Ti2  1  0.49411100  0.40032200  0.00000100  1
  Ti  Ti3  1  0.65347800  0.69031500  0.50000200  1
  Ti  Ti4  1  0.84676600  0.19047100  0.50000000  1
  Ti  Ti5  1  0.00675900  0.90027300  0.00000100  1
  V  V0  1  0.99792100  0.49992200  0.99999900  1
  V  V1  1  0.15432800  0.80935600  0.50000200  1
  V  V2  1  0.34556200  0.30960000  0.50000100  1
  V  V3  1  0.50188200  0.99981700  0.00000000  1
  Fe  Fe0  1  0.00329300  0.30599000  0.00000100  1
  Fe  Fe1  1  0.14634700  0.58724800  0.50000000  1
  Fe  Fe2  1  0.35355000  0.08721000  0.49999800  1
  Fe  Fe3  1  0.49669800  0.80585700  0.00000100  1
  Fe  Fe4  1  0.50359100  0.19624700  0.99999900  1
  Fe  Fe5  1  0.65330000  0.91308700  0.50000100  1
  Fe  Fe6  1  0.84726400  0.41305600  0.49999900  1
  Fe  Fe7  1  0.99664100  0.69605200  0.99999900  1
  O  O0  1  0.99267800  0.42572100  0.99999800  1
  O  O1  1  0.00269800  0.57453200  0.00000200  1
  O  O2  1  0.06213700  0.94357500  0.50000000  1
  O  O3  1  0.04556500  0.15525100  0.49999900  1
  O  O4  1  0.12339000  0.66607600  0.49999900  1
  O  O5  1  0.09539500  0.76329100  0.00000000  1
  O  O6  1  0.14667600  0.50393600  0.49999900  1
  O  O7  1  0.14675900  0.29129700  0.50000100  1
  O  O8  1  0.18757200  0.85931100  0.99999800  1
  O  O9  1  0.20257200  0.08398500  0.99999900  1
  O  O10  1  0.29698100  0.58400100  0.00000100  1
  O  O11  1  0.31267800  0.35949200  0.00000000  1
  O  O12  1  0.35334800  0.79109000  0.50000000  1
  O  O13  1  0.35314100  0.00398000  0.50000200  1
  O  O14  1  0.40497100  0.26348000  0.00000200  1
  O  O15  1  0.37715900  0.16604200  0.49999700  1
  O  O16  1  0.45425300  0.65536400  0.50000200  1
  O  O17  1  0.43823800  0.44357800  0.50000000  1
  O  O18  1  0.49712100  0.07445700  0.00000000  1
  O  O19  1  0.50767700  0.92572200  0.00000200  1
  O  O20  1  0.55842600  0.55629600  0.50000000  1
  O  O21  1  0.54126300  0.34310700  0.50000000  1
  O  O22  1  0.62274500  0.83454300  0.50000100  1
  O  O23  1  0.59475900  0.73827100  0.00000300  1
  O  O24  1  0.65071600  0.99618600  0.50000000  1
  O  O25  1  0.64436400  0.21154400  0.49999900  1
  O  O26  1  0.68557900  0.64178900  0.99999900  1
  O  O27  1  0.69805900  0.41591000  0.00000000  1
  O  O28  1  0.80224600  0.91561000  0.00000000  1
  O  O29  1  0.81416700  0.14193400  0.99999800  1
  O  O30  1  0.85588200  0.71109300  0.49999900  1
  O  O31  1  0.84930800  0.49620300  0.50000100  1
  O  O32  1  0.90553900  0.23830400  0.99999800  1
  O  O33  1  0.87727300  0.33453100  0.50000000  1
  O  O34  1  0.95912600  0.84309500  0.50000100  1
  O  O35  1  0.94081800  0.05629700  0.49999900  1
loop_
_geom_bond_atom_site_label_1
_geom_bond_atom_site_label_2
_geom_bond_distance
_geom_bond_site_symmetry_2
Li0 O13 2.075005 1_565
Li0 O13 2.075018 1_566
Li0 O2 2.267949 1_555
Li0 O2 2.267953 1_556
Li0 O9 2.413625 1_565
Li1 O3 2.155087 1_555
Li1 O3 2.155091 1_554
Li1 O15 2.253393 1_555
Li1 O15 2.253403 1_554
Li1 O9 2.528657 1_554
Li2 O16 2.152796 1_555
Li2 O16 2.152811 1_556
Li2 O4 2.258789 1_556
Li2 O4 2.258790 1_555
Li2 O10 2.544459 1_556
Li3 O6 2.074928 1_555
Li3 O6 2.074934 1_554
Li3 O17 2.266047 1_554
Li3 O17 2.266049 1_555
Li3 O10 2.424956 1_555
Li4 O31 2.077727 1_555
Li4 O31 2.077737 1_556
Li4 O20 2.274567 1_555
Li4 O20 2.274568 1_556
Li4 O27 2.383850 1_556
Li5 O21 2.158235 1_555
Li5 O21 2.158237 1_554
Li5 O33 2.355582 1_554
Li5 O33 2.355582 1_555
Li6 O34 2.160434 1_555
Li6 O34 2.160442 1_556
Li6 O22 2.335484 1_555
Li6 O22 2.335489 1_556
Li7 O24 2.074553 1_545
Li7 O24 2.074558 1_544
Li7 O35 2.270401 1_555
Li7 O35 2.270409 1_554
Li7 O28 2.400284 1_545
Fe0 O32 1.946106 1_454
Fe0 O33 2.012601 1_455
Fe0 O33 2.012607 1_454
Fe0 O7 2.014262 1_554
Fe0 O7 2.014263 1_555
Fe1 O1 2.006763 1_555
Fe1 O1 2.006771 1_556
Fe1 O4 2.021785 1_555
Fe1 O10 2.025210 1_555
Fe1 O10 2.025216 1_556
Fe1 O6 2.125242 1_555
Fe2 O18 2.006283 1_555
Fe2 O18 2.006293 1_556
Fe2 O15 2.022679 1_555
Fe2 O9 2.027387 1_554
Fe2 O9 2.027391 1_555
Fe2 O13 2.123154 1_555
Fe3 O23 1.944543 1_555
Fe3 O12 2.014102 1_555
Fe3 O12 2.014107 1_554
Fe3 O22 2.014404 1_555
Fe3 O22 2.014404 1_554
Fe4 O14 1.938953 1_556
Fe4 O25 2.001329 1_555
Fe4 O25 2.001329 1_556
Fe4 O15 2.030822 1_556
Fe4 O15 2.030831 1_555
Fe5 O28 2.014031 1_556
Fe5 O28 2.014034 1_555
Fe5 O19 2.018222 1_555
Fe5 O19 2.018225 1_556
Fe5 O22 2.023246 1_555
Fe5 O24 2.119931 1_555
Fe6 O27 2.015897 1_555
Fe6 O27 2.015900 1_556
Fe6 O0 2.017236 1_555
Fe6 O0 2.017240 1_554
Fe6 O33 2.021869 1_555
Fe6 O31 2.121122 1_555
Fe7 O5 1.940267 1_656
Fe7 O30 1.999794 1_556
Fe7 O30 1.999795 1_555
Fe7 O4 2.029951 1_655
Fe7 O4 2.029952 1_656
O0 V0 1.893454 1_555
O1 V0 1.903779 1_454
O2 Ti5 1.913723 1_555
O2 Ti5 1.913729 1_556
O3 Ti4 2.033441 1_455
O3 Ti0 2.098164 1_554
O3 Ti0 2.098165 1_555
O5 V1 1.964000 1_554
O5 V1 1.964008 1_555
O6 V0 2.014427 1_455
O6 V0 2.014428 1_454
O7 V2 1.883532 1_555
O8 Ti5 1.960703 1_556
O8 V1 1.975017 1_555
O8 V1 1.975036 1_556
O9 Ti0 1.894046 1_555
O10 Ti1 1.892979 1_555
O11 Ti2 1.964400 1_555
O11 V2 1.973331 1_554
O11 V2 1.973337 1_555
O12 V1 1.884887 1_555
O13 V3 2.014480 1_546
O13 V3 2.014488 1_545
O14 V2 1.965802 1_555
O14 V2 1.965809 1_554
O16 Ti3 2.034539 1_555
O16 Ti1 2.098780 1_556
O16 Ti1 2.098786 1_555
O17 Ti2 1.914035 1_555
O17 Ti2 1.914042 1_556
O18 V3 1.904508 1_545
O19 V3 1.890848 1_555
O20 Ti1 1.917926 1_556
O20 Ti1 1.917928 1_555
O21 V2 1.989403 1_555
O21 Ti2 2.121424 1_555
O21 Ti2 2.121426 1_556
O23 Ti3 1.992462 1_555
O23 Ti3 1.992464 1_554
O24 V3 2.014396 1_556
O24 V3 2.014397 1_555
O25 Ti4 1.933623 1_555
O26 Ti3 1.949941 1_555
O26 Ti3 1.949952 1_556
O26 Ti1 2.029661 1_556
O27 Ti2 1.913708 1_555
O28 Ti5 1.917172 1_655
O29 Ti4 1.950959 1_555
O29 Ti4 1.950967 1_556
O29 Ti0 2.028567 1_655
O30 Ti3 1.931950 1_555
O31 V0 2.013170 1_555
O31 V0 2.013178 1_554
O32 Ti4 1.990917 1_555
O32 Ti4 1.990927 1_556
O34 V1 1.987240 1_655
O34 Ti5 2.121906 1_656
O34 Ti5 2.121908 1_655
O35 Ti0 1.918234 1_655
O35 Ti0 1.918235 1_654
