# generated using pymatgen
data_Li2Ni2SbO6
_symmetry_space_group_name_H-M   'P 1'
_cell_length_a   5.18796521
_cell_length_b   5.18796521
_cell_length_c   10.05628500
_cell_angle_alpha   90.00000000
_cell_angle_beta   90.00000000
_cell_angle_gamma   118.85570721
_symmetry_Int_Tables_number   1
_chemical_formula_structural   Li2Ni2SbO6
_chemical_formula_sum   'Li4 Ni4 Sb2 O12'
_cell_volume   237.05842947
_cell_formula_units_Z   2
loop_
 _symmetry_equiv_pos_site_id
 _symmetry_equiv_pos_as_xyz
  1  'x, y, z'
loop_
 _atom_site_type_symbol
 _atom_site_label
 _atom_site_symmetry_multiplicity
 _atom_site_fract_x
 _atom_site_fract_y
 _atom_site_fract_z
 _atom_site_occupancy
  Li  Li0  1  0.64462700  0.14462700  0.75000000  1
  Li  Li1  1  0.85537300  0.35537300  0.25000000  1
  Li  Li2  1  0.14462700  0.64462700  0.75000000  1
  Li  Li3  1  0.35537300  0.85537300  0.25000000  1
  Ni  Ni0  1  0.83500800  0.16499200  0.50000000  1
  Ni  Ni1  1  0.66499200  0.33500800  0.00000000  1
  Ni  Ni2  1  0.33500800  0.66499200  0.00000000  1
  Ni  Ni3  1  0.16499200  0.83500800  0.50000000  1
  Sb  Sb0  1  0.00000000  0.00000000  0.00000000  1
  Sb  Sb1  1  0.50000000  0.50000000  0.50000000  1
  O  O0  1  0.68274300  0.02243800  0.11073000  1
  O  O1  1  0.31725700  0.97756200  0.88927000  1
  O  O2  1  0.52243800  0.18274300  0.38927000  1
  O  O3  1  0.81725700  0.47756200  0.61073000  1
  O  O4  1  0.17032300  0.17032300  0.59960100  1
  O  O5  1  0.32967700  0.32967700  0.09960100  1
  O  O6  1  0.67032300  0.67032300  0.90039900  1
  O  O7  1  0.97756200  0.31725700  0.88927000  1
  O  O8  1  0.82967700  0.82967700  0.40039900  1
  O  O9  1  0.18274300  0.52243800  0.38927000  1
  O  O10  1  0.47756200  0.81725700  0.61073000  1
  O  O11  1  0.02243800  0.68274300  0.11073000  1
loop_
_geom_bond_atom_site_label_1
_geom_bond_atom_site_label_2
_geom_bond_distance
_geom_bond_site_symmetry_2
Li0 O1 2.043626 1_545
Li0 O10 2.043626 1_545
Li0 O3 2.062500 1_555
Li0 O7 2.062500 1_555
Li1 O9 2.043626 1_655
Li1 O11 2.043626 1_655
Li1 O0 2.062500 1_555
Li1 O2 2.062500 1_555
Li2 O7 2.043626 1_455
Li2 O3 2.043626 1_455
Li2 O10 2.062500 1_555
Li2 O1 2.062500 1_555
Li3 O2 2.043626 1_565
Li3 O0 2.043626 1_565
Li3 O11 2.062500 1_555
Li3 O9 2.062500 1_555
Ni0 O8 1.995940 1_545
Ni0 O4 1.995940 1_655
Ni0 O3 2.005535 1_555
Ni0 O2 2.005535 1_555
Ni0 O9 2.168943 1_655
Ni0 O10 2.168943 1_545
Ni1 O5 1.995940 1_555
Ni1 O6 1.995940 1_554
Ni1 O0 2.005535 1_555
Ni1 O7 2.005535 1_554
Ni1 O1 2.168943 1_544
Ni1 O11 2.168943 1_655
Ni2 O5 1.995940 1_555
Ni2 O6 1.995940 1_554
Ni2 O1 2.005535 1_554
Ni2 O11 2.005535 1_555
Ni2 O0 2.168943 1_565
Ni2 O7 2.168943 1_454
Ni3 O8 1.995940 1_455
Ni3 O4 1.995940 1_565
Ni3 O10 2.005535 1_555
Ni3 O9 2.005535 1_555
Ni3 O2 2.168943 1_565
Ni3 O3 2.168943 1_455
O0 Sb0 2.036537 1_655
O1 Sb0 2.036537 1_566
O2 Sb1 2.036537 1_555
O3 Sb1 2.036537 1_555
O4 Sb1 2.007563 1_555
O5 Sb0 2.007563 1_555
O6 Sb0 2.007563 1_666
O7 Sb0 2.036537 1_656
O8 Sb1 2.007563 1_555
O9 Sb1 2.036537 1_555
O10 Sb1 2.036537 1_555
O11 Sb0 2.036537 1_565
