# generated using pymatgen
data_Li5Mn6(BO3)6
_symmetry_space_group_name_H-M   'P 1'
_cell_length_a   5.29968100
_cell_length_b   7.93205847
_cell_length_c   9.60229628
_cell_angle_alpha   103.77191189
_cell_angle_beta   104.50270578
_cell_angle_gamma   87.40080170
_symmetry_Int_Tables_number   1
_chemical_formula_structural   Li5Mn6(BO3)6
_chemical_formula_sum   'Li5 Mn6 B6 O18'
_cell_volume   379.51465805
_cell_formula_units_Z   1
loop_
 _symmetry_equiv_pos_site_id
 _symmetry_equiv_pos_as_xyz
  1  'x, y, z'
loop_
 _atom_site_type_symbol
 _atom_site_label
 _atom_site_symmetry_multiplicity
 _atom_site_fract_x
 _atom_site_fract_y
 _atom_site_fract_z
 _atom_site_occupancy
  Li  Li0  1  0.47208900  0.23478700  0.08365500  1
  Li  Li1  1  0.87572000  0.08211400  0.57411200  1
  Li  Li2  1  0.19234300  0.43199700  0.24656000  1
  Li  Li3  1  0.80532700  0.57089600  0.75220100  1
  Li  Li4  1  0.52309100  0.76312300  0.91417300  1
  Mn  Mn0  1  0.77095700  0.36394900  0.38673300  1
  Mn  Mn1  1  0.43267600  0.03443300  0.71173400  1
  Mn  Mn2  1  0.89382800  0.29664800  0.94037900  1
  Mn  Mn3  1  0.09997500  0.70672900  0.05929300  1
  Mn  Mn4  1  0.56069900  0.95777900  0.28651100  1
  Mn  Mn5  1  0.22264700  0.63195300  0.60619800  1
  B  B0  1  0.01533300  0.08797700  0.17339900  1
  B  B1  1  0.65146700  0.58113900  0.15861400  1
  B  B2  1  0.31907300  0.25116900  0.49299500  1
  B  B3  1  0.68492600  0.74964100  0.51514200  1
  B  B4  1  0.34694500  0.41828400  0.83994900  1
  B  B5  1  0.98148400  0.91382200  0.82314100  1
  O  O0  1  0.77010800  0.12442500  0.20333300  1
  O  O1  1  0.12636900  0.19500600  0.10920200  1
  O  O2  1  0.84900700  0.05388100  0.77330100  1
  O  O3  1  0.89466300  0.53892600  0.13028500  1
  O  O4  1  0.56104400  0.19954500  0.46259100  1
  O  O5  1  0.53350500  0.47901400  0.22255700  1
  O  O6  1  0.20379200  0.17043000  0.57154100  1
  O  O7  1  0.51963600  0.72316500  0.11177400  1
  O  O8  1  0.19136500  0.39094900  0.43845100  1
  O  O9  1  0.81535700  0.60272300  0.55689500  1
  O  O10  1  0.47823900  0.27548900  0.88739000  1
  O  O11  1  0.79265900  0.84613800  0.44482600  1
  O  O12  1  0.46508800  0.52064700  0.77632900  1
  O  O13  1  0.45519200  0.79509800  0.55821200  1
  O  O14  1  0.10405300  0.46264800  0.86924200  1
  O  O15  1  0.15561700  0.94801400  0.21242000  1
  O  O16  1  0.86419600  0.81317400  0.88863600  1
  O  O17  1  0.22718300  0.87371800  0.79730900  1
loop_
_geom_bond_atom_site_label_1
_geom_bond_atom_site_label_2
_geom_bond_distance
_geom_bond_site_symmetry_2
Li0 O1 1.957326 1_555
Li0 O10 1.994593 1_554
Li0 O0 2.006483 1_555
Li0 O5 2.060897 1_555
Li1 O6 1.911687 1_655
Li1 O11 1.983223 1_545
Li1 O2 2.017657 1_555
Li1 O4 2.057939 1_555
Li2 O5 1.942177 1_555
Li2 O8 1.947247 1_555
Li2 O3 1.975382 1_455
Li2 O1 2.010918 1_555
Li3 O12 1.944816 1_555
Li3 O9 1.964737 1_555
Li3 O14 1.987888 1_655
Li3 O16 2.039070 1_555
Li4 O16 1.954267 1_555
Li4 O17 1.987622 1_555
Li4 O7 2.001316 1_556
Li4 O12 2.045345 1_555
Mn0 O4 2.111504 1_555
Mn0 O5 2.118763 1_555
Mn0 O9 2.164883 1_555
Mn0 O8 2.166810 1_655
Mn0 O0 2.261600 1_555
Mn1 O6 2.049908 1_555
Mn1 O13 2.127559 1_545
Mn1 O17 2.135234 1_545
Mn1 O2 2.139096 1_555
Mn1 O10 2.204916 1_555
Mn2 O1 2.080449 1_656
Mn2 O14 2.093819 1_655
Mn2 O10 2.137663 1_555
Mn2 O2 2.172125 1_555
Mn2 O3 2.312294 1_556
Mn3 O3 2.086889 1_455
Mn3 O15 2.099068 1_555
Mn3 O16 2.120638 1_454
Mn3 O7 2.156641 1_555
Mn3 O14 2.326571 1_554
Mn4 O11 2.052460 1_555
Mn4 O15 2.084419 1_555
Mn4 O7 2.166342 1_555
Mn4 O0 2.167147 1_565
Mn4 O4 2.234124 1_565
Mn5 O13 2.029471 1_555
Mn5 O9 2.101988 1_455
Mn5 O12 2.152137 1_555
Mn5 O8 2.169192 1_555
Mn5 O17 2.313503 1_555
B0 O15 1.381786 1_545
B0 O1 1.386784 1_555
B0 O0 1.403087 1_455
B1 O5 1.378047 1_555
B1 O3 1.392970 1_555
B1 O7 1.404289 1_555
B2 O6 1.359600 1_555
B2 O4 1.407248 1_555
B2 O8 1.411586 1_555
B3 O11 1.358866 1_555
B3 O13 1.387363 1_555
B3 O9 1.416761 1_555
B4 O12 1.377798 1_555
B4 O14 1.397533 1_555
B4 O10 1.410680 1_555
B5 O16 1.378077 1_555
B5 O17 1.394591 1_655
B5 O2 1.403672 1_565
