# generated using pymatgen
data_Sm2SnS5
_symmetry_space_group_name_H-M   'P 1'
_cell_length_a   3.86683387
_cell_length_b   7.83756233
_cell_length_c   11.42145952
_cell_angle_alpha   90.00000000
_cell_angle_beta   90.00000000
_cell_angle_gamma   90.00000000
_symmetry_Int_Tables_number   1
_chemical_formula_structural   Sm2SnS5
_chemical_formula_sum   'Sm4 Sn2 S10'
_cell_volume   346.14505087
_cell_formula_units_Z   2
loop_
 _symmetry_equiv_pos_site_id
 _symmetry_equiv_pos_as_xyz
  1  'x, y, z'
loop_
 _atom_site_type_symbol
 _atom_site_label
 _atom_site_symmetry_multiplicity
 _atom_site_fract_x
 _atom_site_fract_y
 _atom_site_fract_z
 _atom_site_occupancy
  Sm  Sm0  1  0.50000000  0.53494761  0.17299887  1
  Sm  Sm1  1  0.50000000  0.46505239  0.82700113  1
  Sm  Sm2  1  0.50000000  0.03494761  0.32700113  1
  Sm  Sm3  1  0.50000000  0.96505239  0.67299887  1
  Sn  Sn0  1  0.00000000  0.50000000  0.50000000  1
  Sn  Sn1  1  -0.00000000  -0.00000000  0.00000000  1
  S  S0  1  0.50000000  0.67054713  0.40857722  1
  S  S1  1  0.50000000  0.32945287  0.59142278  1
  S  S2  1  0.50000000  0.17054713  0.09142278  1
  S  S3  1  0.50000000  0.82945287  0.90857722  1
  S  S4  1  0.00000000  0.82875443  0.19401759  1
  S  S5  1  0.00000000  0.17124457  0.80598241  1
  S  S6  1  0.00000000  0.50000000  0.00000000  1
  S  S7  1  0.00000000  -0.00000000  0.50000000  1
  S  S8  1  0.00000000  0.67124557  0.69401759  1
  S  S9  1  0.00000000  0.32875443  0.30598241  1
loop_
_geom_bond_atom_site_label_1
_geom_bond_atom_site_label_2
_geom_bond_distance
_geom_bond_site_symmetry_2
S0 Sn0 2.571986 1_555
S0 Sn0 2.571986 1_655
S0 Sm0 2.892934 1_555
S0 Sm2 3.004147 1_565
S1 Sn0 2.571986 1_555
S1 Sn0 2.571986 1_655
S1 Sm1 2.892934 1_555
S1 Sm3 3.004147 1_545
S2 Sn1 2.571986 1_655
S2 Sn1 2.571986 1_555
S2 Sm2 2.892934 1_555
S2 Sm0 3.004147 1_555
S3 Sn1 2.571986 1_666
S3 Sn1 2.571986 1_566
S3 Sm3 2.892934 1_555
S3 Sm1 3.004147 1_555
S4 Sn1 2.590725 1_565
S4 Sm2 2.942223 1_465
S4 Sm2 2.942223 1_565
S4 Sm0 3.016338 1_455
S4 Sm0 3.016338 1_555
S5 Sn1 2.590721 1_556
S5 Sm3 2.942219 1_545
S5 Sm3 2.942219 1_445
S5 Sm1 3.016344 1_555
S5 Sm1 3.016344 1_455
S6 Sm0 2.778004 1_455
S6 Sm1 2.778004 1_554
S6 Sm0 2.778004 1_555
S6 Sm1 2.778004 1_454
S7 Sm2 2.778004 1_455
S7 Sm2 2.778004 1_555
S7 Sm3 2.778004 1_545
S7 Sm3 2.778004 1_445
S8 Sn0 2.590725 1_555
S8 Sm1 2.942223 1_555
S8 Sm1 2.942223 1_455
S8 Sm3 3.016338 1_455
S8 Sm3 3.016338 1_555
S9 Sn0 2.590725 1_555
S9 Sm0 2.942223 1_455
S9 Sm0 2.942223 1_555
S9 Sm2 3.016338 1_455
S9 Sm2 3.016338 1_555
