# generated using pymatgen
data_Li2MnF4
_symmetry_space_group_name_H-M   'P 1'
_cell_length_a   8.72511200
_cell_length_b   7.23947900
_cell_length_c   10.60377162
_cell_angle_alpha   86.74036312
_cell_angle_beta   90.00000000
_cell_angle_gamma   90.00000000
_symmetry_Int_Tables_number   1
_chemical_formula_structural   Li2MnF4
_chemical_formula_sum   'Li16 Mn8 F32'
_cell_volume   668.70640612
_cell_formula_units_Z   8
loop_
 _symmetry_equiv_pos_site_id
 _symmetry_equiv_pos_as_xyz
  1  'x, y, z'
loop_
 _atom_site_type_symbol
 _atom_site_label
 _atom_site_symmetry_multiplicity
 _atom_site_fract_x
 _atom_site_fract_y
 _atom_site_fract_z
 _atom_site_occupancy
  Li  Li0  1  0.55567300  0.82446500  0.64261500  1
  Li  Li1  1  0.06006600  0.74578600  0.86798800  1
  Li  Li2  1  0.94432700  0.82446500  0.14261500  1
  Li  Li3  1  0.43993400  0.74578600  0.36798800  1
  Li  Li4  1  0.41263500  0.71017700  0.88917000  1
  Li  Li5  1  0.88753700  0.72880000  0.62523300  1
  Li  Li6  1  0.08736500  0.71017700  0.38917000  1
  Li  Li7  1  0.61246300  0.72880000  0.12523300  1
  Li  Li8  1  0.38753700  0.27120000  0.87476700  1
  Li  Li9  1  0.91263500  0.28982300  0.61083000  1
  Li  Li10  1  0.11246300  0.27120000  0.37476700  1
  Li  Li11  1  0.58736500  0.28982300  0.11083000  1
  Li  Li12  1  0.56006600  0.25421400  0.63201200  1
  Li  Li13  1  0.05567300  0.17553500  0.85738500  1
  Li  Li14  1  0.93993400  0.25421400  0.13201200  1
  Li  Li15  1  0.44432700  0.17553500  0.35738500  1
  Mn  Mn0  1  0.23200500  0.99572500  0.62450300  1
  Mn  Mn1  1  0.26799500  0.99572500  0.12450300  1
  Mn  Mn2  1  0.24184700  0.53905300  0.63448800  1
  Mn  Mn3  1  0.74184700  0.46094700  0.86551200  1
  Mn  Mn4  1  0.25815300  0.53905300  0.13448800  1
  Mn  Mn5  1  0.75815300  0.46094700  0.36551200  1
  Mn  Mn6  1  0.73200500  0.00427500  0.87549700  1
  Mn  Mn7  1  0.76799500  0.00427500  0.37549700  1
  F  F0  1  0.95176500  0.95902900  0.80867600  1
  F  F1  1  0.54823500  0.95902900  0.30867600  1
  F  F2  1  0.73386700  0.88885600  0.55708500  1
  F  F3  1  0.76613300  0.88885600  0.05708500  1
  F  F4  1  0.24455300  0.75311500  0.76931100  1
  F  F5  1  0.07740600  0.80650900  0.55468700  1
  F  F6  1  0.62320500  0.74671700  0.81386700  1
  F  F7  1  0.25544700  0.75311500  0.26931100  1
  F  F8  1  0.42259400  0.80650900  0.05468700  1
  F  F9  1  0.40084100  0.73156800  0.54160900  1
  F  F10  1  0.87679500  0.74671700  0.31386700  1
  F  F11  1  0.09915900  0.73156800  0.04160900  1
  F  F12  1  0.93371200  0.58314400  0.78080900  1
  F  F13  1  0.56628800  0.58314400  0.28080900  1
  F  F14  1  0.33440500  0.48236100  0.95999200  1
  F  F15  1  0.83440500  0.51763900  0.54000800  1
  F  F16  1  0.16559500  0.48236100  0.45999200  1
  F  F17  1  0.66559500  0.51763900  0.04000800  1
  F  F18  1  0.43371200  0.41685600  0.71919100  1
  F  F19  1  0.06628800  0.41685600  0.21919100  1
  F  F20  1  0.90084100  0.26843200  0.95839100  1
  F  F21  1  0.12320500  0.25328300  0.68613300  1
  F  F22  1  0.59915900  0.26843200  0.45839100  1
  F  F23  1  0.57740600  0.19349100  0.94531300  1
  F  F24  1  0.74455300  0.24688500  0.73068900  1
  F  F25  1  0.37679500  0.25328300  0.18613300  1
  F  F26  1  0.92259400  0.19349100  0.44531300  1
  F  F27  1  0.75544700  0.24688500  0.23068900  1
  F  F28  1  0.23386700  0.11114400  0.94291500  1
  F  F29  1  0.26613300  0.11114400  0.44291500  1
  F  F30  1  0.45176500  0.04097100  0.69132400  1
  F  F31  1  0.04823500  0.04097100  0.19132400  1
loop_
_geom_bond_atom_site_label_1
_geom_bond_atom_site_label_2
_geom_bond_distance
_geom_bond_site_symmetry_2
F0 Li1 1.887132 1_655
F0 Li13 1.907220 1_665
F0 Mn6 2.076602 1_565
F1 Li3 1.887132 1_555
F1 Li15 1.907220 1_565
F1 Mn7 2.076602 1_565
F2 Li0 1.846362 1_555
F2 Li5 1.888734 1_555
F2 Mn7 2.076415 1_565
F3 Li2 1.846362 1_555
F3 Li7 1.888734 1_555
F3 Mn6 2.076415 1_564
F4 Li1 1.918954 1_555
F4 Li4 1.953907 1_555
F4 Mn2 2.167468 1_555
F4 Mn0 2.268902 1_555
F5 Li5 1.890141 1_455
F5 Li6 1.927043 1_555
F5 Mn0 2.087899 1_555
F5 Mn2 2.517400 1_555
F6 Li0 1.960947 1_555
F6 Li4 2.014703 1_555
F6 Mn6 2.223395 1_565
F6 Mn3 2.350035 1_555
F7 Li3 1.918954 1_555
F7 Li6 1.953907 1_555
F7 Mn4 2.167468 1_555
F7 Mn1 2.268902 1_555
F8 Li7 1.890141 1_555
F8 Li4 1.927043 1_554
F8 Mn1 2.087899 1_555
F8 Mn4 2.517400 1_555
F9 Li3 1.869440 1_555
F9 Li0 1.872523 1_555
F9 Mn2 2.163499 1_555
F9 Mn0 2.605947 1_555
F10 Li2 1.960947 1_555
F10 Li6 2.014703 1_655
F10 Mn7 2.223395 1_565
F10 Mn5 2.350035 1_555
F11 Li1 1.869440 1_554
F11 Li2 1.872523 1_455
F11 Mn4 2.163499 1_555
F11 Mn1 2.605947 1_555
F12 Li1 1.892120 1_655
F12 Li5 1.948817 1_555
F12 Mn3 2.073974 1_555
F13 Li3 1.892120 1_555
F13 Li7 1.948817 1_555
F13 Mn5 2.073974 1_555
F14 Li8 1.877661 1_555
F14 Li4 1.899764 1_555
F14 Mn4 2.030051 1_556
F15 Li5 1.877661 1_555
F15 Li9 1.899764 1_555
F15 Mn5 2.030051 1_555
F16 Li10 1.877661 1_555
F16 Li6 1.899764 1_555
F16 Mn2 2.030051 1_555
F17 Li7 1.877661 1_555
F17 Li11 1.899764 1_555
F17 Mn3 2.030051 1_554
F18 Li12 1.892120 1_555
F18 Li8 1.948817 1_555
F18 Mn2 2.073974 1_555
F19 Li14 1.892120 1_455
F19 Li10 1.948817 1_555
F19 Mn4 2.073974 1_555
F20 Li14 1.869440 1_556
F20 Li13 1.872523 1_655
F20 Mn3 2.163499 1_555
F20 Mn6 2.605947 1_555
F21 Li13 1.960947 1_555
F21 Li9 2.014703 1_455
F21 Mn0 2.223395 1_545
F21 Mn2 2.350035 1_555
F22 Li12 1.869440 1_555
F22 Li15 1.872523 1_555
F22 Mn5 2.163499 1_555
F22 Mn7 2.605947 1_555
F23 Li8 1.890141 1_555
F23 Li11 1.927043 1_556
F23 Mn6 2.087899 1_555
F23 Mn3 2.517400 1_555
F24 Li12 1.918954 1_555
F24 Li9 1.953907 1_555
F24 Mn3 2.167468 1_555
F24 Mn6 2.268902 1_555
F25 Li15 1.960947 1_555
F25 Li11 2.014703 1_555
F25 Mn1 2.223395 1_545
F25 Mn4 2.350035 1_555
F26 Li10 1.890141 1_655
F26 Li9 1.927043 1_555
F26 Mn7 2.087899 1_555
F26 Mn5 2.517400 1_555
F27 Li14 1.918954 1_555
F27 Li11 1.953907 1_555
F27 Mn5 2.167468 1_555
F27 Mn7 2.268902 1_555
F28 Li13 1.846362 1_555
F28 Li8 1.888734 1_555
F28 Mn1 2.076415 1_546
F29 Li15 1.846362 1_555
F29 Li10 1.888734 1_555
F29 Mn0 2.076415 1_545
F30 Li12 1.887132 1_555
F30 Li0 1.907220 1_545
F30 Mn0 2.076602 1_545
F31 Li14 1.887132 1_455
F31 Li2 1.907220 1_445
F31 Mn1 2.076602 1_545
