# generated using pymatgen
data_Li2V5(PO4)4
_symmetry_space_group_name_H-M   'P 1'
_cell_length_a   5.25619184
_cell_length_b   8.10788988
_cell_length_c   8.27308730
_cell_angle_alpha   109.82605831
_cell_angle_beta   92.42737352
_cell_angle_gamma   100.87901756
_symmetry_Int_Tables_number   1
_chemical_formula_structural   Li2V5(PO4)4
_chemical_formula_sum   'Li2 V5 P4 O16'
_cell_volume   323.54600959
_cell_formula_units_Z   1
loop_
 _symmetry_equiv_pos_site_id
 _symmetry_equiv_pos_as_xyz
  1  'x, y, z'
loop_
 _atom_site_type_symbol
 _atom_site_label
 _atom_site_symmetry_multiplicity
 _atom_site_fract_x
 _atom_site_fract_y
 _atom_site_fract_z
 _atom_site_occupancy
  Li  Li0  1  0.63196500  0.07312500  0.30073900  1
  Li  Li1  1  0.36804700  0.92688200  0.69925100  1
  V  V0  1  0.09088100  0.25028900  0.77408500  1
  V  V1  1  0.90912300  0.74971100  0.22591700  1
  V  V2  1  0.99999100  0.99998400  0.99999700  1
  V  V3  1  0.64799400  0.41002100  0.68107700  1
  V  V4  1  0.35199800  0.58997600  0.31891100  1
  P  P0  1  0.14812800  0.20627500  0.43144900  1
  P  P1  1  0.85187400  0.79373300  0.56855700  1
  P  P2  1  0.60967600  0.29409600  0.04011200  1
  P  P3  1  0.39031900  0.70590300  0.95988200  1
  O  O0  1  0.31127100  0.21698600  0.98066200  1
  O  O1  1  0.68872600  0.78300000  0.01934500  1
  O  O2  1  0.74454100  0.30622100  0.87883400  1
  O  O3  1  0.25545600  0.69379000  0.12116500  1
  O  O4  1  0.08278700  0.03025600  0.27021700  1
  O  O5  1  0.91721000  0.96974300  0.72979600  1
  O  O6  1  0.89515200  0.23556400  0.52091200  1
  O  O7  1  0.10484800  0.76444300  0.47909100  1
  O  O8  1  0.33965300  0.17634000  0.56652200  1
  O  O9  1  0.66034900  0.82366200  0.43348200  1
  O  O10  1  0.72545100  0.16942700  0.11294100  1
  O  O11  1  0.27455700  0.83057600  0.88705400  1
  O  O12  1  0.34731000  0.51301000  0.82354500  1
  O  O13  1  0.65268500  0.48698600  0.17645700  1
  O  O14  1  0.27783100  0.36314500  0.38339800  1
  O  O15  1  0.72217600  0.63685700  0.61660300  1
loop_
_geom_bond_atom_site_label_1
_geom_bond_atom_site_label_2
_geom_bond_distance
_geom_bond_site_symmetry_2
Li0 O10 2.001933 1_555
Li0 O6 2.106582 1_555
Li0 O4 2.470152 1_655
Li1 O11 2.001995 1_555
Li1 O7 2.106547 1_555
Li1 O5 2.470230 1_455
O0 P2 1.564866 1_556
O0 V0 2.144530 1_555
O0 V2 2.219146 1_445
O1 P3 1.564879 1_554
O1 V1 2.144459 1_555
O1 V2 2.219041 1_554
O2 P2 1.560521 1_556
O2 V0 2.109332 1_655
O2 V3 2.160415 1_555
O3 P3 1.560527 1_554
O3 V1 2.109286 1_455
O3 V4 2.160407 1_555
O4 P0 1.555255 1_555
O4 V2 2.180001 1_444
O4 V1 2.182637 1_445
O5 P1 1.555243 1_555
O5 V2 2.179905 1_555
O5 V0 2.182671 1_665
O6 P0 1.567036 1_655
O6 V3 2.238813 1_555
O6 V0 2.249704 1_655
O7 P1 1.567039 1_455
O7 V4 2.238876 1_555
O7 V1 2.249683 1_455
O8 P0 1.581770 1_555
O8 V3 2.146477 1_555
O8 V0 2.192203 1_555
O9 P1 1.581757 1_555
O9 V4 2.146545 1_555
O9 V1 2.192224 1_555
O10 P2 1.539260 1_555
O10 V2 2.198775 1_544
O11 P3 1.539249 1_555
O11 V2 2.198710 1_455
O12 P3 1.554873 1_555
O12 V3 2.138374 1_555
O12 V0 2.190842 1_555
O13 P2 1.554880 1_555
O13 V4 2.138338 1_555
O13 V1 2.190887 1_555
O14 P0 1.509675 1_555
O14 V4 2.057066 1_555
O15 P1 1.509685 1_555
O15 V3 2.057046 1_555
