# generated using pymatgen
data_Li4Cr5BiO12
_symmetry_space_group_name_H-M   'P 1'
_cell_length_a   5.26528124
_cell_length_b   5.27730774
_cell_length_c   10.14646173
_cell_angle_alpha   93.62854774
_cell_angle_beta   97.28784437
_cell_angle_gamma   60.07498405
_symmetry_Int_Tables_number   1
_chemical_formula_structural   Li4Cr5BiO12
_chemical_formula_sum   'Li4 Cr5 Bi1 O12'
_cell_volume   242.37295050
_cell_formula_units_Z   1
loop_
 _symmetry_equiv_pos_site_id
 _symmetry_equiv_pos_as_xyz
  1  'x, y, z'
loop_
 _atom_site_type_symbol
 _atom_site_label
 _atom_site_symmetry_multiplicity
 _atom_site_fract_x
 _atom_site_fract_y
 _atom_site_fract_z
 _atom_site_occupancy
  Li  Li0  1  0.21745700  0.33665500  0.72519900  1
  Li  Li1  1  0.44588300  0.33665800  0.27480600  1
  Li  Li2  1  0.55410400  0.66335100  0.72519300  1
  Li  Li3  1  0.78252100  0.66335300  0.27479900  1
  Cr  Cr0  1  0.16406000  0.67201200  0.50000700  1
  Cr  Cr1  1  0.66626000  0.66748800  0.00000000  1
  Cr  Cr2  1  0.33374100  0.33251000  0.00000100  1
  Cr  Cr3  1  0.83588400  0.32803800  0.49996200  1
  Cr  Cr4  1  0.50003600  0.99996200  0.50000800  1
  Bi  Bi0  1  0.99999600  0.99999900  0.00000100  1
  O  O0  1  0.02645500  0.63617100  0.11040000  1
  O  O1  1  0.33736800  0.63617100  0.88960400  1
  O  O2  1  0.14162000  0.34406200  0.39736900  1
  O  O3  1  0.48571300  0.65591600  0.39740400  1
  O  O4  1  0.51431600  0.34407100  0.60261000  1
  O  O5  1  0.20199800  0.99999000  0.60296000  1
  O  O6  1  0.85839300  0.65594300  0.60262400  1
  O  O7  1  0.66262400  0.36382800  0.11040000  1
  O  O8  1  0.39237400  0.00000200  0.10925000  1
  O  O9  1  0.97354100  0.36382200  0.88960300  1
  O  O10  1  0.60762300  0.99999500  0.89075300  1
  O  O11  1  0.79803200  0.00000400  0.39704900  1
loop_
_geom_bond_atom_site_label_1
_geom_bond_atom_site_label_2
_geom_bond_distance
_geom_bond_site_symmetry_2
Li0 O6 2.109638 1_455
Li0 O5 2.131036 1_545
Li0 O4 2.133599 1_555
Li0 O9 2.186805 1_455
Li0 O10 2.461536 1_545
Li0 O1 2.464638 1_555
Li1 O3 2.109752 1_555
Li1 O11 2.131083 1_555
Li1 O2 2.133393 1_555
Li1 O7 2.186803 1_555
Li1 O8 2.461536 1_555
Li1 O0 2.464644 1_555
Li2 O4 2.109673 1_555
Li2 O5 2.130909 1_555
Li2 O6 2.133538 1_555
Li2 O1 2.186847 1_555
Li2 O10 2.461535 1_555
Li2 O9 2.464712 1_555
Li3 O2 2.109696 1_655
Li3 O11 2.131138 1_565
Li3 O3 2.133537 1_555
Li3 O0 2.186803 1_655
Li3 O8 2.461446 1_565
Li3 O7 2.464600 1_555
Cr0 O4 2.009113 1_555
Cr0 O2 2.009594 1_555
Cr0 O5 2.046969 1_555
Cr0 O11 2.047289 1_465
Cr0 O3 2.062006 1_555
Cr0 O6 2.062528 1_455
Cr1 O10 2.005490 1_554
Cr1 O8 2.005539 1_565
Cr1 O0 2.012618 1_655
Cr1 O1 2.012662 1_554
Cr1 O9 2.021433 1_554
Cr1 O7 2.021494 1_555
Cr2 O8 2.005513 1_555
Cr2 O10 2.005522 1_544
Cr2 O7 2.012639 1_555
Cr2 O9 2.012640 1_454
Cr2 O0 2.021448 1_555
Cr2 O1 2.021458 1_554
Cr3 O3 2.008571 1_555
Cr3 O6 2.009655 1_555
Cr3 O11 2.046838 1_555
Cr3 O5 2.047796 1_645
Cr3 O4 2.062029 1_555
Cr3 O2 2.062585 1_655
Cr4 O5 1.992331 1_555
Cr4 O11 1.992344 1_565
Cr4 O6 2.064785 1_555
Cr4 O3 2.064822 1_555
Cr4 O4 2.065007 1_565
Cr4 O2 2.065211 1_565
Bi0 O10 2.217189 1_554
Bi0 O8 2.217213 1_665
Bi0 O1 2.219538 1_654
Bi0 O9 2.219541 1_564
Bi0 O7 2.219551 1_565
Bi0 O0 2.219560 1_655
