# generated using pymatgen
data_Na5CrO4
_symmetry_space_group_name_H-M   'P 1'
_cell_length_a   10.47267300
_cell_length_b   10.58284000
_cell_length_c   10.67543300
_cell_angle_alpha   90.00000000
_cell_angle_beta   90.00000000
_cell_angle_gamma   90.00000000
_symmetry_Int_Tables_number   1
_chemical_formula_structural   Na5CrO4
_chemical_formula_sum   'Na40 Cr8 O32'
_cell_volume   1183.16488732
_cell_formula_units_Z   8
loop_
 _symmetry_equiv_pos_site_id
 _symmetry_equiv_pos_as_xyz
  1  'x, y, z'
loop_
 _atom_site_type_symbol
 _atom_site_label
 _atom_site_symmetry_multiplicity
 _atom_site_fract_x
 _atom_site_fract_y
 _atom_site_fract_z
 _atom_site_occupancy
  Na  Na0  1  0.10674000  0.11219200  0.83486500  1
  Na  Na1  1  0.10674000  0.61219200  0.66513500  1
  Na  Na2  1  0.11236500  0.39848400  0.14357400  1
  Na  Na3  1  0.11236500  0.89848400  0.35642600  1
  Na  Na4  1  0.11906000  0.16576000  0.39695500  1
  Na  Na5  1  0.11906000  0.66576000  0.10304500  1
  Na  Na6  1  0.12315400  0.35095200  0.59257600  1
  Na  Na7  1  0.12315400  0.85095200  0.90742400  1
  Na  Na8  1  0.15665100  0.38181700  0.86578400  1
  Na  Na9  1  0.15665100  0.88181700  0.63421600  1
  Na  Na10  1  0.34334900  0.88181700  0.13421600  1
  Na  Na11  1  0.34334900  0.38181700  0.36578400  1
  Na  Na12  1  0.37684600  0.35095200  0.09257600  1
  Na  Na13  1  0.37684600  0.85095200  0.40742400  1
  Na  Na14  1  0.38094000  0.66576000  0.60304500  1
  Na  Na15  1  0.38094000  0.16576000  0.89695500  1
  Na  Na16  1  0.38763500  0.39848400  0.64357400  1
  Na  Na17  1  0.38763500  0.89848400  0.85642600  1
  Na  Na18  1  0.39326000  0.61219200  0.16513500  1
  Na  Na19  1  0.39326000  0.11219200  0.33486500  1
  Na  Na20  1  0.60674000  0.88780800  0.66513500  1
  Na  Na21  1  0.60674000  0.38780800  0.83486500  1
  Na  Na22  1  0.61236500  0.10151600  0.14357400  1
  Na  Na23  1  0.61236500  0.60151600  0.35642600  1
  Na  Na24  1  0.61906000  0.33424000  0.39695500  1
  Na  Na25  1  0.61906000  0.83424000  0.10304500  1
  Na  Na26  1  0.62315400  0.14904800  0.59257600  1
  Na  Na27  1  0.62315400  0.64904800  0.90742400  1
  Na  Na28  1  0.65665100  0.61818300  0.63421600  1
  Na  Na29  1  0.65665100  0.11818300  0.86578400  1
  Na  Na30  1  0.84334900  0.61818300  0.13421600  1
  Na  Na31  1  0.84334900  0.11818300  0.36578400  1
  Na  Na32  1  0.87684600  0.14904800  0.09257600  1
  Na  Na33  1  0.87684600  0.64904800  0.40742400  1
  Na  Na34  1  0.88094000  0.83424000  0.60304500  1
  Na  Na35  1  0.88094000  0.33424000  0.89695500  1
  Na  Na36  1  0.88763500  0.10151600  0.64357400  1
  Na  Na37  1  0.88763500  0.60151600  0.85642600  1
  Na  Na38  1  0.89326000  0.88780800  0.16513500  1
  Na  Na39  1  0.89326000  0.38780800  0.33486500  1
  Cr  Cr0  1  0.14729500  0.12450000  0.11505700  1
  Cr  Cr1  1  0.14729500  0.62450000  0.38494300  1
  Cr  Cr2  1  0.35270500  0.62450000  0.88494300  1
  Cr  Cr3  1  0.35270500  0.12450000  0.61505700  1
  Cr  Cr4  1  0.64729500  0.37550000  0.11505700  1
  Cr  Cr5  1  0.64729500  0.87550000  0.38494300  1
  Cr  Cr6  1  0.85270500  0.37550000  0.61505700  1
  Cr  Cr7  1  0.85270500  0.87550000  0.88494300  1
  O  O0  1  0.02270200  0.05523300  0.23498000  1
  O  O1  1  0.02270200  0.55523300  0.26502000  1
  O  O2  1  0.05538000  0.23796000  0.00217700  1
  O  O3  1  0.05538000  0.73796000  0.49782300  1
  O  O4  1  0.23948400  0.02074900  0.99517400  1
  O  O5  1  0.23948400  0.52074900  0.50482600  1
  O  O6  1  0.24028000  0.23588500  0.22702900  1
  O  O7  1  0.24028000  0.73588500  0.27297100  1
  O  O8  1  0.25972000  0.23588500  0.72702900  1
  O  O9  1  0.25972000  0.73588500  0.77297100  1
  O  O10  1  0.26051600  0.52074900  0.00482600  1
  O  O11  1  0.26051600  0.02074900  0.49517400  1
  O  O12  1  0.44462000  0.23796000  0.50217700  1
  O  O13  1  0.44462000  0.73796000  0.99782300  1
  O  O14  1  0.47729800  0.55523300  0.76502000  1
  O  O15  1  0.47729800  0.05523300  0.73498000  1
  O  O16  1  0.52270200  0.94476700  0.26502000  1
  O  O17  1  0.52270200  0.44476700  0.23498000  1
  O  O18  1  0.55538000  0.26204000  0.00217700  1
  O  O19  1  0.55538000  0.76204000  0.49782300  1
  O  O20  1  0.73948400  0.97925100  0.50482600  1
  O  O21  1  0.73948400  0.47925100  0.99517400  1
  O  O22  1  0.74028000  0.26411500  0.22702900  1
  O  O23  1  0.74028000  0.76411500  0.27297100  1
  O  O24  1  0.75972000  0.26411500  0.72702900  1
  O  O25  1  0.75972000  0.76411500  0.77297100  1
  O  O26  1  0.76051600  0.97925100  0.00482600  1
  O  O27  1  0.76051600  0.47925100  0.49517400  1
  O  O28  1  0.94462000  0.76204000  0.99782300  1
  O  O29  1  0.94462000  0.26204000  0.50217700  1
  O  O30  1  0.97729800  0.94476700  0.76502000  1
  O  O31  1  0.97729800  0.44476700  0.73498000  1
loop_
_geom_bond_atom_site_label_1
_geom_bond_atom_site_label_2
_geom_bond_distance
_geom_bond_site_symmetry_2
Na0 O2 2.291523 1_556
Na0 O30 2.352235 1_445
Na0 O8 2.367604 1_555
Na0 O4 2.407880 1_555
Na1 O3 2.291523 1_555
Na1 O31 2.352235 1_455
Na1 O9 2.367604 1_555
Na1 O5 2.407880 1_555
Na2 O1 2.305300 1_555
Na2 O2 2.349593 1_555
Na2 O6 2.355697 1_555
Na2 O10 2.505077 1_555
Na3 O0 2.305300 1_565
Na3 O3 2.349593 1_555
Na3 O7 2.355697 1_555
Na3 O11 2.505077 1_565
Na4 O0 2.318724 1_555
Na4 O6 2.335184 1_555
Na4 O29 2.374313 1_455
Na4 O11 2.376786 1_555
Na5 O1 2.318724 1_555
Na5 O7 2.335184 1_555
Na5 O28 2.374313 1_454
Na5 O10 2.376786 1_555
Na6 O29 2.304902 1_455
Na6 O8 2.364021 1_555
Na6 O5 2.364473 1_555
Na6 O31 2.372774 1_455
Na7 O28 2.304902 1_455
Na7 O9 2.364021 1_555
Na7 O4 2.364473 1_565
Na7 O30 2.372774 1_455
Na8 O10 2.355462 1_556
Na8 O2 2.358531 1_556
Na8 O8 2.396743 1_555
Na8 O31 2.433463 1_455
Na9 O11 2.355462 1_565
Na9 O3 2.358531 1_555
Na9 O9 2.396743 1_555
Na9 O30 2.433463 1_455
Na10 O4 2.355462 1_564
Na10 O13 2.358531 1_554
Na10 O7 2.396743 1_555
Na10 O16 2.433463 1_555
Na11 O5 2.355462 1_555
Na11 O12 2.358531 1_555
Na11 O6 2.396743 1_555
Na11 O17 2.433463 1_555
Na12 O18 2.304902 1_555
Na12 O6 2.364021 1_555
Na12 O10 2.364473 1_555
Na12 O17 2.372774 1_555
Na13 O19 2.304902 1_555
Na13 O7 2.364021 1_555
Na13 O11 2.364473 1_565
Na13 O16 2.372774 1_555
Na14 O14 2.318724 1_555
Na14 O9 2.335184 1_555
Na14 O19 2.374313 1_555
Na14 O5 2.376786 1_555
Na15 O15 2.318724 1_555
Na15 O8 2.335184 1_555
Na15 O18 2.374313 1_556
Na15 O4 2.376786 1_555
Na16 O14 2.305300 1_555
Na16 O12 2.349593 1_555
Na16 O8 2.355697 1_555
Na16 O5 2.505077 1_555
Na17 O15 2.305300 1_565
Na17 O13 2.349593 1_555
Na17 O9 2.355697 1_555
Na17 O4 2.505077 1_565
Na18 O13 2.291523 1_554
Na18 O17 2.352235 1_555
Na18 O7 2.367604 1_555
Na18 O10 2.407880 1_555
Na19 O12 2.291523 1_555
Na19 O16 2.352235 1_545
Na19 O6 2.367604 1_555
Na19 O11 2.407880 1_555
Na20 O19 2.291523 1_555
Na20 O15 2.352235 1_565
Na20 O25 2.367604 1_555
Na20 O20 2.407880 1_555
Na21 O18 2.291523 1_556
Na21 O14 2.352235 1_555
Na21 O24 2.367604 1_555
Na21 O21 2.407880 1_555
Na22 O16 2.305300 1_545
Na22 O18 2.349593 1_555
Na22 O22 2.355697 1_555
Na22 O26 2.505077 1_545
Na23 O17 2.305300 1_555
Na23 O19 2.349593 1_555
Na23 O23 2.355697 1_555
Na23 O27 2.505077 1_555
Na24 O17 2.318724 1_555
Na24 O22 2.335184 1_555
Na24 O12 2.374313 1_555
Na24 O27 2.376786 1_555
Na25 O16 2.318724 1_555
Na25 O23 2.335184 1_555
Na25 O13 2.374313 1_554
Na25 O26 2.376786 1_555
Na26 O12 2.304902 1_555
Na26 O24 2.364021 1_555
Na26 O20 2.364473 1_545
Na26 O15 2.372774 1_555
Na27 O13 2.304902 1_555
Na27 O25 2.364021 1_555
Na27 O21 2.364473 1_555
Na27 O14 2.372774 1_555
Na28 O27 2.355462 1_555
Na28 O19 2.358531 1_555
Na28 O25 2.396743 1_555
Na28 O14 2.433463 1_555
Na29 O26 2.355462 1_546
Na29 O18 2.358531 1_556
Na29 O24 2.396743 1_555
Na29 O15 2.433463 1_555
Na30 O21 2.355462 1_554
Na30 O28 2.358531 1_554
Na30 O23 2.396743 1_555
Na30 O1 2.433463 1_655
Na31 O20 2.355462 1_545
Na31 O29 2.358531 1_555
Na31 O22 2.396743 1_555
Na31 O0 2.433463 1_655
Na32 O2 2.304902 1_655
Na32 O22 2.364021 1_555
Na32 O26 2.364473 1_545
Na32 O0 2.372774 1_655
Na33 O3 2.304902 1_655
Na33 O23 2.364021 1_555
Na33 O27 2.364473 1_555
Na33 O1 2.372774 1_655
Na34 O30 2.318724 1_555
Na34 O25 2.335184 1_555
Na34 O3 2.374313 1_655
Na34 O20 2.376786 1_555
Na35 O31 2.318724 1_555
Na35 O24 2.335184 1_555
Na35 O2 2.374313 1_656
Na35 O21 2.376786 1_555
Na36 O30 2.305300 1_545
Na36 O29 2.349593 1_555
Na36 O24 2.355697 1_555
Na36 O20 2.505077 1_545
Na37 O31 2.305300 1_555
Na37 O28 2.349593 1_555
Na37 O25 2.355697 1_555
Na37 O21 2.505077 1_555
Na38 O28 2.291523 1_554
Na38 O0 2.352235 1_665
Na38 O23 2.367604 1_555
Na38 O26 2.407880 1_555
Na39 O29 2.291523 1_555
Na39 O1 2.352235 1_655
Na39 O22 2.367604 1_555
Na39 O27 2.407880 1_555
Cr0 O6 1.940785 1_555
Cr0 O4 1.943085 1_554
Cr0 O2 1.954602 1_555
Cr0 O0 1.969492 1_555
Cr1 O7 1.940785 1_555
Cr1 O5 1.943085 1_555
Cr1 O3 1.954602 1_555
Cr1 O1 1.969492 1_555
Cr2 O9 1.940785 1_555
Cr2 O10 1.943085 1_556
Cr2 O13 1.954602 1_555
Cr2 O14 1.969492 1_555
Cr3 O8 1.940785 1_555
Cr3 O11 1.943085 1_555
Cr3 O12 1.954602 1_555
Cr3 O15 1.969492 1_555
Cr4 O22 1.940785 1_555
Cr4 O21 1.943085 1_554
Cr4 O18 1.954602 1_555
Cr4 O17 1.969492 1_555
Cr5 O23 1.940785 1_555
Cr5 O20 1.943085 1_555
Cr5 O19 1.954602 1_555
Cr5 O16 1.969492 1_555
Cr6 O24 1.940785 1_555
Cr6 O27 1.943085 1_555
Cr6 O29 1.954602 1_555
Cr6 O31 1.969492 1_555
Cr7 O25 1.940785 1_555
Cr7 O26 1.943085 1_556
Cr7 O28 1.954602 1_555
Cr7 O30 1.969492 1_555
