# generated using pymatgen
data_Na2CoCSO7
_symmetry_space_group_name_H-M   'P 1'
_cell_length_a   8.56440989
_cell_length_b   8.56766760
_cell_length_c   9.06687242
_cell_angle_alpha   88.87044323
_cell_angle_beta   88.87882171
_cell_angle_gamma   104.05261616
_symmetry_Int_Tables_number   1
_chemical_formula_structural   Na2CoCSO7
_chemical_formula_sum   'Na8 Co4 C4 S4 O28'
_cell_volume   645.06085368
_cell_formula_units_Z   4
loop_
 _symmetry_equiv_pos_site_id
 _symmetry_equiv_pos_as_xyz
  1  'x, y, z'
loop_
 _atom_site_type_symbol
 _atom_site_label
 _atom_site_symmetry_multiplicity
 _atom_site_fract_x
 _atom_site_fract_y
 _atom_site_fract_z
 _atom_site_occupancy
  Na  Na0  1  0.36689400  0.86475400  0.21383600  1
  Na  Na1  1  0.86687200  0.36420600  0.21272700  1
  Na  Na2  1  0.61490700  0.61817100  0.21315800  1
  Na  Na3  1  0.11469000  0.11760000  0.21367900  1
  Na  Na4  1  0.63257500  0.13427800  0.78524200  1
  Na  Na5  1  0.13190400  0.63589800  0.78759400  1
  Na  Na6  1  0.38600200  0.38265100  0.78770900  1
  Na  Na7  1  0.88462800  0.88315500  0.78540300  1
  Co  Co0  1  0.26249800  0.51234400  0.35508500  1
  Co  Co1  1  0.73882600  0.48628700  0.64439200  1
  Co  Co2  1  0.76272300  0.01162800  0.35550300  1
  Co  Co3  1  0.23746100  0.98812100  0.64479900  1
  C  C0  1  0.73772600  0.98808900  0.08346000  1
  C  C1  1  0.23785400  0.48801900  0.08321700  1
  C  C2  1  0.26190100  0.01199100  0.91677400  1
  C  C3  1  0.76171400  0.51193900  0.91654100  1
  S  S0  1  0.48495500  0.23568300  0.42142300  1
  S  S1  1  0.98549800  0.73477000  0.42097100  1
  S  S2  1  0.51509100  0.76479200  0.57906800  1
  S  S3  1  0.01505200  0.26491700  0.57867100  1
  O  O0  1  0.27651800  0.02648800  0.05454600  1
  O  O1  1  0.77641600  0.52713600  0.05426100  1
  O  O2  1  0.72311200  0.97344100  0.94574500  1
  O  O3  1  0.22317500  0.47341300  0.94542500  1
  O  O4  1  0.85001500  0.09848800  0.14442500  1
  O  O5  1  0.34944300  0.59915900  0.14402100  1
  O  O6  1  0.14985100  0.90134000  0.85582200  1
  O  O7  1  0.65261800  0.39825900  0.85599600  1
  O  O8  1  0.64047900  0.89267100  0.18048000  1
  O  O9  1  0.14131300  0.39185700  0.18014100  1
  O  O10  1  0.35888400  0.10779300  0.81989400  1
  O  O11  1  0.85595500  0.61011500  0.81937600  1
  O  O12  1  0.45629500  0.70648400  0.43069400  1
  O  O13  1  0.95633700  0.20594400  0.43052600  1
  O  O14  1  0.54327100  0.29438400  0.56983400  1
  O  O15  1  0.04417900  0.79379000  0.56913100  1
  O  O16  1  0.34198800  0.09333700  0.44181100  1
  O  O17  1  0.84368000  0.59141500  0.44166200  1
  O  O18  1  0.65818500  0.90725400  0.55861200  1
  O  O19  1  0.15734100  0.40774900  0.55815300  1
  O  O20  1  0.43641800  0.36536400  0.33595900  1
  O  O21  1  0.93570500  0.86402100  0.33592900  1
  O  O22  1  0.61481800  0.18644100  0.33696700  1
  O  O23  1  0.11548700  0.68660600  0.33574400  1
  O  O24  1  0.38560400  0.81426100  0.66408100  1
  O  O25  1  0.88501300  0.31312500  0.66391000  1
  O  O26  1  0.56383600  0.63490100  0.66373800  1
  O  O27  1  0.06429300  0.13547900  0.66386700  1
loop_
_geom_bond_atom_site_label_1
_geom_bond_atom_site_label_2
_geom_bond_distance
_geom_bond_site_symmetry_2
Na0 O0 2.256283 1_565
Na0 O8 2.309983 1_555
Na0 O5 2.344440 1_555
Na0 O23 2.536106 1_555
Na0 O12 2.597889 1_555
Na0 O16 2.915254 1_565
Na1 O1 2.258939 1_555
Na1 O9 2.316802 1_655
Na1 O4 2.342363 1_555
Na1 O22 2.547369 1_555
Na1 O13 2.604513 1_555
Na1 O17 2.910065 1_555
Na2 O1 2.255551 1_555
Na2 O8 2.320924 1_555
Na2 O5 2.338468 1_555
Na2 O20 2.549175 1_555
Na2 O12 2.600226 1_555
Na2 O17 2.922687 1_555
Na3 O0 2.259112 1_555
Na3 O9 2.318336 1_555
Na3 O4 2.332147 1_455
Na3 O21 2.553381 1_445
Na3 O13 2.594349 1_455
Na3 O16 2.906605 1_555
Na4 O2 2.258735 1_545
Na4 O10 2.314005 1_555
Na4 O7 2.330082 1_555
Na4 O25 2.542443 1_555
Na4 O14 2.596818 1_555
Na4 O18 2.898416 1_545
Na5 O3 2.256227 1_555
Na5 O11 2.331207 1_455
Na5 O6 2.338336 1_555
Na5 O24 2.556414 1_555
Na5 O15 2.600785 1_555
Na5 O19 2.923254 1_555
Na6 O3 2.255362 1_555
Na6 O10 2.321480 1_555
Na6 O7 2.350636 1_555
Na6 O26 2.548060 1_555
Na6 O14 2.595746 1_555
Na6 O19 2.925707 1_555
Na7 O2 2.260677 1_555
Na7 O11 2.305915 1_555
Na7 O6 2.341017 1_655
Na7 O27 2.545541 1_665
Na7 O15 2.600195 1_655
Na7 O18 2.892369 1_555
Co0 O9 2.065798 1_555
Co0 O5 2.095012 1_555
Co0 O19 2.117136 1_555
Co0 O12 2.177205 1_555
Co0 O20 2.178055 1_555
Co0 O23 2.180893 1_555
Co1 O11 2.064176 1_555
Co1 O7 2.100477 1_555
Co1 O17 2.115121 1_555
Co1 O25 2.168004 1_555
Co1 O14 2.171665 1_555
Co1 O26 2.196194 1_555
Co2 O8 2.064880 1_545
Co2 O4 2.095972 1_555
Co2 O18 2.115265 1_545
Co2 O13 2.175348 1_555
Co2 O21 2.175787 1_545
Co2 O22 2.189929 1_555
Co3 O10 2.064955 1_565
Co3 O6 2.096044 1_555
Co3 O16 2.116496 1_565
Co3 O27 2.175138 1_565
Co3 O15 2.175781 1_555
Co3 O24 2.185256 1_555
C0 O2 1.263010 1_554
C0 O4 1.313288 1_565
C0 O8 1.322167 1_555
C1 O3 1.263721 1_554
C1 O5 1.312774 1_555
C1 O9 1.321706 1_555
C2 O0 1.263403 1_556
C2 O6 1.313271 1_545
C2 O10 1.321794 1_555
C3 O1 1.263580 1_556
C3 O7 1.312322 1_555
C3 O11 1.322253 1_555
O12 S2 1.497923 1_555
O13 S3 1.497391 1_655
O14 S0 1.498027 1_555
O15 S1 1.497546 1_455
O16 S0 1.509249 1_555
O17 S1 1.508804 1_555
O18 S2 1.510577 1_555
O19 S3 1.508354 1_555
O20 S0 1.486832 1_555
O21 S1 1.487018 1_555
O22 S0 1.486146 1_555
O23 S1 1.486205 1_455
O24 S2 1.487041 1_555
O25 S3 1.486783 1_655
O26 S2 1.485454 1_555
O27 S3 1.486767 1_555
