# generated using pymatgen
data_Lu3Sb5O12
_symmetry_space_group_name_H-M   'P 1'
_cell_length_a   9.17227424
_cell_length_b   9.17227424
_cell_length_c   9.17227424
_cell_angle_alpha   109.47122063
_cell_angle_beta   109.47122063
_cell_angle_gamma   109.47122063
_symmetry_Int_Tables_number   1
_chemical_formula_structural   Lu3Sb5O12
_chemical_formula_sum   'Lu6 Sb10 O24'
_cell_volume   594.03112678
_cell_formula_units_Z   2
loop_
 _symmetry_equiv_pos_site_id
 _symmetry_equiv_pos_as_xyz
  1  'x, y, z'
loop_
 _atom_site_type_symbol
 _atom_site_label
 _atom_site_symmetry_multiplicity
 _atom_site_fract_x
 _atom_site_fract_y
 _atom_site_fract_z
 _atom_site_occupancy
  Lu  Lu0  1  0.75000000  0.25000000  0.50000000  1
  Lu  Lu1  1  0.75000000  0.50000000  0.25000000  1
  Lu  Lu2  1  0.50000000  0.25000000  0.75000000  1
  Lu  Lu3  1  0.50000000  0.75000000  0.25000000  1
  Lu  Lu4  1  0.25000000  0.75000000  0.50000000  1
  Lu  Lu5  1  0.25000000  0.50000000  0.75000000  1
  Sb  Sb0  1  0.52093766  0.00000000  0.00000000  1
  Sb  Sb1  1  0.28225758  -0.00000000  0.28225758  1
  Sb  Sb2  1  0.28225758  0.28225758  0.00000000  1
  Sb  Sb3  1  0.71774242  -0.00000000  0.71774242  1
  Sb  Sb4  1  0.71774242  0.71774242  -0.00000000  1
  Sb  Sb5  1  -0.00000000  0.52093766  -0.00000000  1
  Sb  Sb6  1  -0.00000000  -0.00000000  0.52093766  1
  Sb  Sb7  1  0.47906234  0.47906234  0.47906234  1
  Sb  Sb8  1  0.00000000  0.28225758  0.28225758  1
  Sb  Sb9  1  -0.00000000  0.71774242  0.71774242  1
  O  O0  1  0.48141670  -0.00000000  0.20246287  1
  O  O1  1  0.48141670  0.20246287  -0.00000000  1
  O  O2  1  0.70205237  0.49839852  -0.00000000  1
  O  O3  1  0.70205237  0.00000000  0.49839852  1
  O  O4  1  0.79634615  0.29794763  0.29794763  1
  O  O5  1  0.50160148  0.50160148  0.20365385  1
  O  O6  1  0.50160148  0.20365385  0.50160148  1
  O  O7  1  0.49839852  0.70205237  -0.00000000  1
  O  O8  1  0.49839852  -0.00000000  0.70205237  1
  O  O9  1  0.72104617  0.51858330  0.51858330  1
  O  O10  1  0.79753713  0.27895383  0.79753713  1
  O  O11  1  0.79753713  0.79753713  0.27895383  1
  O  O12  1  0.20246287  0.48141670  -0.00000000  1
  O  O13  1  0.20246287  -0.00000000  0.48141670  1
  O  O14  1  0.51858330  0.72104617  0.51858330  1
  O  O15  1  0.51858330  0.51858330  0.72104617  1
  O  O16  1  0.00000000  0.48141670  0.20246287  1
  O  O17  1  0.00000000  0.20246287  0.48141670  1
  O  O18  1  0.29794763  0.79634615  0.29794763  1
  O  O19  1  0.29794763  0.29794763  0.79634615  1
  O  O20  1  0.20365385  0.50160148  0.50160148  1
  O  O21  1  0.00000000  0.70205237  0.49839852  1
  O  O22  1  0.00000000  0.49839852  0.70205237  1
  O  O23  1  0.27895383  0.79753713  0.79753713  1
loop_
_geom_bond_atom_site_label_1
_geom_bond_atom_site_label_2
_geom_bond_distance
_geom_bond_site_symmetry_2
Lu0 O22 2.180073 1_655
Lu0 O4 2.180073 1_555
Lu0 O6 2.180073 1_555
Lu0 O3 2.180073 1_555
Lu0 O17 2.520895 1_655
Lu0 O9 2.520895 1_555
Lu0 O0 2.520895 1_555
Lu0 O10 2.520895 1_555
Lu1 O4 2.180073 1_555
Lu1 O5 2.180073 1_555
Lu1 O21 2.180073 1_655
Lu1 O2 2.180073 1_555
Lu1 O9 2.520895 1_555
Lu1 O16 2.520895 1_655
Lu1 O11 2.520895 1_555
Lu1 O1 2.520895 1_555
Lu2 O19 2.180073 1_555
Lu2 O8 2.180073 1_555
Lu2 O2 2.180073 1_556
Lu2 O6 2.180073 1_555
Lu2 O15 2.520895 1_555
Lu2 O13 2.520895 1_555
Lu2 O1 2.520895 1_556
Lu2 O10 2.520895 1_555
Lu3 O5 2.180073 1_555
Lu3 O18 2.180073 1_555
Lu3 O7 2.180073 1_555
Lu3 O3 2.180073 1_565
Lu3 O14 2.520895 1_555
Lu3 O0 2.520895 1_565
Lu3 O11 2.520895 1_555
Lu3 O12 2.520895 1_555
Lu4 O18 2.180073 1_555
Lu4 O20 2.180073 1_555
Lu4 O21 2.180073 1_555
Lu4 O8 2.180073 1_565
Lu4 O14 2.520895 1_555
Lu4 O13 2.520895 1_565
Lu4 O23 2.520895 1_555
Lu4 O16 2.520895 1_555
Lu5 O19 2.180073 1_555
Lu5 O20 2.180073 1_555
Lu5 O7 2.180073 1_556
Lu5 O22 2.180073 1_555
Lu5 O15 2.520895 1_555
Lu5 O23 2.520895 1_555
Lu5 O17 2.520895 1_555
Lu5 O12 2.520895 1_556
O0 Sb0 2.007188 1_555
O0 Sb1 2.182657 1_555
O1 Sb0 2.007188 1_555
O1 Sb2 2.182657 1_555
O2 Sb4 1.968593 1_555
O3 Sb3 1.968593 1_555
O4 Sb8 1.968593 1_655
O5 Sb2 1.968593 1_555
O6 Sb1 1.968593 1_555
O7 Sb4 1.968593 1_555
O8 Sb3 1.968593 1_555
O9 Sb7 2.007188 1_555
O9 Sb9 2.182657 1_655
O10 Sb5 2.007188 1_656
O10 Sb3 2.182657 1_555
O11 Sb6 2.007188 1_665
O11 Sb4 2.182657 1_555
O12 Sb5 2.007188 1_555
O12 Sb2 2.182657 1_555
O13 Sb6 2.007188 1_555
O13 Sb1 2.182657 1_555
O14 Sb7 2.007188 1_555
O14 Sb3 2.182657 1_565
O15 Sb7 2.007188 1_555
O15 Sb4 2.182657 1_556
O16 Sb5 2.007188 1_555
O16 Sb8 2.182657 1_555
O17 Sb6 2.007188 1_555
O17 Sb8 2.182657 1_555
O18 Sb1 1.968593 1_565
O19 Sb2 1.968593 1_556
O20 Sb8 1.968593 1_555
O21 Sb9 1.968593 1_555
O22 Sb9 1.968593 1_555
O23 Sb0 2.007188 1_566
O23 Sb9 2.182657 1_555
