# generated using pymatgen
data_LiSi
_symmetry_space_group_name_H-M   'P 1'
_cell_length_a   5.72687887
_cell_length_b   7.17577878
_cell_length_c   7.17599665
_cell_angle_alpha   80.84557317
_cell_angle_beta   66.46799305
_cell_angle_gamma   66.48374506
_symmetry_Int_Tables_number   1
_chemical_formula_structural   LiSi
_chemical_formula_sum   'Li8 Si8'
_cell_volume   247.91663067
_cell_formula_units_Z   8
loop_
 _symmetry_equiv_pos_site_id
 _symmetry_equiv_pos_as_xyz
  1  'x, y, z'
loop_
 _atom_site_type_symbol
 _atom_site_label
 _atom_site_symmetry_multiplicity
 _atom_site_fract_x
 _atom_site_fract_y
 _atom_site_fract_z
 _atom_site_occupancy
  Li  Li0  1  0.13397084  0.80427291  0.03466865  1
  Li  Li1  1  0.16856417  0.46684486  0.80476186  1
  Li  Li2  1  0.44058195  0.03285530  0.69510844  1
  Li  Li3  1  0.97277446  0.69531455  0.46734005  1
  Li  Li4  1  0.86602916  0.19572709  0.96533135  1
  Li  Li5  1  0.83143583  0.53315514  0.19523814  1
  Li  Li6  1  0.55941805  0.96714470  0.30489156  1
  Li  Li7  1  0.02722554  0.30468545  0.53265995  1
  Si  Si0  1  0.70561900  0.84220771  0.93619285  1
  Si  Si1  1  0.64158552  0.56394345  0.84216977  1
  Si  Si2  1  0.04793816  0.93622618  0.65774033  1
  Si  Si3  1  0.48409070  0.65777862  0.56373611  1
  Si  Si4  1  0.29438100  0.15779129  0.06380715  1
  Si  Si5  1  0.35841448  0.43605655  0.15783023  1
  Si  Si6  1  0.95206184  0.06377382  0.34225967  1
  Si  Si7  1  0.51590930  0.34222138  0.43626389  1
loop_
_geom_bond_atom_site_label_1
_geom_bond_atom_site_label_2
_geom_bond_distance
_geom_bond_site_symmetry_2
Li0 Si5 2.620786 1_555
Li0 Si1 2.623703 1_554
Li0 Si6 2.710795 1_465
Li0 Si0 2.716878 1_454
Li0 Si2 2.886589 1_554
Li1 Si3 2.619134 1_555
Li1 Si7 2.623302 1_555
Li1 Si4 2.715793 1_556
Li1 Si1 2.720305 1_455
Li1 Si0 2.878622 1_455
Li2 Si0 2.618212 1_545
Li2 Si4 2.625210 1_556
Li2 Si7 2.716018 1_555
Li2 Si2 2.719173 1_545
Li2 Si3 2.877399 1_545
Li3 Si2 2.618327 1_655
Li3 Si6 2.624875 1_565
Li3 Si3 2.716577 1_555
Li3 Si5 2.718569 1_655
Li3 Si1 2.875274 1_555
Li4 Si1 2.620786 1_555
Li4 Si5 2.623703 1_556
Li4 Si2 2.710795 1_645
Li4 Si4 2.716876 1_656
Li4 Si6 2.886589 1_556
Li5 Si7 2.619134 1_555
Li5 Si3 2.623302 1_555
Li5 Si0 2.715788 1_554
Li5 Si5 2.720305 1_655
Li5 Si4 2.878627 1_655
Li6 Si4 2.618211 1_565
Li6 Si0 2.625212 1_554
Li6 Si3 2.716018 1_555
Li6 Si6 2.719173 1_565
Li6 Si7 2.877399 1_565
Li7 Si6 2.618327 1_455
Li7 Si2 2.624875 1_545
Li7 Si7 2.716577 1_555
Li7 Si1 2.718569 1_455
Li7 Si5 2.875274 1_555
Si0 Si1 2.405694 1_555
Si0 Si2 2.406160 1_655
Si0 Si4 2.488976 1_566
Si1 Si3 2.405282 1_555
Si1 Si5 2.489162 1_556
Si2 Si3 2.405619 1_555
Si2 Si6 2.489300 1_465
Si3 Si7 2.488778 1_555
Si4 Si5 2.405701 1_555
Si4 Si6 2.406156 1_455
Si5 Si7 2.405282 1_555
Si6 Si7 2.405619 1_555
