# generated using pymatgen
data_FeOF
_symmetry_space_group_name_H-M   'P 1'
_cell_length_a   3.09247200
_cell_length_b   9.42739500
_cell_length_c   14.13770690
_cell_angle_alpha   89.90387819
_cell_angle_beta   90.00000000
_cell_angle_gamma   90.00000000
_symmetry_Int_Tables_number   1
_chemical_formula_structural   FeOF
_chemical_formula_sum   'Fe12 O12 F12'
_cell_volume   412.16949160
_cell_formula_units_Z   12
loop_
 _symmetry_equiv_pos_site_id
 _symmetry_equiv_pos_as_xyz
  1  'x, y, z'
loop_
 _atom_site_type_symbol
 _atom_site_label
 _atom_site_symmetry_multiplicity
 _atom_site_fract_x
 _atom_site_fract_y
 _atom_site_fract_z
 _atom_site_occupancy
  Fe  Fe0  1  0.00000000  0.00075100  0.00113600  1
  Fe  Fe1  1  0.00000000  0.49521600  0.01094900  1
  Fe  Fe2  1  0.50000000  0.24486200  0.15171000  1
  Fe  Fe3  1  0.50000000  0.74772900  0.14985900  1
  Fe  Fe4  1  0.00000000  0.00069400  0.33315400  1
  Fe  Fe5  1  0.00000000  0.49715800  0.34451900  1
  Fe  Fe6  1  0.50000000  0.73129900  0.49835300  1
  Fe  Fe7  1  0.50000000  0.27201900  0.50454800  1
  Fe  Fe8  1  0.00000000  0.99542800  0.67857900  1
  Fe  Fe9  1  0.00000000  0.50606700  0.65763500  1
  Fe  Fe10  1  0.50000000  0.22822800  0.83298100  1
  Fe  Fe11  1  0.50000000  0.77092000  0.83836600  1
  O  O0  1  0.50000000  0.40290100  0.06409100  1
  O  O1  1  0.50000000  0.90776300  0.06765200  1
  O  O2  1  0.00000000  0.15123800  0.10276000  1
  O  O3  1  0.00000000  0.65373400  0.09878500  1
  O  O4  1  0.50000000  0.39721300  0.39474700  1
  O  O5  1  0.00000000  0.65514400  0.43251500  1
  O  O6  1  0.00000000  0.34446700  0.57017600  1
  O  O7  1  0.50000000  0.60237500  0.60487400  1
  O  O8  1  0.50000000  0.89648000  0.72766100  1
  O  O9  1  0.00000000  0.15646400  0.76509700  1
  O  O10  1  0.00000000  0.84594800  0.90124700  1
  O  O11  1  0.50000000  0.09772000  0.93747100  1
  F  F0  1  0.00000000  0.35231700  0.23035600  1
  F  F1  1  0.00000000  0.84474500  0.23354000  1
  F  F2  1  0.50000000  0.10753300  0.26717500  1
  F  F3  1  0.50000000  0.60013100  0.26529700  1
  F  F4  1  0.50000000  0.90034100  0.40304200  1
  F  F5  1  0.00000000  0.15040000  0.43740100  1
  F  F6  1  0.00000000  0.85294000  0.56161400  1
  F  F7  1  0.50000000  0.09059600  0.59486000  1
  F  F8  1  0.50000000  0.40876600  0.73682000  1
  F  F9  1  0.00000000  0.64632600  0.77281100  1
  F  F10  1  0.00000000  0.35224400  0.89633700  1
  F  F11  1  0.50000000  0.59184500  0.93188200  1
loop_
_geom_bond_atom_site_label_1
_geom_bond_atom_site_label_2
_geom_bond_distance
_geom_bond_site_symmetry_2
Fe0 O11 2.008462 1_454
Fe0 O11 2.008462 1_554
Fe0 O1 2.010196 1_545
Fe0 O1 2.010196 1_445
Fe0 O2 2.020828 1_555
Fe0 O10 2.032497 1_544
Fe1 O0 1.926270 1_455
Fe1 O0 1.926270 1_555
Fe1 O3 1.944623 1_555
Fe2 O2 1.910720 1_555
Fe2 O2 1.910720 1_655
Fe2 O0 1.935989 1_555
Fe3 O1 1.902907 1_555
Fe3 O3 1.923434 1_555
Fe3 O3 1.923434 1_655
Fe5 O5 1.942217 1_555
Fe5 O4 1.944386 1_455
Fe5 O4 1.944386 1_555
Fe6 O7 1.933655 1_555
Fe6 O5 1.942914 1_655
Fe6 O5 1.942914 1_555
Fe7 O6 1.928814 1_655
Fe7 O6 1.928814 1_555
Fe7 O4 1.948485 1_555
Fe8 O8 1.933995 1_455
Fe8 O8 1.933995 1_555
Fe8 O9 1.951191 1_565
Fe9 O7 1.941472 1_455
Fe9 O7 1.941472 1_555
Fe9 O6 1.963703 1_555
Fe10 O11 1.920919 1_555
Fe10 O9 1.942115 1_555
Fe10 O9 1.942115 1_655
Fe11 O10 1.919261 1_655
Fe11 O10 1.919261 1_555
Fe11 O8 1.960745 1_555
F0 Fe5 2.115873 1_555
F0 Fe2 2.158032 1_555
F0 Fe2 2.158032 1_455
F1 Fe4 2.037587 1_565
F1 Fe3 2.151885 1_555
F1 Fe3 2.151885 1_455
F2 Fe4 2.066948 1_555
F2 Fe4 2.066948 1_655
F2 Fe2 2.081779 1_555
F3 Fe5 2.141034 1_555
F3 Fe5 2.141034 1_655
F3 Fe3 2.142912 1_555
F4 Fe4 2.063736 1_565
F4 Fe4 2.063736 1_665
F4 Fe6 2.085219 1_555
F5 Fe4 2.042298 1_555
F5 Fe7 2.147150 1_455
F5 Fe7 2.147150 1_555
F6 Fe6 2.123495 1_555
F6 Fe6 2.123495 1_455
F6 Fe8 2.132213 1_555
F7 Fe7 2.132648 1_555
F7 Fe8 2.143157 1_545
F7 Fe8 2.143157 1_645
F8 Fe9 2.117097 1_555
F8 Fe9 2.117097 1_655
F8 Fe10 2.176529 1_555
F9 Fe9 2.099305 1_555
F9 Fe11 2.152471 1_555
F9 Fe11 2.152471 1_455
F10 Fe1 2.109401 1_556
F10 Fe10 2.136249 1_555
F10 Fe10 2.136249 1_455
F11 Fe1 2.113483 1_556
F11 Fe1 2.113483 1_656
F11 Fe11 2.142550 1_555
