# generated using pymatgen
data_Li2VO2F
_symmetry_space_group_name_H-M   'P 1'
_cell_length_a   7.94527497
_cell_length_b   7.94527497
_cell_length_c   5.20720918
_cell_angle_alpha   89.83510783
_cell_angle_beta   89.83510783
_cell_angle_gamma   44.54366076
_symmetry_Int_Tables_number   1
_chemical_formula_structural   Li2VO2F
_chemical_formula_sum   'Li8 V4 O8 F4'
_cell_volume   230.57865471
_cell_formula_units_Z   4
loop_
 _symmetry_equiv_pos_site_id
 _symmetry_equiv_pos_as_xyz
  1  'x, y, z'
loop_
 _atom_site_type_symbol
 _atom_site_label
 _atom_site_symmetry_multiplicity
 _atom_site_fract_x
 _atom_site_fract_y
 _atom_site_fract_z
 _atom_site_occupancy
  Li  Li0  1  0.80908200  0.32585200  0.14904400  1
  Li  Li1  1  0.56968400  0.56968400  0.70094000  1
  Li  Li2  1  0.92247100  0.92247100  0.33619600  1
  Li  Li3  1  0.32585200  0.80908200  0.14904400  1
  Li  Li4  1  0.65559300  0.20059100  0.84351700  1
  Li  Li5  1  0.07706900  0.07706900  0.66200400  1
  Li  Li6  1  0.43057900  0.43057900  0.31514700  1
  Li  Li7  1  0.20059100  0.65559300  0.84351700  1
  V  V0  1  0.00872800  0.49788600  0.50456900  1
  V  V1  1  0.75186600  0.75186600  0.98623200  1
  V  V2  1  0.49788600  0.00872800  0.50456900  1
  V  V3  1  0.25067300  0.25067300  0.00419400  1
  O  O0  1  0.92588600  0.42761800  0.82881100  1
  O  O1  1  0.82543700  0.82543700  0.65194200  1
  O  O2  1  0.50065500  0.50065500  0.00558600  1
  O  O3  1  0.58017100  0.06384500  0.16882500  1
  O  O4  1  0.42761800  0.92588600  0.82881100  1
  O  O5  1  0.32698500  0.32698500  0.67567800  1
  O  O6  1  0.17697400  0.17697400  0.34158500  1
  O  O7  1  0.06384500  0.58017100  0.16882500  1
  F  F0  1  0.99932200  0.99932200  0.99937500  1
  F  F1  1  0.75846800  0.24433800  0.49957700  1
  F  F2  1  0.66945400  0.66945400  0.33236800  1
  F  F3  1  0.24433800  0.75846800  0.49957700  1
loop_
_geom_bond_atom_site_label_1
_geom_bond_atom_site_label_2
_geom_bond_distance
_geom_bond_site_symmetry_2
Li0 O2 1.909260 1_555
Li0 O0 2.312702 1_554
Li0 O6 2.455583 1_655
Li1 O2 1.880661 1_556
Li1 O0 2.275961 1_555
Li1 O4 2.275961 1_555
Li2 O1 2.173631 1_555
Li2 O7 2.251966 1_655
Li2 O3 2.251966 1_565
Li3 O2 1.909260 1_555
Li3 O4 2.312702 1_554
Li3 O6 2.455583 1_565
Li4 O2 1.932268 1_556
Li4 O5 2.204473 1_555
Li4 O3 2.306649 1_556
Li4 O1 2.444703 1_545
Li5 O6 2.219659 1_555
Li5 O0 2.278980 1_455
Li5 O4 2.278980 1_545
Li6 O2 1.910476 1_555
Li6 O3 2.356786 1_555
Li6 O7 2.356786 1_555
Li6 O5 2.413981 1_555
Li7 O2 1.932268 1_556
Li7 O5 2.204473 1_555
Li7 O7 2.306649 1_556
Li7 O1 2.444703 1_455
O0 V0 2.026720 1_655
O0 V1 2.036880 1_555
O0 V3 2.074723 1_656
O1 V0 2.021216 1_655
O1 V2 2.021216 1_565
O1 V1 2.046660 1_555
O3 V2 2.018126 1_555
O3 V1 2.023686 1_544
O3 V3 2.063556 1_555
O4 V2 2.026720 1_565
O4 V1 2.036880 1_555
O4 V3 2.074723 1_566
O5 V0 2.035538 1_555
O5 V2 2.035538 1_555
O5 V3 2.042953 1_556
O6 V2 2.038591 1_555
O6 V0 2.038591 1_555
O6 V3 2.061369 1_555
O7 V0 2.018126 1_555
O7 V1 2.023686 1_454
O7 V3 2.063556 1_555
F0 Li3 2.009468 1_656
F0 Li0 2.009468 1_566
F0 Li2 2.083495 1_556
F0 Li5 2.093034 1_665
F0 Li7 2.110549 1_655
F0 Li4 2.110549 1_565
F1 Li5 2.024815 1_655
F1 Li2 2.053722 1_545
F1 Li0 2.067149 1_555
F1 Li4 2.095097 1_555
F1 Li6 2.100014 1_555
F1 Li1 2.123917 1_555
F2 V2 2.167414 1_565
F2 V0 2.167414 1_655
F2 V1 2.168803 1_554
F2 Li0 2.299298 1_555
F2 Li3 2.299298 1_555
F2 Li1 2.412133 1_555
F3 Li5 2.024815 1_565
F3 Li2 2.053722 1_455
F3 Li3 2.067149 1_555
F3 Li7 2.095097 1_555
F3 Li6 2.100014 1_555
F3 Li1 2.123917 1_555
