# generated using pymatgen
data_Li4Mn3Fe2Co3O16
_symmetry_space_group_name_H-M   'P 1'
_cell_length_a   5.74732693
_cell_length_b   5.77345869
_cell_length_c   9.44751379
_cell_angle_alpha   89.95776834
_cell_angle_beta   90.03437241
_cell_angle_gamma   119.99565049
_symmetry_Int_Tables_number   1
_chemical_formula_structural   Li4Mn3Fe2Co3O16
_chemical_formula_sum   'Li4 Mn3 Fe2 Co3 O16'
_cell_volume   271.49949793
_cell_formula_units_Z   1
loop_
 _symmetry_equiv_pos_site_id
 _symmetry_equiv_pos_as_xyz
  1  'x, y, z'
loop_
 _atom_site_type_symbol
 _atom_site_label
 _atom_site_symmetry_multiplicity
 _atom_site_fract_x
 _atom_site_fract_y
 _atom_site_fract_z
 _atom_site_occupancy
  Li  Li0  1  0.33486000  0.66804500  0.89263300  1
  Li  Li1  1  0.00509400  0.00041900  0.99815800  1
  Li  Li2  1  0.00989000  0.00618100  0.49656000  1
  Li  Li3  1  0.66524500  0.32965500  0.38835500  1
  Mn  Mn0  1  0.66099300  0.83002600  0.21520900  1
  Mn  Mn1  1  0.83029900  0.66209400  0.71488300  1
  Mn  Mn2  1  0.83047300  0.16936400  0.71511800  1
  Fe  Fe0  1  0.32680100  0.66518200  0.49094500  1
  Fe  Fe1  1  0.66231500  0.33505700  0.99376400  1
  Co  Co0  1  0.16892400  0.82954000  0.21424300  1
  Co  Co1  1  0.16864700  0.33683300  0.21311500  1
  Co  Co2  1  0.33980100  0.17044300  0.71444000  1
  O  O0  1  0.16001700  0.83607000  0.60203100  1
  O  O1  1  0.03644700  0.51338900  0.32856000  1
  O  O2  1  0.33261000  0.66598900  0.10876300  1
  O  O3  1  0.00143700  0.00016300  0.30913800  1
  O  O4  1  0.00111600  0.00050500  0.81107000  1
  O  O5  1  0.15972500  0.32489400  0.60185200  1
  O  O6  1  0.48117500  0.96226700  0.33555000  1
  O  O7  1  0.47731800  0.51279500  0.33298100  1
  O  O8  1  0.32009700  0.16516300  0.10750700  1
  O  O9  1  0.67698000  0.83891200  0.60176200  1
  O  O10  1  0.51756900  0.48254700  0.83529200  1
  O  O11  1  0.51882300  0.03626800  0.83659100  1
  O  O12  1  0.66776000  0.33466200  0.60721000  1
  O  O13  1  0.83714900  0.67740100  0.10250500  1
  O  O14  1  0.96572300  0.48294600  0.83487800  1
  O  O15  1  0.84271200  0.16349000  0.10472600  1
loop_
_geom_bond_atom_site_label_1
_geom_bond_atom_site_label_2
_geom_bond_distance
_geom_bond_site_symmetry_2
Li0 O10 1.915495 1_555
Li0 O11 1.915546 1_565
Li0 O14 1.916583 1_455
Li0 O2 2.041928 1_556
Li1 O4 1.767654 1_555
Li1 O8 1.878035 1_556
Li1 O13 1.892104 1_446
Li1 O15 1.911042 1_456
Li2 O3 1.771199 1_555
Li2 O5 1.879968 1_555
Li2 O0 1.883286 1_545
Li2 O9 1.932533 1_445
Li3 O6 1.903787 1_545
Li3 O7 1.923180 1_555
Li3 O1 1.932261 1_655
Li3 O12 2.067800 1_555
Mn0 O3 1.912663 1_665
Mn0 O2 1.918906 1_555
Mn0 O6 1.932668 1_555
Mn0 O7 1.942182 1_555
Mn0 O13 1.957013 1_555
Mn0 O15 1.968428 1_565
Mn1 O4 1.921098 1_665
Mn1 O12 1.927974 1_555
Mn1 O10 1.933112 1_555
Mn1 O14 1.939814 1_555
Mn1 O0 1.958142 1_655
Mn1 O9 1.964038 1_555
Mn2 O4 1.920331 1_655
Mn2 O12 1.927271 1_555
Mn2 O11 1.934093 1_555
Mn2 O14 1.938287 1_555
Mn2 O5 1.958134 1_655
Mn2 O9 1.970803 1_545
Fe0 O0 1.985450 1_555
Fe0 O5 1.997908 1_555
Fe0 O9 2.033049 1_555
Fe0 O6 2.088226 1_555
Fe0 O1 2.107843 1_555
Fe0 O7 2.124624 1_555
Fe1 O13 1.996908 1_556
Fe1 O8 2.014280 1_556
Fe1 O15 2.044284 1_556
Fe1 O10 2.088921 1_555
Fe1 O11 2.107290 1_555
Fe1 O14 2.129694 1_555
Co0 O3 1.910813 1_565
Co0 O2 1.913220 1_555
Co0 O1 1.919978 1_555
Co0 O6 1.935217 1_555
Co0 O8 1.959916 1_565
Co0 O13 1.961164 1_455
Co1 O1 1.892861 1_555
Co1 O8 1.897514 1_555
Co1 O3 1.911912 1_555
Co1 O7 1.912836 1_555
Co1 O2 1.918107 1_555
Co1 O15 1.919368 1_455
Co2 O4 1.917363 1_555
Co2 O12 1.921465 1_555
Co2 O10 1.937842 1_555
Co2 O11 1.945426 1_555
Co2 O5 1.979330 1_555
Co2 O0 1.982297 1_545
