# generated using pymatgen
data_Li3Nb4SnO12
_symmetry_space_group_name_H-M   'P 1'
_cell_length_a   5.44345500
_cell_length_b   5.66445356
_cell_length_c   7.83443494
_cell_angle_alpha   93.09455370
_cell_angle_beta   90.08555864
_cell_angle_gamma   90.09361409
_symmetry_Int_Tables_number   1
_chemical_formula_structural   Li3Nb4SnO12
_chemical_formula_sum   'Li3 Nb4 Sn1 O12'
_cell_volume   241.21564027
_cell_formula_units_Z   1
loop_
 _symmetry_equiv_pos_site_id
 _symmetry_equiv_pos_as_xyz
  1  'x, y, z'
loop_
 _atom_site_type_symbol
 _atom_site_label
 _atom_site_symmetry_multiplicity
 _atom_site_fract_x
 _atom_site_fract_y
 _atom_site_fract_z
 _atom_site_occupancy
  Li  Li0  1  0.49558000  0.93618000  0.78428600  1
  Li  Li1  1  0.00414300  0.43122500  0.78663400  1
  Li  Li2  1  0.49676600  0.93047300  0.28221800  1
  Nb  Nb0  1  0.00838700  0.98582200  0.99461100  1
  Nb  Nb1  1  0.50009000  0.51786700  0.50277400  1
  Nb  Nb2  1  0.99985800  0.01909600  0.50736300  1
  Nb  Nb3  1  0.50435400  0.49210400  0.98227300  1
  Sn  Sn0  1  0.00559400  0.46912700  0.26214200  1
  O  O0  1  0.29235800  0.23643300  0.43305400  1
  O  O1  1  0.11077500  0.02792900  0.74180600  1
  O  O2  1  0.31037600  0.82725400  0.03710900  1
  O  O3  1  0.22167400  0.74927900  0.44557500  1
  O  O4  1  0.80200300  0.71116600  0.92880000  1
  O  O5  1  0.38444900  0.54312800  0.74104300  1
  O  O6  1  0.56124700  0.53292700  0.23703900  1
  O  O7  1  0.19241300  0.31439200  0.01655000  1
  O  O8  1  0.80707400  0.33590700  0.54332400  1
  O  O9  1  0.70174900  0.21909500  0.92852200  1
  O  O10  1  0.89666200  0.03325100  0.23672200  1
  O  O11  1  0.70444900  0.82814700  0.53775500  1
loop_
_geom_bond_atom_site_label_1
_geom_bond_atom_site_label_2
_geom_bond_distance
_geom_bond_site_symmetry_2
Li0 O1 2.188297 1_565
Li0 O9 2.213464 1_565
Li0 O11 2.297570 1_555
Li0 O5 2.313275 1_555
Li0 O2 2.335854 1_556
Li0 O4 2.417796 1_555
Li1 O4 2.187335 1_455
Li1 O5 2.199403 1_555
Li1 O7 2.204137 1_556
Li1 O8 2.226375 1_455
Li1 O9 2.352080 1_455
Li1 O1 2.365861 1_555
Li2 O2 2.220318 1_555
Li2 O3 2.253047 1_555
Li2 O10 2.285845 1_565
Li2 O6 2.288307 1_555
Li2 O0 2.329646 1_565
Li2 O11 2.396381 1_555
Nb0 O2 1.911906 1_556
Nb0 O4 1.963250 1_455
Nb0 O10 1.997215 1_466
Nb0 O1 2.084251 1_565
Nb0 O7 2.110883 1_566
Nb0 O9 2.208781 1_465
Nb1 O5 1.968825 1_555
Nb1 O8 1.998772 1_555
Nb1 O0 2.004157 1_555
Nb1 O3 2.069742 1_555
Nb1 O11 2.083823 1_555
Nb1 O6 2.115064 1_555
Nb2 O1 1.930617 1_655
Nb2 O11 1.958488 1_545
Nb2 O3 1.988982 1_645
Nb2 O8 2.086513 1_555
Nb2 O0 2.112675 1_655
Nb2 O10 2.198336 1_555
Nb3 O9 1.913080 1_555
Nb3 O7 1.998433 1_556
Nb3 O6 2.020217 1_556
Nb3 O5 2.034006 1_555
Nb3 O4 2.095712 1_555
Nb3 O2 2.196233 1_556
O0 Sn0 2.481528 1_555
O3 Sn0 2.389486 1_555
O6 Sn0 2.455382 1_655
O7 Sn0 2.308926 1_555
O8 Sn0 2.602676 1_655
O10 Sn0 2.535548 1_655
