# generated using pymatgen
data_KLaO2
_symmetry_space_group_name_H-M   'P 1'
_cell_length_a   6.56244073
_cell_length_b   6.56244073
_cell_length_c   6.56244117
_cell_angle_alpha   32.88466546
_cell_angle_beta   32.88466546
_cell_angle_gamma   32.88467589
_symmetry_Int_Tables_number   1
_chemical_formula_structural   KLaO2
_chemical_formula_sum   'K1 La1 O2'
_cell_volume   74.12803016
_cell_formula_units_Z   1
loop_
 _symmetry_equiv_pos_site_id
 _symmetry_equiv_pos_as_xyz
  1  'x, y, z'
loop_
 _atom_site_type_symbol
 _atom_site_label
 _atom_site_symmetry_multiplicity
 _atom_site_fract_x
 _atom_site_fract_y
 _atom_site_fract_z
 _atom_site_occupancy
  K  K0  1  0.00000000  0.00000000  0.00000000  1
  La  La0  1  0.50000000  0.50000000  0.50000000  1
  O  O0  1  0.76902246  0.76902246  0.76902246  1
  O  O1  1  0.23097754  0.23097754  0.23097754  1
loop_
_geom_bond_atom_site_label_1
_geom_bond_atom_site_label_2
_geom_bond_distance
_geom_bond_site_symmetry_2
K0 O0 2.868329 1_544
K0 O0 2.868329 1_454
K0 O1 2.868329 1_455
K0 O1 2.868329 1_545
K0 O1 2.868329 1_554
K0 O0 2.868329 1_445
La0 O0 2.456054 1_554
La0 O1 2.456054 1_556
La0 O0 2.456054 1_545
La0 O0 2.456054 1_455
La0 O1 2.456054 1_655
La0 O1 2.456054 1_565
