# generated using pymatgen
data_Sn2(SO4)3
_symmetry_space_group_name_H-M   'P 1'
_cell_length_a   9.28731500
_cell_length_b   8.72457700
_cell_length_c   15.30806129
_cell_angle_alpha   55.60630738
_cell_angle_beta   90.00000000
_cell_angle_gamma   90.00000000
_symmetry_Int_Tables_number   1
_chemical_formula_structural   Sn2(SO4)3
_chemical_formula_sum   'Sn8 S12 O48'
_cell_volume   1023.53140317
_cell_formula_units_Z   4
loop_
 _symmetry_equiv_pos_site_id
 _symmetry_equiv_pos_as_xyz
  1  'x, y, z'
loop_
 _atom_site_type_symbol
 _atom_site_label
 _atom_site_symmetry_multiplicity
 _atom_site_fract_x
 _atom_site_fract_y
 _atom_site_fract_z
 _atom_site_occupancy
  Sn  Sn0  1  0.96574600  0.36308100  0.89059600  1
  Sn  Sn1  1  0.46574600  0.63691900  0.60940400  1
  Sn  Sn2  1  0.02845700  0.87481500  0.38143800  1
  Sn  Sn3  1  0.52845700  0.12518500  0.11856200  1
  Sn  Sn4  1  0.47154300  0.87481500  0.88143800  1
  Sn  Sn5  1  0.97154300  0.12518500  0.61856200  1
  Sn  Sn6  1  0.53425400  0.36308100  0.39059600  1
  Sn  Sn7  1  0.03425400  0.63691900  0.10940400  1
  S  S0  1  0.73456000  0.56156100  0.48612500  1
  S  S1  1  0.63611800  0.28792000  0.82592400  1
  S  S2  1  0.89851600  0.96106500  0.13917900  1
  S  S3  1  0.13611800  0.71208000  0.67407600  1
  S  S4  1  0.39851600  0.03893500  0.36082100  1
  S  S5  1  0.23456000  0.43843900  0.01387500  1
  S  S6  1  0.76544000  0.56156100  0.98612500  1
  S  S7  1  0.60148400  0.96106500  0.63917900  1
  S  S8  1  0.86388200  0.28792000  0.32592400  1
  S  S9  1  0.10148400  0.03893500  0.86082100  1
  S  S10  1  0.36388200  0.71208000  0.17407600  1
  S  S11  1  0.26544000  0.43843900  0.51387500  1
  O  O0  1  0.14982000  0.57380900  0.45884100  1
  O  O1  1  0.09617900  0.15023600  0.90980000  1
  O  O2  1  0.33130300  0.45599100  0.59900400  1
  O  O3  1  0.39086800  0.82302400  0.21641100  1
  O  O4  1  0.62069100  0.51746400  0.56794500  1
  O  O5  1  0.79542900  0.34279300  0.80861700  1
  O  O6  1  0.59831300  0.19502700  0.93729800  1
  O  O7  1  0.01531100  0.90022800  0.21656500  1
  O  O8  1  0.75550300  0.94223600  0.18361600  1
  O  O9  1  0.78134000  0.75469200  0.43267000  1
  O  O10  1  0.55044600  0.46971200  0.76288100  1
  O  O11  1  0.05044600  0.53028800  0.73711900  1
  O  O12  1  0.92073900  0.16375300  0.05035600  1
  O  O13  1  0.42073900  0.83624700  0.44964400  1
  O  O14  1  0.28134000  0.24530800  0.06733000  1
  O  O15  1  0.25550300  0.05776400  0.31638400  1
  O  O16  1  0.09831300  0.80497300  0.56270200  1
  O  O17  1  0.51531100  0.09977200  0.28343500  1
  O  O18  1  0.29542900  0.65720700  0.69138300  1
  O  O19  1  0.12069100  0.48253600  0.93205500  1
  O  O20  1  0.83130300  0.54400900  0.90099600  1
  O  O21  1  0.59617900  0.84976400  0.59020000  1
  O  O22  1  0.89086800  0.17697600  0.28358900  1
  O  O23  1  0.64982000  0.42619100  0.04115900  1
  O  O24  1  0.35018000  0.57380900  0.95884100  1
  O  O25  1  0.10913200  0.82302400  0.71641100  1
  O  O26  1  0.40382100  0.15023600  0.40980000  1
  O  O27  1  0.16869700  0.45599100  0.09900400  1
  O  O28  1  0.87930900  0.51746400  0.06794500  1
  O  O29  1  0.70457100  0.34279300  0.30861700  1
  O  O30  1  0.48468900  0.90022800  0.71656500  1
  O  O31  1  0.90168700  0.19502700  0.43729800  1
  O  O32  1  0.74449700  0.94223600  0.68361600  1
  O  O33  1  0.71866000  0.75469200  0.93267000  1
  O  O34  1  0.57926100  0.16375300  0.55035600  1
  O  O35  1  0.07926100  0.83624700  0.94964400  1
  O  O36  1  0.94955400  0.46971200  0.26288100  1
  O  O37  1  0.44955400  0.53028800  0.23711900  1
  O  O38  1  0.21866000  0.24530800  0.56733000  1
  O  O39  1  0.24449700  0.05776400  0.81638400  1
  O  O40  1  0.98468900  0.09977200  0.78343500  1
  O  O41  1  0.40168700  0.80497300  0.06270200  1
  O  O42  1  0.20457100  0.65720700  0.19138300  1
  O  O43  1  0.37930900  0.48253600  0.43205500  1
  O  O44  1  0.60913200  0.17697600  0.78358900  1
  O  O45  1  0.66869700  0.54400900  0.40099600  1
  O  O46  1  0.90382100  0.84976400  0.09020000  1
  O  O47  1  0.85018000  0.42619100  0.54115900  1
loop_
_geom_bond_atom_site_label_1
_geom_bond_atom_site_label_2
_geom_bond_distance
_geom_bond_site_symmetry_2
O0 S11 1.460674 1_555
O0 Sn2 2.460816 1_555
O1 S9 1.526458 1_555
O1 Sn0 2.094156 1_455
O2 S11 1.523579 1_555
O2 Sn1 2.088067 1_555
O3 S10 1.458901 1_555
O3 Sn3 2.522911 1_565
O4 S0 1.513530 1_555
O4 Sn1 2.075332 1_555
O5 S1 1.531413 1_555
O5 Sn0 2.087871 1_555
O6 S1 1.458019 1_555
O6 Sn3 2.565450 1_556
O7 S2 1.466735 1_455
O7 Sn2 2.408707 1_555
O8 S2 1.458631 1_555
O8 Sn3 2.487980 1_565
O9 S0 1.462813 1_555
O9 Sn2 2.460105 1_655
O10 S1 1.533218 1_555
O10 Sn1 2.096349 1_555
O11 S3 1.533218 1_555
O11 Sn0 2.096349 1_455
O12 S2 1.517260 1_545
O12 Sn0 2.091689 1_554
O13 S4 1.517260 1_565
O13 Sn1 2.091689 1_555
O14 S5 1.462813 1_555
O14 Sn3 2.460105 1_555
O15 S4 1.458631 1_555
O15 Sn2 2.487980 1_545
O16 S3 1.458019 1_555
O16 Sn2 2.565450 1_555
O17 S4 1.466735 1_555
O17 Sn3 2.408707 1_555
O18 S3 1.531413 1_555
O18 Sn1 2.087871 1_555
O19 S5 1.513530 1_556
O19 Sn0 2.075332 1_455
O20 S6 1.523579 1_555
O20 Sn0 2.088067 1_555
O21 S7 1.526458 1_555
O21 Sn1 2.094156 1_555
O22 S8 1.458901 1_555
O22 Sn2 2.522911 1_645
O23 S6 1.460674 1_554
O23 Sn3 2.460816 1_555
O24 S5 1.460674 1_556
O24 Sn4 2.460816 1_555
O25 S3 1.458901 1_555
O25 Sn5 2.522911 1_465
O26 S4 1.526458 1_555
O26 Sn6 2.094156 1_555
O27 S5 1.523579 1_555
O27 Sn7 2.088067 1_555
O28 S6 1.513530 1_554
O28 Sn7 2.075332 1_655
O29 S8 1.531413 1_555
O29 Sn6 2.087871 1_555
O30 S7 1.466735 1_555
O30 Sn4 2.408707 1_555
O31 S8 1.458019 1_555
O31 Sn5 2.565450 1_555
O32 S7 1.458631 1_555
O32 Sn5 2.487980 1_565
O33 S6 1.462813 1_555
O33 Sn4 2.460105 1_555
O34 S7 1.517260 1_545
O34 Sn6 2.091689 1_555
O35 S9 1.517260 1_565
O35 Sn7 2.091689 1_556
O36 S8 1.533218 1_555
O36 Sn7 2.096349 1_655
O37 S10 1.533218 1_555
O37 Sn6 2.096349 1_555
O38 S11 1.462813 1_555
O38 Sn5 2.460105 1_455
O39 S9 1.458631 1_555
O39 Sn4 2.487980 1_545
O40 S9 1.466735 1_655
O40 Sn5 2.408707 1_555
O41 S10 1.458019 1_555
O41 Sn4 2.565450 1_554
O42 S10 1.531413 1_555
O42 Sn7 2.087871 1_555
O43 S11 1.513530 1_555
O43 Sn6 2.075332 1_555
O44 S1 1.458901 1_555
O44 Sn4 2.522911 1_545
O45 S0 1.523579 1_555
O45 Sn6 2.088067 1_555
O46 S2 1.526458 1_555
O46 Sn7 2.094156 1_655
O47 S0 1.460674 1_555
O47 Sn5 2.460816 1_555
