# generated using pymatgen
data_VPO5
_symmetry_space_group_name_H-M   'P 1'
_cell_length_a   5.23222462
_cell_length_b   5.23222462
_cell_length_c   6.99504851
_cell_angle_alpha   74.25139204
_cell_angle_beta   74.25139204
_cell_angle_gamma   101.27926871
_symmetry_Int_Tables_number   1
_chemical_formula_structural   VPO5
_chemical_formula_sum   'V2 P2 O10'
_cell_volume   169.73135820
_cell_formula_units_Z   2
loop_
 _symmetry_equiv_pos_site_id
 _symmetry_equiv_pos_as_xyz
  1  'x, y, z'
loop_
 _atom_site_type_symbol
 _atom_site_label
 _atom_site_symmetry_multiplicity
 _atom_site_fract_x
 _atom_site_fract_y
 _atom_site_fract_z
 _atom_site_occupancy
  V  V0  1  0.00000000  0.00000000  0.50000000  1
  V  V1  1  0.00000000  0.00000000  0.00000000  1
  P  P0  1  0.32775300  0.67224700  0.75000000  1
  P  P1  1  0.67224700  0.32775300  0.25000000  1
  O  O0  1  0.30112700  0.86398100  0.88425800  1
  O  O1  1  0.13601900  0.69887300  0.61574200  1
  O  O2  1  0.69887300  0.13601900  0.11574200  1
  O  O3  1  0.86398100  0.30112700  0.38425800  1
  O  O4  1  0.63079900  0.75172600  0.60119200  1
  O  O5  1  0.24827400  0.36920100  0.89880800  1
  O  O6  1  0.36920100  0.24827400  0.39880800  1
  O  O7  1  0.75172600  0.63079900  0.10119200  1
  O  O8  1  0.93670800  0.06329200  0.75000000  1
  O  O9  1  0.06329200  0.93670800  0.25000000  1
loop_
_geom_bond_atom_site_label_1
_geom_bond_atom_site_label_2
_geom_bond_distance
_geom_bond_site_symmetry_2
O0 P0 1.550120 1_555
O0 V1 1.924408 1_566
O1 P0 1.550120 1_555
O1 V0 1.924408 1_565
O2 P1 1.550120 1_555
O2 V1 1.924408 1_655
O3 P1 1.550120 1_555
O3 V0 1.924408 1_655
O4 P0 1.543287 1_555
O4 V0 1.922789 1_665
O5 P0 1.543287 1_555
O5 V1 1.922789 1_556
O6 P1 1.543287 1_555
O6 V0 1.922789 1_555
O7 P1 1.543287 1_555
O7 V1 1.922789 1_665
O8 V0 1.822196 1_655
O8 V1 1.822196 1_656
O9 V1 1.822196 1_565
O9 V0 1.822196 1_565
