# generated using pymatgen
data_K2Si3PbO10
_symmetry_space_group_name_H-M   'P 1'
_cell_length_a   11.89220500
_cell_length_b   6.67925800
_cell_length_c   13.30788934
_cell_angle_alpha   74.01527889
_cell_angle_beta   90.00000000
_cell_angle_gamma   90.00000000
_symmetry_Int_Tables_number   1
_chemical_formula_structural   K2Si3PbO10
_chemical_formula_sum   'K8 Si12 Pb4 O40'
_cell_volume   1016.18929661
_cell_formula_units_Z   4
loop_
 _symmetry_equiv_pos_site_id
 _symmetry_equiv_pos_as_xyz
  1  'x, y, z'
loop_
 _atom_site_type_symbol
 _atom_site_label
 _atom_site_symmetry_multiplicity
 _atom_site_fract_x
 _atom_site_fract_y
 _atom_site_fract_z
 _atom_site_occupancy
  K  K0  1  0.55284500  0.69437700  0.59014600  1
  K  K1  1  0.94715500  0.69437700  0.09014600  1
  K  K2  1  0.44715500  0.30562300  0.40985400  1
  K  K3  1  0.05284500  0.30562300  0.90985400  1
  K  K4  1  0.12035900  0.18088100  0.61952700  1
  K  K5  1  0.37964100  0.18088100  0.11952700  1
  K  K6  1  0.87964100  0.81911900  0.38047300  1
  K  K7  1  0.62035900  0.81911900  0.88047300  1
  Si  Si0  1  0.97060100  0.33761800  0.34037100  1
  Si  Si1  1  0.52939900  0.33761800  0.84037100  1
  Si  Si2  1  0.02939900  0.66238200  0.65962900  1
  Si  Si3  1  0.47060100  0.66238200  0.15962900  1
  Si  Si4  1  0.81347400  0.90992200  0.66361100  1
  Si  Si5  1  0.68652600  0.90992200  0.16361100  1
  Si  Si6  1  0.18652600  0.09007800  0.33638900  1
  Si  Si7  1  0.31347400  0.09007800  0.83638900  1
  Si  Si8  1  0.76384600  0.29846300  0.48725300  1
  Si  Si9  1  0.73615400  0.29846300  0.98725300  1
  Si  Si10  1  0.23615400  0.70153700  0.51274700  1
  Si  Si11  1  0.26384600  0.70153700  0.01274700  1
  Pb  Pb0  1  0.78810300  0.37765100  0.72585900  1
  Pb  Pb1  1  0.71189700  0.37765100  0.22585900  1
  Pb  Pb2  1  0.21189700  0.62234900  0.27414100  1
  Pb  Pb3  1  0.28810300  0.62234900  0.77414100  1
  O  O0  1  0.88921800  0.28049600  0.25312700  1
  O  O1  1  0.61078200  0.28049600  0.75312700  1
  O  O2  1  0.11078200  0.71950400  0.74687300  1
  O  O3  1  0.38921800  0.71950400  0.24687300  1
  O  O4  1  0.67550400  0.34040300  0.39058100  1
  O  O5  1  0.82449600  0.34040300  0.89058100  1
  O  O6  1  0.32449600  0.65959700  0.60941900  1
  O  O7  1  0.17550400  0.65959700  0.10941900  1
  O  O8  1  0.74223000  0.45662200  0.55948000  1
  O  O9  1  0.75777000  0.45662200  0.05948000  1
  O  O10  1  0.25777000  0.54337800  0.44052000  1
  O  O11  1  0.24223000  0.54337800  0.94052000  1
  O  O12  1  0.75101900  0.05073300  0.55582900  1
  O  O13  1  0.74898100  0.05073300  0.05582900  1
  O  O14  1  0.24898100  0.94926700  0.44417100  1
  O  O15  1  0.25101900  0.94926700  0.94417100  1
  O  O16  1  0.82743900  0.04593100  0.74829700  1
  O  O17  1  0.67256100  0.04593100  0.24829700  1
  O  O18  1  0.17256100  0.95406900  0.25170300  1
  O  O19  1  0.32743900  0.95406900  0.75170300  1
  O  O20  1  0.46815200  0.56403000  0.80021200  1
  O  O21  1  0.03184800  0.56403000  0.30021200  1
  O  O22  1  0.53184800  0.43597000  0.19978800  1
  O  O23  1  0.96815200  0.43597000  0.69978800  1
  O  O24  1  0.73902300  0.70222900  0.71502100  1
  O  O25  1  0.76097700  0.70222900  0.21502100  1
  O  O26  1  0.26097700  0.29777100  0.28497900  1
  O  O27  1  0.23902300  0.29777100  0.78497900  1
  O  O28  1  0.93766400  0.85394200  0.62157700  1
  O  O29  1  0.56233600  0.85394200  0.12157700  1
  O  O30  1  0.06233600  0.14605800  0.37842300  1
  O  O31  1  0.43766400  0.14605800  0.87842300  1
  O  O32  1  0.89582300  0.33628200  0.44520400  1
  O  O33  1  0.60417700  0.33628200  0.94520400  1
  O  O34  1  0.10417700  0.66371800  0.55479600  1
  O  O35  1  0.39582300  0.66371800  0.05479600  1
  O  O36  1  0.51612400  0.90611000  0.36092200  1
  O  O37  1  0.98387600  0.90611000  0.86092200  1
  O  O38  1  0.48387600  0.09389000  0.63907800  1
  O  O39  1  0.01612400  0.09389000  0.13907800  1
loop_
_geom_bond_atom_site_label_1
_geom_bond_atom_site_label_2
_geom_bond_distance
_geom_bond_site_symmetry_2
K0 O6 2.731533 1_555
K0 O24 2.777499 1_555
K0 O8 2.849164 1_555
K0 O20 2.871750 1_555
K0 O36 3.019962 1_555
K0 O38 3.028929 1_565
K0 O1 3.085242 1_555
K0 O12 3.290800 1_565
K1 O7 2.731533 1_655
K1 O25 2.777499 1_555
K1 O9 2.849164 1_555
K1 O21 2.871750 1_655
K1 O37 3.019962 1_554
K1 O39 3.028929 1_665
K1 O0 3.085242 1_555
K1 O13 3.290800 1_565
K2 O4 2.731533 1_555
K2 O26 2.777499 1_555
K2 O10 2.849164 1_555
K2 O22 2.871750 1_555
K2 O38 3.019962 1_555
K2 O36 3.028929 1_545
K2 O3 3.085242 1_555
K2 O14 3.290800 1_545
K3 O5 2.731533 1_455
K3 O27 2.777499 1_555
K3 O11 2.849164 1_555
K3 O23 2.871750 1_455
K3 O39 3.019962 1_556
K3 O37 3.028929 1_445
K3 O2 3.085242 1_555
K3 O15 3.290800 1_545
K4 O23 2.884870 1_455
K4 O27 2.897543 1_555
K4 O28 3.075210 1_445
K4 O2 3.083058 1_545
K4 O34 3.106380 1_555
K4 O19 3.160063 1_545
K4 O10 3.321267 1_555
K4 O30 3.352056 1_555
K5 O22 2.884870 1_555
K5 O26 2.897543 1_555
K5 O29 3.075210 1_545
K5 O3 3.083058 1_545
K5 O35 3.106380 1_555
K5 O18 3.160063 1_545
K5 O11 3.321267 1_554
K5 O31 3.352056 1_554
K6 O21 2.884870 1_655
K6 O25 2.897543 1_555
K6 O30 3.075210 1_665
K6 O0 3.083058 1_565
K6 O32 3.106380 1_555
K6 O17 3.160063 1_565
K6 O8 3.321267 1_555
K6 O28 3.352056 1_555
K7 O20 2.884870 1_555
K7 O24 2.897543 1_555
K7 O31 3.075210 1_565
K7 O1 3.083058 1_565
K7 O33 3.106380 1_555
K7 O16 3.160063 1_565
K7 O9 3.321267 1_556
K7 O29 3.352056 1_556
O0 Si0 1.635304 1_555
O0 Pb1 2.206777 1_555
O1 Si1 1.635304 1_555
O1 Pb0 2.206777 1_555
O2 Si2 1.635304 1_555
O2 Pb3 2.206777 1_555
O3 Si3 1.635304 1_555
O3 Pb2 2.206777 1_555
O4 Si8 1.624435 1_555
O4 Pb1 2.180401 1_555
O5 Si9 1.624435 1_555
O5 Pb0 2.180401 1_555
O6 Si10 1.624435 1_555
O6 Pb3 2.180401 1_555
O7 Si11 1.624435 1_555
O7 Pb2 2.180401 1_555
O8 Si8 1.632529 1_555
O8 Pb0 2.198879 1_555
O9 Si9 1.632529 1_554
O9 Pb1 2.198879 1_555
O10 Si10 1.632529 1_555
O10 Pb2 2.198879 1_555
O11 Si11 1.632529 1_556
O11 Pb3 2.198879 1_555
O12 Si4 1.658487 1_545
O12 Si8 1.662021 1_555
O13 Si5 1.658487 1_545
O13 Si9 1.662021 1_554
O14 Si6 1.658487 1_565
O14 Si10 1.662021 1_555
O15 Si7 1.658487 1_565
O15 Si11 1.662021 1_556
O16 Si4 1.639154 1_545
O16 Pb0 2.202881 1_555
O17 Si5 1.639154 1_545
O17 Pb1 2.202881 1_555
O18 Si6 1.639154 1_565
O18 Pb2 2.202881 1_555
O19 Si7 1.639154 1_565
O19 Pb3 2.202881 1_555
O20 Si1 1.630320 1_555
O20 Pb3 2.186852 1_555
O21 Si0 1.630320 1_455
O21 Pb2 2.186852 1_555
O22 Si3 1.630320 1_555
O22 Pb1 2.186852 1_555
O23 Si2 1.630320 1_655
O23 Pb0 2.186852 1_555
O24 Si4 1.629012 1_555
O24 Pb0 2.211159 1_555
O25 Si5 1.629012 1_555
O25 Pb1 2.211159 1_555
O26 Si6 1.629012 1_555
O26 Pb2 2.211159 1_555
O27 Si7 1.629012 1_555
O27 Pb3 2.211159 1_555
O28 Si2 1.651297 1_655
O28 Si4 1.658048 1_555
O29 Si3 1.651297 1_555
O29 Si5 1.658048 1_555
O30 Si0 1.651297 1_455
O30 Si6 1.658048 1_555
O31 Si1 1.651297 1_555
O31 Si7 1.658048 1_555
O32 Si0 1.652378 1_555
O32 Si8 1.662051 1_555
O33 Si1 1.652378 1_555
O33 Si9 1.662051 1_555
O34 Si2 1.652378 1_555
O34 Si10 1.662051 1_555
O35 Si3 1.652378 1_555
O35 Si11 1.662051 1_555
