# generated using pymatgen
data_Na6Mn2P(CO4)4
_symmetry_space_group_name_H-M   'P 1'
_cell_length_a   10.04797322
_cell_length_b   10.04797322
_cell_length_c   10.04797322
_cell_angle_alpha   60.00000000
_cell_angle_beta   60.00000000
_cell_angle_gamma   60.00000000
_symmetry_Int_Tables_number   1
_chemical_formula_structural   Na6Mn2P(CO4)4
_chemical_formula_sum   'Na12 Mn4 P2 C8 O32'
_cell_volume   717.33233639
_cell_formula_units_Z   2
loop_
 _symmetry_equiv_pos_site_id
 _symmetry_equiv_pos_as_xyz
  1  'x, y, z'
loop_
 _atom_site_type_symbol
 _atom_site_label
 _atom_site_symmetry_multiplicity
 _atom_site_fract_x
 _atom_site_fract_y
 _atom_site_fract_z
 _atom_site_occupancy
  Na  Na0  1  0.29213100  0.70786900  0.29213100  1
  Na  Na1  1  0.70786900  0.29213100  0.29213100  1
  Na  Na2  1  0.70786900  0.70786900  0.29213100  1
  Na  Na3  1  0.54213100  0.95786900  0.54213100  1
  Na  Na4  1  0.29213100  0.70786900  0.70786900  1
  Na  Na5  1  0.29213100  0.29213100  0.70786900  1
  Na  Na6  1  0.95786900  0.54213100  0.54213100  1
  Na  Na7  1  0.95786900  0.95786900  0.54213100  1
  Na  Na8  1  0.70786900  0.29213100  0.70786900  1
  Na  Na9  1  0.54213100  0.95786900  0.95786900  1
  Na  Na10  1  0.54213100  0.54213100  0.95786900  1
  Na  Na11  1  0.95786900  0.54213100  0.95786900  1
  Mn  Mn0  1  0.12500000  0.12500000  0.12500000  1
  Mn  Mn1  1  0.12500000  0.62500000  0.12500000  1
  Mn  Mn2  1  0.62500000  0.12500000  0.12500000  1
  Mn  Mn3  1  0.12500000  0.12500000  0.62500000  1
  P  P0  1  0.75000000  0.75000000  0.75000000  1
  P  P1  1  0.50000000  0.50000000  0.50000000  1
  C  C0  1  0.90692800  0.90692800  0.27921600  1
  C  C1  1  0.34307200  0.34307200  0.34307200  1
  C  C2  1  0.34307200  0.97078400  0.34307200  1
  C  C3  1  0.97078400  0.34307200  0.34307200  1
  C  C4  1  0.27921600  0.90692800  0.90692800  1
  C  C5  1  0.90692800  0.27921600  0.90692800  1
  C  C6  1  0.90692800  0.90692800  0.90692800  1
  C  C7  1  0.34307200  0.34307200  0.97078400  1
  O  O0  1  0.02389200  0.92742100  0.28069400  1
  O  O1  1  0.92742100  0.76799400  0.28069400  1
  O  O2  1  0.76799400  0.02389200  0.28069400  1
  O  O3  1  0.48200600  0.32257900  0.22610800  1
  O  O4  1  0.93971100  0.68676300  0.68676300  1
  O  O5  1  0.48200600  0.96930600  0.32257900  1
  O  O6  1  0.32257900  0.96930600  0.22610800  1
  O  O7  1  0.68676300  0.93971100  0.68676300  1
  O  O8  1  0.68676300  0.68676300  0.68676300  1
  O  O9  1  0.22610800  0.48200600  0.32257900  1
  O  O10  1  0.32257900  0.22610800  0.48200600  1
  O  O11  1  0.68676300  0.68676300  0.93971100  1
  O  O12  1  0.96930600  0.48200600  0.22610800  1
  O  O13  1  0.22610800  0.96930600  0.48200600  1
  O  O14  1  0.96930600  0.22610800  0.32257900  1
  O  O15  1  0.28069400  0.92742100  0.76799400  1
  O  O16  1  0.96930600  0.32257900  0.48200600  1
  O  O17  1  0.28069400  0.02389200  0.92742100  1
  O  O18  1  0.02389200  0.28069400  0.76799400  1
  O  O19  1  0.28069400  0.76799400  0.02389200  1
  O  O20  1  0.56323700  0.56323700  0.31028900  1
  O  O21  1  0.92742100  0.02389200  0.76799400  1
  O  O22  1  0.02389200  0.76799400  0.92742100  1
  O  O23  1  0.56323700  0.56323700  0.56323700  1
  O  O24  1  0.56323700  0.31028900  0.56323700  1
  O  O25  1  0.92742100  0.28069400  0.02389200  1
  O  O26  1  0.76799400  0.28069400  0.92742100  1
  O  O27  1  0.31028900  0.56323700  0.56323700  1
  O  O28  1  0.76799400  0.92742100  0.02389200  1
  O  O29  1  0.48200600  0.22610800  0.96930600  1
  O  O30  1  0.32257900  0.48200600  0.96930600  1
  O  O31  1  0.22610800  0.32257900  0.96930600  1
loop_
_geom_bond_atom_site_label_1
_geom_bond_atom_site_label_2
_geom_bond_distance
_geom_bond_site_symmetry_2
Na0 O27 2.416376 1_555
Na0 O20 2.416376 1_555
Na0 O19 2.500922 1_555
Na0 O0 2.500926 1_555
Na0 O6 2.508465 1_555
Na0 O9 2.508474 1_555
Na1 O24 2.416376 1_555
Na1 O20 2.416376 1_555
Na1 O2 2.500922 1_555
Na1 O25 2.500926 1_555
Na1 O14 2.508465 1_555
Na1 O3 2.508474 1_555
Na2 O20 2.416376 1_555
Na2 O23 2.416376 1_555
Na2 O28 2.500927 1_555
Na2 O1 2.500932 1_555
Na2 O5 2.508468 1_555
Na2 O12 2.508470 1_555
Na3 O7 2.416376 1_555
Na3 O8 2.416376 1_555
Na3 O10 2.500927 1_565
Na3 O5 2.500932 1_555
Na3 O15 2.508468 1_555
Na3 O2 2.508470 1_565
Na4 O27 2.416376 1_555
Na4 O23 2.416376 1_555
Na4 O22 2.500927 1_555
Na4 O15 2.500932 1_555
Na4 O30 2.508468 1_555
Na4 O13 2.508470 1_555
Na5 O24 2.416376 1_555
Na5 O27 2.416376 1_555
Na5 O18 2.500922 1_555
Na5 O17 2.500926 1_555
Na5 O31 2.508465 1_555
Na5 O10 2.508474 1_555
Na6 O4 2.416376 1_555
Na6 O8 2.416376 1_555
Na6 O9 2.500927 1_655
Na6 O16 2.500932 1_555
Na6 O1 2.508468 1_555
Na6 O18 2.508470 1_655
Na7 O7 2.416376 1_555
Na7 O4 2.416376 1_555
Na7 O13 2.500922 1_655
Na7 O14 2.500926 1_565
Na7 O0 2.508465 1_655
Na7 O21 2.508474 1_565
Na8 O24 2.416376 1_555
Na8 O23 2.416376 1_555
Na8 O21 2.500927 1_555
Na8 O26 2.500932 1_555
Na8 O16 2.508468 1_555
Na8 O29 2.508470 1_555
Na9 O7 2.416376 1_555
Na9 O11 2.416376 1_555
Na9 O29 2.500922 1_565
Na9 O6 2.500926 1_556
Na9 O17 2.508465 1_565
Na9 O28 2.508474 1_556
Na10 O11 2.416376 1_555
Na10 O8 2.416376 1_555
Na10 O3 2.500927 1_556
Na10 O30 2.500932 1_555
Na10 O26 2.508468 1_555
Na10 O19 2.508470 1_556
Na11 O11 2.416376 1_555
Na11 O4 2.416376 1_555
Na11 O12 2.500922 1_556
Na11 O31 2.500926 1_655
Na11 O25 2.508465 1_556
Na11 O22 2.508474 1_655
Mn0 O17 2.177745 1_554
Mn0 O25 2.177745 1_455
Mn0 O0 2.177745 1_545
Mn0 O6 2.177745 1_545
Mn0 O31 2.177745 1_554
Mn0 O14 2.177745 1_455
Mn1 O22 2.177745 1_554
Mn1 O9 2.177745 1_555
Mn1 O1 2.177751 1_455
Mn1 O30 2.177751 1_554
Mn1 O19 2.177753 1_555
Mn1 O12 2.177753 1_455
Mn2 O28 2.177745 1_545
Mn2 O3 2.177745 1_555
Mn2 O26 2.177751 1_554
Mn2 O5 2.177751 1_545
Mn2 O2 2.177753 1_555
Mn2 O29 2.177753 1_554
Mn3 O21 2.177745 1_455
Mn3 O10 2.177745 1_555
Mn3 O15 2.177751 1_545
Mn3 O16 2.177751 1_455
Mn3 O18 2.177753 1_555
Mn3 O13 2.177753 1_545
C0 O1 1.298584 1_555
C0 O2 1.298588 1_565
C0 O0 1.298594 1_655
C1 O10 1.298589 1_555
C1 O9 1.298589 1_555
C1 O3 1.298589 1_555
C2 O5 1.298584 1_555
C2 O13 1.298588 1_555
C2 O6 1.298594 1_555
C3 O16 1.298584 1_555
C3 O12 1.298588 1_555
C3 O14 1.298594 1_555
C4 O15 1.298584 1_555
C4 O19 1.298588 1_556
C4 O17 1.298594 1_565
C5 O26 1.298584 1_555
C5 O18 1.298588 1_655
C5 O25 1.298594 1_556
C6 O28 1.298589 1_556
C6 O21 1.298589 1_565
C6 O22 1.298589 1_655
C7 O30 1.298584 1_555
C7 O29 1.298588 1_555
C7 O31 1.298594 1_555
O4 P0 1.556415 1_555
O7 P0 1.556415 1_555
O8 P0 1.556415 1_555
O11 P0 1.556415 1_555
O20 P1 1.556415 1_555
O23 P1 1.556415 1_555
O24 P1 1.556415 1_555
O27 P1 1.556415 1_555
