# generated using pymatgen
data_Li4Ti2Mn3Fe3O16
_symmetry_space_group_name_H-M   'P 1'
_cell_length_a   5.89224500
_cell_length_b   5.91452242
_cell_length_c   9.52728729
_cell_angle_alpha   91.22922084
_cell_angle_beta   89.66303542
_cell_angle_gamma   119.49481137
_symmetry_Int_Tables_number   1
_chemical_formula_structural   Li4Ti2Mn3Fe3O16
_chemical_formula_sum   'Li4 Ti2 Mn3 Fe3 O16'
_cell_volume   288.92327382
_cell_formula_units_Z   1
loop_
 _symmetry_equiv_pos_site_id
 _symmetry_equiv_pos_as_xyz
  1  'x, y, z'
loop_
 _atom_site_type_symbol
 _atom_site_label
 _atom_site_symmetry_multiplicity
 _atom_site_fract_x
 _atom_site_fract_y
 _atom_site_fract_z
 _atom_site_occupancy
  Li  Li0  1  0.66403800  0.32134100  0.89747400  1
  Li  Li1  1  0.99879600  0.00418700  0.99424600  1
  Li  Li2  1  0.99884300  0.00717900  0.49461600  1
  Li  Li3  1  0.33768100  0.66203300  0.39642200  1
  Ti  Ti0  1  0.66794400  0.34023200  0.49428600  1
  Ti  Ti1  1  0.33218100  0.66442400  0.99463800  1
  Mn  Mn0  1  0.82993300  0.17321300  0.21547100  1
  Mn  Mn1  1  0.66056000  0.82833600  0.71371900  1
  Mn  Mn2  1  0.16877700  0.34390900  0.71605500  1
  Fe  Fe0  1  0.82864300  0.65981700  0.21455200  1
  Fe  Fe1  1  0.34030900  0.17172900  0.21504800  1
  Fe  Fe2  1  0.17404200  0.83515300  0.71605800  1
  O  O0  1  0.83400000  0.67207000  0.59304700  1
  O  O1  1  0.52474800  0.48042200  0.34664000  1
  O  O2  1  0.66990400  0.32457900  0.10524900  1
  O  O3  1  0.99587900  0.00761100  0.30658900  1
  O  O4  1  0.99693500  0.01238600  0.80534500  1
  O  O5  1  0.33635400  0.17248200  0.59699000  1
  O  O6  1  0.96405600  0.47285800  0.33744600  1
  O  O7  1  0.53264200  0.03997800  0.33995700  1
  O  O8  1  0.16405300  0.82840500  0.08873500  1
  O  O9  1  0.85400200  0.19795100  0.59238500  1
  O  O10  1  0.48296900  0.95218200  0.84392200  1
  O  O11  1  0.03597700  0.51252400  0.83777900  1
  O  O12  1  0.33583400  0.65630200  0.60868200  1
  O  O13  1  0.66380500  0.83753100  0.09571800  1
  O  O14  1  0.45208000  0.48836900  0.84765800  1
  O  O15  1  0.15531500  0.33309700  0.09911500  1
loop_
_geom_bond_atom_site_label_1
_geom_bond_atom_site_label_2
_geom_bond_distance
_geom_bond_site_symmetry_2
Li0 O10 1.957197 1_545
Li0 O2 1.979554 1_556
Li0 O11 1.994427 1_655
Li0 O14 2.000735 1_555
Li1 O4 1.801650 1_555
Li1 O15 1.947812 1_656
Li1 O8 1.971496 1_646
Li1 O13 1.976082 1_546
Li2 O3 1.791644 1_555
Li2 O9 1.939816 1_555
Li2 O0 1.981060 1_545
Li2 O5 1.982281 1_655
Li3 O1 1.931711 1_555
Li3 O6 1.994053 1_455
Li3 O12 2.023148 1_555
Li3 O7 2.030184 1_565
Mn0 O3 1.912730 1_555
Mn0 O6 1.912902 1_555
Mn0 O2 1.917439 1_555
Mn0 O7 1.937140 1_555
Mn0 O15 2.008390 1_655
Mn0 O13 2.050354 1_545
Mn1 O4 1.931431 1_565
Mn1 O12 1.938943 1_555
Mn1 O10 1.967436 1_555
Mn1 O0 2.022626 1_555
Mn1 O14 2.199977 1_555
Mn1 O9 2.248071 1_565
Mn2 O11 1.913079 1_555
Mn2 O14 1.913856 1_555
Mn2 O4 1.923563 1_455
Mn2 O12 1.925514 1_555
Mn2 O9 1.994732 1_455
Mn2 O5 2.052573 1_555
Fe0 O3 1.976892 1_565
Fe0 O2 1.996842 1_555
Fe0 O1 2.018851 1_555
Fe0 O6 2.040968 1_555
Fe0 O13 2.097428 1_555
Fe0 O8 2.102359 1_655
Fe1 O3 1.974152 1_455
Fe1 O2 1.992743 1_555
Fe1 O1 2.012538 1_555
Fe1 O7 2.057416 1_555
Fe1 O15 2.098298 1_555
Fe1 O8 2.117404 1_545
Fe2 O4 1.984924 1_465
Fe2 O12 2.002355 1_555
Fe2 O10 2.006429 1_555
Fe2 O11 2.050152 1_555
Fe2 O5 2.094647 1_565
Fe2 O0 2.096290 1_455
O0 Ti0 1.932713 1_555
O1 Ti0 2.032488 1_555
O5 Ti0 1.967117 1_555
O6 Ti0 2.136418 1_555
O7 Ti0 2.111589 1_555
O8 Ti1 1.903699 1_554
O9 Ti0 1.933334 1_555
O10 Ti1 2.085362 1_555
O11 Ti1 2.125010 1_555
O13 Ti1 1.950301 1_554
O14 Ti1 2.048035 1_555
O15 Ti1 1.994385 1_554
