# generated using pymatgen
data_SrV2P2(H4O7)2
_symmetry_space_group_name_H-M   'P 1'
_cell_length_a   6.43782076
_cell_length_b   6.43782076
_cell_length_c   13.13046363
_cell_angle_alpha   82.54071025
_cell_angle_beta   82.54071025
_cell_angle_gamma   90.03512842
_symmetry_Int_Tables_number   1
_chemical_formula_structural   SrV2P2(H4O7)2
_chemical_formula_sum   'Sr2 V4 P4 H16 O28'
_cell_volume   534.94290483
_cell_formula_units_Z   2
loop_
 _symmetry_equiv_pos_site_id
 _symmetry_equiv_pos_as_xyz
  1  'x, y, z'
loop_
 _atom_site_type_symbol
 _atom_site_label
 _atom_site_symmetry_multiplicity
 _atom_site_fract_x
 _atom_site_fract_y
 _atom_site_fract_z
 _atom_site_occupancy
  Sr  Sr0  1  0.45542400  0.06791100  0.77915500  1
  Sr  Sr1  1  0.06791100  0.45542400  0.27915500  1
  V  V0  1  0.24734900  0.02647300  0.48123500  1
  V  V1  1  0.02647300  0.24734900  0.98123500  1
  V  V2  1  0.73726200  0.49761700  0.56539800  1
  V  V3  1  0.49761700  0.73726200  0.06539800  1
  P  P0  1  0.73366200  0.01129600  0.52514200  1
  P  P1  1  0.01129600  0.73366200  0.02514200  1
  P  P2  1  0.24076500  0.51192500  0.52326400  1
  P  P3  1  0.51192500  0.24076500  0.02326400  1
  H  H0  1  0.36146900  0.06985000  0.23216500  1
  H  H1  1  0.06985000  0.36146900  0.73216500  1
  H  H2  1  0.13703400  0.99023600  0.28213700  1
  H  H3  1  0.99023600  0.13703400  0.78213700  1
  H  H4  1  0.71302600  0.40262900  0.83225600  1
  H  H5  1  0.40262900  0.71302600  0.33225600  1
  H  H6  1  0.70975100  0.61999800  0.76367400  1
  H  H7  1  0.61999800  0.70975100  0.26367400  1
  H  H8  1  0.92782900  0.83741500  0.83028000  1
  H  H9  1  0.83741500  0.92782900  0.33028000  1
  H  H10  1  0.92605700  0.88583600  0.70849700  1
  H  H11  1  0.88583600  0.92605700  0.20849700  1
  H  H12  1  0.30955900  0.68886700  0.69430900  1
  H  H13  1  0.68886700  0.30955900  0.19430900  1
  H  H14  1  0.37304000  0.59983700  0.80057500  1
  H  H15  1  0.59983700  0.37304000  0.30057500  1
  O  O0  1  0.21512600  0.99972100  0.60882300  1
  O  O1  1  0.99972100  0.21512600  0.10882300  1
  O  O2  1  0.55947200  0.01964400  0.45446000  1
  O  O3  1  0.01964400  0.55947200  0.95446000  1
  O  O4  1  0.94365400  0.04936900  0.45248800  1
  O  O5  1  0.04936900  0.94365400  0.95248800  1
  O  O6  1  0.25710100  0.34458300  0.44719500  1
  O  O7  1  0.34458300  0.25710100  0.94719500  1
  O  O8  1  0.24623600  0.72361800  0.44971300  1
  O  O9  1  0.72361800  0.24623600  0.94971300  1
  O  O10  1  0.79272000  0.51681100  0.43904100  1
  O  O11  1  0.51681100  0.79272000  0.93904100  1
  O  O12  1  0.73208200  0.79662200  0.59496500  1
  O  O13  1  0.79662200  0.73208200  0.09496500  1
  O  O14  1  0.03624600  0.48547400  0.60124700  1
  O  O15  1  0.48547400  0.03624600  0.10124700  1
  O  O16  1  0.42051500  0.49859400  0.59119500  1
  O  O17  1  0.49859400  0.42051500  0.09119500  1
  O  O18  1  0.70254400  0.17834800  0.60261100  1
  O  O19  1  0.17834800  0.70254400  0.10261100  1
  O  O20  1  0.25235500  0.08631100  0.29146800  1
  O  O21  1  0.08631100  0.25235500  0.79146800  1
  O  O22  1  0.67136300  0.47140100  0.76519800  1
  O  O23  1  0.47140100  0.67136300  0.26519800  1
  O  O24  1  0.84703100  0.90263000  0.77617300  1
  O  O25  1  0.90263000  0.84703100  0.27617300  1
  O  O26  1  0.29888200  0.71644900  0.76640300  1
  O  O27  1  0.71644900  0.29888200  0.26640300  1
loop_
_geom_bond_atom_site_label_1
_geom_bond_atom_site_label_2
_geom_bond_distance
_geom_bond_site_symmetry_2
H0 O20 0.995242 1_555
H1 O21 0.995242 1_555
H2 O20 0.995732 1_565
H3 O21 0.995732 1_655
H4 O22 1.001745 1_555
H4 O9 1.738147 1_555
H5 O23 1.001745 1_555
H5 O8 1.738147 1_555
H6 O22 0.984933 1_555
H7 O23 0.984933 1_555
H8 O24 0.985063 1_555
H9 O25 0.985063 1_555
H10 O24 0.983764 1_555
H11 O25 0.983764 1_555
H12 O26 0.979348 1_555
H13 O27 0.979348 1_555
H14 O26 0.980532 1_555
H15 O27 0.980532 1_555
O0 V0 1.647452 1_565
O0 Sr0 2.956425 1_565
O1 V1 1.647452 1_654
O1 Sr1 2.956425 1_655
O2 P0 1.542443 1_555
O2 V0 1.995968 1_555
O3 P1 1.542443 1_556
O3 V1 1.995968 1_555
O4 P0 1.549771 1_555
O4 V0 2.040655 1_655
O5 P1 1.549771 1_556
O5 V1 2.040655 1_565
O6 P2 1.556140 1_555
O6 V0 2.037804 1_555
O6 Sr1 2.674147 1_555
O7 P3 1.556140 1_556
O7 V1 2.037804 1_555
O7 Sr0 2.674147 1_555
O8 P2 1.562255 1_555
O8 V0 2.045257 1_565
O9 P3 1.562255 1_556
O9 V1 2.045257 1_655
O10 V2 1.639619 1_555
O10 Sr1 2.636820 1_655
O11 V3 1.639619 1_556
O11 Sr0 2.636820 1_565
O12 P0 1.555388 1_565
O12 V2 2.011960 1_555
O13 P1 1.555388 1_655
O13 V3 2.011960 1_555
O14 P2 1.554176 1_555
O14 V2 2.039224 1_455
O15 P3 1.554176 1_555
O15 V3 2.039224 1_545
O16 P2 1.546066 1_555
O16 V2 2.023408 1_555
O17 P3 1.546066 1_555
O17 V3 2.023408 1_555
O18 P0 1.569338 1_555
O18 V2 2.055160 1_555
O18 Sr0 2.650142 1_555
O19 P1 1.569338 1_555
O19 V3 2.055160 1_555
O19 Sr1 2.650142 1_555
O20 V0 2.467399 1_555
O20 Sr1 2.652617 1_555
O21 V1 2.467399 1_555
O21 Sr0 2.652617 1_555
O22 Sr0 2.918819 1_555
O23 Sr1 2.918819 1_555
O24 Sr0 2.734618 1_565
O25 Sr1 2.734618 1_655
O26 Sr0 2.510506 1_565
O27 Sr1 2.510506 1_655
