# generated using pymatgen
data_Li5Ti4Co3O16
_symmetry_space_group_name_H-M   'P 1'
_cell_length_a   8.31615300
_cell_length_b   8.42403951
_cell_length_c   8.43526573
_cell_angle_alpha   90.44151874
_cell_angle_beta   90.24814108
_cell_angle_gamma   90.03426576
_symmetry_Int_Tables_number   1
_chemical_formula_structural   Li5Ti4Co3O16
_chemical_formula_sum   'Li10 Ti8 Co6 O32'
_cell_volume   590.91440869
_cell_formula_units_Z   2
loop_
 _symmetry_equiv_pos_site_id
 _symmetry_equiv_pos_as_xyz
  1  'x, y, z'
loop_
 _atom_site_type_symbol
 _atom_site_label
 _atom_site_symmetry_multiplicity
 _atom_site_fract_x
 _atom_site_fract_y
 _atom_site_fract_z
 _atom_site_occupancy
  Li  Li0  1  0.88486800  0.12181300  0.38213000  1
  Li  Li1  1  0.75592400  0.24946300  0.75072200  1
  Li  Li2  1  0.75388700  0.74969400  0.25690000  1
  Li  Li3  1  0.62370500  0.87444600  0.87371100  1
  Li  Li4  1  0.35982500  0.37760800  0.61938900  1
  Li  Li5  1  0.36083400  0.62042000  0.37975100  1
  Li  Li6  1  0.12885800  0.37841000  0.86665800  1
  Li  Li7  1  0.12794000  0.62379200  0.13384000  1
  Li  Li8  1  0.11909600  0.13794200  0.61673800  1
  Li  Li9  1  0.11995700  0.87145100  0.37282400  1
  Ti  Ti0  1  0.88925600  0.38428500  0.12358600  1
  Ti  Ti1  1  0.87734300  0.62004800  0.88158800  1
  Ti  Ti2  1  0.87690800  0.89670800  0.60419000  1
  Ti  Ti3  1  0.63300000  0.11139200  0.12018100  1
  Ti  Ti4  1  0.61880400  0.37693900  0.38748500  1
  Ti  Ti5  1  0.61175700  0.62408600  0.62101500  1
  Ti  Ti6  1  0.37955900  0.13098600  0.85798600  1
  Ti  Ti7  1  0.37485300  0.86162000  0.13499300  1
  Co  Co0  1  0.99816500  0.50024500  0.50028900  1
  Co  Co1  1  0.49646600  0.49622500  0.99797800  1
  Co  Co2  1  0.50172300  0.99700000  0.49551100  1
  Co  Co3  1  0.25308400  0.24922200  0.24922500  1
  Co  Co4  1  0.24471900  0.75398100  0.75476200  1
  Co  Co5  1  0.00638700  0.99803900  0.99650900  1
  O  O0  1  0.88317400  0.39522000  0.89559300  1
  O  O1  1  0.88399900  0.88188800  0.39392600  1
  O  O2  1  0.88102500  0.10664600  0.62318100  1
  O  O3  1  0.87961000  0.60891400  0.10847900  1
  O  O4  1  0.88070200  0.86500800  0.87718700  1
  O  O5  1  0.86015700  0.37634100  0.36046300  1
  O  O6  1  0.86546900  0.13301000  0.11462200  1
  O  O7  1  0.86118900  0.63137200  0.64029700  1
  O  O8  1  0.63622300  0.36360300  0.13401300  1
  O  O9  1  0.63396600  0.86253100  0.62170500  1
  O  O10  1  0.63820300  0.62185600  0.86377200  1
  O  O11  1  0.61971300  0.13548600  0.35956500  1
  O  O12  1  0.61944800  0.39169500  0.60804100  1
  O  O13  1  0.60692300  0.89272000  0.12234200  1
  O  O14  1  0.60444500  0.11980500  0.89603700  1
  O  O15  1  0.61584700  0.60506100  0.39590300  1
  O  O16  1  0.38309500  0.11608300  0.11664800  1
  O  O17  1  0.38572600  0.63464200  0.63688200  1
  O  O18  1  0.38767700  0.37129500  0.36726700  1
  O  O19  1  0.36860000  0.88621400  0.88644300  1
  O  O20  1  0.38164900  0.64041700  0.11927900  1
  O  O21  1  0.38086500  0.11793900  0.64066400  1
  O  O22  1  0.37727800  0.35759800  0.87833800  1
  O  O23  1  0.37454800  0.87800800  0.35593100  1
  O  O24  1  0.13595100  0.12106400  0.88234700  1
  O  O25  1  0.11823500  0.61857000  0.38023800  1
  O  O26  1  0.13574000  0.88109000  0.12111800  1
  O  O27  1  0.11722300  0.38013400  0.62050500  1
  O  O28  1  0.13680400  0.13167300  0.36998400  1
  O  O29  1  0.11528900  0.62903500  0.86961900  1
  O  O30  1  0.11438100  0.37102400  0.13130500  1
  O  O31  1  0.11993100  0.86820400  0.63038200  1
loop_
_geom_bond_atom_site_label_1
_geom_bond_atom_site_label_2
_geom_bond_distance
_geom_bond_site_symmetry_2
Li0 O1 2.024361 1_545
Li0 O2 2.038709 1_555
Li0 O28 2.099710 1_655
Li0 O5 2.163162 1_555
Li0 O11 2.215589 1_555
Li0 O6 2.264258 1_555
Li1 O2 1.917933 1_555
Li1 O0 2.021129 1_555
Li1 O12 2.045553 1_555
Li1 O14 2.077204 1_555
Li2 O1 1.927380 1_555
Li2 O3 2.014187 1_555
Li2 O15 2.051615 1_555
Li2 O13 2.060221 1_555
Li3 O14 2.080363 1_565
Li3 O13 2.106964 1_556
Li3 O19 2.127005 1_555
Li3 O9 2.129415 1_555
Li3 O10 2.132337 1_555
Li3 O4 2.138835 1_555
Li4 O27 2.017702 1_555
Li4 O18 2.140546 1_555
Li4 O12 2.164824 1_555
Li4 O17 2.179629 1_555
Li4 O22 2.196274 1_555
Li4 O21 2.203190 1_555
Li5 O25 2.017563 1_555
Li5 O18 2.112478 1_555
Li5 O15 2.128587 1_555
Li5 O17 2.180299 1_555
Li5 O23 2.183713 1_555
Li5 O20 2.212414 1_555
Li6 O0 2.063541 1_455
Li6 O22 2.075408 1_555
Li6 O27 2.078364 1_555
Li6 O29 2.114317 1_555
Li6 O24 2.173766 1_555
Li6 O30 2.237474 1_556
Li7 O3 2.078887 1_455
Li7 O25 2.081151 1_555
Li7 O20 2.118599 1_555
Li7 O30 2.132182 1_555
Li7 O26 2.171913 1_555
Li7 O29 2.231579 1_554
Li8 O2 1.998183 1_455
Li8 O27 2.040307 1_555
Li8 O28 2.087539 1_555
Li8 O21 2.192082 1_555
Li8 O24 2.249853 1_555
Li8 O31 2.276095 1_545
Li9 O1 1.973038 1_455
Li9 O23 2.123337 1_555
Li9 O26 2.129997 1_555
Li9 O25 2.131720 1_555
Li9 O31 2.172954 1_555
Li9 O28 2.196831 1_565
Co0 O25 1.743333 1_655
Co0 O27 1.743762 1_655
Co0 O5 1.940537 1_555
Co0 O7 1.976256 1_555
Co1 O22 1.826600 1_555
Co1 O20 1.850622 1_556
Co1 O10 1.954351 1_555
Co1 O8 1.981278 1_556
Co2 O23 1.865299 1_555
Co2 O21 1.881473 1_565
Co2 O9 1.906746 1_555
Co2 O11 1.915147 1_565
Co3 O28 1.725170 1_555
Co3 O18 1.809685 1_555
Co3 O30 1.838457 1_555
Co3 O16 1.915758 1_555
Co4 O31 1.763775 1_555
Co4 O29 1.796796 1_555
Co4 O17 1.835911 1_555
Co4 O19 1.872334 1_555
Co5 O24 1.784764 1_565
Co5 O26 1.800006 1_556
Co5 O4 1.825793 1_455
Co5 O6 1.911283 1_466
O0 Ti1 1.899184 1_555
O0 Ti0 1.926542 1_556
O1 Ti2 1.778297 1_555
O2 Ti2 1.774833 1_545
O3 Ti0 1.899268 1_555
O3 Ti1 1.916916 1_554
O4 Ti1 2.064347 1_555
O4 Ti2 2.320358 1_555
O5 Ti0 2.015379 1_555
O5 Ti4 2.021015 1_555
O6 Ti3 1.942500 1_555
O6 Ti0 2.126590 1_555
O7 Ti1 2.042168 1_555
O7 Ti5 2.080811 1_555
O7 Ti2 2.261960 1_555
O8 Ti0 2.113624 1_555
O8 Ti3 2.127085 1_555
O8 Ti4 2.145715 1_555
O9 Ti5 2.016995 1_555
O9 Ti2 2.046717 1_555
O10 Ti1 1.993822 1_555
O10 Ti5 2.058780 1_555
O11 Ti3 2.031377 1_555
O11 Ti4 2.045818 1_555
O12 Ti4 1.863625 1_555
O12 Ti5 1.960982 1_555
O13 Ti3 1.854932 1_565
O13 Ti7 1.950965 1_555
O14 Ti6 1.898675 1_555
O14 Ti3 1.906413 1_556
O15 Ti5 1.904852 1_555
O15 Ti4 1.922649 1_555
O16 Ti3 2.078736 1_555
O16 Ti7 2.151446 1_545
O16 Ti6 2.186529 1_554
O17 Ti5 1.887146 1_555
O18 Ti4 1.929428 1_555
O19 Ti6 2.079720 1_565
O19 Ti7 2.108806 1_556
O20 Ti7 1.868018 1_555
O21 Ti6 1.835695 1_555
O22 Ti6 1.915487 1_555
O23 Ti7 1.867729 1_555
O24 Ti6 2.038891 1_555
O26 Ti7 1.998350 1_555
O29 Ti1 1.983236 1_455
O30 Ti0 1.876449 1_455
O31 Ti2 2.046584 1_455
