# generated using pymatgen
data_Li4Ti3Mn2Nb3O16
_symmetry_space_group_name_H-M   'P 1'
_cell_length_a   6.09230607
_cell_length_b   6.09230607
_cell_length_c   10.12993531
_cell_angle_alpha   89.68297505
_cell_angle_beta   89.68297505
_cell_angle_gamma   59.29795280
_symmetry_Int_Tables_number   1
_chemical_formula_structural   Li4Ti3Mn2Nb3O16
_chemical_formula_sum   'Li4 Ti3 Mn2 Nb3 O16'
_cell_volume   323.27783263
_cell_formula_units_Z   1
loop_
 _symmetry_equiv_pos_site_id
 _symmetry_equiv_pos_as_xyz
  1  'x, y, z'
loop_
 _atom_site_type_symbol
 _atom_site_label
 _atom_site_symmetry_multiplicity
 _atom_site_fract_x
 _atom_site_fract_y
 _atom_site_fract_z
 _atom_site_occupancy
  Li  Li0  1  0.66666300  0.66666300  0.89581100  1
  Li  Li1  1  0.00698200  0.00698200  0.99656700  1
  Li  Li2  1  0.00479300  0.00479300  0.49731900  1
  Li  Li3  1  0.33154900  0.33154900  0.38836400  1
  Ti  Ti0  1  0.83109100  0.33703000  0.21601400  1
  Ti  Ti1  1  0.33703000  0.83109100  0.21601400  1
  Ti  Ti2  1  0.16427000  0.16427000  0.72160600  1
  Mn  Mn0  1  0.67245200  0.67245200  0.49539500  1
  Mn  Mn1  1  0.33300200  0.33300200  0.00057300  1
  Nb  Nb0  1  0.83127000  0.83127000  0.21495900  1
  Nb  Nb1  1  0.64556700  0.18832700  0.71095400  1
  Nb  Nb2  1  0.18832700  0.64556700  0.71095400  1
  O  O0  1  0.84027900  0.31509100  0.60666300  1
  O  O1  1  0.51820500  0.51820500  0.32339300  1
  O  O2  1  0.66586900  0.66586900  0.10598600  1
  O  O3  1  0.00233000  0.00233000  0.31622600  1
  O  O4  1  0.00387400  0.00387400  0.81527700  1
  O  O5  1  0.31509100  0.84027900  0.60666300  1
  O  O6  1  0.96862400  0.51183900  0.32753200  1
  O  O7  1  0.51183900  0.96862400  0.32753200  1
  O  O8  1  0.15489100  0.15489100  0.10974000  1
  O  O9  1  0.84709700  0.84709700  0.59886700  1
  O  O10  1  0.47962500  0.03227800  0.82503600  1
  O  O11  1  0.03227800  0.47962500  0.82503600  1
  O  O12  1  0.31463600  0.31463600  0.59626600  1
  O  O13  1  0.69160600  0.15748600  0.10561900  1
  O  O14  1  0.48470500  0.48470500  0.84782400  1
  O  O15  1  0.15748600  0.69160600  0.10561900  1
loop_
_geom_bond_atom_site_label_1
_geom_bond_atom_site_label_2
_geom_bond_distance
_geom_bond_site_symmetry_2
Li0 O14 1.990181 1_555
Li0 O10 2.042910 1_565
Li0 O11 2.042910 1_655
Li0 O2 2.129022 1_556
Li1 O4 1.836960 1_555
Li1 O8 1.946877 1_556
Li1 O15 1.985311 1_546
Li1 O13 1.985311 1_456
Li2 O3 1.834812 1_555
Li2 O9 1.955719 1_445
Li2 O0 1.970089 1_455
Li2 O5 1.970089 1_545
Li3 O6 2.000642 1_455
Li3 O7 2.000642 1_545
Li3 O1 2.079274 1_555
Li3 O12 2.112499 1_555
Mn0 O9 2.131549 1_555
Mn0 O0 2.183650 1_555
Mn0 O5 2.183650 1_555
Mn0 O6 2.299187 1_555
Mn0 O7 2.299187 1_555
Mn0 O1 2.395826 1_555
Mn1 O15 2.162490 1_555
Mn1 O13 2.162490 1_555
Mn1 O8 2.180281 1_555
Mn1 O14 2.223335 1_554
Mn1 O10 2.379864 1_554
Mn1 O11 2.379864 1_554
Nb0 O6 2.027544 1_555
Nb0 O7 2.027544 1_555
Nb0 O13 2.039570 1_565
Nb0 O15 2.039570 1_655
Nb0 O2 2.076266 1_555
Nb0 O3 2.087386 1_665
Nb1 O0 2.008061 1_555
Nb1 O10 2.053719 1_555
Nb1 O14 2.085368 1_555
Nb1 O12 2.106765 1_555
Nb1 O9 2.126664 1_545
Nb1 O4 2.156894 1_655
Nb2 O5 2.008061 1_555
Nb2 O11 2.053719 1_555
Nb2 O14 2.085368 1_555
Nb2 O12 2.106765 1_555
Nb2 O9 2.126664 1_455
Nb2 O4 2.156894 1_565
O0 Ti2 2.063417 1_655
O1 Ti1 1.968991 1_555
O1 Ti0 1.968991 1_555
O2 Ti0 2.048789 1_555
O2 Ti1 2.048789 1_555
O3 Ti1 2.023198 1_545
O3 Ti0 2.023198 1_455
O4 Ti2 1.940283 1_555
O5 Ti2 2.063417 1_565
O6 Ti0 2.011822 1_555
O7 Ti1 2.011822 1_555
O8 Ti0 2.009033 1_455
O8 Ti1 2.009033 1_545
O10 Ti2 1.967459 1_555
O11 Ti2 1.967459 1_555
O12 Ti2 2.030195 1_555
O13 Ti0 2.035297 1_555
O15 Ti1 2.035297 1_555
