# generated using pymatgen
data_Li2Sn(OF3)2
_symmetry_space_group_name_H-M   'P 1'
_cell_length_a   5.70749688
_cell_length_b   5.70749688
_cell_length_c   4.69381269
_cell_angle_alpha   87.89608423
_cell_angle_beta   87.89608423
_cell_angle_gamma   73.72056920
_symmetry_Int_Tables_number   1
_chemical_formula_structural   Li2Sn(OF3)2
_chemical_formula_sum   'Li2 Sn1 O2 F6'
_cell_volume   146.61829555
_cell_formula_units_Z   1
loop_
 _symmetry_equiv_pos_site_id
 _symmetry_equiv_pos_as_xyz
  1  'x, y, z'
loop_
 _atom_site_type_symbol
 _atom_site_label
 _atom_site_symmetry_multiplicity
 _atom_site_fract_x
 _atom_site_fract_y
 _atom_site_fract_z
 _atom_site_occupancy
  Li  Li0  1  0.50000000  0.00000000  0.50000000  1
  Li  Li1  1  0.00000000  0.50000000  0.50000000  1
  Sn  Sn0  1  0.00000000  0.00000000  0.00000000  1
  O  O0  1  0.34871300  0.34871300  0.29610900  1
  O  O1  1  0.65128700  0.65128700  0.70389100  1
  F  F0  1  0.30570100  0.88912000  0.22023200  1
  F  F1  1  0.88912000  0.30570100  0.22023200  1
  F  F2  1  0.69429900  0.11088000  0.77976800  1
  F  F3  1  0.11088000  0.69429900  0.77976800  1
  F  F4  1  0.82541900  0.82541900  0.28482900  1
  F  F5  1  0.17458100  0.17458100  0.71517100  1
loop_
_geom_bond_atom_site_label_1
_geom_bond_atom_site_label_2
_geom_bond_distance
_geom_bond_site_symmetry_2
Li0 O1 2.140097 1_545
Li0 O0 2.140097 1_555
Li1 O0 2.140097 1_555
Li1 O1 2.140097 1_455
F0 Li0 1.978922 1_565
F0 Sn0 1.994672 1_565
F1 Li1 1.978922 1_655
F1 Sn0 1.994672 1_655
F2 Li0 1.978922 1_555
F2 Sn0 1.994672 1_656
F3 Li1 1.978922 1_555
F3 Sn0 1.994672 1_566
F4 Sn0 2.033252 1_665
F4 Li1 2.088337 1_655
F4 Li0 2.088337 1_565
F5 Sn0 2.033252 1_556
F5 Li0 2.088337 1_555
F5 Li1 2.088337 1_555
