# generated using pymatgen
data_Li(FeO2)3
_symmetry_space_group_name_H-M   'P 1'
_cell_length_a   8.84623891
_cell_length_b   5.40844325
_cell_length_c   5.40863528
_cell_angle_alpha   62.43369957
_cell_angle_beta   99.45084618
_cell_angle_gamma   80.54853593
_symmetry_Int_Tables_number   1
_chemical_formula_structural   Li(FeO2)3
_chemical_formula_sum   'Li2 Fe6 O12'
_cell_volume   217.57784461
_cell_formula_units_Z   2
loop_
 _symmetry_equiv_pos_site_id
 _symmetry_equiv_pos_as_xyz
  1  'x, y, z'
loop_
 _atom_site_type_symbol
 _atom_site_label
 _atom_site_symmetry_multiplicity
 _atom_site_fract_x
 _atom_site_fract_y
 _atom_site_fract_z
 _atom_site_occupancy
  Li  Li0  1  0.33326600  0.58344300  0.91673800  1
  Li  Li1  1  0.83340100  0.33324700  0.66663200  1
  Fe  Fe0  1  0.99549100  0.75224200  0.74773000  1
  Fe  Fe1  1  0.17118800  0.16441600  0.83560200  1
  Fe  Fe2  1  0.33330500  0.08333300  0.41665600  1
  Fe  Fe3  1  0.49553900  0.50221100  0.49780400  1
  Fe  Fe4  1  0.67113800  0.41443700  0.08555700  1
  Fe  Fe5  1  0.83334800  0.83333300  0.16665800  1
  O  O0  1  0.99463300  0.96923200  0.94615500  1
  O  O1  1  0.99465300  0.53616200  0.54841000  1
  O  O2  1  0.17203700  0.38051900  0.03490700  1
  O  O3  1  0.33335300  0.30243200  0.63586100  1
  O  O4  1  0.17202700  0.94748000  0.63713300  1
  O  O5  1  0.33334400  0.86416000  0.19752200  1
  O  O6  1  0.49456700  0.30389600  0.28073100  1
  O  O7  1  0.49455600  0.70156000  0.71384800  1
  O  O8  1  0.67211400  0.21513300  0.86945800  1
  O  O9  1  0.67212200  0.61274900  0.30264700  1
  O  O10  1  0.83329200  0.05240700  0.38583500  1
  O  O11  1  0.83329000  0.61427400  0.94745100  1
loop_
_geom_bond_atom_site_label_1
_geom_bond_atom_site_label_2
_geom_bond_distance
_geom_bond_site_symmetry_2
Li0 O4 1.952291 1_555
Li0 O2 1.952302 1_556
Li0 O6 1.952376 1_556
Li0 O7 1.952637 1_555
Li0 O5 2.597193 1_556
Li0 O3 2.598983 1_555
Li1 O0 1.952117 1_545
Li1 O9 1.952222 1_555
Li1 O8 1.952427 1_555
Li1 O1 1.952508 1_555
Li1 O10 2.597822 1_555
Li1 O11 2.598789 1_555
Fe0 O1 1.922055 1_555
Fe0 O0 1.922132 1_555
Fe0 O11 1.974117 1_555
Fe0 O10 1.974123 1_565
Fe0 O4 2.043382 1_655
Fe0 O2 2.043403 1_656
Fe1 O4 1.922080 1_545
Fe1 O2 1.922096 1_556
Fe1 O3 1.973954 1_555
Fe1 O5 1.974147 1_546
Fe1 O0 2.043342 1_445
Fe1 O1 2.043434 1_455
Fe2 O4 2.022227 1_545
Fe2 O7 2.022313 1_545
Fe2 O2 2.022329 1_555
Fe2 O6 2.022422 1_555
Fe2 O3 2.027352 1_555
Fe2 O5 2.027366 1_545
Fe3 O6 1.922021 1_555
Fe3 O7 1.922037 1_555
Fe3 O3 1.974262 1_555
Fe3 O5 1.974383 1_555
Fe3 O8 2.043271 1_555
Fe3 O9 2.043487 1_555
Fe4 O9 1.922087 1_555
Fe4 O8 1.922089 1_554
Fe4 O11 1.974217 1_554
Fe4 O10 1.974438 1_555
Fe4 O6 2.043441 1_555
Fe4 O7 2.043495 1_554
Fe5 O9 2.022280 1_555
Fe5 O8 2.022339 1_564
Fe5 O0 2.022407 1_554
Fe5 O1 2.022454 1_555
Fe5 O10 2.027107 1_565
Fe5 O11 2.027176 1_554
