# generated using pymatgen
data_SrB6(H4O7)2
_symmetry_space_group_name_H-M   'P 1'
_cell_length_a   8.29976000
_cell_length_b   10.01047700
_cell_length_c   14.65940763
_cell_angle_alpha   65.69113869
_cell_angle_beta   90.00000000
_cell_angle_gamma   90.00000000
_symmetry_Int_Tables_number   1
_chemical_formula_structural   SrB6(H4O7)2
_chemical_formula_sum   'Sr4 B24 H32 O56'
_cell_volume   1109.98466753
_cell_formula_units_Z   4
loop_
 _symmetry_equiv_pos_site_id
 _symmetry_equiv_pos_as_xyz
  1  'x, y, z'
loop_
 _atom_site_type_symbol
 _atom_site_label
 _atom_site_symmetry_multiplicity
 _atom_site_fract_x
 _atom_site_fract_y
 _atom_site_fract_z
 _atom_site_occupancy
  Sr  Sr0  1  0.44266100  0.80546300  0.66277000  1
  Sr  Sr1  1  0.94266100  0.19453700  0.83723000  1
  Sr  Sr2  1  0.55733900  0.19453700  0.33723000  1
  Sr  Sr3  1  0.05733900  0.80546300  0.16277000  1
  B  B0  1  0.34705000  0.15181600  0.69467500  1
  B  B1  1  0.84705000  0.84818400  0.80532500  1
  B  B2  1  0.65295000  0.84818400  0.30532500  1
  B  B3  1  0.15295000  0.15181600  0.19467500  1
  B  B4  1  0.34120700  0.41700900  0.69232500  1
  B  B5  1  0.84120700  0.58299100  0.80767500  1
  B  B6  1  0.65879300  0.58299100  0.30767500  1
  B  B7  1  0.15879300  0.41700900  0.19232500  1
  B  B8  1  0.25261200  0.37201700  0.54458900  1
  B  B9  1  0.75261200  0.62798300  0.95541100  1
  B  B10  1  0.74738800  0.62798300  0.45541100  1
  B  B11  1  0.24738800  0.37201700  0.04458900  1
  B  B12  1  0.04651400  0.78285000  0.69048100  1
  B  B13  1  0.54651400  0.21715000  0.80951900  1
  B  B14  1  0.95348600  0.21715000  0.30951900  1
  B  B15  1  0.45348600  0.78285000  0.19048100  1
  B  B16  1  0.10744000  0.51810900  0.75219800  1
  B  B17  1  0.60744000  0.48189100  0.74780200  1
  B  B18  1  0.89256000  0.48189100  0.24780200  1
  B  B19  1  0.39256000  0.51810900  0.25219800  1
  B  B20  1  0.11384500  0.97697800  0.75196800  1
  B  B21  1  0.61384500  0.02302200  0.74803200  1
  B  B22  1  0.88615500  0.02302200  0.24803200  1
  B  B23  1  0.38615500  0.97697800  0.25196800  1
  H  H0  1  0.85170500  0.65050300  0.57131200  1
  H  H1  1  0.35170500  0.34949700  0.92868800  1
  H  H2  1  0.14829500  0.34949700  0.42868800  1
  H  H3  1  0.64829500  0.65050300  0.07131200  1
  H  H4  1  0.41730500  0.80037200  0.45010600  1
  H  H5  1  0.91730500  0.19962800  0.04989400  1
  H  H6  1  0.58269500  0.19962800  0.54989400  1
  H  H7  1  0.08269500  0.80037200  0.95010600  1
  H  H8  1  0.32742700  0.65538000  0.52474100  1
  H  H9  1  0.82742700  0.34462000  0.97525900  1
  H  H10  1  0.67257300  0.34462000  0.47525900  1
  H  H11  1  0.17257300  0.65538000  0.02474100  1
  H  H12  1  0.04155100  0.86147400  0.53980300  1
  H  H13  1  0.54155100  0.13852600  0.96019700  1
  H  H14  1  0.95844900  0.13852600  0.46019700  1
  H  H15  1  0.45844900  0.86147400  0.03980300  1
  H  H16  1  0.76815900  0.91461000  0.55243700  1
  H  H17  1  0.26815900  0.08539000  0.94756300  1
  H  H18  1  0.23184100  0.08539000  0.44756300  1
  H  H19  1  0.73184100  0.91461000  0.05243700  1
  H  H20  1  0.67309900  0.87141300  0.47874000  1
  H  H21  1  0.17309900  0.12858700  0.02126000  1
  H  H22  1  0.32690100  0.12858700  0.52126000  1
  H  H23  1  0.82690100  0.87141300  0.97874000  1
  H  H24  1  0.86283200  0.23424900  0.60803700  1
  H  H25  1  0.36283200  0.76575100  0.89196300  1
  H  H26  1  0.13716800  0.76575100  0.39196300  1
  H  H27  1  0.63716800  0.23424900  0.10803700  1
  H  H28  1  0.89107400  0.38927300  0.60569100  1
  H  H29  1  0.39107400  0.61072700  0.89430900  1
  H  H30  1  0.10892600  0.61072700  0.39430900  1
  H  H31  1  0.60892600  0.38927300  0.10569100  1
  O  O0  1  0.47183200  0.04810200  0.69396300  1
  O  O1  1  0.97183200  0.95189800  0.80603700  1
  O  O2  1  0.52816800  0.95189800  0.30603700  1
  O  O3  1  0.02816800  0.04810200  0.19396300  1
  O  O4  1  0.45972000  0.51905700  0.70059300  1
  O  O5  1  0.95972000  0.48094300  0.79940700  1
  O  O6  1  0.54028000  0.48094300  0.29940700  1
  O  O7  1  0.04028000  0.51905700  0.20059300  1
  O  O8  1  0.82072400  0.57396700  0.54837400  1
  O  O9  1  0.32072400  0.42603300  0.95162600  1
  O  O10  1  0.17927600  0.42603300  0.45162600  1
  O  O11  1  0.67927600  0.57396700  0.04837400  1
  O  O12  1  0.33250600  0.76394300  0.50088900  1
  O  O13  1  0.83250600  0.23605700  0.99911100  1
  O  O14  1  0.66749400  0.23605700  0.49911100  1
  O  O15  1  0.16749400  0.76394300  0.00088900  1
  O  O16  1  0.96224300  0.83026300  0.59364000  1
  O  O17  1  0.46224300  0.16973700  0.90636000  1
  O  O18  1  0.03775700  0.16973700  0.40636000  1
  O  O19  1  0.53775700  0.83026300  0.09364000  1
  O  O20  1  0.69932000  0.59771200  0.74479200  1
  O  O21  1  0.19932000  0.40228800  0.75520800  1
  O  O22  1  0.30068000  0.40228800  0.25520800  1
  O  O23  1  0.80068000  0.59771200  0.24479200  1
  O  O24  1  0.15602100  0.66115800  0.70473400  1
  O  O25  1  0.65602100  0.33884200  0.79526600  1
  O  O26  1  0.84397900  0.33884200  0.29526600  1
  O  O27  1  0.34397900  0.66115800  0.20473400  1
  O  O28  1  0.71314700  0.91992100  0.73897400  1
  O  O29  1  0.21314700  0.08007900  0.76102600  1
  O  O30  1  0.28685300  0.08007900  0.26102600  1
  O  O31  1  0.78685300  0.91992100  0.23897400  1
  O  O32  1  0.14876000  0.89967100  0.69602700  1
  O  O33  1  0.64876000  0.10032900  0.80397300  1
  O  O34  1  0.85124000  0.10032900  0.30397300  1
  O  O35  1  0.35124000  0.89967100  0.19602700  1
  O  O36  1  0.29385400  0.22689500  0.59049200  1
  O  O37  1  0.79385400  0.77310500  0.90950800  1
  O  O38  1  0.70614600  0.77310500  0.40950800  1
  O  O39  1  0.20614600  0.22689500  0.09049200  1
  O  O40  1  0.29220900  0.46766200  0.58641400  1
  O  O41  1  0.79220900  0.53233800  0.91358600  1
  O  O42  1  0.70779100  0.53233800  0.41358600  1
  O  O43  1  0.20779100  0.46766200  0.08641400  1
  O  O44  1  0.65961900  0.92604700  0.52168800  1
  O  O45  1  0.15961900  0.07395300  0.97831200  1
  O  O46  1  0.34038100  0.07395300  0.47831200  1
  O  O47  1  0.84038100  0.92604700  0.02168800  1
  O  O48  1  0.92459500  0.28523200  0.64099700  1
  O  O49  1  0.42459500  0.71476800  0.85900300  1
  O  O50  1  0.07540500  0.71476800  0.35900300  1
  O  O51  1  0.57540500  0.28523200  0.14099700  1
  O  O52  1  0.41974800  0.26427100  0.72771400  1
  O  O53  1  0.91974800  0.73572900  0.77228600  1
  O  O54  1  0.58025200  0.73572900  0.27228600  1
  O  O55  1  0.08025200  0.26427100  0.22771400  1
loop_
_geom_bond_atom_site_label_1
_geom_bond_atom_site_label_2
_geom_bond_distance
_geom_bond_site_symmetry_2
B0 O29 1.456650 1_555
B0 O36 1.465363 1_555
B0 O0 1.469537 1_555
B0 O52 1.521445 1_555
B1 O28 1.456650 1_555
B1 O37 1.465363 1_555
B1 O1 1.469537 1_555
B1 O53 1.521445 1_555
B2 O31 1.456650 1_555
B2 O38 1.465363 1_555
B2 O2 1.469537 1_555
B2 O54 1.521445 1_555
B3 O30 1.456650 1_555
B3 O39 1.465363 1_555
B3 O3 1.469537 1_555
B3 O55 1.521445 1_555
B4 O4 1.458670 1_555
B4 O21 1.465076 1_555
B4 O40 1.478133 1_555
B4 O52 1.542334 1_555
B5 O5 1.458670 1_555
B5 O20 1.465076 1_555
B5 O41 1.478133 1_555
B5 O53 1.542334 1_555
B6 O6 1.458670 1_555
B6 O23 1.465076 1_555
B6 O42 1.478133 1_555
B6 O54 1.542334 1_555
B7 O7 1.458670 1_555
B7 O22 1.465076 1_555
B7 O43 1.478133 1_555
B7 O55 1.542334 1_555
B8 O36 1.369523 1_555
B8 O40 1.372577 1_555
B8 O10 1.383239 1_555
B9 O37 1.369523 1_555
B9 O41 1.372577 1_555
B9 O11 1.383239 1_556
B10 O38 1.369523 1_555
B10 O42 1.372577 1_555
B10 O8 1.383239 1_555
B11 O39 1.369523 1_555
B11 O43 1.372577 1_555
B11 O9 1.383239 1_554
B12 O24 1.464296 1_555
B12 O32 1.473979 1_555
B12 O16 1.474816 1_455
B12 O53 1.517189 1_455
B13 O25 1.464296 1_555
B13 O33 1.473979 1_555
B13 O17 1.474816 1_555
B13 O52 1.517189 1_555
B14 O26 1.464296 1_555
B14 O34 1.473979 1_555
B14 O18 1.474816 1_655
B14 O55 1.517189 1_655
B15 O27 1.464296 1_555
B15 O35 1.473979 1_555
B15 O19 1.474816 1_555
B15 O54 1.517189 1_555
B16 O24 1.370029 1_555
B16 O21 1.373179 1_555
B16 O5 1.381504 1_455
B17 O25 1.370029 1_555
B17 O20 1.373179 1_555
B17 O4 1.381504 1_555
B18 O26 1.370029 1_555
B18 O23 1.373179 1_555
B18 O7 1.381504 1_655
B19 O27 1.370029 1_555
B19 O22 1.373179 1_555
B19 O6 1.381504 1_555
B20 O29 1.369288 1_565
B20 O32 1.370352 1_555
B20 O1 1.384454 1_455
B21 O28 1.369288 1_545
B21 O33 1.370352 1_555
B21 O0 1.384454 1_555
B22 O31 1.369288 1_545
B22 O34 1.370352 1_555
B22 O3 1.384454 1_655
B23 O30 1.369288 1_565
B23 O35 1.370352 1_555
B23 O2 1.384454 1_555
H0 O8 0.989090 1_555
H1 O9 0.989090 1_555
H2 O10 0.989090 1_555
H3 O11 0.989090 1_555
H4 O12 0.979300 1_555
H5 O13 0.979300 1_554
H6 O14 0.979300 1_555
H7 O15 0.979300 1_556
H8 O12 0.996115 1_555
H9 O13 0.996115 1_555
H10 O14 0.996115 1_555
H11 O15 0.996115 1_555
H12 O16 0.975062 1_455
H13 O17 0.975062 1_555
H14 O18 0.975062 1_655
H15 O19 0.975062 1_555
H16 O44 0.992646 1_555
H17 O45 0.992646 1_555
H18 O46 0.992646 1_555
H19 O47 0.992646 1_555
H20 O44 0.995745 1_555
H20 O38 1.701771 1_555
H21 O45 0.995745 1_554
H21 O39 1.701771 1_555
H22 O46 0.995745 1_555
H22 O36 1.701771 1_555
H23 O47 0.995745 1_556
H23 O37 1.701771 1_555
H24 O48 0.979658 1_555
H25 O49 0.979658 1_555
H26 O50 0.979658 1_555
H27 O51 0.979658 1_555
H28 O48 0.993076 1_555
H29 O49 0.993076 1_555
H30 O50 0.993076 1_555
H31 O51 0.993076 1_555
O0 Sr0 2.661177 1_545
O1 Sr1 2.661177 1_565
O2 Sr2 2.661177 1_565
O3 Sr3 2.661177 1_545
O4 Sr0 2.690486 1_555
O5 Sr1 2.690486 1_555
O6 Sr2 2.690486 1_555
O7 Sr3 2.690486 1_555
O12 Sr0 2.729870 1_555
O13 Sr1 2.729870 1_555
O14 Sr2 2.729870 1_555
O15 Sr3 2.729870 1_555
O20 Sr0 2.872257 1_555
O21 Sr1 2.872257 1_455
O22 Sr2 2.872257 1_555
O23 Sr3 2.872257 1_655
O24 Sr0 2.719081 1_555
O25 Sr1 2.719081 1_555
O26 Sr2 2.719081 1_555
O27 Sr3 2.719081 1_555
O28 Sr0 2.941840 1_555
O29 Sr1 2.941840 1_455
O30 Sr2 2.941840 1_555
O31 Sr3 2.941840 1_655
O32 Sr0 2.730534 1_555
O33 Sr1 2.730534 1_555
O34 Sr2 2.730534 1_555
O35 Sr3 2.730534 1_555
O44 Sr0 2.630890 1_555
O44 Sr2 3.045114 1_565
O45 Sr1 2.630890 1_455
O45 Sr3 3.045114 1_546
O46 Sr2 2.630890 1_555
O46 Sr0 3.045114 1_545
O47 Sr3 2.630890 1_655
O47 Sr1 3.045114 1_564
O48 Sr1 2.640394 1_555
O49 Sr0 2.640394 1_555
O50 Sr3 2.640394 1_555
O51 Sr2 2.640394 1_555
