# generated using pymatgen
data_Ba2Zr7O16
_symmetry_space_group_name_H-M   'P 1'
_cell_length_a   9.91868865
_cell_length_b   9.91868865
_cell_length_c   9.91868860
_cell_angle_alpha   38.65542668
_cell_angle_beta   38.65542668
_cell_angle_gamma   38.65542772
_symmetry_Int_Tables_number   1
_chemical_formula_structural   Ba2Zr7O16
_chemical_formula_sum   'Ba2 Zr7 O16'
_cell_volume   342.17455635
_cell_formula_units_Z   1
loop_
 _symmetry_equiv_pos_site_id
 _symmetry_equiv_pos_as_xyz
  1  'x, y, z'
loop_
 _atom_site_type_symbol
 _atom_site_label
 _atom_site_symmetry_multiplicity
 _atom_site_fract_x
 _atom_site_fract_y
 _atom_site_fract_z
 _atom_site_occupancy
  Ba  Ba0  1  0.33354400  0.33354400  0.33354400  1
  Ba  Ba1  1  0.66645600  0.66645600  0.66645600  1
  Zr  Zr0  1  0.00000000  0.00000000  0.00000000  1
  Zr  Zr1  1  0.88535600  0.25188000  0.51333800  1
  Zr  Zr2  1  0.48666200  0.11464400  0.74812000  1
  Zr  Zr3  1  0.74812000  0.48666200  0.11464400  1
  Zr  Zr4  1  0.25188000  0.51333800  0.88535600  1
  Zr  Zr5  1  0.51333800  0.88535600  0.25188000  1
  Zr  Zr6  1  0.11464400  0.74812000  0.48666200  1
  O  O0  1  0.23394300  0.23394300  0.23394300  1
  O  O1  1  0.96151300  0.21854600  0.68508800  1
  O  O2  1  0.84670000  0.14983100  0.41537400  1
  O  O3  1  0.58462600  0.15330000  0.85016900  1
  O  O4  1  0.31491200  0.03848700  0.78145400  1
  O  O5  1  0.78145400  0.31491200  0.03848700  1
  O  O6  1  0.85016900  0.58462600  0.15330000  1
  O  O7  1  0.43156300  0.43156300  0.43156300  1
  O  O8  1  0.56843700  0.56843700  0.56843700  1
  O  O9  1  0.14983100  0.41537400  0.84670000  1
  O  O10  1  0.21854600  0.68508800  0.96151300  1
  O  O11  1  0.68508800  0.96151300  0.21854600  1
  O  O12  1  0.41537400  0.84670000  0.14983100  1
  O  O13  1  0.15330000  0.85016900  0.58462600  1
  O  O14  1  0.03848700  0.78145400  0.31491200  1
  O  O15  1  0.76605700  0.76605700  0.76605700  1
loop_
_geom_bond_atom_site_label_1
_geom_bond_atom_site_label_2
_geom_bond_distance
_geom_bond_site_symmetry_2
Ba0 O7 2.695259 1_555
Ba0 O1 2.709630 1_455
Ba0 O10 2.709630 1_554
Ba0 O11 2.709630 1_545
Ba0 O0 2.738760 1_555
Ba0 O4 2.755376 1_555
Ba0 O5 2.755376 1_555
Ba0 O14 2.755376 1_555
Ba1 O8 2.695259 1_555
Ba1 O14 2.709630 1_655
Ba1 O5 2.709630 1_556
Ba1 O4 2.709630 1_565
Ba1 O15 2.738760 1_555
Ba1 O11 2.755376 1_555
Ba1 O10 2.755376 1_555
Ba1 O1 2.755376 1_555
O0 Zr4 2.123745 1_554
O0 Zr1 2.123745 1_455
O0 Zr5 2.123746 1_545
O1 Zr1 2.078936 1_555
O1 Zr0 2.143816 1_656
O2 Zr1 2.199953 1_555
O2 Zr3 2.214494 1_555
O2 Zr6 2.331304 1_645
O2 Zr2 2.346682 1_555
O3 Zr2 2.199953 1_555
O3 Zr1 2.214494 1_555
O3 Zr5 2.331304 1_546
O3 Zr4 2.346682 1_555
O4 Zr2 2.078936 1_555
O4 Zr0 2.143816 1_556
O5 Zr3 2.078936 1_555
O5 Zr0 2.143816 1_655
O6 Zr3 2.199953 1_555
O6 Zr5 2.214494 1_555
O6 Zr4 2.331304 1_654
O6 Zr1 2.346682 1_555
O7 Zr3 2.149475 1_555
O7 Zr2 2.149475 1_555
O7 Zr6 2.149475 1_555
O8 Zr4 2.149475 1_555
O8 Zr5 2.149475 1_555
O8 Zr1 2.149475 1_555
O9 Zr4 2.199953 1_555
O9 Zr2 2.214494 1_555
O9 Zr3 2.331304 1_456
O9 Zr6 2.346682 1_555
O10 Zr4 2.078936 1_555
O10 Zr0 2.143816 1_566
O11 Zr5 2.078936 1_555
O11 Zr0 2.143816 1_665
O12 Zr5 2.199953 1_555
O12 Zr6 2.214494 1_555
O12 Zr2 2.331304 1_564
O12 Zr3 2.346682 1_555
O13 Zr6 2.199953 1_555
O13 Zr4 2.214494 1_555
O13 Zr1 2.331304 1_465
O13 Zr5 2.346682 1_555
O14 Zr6 2.078936 1_555
O14 Zr0 2.143816 1_565
O15 Zr3 2.123745 1_556
O15 Zr6 2.123745 1_655
O15 Zr2 2.123746 1_565
