# generated using pymatgen
data_Li9Ti7Nb5O30
_symmetry_space_group_name_H-M   'P 1'
_cell_length_a   5.17228954
_cell_length_b   5.17228954
_cell_length_c   24.16786700
_cell_angle_alpha   90.00000000
_cell_angle_beta   90.00000000
_cell_angle_gamma   119.99999407
_symmetry_Int_Tables_number   1
_chemical_formula_structural   Li9Ti7Nb5O30
_chemical_formula_sum   'Li9 Ti7 Nb5 O30'
_cell_volume   559.93115915
_cell_formula_units_Z   1
loop_
 _symmetry_equiv_pos_site_id
 _symmetry_equiv_pos_as_xyz
  1  'x, y, z'
loop_
 _atom_site_type_symbol
 _atom_site_label
 _atom_site_symmetry_multiplicity
 _atom_site_fract_x
 _atom_site_fract_y
 _atom_site_fract_z
 _atom_site_occupancy
  Li  Li0  1  0.00000000  0.00000000  0.27507000  1
  Li  Li1  1  0.66666700  0.33333300  0.08206300  1
  Li  Li2  1  0.66666700  0.33333300  0.37315200  1
  Li  Li3  1  0.66666700  0.33333300  0.62742000  1
  Li  Li4  1  0.66666700  0.33333300  0.92357800  1
  Li  Li5  1  0.00000000  0.00000000  0.79327500  1
  Li  Li6  1  0.00000000  0.00000000  0.52702400  1
  Li  Li7  1  0.33333300  0.66666700  0.20386800  1
  Li  Li8  1  0.33333300  0.66666700  0.47489300  1
  Ti  Ti0  1  0.00000000  0.00000000  0.89562800  1
  Ti  Ti1  1  0.00000000  0.00000000  0.01547300  1
  Ti  Ti2  1  0.00000000  0.00000000  0.68566800  1
  Ti  Ti3  1  0.33333300  0.66666700  0.71415500  1
  Ti  Ti4  1  0.33333300  0.66666700  0.98476000  1
  Ti  Ti5  1  0.33333300  0.66666700  0.10749400  1
  Ti  Ti6  1  0.33333300  0.66666700  0.59207300  1
  Nb  Nb0  1  0.00000000  0.00000000  0.40310300  1
  Nb  Nb1  1  0.66666700  0.33333300  0.20415200  1
  Nb  Nb2  1  0.66666700  0.33333300  0.50154500  1
  Nb  Nb3  1  0.66666700  0.33333300  0.80276000  1
  Nb  Nb4  1  0.33333300  0.66666700  0.30828800  1
  O  O0  1  0.58540800  0.00094800  0.14917900  1
  O  O1  1  0.67264400  0.96491700  0.35220700  1
  O  O2  1  0.67583300  0.99647400  0.74563000  1
  O  O3  1  0.95827400  0.28995800  0.45292900  1
  O  O4  1  0.64443600  0.69959100  0.04565100  1
  O  O5  1  0.05515600  0.35556400  0.04565100  1
  O  O6  1  0.71004200  0.66831600  0.45292900  1
  O  O7  1  0.00352600  0.67935900  0.74563000  1
  O  O8  1  0.29227300  0.32735600  0.35220700  1
  O  O9  1  0.99905200  0.58446000  0.14917900  1
  O  O10  1  0.32064100  0.32416700  0.74563000  1
  O  O11  1  0.03508300  0.70772700  0.35220700  1
  O  O12  1  0.00518900  0.62594900  0.55083100  1
  O  O13  1  0.41554000  0.41459200  0.14917900  1
  O  O14  1  0.03271200  0.71963700  0.95145600  1
  O  O15  1  0.30040900  0.94484400  0.04565100  1
  O  O16  1  0.92491600  0.25739400  0.84801900  1
  O  O17  1  0.33168400  0.04172600  0.45292900  1
  O  O18  1  0.29339900  0.94164700  0.65282800  1
  O  O19  1  0.00444900  0.37971500  0.25279100  1
  O  O20  1  0.33247800  0.07508400  0.84801900  1
  O  O21  1  0.05835300  0.35175200  0.65282800  1
  O  O22  1  0.37526500  0.99555100  0.25279100  1
  O  O23  1  0.62076000  0.99481100  0.55083100  1
  O  O24  1  0.28036300  0.31307600  0.95145600  1
  O  O25  1  0.68692400  0.96728800  0.95145600  1
  O  O26  1  0.37405100  0.37924000  0.55083100  1
  O  O27  1  0.62028500  0.62473500  0.25279100  1
  O  O28  1  0.64824800  0.70660100  0.65282800  1
  O  O29  1  0.74260600  0.66752200  0.84801900  1
loop_
_geom_bond_atom_site_label_1
_geom_bond_atom_site_label_2
_geom_bond_distance
_geom_bond_site_symmetry_2
Li0 O22 2.025465 1_545
Li0 O27 2.025468 1_445
Li0 O19 2.025470 1_555
Li0 O11 2.463315 1_545
Li0 O1 2.463315 1_445
Li0 O8 2.463315 1_555
Li1 O4 2.143402 1_555
Li1 O5 2.143402 1_655
Li1 O15 2.143402 1_545
Li1 O0 2.245161 1_555
Li1 O9 2.245162 1_555
Li1 O13 2.245164 1_555
Li2 O1 1.986765 1_545
Li2 O11 1.986768 1_655
Li2 O8 1.986770 1_555
Li2 O3 2.526053 1_555
Li2 O17 2.526055 1_555
Li2 O6 2.526057 1_555
Li3 O21 2.073032 1_655
Li3 O18 2.073034 1_545
Li3 O28 2.073037 1_555
Li3 O23 2.476403 1_545
Li3 O12 2.476405 1_655
Li3 O26 2.476407 1_555
Li4 O25 2.061029 1_545
Li4 O14 2.061034 1_655
Li4 O24 2.061038 1_555
Li4 O16 2.407854 1_555
Li4 O20 2.407857 1_555
Li4 O29 2.407858 1_555
Li5 O7 2.026556 1_545
Li5 O2 2.026556 1_445
Li5 O10 2.026556 1_555
Li5 O16 2.047120 1_455
Li5 O20 2.047120 1_555
Li5 O29 2.047120 1_445
Li6 O12 2.031441 1_545
Li6 O23 2.031441 1_445
Li6 O26 2.031442 1_555
Li6 O3 2.413745 1_455
Li6 O17 2.413745 1_555
Li6 O6 2.413745 1_445
Li7 O27 1.992428 1_555
Li7 O22 1.992428 1_555
Li7 O19 1.992428 1_555
Li7 O9 2.044993 1_455
Li7 O0 2.044994 1_565
Li7 O13 2.044997 1_555
Li8 O17 2.015355 1_565
Li8 O3 2.015358 1_455
Li8 O6 2.015360 1_555
Li8 O12 2.436341 1_555
Li8 O23 2.436343 1_555
Li8 O26 2.436344 1_555
Nb0 O3 2.017315 1_455
Nb0 O17 2.017315 1_555
Nb0 O6 2.017315 1_445
Nb0 O11 2.026218 1_545
Nb0 O1 2.026218 1_445
Nb0 O8 2.026218 1_555
Nb1 O19 2.018069 1_655
Nb1 O22 2.018072 1_545
Nb1 O27 2.018077 1_555
Nb1 O0 2.043239 1_555
Nb1 O9 2.043240 1_555
Nb1 O13 2.043243 1_555
Nb2 O3 2.010995 1_555
Nb2 O17 2.010998 1_555
Nb2 O6 2.011000 1_555
Nb2 O23 2.031061 1_545
Nb2 O12 2.031063 1_655
Nb2 O26 2.031065 1_555
Nb3 O16 1.912995 1_555
Nb3 O20 1.912998 1_555
Nb3 O29 1.912999 1_555
Nb3 O2 2.242082 1_545
Nb3 O7 2.242084 1_655
Nb3 O10 2.242086 1_555
Nb4 O11 1.969536 1_555
Nb4 O1 1.969539 1_555
Nb4 O8 1.969541 1_555
Nb4 O27 2.090627 1_555
Nb4 O22 2.090627 1_555
Nb4 O19 2.090627 1_555
O0 Ti5 1.857417 1_545
O2 Ti3 1.898655 1_555
O2 Ti2 2.209315 1_665
O4 Ti1 1.863031 1_665
O4 Ti4 2.123641 1_554
O4 Ti5 2.139649 1_555
O5 Ti1 1.863029 1_555
O5 Ti4 2.123638 1_554
O5 Ti5 2.139646 1_555
O7 Ti3 1.898653 1_555
O7 Ti2 2.209315 1_565
O9 Ti5 1.857415 1_655
O10 Ti3 1.898657 1_555
O10 Ti2 2.209316 1_555
O12 Ti6 1.887075 1_555
O13 Ti5 1.857419 1_555
O14 Ti4 1.888550 1_555
O14 Ti0 2.048727 1_565
O14 Ti1 2.184150 1_566
O15 Ti1 1.863034 1_565
O15 Ti4 2.123634 1_554
O15 Ti5 2.139642 1_555
O16 Ti0 1.940141 1_655
O18 Ti2 1.866005 1_565
O18 Ti6 2.124915 1_555
O18 Ti3 2.134491 1_555
O20 Ti0 1.940141 1_555
O21 Ti2 1.866005 1_555
O21 Ti6 2.124917 1_555
O21 Ti3 2.134493 1_555
O23 Ti6 1.887077 1_555
O24 Ti4 1.888550 1_555
O24 Ti0 2.048730 1_555
O24 Ti1 2.184152 1_556
O25 Ti4 1.888550 1_555
O25 Ti0 2.048731 1_665
O25 Ti1 2.184154 1_666
O26 Ti6 1.887080 1_555
O28 Ti2 1.866005 1_665
O28 Ti6 2.124919 1_555
O28 Ti3 2.134495 1_555
O29 Ti0 1.940141 1_665
