# generated using pymatgen
data_LiNiP2O7
_symmetry_space_group_name_H-M   'P 1'
_cell_length_a   8.40817000
_cell_length_b   7.00695300
_cell_length_c   9.24196874
_cell_angle_alpha   67.92490137
_cell_angle_beta   90.00000000
_cell_angle_gamma   90.00000000
_symmetry_Int_Tables_number   1
_chemical_formula_structural   LiNiP2O7
_chemical_formula_sum   'Li4 Ni4 P8 O28'
_cell_volume   504.58068606
_cell_formula_units_Z   4
loop_
 _symmetry_equiv_pos_site_id
 _symmetry_equiv_pos_as_xyz
  1  'x, y, z'
loop_
 _atom_site_type_symbol
 _atom_site_label
 _atom_site_symmetry_multiplicity
 _atom_site_fract_x
 _atom_site_fract_y
 _atom_site_fract_z
 _atom_site_occupancy
  Li  Li0  1  0.57090800  0.22611600  0.89948600  1
  Li  Li1  1  0.07090800  0.77388400  0.60051400  1
  Li  Li2  1  0.92909200  0.22611600  0.39948700  1
  Li  Li3  1  0.42909200  0.77388400  0.10051400  1
  Ni  Ni0  1  0.93358600  0.30645800  0.81736200  1
  Ni  Ni1  1  0.43358600  0.69354200  0.68263800  1
  Ni  Ni2  1  0.56641400  0.30645800  0.31736200  1
  Ni  Ni3  1  0.06641400  0.69354200  0.18263800  1
  P  P0  1  0.72049400  0.53027300  0.53209200  1
  P  P1  1  0.22049400  0.46972700  0.96790800  1
  P  P2  1  0.73430200  0.93821800  0.24618500  1
  P  P3  1  0.23430200  0.06178200  0.25381500  1
  P  P4  1  0.76569800  0.93821800  0.74618500  1
  P  P5  1  0.26569800  0.06178200  0.75381500  1
  P  P6  1  0.77950600  0.53027300  0.03209200  1
  P  P7  1  0.27950600  0.46972700  0.46790800  1
  O  O0  1  0.58565100  0.49612700  0.65119100  1
  O  O1  1  0.88332700  0.53472300  0.60702600  1
  O  O2  1  0.77368200  0.37625600  0.95135900  1
  O  O3  1  0.27368200  0.62374400  0.54864100  1
  O  O4  1  0.38332700  0.46527700  0.89297400  1
  O  O5  1  0.68217000  0.75407400  0.40507100  1
  O  O6  1  0.08565100  0.50387300  0.84880900  1
  O  O7  1  0.24151000  0.87429500  0.20785700  1
  O  O8  1  0.89870000  0.89068200  0.19669100  1
  O  O9  1  0.60659700  0.95735600  0.12439600  1
  O  O10  1  0.81783000  0.75407400  0.90507100  1
  O  O11  1  0.10659700  0.04264400  0.37560400  1
  O  O12  1  0.25849000  0.87429500  0.70785700  1
  O  O13  1  0.60130000  0.89068200  0.69669100  1
  O  O14  1  0.39870000  0.10931800  0.30330900  1
  O  O15  1  0.74151000  0.12570500  0.29214300  1
  O  O16  1  0.89340300  0.95735600  0.62439600  1
  O  O17  1  0.18217000  0.24592600  0.09492900  1
  O  O18  1  0.39340300  0.04264400  0.87560400  1
  O  O19  1  0.10130000  0.10931800  0.80330900  1
  O  O20  1  0.75849000  0.12570500  0.79214300  1
  O  O21  1  0.91434900  0.49612700  0.15119100  1
  O  O22  1  0.31783000  0.24592600  0.59492900  1
  O  O23  1  0.61667300  0.53472300  0.10702600  1
  O  O24  1  0.72631800  0.37625600  0.45135900  1
  O  O25  1  0.22631800  0.62374400  0.04864100  1
  O  O26  1  0.11667300  0.46527700  0.39297400  1
  O  O27  1  0.41434900  0.50387300  0.34880900  1
loop_
_geom_bond_atom_site_label_1
_geom_bond_atom_site_label_2
_geom_bond_distance
_geom_bond_site_symmetry_2
Li0 O18 2.035250 1_555
Li0 O20 2.119308 1_555
Li0 O2 2.150014 1_555
Li0 O9 2.239381 1_546
Li0 O4 2.285539 1_555
Li0 O0 2.365879 1_555
Li1 O16 2.035250 1_455
Li1 O12 2.119308 1_555
Li1 O3 2.150014 1_555
Li1 O11 2.239381 1_565
Li1 O1 2.285539 1_455
Li1 O6 2.365879 1_555
Li2 O11 2.035253 1_655
Li2 O15 2.119314 1_555
Li2 O24 2.150010 1_555
Li2 O16 2.239375 1_545
Li2 O26 2.285536 1_655
Li2 O21 2.365885 1_555
Li3 O9 2.035250 1_555
Li3 O7 2.119308 1_555
Li3 O25 2.150014 1_555
Li3 O18 2.239381 1_564
Li3 O23 2.285539 1_555
Li3 O27 2.365879 1_555
Ni0 O6 1.983656 1_655
Ni0 O2 2.008915 1_555
Ni0 O20 2.011909 1_555
Ni0 O19 2.012069 1_655
Ni0 O1 2.044166 1_555
Ni1 O0 1.983656 1_555
Ni1 O3 2.008915 1_555
Ni1 O12 2.011909 1_555
Ni1 O13 2.012069 1_555
Ni1 O4 2.044166 1_555
Ni2 O27 1.983656 1_555
Ni2 O24 2.008915 1_555
Ni2 O15 2.011909 1_555
Ni2 O14 2.012069 1_555
Ni2 O23 2.044166 1_555
Ni3 O21 1.983656 1_455
Ni3 O25 2.008915 1_555
Ni3 O7 2.011909 1_555
Ni3 O8 2.012069 1_455
Ni3 O26 2.044166 1_555
O0 P0 1.535031 1_555
O1 P0 1.539910 1_555
O2 P6 1.526106 1_556
O3 P7 1.526106 1_555
O4 P1 1.539910 1_555
O5 P0 1.599176 1_555
O5 P2 1.609071 1_555
O6 P1 1.535031 1_555
O7 P3 1.526214 1_565
O8 P2 1.531475 1_555
O9 P2 1.524602 1_555
O10 P6 1.599176 1_556
O10 P4 1.609071 1_555
O11 P3 1.524602 1_555
O12 P5 1.526214 1_565
O13 P4 1.531475 1_555
O14 P3 1.531475 1_555
O15 P2 1.526214 1_545
O16 P4 1.524602 1_555
O17 P1 1.599176 1_554
O17 P3 1.609071 1_555
O18 P5 1.524602 1_555
O19 P5 1.531475 1_555
O20 P4 1.526214 1_545
O21 P6 1.535031 1_555
O22 P7 1.599176 1_555
O22 P5 1.609071 1_555
O23 P6 1.539910 1_555
O24 P0 1.526106 1_555
O25 P1 1.526106 1_554
O26 P7 1.539910 1_555
O27 P7 1.535031 1_555
